0:0
     RDKit          3D

 46 47  0  0  0  0  0  0  0  0999 V2000
   61.2600   30.6100   49.9640 C   0  0  0  0  0  0  0  0  0  0  0  0
   61.2640   29.6610   48.9000 O   0  0  0  0  0  0  0  0  0  0  0  0
   60.2240   29.5110   47.9690 C   0  0  0  0  0  0  0  0  0  0  0  0
   59.2700   28.4770   48.0630 C   0  0  0  0  0  0  0  0  0  0  0  0
   58.2520   28.3690   47.1070 C   0  0  0  0  0  0  0  0  0  0  0  0
   58.1810   29.2830   46.0450 C   0  0  0  0  0  0  0  0  0  0  0  0
   56.9110   29.1440   44.8310 S   0  0  0  0  0  0  0  0  0  0  0  0
   57.5250   28.7340   43.5220 O   0  0  0  0  0  0  0  0  0  0  0  0
   55.9020   28.1110   45.2510 O   0  0  0  0  0  0  0  0  0  0  0  0
   56.1180   30.6770   44.6320 N   0  0  0  0  0  0  0  0  0  0  0  0
   57.0730   31.6700   44.1420 C   0  0  0  0  0  0  0  0  0  0  0  0
   57.0180   32.9290   45.0100 C   0  0  0  0  0  0  0  0  0  0  0  0
   58.1800   33.8850   44.6910 C   0  0  0  0  0  0  0  0  0  0  0  0
   59.4220   33.4570   45.3370 N   0  0  0  0  0  0  0  0  0  0  0  0
   59.6570   34.2060   46.8970 S   0  0  0  0  0  0  0  0  0  0  0  0
   59.5710   35.6970   46.7330 O   0  0  0  0  0  0  0  0  0  0  0  0
   58.5460   33.7720   47.8110 O   0  0  0  0  0  0  0  0  0  0  0  0
   61.2140   33.8140   47.6400 C   0  0  0  0  0  0  0  0  0  0  0  0
   62.2250   33.2200   46.8730 C   0  0  0  0  0  0  0  0  0  0  0  0
   63.4460   32.8740   47.4610 C   0  0  0  0  0  0  0  0  0  0  0  0
   63.6690   33.1260   48.8240 C   0  0  0  0  0  0  0  0  0  0  0  0
   64.9640   32.7410   49.4740 C   0  0  0  0  0  0  0  0  0  0  0  0
   62.6530   33.7130   49.5920 C   0  0  0  0  0  0  0  0  0  0  0  0
   61.4330   34.0580   49.0020 C   0  0  0  0  0  0  0  0  0  0  0  0
   59.1370   30.3040   45.9460 C   0  0  0  0  0  0  0  0  0  0  0  0
   60.1440   30.4220   46.9080 C   0  0  0  0  0  0  0  0  0  0  0  0
   61.2622   30.0801   50.9280 H   0  0  0  0  0  0  0  0  0  0  0  0
   62.1555   31.2448   49.8925 H   0  0  0  0  0  0  0  0  0  0  0  0
   60.3592   31.2373   49.8925 H   0  0  0  0  0  0  0  0  0  0  0  0
   59.3254   27.7531   48.8894 H   0  0  0  0  0  0  0  0  0  0  0  0
   57.5058   27.5650   47.1892 H   0  0  0  0  0  0  0  0  0  0  0  0
   58.0879   31.2473   44.1788 H   0  0  0  0  0  0  0  0  0  0  0  0
   56.8146   31.9363   43.1065 H   0  0  0  0  0  0  0  0  0  0  0  0
   56.0664   33.4490   44.8255 H   0  0  0  0  0  0  0  0  0  0  0  0
   57.1004   32.6253   46.0640 H   0  0  0  0  0  0  0  0  0  0  0  0
   58.3338   33.9092   43.6021 H   0  0  0  0  0  0  0  0  0  0  0  0
   57.9195   34.8831   45.0729 H   0  0  0  0  0  0  0  0  0  0  0  0
   62.0577   33.0249   45.8035 H   0  0  0  0  0  0  0  0  0  0  0  0
   64.2334   32.4033   46.8540 H   0  0  0  0  0  0  0  0  0  0  0  0
   64.8497   32.7750   50.5675 H   0  0  0  0  0  0  0  0  0  0  0  0
   65.2403   31.7219   49.1657 H   0  0  0  0  0  0  0  0  0  0  0  0
   65.7522   33.4437   49.1657 H   0  0  0  0  0  0  0  0  0  0  0  0
   62.8164   33.9029   50.6631 H   0  0  0  0  0  0  0  0  0  0  0  0
   60.6424   34.5226   49.6095 H   0  0  0  0  0  0  0  0  0  0  0  0
   59.0942   31.0150   45.1078 H   0  0  0  0  0  0  0  0  0  0  0  0
   60.8793   31.2365   46.8313 H   0  0  0  0  0  0  0  0  0  0  0  0
  1  2  1  0
  2  3  1  0
  3  4  2  0
  4  5  1  0
  5  6  2  0
  6  7  1  0
  7  8  2  0
  7  9  2  0
  7 10  1  0
 10 11  1  0
 11 12  1  0
 12 13  1  0
 13 14  1  0
 14 15  1  0
 15 16  2  0
 15 17  2  0
 15 18  1  0
 18 19  2  0
 19 20  1  0
 20 21  2  0
 21 22  1  0
 21 23  1  0
 23 24  2  0
  6 25  1  0
 25 26  2  0
 26  3  1  0
 24 18  1  0
  1 27  1  0
  1 28  1  0
  1 29  1  0
  4 30  1  0
  5 31  1  0
 11 32  1  0
 11 33  1  0
 12 34  1  0
 12 35  1  0
 13 36  1  0
 13 37  1  0
 19 38  1  0
 20 39  1  0
 22 40  1  0
 22 41  1  0
 22 42  1  0
 23 43  1  0
 24 44  1  0
 25 45  1  0
 26 46  1  0
M  CHG  2  10  -1  14  -1
M  END
>  <UniqueID>  (1) 
1

>  <SMILES>  (1) 
COc1ccc(S(=O)(=O)[N-]CCC[N-]S(=O)(=O)c2ccc(C)cc2)cc1

>  <Energy>  (1) 
35.19238966547935

>  <Genealogy>  (1) 
COc1ccc(S(=O)(=O)[N-]CCC[N-]S(=O)(=O)c2ccc(C)cc2)cc1 (protonated)
COc1ccc(S(=O)(=O)[N-]CCC[N-]S(=O)(=O)c2ccc(C)cc2)cc1 (3D coordinates assigned)
COc1ccc(S(=O)(=O)[N-]CCC[N-]S(=O)(=O)c2ccc(C)cc2)cc1 (optimized conformer: 35.19238966547935 kcal/mol)

>  <smiles>  (1) 
COc1ccc(S(=O)(=O)NCCCNS(=O)(=O)c2ccc(C)cc2)cc1

>  <score_type>  (1) 
oracle

>  <origin>  (1) 
adg

>  <m_score__min__energy>  (1) 
-10.76

>  <m_primary>  (1) 
energy

$$$$
1:0
     RDKit          3D

 52 55  0  0  0  0  0  0  0  0999 V2000
   57.3640   27.1330   46.6050 C   0  0  0  0  0  0  0  0  0  0  0  0
   56.9980   27.7180   45.2450 C   0  0  0  0  0  0  0  0  0  0  0  0
   56.6880   29.1050   45.3600 O   0  0  0  0  0  0  0  0  0  0  0  0
   57.0870   30.1130   44.4640 C   0  0  0  0  0  0  0  0  0  0  0  0
   56.5860   30.2010   43.1500 C   0  0  0  0  0  0  0  0  0  0  0  0
   57.0180   31.2190   42.2950 C   0  0  0  0  0  0  0  0  0  0  0  0
   57.9510   32.1580   42.7390 C   0  0  0  0  0  0  0  0  0  0  0  0
   58.4520   32.0840   44.0410 C   0  0  0  0  0  0  0  0  0  0  0  0
   58.0180   31.0720   44.9080 C   0  0  0  0  0  0  0  0  0  0  0  0
   58.5390   31.0080   46.2480 N   0  0  0  0  0  0  0  0  0  0  0  0
   58.2950   32.0280   47.1410 C   0  0  0  0  0  0  0  0  0  0  0  0
   57.3450   33.4860   46.6720 S   0  0  0  0  0  0  0  0  0  0  0  0
   58.6920   34.6700   47.0420 C   0  0  0  0  0  0  0  0  0  0  0  0
   60.0170   34.2430   46.4610 C   0  0  0  0  0  0  0  0  0  0  0  0
   60.1520   34.1820   45.2080 O   0  0  0  0  0  0  0  0  0  0  0  0
   61.1420   33.9230   47.3130 N   0  0  0  0  0  0  0  0  0  0  0  0
   61.0410   34.0470   48.7750 C   0  0  0  0  0  0  0  0  0  0  0  0
   62.4300   34.2210   49.3960 C   0  0  0  0  0  0  0  0  0  0  0  0
   63.3140   33.2160   48.9440 O   0  0  0  0  0  0  0  0  0  0  0  0
   63.5350   33.3740   47.5570 C   0  0  0  0  0  0  0  0  0  0  0  0
   62.2480   33.1230   46.7680 C   0  0  0  0  0  0  0  0  0  0  0  0
   58.7860   31.9590   48.4090 N   0  0  0  0  0  0  0  0  0  0  0  0
   59.5190   30.8900   48.8010 C   0  0  0  0  0  0  0  0  0  0  0  0
   59.7670   29.8550   47.9410 C   0  0  0  0  0  0  0  0  0  0  0  0
   59.2800   29.9190   46.6370 C   0  0  0  0  0  0  0  0  0  0  0  0
   59.5140   28.9750   45.8330 O   0  0  0  0  0  0  0  0  0  0  0  0
   60.7400   28.5340   48.6270 S   0  0  0  0  0  0  0  0  0  0  0  0
   61.1640   29.6320   50.0360 C   0  0  0  0  0  0  0  0  0  0  0  0
   60.1150   30.7480   50.1490 C   0  0  0  0  0  0  0  0  0  0  0  0
   56.9615   27.7764   47.4012 H   0  0  0  0  0  0  0  0  0  0  0  0
   56.9359   26.1240   46.6974 H   0  0  0  0  0  0  0  0  0  0  0  0
   58.4587   27.0767   46.6974 H   0  0  0  0  0  0  0  0  0  0  0  0
   57.8479   27.5937   44.5579 H   0  0  0  0  0  0  0  0  0  0  0  0
   56.1144   27.1889   44.8586 H   0  0  0  0  0  0  0  0  0  0  0  0
   55.8505   29.4642   42.7949 H   0  0  0  0  0  0  0  0  0  0  0  0
   56.6222   31.2804   41.2705 H   0  0  0  0  0  0  0  0  0  0  0  0
   58.2917   32.9564   42.0634 H   0  0  0  0  0  0  0  0  0  0  0  0
   59.1899   32.8228   44.3870 H   0  0  0  0  0  0  0  0  0  0  0  0
   58.4235   35.6510   46.6229 H   0  0  0  0  0  0  0  0  0  0  0  0
   58.8064   34.7128   48.1352 H   0  0  0  0  0  0  0  0  0  0  0  0
   60.4219   34.9220   49.0221 H   0  0  0  0  0  0  0  0  0  0  0  0
   60.5830   33.1320   49.1787 H   0  0  0  0  0  0  0  0  0  0  0  0
   62.8299   35.2060   49.1135 H   0  0  0  0  0  0  0  0  0  0  0  0
   62.3384   34.1426   50.4894 H   0  0  0  0  0  0  0  0  0  0  0  0
   63.8831   34.3991   47.3620 H   0  0  0  0  0  0  0  0  0  0  0  0
   64.2926   32.6440   47.2360 H   0  0  0  0  0  0  0  0  0  0  0  0
   62.4096   33.3994   45.7156 H   0  0  0  0  0  0  0  0  0  0  0  0
   61.9866   32.0574   46.8461 H   0  0  0  0  0  0  0  0  0  0  0  0
   61.1773   29.0457   50.9666 H   0  0  0  0  0  0  0  0  0  0  0  0
   62.1560   30.0768   49.8686 H   0  0  0  0  0  0  0  0  0  0  0  0
   59.3417   30.4722   50.8811 H   0  0  0  0  0  0  0  0  0  0  0  0
   60.5671   31.6912   50.4897 H   0  0  0  0  0  0  0  0  0  0  0  0
  1  2  1  0
  2  3  1  0
  3  4  1  0
  4  5  2  0
  5  6  1  0
  6  7  2  0
  7  8  1  0
  8  9  2  0
  9 10  1  0
 10 11  1  0
 11 12  1  0
 12 13  1  0
 13 14  1  0
 14 15  2  0
 14 16  1  0
 16 17  1  0
 17 18  1  0
 18 19  1  0
 19 20  1  0
 20 21  1  0
 11 22  2  0
 22 23  1  0
 23 24  2  0
 24 25  1  0
 25 26  2  0
 24 27  1  0
 27 28  1  0
 28 29  1  0
  9  4  1  0
 25 10  1  0
 21 16  1  0
 29 23  1  0
  1 30  1  0
  1 31  1  0
  1 32  1  0
  2 33  1  0
  2 34  1  0
  5 35  1  0
  6 36  1  0
  7 37  1  0
  8 38  1  0
 13 39  1  0
 13 40  1  0
 17 41  1  0
 17 42  1  0
 18 43  1  0
 18 44  1  0
 20 45  1  0
 20 46  1  0
 21 47  1  0
 21 48  1  0
 28 49  1  0
 28 50  1  0
 29 51  1  0
 29 52  1  0
M  END
>  <UniqueID>  (2) 
2

>  <SMILES>  (2) 
CCOc1ccccc1-n1c(SCC(=O)N2CCOCC2)nc2c(c1=O)SCC2

>  <Energy>  (2) 
69.73826476753398

>  <Genealogy>  (2) 
CCOc1ccccc1-n1c(SCC(=O)N2CCOCC2)nc2c(c1=O)SCC2 (3D coordinates assigned)
CCOc1ccccc1-n1c(SCC(=O)N2CCOCC2)nc2c(c1=O)SCC2 (nonaromatic ring conformer: 69.73826476753398 kcal/mol)

>  <smiles>  (2) 
CCOc1ccccc1-n1c(SCC(=O)N2CCOCC2)nc2c(c1=O)SCC2

>  <score_type>  (2) 
oracle

>  <origin>  (2) 
adg

>  <m_score__min__energy>  (2) 
-7.8200000000000003

>  <m_primary>  (2) 
energy

$$$$
2:0
     RDKit          3D

 35 37  0  0  0  0  0  0  0  0999 V2000
   63.9264   34.4686   47.0328 H   0  0  0  0  0  0  0  0  0  0  0  0
   63.2070   33.6370   47.0630 C   0  0  0  0  0  0  0  0  0  0  0  0
   61.8740   33.8520   46.7020 C   0  0  0  0  0  0  0  0  0  0  0  0
   61.5462   34.8516   46.3806 H   0  0  0  0  0  0  0  0  0  0  0  0
   60.9570   32.7980   46.7490 C   0  0  0  0  0  0  0  0  0  0  0  0
   59.9111   32.9703   46.4550 H   0  0  0  0  0  0  0  0  0  0  0  0
   61.3620   31.5210   47.1690 C   0  0  0  0  0  0  0  0  0  0  0  0
   60.4050   30.4460   47.1870 N   0  0  0  0  0  0  0  0  0  0  0  0
   59.8870   30.2710   48.0770 H   0  0  0  0  0  0  0  0  0  0  0  0
   60.2360   29.5090   46.1100 C   0  0  0  0  0  0  0  0  0  0  0  0
   61.1760   29.3240   45.2890 O   0  0  0  0  0  0  0  0  0  0  0  0
   58.9880   28.7190   45.9800 C   0  0  0  0  0  0  0  0  0  0  0  0
   57.8390   29.2970   45.3810 C   0  0  0  0  0  0  0  0  0  0  0  0
   57.8834   30.3314   45.0094 H   0  0  0  0  0  0  0  0  0  0  0  0
   56.6460   28.5670   45.2560 C   0  0  0  0  0  0  0  0  0  0  0  0
   55.7599   29.0194   44.7868 H   0  0  0  0  0  0  0  0  0  0  0  0
   56.6040   27.2610   45.7360 C   0  0  0  0  0  0  0  0  0  0  0  0
   55.5110   26.4590   45.6800 N   0  0  0  0  0  0  0  0  0  0  0  0
   55.7820   25.2470   46.2290 C   0  0  0  0  0  0  0  0  0  0  0  0
   54.9110   24.2910   46.3320 N   0  0  0  0  0  0  0  0  0  0  0  0
   54.4970   23.4650   45.2370 C   0  0  0  0  0  0  0  0  0  0  0  0
   53.2690   23.3430   44.9900 O   0  0  0  0  0  0  0  0  0  0  0  0
   55.4420   22.7240   44.4570 N   0  0  0  0  0  0  0  0  0  0  0  0
   56.2600   23.3050   43.4010 C   0  0  0  0  0  0  0  0  0  0  0  0
   57.0789   23.8866   43.8495 H   0  0  0  0  0  0  0  0  0  0  0  0
   56.6795   22.5013   42.7780 H   0  0  0  0  0  0  0  0  0  0  0  0
   55.6393   23.9658   42.7780 H   0  0  0  0  0  0  0  0  0  0  0  0
   57.3630   25.1300   46.8170 S   0  0  0  0  0  0  0  0  0  0  0  0
   57.7210   26.6980   46.3290 C   0  0  0  0  0  0  0  0  0  0  0  0
   58.9180   27.3950   46.4680 C   0  0  0  0  0  0  0  0  0  0  0  0
   59.7898   26.9254   46.9470 H   0  0  0  0  0  0  0  0  0  0  0  0
   62.7110   31.3090   47.5100 C   0  0  0  0  0  0  0  0  0  0  0  0
   63.0477   30.3074   47.8156 H   0  0  0  0  0  0  0  0  0  0  0  0
   63.6250   32.3660   47.4620 C   0  0  0  0  0  0  0  0  0  0  0  0
   64.6758   32.1958   47.7392 H   0  0  0  0  0  0  0  0  0  0  0  0
  1  2  1  0
  2  3  2  0
  3  4  1  0
  3  5  1  0
  5  6  1  0
  5  7  2  0
  7  8  1  0
  8  9  1  0
  8 10  1  0
 10 11  2  0
 10 12  1  0
 12 13  2  0
 13 14  1  0
 13 15  1  0
 15 16  1  0
 15 17  2  0
 17 18  1  0
 18 19  1  0
 19 20  2  0
 20 21  1  0
 21 22  2  0
 21 23  1  0
 23 24  1  0
 24 25  1  0
 24 26  1  0
 24 27  1  0
 19 28  1  0
 28 29  1  0
 29 30  2  0
 30 31  1  0
  7 32  1  0
 32 33  1  0
 32 34  2  0
 34 35  1  0
 34  2  1  0
 30 12  1  0
 29 17  1  0
M  CHG  2  18  -1  23  -1
M  END
>  <UniqueID>  (3) 
3

>  <SMILES>  (3) 
C[N-]C(=O)/N=c1\[n-]c2ccc(C(=O)Nc3ccccc3)cc2s1

>  <Energy>  (3) 
82.64449604182

>  <Genealogy>  (3) 
C[N-]C(=O)N=c1[n-]c2ccc(C(=O)Nc3ccccc3)cc2s1 (protonated)
C[N-]C(=O)/N=c1\[n-]c2ccc(C(=O)Nc3ccccc3)cc2s1 (cis-trans isomerization)
C[N-]C(=O)/N=c1\[n-]c2ccc(C(=O)Nc3ccccc3)cc2s1 (3D coordinates assigned)
C[N-]C(=O)/N=c1\[n-]c2ccc(C(=O)Nc3ccccc3)cc2s1 (optimized conformer: 82.64449604182 kcal/mol)

>  <smiles>  (3) 
CNC(=O)N=c1[nH]c2ccc(C(=O)Nc3ccccc3)cc2s1

>  <score_type>  (3) 
oracle

>  <origin>  (3) 
adg

>  <m_score__min__energy>  (3) 
-9.6999999999999993

>  <m_primary>  (3) 
energy

$$$$
3:0
     RDKit          3D

 40 42  0  0  1  0  0  0  0  0999 V2000
   58.5120   27.2450   43.2960 Cl  0  0  0  0  0  0  0  0  0  0  0  0
   59.0200   28.2930   44.5860 C   0  0  0  0  0  0  0  0  0  0  0  0
   60.3790   28.5470   44.7700 C   0  0  0  0  0  0  0  0  0  0  0  0
   60.8040   29.3780   45.7900 C   0  0  0  0  0  0  0  0  0  0  0  0
   59.9050   29.9600   46.6300 C   0  0  0  0  0  0  0  0  0  0  0  0
   58.5690   29.7000   46.4360 C   0  0  0  0  0  0  0  0  0  0  0  0
   58.0830   28.8820   45.4380 C   0  0  0  0  0  0  0  0  0  0  0  0
   56.6130   28.6240   45.2620 C   0  0  0  0  0  0  0  0  0  0  0  0
   55.9340   29.8540   44.8850 N   0  0  0  0  0  0  0  0  0  0  0  0
   56.5400   30.7660   44.2040 C   0  0  0  0  0  0  0  0  0  0  0  0
   56.8080   30.6230   42.8940 N   0  0  0  0  0  0  0  0  0  0  0  0
   57.4470   31.6010   42.2280 C   0  0  0  0  0  0  0  0  0  0  0  0
   57.8100   32.7230   42.9080 C   0  0  0  0  0  0  0  0  0  0  0  0
   57.5410   32.8810   44.2460 C   0  0  0  0  0  0  0  0  0  0  0  0
   57.8930   33.9240   44.8190 N   0  0  0  0  0  0  0  0  0  0  0  0
   59.0220   34.5210   45.3110 C   0  0  0  0  0  0  0  0  0  0  0  0
   59.7600   34.1570   46.4980 C   0  0  0  0  0  0  0  0  0  0  0  0
   61.1260   33.8490   46.3640 C   0  0  0  0  0  0  0  0  0  0  0  0
   61.8870   33.4640   47.4470 C   0  0  0  0  0  0  0  0  0  0  0  0
   61.3470   33.3620   48.7120 C   0  0  0  0  0  0  0  0  0  0  0  0
   60.0110   33.6600   48.8620 C   0  0  0  0  0  0  0  0  0  0  0  0
   59.2430   34.0460   47.7780 C   0  0  0  0  0  0  0  0  0  0  0  0
   56.8980   31.8810   44.8880 N   0  0  0  0  0  0  0  0  0  0  0  0
   61.1174   28.0833   44.0994 H   0  0  0  0  0  0  0  0  0  0  0  0
   61.8787   29.5706   45.9239 H   0  0  0  0  0  0  0  0  0  0  0  0
   60.2388   30.6213   47.4431 H   0  0  0  0  0  0  0  0  0  0  0  0
   57.8454   30.1722   47.1168 H   0  0  0  0  0  0  0  0  0  0  0  0
   56.4671   27.8709   44.4736 H   0  0  0  0  0  0  0  0  0  0  0  0
   56.1946   28.2566   46.2107 H   0  0  0  0  0  0  0  0  0  0  0  0
   56.5180   29.7540   42.4000 H   0  0  0  0  0  0  0  0  0  0  0  0
   57.6716   31.4965   41.1563 H   0  0  0  0  0  0  0  0  0  0  0  0
   58.3342   33.5269   42.3704 H   0  0  0  0  0  0  0  0  0  0  0  0
   59.7544   34.4554   44.4929 H   0  0  0  0  0  0  0  0  0  0  0  0
   58.5786   35.4632   45.6655 H   0  0  0  0  0  0  0  0  0  0  0  0
   61.5976   33.9169   45.3725 H   0  0  0  0  0  0  0  0  0  0  0  0
   62.9520   33.2322   47.2985 H   0  0  0  0  0  0  0  0  0  0  0  0
   61.9617   33.0536   49.5705 H   0  0  0  0  0  0  0  0  0  0  0  0
   59.5481   33.5902   49.8574 H   0  0  0  0  0  0  0  0  0  0  0  0
   58.1790   34.2739   47.9392 H   0  0  0  0  0  0  0  0  0  0  0  0
   56.6820   31.9690   45.8930 H   0  0  0  0  0  0  0  0  0  0  0  0
  1  2  1  0
  2  3  2  0
  3  4  1  0
  4  5  2  0
  5  6  1  0
  6  7  2  0
  7  8  1  0
  8  9  1  0
  9 10  2  0
 10 11  1  0
 11 12  1  0
 12 13  2  0
 13 14  1  0
 14 15  2  0
 15 16  1  0
 16 17  1  0
 17 18  2  0
 18 19  1  0
 19 20  2  0
 20 21  1  0
 21 22  2  0
 14 23  1  0
  7  2  1  0
 23 10  1  0
 22 17  1  0
  3 24  1  0
  4 25  1  0
  5 26  1  0
  6 27  1  0
  8 28  1  0
  8 29  1  0
 11 30  1  0
 12 31  1  0
 13 32  1  0
 16 33  1  0
 16 34  1  0
 18 35  1  0
 19 36  1  0
 20 37  1  0
 21 38  1  0
 22 39  1  0
 23 40  1  0
M  END
>  <smiles>  (4) 
Clc1ccccc1CN=c1[nH]ccc(=NCc2ccccc2)[nH]1

>  <score_type>  (4) 
oracle

>  <origin>  (4) 
adg

>  <m_score__min__energy>  (4) 
-8.25

>  <m_primary>  (4) 
energy

$$$$
4:0
     RDKit          3D

 31 33  0  0  0  0  0  0  0  0999 V2000
   58.8955   35.2561   45.0774 H   0  0  0  0  0  0  0  0  0  0  0  0
   58.6590   34.2550   45.4670 C   0  0  0  0  0  0  0  0  0  0  0  0
   59.5940   33.3710   46.5530 S   0  0  0  0  0  0  0  0  0  0  0  0
   58.5450   32.0610   46.5540 C   0  0  0  0  0  0  0  0  0  0  0  0
   58.7430   30.9890   47.2650 N   0  0  0  0  0  0  0  0  0  0  0  0
   59.9030   30.1430   47.2570 C   0  0  0  0  0  0  0  0  0  0  0  0
   60.3220   29.6780   48.3500 O   0  0  0  0  0  0  0  0  0  0  0  0
   60.6890   29.8630   46.0070 C   0  0  0  0  0  0  0  0  0  0  0  0
   60.8055   30.7952   45.4347 H   0  0  0  0  0  0  0  0  0  0  0  0
   61.6768   29.4670   46.2855 H   0  0  0  0  0  0  0  0  0  0  0  0
   60.0110   28.8990   45.2040 O   0  0  0  0  0  0  0  0  0  0  0  0
   58.6260   28.6800   45.2130 C   0  0  0  0  0  0  0  0  0  0  0  0
   57.7170   29.6560   44.7640 C   0  0  0  0  0  0  0  0  0  0  0  0
   58.0850   30.6240   44.3931 H   0  0  0  0  0  0  0  0  0  0  0  0
   56.3450   29.3910   44.7910 C   0  0  0  0  0  0  0  0  0  0  0  0
   55.5270   30.2610   44.3920 O   0  0  0  0  0  0  0  0  0  0  0  0
   55.8870   28.1960   45.2460 N   0  0  0  0  0  0  0  0  0  0  0  0
   56.7320   27.2270   45.6870 C   0  0  0  0  0  0  0  0  0  0  0  0
   56.2170   26.0070   46.1410 C   0  0  0  0  0  0  0  0  0  0  0  0
   55.1302   25.8374   46.1460 H   0  0  0  0  0  0  0  0  0  0  0  0
   57.0820   25.0040   46.5880 C   0  0  0  0  0  0  0  0  0  0  0  0
   56.6744   24.0465   46.9445 H   0  0  0  0  0  0  0  0  0  0  0  0
   58.4640   25.2150   46.5830 C   0  0  0  0  0  0  0  0  0  0  0  0
   59.1407   24.4222   46.9344 H   0  0  0  0  0  0  0  0  0  0  0  0
   58.9890   26.4300   46.1330 C   0  0  0  0  0  0  0  0  0  0  0  0
   60.0773   26.5899   46.1315 H   0  0  0  0  0  0  0  0  0  0  0  0
   58.1300   27.4490   45.6820 C   0  0  0  0  0  0  0  0  0  0  0  0
   57.4720   32.2860   45.7590 N   0  0  0  0  0  0  0  0  0  0  0  0
   56.6590   31.6450   45.6410 H   0  0  0  0  0  0  0  0  0  0  0  0
   57.5350   33.4990   45.1480 C   0  0  0  0  0  0  0  0  0  0  0  0
   56.7580   33.8550   44.4555 H   0  0  0  0  0  0  0  0  0  0  0  0
  1  2  1  0
  2  3  1  0
  3  4  1  0
  4  5  2  0
  5  6  1  0
  6  7  2  0
  6  8  1  0
  8  9  1  0
  8 10  1  0
  8 11  1  0
 11 12  1  0
 12 13  2  0
 13 14  1  0
 13 15  1  0
 15 16  2  0
 15 17  1  0
 17 18  1  0
 18 19  2  0
 19 20  1  0
 19 21  1  0
 21 22  1  0
 21 23  2  0
 23 24  1  0
 23 25  1  0
 25 26  1  0
 25 27  2  0
  4 28  1  0
 28 29  1  0
 28 30  1  0
 30 31  1  0
 30  2  2  0
 27 12  1  0
 27 18  1  0
M  CHG  1  17  -1
M  END
>  <UniqueID>  (5) 
4

>  <SMILES>  (5) 
O=C(COc1cc(=O)[n-]c2ccccc12)/N=c1\[nH]ccs1

>  <Energy>  (5) 
72.2771828778503

>  <Genealogy>  (5) 
O=C(COc1cc(=O)[n-]c2ccccc12)N=c1[nH]ccs1 (protonated)
O=C(COc1cc(=O)[n-]c2ccccc12)/N=c1\[nH]ccs1 (cis-trans isomerization)
O=C(COc1cc(=O)[n-]c2ccccc12)/N=c1\[nH]ccs1 (3D coordinates assigned)
O=C(COc1cc(=O)[n-]c2ccccc12)/N=c1\[nH]ccs1 (optimized conformer: 72.2771828778503 kcal/mol)

>  <smiles>  (5) 
O=C(COc1cc(=O)[nH]c2ccccc12)N=c1[nH]ccs1

>  <score_type>  (5) 
oracle

>  <origin>  (5) 
adg

>  <m_score__min__energy>  (5) 
-8.7699999999999996

>  <m_primary>  (5) 
energy

$$$$
5:0
     RDKit          3D

 35 37  0  0  0  0  0  0  0  0999 V2000
   56.2980   32.8450   45.2590 O   0  0  0  0  0  0  0  0  0  0  0  0
   57.4990   32.8730   44.8790 C   0  0  0  0  0  0  0  0  0  0  0  0
   58.0580   31.7180   44.0880 C   0  0  0  0  0  0  0  0  0  0  0  0
   57.4810   30.4090   44.5390 C   0  0  0  0  0  0  0  0  0  0  0  0
   56.1630   29.9870   44.3990 C   0  0  0  0  0  0  0  0  0  0  0  0
   56.0180   28.7260   44.8700 N   0  0  0  0  0  0  0  0  0  0  0  0
   57.2360   28.3470   45.2950 C   0  0  0  0  0  0  0  0  0  0  0  0
   57.5940   27.1180   45.8490 C   0  0  0  0  0  0  0  0  0  0  0  0
   58.9400   26.9270   46.2110 C   0  0  0  0  0  0  0  0  0  0  0  0
   59.8880   27.9550   46.0130 C   0  0  0  0  0  0  0  0  0  0  0  0
   59.4980   29.1850   45.4500 C   0  0  0  0  0  0  0  0  0  0  0  0
   58.1560   29.3450   45.1060 C   0  0  0  0  0  0  0  0  0  0  0  0
   58.3140   33.9840   45.2760 N   0  0  0  0  0  0  0  0  0  0  0  0
   58.7620   34.2760   46.6350 C   0  0  0  0  0  0  0  0  0  0  0  0
   59.3780   33.0540   47.2740 C   0  0  0  0  0  0  0  0  0  0  0  0
   58.5400   32.0380   47.7680 C   0  0  0  0  0  0  0  0  0  0  0  0
   59.0820   30.9060   48.3750 C   0  0  0  0  0  0  0  0  0  0  0  0
   60.4650   30.7660   48.4910 C   0  0  0  0  0  0  0  0  0  0  0  0
   61.3170   31.7590   47.9960 C   0  0  0  0  0  0  0  0  0  0  0  0
   63.0540   31.5340   48.1590 Cl  0  0  0  0  0  0  0  0  0  0  0  0
   60.7810   32.9070   47.3820 C   0  0  0  0  0  0  0  0  0  0  0  0
   61.8680   34.1430   46.7450 Cl  0  0  0  0  0  0  0  0  0  0  0  0
   57.8199   31.8654   43.0242 H   0  0  0  0  0  0  0  0  0  0  0  0
   59.1461   31.6871   44.2465 H   0  0  0  0  0  0  0  0  0  0  0  0
   55.3528   30.5924   43.9666 H   0  0  0  0  0  0  0  0  0  0  0  0
   55.1400   28.1620   44.8860 H   0  0  0  0  0  0  0  0  0  0  0  0
   56.8479   26.3236   45.9981 H   0  0  0  0  0  0  0  0  0  0  0  0
   59.2564   25.9700   46.6515 H   0  0  0  0  0  0  0  0  0  0  0  0
   60.9374   27.7936   46.3004 H   0  0  0  0  0  0  0  0  0  0  0  0
   60.2270   29.9924   45.2870 H   0  0  0  0  0  0  0  0  0  0  0  0
   59.5107   35.0813   46.6021 H   0  0  0  0  0  0  0  0  0  0  0  0
   57.8918   34.5843   47.2331 H   0  0  0  0  0  0  0  0  0  0  0  0
   57.4485   32.1374   47.6747 H   0  0  0  0  0  0  0  0  0  0  0  0
   58.4169   30.1208   48.7637 H   0  0  0  0  0  0  0  0  0  0  0  0
   60.8870   29.8719   48.9732 H   0  0  0  0  0  0  0  0  0  0  0  0
  1  2  2  0
  2  3  1  0
  3  4  1  0
  4  5  2  0
  5  6  1  0
  6  7  1  0
  7  8  2  0
  8  9  1  0
  9 10  2  0
 10 11  1  0
 11 12  2  0
  2 13  1  0
 13 14  1  0
 14 15  1  0
 15 16  2  0
 16 17  1  0
 17 18  2  0
 18 19  1  0
 19 20  1  0
 19 21  2  0
 21 22  1  0
 12  4  1  0
 21 15  1  0
 12  7  1  0
  3 23  1  0
  3 24  1  0
  5 25  1  0
  6 26  1  0
  8 27  1  0
  9 28  1  0
 10 29  1  0
 11 30  1  0
 14 31  1  0
 14 32  1  0
 16 33  1  0
 17 34  1  0
 18 35  1  0
M  CHG  1  13  -1
M  END
>  <UniqueID>  (6) 
5

>  <SMILES>  (6) 
O=C(Cc1c[nH]c2ccccc12)[N-]Cc1cccc(Cl)c1Cl

>  <Energy>  (6) 
69.74195283160479

>  <Genealogy>  (6) 
O=C(Cc1c[nH]c2ccccc12)[N-]Cc1cccc(Cl)c1Cl (protonated)
O=C(Cc1c[nH]c2ccccc12)[N-]Cc1cccc(Cl)c1Cl (3D coordinates assigned)
O=C(Cc1c[nH]c2ccccc12)[N-]Cc1cccc(Cl)c1Cl (optimized conformer: 69.74195283160479 kcal/mol)

>  <smiles>  (6) 
O=C(Cc1c[nH]c2ccccc12)NCc1cccc(Cl)c1Cl

>  <score_type>  (6) 
oracle

>  <origin>  (6) 
adg

>  <m_score__min__energy>  (6) 
-9.9600000000000009

>  <m_primary>  (6) 
energy

$$$$
6:0
     RDKit          3D

 44 46  0  0  0  0  0  0  0  0999 V2000
   65.5480   31.5000   51.3980 N   0  0  0  0  0  0  0  0  0  0  0  0
   65.5600   32.8160   50.2780 S   0  0  0  0  0  0  0  0  0  0  0  0
   65.5990   34.1170   51.0290 O   0  0  0  0  0  0  0  0  0  0  0  0
   66.7850   32.7230   49.4120 O   0  0  0  0  0  0  0  0  0  0  0  0
   64.1130   32.7490   49.2770 C   0  0  0  0  0  0  0  0  0  0  0  0
   64.1690   33.1230   47.9290 C   0  0  0  0  0  0  0  0  0  0  0  0
   63.0190   33.0690   47.1370 C   0  0  0  0  0  0  0  0  0  0  0  0
   61.8100   32.6270   47.6830 C   0  0  0  0  0  0  0  0  0  0  0  0
   61.7480   32.2170   49.0270 C   0  0  0  0  0  0  0  0  0  0  0  0
   60.5150   31.7790   49.6210 N   0  0  0  0  0  0  0  0  0  0  0  0
   59.6770   32.6160   50.4430 C   0  0  0  0  0  0  0  0  0  0  0  0
   59.9670   33.8340   50.5990 O   0  0  0  0  0  0  0  0  0  0  0  0
   58.4660   32.0780   51.1060 C   0  0  0  0  0  0  0  0  0  0  0  0
   58.1110   30.7210   50.9980 C   0  0  0  0  0  0  0  0  0  0  0  0
   56.9600   30.2370   51.6260 C   0  0  0  0  0  0  0  0  0  0  0  0
   56.1430   31.0980   52.3720 C   0  0  0  0  0  0  0  0  0  0  0  0
   54.8750   30.5840   53.0080 C   0  0  0  0  0  0  0  0  0  0  0  0
   54.0590   29.7230   52.0340 C   0  0  0  0  0  0  0  0  0  0  0  0
   52.9780   30.5200   51.3590 C   0  0  0  0  0  0  0  0  0  0  0  0
   52.4490   30.1130   50.1290 C   0  0  0  0  0  0  0  0  0  0  0  0
   51.4120   30.8610   49.5700 C   0  0  0  0  0  0  0  0  0  0  0  0
   50.9140   30.5250   48.4630 O   0  0  0  0  0  0  0  0  0  0  0  0
   50.9360   31.9530   50.2220 N   0  0  0  0  0  0  0  0  0  0  0  0
   51.4540   32.3310   51.4190 C   0  0  0  0  0  0  0  0  0  0  0  0
   50.9970   33.3440   52.0100 O   0  0  0  0  0  0  0  0  0  0  0  0
   52.4650   31.6170   51.9800 N   0  0  0  0  0  0  0  0  0  0  0  0
   56.4810   32.4560   52.4670 C   0  0  0  0  0  0  0  0  0  0  0  0
   57.6320   32.9420   51.8370 C   0  0  0  0  0  0  0  0  0  0  0  0
   62.9020   32.3000   49.8220 C   0  0  0  0  0  0  0  0  0  0  0  0
   65.3770   31.9080   52.3450 H   0  0  0  0  0  0  0  0  0  0  0  0
   65.1206   33.4602   47.4923 H   0  0  0  0  0  0  0  0  0  0  0  0
   63.0650   33.3750   46.0814 H   0  0  0  0  0  0  0  0  0  0  0  0
   60.9043   32.5998   47.0593 H   0  0  0  0  0  0  0  0  0  0  0  0
   60.1990   30.8110   49.3920 H   0  0  0  0  0  0  0  0  0  0  0  0
   58.7440   30.0358   50.4150 H   0  0  0  0  0  0  0  0  0  0  0  0
   56.6935   29.1737   51.5343 H   0  0  0  0  0  0  0  0  0  0  0  0
   55.1379   29.9763   53.8864 H   0  0  0  0  0  0  0  0  0  0  0  0
   54.2611   31.4499   53.2966 H   0  0  0  0  0  0  0  0  0  0  0  0
   54.7339   29.3161   51.2666 H   0  0  0  0  0  0  0  0  0  0  0  0
   53.5817   28.9149   52.6078 H   0  0  0  0  0  0  0  0  0  0  0  0
   52.8417   29.2236   49.6145 H   0  0  0  0  0  0  0  0  0  0  0  0
   55.8386   33.1417   53.0391 H   0  0  0  0  0  0  0  0  0  0  0  0
   57.8865   34.0094   51.9144 H   0  0  0  0  0  0  0  0  0  0  0  0
   62.8556   32.0101   50.8821 H   0  0  0  0  0  0  0  0  0  0  0  0
  1  2  1  0
  2  3  2  0
  2  4  2  0
  2  5  1  0
  5  6  2  0
  6  7  1  0
  7  8  2  0
  8  9  1  0
  9 10  1  0
 10 11  1  0
 11 12  2  0
 11 13  1  0
 13 14  2  0
 14 15  1  0
 15 16  2  0
 16 17  1  0
 17 18  1  0
 18 19  1  0
 19 20  2  0
 20 21  1  0
 21 22  2  0
 21 23  1  0
 23 24  1  0
 24 25  2  0
 24 26  1  0
 16 27  1  0
 27 28  2  0
  9 29  2  0
 29  5  1  0
 28 13  1  0
 26 19  1  0
  1 30  1  0
  6 31  1  0
  7 32  1  0
  8 33  1  0
 10 34  1  0
 14 35  1  0
 15 36  1  0
 17 37  1  0
 17 38  1  0
 18 39  1  0
 18 40  1  0
 20 41  1  0
 27 42  1  0
 28 43  1  0
 29 44  1  0
M  CHG  3   1  -1  23  -1  26  -1
M  END
>  <UniqueID>  (7) 
6

>  <SMILES>  (7) 
[NH-]S(=O)(=O)c1cccc(NC(=O)c2ccc(CCc3cc(=O)[n-]c(=O)[n-]3)cc2)c1

>  <Energy>  (7) 
50.59329007374083

>  <Genealogy>  (7) 
[NH-]S(=O)(=O)c1cccc(NC(=O)c2ccc(CCc3cc(=O)[n-]c(=O)[n-]3)cc2)c1 (protonated)
[NH-]S(=O)(=O)c1cccc(NC(=O)c2ccc(CCc3cc(=O)[n-]c(=O)[n-]3)cc2)c1 (3D coordinates assigned)
[NH-]S(=O)(=O)c1cccc(NC(=O)c2ccc(CCc3cc(=O)[n-]c(=O)[n-]3)cc2)c1 (optimized conformer: 50.59329007374083 kcal/mol)

>  <smiles>  (7) 
NS(=O)(=O)c1cccc(NC(=O)c2ccc(CCc3cc(=O)[nH]c(=O)[nH]3)cc2)c1

>  <score_type>  (7) 
oracle

>  <origin>  (7) 
adg

>  <m_score__min__energy>  (7) 
-13.26

>  <m_primary>  (7) 
energy

$$$$
7:0
     RDKit          3D

 32 34  0  0  0  0  0  0  0  0999 V2000
   58.9120   35.5390   44.4960 O   0  0  0  0  0  0  0  0  0  0  0  0
   58.8710   34.5190   45.2330 C   0  0  0  0  0  0  0  0  0  0  0  0
   59.3390   34.4050   46.6050 C   0  0  0  0  0  0  0  0  0  0  0  0
   59.8830   35.3260   47.2700 O   0  0  0  0  0  0  0  0  0  0  0  0
   59.1080   33.0820   47.0970 N   0  0  0  0  0  0  0  0  0  0  0  0
   59.7510   32.4830   48.2660 C   0  0  0  0  0  0  0  0  0  0  0  0
   61.2250   32.7920   48.2660 C   0  0  0  0  0  0  0  0  0  0  0  0
   62.0360   32.4040   47.1870 C   0  0  0  0  0  0  0  0  0  0  0  0
   63.3960   32.7270   47.1740 C   0  0  0  0  0  0  0  0  0  0  0  0
   63.9550   33.4430   48.2360 C   0  0  0  0  0  0  0  0  0  0  0  0
   63.1550   33.8390   49.3110 C   0  0  0  0  0  0  0  0  0  0  0  0
   61.7940   33.5170   49.3270 C   0  0  0  0  0  0  0  0  0  0  0  0
   58.5170   32.3850   45.9900 C   0  0  0  0  0  0  0  0  0  0  0  0
   58.1060   31.0500   45.9550 C   0  0  0  0  0  0  0  0  0  0  0  0
   57.5530   30.5400   44.7590 C   0  0  0  0  0  0  0  0  0  0  0  0
   57.0580   29.1170   44.7020 C   0  0  0  0  0  0  0  0  0  0  0  0
   57.6520   28.3880   45.7150 F   0  0  0  0  0  0  0  0  0  0  0  0
   57.3760   28.5390   43.4850 F   0  0  0  0  0  0  0  0  0  0  0  0
   55.6840   29.0680   44.8570 F   0  0  0  0  0  0  0  0  0  0  0  0
   57.3830   31.4010   43.6450 C   0  0  0  0  0  0  0  0  0  0  0  0
   57.7950   32.7410   43.7030 C   0  0  0  0  0  0  0  0  0  0  0  0
   58.3600   33.2040   44.8860 C   0  0  0  0  0  0  0  0  0  0  0  0
   59.2946   32.8905   49.1801 H   0  0  0  0  0  0  0  0  0  0  0  0
   59.6136   31.3922   48.2309 H   0  0  0  0  0  0  0  0  0  0  0  0
   61.5988   31.8431   46.3478 H   0  0  0  0  0  0  0  0  0  0  0  0
   64.0265   32.4174   46.3274 H   0  0  0  0  0  0  0  0  0  0  0  0
   65.0257   33.6950   48.2256 H   0  0  0  0  0  0  0  0  0  0  0  0
   63.5959   34.4044   50.1453 H   0  0  0  0  0  0  0  0  0  0  0  0
   61.1664   33.8325   50.1735 H   0  0  0  0  0  0  0  0  0  0  0  0
   58.2110   30.4080   46.8420 H   0  0  0  0  0  0  0  0  0  0  0  0
   56.9225   31.0136   42.7242 H   0  0  0  0  0  0  0  0  0  0  0  0
   57.6743   33.4072   42.8360 H   0  0  0  0  0  0  0  0  0  0  0  0
  1  2  2  0
  2  3  1  0
  3  4  2  0
  3  5  1  0
  5  6  1  0
  6  7  1  0
  7  8  2  0
  8  9  1  0
  9 10  2  0
 10 11  1  0
 11 12  2  0
  5 13  1  0
 13 14  2  0
 14 15  1  0
 15 16  1  0
 16 17  1  0
 16 18  1  0
 16 19  1  0
 15 20  2  0
 20 21  1  0
 21 22  2  0
 22  2  1  0
 12  7  1  0
 22 13  1  0
  6 23  1  0
  6 24  1  0
  8 25  1  0
  9 26  1  0
 10 27  1  0
 11 28  1  0
 12 29  1  0
 14 30  1  0
 20 31  1  0
 21 32  1  0
M  END
>  <UniqueID>  (8) 
7

>  <SMILES>  (8) 
O=C1C(=O)N(Cc2ccccc2)c2cc(C(F)(F)F)ccc21

>  <Energy>  (8) 
64.99930273747948

>  <Genealogy>  (8) 
O=C1C(=O)N(Cc2ccccc2)c2cc(C(F)(F)F)ccc21 (3D coordinates assigned)
O=C1C(=O)N(Cc2ccccc2)c2cc(C(F)(F)F)ccc21 (nonaromatic ring conformer: 64.99930273747948 kcal/mol)

>  <smiles>  (8) 
O=C1C(=O)N(Cc2ccccc2)c2cc(C(F)(F)F)ccc21

>  <score_type>  (8) 
oracle

>  <origin>  (8) 
adg

>  <m_score__min__energy>  (8) 
-7.0199999999999996

>  <m_primary>  (8) 
energy

$$$$
8:0
     RDKit          3D

 54 55  0  0  0  0  0  0  0  0999 V2000
   57.2380   30.5720   52.5220 C   0  0  0  0  0  0  0  0  0  0  0  0
   57.6990   29.6240   51.5660 O   0  0  0  0  0  0  0  0  0  0  0  0
   58.8680   29.8120   50.8200 C   0  0  0  0  0  0  0  0  0  0  0  0
   59.9500   29.2820   51.1960 O   0  0  0  0  0  0  0  0  0  0  0  0
   58.8330   30.6360   49.5910 C   0  0  0  0  0  0  0  0  0  0  0  0
   59.3070   30.1240   48.3700 C   0  0  0  0  0  0  0  0  0  0  0  0
   59.2800   30.9100   47.2150 C   0  0  0  0  0  0  0  0  0  0  0  0
   58.7770   32.2220   47.2510 C   0  0  0  0  0  0  0  0  0  0  0  0
   58.8060   33.0440   46.0590 N   0  0  0  0  0  0  0  0  0  0  0  0
   59.9490   33.9370   45.7960 C   0  0  0  0  0  0  0  0  0  0  0  0
   60.7470   34.1600   47.0470 C   0  0  0  0  0  0  0  0  0  0  0  0
   60.2980   34.9370   47.9330 O   0  0  0  0  0  0  0  0  0  0  0  0
   62.0130   33.4970   47.2210 N   0  0  0  0  0  0  0  0  0  0  0  0
   62.6790   33.2860   48.5200 C   0  0  0  0  0  0  0  0  0  0  0  0
   61.9950   32.1370   49.2880 C   0  0  0  0  0  0  0  0  0  0  0  0
   62.6440   34.5820   49.3520 C   0  0  0  0  0  0  0  0  0  0  0  0
   64.1520   32.9000   48.2700 C   0  0  0  0  0  0  0  0  0  0  0  0
   57.6670   33.0360   45.1740 C   0  0  0  0  0  0  0  0  0  0  0  0
   56.8910   34.0320   45.1510 O   0  0  0  0  0  0  0  0  0  0  0  0
   57.3760   31.8710   44.2680 C   0  0  0  0  0  0  0  0  0  0  0  0
   56.2690   31.0820   44.7960 N   0  0  0  0  0  0  0  0  0  0  0  0
   56.2610   29.6500   44.8120 C   0  0  0  0  0  0  0  0  0  0  0  0
   55.1940   29.0180   44.5810 O   0  0  0  0  0  0  0  0  0  0  0  0
   57.4980   28.9170   45.1030 C   0  0  0  0  0  0  0  0  0  0  0  0
   58.7040   29.0430   44.4210 C   0  0  0  0  0  0  0  0  0  0  0  0
   59.7120   28.2130   44.9270 C   0  0  0  0  0  0  0  0  0  0  0  0
   59.3070   27.4340   46.0050 C   0  0  0  0  0  0  0  0  0  0  0  0
   57.6930   27.7790   46.3270 S   0  0  0  0  0  0  0  0  0  0  0  0
   58.2990   32.7300   48.4730 C   0  0  0  0  0  0  0  0  0  0  0  0
   58.3260   31.9450   49.6280 C   0  0  0  0  0  0  0  0  0  0  0  0
   57.4239   30.1897   53.5365 H   0  0  0  0  0  0  0  0  0  0  0  0
   57.7746   31.5223   52.3842 H   0  0  0  0  0  0  0  0  0  0  0  0
   56.1592   30.7368   52.3842 H   0  0  0  0  0  0  0  0  0  0  0  0
   59.7015   29.0982   48.3239 H   0  0  0  0  0  0  0  0  0  0  0  0
   59.6565   30.4975   46.2673 H   0  0  0  0  0  0  0  0  0  0  0  0
   60.5954   33.4806   45.0320 H   0  0  0  0  0  0  0  0  0  0  0  0
   59.5666   34.9061   45.4431 H   0  0  0  0  0  0  0  0  0  0  0  0
   62.4280   33.0540   46.3700 H   0  0  0  0  0  0  0  0  0  0  0  0
   62.0966   32.3076   50.3699 H   0  0  0  0  0  0  0  0  0  0  0  0
   60.9285   32.1013   49.0210 H   0  0  0  0  0  0  0  0  0  0  0  0
   62.4720   31.1825   49.0210 H   0  0  0  0  0  0  0  0  0  0  0  0
   62.6508   34.3306   50.4229 H   0  0  0  0  0  0  0  0  0  0  0  0
   63.5259   35.1947   49.1136 H   0  0  0  0  0  0  0  0  0  0  0  0
   61.7303   35.1462   49.1136 H   0  0  0  0  0  0  0  0  0  0  0  0
   64.6645   32.7657   49.2340 H   0  0  0  0  0  0  0  0  0  0  0  0
   64.1931   31.9608   47.6989 H   0  0  0  0  0  0  0  0  0  0  0  0
   64.6484   33.6984   47.6989 H   0  0  0  0  0  0  0  0  0  0  0  0
   57.1098   32.2462   43.2689 H   0  0  0  0  0  0  0  0  0  0  0  0
   58.2709   31.2344   44.2059 H   0  0  0  0  0  0  0  0  0  0  0  0
   58.8508   29.7252   43.5707 H   0  0  0  0  0  0  0  0  0  0  0  0
   60.7295   28.1804   44.5103 H   0  0  0  0  0  0  0  0  0  0  0  0
   59.9344   26.7156   46.5530 H   0  0  0  0  0  0  0  0  0  0  0  0
   57.9006   33.7543   48.5191 H   0  0  0  0  0  0  0  0  0  0  0  0
   57.9466   32.3559   50.5752 H   0  0  0  0  0  0  0  0  0  0  0  0
  1  2  1  0
  2  3  1  0
  3  4  2  0
  3  5  1  0
  5  6  2  0
  6  7  1  0
  7  8  2  0
  8  9  1  0
  9 10  1  0
 10 11  1  0
 11 12  2  0
 11 13  1  0
 13 14  1  0
 14 15  1  0
 14 16  1  0
 14 17  1  0
  9 18  1  0
 18 19  2  0
 18 20  1  0
 20 21  1  0
 21 22  1  0
 22 23  2  0
 22 24  1  0
 24 25  2  0
 25 26  1  0
 26 27  2  0
 27 28  1  0
  8 29  1  0
 29 30  2  0
 30  5  1  0
 28 24  1  0
  1 31  1  0
  1 32  1  0
  1 33  1  0
  6 34  1  0
  7 35  1  0
 10 36  1  0
 10 37  1  0
 13 38  1  0
 15 39  1  0
 15 40  1  0
 15 41  1  0
 16 42  1  0
 16 43  1  0
 16 44  1  0
 17 45  1  0
 17 46  1  0
 17 47  1  0
 20 48  1  0
 20 49  1  0
 25 50  1  0
 26 51  1  0
 27 52  1  0
 29 53  1  0
 30 54  1  0
M  CHG  1  21  -1
M  END
>  <UniqueID>  (9) 
8

>  <SMILES>  (9) 
COC(=O)c1ccc(N(CC(=O)NC(C)(C)C)C(=O)C[N-]C(=O)c2cccs2)cc1

>  <Energy>  (9) 
73.70763685739254

>  <Genealogy>  (9) 
COC(=O)c1ccc(N(CC(=O)NC(C)(C)C)C(=O)C[N-]C(=O)c2cccs2)cc1 (protonated)
COC(=O)c1ccc(N(CC(=O)NC(C)(C)C)C(=O)C[N-]C(=O)c2cccs2)cc1 (3D coordinates assigned)
COC(=O)c1ccc(N(CC(=O)NC(C)(C)C)C(=O)C[N-]C(=O)c2cccs2)cc1 (optimized conformer: 73.70763685739254 kcal/mol)

>  <smiles>  (9) 
COC(=O)c1ccc(N(CC(=O)NC(C)(C)C)C(=O)CNC(=O)c2cccs2)cc1

>  <score_type>  (9) 
oracle

>  <origin>  (9) 
adg

>  <m_score__min__energy>  (9) 
-10.67

>  <m_primary>  (9) 
energy

$$$$
9:0
     RDKit          3D

 41 44  0  0  0  0  0  0  0  0999 V2000
   56.2190   30.7870   42.9330 O   0  0  0  0  0  0  0  0  0  0  0  0
   56.6270   30.7880   44.1260 C   0  0  0  0  0  0  0  0  0  0  0  0
   56.7000   32.0130   44.8680 N   0  0  0  0  0  0  0  0  0  0  0  0
   57.7830   32.4450   45.7040 C   0  0  0  0  0  0  0  0  0  0  0  0
   58.5390   33.5530   45.3050 C   0  0  0  0  0  0  0  0  0  0  0  0
   59.6150   33.9970   46.0800 C   0  0  0  0  0  0  0  0  0  0  0  0
   59.9540   33.3300   47.2700 C   0  0  0  0  0  0  0  0  0  0  0  0
   61.0720   33.7490   48.0720 N   0  0  0  0  0  0  0  0  0  0  0  0
   62.3070   33.0200   48.1700 C   0  0  0  0  0  0  0  0  0  0  0  0
   62.5780   32.1190   47.3310 O   0  0  0  0  0  0  0  0  0  0  0  0
   63.2850   33.3410   49.2240 C   0  0  0  0  0  0  0  0  0  0  0  0
   64.6000   32.8890   49.2780 C   0  0  0  0  0  0  0  0  0  0  0  0
   65.2970   33.3450   50.4020 C   0  0  0  0  0  0  0  0  0  0  0  0
   64.5400   34.1530   51.2400 C   0  0  0  0  0  0  0  0  0  0  0  0
   63.0010   34.2990   50.5790 S   0  0  0  0  0  0  0  0  0  0  0  0
   59.2280   32.1900   47.6440 C   0  0  0  0  0  0  0  0  0  0  0  0
   58.1500   31.7490   46.8690 C   0  0  0  0  0  0  0  0  0  0  0  0
   57.0790   29.5220   44.7310 C   0  0  0  0  0  0  0  0  0  0  0  0
   58.4430   29.2490   44.9150 C   0  0  0  0  0  0  0  0  0  0  0  0
   58.8200   28.0340   45.4950 C   0  0  0  0  0  0  0  0  0  0  0  0
   60.1740   27.7230   45.6960 C   0  0  0  0  0  0  0  0  0  0  0  0
   60.5340   26.5030   46.2770 C   0  0  0  0  0  0  0  0  0  0  0  0
   59.5480   25.5890   46.6590 C   0  0  0  0  0  0  0  0  0  0  0  0
   58.1970   25.8880   46.4640 C   0  0  0  0  0  0  0  0  0  0  0  0
   57.8220   27.1130   45.8800 C   0  0  0  0  0  0  0  0  0  0  0  0
   56.4760   27.4590   45.6640 C   0  0  0  0  0  0  0  0  0  0  0  0
   55.5470   26.6720   45.9900 O   0  0  0  0  0  0  0  0  0  0  0  0
   56.1660   28.6280   45.1090 O   0  0  0  0  0  0  0  0  0  0  0  0
   58.2845   34.0795   44.3733 H   0  0  0  0  0  0  0  0  0  0  0  0
   60.1985   34.8718   45.7571 H   0  0  0  0  0  0  0  0  0  0  0  0
   61.0120   34.6840   48.5360 H   0  0  0  0  0  0  0  0  0  0  0  0
   65.0472   32.2376   48.5127 H   0  0  0  0  0  0  0  0  0  0  0  0
   66.3473   33.0874   50.6033 H   0  0  0  0  0  0  0  0  0  0  0  0
   64.8872   34.6173   52.1748 H   0  0  0  0  0  0  0  0  0  0  0  0
   59.5082   31.6384   48.5535 H   0  0  0  0  0  0  0  0  0  0  0  0
   57.5872   30.8539   47.1725 H   0  0  0  0  0  0  0  0  0  0  0  0
   59.2048   29.9804   44.6073 H   0  0  0  0  0  0  0  0  0  0  0  0
   60.9527   28.4397   45.3962 H   0  0  0  0  0  0  0  0  0  0  0  0
   61.5958   26.2621   46.4338 H   0  0  0  0  0  0  0  0  0  0  0  0
   59.8367   24.6305   47.1150 H   0  0  0  0  0  0  0  0  0  0  0  0
   57.4253   25.1652   46.7672 H   0  0  0  0  0  0  0  0  0  0  0  0
  1  2  2  0
  2  3  1  0
  3  4  1  0
  4  5  2  0
  5  6  1  0
  6  7  2  0
  7  8  1  0
  8  9  1  0
  9 10  2  0
  9 11  1  0
 11 12  2  0
 12 13  1  0
 13 14  2  0
 14 15  1  0
  7 16  1  0
 16 17  2  0
  2 18  1  0
 18 19  2  0
 19 20  1  0
 20 21  2  0
 21 22  1  0
 22 23  2  0
 23 24  1  0
 24 25  2  0
 25 26  1  0
 26 27  2  0
 26 28  1  0
 17  4  1  0
 28 18  1  0
 15 11  1  0
 25 20  1  0
  5 29  1  0
  6 30  1  0
  8 31  1  0
 12 32  1  0
 13 33  1  0
 14 34  1  0
 16 35  1  0
 17 36  1  0
 19 37  1  0
 21 38  1  0
 22 39  1  0
 23 40  1  0
 24 41  1  0
M  CHG  1   3  -1
M  END
>  <UniqueID>  (10) 
9

>  <SMILES>  (10) 
O=C([N-]c1ccc(NC(=O)c2cccs2)cc1)c1cc2ccccc2c(=O)o1

>  <Energy>  (10) 
83.89515676976119

>  <Genealogy>  (10) 
O=C([N-]c1ccc(NC(=O)c2cccs2)cc1)c1cc2ccccc2c(=O)o1 (protonated)
O=C([N-]c1ccc(NC(=O)c2cccs2)cc1)c1cc2ccccc2c(=O)o1 (3D coordinates assigned)
O=C([N-]c1ccc(NC(=O)c2cccs2)cc1)c1cc2ccccc2c(=O)o1 (optimized conformer: 83.89515676976119 kcal/mol)

>  <smiles>  (10) 
O=C(Nc1ccc(NC(=O)c2cccs2)cc1)c1cc2ccccc2c(=O)o1

>  <score_type>  (10) 
oracle

>  <origin>  (10) 
adg

>  <m_score__min__energy>  (10) 
-9.8300000000000001

>  <m_primary>  (10) 
energy

$$$$
10:0
     RDKit          3D

 46 49  0  0  1  0  0  0  0  0999 V2000
   58.0590   27.1130   43.3460 N   0  0  0  0  0  0  0  0  0  0  0  0
   58.1690   26.5790   44.9750 S   0  0  0  0  0  0  0  0  0  0  0  0
   57.1220   27.2300   45.8140 O   0  0  0  0  0  0  0  0  0  0  0  0
   57.8410   25.0920   44.9680 O   0  0  0  0  0  0  0  0  0  0  0  0
   59.7530   26.8070   45.6390 N   0  0  0  0  0  0  0  0  0  0  0  0
   59.8780   27.6430   46.7850 C   0  0  0  0  0  0  0  0  0  0  0  0
   60.0020   27.1390   48.0530 C   0  0  0  0  0  0  0  0  0  0  0  0
   60.1240   27.9560   49.1760 C   0  0  0  0  0  0  0  0  0  0  0  0
   60.1220   29.3440   49.0130 C   0  0  0  0  0  0  0  0  0  0  0  0
   59.9970   29.8730   47.7400 C   0  0  0  0  0  0  0  0  0  0  0  0
   59.8790   29.0250   46.6580 C   0  0  0  0  0  0  0  0  0  0  0  0
   60.3500   34.4340   46.8640 N   0  0  0  0  0  0  0  0  0  0  0  0
   61.4130   33.8330   47.2620 C   0  0  0  0  0  0  0  0  0  0  0  0
   61.3570   33.2080   48.4480 N   0  0  0  0  0  0  0  0  0  0  0  0
   62.4540   32.5660   48.8970 C   0  0  0  0  0  0  0  0  0  0  0  0
   56.2730   31.5770   44.5340 N   0  0  0  0  0  0  0  0  0  0  0  0
   57.2840   32.2540   45.1030 C   0  0  0  0  0  0  0  0  0  0  0  0
   57.0600   33.5920   45.3720 C   0  0  0  0  0  0  0  0  0  0  0  0
   58.1030   34.2980   45.9620 C   0  0  0  0  0  0  0  0  0  0  0  0
   59.3110   33.6700   46.2610 C   0  0  0  0  0  0  0  0  0  0  0  0
   59.7550   29.6550   45.3660 N   0  0  0  0  0  0  0  0  0  0  0  0
   58.6540   30.2690   45.1050 C   0  0  0  0  0  0  0  0  0  0  0  0
   62.5680   33.8430   46.4760 C   0  0  0  0  0  0  0  0  0  0  0  0
   63.6850   33.1760   46.9580 C   0  0  0  0  0  0  0  0  0  0  0  0
   63.6370   32.5230   48.1870 C   0  0  0  0  0  0  0  0  0  0  0  0
   56.4460   30.2540   44.2490 C   0  0  0  0  0  0  0  0  0  0  0  0
   57.6030   29.6280   44.5290 N   0  0  0  0  0  0  0  0  0  0  0  0
   59.4850   32.3350   45.9730 C   0  0  0  0  0  0  0  0  0  0  0  0
   58.4570   31.6150   45.3860 C   0  0  0  0  0  0  0  0  0  0  0  0
   57.0890   27.0810   42.9690 H   0  0  0  0  0  0  0  0  0  0  0  0
   58.5430   28.0170   43.1590 H   0  0  0  0  0  0  0  0  0  0  0  0
   60.6080   26.3670   45.2460 H   0  0  0  0  0  0  0  0  0  0  0  0
   60.0054   26.0476   48.1902 H   0  0  0  0  0  0  0  0  0  0  0  0
   60.2207   27.5134   50.1784 H   0  0  0  0  0  0  0  0  0  0  0  0
   60.2185   30.0075   49.8850 H   0  0  0  0  0  0  0  0  0  0  0  0
   59.9918   30.9630   47.5919 H   0  0  0  0  0  0  0  0  0  0  0  0
   60.4850   33.2120   49.0200 H   0  0  0  0  0  0  0  0  0  0  0  0
   62.4044   32.0550   49.8699 H   0  0  0  0  0  0  0  0  0  0  0  0
   56.1018   34.0752   45.1306 H   0  0  0  0  0  0  0  0  0  0  0  0
   57.9730   35.3650   46.1955 H   0  0  0  0  0  0  0  0  0  0  0  0
   62.5910   34.3627   45.5068 H   0  0  0  0  0  0  0  0  0  0  0  0
   64.6125   33.1629   46.3668 H   0  0  0  0  0  0  0  0  0  0  0  0
   64.5149   31.9893   48.5800 H   0  0  0  0  0  0  0  0  0  0  0  0
   55.6252   29.6897   43.7823 H   0  0  0  0  0  0  0  0  0  0  0  0
   57.6790   28.6310   44.2930 H   0  0  0  0  0  0  0  0  0  0  0  0
   60.4390   31.8406   46.2086 H   0  0  0  0  0  0  0  0  0  0  0  0
  1  2  1  0
  2  3  2  0
  2  4  2  0
  2  5  1  0
  5  6  1  0
  6  7  2  0
  7  8  1  0
  8  9  2  0
  9 10  1  0
 10 11  2  0
 11 12  1  0
 12 13  2  0
 13 14  1  0
 14 15  1  0
 15 16  2  0
 16 17  1  0
 17 18  2  0
 18 19  1  0
 19 20  2  0
 20 21  1  0
 21 22  2  0
 22 23  1  0
 23 24  2  0
 24 25  1  0
 25 26  2  0
 26 27  1  0
 20 28  1  0
 28 29  2  0
 11  6  1  0
 29 13  1  0
 29 17  1  0
 27 22  1  0
  1 30  1  0
  1 31  1  0
  5 32  1  0
  7 33  1  0
  8 34  1  0
  9 35  1  0
 10 36  1  0
 14 37  1  0
 15 38  1  0
 18 39  1  0
 19 40  1  0
 23 41  1  0
 24 42  1  0
 25 43  1  0
 26 44  1  0
 27 45  1  0
 28 46  1  0
M  END
>  <smiles>  (11) 
NS(=O)(=O)Nc1ccccc1N=c1[nH]cnc2ccc(N=c3cccc[nH]3)cc12

>  <score_type>  (11) 
oracle

>  <origin>  (11) 
adg

>  <m_score__min__energy>  (11) 
-9.9600000000000009

>  <m_primary>  (11) 
energy

$$$$
11:0
     RDKit          3D

 62 64  0  0  0  0  0  0  0  0999 V2000
   59.1050   34.6400   45.3250 C   0  0  0  0  0  0  0  0  0  0  0  0
   58.3620   33.4990   44.6330 C   0  0  0  0  0  0  0  0  0  0  0  0
   57.3960   32.7710   45.5810 C   0  0  0  0  0  0  0  0  0  0  0  0
   57.8190   31.3780   45.8230 N   0  0  0  0  0  0  0  0  0  0  0  0
   57.6120   30.3920   44.7410 C   0  0  0  0  0  0  0  0  0  0  0  0
   56.2150   29.8450   44.7010 C   0  0  0  0  0  0  0  0  0  0  0  0
   55.2820   30.5820   44.2860 O   0  0  0  0  0  0  0  0  0  0  0  0
   55.9320   28.5470   45.2350 N   0  0  0  0  0  0  0  0  0  0  0  0
   56.8880   27.5480   45.6270 C   0  0  0  0  0  0  0  0  0  0  0  0
   58.2630   27.8350   45.7180 C   0  0  0  0  0  0  0  0  0  0  0  0
   59.1560   26.8660   46.1810 C   0  0  0  0  0  0  0  0  0  0  0  0
   58.6880   25.6100   46.5650 C   0  0  0  0  0  0  0  0  0  0  0  0
   57.3230   25.3190   46.4950 C   0  0  0  0  0  0  0  0  0  0  0  0
   56.4130   26.2900   46.0330 C   0  0  0  0  0  0  0  0  0  0  0  0
   55.0300   26.0480   45.9780 O   0  0  0  0  0  0  0  0  0  0  0  0
   54.4430   24.8100   45.5900 C   0  0  0  0  0  0  0  0  0  0  0  0
   58.5790   31.0900   47.0300 C   0  0  0  0  0  0  0  0  0  0  0  0
   58.3260   30.0430   47.6870 O   0  0  0  0  0  0  0  0  0  0  0  0
   59.6870   31.9440   47.5150 C   0  0  0  0  0  0  0  0  0  0  0  0
   60.8600   32.0990   46.7570 C   0  0  0  0  0  0  0  0  0  0  0  0
   61.9160   32.8780   47.2400 C   0  0  0  0  0  0  0  0  0  0  0  0
   61.7990   33.5330   48.4670 C   0  0  0  0  0  0  0  0  0  0  0  0
   60.6160   33.4350   49.2000 C   0  0  0  0  0  0  0  0  0  0  0  0
   59.5520   32.6600   48.7220 C   0  0  0  0  0  0  0  0  0  0  0  0
   58.3560   32.6230   49.4450 O   0  0  0  0  0  0  0  0  0  0  0  0
   58.3440   32.5520   50.8640 C   0  0  0  0  0  0  0  0  0  0  0  0
   58.2150   31.1250   51.2950 C   0  0  0  0  0  0  0  0  0  0  0  0
   59.1990   30.1540   51.3220 C   0  0  0  0  0  0  0  0  0  0  0  0
   60.6080   30.2900   50.8420 C   0  0  0  0  0  0  0  0  0  0  0  0
   58.6630   29.0150   51.8020 N   0  0  0  0  0  0  0  0  0  0  0  0
   57.4140   29.2430   52.0860 O   0  0  0  0  0  0  0  0  0  0  0  0
   57.0990   30.4880   51.8090 C   0  0  0  0  0  0  0  0  0  0  0  0
   55.7410   31.0760   52.0020 C   0  0  0  0  0  0  0  0  0  0  0  0
   59.0270   34.5202   46.4157 H   0  0  0  0  0  0  0  0  0  0  0  0
   60.1642   34.6207   45.0289 H   0  0  0  0  0  0  0  0  0  0  0  0
   58.6589   35.6009   45.0289 H   0  0  0  0  0  0  0  0  0  0  0  0
   57.7872   33.9110   43.7905 H   0  0  0  0  0  0  0  0  0  0  0  0
   59.1106   32.7693   44.2906 H   0  0  0  0  0  0  0  0  0  0  0  0
   57.3664   33.3070   46.5411 H   0  0  0  0  0  0  0  0  0  0  0  0
   56.4017   32.7519   45.1109 H   0  0  0  0  0  0  0  0  0  0  0  0
   57.8246   30.8794   43.7781 H   0  0  0  0  0  0  0  0  0  0  0  0
   58.2893   29.5470   44.9339 H   0  0  0  0  0  0  0  0  0  0  0  0
   58.6359   28.8270   45.4231 H   0  0  0  0  0  0  0  0  0  0  0  0
   60.2303   27.0941   46.2428 H   0  0  0  0  0  0  0  0  0  0  0  0
   59.3944   24.8469   46.9236 H   0  0  0  0  0  0  0  0  0  0  0  0
   56.9577   24.3278   46.8019 H   0  0  0  0  0  0  0  0  0  0  0  0
   54.1708   24.2359   46.4879 H   0  0  0  0  0  0  0  0  0  0  0  0
   53.5408   25.0037   44.9912 H   0  0  0  0  0  0  0  0  0  0  0  0
   55.1639   24.2341   44.9912 H   0  0  0  0  0  0  0  0  0  0  0  0
   60.9480   31.6048   45.7782 H   0  0  0  0  0  0  0  0  0  0  0  0
   62.8406   32.9748   46.6519 H   0  0  0  0  0  0  0  0  0  0  0  0
   62.6395   34.1265   48.8560 H   0  0  0  0  0  0  0  0  0  0  0  0
   60.5186   33.9685   50.1570 H   0  0  0  0  0  0  0  0  0  0  0  0
   59.2815   32.9703   51.2592 H   0  0  0  0  0  0  0  0  0  0  0  0
   57.4909   33.1286   51.2510 H   0  0  0  0  0  0  0  0  0  0  0  0
   61.2851   30.3554   51.7064 H   0  0  0  0  0  0  0  0  0  0  0  0
   60.8742   29.4134   50.2332 H   0  0  0  0  0  0  0  0  0  0  0  0
   60.7016   31.2014   50.2332 H   0  0  0  0  0  0  0  0  0  0  0  0
   59.1420   28.0970   51.9240 H   0  0  0  0  0  0  0  0  0  0  0  0
   55.5304   31.1672   53.0778 H   0  0  0  0  0  0  0  0  0  0  0  0
   55.7027   32.0713   51.5352 H   0  0  0  0  0  0  0  0  0  0  0  0
   54.9889   30.4229   51.5352 H   0  0  0  0  0  0  0  0  0  0  0  0
  1  2  1  0
  2  3  1  0
  3  4  1  0
  4  5  1  0
  5  6  1  0
  6  7  2  0
  6  8  1  0
  8  9  1  0
  9 10  2  0
 10 11  1  0
 11 12  2  0
 12 13  1  0
 13 14  2  0
 14 15  1  0
 15 16  1  0
  4 17  1  0
 17 18  2  0
 17 19  1  0
 19 20  2  0
 20 21  1  0
 21 22  2  0
 22 23  1  0
 23 24  2  0
 24 25  1  0
 25 26  1  0
 26 27  1  0
 27 28  1  0
 28 29  1  0
 28 30  2  0
 30 31  1  0
 31 32  1  0
 32 33  1  0
 14  9  1  0
 24 19  1  0
 32 27  2  0
  1 34  1  0
  1 35  1  0
  1 36  1  0
  2 37  1  0
  2 38  1  0
  3 39  1  0
  3 40  1  0
  5 41  1  0
  5 42  1  0
 10 43  1  0
 11 44  1  0
 12 45  1  0
 13 46  1  0
 16 47  1  0
 16 48  1  0
 16 49  1  0
 20 50  1  0
 21 51  1  0
 22 52  1  0
 23 53  1  0
 26 54  1  0
 26 55  1  0
 29 56  1  0
 29 57  1  0
 29 58  1  0
 30 59  1  0
 33 60  1  0
 33 61  1  0
 33 62  1  0
M  CHG  2   8  -1  30   1
M  END
>  <UniqueID>  (12) 
10

>  <SMILES>  (12) 
CCCN(CC(=O)[N-]c1ccccc1OC)C(=O)c1ccccc1OCc1c(C)[nH+]oc1C

>  <Energy>  (12) 
94.77679978852338

>  <Genealogy>  (12) 
CCCN(CC(=O)[N-]c1ccccc1OC)C(=O)c1ccccc1OCc1c(C)[nH+]oc1C (protonated)
CCCN(CC(=O)[N-]c1ccccc1OC)C(=O)c1ccccc1OCc1c(C)[nH+]oc1C (3D coordinates assigned)
CCCN(CC(=O)[N-]c1ccccc1OC)C(=O)c1ccccc1OCc1c(C)[nH+]oc1C (optimized conformer: 94.77679978852338 kcal/mol)

>  <smiles>  (12) 
CCCN(CC(=O)Nc1ccccc1OC)C(=O)c1ccccc1OCc1c(C)noc1C

>  <score_type>  (12) 
oracle

>  <origin>  (12) 
adg

>  <m_score__min__energy>  (12) 
-10.42

>  <m_primary>  (12) 
energy

$$$$
12:0
     RDKit          3D

 56 58  0  0  0  0  0  0  0  0999 V2000
   57.7650   28.7410   46.5700 C   0  0  0  0  0  0  0  0  0  0  0  0
   58.3270   28.4050   45.2490 N   0  0  0  0  0  0  0  0  0  0  0  0
   57.6960   29.1820   44.1570 C   0  0  0  0  0  0  0  0  0  0  0  0
   56.3990   29.7730   44.6220 C   0  0  0  0  0  0  0  0  0  0  0  0
   55.4170   29.0160   44.8490 O   0  0  0  0  0  0  0  0  0  0  0  0
   56.2890   31.1940   44.7810 N   0  0  0  0  0  0  0  0  0  0  0  0
   57.3450   32.1250   45.0680 C   0  0  0  0  0  0  0  0  0  0  0  0
   57.3970   33.4090   44.4930 C   0  0  0  0  0  0  0  0  0  0  0  0
   58.4420   34.2790   44.8100 C   0  0  0  0  0  0  0  0  0  0  0  0
   59.4320   33.8890   45.7140 C   0  0  0  0  0  0  0  0  0  0  0  0
   59.3690   32.6300   46.3270 C   0  0  0  0  0  0  0  0  0  0  0  0
   60.5820   32.1440   47.5080 S   0  0  0  0  0  0  0  0  0  0  0  0
   61.4650   31.1090   46.8690 O   0  0  0  0  0  0  0  0  0  0  0  0
   59.9120   31.5240   48.7040 O   0  0  0  0  0  0  0  0  0  0  0  0
   61.5550   33.5170   47.9930 N   0  0  0  0  0  0  0  0  0  0  0  0
   62.0390   33.3860   49.3790 C   0  0  0  0  0  0  0  0  0  0  0  0
   63.1930   32.3610   49.5080 C   0  0  0  0  0  0  0  0  0  0  0  0
   63.7960   32.0280   48.2710 O   0  0  0  0  0  0  0  0  0  0  0  0
   64.0010   33.1900   47.4990 C   0  0  0  0  0  0  0  0  0  0  0  0
   62.6540   33.7770   47.0370 C   0  0  0  0  0  0  0  0  0  0  0  0
   58.3240   31.7550   46.0010 C   0  0  0  0  0  0  0  0  0  0  0  0
   59.8070   28.4730   45.2350 C   0  0  0  0  0  0  0  0  0  0  0  0
   60.4540   27.9450   46.4940 C   0  0  0  0  0  0  0  0  0  0  0  0
   60.9890   26.7970   46.4960 O   0  0  0  0  0  0  0  0  0  0  0  0
   60.5360   28.7850   47.6570 N   0  0  0  0  0  0  0  0  0  0  0  0
   60.7280   28.2850   48.9910 C   0  0  0  0  0  0  0  0  0  0  0  0
   61.0700   29.1470   50.0560 C   0  0  0  0  0  0  0  0  0  0  0  0
   61.2860   28.6290   51.3390 C   0  0  0  0  0  0  0  0  0  0  0  0
   61.1570   27.2550   51.5690 C   0  0  0  0  0  0  0  0  0  0  0  0
   61.3650   26.7540   52.8130 F   0  0  0  0  0  0  0  0  0  0  0  0
   60.8260   26.3920   50.5150 C   0  0  0  0  0  0  0  0  0  0  0  0
   60.6220   26.9040   49.2300 C   0  0  0  0  0  0  0  0  0  0  0  0
   58.4228   28.3477   47.3591 H   0  0  0  0  0  0  0  0  0  0  0  0
   57.6873   29.8338   46.6682 H   0  0  0  0  0  0  0  0  0  0  0  0
   56.7656   28.2921   46.6682 H   0  0  0  0  0  0  0  0  0  0  0  0
   58.3740   29.9915   43.8488 H   0  0  0  0  0  0  0  0  0  0  0  0
   57.4998   28.5114   43.3075 H   0  0  0  0  0  0  0  0  0  0  0  0
   56.6118   33.7279   43.7917 H   0  0  0  0  0  0  0  0  0  0  0  0
   58.4855   35.2753   44.3458 H   0  0  0  0  0  0  0  0  0  0  0  0
   60.2632   34.5712   45.9457 H   0  0  0  0  0  0  0  0  0  0  0  0
   62.3985   34.3675   49.7217 H   0  0  0  0  0  0  0  0  0  0  0  0
   61.2009   33.0261   49.9939 H   0  0  0  0  0  0  0  0  0  0  0  0
   63.9639   32.7864   50.1674 H   0  0  0  0  0  0  0  0  0  0  0  0
   62.7588   31.4358   49.9147 H   0  0  0  0  0  0  0  0  0  0  0  0
   64.5326   33.9381   48.1054 H   0  0  0  0  0  0  0  0  0  0  0  0
   64.5966   32.9269   46.6124 H   0  0  0  0  0  0  0  0  0  0  0  0
   62.7670   34.8648   46.9193 H   0  0  0  0  0  0  0  0  0  0  0  0
   62.3888   33.2882   46.0879 H   0  0  0  0  0  0  0  0  0  0  0  0
   58.2713   30.7673   46.4823 H   0  0  0  0  0  0  0  0  0  0  0  0
   60.1732   27.8817   44.3828 H   0  0  0  0  0  0  0  0  0  0  0  0
   60.0780   29.5363   45.1575 H   0  0  0  0  0  0  0  0  0  0  0  0
   60.4930   29.8230   47.5220 H   0  0  0  0  0  0  0  0  0  0  0  0
   61.1670   30.2281   49.8773 H   0  0  0  0  0  0  0  0  0  0  0  0
   61.5570   29.3022   52.1657 H   0  0  0  0  0  0  0  0  0  0  0  0
   60.7268   25.3120   50.6989 H   0  0  0  0  0  0  0  0  0  0  0  0
   60.3773   26.2225   48.4019 H   0  0  0  0  0  0  0  0  0  0  0  0
  1  2  1  0
  2  3  1  0
  3  4  1  0
  4  5  2  0
  4  6  1  0
  6  7  1  0
  7  8  2  0
  8  9  1  0
  9 10  2  0
 10 11  1  0
 11 12  1  0
 12 13  2  0
 12 14  2  0
 12 15  1  0
 15 16  1  0
 16 17  1  0
 17 18  1  0
 18 19  1  0
 19 20  1  0
 11 21  2  0
  2 22  1  0
 22 23  1  0
 23 24  2  0
 23 25  1  0
 25 26  1  0
 26 27  2  0
 27 28  1  0
 28 29  2  0
 29 30  1  0
 29 31  1  0
 31 32  2  0
 21  7  1  0
 32 26  1  0
 20 15  1  0
  1 33  1  0
  1 34  1  0
  1 35  1  0
  3 36  1  0
  3 37  1  0
  8 38  1  0
  9 39  1  0
 10 40  1  0
 16 41  1  0
 16 42  1  0
 17 43  1  0
 17 44  1  0
 19 45  1  0
 19 46  1  0
 20 47  1  0
 20 48  1  0
 21 49  1  0
 22 50  1  0
 22 51  1  0
 25 52  1  0
 27 53  1  0
 28 54  1  0
 31 55  1  0
 32 56  1  0
M  CHG  1   6  -1
M  END
>  <UniqueID>  (13) 
11

>  <SMILES>  (13) 
CN(CC(=O)[N-]c1cccc(S(=O)(=O)N2CCOCC2)c1)CC(=O)Nc1ccc(F)cc1

>  <Energy>  (13) 
79.14873578891596

>  <Genealogy>  (13) 
CN(CC(=O)[N-]c1cccc(S(=O)(=O)N2CCOCC2)c1)CC(=O)Nc1ccc(F)cc1 (protonated)
CN(CC(=O)[N-]c1cccc(S(=O)(=O)N2CCOCC2)c1)CC(=O)Nc1ccc(F)cc1 (3D coordinates assigned)
CN(CC(=O)[N-]c1cccc(S(=O)(=O)N2CCOCC2)c1)CC(=O)Nc1ccc(F)cc1 (nonaromatic ring conformer: 79.14873578891596 kcal/mol)

>  <smiles>  (13) 
CN(CC(=O)Nc1ccc(F)cc1)CC(=O)Nc1cccc(S(=O)(=O)N2CCOCC2)c1

>  <score_type>  (13) 
oracle

>  <origin>  (13) 
adg

>  <m_score__min__energy>  (13) 
-11.17

>  <m_primary>  (13) 
energy

$$$$
13:0
     RDKit          3D

 53 56  0  0  0  0  0  0  0  0999 V2000
   60.5760   26.3720   46.7320 C   0  0  0  0  0  0  0  0  0  0  0  0
   59.2380   26.9750   46.3600 C   0  0  0  0  0  0  0  0  0  0  0  0
   59.1440   28.3220   45.9240 C   0  0  0  0  0  0  0  0  0  0  0  0
   60.3570   29.2200   45.7860 C   0  0  0  0  0  0  0  0  0  0  0  0
   60.4080   30.2480   46.8870 C   0  0  0  0  0  0  0  0  0  0  0  0
   60.3390   29.8570   48.2330 C   0  0  0  0  0  0  0  0  0  0  0  0
   60.3600   30.8150   49.2500 C   0  0  0  0  0  0  0  0  0  0  0  0
   60.4210   32.1820   48.9370 C   0  0  0  0  0  0  0  0  0  0  0  0
   60.4260   33.1840   50.0240 C   0  0  0  0  0  0  0  0  0  0  0  0
   59.3650   33.3810   50.6740 O   0  0  0  0  0  0  0  0  0  0  0  0
   61.5960   33.9350   50.3780 N   0  0  0  0  0  0  0  0  0  0  0  0
   62.4740   34.6740   49.4710 C   0  0  0  0  0  0  0  0  0  0  0  0
   63.3760   33.7290   48.6690 C   0  0  0  0  0  0  0  0  0  0  0  0
   64.2070   32.8360   49.5540 C   0  0  0  0  0  0  0  0  0  0  0  0
   63.6360   31.7080   50.1670 C   0  0  0  0  0  0  0  0  0  0  0  0
   64.4160   30.8770   50.9780 C   0  0  0  0  0  0  0  0  0  0  0  0
   65.7660   31.1690   51.1940 C   0  0  0  0  0  0  0  0  0  0  0  0
   66.5260   30.3410   52.0190 O   0  0  0  0  0  0  0  0  0  0  0  0
   66.3400   32.2930   50.5860 C   0  0  0  0  0  0  0  0  0  0  0  0
   65.5660   33.1200   49.7660 C   0  0  0  0  0  0  0  0  0  0  0  0
   60.5330   32.5700   47.5930 C   0  0  0  0  0  0  0  0  0  0  0  0
   60.5090   31.6130   46.5770 C   0  0  0  0  0  0  0  0  0  0  0  0
   57.8910   28.8430   45.5610 C   0  0  0  0  0  0  0  0  0  0  0  0
   56.7370   28.0640   45.6200 C   0  0  0  0  0  0  0  0  0  0  0  0
   55.5260   28.6410   45.2480 O   0  0  0  0  0  0  0  0  0  0  0  0
   56.8130   26.7230   46.0450 C   0  0  0  0  0  0  0  0  0  0  0  0
   55.6820   25.8840   46.1170 C   0  0  0  0  0  0  0  0  0  0  0  0
   54.4130   26.3360   45.7710 O   0  0  0  0  0  0  0  0  0  0  0  0
   55.8310   24.5650   46.5420 C   0  0  0  0  0  0  0  0  0  0  0  0
   57.0990   24.1030   46.8880 C   0  0  0  0  0  0  0  0  0  0  0  0
   57.2520   22.9150   47.2750 O   0  0  0  0  0  0  0  0  0  0  0  0
   58.1500   24.9090   46.8110 O   0  0  0  0  0  0  0  0  0  0  0  0
   58.0700   26.1800   46.4130 C   0  0  0  0  0  0  0  0  0  0  0  0
   60.6677   26.3307   47.8274 H   0  0  0  0  0  0  0  0  0  0  0  0
   60.6472   25.3548   46.3194 H   0  0  0  0  0  0  0  0  0  0  0  0
   61.3852   26.9924   46.3194 H   0  0  0  0  0  0  0  0  0  0  0  0
   61.2663   28.6026   45.8304 H   0  0  0  0  0  0  0  0  0  0  0  0
   60.2898   29.7471   44.8229 H   0  0  0  0  0  0  0  0  0  0  0  0
   60.2679   28.7896   48.4891 H   0  0  0  0  0  0  0  0  0  0  0  0
   60.3285   30.4960   50.3023 H   0  0  0  0  0  0  0  0  0  0  0  0
   61.8566   35.2576   48.7723 H   0  0  0  0  0  0  0  0  0  0  0  0
   63.1149   35.3350   50.0730 H   0  0  0  0  0  0  0  0  0  0  0  0
   62.7439   33.0990   48.0259 H   0  0  0  0  0  0  0  0  0  0  0  0
   64.0657   34.3478   48.0761 H   0  0  0  0  0  0  0  0  0  0  0  0
   62.5721   31.4776   50.0086 H   0  0  0  0  0  0  0  0  0  0  0  0
   63.9654   29.9902   51.4477 H   0  0  0  0  0  0  0  0  0  0  0  0
   66.1170   29.8670   52.8140 H   0  0  0  0  0  0  0  0  0  0  0  0
   67.4019   32.5255   50.7540 H   0  0  0  0  0  0  0  0  0  0  0  0
   66.0236   33.9970   49.2848 H   0  0  0  0  0  0  0  0  0  0  0  0
   60.6404   33.6348   47.3386 H   0  0  0  0  0  0  0  0  0  0  0  0
   60.5697   31.9311   45.5258 H   0  0  0  0  0  0  0  0  0  0  0  0
   57.8192   29.8874   45.2232 H   0  0  0  0  0  0  0  0  0  0  0  0
   54.9588   23.8975   46.6034 H   0  0  0  0  0  0  0  0  0  0  0  0
  1  2  1  0
  2  3  2  0
  3  4  1  0
  4  5  1  0
  5  6  2  0
  6  7  1  0
  7  8  2  0
  8  9  1  0
  9 10  2  0
  9 11  1  0
 11 12  1  0
 12 13  1  0
 13 14  1  0
 14 15  2  0
 15 16  1  0
 16 17  2  0
 17 18  1  0
 17 19  1  0
 19 20  2  0
  8 21  1  0
 21 22  2  0
  3 23  1  0
 23 24  2  0
 24 25  1  0
 24 26  1  0
 26 27  1  0
 27 28  1  0
 27 29  2  0
 29 30  1  0
 30 31  2  0
 30 32  1  0
 32 33  1  0
 33  2  1  0
 22  5  1  0
 33 26  2  0
 20 14  1  0
  1 34  1  0
  1 35  1  0
  1 36  1  0
  4 37  1  0
  4 38  1  0
  6 39  1  0
  7 40  1  0
 12 41  1  0
 12 42  1  0
 13 43  1  0
 13 44  1  0
 15 45  1  0
 16 46  1  0
 18 47  1  0
 19 48  1  0
 20 49  1  0
 21 50  1  0
 22 51  1  0
 23 52  1  0
 29 53  1  0
M  CHG  3  11  -1  25  -1  28  -1
M  END
>  <UniqueID>  (14) 
12

>  <SMILES>  (14) 
Cc1c(Cc2ccc(C(=O)[N-]CCc3ccc(O)cc3)cc2)cc([O-])c2c([O-])cc(=O)oc12

>  <Energy>  (14) 
64.28683370816864

>  <Genealogy>  (14) 
Cc1c(Cc2ccc(C(=O)[N-]CCc3ccc(O)cc3)cc2)cc([O-])c2c([O-])cc(=O)oc12 (protonated)
Cc1c(Cc2ccc(C(=O)[N-]CCc3ccc(O)cc3)cc2)cc([O-])c2c([O-])cc(=O)oc12 (3D coordinates assigned)
Cc1c(Cc2ccc(C(=O)[N-]CCc3ccc(O)cc3)cc2)cc([O-])c2c([O-])cc(=O)oc12 (optimized conformer: 64.28683370816864 kcal/mol)

>  <smiles>  (14) 
Cc1c(Cc2ccc(C(=O)NCCc3ccc(O)cc3)cc2)cc(O)c2c(O)cc(=O)oc12

>  <score_type>  (14) 
oracle

>  <origin>  (14) 
adg

>  <m_score__min__energy>  (14) 
-16.91

>  <m_primary>  (14) 
energy

$$$$
14:0
     RDKit          3D

 55 58  0  0  0  0  0  0  0  0999 V2000
   60.2390   34.3120   49.3850 C   0  0  0  0  0  0  0  0  0  0  0  0
   61.4180   33.8170   48.5790 C   0  0  0  0  0  0  0  0  0  0  0  0
   61.4430   33.9390   47.1640 C   0  0  0  0  0  0  0  0  0  0  0  0
   60.3000   34.3580   46.4020 N   0  0  0  0  0  0  0  0  0  0  0  0
   58.9670   33.8410   46.5260 C   0  0  0  0  0  0  0  0  0  0  0  0
   58.0750   34.5740   47.0290 O   0  0  0  0  0  0  0  0  0  0  0  0
   58.6160   32.4710   46.1090 C   0  0  0  0  0  0  0  0  0  0  0  0
   58.0550   32.1170   44.8860 C   0  0  0  0  0  0  0  0  0  0  0  0
   57.8260   30.7830   44.8420 N   0  0  0  0  0  0  0  0  0  0  0  0
   57.3060   30.0480   43.6910 C   0  0  0  0  0  0  0  0  0  0  0  0
   55.8850   29.6520   43.9370 C   0  0  0  0  0  0  0  0  0  0  0  0
   55.4860   29.1850   45.2240 N   0  0  0  0  0  0  0  0  0  0  0  0
   55.0480   29.6910   42.9960 O   0  0  0  0  0  0  0  0  0  0  0  0
   58.2720   30.2830   46.0140 C   0  0  0  0  0  0  0  0  0  0  0  0
   58.3060   28.9460   46.4220 C   0  0  0  0  0  0  0  0  0  0  0  0
   58.8710   28.6510   47.6750 C   0  0  0  0  0  0  0  0  0  0  0  0
   59.4110   29.6800   48.4800 C   0  0  0  0  0  0  0  0  0  0  0  0
   59.9920   29.3840   49.7120 O   0  0  0  0  0  0  0  0  0  0  0  0
   59.3750   31.0140   48.0390 C   0  0  0  0  0  0  0  0  0  0  0  0
   58.7680   31.2870   46.8110 C   0  0  0  0  0  0  0  0  0  0  0  0
   62.6270   33.6700   46.4660 C   0  0  0  0  0  0  0  0  0  0  0  0
   63.7480   33.1820   47.1300 C   0  0  0  0  0  0  0  0  0  0  0  0
   63.7060   32.9680   48.5070 C   0  0  0  0  0  0  0  0  0  0  0  0
   62.5530   33.2810   49.2440 C   0  0  0  0  0  0  0  0  0  0  0  0
   62.5500   33.0160   50.7020 C   0  0  0  0  0  0  0  0  0  0  0  0
   63.2240   33.7710   51.4540 O   0  0  0  0  0  0  0  0  0  0  0  0
   61.7710   31.9000   51.2950 C   0  0  0  0  0  0  0  0  0  0  0  0
   62.4190   30.7840   51.8570 C   0  0  0  0  0  0  0  0  0  0  0  0
   61.6780   29.7450   52.4220 C   0  0  0  0  0  0  0  0  0  0  0  0
   60.2830   29.8050   52.4480 C   0  0  0  0  0  0  0  0  0  0  0  0
   59.5650   28.7530   53.0070 O   0  0  0  0  0  0  0  0  0  0  0  0
   59.6160   30.9230   51.9150 C   0  0  0  0  0  0  0  0  0  0  0  0
   58.1110   30.9910   51.9120 C   0  0  0  0  0  0  0  0  0  0  0  0
   57.5770   29.8370   51.3190 O   0  0  0  0  0  0  0  0  0  0  0  0
   60.3660   31.9600   51.3330 C   0  0  0  0  0  0  0  0  0  0  0  0
   60.4629   34.2180   50.4579 H   0  0  0  0  0  0  0  0  0  0  0  0
   60.0457   35.3672   49.1418 H   0  0  0  0  0  0  0  0  0  0  0  0
   59.3504   33.7110   49.1418 H   0  0  0  0  0  0  0  0  0  0  0  0
   57.8296   32.8205   44.0709 H   0  0  0  0  0  0  0  0  0  0  0  0
   57.3566   30.6873   42.7973 H   0  0  0  0  0  0  0  0  0  0  0  0
   57.9117   29.1429   43.5367 H   0  0  0  0  0  0  0  0  0  0  0  0
   54.5140   29.3410   45.5720 H   0  0  0  0  0  0  0  0  0  0  0  0
   57.9024   28.1482   45.7812 H   0  0  0  0  0  0  0  0  0  0  0  0
   58.8931   27.6108   48.0320 H   0  0  0  0  0  0  0  0  0  0  0  0
   59.4280   29.1460   50.5180 H   0  0  0  0  0  0  0  0  0  0  0  0
   59.8130   31.8212   48.6445 H   0  0  0  0  0  0  0  0  0  0  0  0
   62.6711   33.8464   45.3811 H   0  0  0  0  0  0  0  0  0  0  0  0
   64.6683   32.9648   46.5680 H   0  0  0  0  0  0  0  0  0  0  0  0
   64.5844   32.5501   49.0206 H   0  0  0  0  0  0  0  0  0  0  0  0
   63.5177   30.7304   51.8508 H   0  0  0  0  0  0  0  0  0  0  0  0
   62.1958   28.8737   52.8494 H   0  0  0  0  0  0  0  0  0  0  0  0
   57.7483   31.0689   52.9476 H   0  0  0  0  0  0  0  0  0  0  0  0
   57.7918   31.8722   51.3361 H   0  0  0  0  0  0  0  0  0  0  0  0
   58.3180   29.1780   51.2680 H   0  0  0  0  0  0  0  0  0  0  0  0
   59.8477   32.8292   50.9019 H   0  0  0  0  0  0  0  0  0  0  0  0
  1  2  1  0
  2  3  2  0
  3  4  1  0
  4  5  1  0
  5  6  2  0
  5  7  1  0
  7  8  2  0
  8  9  1  0
  9 10  1  0
 10 11  1  0
 11 12  1  0
 11 13  2  0
  9 14  1  0
 14 15  2  0
 15 16  1  0
 16 17  2  0
 17 18  1  0
 17 19  1  0
 19 20  2  0
  3 21  1  0
 21 22  2  0
 22 23  1  0
 23 24  2  0
 24 25  1  0
 25 26  2  0
 25 27  1  0
 27 28  2  0
 28 29  1  0
 29 30  2  0
 30 31  1  0
 30 32  1  0
 32 33  1  0
 33 34  1  0
 32 35  2  0
 24  2  1  0
 35 27  1  0
 20  7  1  0
 20 14  1  0
  1 36  1  0
  1 37  1  0
  1 38  1  0
  8 39  1  0
 10 40  1  0
 10 41  1  0
 12 42  1  0
 15 43  1  0
 16 44  1  0
 18 45  1  0
 19 46  1  0
 21 47  1  0
 22 48  1  0
 23 49  1  0
 28 50  1  0
 29 51  1  0
 33 52  1  0
 33 53  1  0
 34 54  1  0
 35 55  1  0
M  CHG  3   4  -1  12  -1  31  -1
M  END
>  <UniqueID>  (15) 
13

>  <SMILES>  (15) 
Cc1c([N-]C(=O)c2cn(CC([NH-])=O)c3ccc(O)cc23)cccc1C(=O)c1ccc([O-])c(CO)c1

>  <Energy>  (15) 
108.55554373824519

>  <Genealogy>  (15) 
Cc1c([N-]C(=O)c2cn(CC([NH-])=O)c3ccc(O)cc23)cccc1C(=O)c1ccc([O-])c(CO)c1 (protonated)
Cc1c([N-]C(=O)c2cn(CC([NH-])=O)c3ccc(O)cc23)cccc1C(=O)c1ccc([O-])c(CO)c1 (3D coordinates assigned)
Cc1c([N-]C(=O)c2cn(CC([NH-])=O)c3ccc(O)cc23)cccc1C(=O)c1ccc([O-])c(CO)c1 (optimized conformer: 108.55554373824519 kcal/mol)

>  <smiles>  (15) 
Cc1c(NC(=O)c2cn(CC(N)=O)c3ccc(O)cc23)cccc1C(=O)c1ccc(O)c(CO)c1

>  <score_type>  (15) 
oracle

>  <origin>  (15) 
adg

>  <m_score__min__energy>  (15) 
-17.140000000000001

>  <m_primary>  (15) 
energy

$$$$
15:0
     RDKit          3D

 76 80  0  0  0  0  0  0  0  0999 V2000
   60.7520   30.0760   46.0160 C   0  0  0  0  0  0  0  0  0  0  0  0
   60.9170   30.3730   47.4820 C   0  0  0  0  0  0  0  0  0  0  0  0
   59.8750   30.0580   48.3690 C   0  0  0  0  0  0  0  0  0  0  0  0
   60.0060   30.3070   49.7340 C   0  0  0  0  0  0  0  0  0  0  0  0
   61.1720   30.8880   50.2300 C   0  0  0  0  0  0  0  0  0  0  0  0
   62.2210   31.2300   49.3660 C   0  0  0  0  0  0  0  0  0  0  0  0
   63.4350   31.8540   49.9370 C   0  0  0  0  0  0  0  0  0  0  0  0
   64.3230   31.1050   50.4250 O   0  0  0  0  0  0  0  0  0  0  0  0
   63.6010   33.3290   49.9370 C   0  0  0  0  0  0  0  0  0  0  0  0
   63.3170   34.1480   48.9120 C   0  0  0  0  0  0  0  0  0  0  0  0
   62.0290   34.1980   48.1920 C   0  0  0  0  0  0  0  0  0  0  0  0
   61.9930   33.9160   46.8200 C   0  0  0  0  0  0  0  0  0  0  0  0
   60.7780   33.9240   46.1280 C   0  0  0  0  0  0  0  0  0  0  0  0
   59.5750   34.1980   46.8090 C   0  0  0  0  0  0  0  0  0  0  0  0
   58.3300   34.2330   46.1630 O   0  0  0  0  0  0  0  0  0  0  0  0
   58.0840   33.8250   44.8170 C   0  0  0  0  0  0  0  0  0  0  0  0
   57.7490   32.3580   44.7430 C   0  0  0  0  0  0  0  0  0  0  0  0
   57.4240   31.7650   43.5140 C   0  0  0  0  0  0  0  0  0  0  0  0
   57.1650   30.3930   43.4370 C   0  0  0  0  0  0  0  0  0  0  0  0
   57.2610   29.5870   44.5840 C   0  0  0  0  0  0  0  0  0  0  0  0
   57.0070   28.1750   44.5510 N   0  0  0  0  0  0  0  0  0  0  0  0
   57.9210   27.1490   44.1400 C   0  0  0  0  0  0  0  0  0  0  0  0
   58.3700   27.1190   42.9620 O   0  0  0  0  0  0  0  0  0  0  0  0
   58.3410   26.1000   45.1330 C   0  0  1  0  0  0  0  0  0  0  0  0
   59.7210   26.4170   45.7130 C   0  0  0  0  0  0  0  0  0  0  0  0
   59.4580   27.0410   47.0810 C   0  0  0  0  0  0  0  0  0  0  0  0
   58.0760   26.5540   47.4990 C   0  0  0  0  0  0  0  0  0  0  0  0
   57.4400   26.0820   46.2780 N   0  0  0  0  0  0  0  0  0  0  0  0
   56.0930   25.5770   46.2190 C   0  0  0  0  0  0  0  0  0  0  0  0
   55.1380   26.3770   46.0200 O   0  0  0  0  0  0  0  0  0  0  0  0
   55.8200   24.1040   46.4080 C   0  0  0  0  0  0  0  0  0  0  0  0
   56.2240   23.2810   45.2110 C   0  0  0  0  0  0  0  0  0  0  0  0
   55.6630   23.5430   43.9490 C   0  0  0  0  0  0  0  0  0  0  0  0
   56.0560   22.7950   42.8350 C   0  0  0  0  0  0  0  0  0  0  0  0
   57.0150   21.7860   42.9710 C   0  0  0  0  0  0  0  0  0  0  0  0
   57.5870   21.5300   44.2200 C   0  0  0  0  0  0  0  0  0  0  0  0
   57.1980   22.2770   45.3360 C   0  0  0  0  0  0  0  0  0  0  0  0
   57.5690   30.1840   45.8130 C   0  0  0  0  0  0  0  0  0  0  0  0
   57.8230   31.5550   45.8920 C   0  0  0  0  0  0  0  0  0  0  0  0
   59.6130   34.4440   48.1850 C   0  0  0  0  0  0  0  0  0  0  0  0
   60.8270   34.4340   48.8770 C   0  0  0  0  0  0  0  0  0  0  0  0
   62.1100   30.9470   47.9870 C   0  0  0  0  0  0  0  0  0  0  0  0
   63.1940   31.2130   47.1460 O   0  0  0  0  0  0  0  0  0  0  0  0
   60.2211   29.1205   45.8930 H   0  0  0  0  0  0  0  0  0  0  0  0
   60.1720   30.8814   45.5417 H   0  0  0  0  0  0  0  0  0  0  0  0
   61.7422   30.0090   45.5417 H   0  0  0  0  0  0  0  0  0  0  0  0
   58.9471   29.6107   47.9831 H   0  0  0  0  0  0  0  0  0  0  0  0
   59.1880   30.0446   50.4210 H   0  0  0  0  0  0  0  0  0  0  0  0
   61.2695   31.0797   51.3088 H   0  0  0  0  0  0  0  0  0  0  0  0
   63.9904   33.7909   50.8563 H   0  0  0  0  0  0  0  0  0  0  0  0
   64.1078   34.8376   48.5818 H   0  0  0  0  0  0  0  0  0  0  0  0
   62.9260   33.6870   46.2842 H   0  0  0  0  0  0  0  0  0  0  0  0
   60.7611   33.7156   45.0480 H   0  0  0  0  0  0  0  0  0  0  0  0
   57.2410   34.4059   44.4147 H   0  0  0  0  0  0  0  0  0  0  0  0
   58.9955   34.0035   44.2277 H   0  0  0  0  0  0  0  0  0  0  0  0
   57.3726   32.3829   42.6054 H   0  0  0  0  0  0  0  0  0  0  0  0
   56.8847   29.9423   42.4735 H   0  0  0  0  0  0  0  0  0  0  0  0
   58.3364   25.1426   44.5914 H   0  0  0  0  0  0  0  0  0  0  0  0
   60.3139   25.4965   45.8185 H   0  0  0  0  0  0  0  0  0  0  0  0
   60.2913   27.0938   45.0598 H   0  0  0  0  0  0  0  0  0  0  0  0
   60.2165   26.7098   47.8056 H   0  0  0  0  0  0  0  0  0  0  0  0
   59.5062   28.1392   47.0417 H   0  0  0  0  0  0  0  0  0  0  0  0
   58.1621   25.7349   48.2282 H   0  0  0  0  0  0  0  0  0  0  0  0
   57.4916   27.3527   47.9791 H   0  0  0  0  0  0  0  0  0  0  0  0
   56.3831   23.7510   47.2845 H   0  0  0  0  0  0  0  0  0  0  0  0
   54.7356   23.9812   46.5460 H   0  0  0  0  0  0  0  0  0  0  0  0
   54.9123   24.3392   43.8375 H   0  0  0  0  0  0  0  0  0  0  0  0
   55.6104   23.0003   41.8505 H   0  0  0  0  0  0  0  0  0  0  0  0
   57.3189   21.1941   42.0950 H   0  0  0  0  0  0  0  0  0  0  0  0
   58.3446   20.7395   44.3253 H   0  0  0  0  0  0  0  0  0  0  0  0
   57.6566   22.0775   46.3157 H   0  0  0  0  0  0  0  0  0  0  0  0
   57.6112   29.5680   46.7234 H   0  0  0  0  0  0  0  0  0  0  0  0
   58.0825   32.0082   46.8601 H   0  0  0  0  0  0  0  0  0  0  0  0
   58.6782   34.6474   48.7280 H   0  0  0  0  0  0  0  0  0  0  0  0
   60.8406   34.6117   49.9625 H   0  0  0  0  0  0  0  0  0  0  0  0
   64.1270   31.4090   47.4850 H   0  0  0  0  0  0  0  0  0  0  0  0
  1  2  1  0
  2  3  2  0
  3  4  1  0
  4  5  2  0
  5  6  1  0
  6  7  1  0
  7  8  2  0
  7  9  1  0
  9 10  2  3
 10 11  1  0
 11 12  2  0
 12 13  1  0
 13 14  2  0
 14 15  1  0
 15 16  1  0
 16 17  1  0
 17 18  2  0
 18 19  1  0
 19 20  2  0
 20 21  1  0
 21 22  1  0
 22 23  2  0
 22 24  1  0
 24 25  1  0
 25 26  1  0
 26 27  1  0
 27 28  1  0
 28 29  1  0
 29 30  2  0
 29 31  1  0
 31 32  1  0
 32 33  2  0
 33 34  1  0
 34 35  2  0
 35 36  1  0
 36 37  2  0
 20 38  1  0
 38 39  2  0
 14 40  1  0
 40 41  2  0
  6 42  2  0
 42 43  1  0
 42  2  1  0
 41 11  1  0
 39 17  1  0
 28 24  1  0
 37 32  1  0
  1 44  1  0
  1 45  1  0
  1 46  1  0
  3 47  1  0
  4 48  1  0
  5 49  1  0
  9 50  1  0
 10 51  1  0
 12 52  1  0
 13 53  1  0
 16 54  1  0
 16 55  1  0
 18 56  1  0
 19 57  1  0
 24 58  1  6
 25 59  1  0
 25 60  1  0
 26 61  1  0
 26 62  1  0
 27 63  1  0
 27 64  1  0
 31 65  1  0
 31 66  1  0
 33 67  1  0
 34 68  1  0
 35 69  1  0
 36 70  1  0
 37 71  1  0
 38 72  1  0
 39 73  1  0
 40 74  1  0
 41 75  1  0
 43 76  1  0
M  CHG  1  21  -1
M  END
>  <UniqueID>  (16) 
14

>  <SMILES>  (16) 
Cc1cccc(C(=O)C=Cc2ccc(OCc3ccc([N-]C(=O)[C@H]4CCCN4C(=O)Cc4ccccc4)cc3)cc2)c1O

>  <Energy>  (16) 
98.37552384438169

>  <Genealogy>  (16) 
Cc1cccc(C(=O)C=Cc2ccc(OCc3ccc([N-]C(=O)C4CCCN4C(=O)Cc4ccccc4)cc3)cc2)c1O (protonated)
Cc1cccc(C(=O)C=Cc2ccc(OCc3ccc([N-]C(=O)[C@H]4CCCN4C(=O)Cc4ccccc4)cc3)cc2)c1O (chirality)
Cc1cccc(C(=O)C=Cc2ccc(OCc3ccc([N-]C(=O)[C@H]4CCCN4C(=O)Cc4ccccc4)cc3)cc2)c1O (3D coordinates assigned)
Cc1cccc(C(=O)C=Cc2ccc(OCc3ccc([N-]C(=O)[C@H]4CCCN4C(=O)Cc4ccccc4)cc3)cc2)c1O (nonaromatic ring conformer: 98.37552384438169 kcal/mol)

>  <smiles>  (16) 
Cc1cccc(C(=O)C=Cc2ccc(OCc3ccc(NC(=O)C4CCCN4C(=O)Cc4ccccc4)cc3)cc2)c1O

>  <score_type>  (16) 
oracle

>  <origin>  (16) 
adg

>  <m_score__min__energy>  (16) 
-11.789999999999999

>  <m_primary>  (16) 
energy

$$$$
16:0
     RDKit          3D

 44 46  0  0  0  0  0  0  0  0999 V2000
   51.0080   32.6950   51.7540 O   0  0  0  0  0  0  0  0  0  0  0  0
   51.4600   32.2060   50.6860 C   0  0  0  0  0  0  0  0  0  0  0  0
   51.0190   32.6960   49.4630 O   0  0  0  0  0  0  0  0  0  0  0  0
   52.5020   31.1320   50.7300 C   0  0  0  0  0  0  0  0  0  0  0  0
   53.0570   30.9480   52.1460 C   0  0  0  0  0  0  0  0  0  0  0  0
   54.4010   31.5110   52.2720 N   0  0  0  0  0  0  0  0  0  0  0  0
   55.6320   30.7900   52.1240 C   0  0  0  0  0  0  0  0  0  0  0  0
   55.6410   29.5540   52.3590 O   0  0  0  0  0  0  0  0  0  0  0  0
   56.8820   31.4460   51.6910 C   0  0  0  0  0  0  0  0  0  0  0  0
   57.2260   32.7190   52.1700 C   0  0  0  0  0  0  0  0  0  0  0  0
   58.4180   33.3260   51.7650 C   0  0  0  0  0  0  0  0  0  0  0  0
   59.2830   32.6640   50.8760 C   0  0  0  0  0  0  0  0  0  0  0  0
   60.4780   33.2490   50.4310 O   0  0  0  0  0  0  0  0  0  0  0  0
   60.7680   33.5460   49.0920 C   0  0  0  0  0  0  0  0  0  0  0  0
   59.7870   34.1940   48.3300 C   0  0  0  0  0  0  0  0  0  0  0  0
   60.0070   34.4710   46.9790 C   0  0  0  0  0  0  0  0  0  0  0  0
   61.2150   34.1120   46.3800 C   0  0  0  0  0  0  0  0  0  0  0  0
   62.2150   33.4940   47.1340 C   0  0  0  0  0  0  0  0  0  0  0  0
   62.0140   33.2210   48.4990 C   0  0  0  0  0  0  0  0  0  0  0  0
   63.1280   32.6470   49.2900 C   0  0  0  0  0  0  0  0  0  0  0  0
   64.4140   33.2080   49.2150 C   0  0  0  0  0  0  0  0  0  0  0  0
   65.4680   32.6570   49.9510 C   0  0  0  0  0  0  0  0  0  0  0  0
   65.2440   31.5480   50.7730 C   0  0  0  0  0  0  0  0  0  0  0  0
   63.9680   30.9880   50.8580 C   0  0  0  0  0  0  0  0  0  0  0  0
   62.9110   31.5360   50.1250 C   0  0  0  0  0  0  0  0  0  0  0  0
   58.9590   31.3770   50.4330 C   0  0  0  0  0  0  0  0  0  0  0  0
   57.7670   30.7700   50.8380 C   0  0  0  0  0  0  0  0  0  0  0  0
   52.0537   30.1848   50.3956 H   0  0  0  0  0  0  0  0  0  0  0  0
   53.3307   31.4269   50.0694 H   0  0  0  0  0  0  0  0  0  0  0  0
   52.3896   31.4528   52.8600 H   0  0  0  0  0  0  0  0  0  0  0  0
   53.1130   29.8700   52.3575 H   0  0  0  0  0  0  0  0  0  0  0  0
   56.5547   33.2416   52.8673 H   0  0  0  0  0  0  0  0  0  0  0  0
   58.6803   34.3251   52.1431 H   0  0  0  0  0  0  0  0  0  0  0  0
   58.8363   34.4868   48.7994 H   0  0  0  0  0  0  0  0  0  0  0  0
   59.2275   34.9725   46.3867 H   0  0  0  0  0  0  0  0  0  0  0  0
   61.3800   34.3161   45.3118 H   0  0  0  0  0  0  0  0  0  0  0  0
   63.1670   33.2187   46.6567 H   0  0  0  0  0  0  0  0  0  0  0  0
   64.5926   34.0844   48.5746 H   0  0  0  0  0  0  0  0  0  0  0  0
   66.4741   33.0964   49.8832 H   0  0  0  0  0  0  0  0  0  0  0  0
   66.0734   31.1168   51.3527 H   0  0  0  0  0  0  0  0  0  0  0  0
   63.7939   30.1140   51.5029 H   0  0  0  0  0  0  0  0  0  0  0  0
   61.9055   31.0965   50.2016 H   0  0  0  0  0  0  0  0  0  0  0  0
   59.6461   30.8401   49.7624 H   0  0  0  0  0  0  0  0  0  0  0  0
   57.5216   29.7571   50.4861 H   0  0  0  0  0  0  0  0  0  0  0  0
  1  2  2  0
  2  3  1  0
  2  4  1  0
  4  5  1  0
  5  6  1  0
  6  7  1  0
  7  8  2  0
  7  9  1  0
  9 10  2  0
 10 11  1  0
 11 12  2  0
 12 13  1  0
 13 14  1  0
 14 15  2  0
 15 16  1  0
 16 17  2  0
 17 18  1  0
 18 19  2  0
 19 20  1  0
 20 21  2  0
 21 22  1  0
 22 23  2  0
 23 24  1  0
 24 25  2  0
 12 26  1  0
 26 27  2  0
 27  9  1  0
 19 14  1  0
 25 20  1  0
  4 28  1  0
  4 29  1  0
  5 30  1  0
  5 31  1  0
 10 32  1  0
 11 33  1  0
 15 34  1  0
 16 35  1  0
 17 36  1  0
 18 37  1  0
 21 38  1  0
 22 39  1  0
 23 40  1  0
 24 41  1  0
 25 42  1  0
 26 43  1  0
 27 44  1  0
M  CHG  2   3  -1   6  -1
M  END
>  <UniqueID>  (17) 
15

>  <SMILES>  (17) 
O=C([O-])CC[N-]C(=O)c1ccc(Oc2ccccc2-c2ccccc2)cc1

>  <Energy>  (17) 
58.10139048461141

>  <Genealogy>  (17) 
O=C([O-])CC[N-]C(=O)c1ccc(Oc2ccccc2-c2ccccc2)cc1 (protonated)
O=C([O-])CC[N-]C(=O)c1ccc(Oc2ccccc2-c2ccccc2)cc1 (3D coordinates assigned)
O=C([O-])CC[N-]C(=O)c1ccc(Oc2ccccc2-c2ccccc2)cc1 (optimized conformer: 58.10139048461141 kcal/mol)

>  <smiles>  (17) 
O=C(O)CCNC(=O)c1ccc(Oc2ccccc2-c2ccccc2)cc1

>  <score_type>  (17) 
oracle

>  <origin>  (17) 
adg

>  <m_score__min__energy>  (17) 
-13.75

>  <m_primary>  (17) 
energy

$$$$
17:0
     RDKit          3D

 28 29  0  0  0  0  0  0  0  0999 V2000
   59.1470   35.2290   47.2130 O   0  0  0  0  0  0  0  0  0  0  0  0
   59.7620   34.1880   46.8520 C   0  0  0  0  0  0  0  0  0  0  0  0
   59.1360   33.2700   45.9430 N   0  0  0  0  0  0  0  0  0  0  0  0
   57.7120   33.3380   45.6220 C   0  0  0  0  0  0  0  0  0  0  0  0
   57.3760   32.3340   44.5600 C   0  0  0  0  0  0  0  0  0  0  0  0
   57.7510   32.5420   43.2250 C   0  0  0  0  0  0  0  0  0  0  0  0
   57.3940   31.5990   42.2590 C   0  0  0  0  0  0  0  0  0  0  0  0
   56.6660   30.4670   42.6270 C   0  0  0  0  0  0  0  0  0  0  0  0
   56.3020   30.2960   43.9650 C   0  0  0  0  0  0  0  0  0  0  0  0
   56.6590   31.2240   44.8920 N   0  0  0  0  0  0  0  0  0  0  0  0
   61.1360   33.9470   47.3490 C   0  0  0  0  0  0  0  0  0  0  0  0
   62.1790   33.7370   46.4300 C   0  0  0  0  0  0  0  0  0  0  0  0
   63.4840   33.5070   46.8790 C   0  0  0  0  0  0  0  0  0  0  0  0
   63.7610   33.4950   48.2470 C   0  0  0  0  0  0  0  0  0  0  0  0
   62.7370   33.7190   49.1690 C   0  0  0  0  0  0  0  0  0  0  0  0
   61.4290   33.9490   48.7290 C   0  0  0  0  0  0  0  0  0  0  0  0
   60.4700   34.2210   49.6490 F   0  0  0  0  0  0  0  0  0  0  0  0
   59.7170   32.5550   45.4510 H   0  0  0  0  0  0  0  0  0  0  0  0
   57.1242   33.1219   46.5263 H   0  0  0  0  0  0  0  0  0  0  0  0
   57.4732   34.3465   45.2533 H   0  0  0  0  0  0  0  0  0  0  0  0
   58.3208   33.4392   42.9415 H   0  0  0  0  0  0  0  0  0  0  0  0
   57.6864   31.7484   41.2091 H   0  0  0  0  0  0  0  0  0  0  0  0
   56.3821   29.7183   41.8728 H   0  0  0  0  0  0  0  0  0  0  0  0
   55.7259   29.4095   44.2687 H   0  0  0  0  0  0  0  0  0  0  0  0
   61.9676   33.7536   45.3506 H   0  0  0  0  0  0  0  0  0  0  0  0
   64.2925   33.3355   46.1532 H   0  0  0  0  0  0  0  0  0  0  0  0
   64.7865   33.3090   48.5987 H   0  0  0  0  0  0  0  0  0  0  0  0
   62.9595   33.7147   50.2462 H   0  0  0  0  0  0  0  0  0  0  0  0
  1  2  2  0
  2  3  1  0
  3  4  1  0
  4  5  1  0
  5  6  2  0
  6  7  1  0
  7  8  2  0
  8  9  1  0
  9 10  2  0
  2 11  1  0
 11 12  2  0
 12 13  1  0
 13 14  2  0
 14 15  1  0
 15 16  2  0
 16 17  1  0
 10  5  1  0
 16 11  1  0
  3 18  1  0
  4 19  1  0
  4 20  1  0
  6 21  1  0
  7 22  1  0
  8 23  1  0
  9 24  1  0
 12 25  1  0
 13 26  1  0
 14 27  1  0
 15 28  1  0
M  END
>  <UniqueID>  (18) 
16

>  <SMILES>  (18) 
O=C(NCc1ccccn1)c1ccccc1F

>  <Energy>  (18) 
30.48481132077127

>  <Genealogy>  (18) 
O=C(NCc1ccccn1)c1ccccc1F (3D coordinates assigned)
O=C(NCc1ccccn1)c1ccccc1F (optimized conformer: 30.48481132077127 kcal/mol)

>  <smiles>  (18) 
O=C(NCc1ccccn1)c1ccccc1F

>  <score_type>  (18) 
oracle

>  <origin>  (18) 
adg

>  <m_score__min__energy>  (18) 
-6.5700000000000003

>  <m_primary>  (18) 
energy

$$$$
18:0
     RDKit          3D

 53 57  0  0  0  0  0  0  0  0999 V2000
   59.8700   34.6750   49.0650 O   0  0  0  0  0  0  0  0  0  0  0  0
   60.5260   33.8970   48.3190 C   0  0  0  0  0  0  0  0  0  0  0  0
   61.9260   33.5890   48.7020 C   0  0  0  0  0  0  0  0  0  0  0  0
   62.4230   34.0860   49.9110 C   0  0  0  0  0  0  0  0  0  0  0  0
   63.7390   33.8060   50.2890 C   0  0  0  0  0  0  0  0  0  0  0  0
   64.2710   34.2710   51.5010 C   0  0  0  0  0  0  0  0  0  0  0  0
   65.5920   33.9650   51.8460 C   0  0  0  0  0  0  0  0  0  0  0  0
   66.3830   33.1970   50.9850 C   0  0  0  0  0  0  0  0  0  0  0  0
   65.8580   32.7310   49.7750 C   0  0  0  0  0  0  0  0  0  0  0  0
   64.5370   33.0320   49.4220 C   0  0  0  0  0  0  0  0  0  0  0  0
   64.0420   32.5920   48.2700 O   0  0  0  0  0  0  0  0  0  0  0  0
   62.7940   32.8410   47.8800 C   0  0  0  0  0  0  0  0  0  0  0  0
   62.4090   32.4120   46.7630 O   0  0  0  0  0  0  0  0  0  0  0  0
   59.8740   33.3260   47.1530 N   0  0  0  0  0  0  0  0  0  0  0  0
   58.6450   32.5720   47.5230 C   0  0  0  0  0  0  0  0  0  0  0  0
   57.3980   32.9440   46.6860 C   0  0  0  0  0  0  0  0  0  0  0  0
   57.6660   33.0720   45.2360 N   0  0  0  0  0  0  0  0  0  0  0  0
   57.3300   31.5930   44.3660 S   0  0  0  0  0  0  0  0  0  0  0  0
   57.6140   31.7920   42.9020 O   0  0  0  0  0  0  0  0  0  0  0  0
   55.8720   31.2570   44.5130 O   0  0  0  0  0  0  0  0  0  0  0  0
   58.3010   30.2450   44.9660 C   0  0  0  0  0  0  0  0  0  0  0  0
   59.5600   30.4820   45.5310 C   0  0  0  0  0  0  0  0  0  0  0  0
   60.3200   29.4230   46.0350 C   0  0  0  0  0  0  0  0  0  0  0  0
   59.8280   28.1120   45.9760 C   0  0  0  0  0  0  0  0  0  0  0  0
   60.5800   27.0400   46.4830 C   0  0  0  0  0  0  0  0  0  0  0  0
   60.0760   25.7380   46.4200 C   0  0  0  0  0  0  0  0  0  0  0  0
   58.8240   25.4950   45.8490 C   0  0  0  0  0  0  0  0  0  0  0  0
   58.0650   26.5520   45.3390 C   0  0  0  0  0  0  0  0  0  0  0  0
   58.5590   27.8650   45.3970 C   0  0  0  0  0  0  0  0  0  0  0  0
   57.8060   28.9350   44.8920 C   0  0  0  0  0  0  0  0  0  0  0  0
   58.9890   33.6290   44.8820 C   0  0  0  0  0  0  0  0  0  0  0  0
   59.6640   34.3110   46.0730 C   0  0  0  0  0  0  0  0  0  0  0  0
   61.7799   34.6957   50.5627 H   0  0  0  0  0  0  0  0  0  0  0  0
   63.6505   34.8753   52.1791 H   0  0  0  0  0  0  0  0  0  0  0  0
   66.0094   34.3291   52.7963 H   0  0  0  0  0  0  0  0  0  0  0  0
   67.4210   32.9588   51.2603 H   0  0  0  0  0  0  0  0  0  0  0  0
   66.4834   32.1277   49.1005 H   0  0  0  0  0  0  0  0  0  0  0  0
   60.5540   32.6260   46.7660 H   0  0  0  0  0  0  0  0  0  0  0  0
   58.8444   31.4988   47.3870 H   0  0  0  0  0  0  0  0  0  0  0  0
   58.4154   32.8333   48.5665 H   0  0  0  0  0  0  0  0  0  0  0  0
   56.6381   32.1619   46.8301 H   0  0  0  0  0  0  0  0  0  0  0  0
   57.0603   33.9303   47.0368 H   0  0  0  0  0  0  0  0  0  0  0  0
   59.9534   31.5082   45.5785 H   0  0  0  0  0  0  0  0  0  0  0  0
   61.3071   29.6189   46.4792 H   0  0  0  0  0  0  0  0  0  0  0  0
   61.5676   27.2253   46.9306 H   0  0  0  0  0  0  0  0  0  0  0  0
   60.6670   24.9015   46.8213 H   0  0  0  0  0  0  0  0  0  0  0  0
   58.4342   24.4675   45.8007 H   0  0  0  0  0  0  0  0  0  0  0  0
   57.0795   26.3550   44.8917 H   0  0  0  0  0  0  0  0  0  0  0  0
   56.8230   28.7459   44.4360 H   0  0  0  0  0  0  0  0  0  0  0  0
   59.6348   32.8117   44.5286 H   0  0  0  0  0  0  0  0  0  0  0  0
   58.8388   34.3865   44.0986 H   0  0  0  0  0  0  0  0  0  0  0  0
   60.6346   34.7217   45.7580 H   0  0  0  0  0  0  0  0  0  0  0  0
   59.0219   35.1251   46.4403 H   0  0  0  0  0  0  0  0  0  0  0  0
  1  2  2  0
  2  3  1  0
  3  4  2  0
  4  5  1  0
  5  6  2  0
  6  7  1  0
  7  8  2  0
  8  9  1  0
  9 10  2  0
 10 11  1  0
 11 12  1  0
 12 13  2  0
  2 14  1  0
 14 15  1  0
 15 16  1  0
 16 17  1  0
 17 18  1  0
 18 19  2  0
 18 20  2  0
 18 21  1  0
 21 22  2  0
 22 23  1  0
 23 24  2  0
 24 25  1  0
 25 26  2  0
 26 27  1  0
 27 28  2  0
 28 29  1  0
 29 30  2  0
 17 31  1  0
 31 32  1  0
 12  3  1  0
 32 14  1  0
 10  5  1  0
 30 21  1  0
 29 24  1  0
  4 33  1  0
  6 34  1  0
  7 35  1  0
  8 36  1  0
  9 37  1  0
 14 38  1  0
 15 39  1  0
 15 40  1  0
 16 41  1  0
 16 42  1  0
 22 43  1  0
 23 44  1  0
 25 45  1  0
 26 46  1  0
 27 47  1  0
 28 48  1  0
 30 49  1  0
 31 50  1  0
 31 51  1  0
 32 52  1  0
 32 53  1  0
M  CHG  1  14   1
M  END
>  <UniqueID>  (19) 
17

>  <SMILES>  (19) 
O=C(c1cc2ccccc2oc1=O)[NH+]1CCN(S(=O)(=O)c2ccc3ccccc3c2)CC1

>  <Energy>  (19) 
88.58011645166349

>  <Genealogy>  (19) 
O=C(c1cc2ccccc2oc1=O)[NH+]1CCN(S(=O)(=O)c2ccc3ccccc3c2)CC1 (protonated)
O=C(c1cc2ccccc2oc1=O)[NH+]1CCN(S(=O)(=O)c2ccc3ccccc3c2)CC1 (3D coordinates assigned)
O=C(c1cc2ccccc2oc1=O)[NH+]1CCN(S(=O)(=O)c2ccc3ccccc3c2)CC1 (nonaromatic ring conformer: 88.58011645166349 kcal/mol)

>  <smiles>  (19) 
O=C(c1cc2ccccc2oc1=O)N1CCN(S(=O)(=O)c2ccc3ccccc3c2)CC1

>  <score_type>  (19) 
oracle

>  <origin>  (19) 
adg

>  <m_score__min__energy>  (19) 
-8.6500000000000004

>  <m_primary>  (19) 
energy

$$$$
19:0
     RDKit          3D

 44 48  0  0  0  0  0  0  0  0999 V2000
   64.7400   31.9800   46.4960 H   0  0  0  0  0  0  0  0  0  0  0  0
   63.7650   32.0950   46.7450 O   0  0  0  0  0  0  0  0  0  0  0  0
   63.3820   32.5030   48.0200 C   0  0  0  0  0  0  0  0  0  0  0  0
   64.0560   33.4190   48.7350 N   0  0  0  0  0  0  0  0  0  0  0  0
   63.3460   33.4850   49.8810 C   0  0  0  0  0  0  0  0  0  0  0  0
   63.6640   34.2460   50.8320 O   0  0  0  0  0  0  0  0  0  0  0  0
   62.2750   32.6670   49.9300 N   0  0  0  0  0  0  0  0  0  0  0  0
   62.2890   32.0570   48.7320 C   0  0  0  0  0  0  0  0  0  0  0  0
   61.3800   30.9660   48.3350 C   0  0  0  0  0  0  0  0  0  0  0  0
   61.6087   29.9546   48.7021 H   0  0  0  0  0  0  0  0  0  0  0  0
   60.2940   31.1140   47.5590 C   0  0  0  0  0  0  0  0  0  0  0  0
   59.7420   32.3270   47.1710 C   0  0  0  0  0  0  0  0  0  0  0  0
   60.1217   33.3171   47.4634 H   0  0  0  0  0  0  0  0  0  0  0  0
   58.6680   32.1090   46.3800 N   0  0  0  0  0  0  0  0  0  0  0  0
   58.5060   30.8030   46.2600 N   0  0  0  0  0  0  0  0  0  0  0  0
   57.5400   30.0920   45.5960 C   0  0  0  0  0  0  0  0  0  0  0  0
   56.5940   30.5970   44.8400 N   0  0  0  0  0  0  0  0  0  0  0  0
   55.9060   30.4120   43.5460 C   0  0  0  0  0  0  0  0  0  0  0  0
   54.9197   30.6435   43.9745 H   0  0  0  0  0  0  0  0  0  0  0  0
   56.4320   29.3410   42.6170 C   0  0  0  0  0  0  0  0  0  0  0  0
   57.2840   28.7157   42.9221 H   0  0  0  0  0  0  0  0  0  0  0  0
   55.9944   28.4820   42.0873 H   0  0  0  0  0  0  0  0  0  0  0  0
   56.6440   30.8310   42.2960 C   0  0  0  0  0  0  0  0  0  0  0  0
   57.6482   31.2738   42.3707 H   0  0  0  0  0  0  0  0  0  0  0  0
   56.4217   31.4849   41.4398 H   0  0  0  0  0  0  0  0  0  0  0  0
   57.5670   28.7360   45.7260 N   0  0  0  0  0  0  0  0  0  0  0  0
   58.5020   28.1050   46.4910 C   0  0  0  0  0  0  0  0  0  0  0  0
   58.4600   26.8100   46.5990 N   0  0  0  0  0  0  0  0  0  0  0  0
   57.3800   26.0450   47.2190 C   0  0  0  0  0  0  0  0  0  0  0  0
   57.7750   25.4872   48.0809 H   0  0  0  0  0  0  0  0  0  0  0  0
   56.5916   26.7344   47.5553 H   0  0  0  0  0  0  0  0  0  0  0  0
   56.8020   25.0750   46.2150 C   0  0  0  0  0  0  0  0  0  0  0  0
   55.5360   25.2960   45.6360 C   0  0  0  0  0  0  0  0  0  0  0  0
   54.7700   26.3970   45.9940 O   0  0  0  0  0  0  0  0  0  0  0  0
   55.0310   24.4010   44.6860 C   0  0  0  0  0  0  0  0  0  0  0  0
   54.0389   24.5740   44.2434 H   0  0  0  0  0  0  0  0  0  0  0  0
   55.7810   23.2900   44.2980 C   0  0  0  0  0  0  0  0  0  0  0  0
   55.3786   22.5882   43.5527 H   0  0  0  0  0  0  0  0  0  0  0  0
   57.0410   23.0690   44.8550 C   0  0  0  0  0  0  0  0  0  0  0  0
   57.6310   22.1935   44.5460 H   0  0  0  0  0  0  0  0  0  0  0  0
   57.5560   23.9560   45.8040 C   0  0  0  0  0  0  0  0  0  0  0  0
   58.8220   23.7220   46.3340 O   0  0  0  0  0  0  0  0  0  0  0  0
   59.4600   28.8350   47.1290 N   0  0  0  0  0  0  0  0  0  0  0  0
   59.4580   30.1790   46.9740 C   0  0  0  0  0  0  0  0  0  0  0  0
  1  2  1  0
  2  3  1  0
  3  4  1  0
  4  5  1  0
  5  6  2  0
  5  7  1  0
  7  8  1  0
  8  9  1  0
  9 10  1  0
  9 11  2  0
 11 12  1  0
 12 13  1  0
 12 14  2  0
 14 15  1  0
 15 16  1  0
 16 17  2  0
 17 18  1  0
 18 19  1  0
 18 20  1  0
 20 21  1  0
 20 22  1  0
 20 23  1  0
 23 24  1  0
 23 25  1  0
 16 26  1  0
 26 27  1  0
 27 28  2  3
 28 29  1  0
 29 30  1  0
 29 31  1  0
 29 32  1  0
 32 33  2  0
 33 34  1  0
 33 35  1  0
 35 36  1  0
 35 37  2  0
 37 38  1  0
 37 39  1  0
 39 40  1  0
 39 41  2  0
 41 42  1  0
 27 43  1  0
 43 44  2  0
  8  3  2  0
 44 11  1  0
 44 15  1  0
 23 18  1  0
 41 32  1  0
M  CHG  5   4  -1   7  -1  26  -1  34  -1  42  -1
M  END
>  <UniqueID>  (20) 
18

>  <SMILES>  (20) 
O=c1[n-]c(O)c(/C=c2/cnn3/c(=N\C4CC4)[n-]c(=NCc4c([O-])cccc4[O-])nc23)[n-]1

>  <Energy>  (20) 
413.5724283118549

>  <Genealogy>  (20) 
O=c1[n-]c(O)c(C=c2cnn3c(=NC4CC4)[n-]c(=NCc4c([O-])cccc4[O-])nc23)[n-]1 (protonated)
O=c1[n-]c(O)c(/C=c2/cnn3/c(=N\C4CC4)[n-]c(=NCc4c([O-])cccc4[O-])nc23)[n-]1 (cis-trans isomerization)
O=c1[n-]c(O)c(/C=c2/cnn3/c(=N\C4CC4)[n-]c(=NCc4c([O-])cccc4[O-])nc23)[n-]1 (3D coordinates assigned)
O=c1[n-]c(O)c(/C=c2/cnn3/c(=N\C4CC4)[n-]c(=NCc4c([O-])cccc4[O-])nc23)[n-]1 (nonaromatic ring conformer: 413.5724283118549 kcal/mol)

>  <smiles>  (20) 
O=c1[nH]c(O)c(C=c2cnn3c(=NC4CC4)[nH]c(=NCc4c(O)cccc4O)nc23)[nH]1

>  <score_type>  (20) 
oracle

>  <origin>  (20) 
adg

>  <m_score__min__energy>  (20) 
-15.779999999999999

>  <m_primary>  (20) 
energy

$$$$
20:0
     RDKit          3D

 42 45  0  0  1  0  0  0  0  0999 V2000
   62.4360   33.8800   50.1400 C   0  0  0  0  0  0  0  0  0  0  0  0
   61.9380   33.8910   48.7490 C   0  0  0  0  0  0  0  0  0  0  0  0
   62.8340   33.7700   47.7240 C   0  0  0  0  0  0  0  0  0  0  0  0
   62.3690   33.7800   46.4190 C   0  0  0  0  0  0  0  0  0  0  0  0
   61.0340   33.9120   46.2440 N   0  0  0  0  0  0  0  0  0  0  0  0
   60.1690   34.0280   47.2660 C   0  0  0  0  0  0  0  0  0  0  0  0
   58.8950   34.1550   47.1160 N   0  0  0  0  0  0  0  0  0  0  0  0
   58.1840   33.5840   45.6650 S   0  0  0  0  0  0  0  0  0  0  0  0
   56.7960   34.1940   45.5890 O   0  0  0  0  0  0  0  0  0  0  0  0
   58.9020   34.0300   44.4250 O   0  0  0  0  0  0  0  0  0  0  0  0
   58.0790   31.8420   45.6250 C   0  0  0  0  0  0  0  0  0  0  0  0
   57.3800   31.1610   44.6540 C   0  0  0  0  0  0  0  0  0  0  0  0
   57.3160   29.7640   44.6510 C   0  0  0  0  0  0  0  0  0  0  0  0
   57.9470   29.0020   45.6130 C   0  0  0  0  0  0  0  0  0  0  0  0
   57.8880   27.5790   45.6190 N   0  0  0  0  0  0  0  0  0  0  0  0
   56.7300   26.7550   45.6280 C   0  0  0  0  0  0  0  0  0  0  0  0
   55.5210   27.0850   45.6330 O   0  0  0  0  0  0  0  0  0  0  0  0
   57.1260   25.3320   45.6300 C   0  0  0  0  0  0  0  0  0  0  0  0
   56.3990   24.1520   45.6380 C   0  0  0  0  0  0  0  0  0  0  0  0
   57.0110   22.9160   45.6390 C   0  0  0  0  0  0  0  0  0  0  0  0
   58.4070   22.8960   45.6310 C   0  0  0  0  0  0  0  0  0  0  0  0
   59.1550   24.0560   45.6230 C   0  0  0  0  0  0  0  0  0  0  0  0
   58.5020   25.2870   45.6220 C   0  0  0  0  0  0  0  0  0  0  0  0
   58.9910   26.6830   45.6160 C   0  0  0  0  0  0  0  0  0  0  0  0
   60.2270   26.9220   45.6070 O   0  0  0  0  0  0  0  0  0  0  0  0
   58.6460   29.6910   46.5840 C   0  0  0  0  0  0  0  0  0  0  0  0
   58.7120   31.0920   46.5910 C   0  0  0  0  0  0  0  0  0  0  0  0
   60.6060   34.0210   48.5600 N   0  0  0  0  0  0  0  0  0  0  0  0
   61.5835   33.8988   50.8348 H   0  0  0  0  0  0  0  0  0  0  0  0
   63.0278   32.9686   50.3104 H   0  0  0  0  0  0  0  0  0  0  0  0
   63.0675   34.7644   50.3104 H   0  0  0  0  0  0  0  0  0  0  0  0
   63.9091   33.6662   47.9323 H   0  0  0  0  0  0  0  0  0  0  0  0
   63.0543   33.6849   45.5638 H   0  0  0  0  0  0  0  0  0  0  0  0
   60.6790   33.9200   45.2630 H   0  0  0  0  0  0  0  0  0  0  0  0
   56.8619   31.7265   43.8654 H   0  0  0  0  0  0  0  0  0  0  0  0
   56.7458   29.2576   43.8583 H   0  0  0  0  0  0  0  0  0  0  0  0
   55.3002   24.2028   45.6437 H   0  0  0  0  0  0  0  0  0  0  0  0
   56.4242   21.9856   45.6458 H   0  0  0  0  0  0  0  0  0  0  0  0
   58.9265   21.9264   45.6311 H   0  0  0  0  0  0  0  0  0  0  0  0
   60.2540   24.0092   45.6175 H   0  0  0  0  0  0  0  0  0  0  0  0
   59.1647   29.1264   47.3728 H   0  0  0  0  0  0  0  0  0  0  0  0
   59.2802   31.6014   47.3832 H   0  0  0  0  0  0  0  0  0  0  0  0
  1  2  1  0
  2  3  1  0
  3  4  2  0
  4  5  1  0
  5  6  1  0
  6  7  2  0
  7  8  1  0
  8  9  2  0
  8 10  2  0
  8 11  1  0
 11 12  2  0
 12 13  1  0
 13 14  2  0
 14 15  1  0
 15 16  1  0
 16 17  2  0
 16 18  1  0
 18 19  2  0
 19 20  1  0
 20 21  2  0
 21 22  1  0
 22 23  2  0
 23 24  1  0
 24 25  2  0
 14 26  1  0
 26 27  2  0
  6 28  1  0
 28  2  2  0
 27 11  1  0
 24 15  1  0
 23 18  1  0
  1 29  1  0
  1 30  1  0
  1 31  1  0
  3 32  1  0
  4 33  1  0
  5 34  1  0
 12 35  1  0
 13 36  1  0
 19 37  1  0
 20 38  1  0
 21 39  1  0
 22 40  1  0
 26 41  1  0
 27 42  1  0
M  END
>  <smiles>  (21) 
Cc1cc[nH]c(=NS(=O)(=O)c2ccc(N3C(=O)c4ccccc4C3=O)cc2)n1

>  <score_type>  (21) 
oracle

>  <origin>  (21) 
adg

>  <m_score__min__energy>  (21) 
-8.8000000000000007

>  <m_primary>  (21) 
energy

$$$$
21:0
     RDKit          3D

 47 50  0  0  0  0  0  0  0  0999 V2000
   57.9670   32.0870   51.2350 O   0  0  0  0  0  0  0  0  0  0  0  0
   58.9520   32.1890   50.4580 C   0  0  0  0  0  0  0  0  0  0  0  0
   59.4660   33.5710   50.1180 C   0  0  0  0  0  0  0  0  0  0  0  0
   59.8560   33.7080   48.6510 C   0  0  0  0  0  0  0  0  0  0  0  0
   58.8290   33.9910   47.7290 C   0  0  0  0  0  0  0  0  0  0  0  0
   59.1150   34.2550   46.3920 C   0  0  0  0  0  0  0  0  0  0  0  0
   60.4270   34.2250   45.9370 C   0  0  0  0  0  0  0  0  0  0  0  0
   61.4710   33.8860   46.8070 C   0  0  0  0  0  0  0  0  0  0  0  0
   62.7870   33.8360   46.3240 C   0  0  0  0  0  0  0  0  0  0  0  0
   63.8330   33.4640   47.1650 C   0  0  0  0  0  0  0  0  0  0  0  0
   63.5750   33.1220   48.4900 C   0  0  0  0  0  0  0  0  0  0  0  0
   62.2720   33.1730   48.9920 C   0  0  0  0  0  0  0  0  0  0  0  0
   61.1960   33.5850   48.1720 C   0  0  0  0  0  0  0  0  0  0  0  0
   59.5550   30.9880   49.9510 N   0  0  0  0  0  0  0  0  0  0  0  0
   59.6660   30.6080   48.5740 C   0  0  0  0  0  0  0  0  0  0  0  0
   60.9370   30.4350   48.0190 C   0  0  0  0  0  0  0  0  0  0  0  0
   61.0770   30.1080   46.6700 C   0  0  0  0  0  0  0  0  0  0  0  0
   59.9450   29.9380   45.8670 C   0  0  0  0  0  0  0  0  0  0  0  0
   58.6570   30.0760   46.4150 C   0  0  0  0  0  0  0  0  0  0  0  0
   57.4570   29.9150   45.5630 C   0  0  0  0  0  0  0  0  0  0  0  0
   57.1170   30.8400   44.7760 O   0  0  0  0  0  0  0  0  0  0  0  0
   56.6430   28.7400   45.6880 N   0  0  0  0  0  0  0  0  0  0  0  0
   57.1000   27.3850   45.7990 C   0  0  0  0  0  0  0  0  0  0  0  0
   58.4710   27.0590   45.8040 C   0  0  0  0  0  0  0  0  0  0  0  0
   58.8770   25.7270   45.9300 C   0  0  0  0  0  0  0  0  0  0  0  0
   57.9270   24.7130   46.0680 C   0  0  0  0  0  0  0  0  0  0  0  0
   56.5660   25.0310   46.0910 C   0  0  0  0  0  0  0  0  0  0  0  0
   56.1520   26.3610   45.9640 C   0  0  0  0  0  0  0  0  0  0  0  0
   54.7960   26.6630   45.9940 O   0  0  0  0  0  0  0  0  0  0  0  0
   58.5280   30.3920   47.7810 C   0  0  0  0  0  0  0  0  0  0  0  0
   58.6781   34.3049   50.3429 H   0  0  0  0  0  0  0  0  0  0  0  0
   60.3694   33.7474   50.7203 H   0  0  0  0  0  0  0  0  0  0  0  0
   57.7836   34.0036   48.0710 H   0  0  0  0  0  0  0  0  0  0  0  0
   58.2983   34.4883   45.6931 H   0  0  0  0  0  0  0  0  0  0  0  0
   60.6474   34.4689   44.8873 H   0  0  0  0  0  0  0  0  0  0  0  0
   62.9941   34.0922   45.2745 H   0  0  0  0  0  0  0  0  0  0  0  0
   64.8640   33.4403   46.7822 H   0  0  0  0  0  0  0  0  0  0  0  0
   64.4017   32.8099   49.1452 H   0  0  0  0  0  0  0  0  0  0  0  0
   62.0809   32.8893   50.0375 H   0  0  0  0  0  0  0  0  0  0  0  0
   61.8307   30.5572   48.6485 H   0  0  0  0  0  0  0  0  0  0  0  0
   62.0805   29.9836   46.2370 H   0  0  0  0  0  0  0  0  0  0  0  0
   60.0624   29.6950   44.8006 H   0  0  0  0  0  0  0  0  0  0  0  0
   59.2242   27.8550   45.7085 H   0  0  0  0  0  0  0  0  0  0  0  0
   59.9482   25.4771   45.9204 H   0  0  0  0  0  0  0  0  0  0  0  0
   58.2492   23.6652   46.1585 H   0  0  0  0  0  0  0  0  0  0  0  0
   55.8183   24.2329   46.2093 H   0  0  0  0  0  0  0  0  0  0  0  0
   57.5271   30.4703   48.2305 H   0  0  0  0  0  0  0  0  0  0  0  0
  1  2  2  0
  2  3  1  0
  3  4  1  0
  4  5  2  0
  5  6  1  0
  6  7  2  0
  7  8  1  0
  8  9  2  0
  9 10  1  0
 10 11  2  0
 11 12  1  0
 12 13  2  0
  2 14  1  0
 14 15  1  0
 15 16  2  0
 16 17  1  0
 17 18  2  0
 18 19  1  0
 19 20  1  0
 20 21  2  0
 20 22  1  0
 22 23  1  0
 23 24  2  0
 24 25  1  0
 25 26  2  0
 26 27  1  0
 27 28  2  0
 28 29  1  0
 19 30  2  0
 13  4  1  0
 30 15  1  0
 13  8  1  0
 28 23  1  0
  3 31  1  0
  3 32  1  0
  5 33  1  0
  6 34  1  0
  7 35  1  0
  9 36  1  0
 10 37  1  0
 11 38  1  0
 12 39  1  0
 16 40  1  0
 17 41  1  0
 18 42  1  0
 24 43  1  0
 25 44  1  0
 26 45  1  0
 27 46  1  0
 30 47  1  0
M  CHG  3  14  -1  22  -1  29  -1
M  END
>  <UniqueID>  (22) 
19

>  <SMILES>  (22) 
O=C(Cc1cccc2ccccc12)[N-]c1cccc(C(=O)[N-]c2ccccc2[O-])c1

>  <Energy>  (22) 
64.90773484179088

>  <Genealogy>  (22) 
O=C(Cc1cccc2ccccc12)[N-]c1cccc(C(=O)[N-]c2ccccc2[O-])c1 (protonated)
O=C(Cc1cccc2ccccc12)[N-]c1cccc(C(=O)[N-]c2ccccc2[O-])c1 (3D coordinates assigned)
O=C(Cc1cccc2ccccc12)[N-]c1cccc(C(=O)[N-]c2ccccc2[O-])c1 (optimized conformer: 64.90773484179088 kcal/mol)

>  <smiles>  (22) 
O=C(Cc1cccc2ccccc12)Nc1cccc(C(=O)Nc2ccccc2O)c1

>  <score_type>  (22) 
oracle

>  <origin>  (22) 
adg

>  <m_score__min__energy>  (22) 
-17.039999999999999

>  <m_primary>  (22) 
energy

$$$$
22:0
     RDKit          3D

 40 42  0  0  0  0  0  0  0  0999 V2000
   56.5710   22.7150   43.0540 C   0  0  0  0  0  0  0  0  0  0  0  0
   56.1290   24.0090   43.7360 C   0  0  0  0  0  0  0  0  0  0  0  0
   55.1940   23.7600   44.9280 C   0  0  0  0  0  0  0  0  0  0  0  0
   55.3740   24.7960   46.0480 C   0  0  0  0  0  0  0  0  0  0  0  0
   56.7620   25.2880   46.0660 N   0  0  0  0  0  0  0  0  0  0  0  0
   57.8150   24.4530   46.3820 C   0  0  0  0  0  0  0  0  0  0  0  0
   57.6110   23.2450   46.6760 O   0  0  0  0  0  0  0  0  0  0  0  0
   59.1020   24.9240   46.3780 N   0  0  0  0  0  0  0  0  0  0  0  0
   59.3900   26.2130   46.0520 C   0  0  0  0  0  0  0  0  0  0  0  0
   60.5820   26.6230   46.0540 O   0  0  0  0  0  0  0  0  0  0  0  0
   58.3400   27.0490   45.7140 C   0  0  0  0  0  0  0  0  0  0  0  0
   58.3040   28.3690   45.3240 C   0  0  0  0  0  0  0  0  0  0  0  0
   56.9540   28.6350   45.0940 C   0  0  0  0  0  0  0  0  0  0  0  0
   56.3910   29.9320   44.6680 C   0  0  0  0  0  0  0  0  0  0  0  0
   55.1510   30.1230   44.7680 O   0  0  0  0  0  0  0  0  0  0  0  0
   57.2200   31.0030   44.1990 N   0  0  0  0  0  0  0  0  0  0  0  0
   57.7360   32.0790   44.9940 C   0  0  0  0  0  0  0  0  0  0  0  0
   58.1330   31.8200   46.3130 C   0  0  0  0  0  0  0  0  0  0  0  0
   58.6250   32.8510   47.1190 C   0  0  0  0  0  0  0  0  0  0  0  0
   58.7090   34.1520   46.6160 C   0  0  0  0  0  0  0  0  0  0  0  0
   58.2930   34.4250   45.3110 C   0  0  0  0  0  0  0  0  0  0  0  0
   57.8000   33.3960   44.5020 C   0  0  0  0  0  0  0  0  0  0  0  0
   56.1950   27.5410   45.3470 N   0  0  0  0  0  0  0  0  0  0  0  0
   57.0600   26.5790   45.7220 C   0  0  0  0  0  0  0  0  0  0  0  0
   56.8267   21.9665   43.8184 H   0  0  0  0  0  0  0  0  0  0  0  0
   55.7523   22.3332   42.4263 H   0  0  0  0  0  0  0  0  0  0  0  0
   57.4522   22.9138   42.4263 H   0  0  0  0  0  0  0  0  0  0  0  0
   57.0225   24.5410   44.0946 H   0  0  0  0  0  0  0  0  0  0  0  0
   55.5728   24.6022   42.9952 H   0  0  0  0  0  0  0  0  0  0  0  0
   54.1534   23.8015   44.5739 H   0  0  0  0  0  0  0  0  0  0  0  0
   55.4422   22.7728   45.3450 H   0  0  0  0  0  0  0  0  0  0  0  0
   54.6911   25.6408   45.8750 H   0  0  0  0  0  0  0  0  0  0  0  0
   55.1478   24.3229   47.0150 H   0  0  0  0  0  0  0  0  0  0  0  0
   59.1524   29.0610   45.2173 H   0  0  0  0  0  0  0  0  0  0  0  0
   58.0570   30.7995   46.7164 H   0  0  0  0  0  0  0  0  0  0  0  0
   58.9460   32.6380   48.1493 H   0  0  0  0  0  0  0  0  0  0  0  0
   59.1029   34.9615   47.2481 H   0  0  0  0  0  0  0  0  0  0  0  0
   58.3532   35.4509   44.9188 H   0  0  0  0  0  0  0  0  0  0  0  0
   57.4615   33.6166   43.4789 H   0  0  0  0  0  0  0  0  0  0  0  0
   55.1580   27.4700   45.2490 H   0  0  0  0  0  0  0  0  0  0  0  0
  1  2  1  0
  2  3  1  0
  3  4  1  0
  4  5  1  0
  5  6  1  0
  6  7  2  0
  6  8  1  0
  8  9  1  0
  9 10  2  0
  9 11  1  0
 11 12  1  0
 12 13  2  0
 13 14  1  0
 14 15  2  0
 14 16  1  0
 16 17  1  0
 17 18  2  0
 18 19  1  0
 19 20  2  0
 20 21  1  0
 21 22  2  0
 13 23  1  0
 23 24  1  0
 24  5  1  0
 24 11  2  0
 22 17  1  0
  1 25  1  0
  1 26  1  0
  1 27  1  0
  2 28  1  0
  2 29  1  0
  3 30  1  0
  3 31  1  0
  4 32  1  0
  4 33  1  0
 12 34  1  0
 18 35  1  0
 19 36  1  0
 20 37  1  0
 21 38  1  0
 22 39  1  0
 23 40  1  0
M  CHG  2   8  -1  16  -1
M  END
>  <UniqueID>  (23) 
20

>  <SMILES>  (23) 
CCCCn1c(=O)[n-]c(=O)c2cc(C(=O)[N-]c3ccccc3)[nH]c21

>  <Energy>  (23) 
78.87545427269363

>  <Genealogy>  (23) 
CCCCn1c(=O)[n-]c(=O)c2cc(C(=O)[N-]c3ccccc3)[nH]c21 (protonated)
CCCCn1c(=O)[n-]c(=O)c2cc(C(=O)[N-]c3ccccc3)[nH]c21 (3D coordinates assigned)
CCCCn1c(=O)[n-]c(=O)c2cc(C(=O)[N-]c3ccccc3)[nH]c21 (optimized conformer: 78.87545427269363 kcal/mol)

>  <smiles>  (23) 
CCCCn1c(=O)[nH]c(=O)c2cc(C(=O)Nc3ccccc3)[nH]c21

>  <score_type>  (23) 
oracle

>  <origin>  (23) 
adg

>  <m_score__min__energy>  (23) 
-10.9

>  <m_primary>  (23) 
energy

$$$$
23:0
     RDKit          3D

 32 33  0  0  0  0  0  0  0  0999 V2000
   56.2270   29.7220   43.0770 C   0  0  0  0  0  0  0  0  0  0  0  0
   55.8550   29.3390   44.5060 C   0  0  0  0  0  0  0  0  0  0  0  0
   57.0650   28.8440   45.2610 C   0  0  0  0  0  0  0  0  0  0  0  0
   58.2040   29.6610   45.3470 C   0  0  0  0  0  0  0  0  0  0  0  0
   59.3280   29.2390   46.0600 C   0  0  0  0  0  0  0  0  0  0  0  0
   59.3200   28.0050   46.7100 C   0  0  0  0  0  0  0  0  0  0  0  0
   58.1890   27.1880   46.6470 C   0  0  0  0  0  0  0  0  0  0  0  0
   57.0590   27.5900   45.9130 C   0  0  0  0  0  0  0  0  0  0  0  0
   55.8790   26.7700   45.8730 N   0  0  0  0  0  0  0  0  0  0  0  0
   55.8390   25.3420   45.9820 C   0  0  0  0  0  0  0  0  0  0  0  0
   55.5320   24.8260   47.0870 O   0  0  0  0  0  0  0  0  0  0  0  0
   56.0850   24.4640   44.8220 C   0  0  0  0  0  0  0  0  0  0  0  0
   55.8470   23.1020   44.7440 C   0  0  0  0  0  0  0  0  0  0  0  0
   56.2860   22.7740   43.4780 C   0  0  0  0  0  0  0  0  0  0  0  0
   56.2540   21.4970   42.9190 O   0  0  0  0  0  0  0  0  0  0  0  0
   56.6380   20.3450   43.6570 C   0  0  0  0  0  0  0  0  0  0  0  0
   56.7460   23.8470   42.8770 O   0  0  0  0  0  0  0  0  0  0  0  0
   56.6410   24.8760   43.6640 N   0  0  0  0  0  0  0  0  0  0  0  0
   56.9933   30.5109   43.0965 H   0  0  0  0  0  0  0  0  0  0  0  0
   56.6222   28.8398   42.5520 H   0  0  0  0  0  0  0  0  0  0  0  0
   55.3337   30.0914   42.5520 H   0  0  0  0  0  0  0  0  0  0  0  0
   55.4448   30.2206   45.0204 H   0  0  0  0  0  0  0  0  0  0  0  0
   55.1071   28.5331   44.4715 H   0  0  0  0  0  0  0  0  0  0  0  0
   58.2108   30.6416   44.8485 H   0  0  0  0  0  0  0  0  0  0  0  0
   60.2204   29.8803   46.1091 H   0  0  0  0  0  0  0  0  0  0  0  0
   60.2055   27.6749   47.2729 H   0  0  0  0  0  0  0  0  0  0  0  0
   58.1821   26.2232   47.1753 H   0  0  0  0  0  0  0  0  0  0  0  0
   55.4123   22.4406   45.5080 H   0  0  0  0  0  0  0  0  0  0  0  0
   56.5668   20.5587   44.7337 H   0  0  0  0  0  0  0  0  0  0  0  0
   55.9702   19.5082   43.4043 H   0  0  0  0  0  0  0  0  0  0  0  0
   57.6743   20.0763   43.4043 H   0  0  0  0  0  0  0  0  0  0  0  0
   56.9430   25.8450   43.4200 H   0  0  0  0  0  0  0  0  0  0  0  0
  1  2  1  0
  2  3  1  0
  3  4  2  0
  4  5  1  0
  5  6  2  0
  6  7  1  0
  7  8  2  0
  8  9  1  0
  9 10  1  0
 10 11  2  0
 10 12  1  0
 12 13  1  0
 13 14  2  0
 14 15  1  0
 15 16  1  0
 14 17  1  0
 17 18  1  0
  8  3  1  0
 18 12  2  0
  1 19  1  0
  1 20  1  0
  1 21  1  0
  2 22  1  0
  2 23  1  0
  4 24  1  0
  5 25  1  0
  6 26  1  0
  7 27  1  0
 13 28  1  0
 16 29  1  0
 16 30  1  0
 16 31  1  0
 18 32  1  0
M  CHG  2   9  -1  18   1
M  END
>  <UniqueID>  (24) 
21

>  <SMILES>  (24) 
CCc1ccccc1[N-]C(=O)c1cc(OC)o[nH+]1

>  <Energy>  (24) 
63.528269784003506

>  <Genealogy>  (24) 
CCc1ccccc1[N-]C(=O)c1cc(OC)o[nH+]1 (protonated)
CCc1ccccc1[N-]C(=O)c1cc(OC)o[nH+]1 (3D coordinates assigned)
CCc1ccccc1[N-]C(=O)c1cc(OC)o[nH+]1 (optimized conformer: 63.528269784003506 kcal/mol)

>  <smiles>  (24) 
CCc1ccccc1NC(=O)c1cc(OC)on1

>  <score_type>  (24) 
oracle

>  <origin>  (24) 
adg

>  <m_score__min__energy>  (24) 
-6.9900000000000002

>  <m_primary>  (24) 
energy

$$$$
24:0
     RDKit          3D

 26 27  0  0  0  0  0  0  0  0999 V2000
   55.1440   26.5440   45.9730 N   0  0  0  0  0  0  0  0  0  0  0  0
   56.8330   26.9050   45.9470 S   0  0  0  0  0  0  0  0  0  0  0  0
   57.5290   25.9740   44.9950 O   0  0  0  0  0  0  0  0  0  0  0  0
   57.4100   26.7090   47.3210 O   0  0  0  0  0  0  0  0  0  0  0  0
   57.0700   28.5720   45.4330 C   0  0  0  0  0  0  0  0  0  0  0  0
   58.0960   29.3430   45.9950 C   0  0  0  0  0  0  0  0  0  0  0  0
   58.2790   30.6700   45.5950 C   0  0  0  0  0  0  0  0  0  0  0  0
   57.4460   31.2380   44.6240 C   0  0  0  0  0  0  0  0  0  0  0  0
   57.6500   32.6070   44.2500 N   0  0  0  0  0  0  0  0  0  0  0  0
   57.5600   33.7420   45.1220 C   0  0  0  0  0  0  0  0  0  0  0  0
   56.6550   34.5940   44.9170 O   0  0  0  0  0  0  0  0  0  0  0  0
   58.4540   33.9100   46.2810 C   0  0  0  0  0  0  0  0  0  0  0  0
   59.6210   34.6690   46.3300 C   0  0  0  0  0  0  0  0  0  0  0  0
   60.2750   34.6000   47.5660 C   0  0  0  0  0  0  0  0  0  0  0  0
   59.6390   33.7810   48.4900 C   0  0  0  0  0  0  0  0  0  0  0  0
   58.2630   33.1420   47.7660 S   0  0  0  0  0  0  0  0  0  0  0  0
   56.3960   30.4740   44.0850 C   0  0  0  0  0  0  0  0  0  0  0  0
   56.2140   29.1470   44.4840 C   0  0  0  0  0  0  0  0  0  0  0  0
   54.7270   27.0920   46.7590 H   0  0  0  0  0  0  0  0  0  0  0  0
   58.7598   28.9027   46.7536 H   0  0  0  0  0  0  0  0  0  0  0  0
   59.0822   31.2712   46.0459 H   0  0  0  0  0  0  0  0  0  0  0  0
   59.9918   35.2634   45.4820 H   0  0  0  0  0  0  0  0  0  0  0  0
   61.2058   35.1438   47.7849 H   0  0  0  0  0  0  0  0  0  0  0  0
   59.9773   33.5844   49.5181 H   0  0  0  0  0  0  0  0  0  0  0  0
   55.7152   30.9224   43.3465 H   0  0  0  0  0  0  0  0  0  0  0  0
   55.3961   28.5519   44.0517 H   0  0  0  0  0  0  0  0  0  0  0  0
  1  2  1  0
  2  3  2  0
  2  4  2  0
  2  5  1  0
  5  6  2  0
  6  7  1  0
  7  8  2  0
  8  9  1  0
  9 10  1  0
 10 11  2  0
 10 12  1  0
 12 13  2  0
 13 14  1  0
 14 15  2  0
 15 16  1  0
  8 17  1  0
 17 18  2  0
 18  5  1  0
 16 12  1  0
  1 19  1  0
  6 20  1  0
  7 21  1  0
 13 22  1  0
 14 23  1  0
 15 24  1  0
 17 25  1  0
 18 26  1  0
M  CHG  2   1  -1   9  -1
M  END
>  <UniqueID>  (25) 
22

>  <SMILES>  (25) 
[NH-]S(=O)(=O)c1ccc([N-]C(=O)c2cccs2)cc1

>  <Energy>  (25) 
57.38230189054123

>  <Genealogy>  (25) 
[NH-]S(=O)(=O)c1ccc([N-]C(=O)c2cccs2)cc1 (protonated)
[NH-]S(=O)(=O)c1ccc([N-]C(=O)c2cccs2)cc1 (3D coordinates assigned)
[NH-]S(=O)(=O)c1ccc([N-]C(=O)c2cccs2)cc1 (optimized conformer: 57.38230189054123 kcal/mol)

>  <smiles>  (25) 
NS(=O)(=O)c1ccc(NC(=O)c2cccs2)cc1

>  <score_type>  (25) 
oracle

>  <origin>  (25) 
adg

>  <m_score__min__energy>  (25) 
-10.74

>  <m_primary>  (25) 
energy

$$$$
25:0
     RDKit          3D

 51 53  0  0  0  0  0  0  0  0999 V2000
   52.8600   24.3300   45.2920 C   0  0  0  0  0  0  0  0  0  0  0  0
   54.2370   24.8510   45.5430 C   0  0  0  0  0  0  0  0  0  0  0  0
   54.5000   26.0950   45.9850 N   0  0  0  0  0  0  0  0  0  0  0  0
   55.7930   26.1980   46.0850 O   0  0  0  0  0  0  0  0  0  0  0  0
   56.3890   25.0830   45.7310 C   0  0  0  0  0  0  0  0  0  0  0  0
   57.6850   24.9560   45.7580 N   0  0  0  0  0  0  0  0  0  0  0  0
   58.8460   25.9990   46.5160 S   0  0  0  0  0  0  0  0  0  0  0  0
   58.7480   25.8520   48.0090 O   0  0  0  0  0  0  0  0  0  0  0  0
   60.2210   25.5800   46.0820 O   0  0  0  0  0  0  0  0  0  0  0  0
   58.5940   27.6700   46.0230 C   0  0  0  0  0  0  0  0  0  0  0  0
   58.7550   28.7100   46.9470 C   0  0  0  0  0  0  0  0  0  0  0  0
   58.5380   30.0360   46.5600 C   0  0  0  0  0  0  0  0  0  0  0  0
   58.1480   30.3360   45.2410 C   0  0  0  0  0  0  0  0  0  0  0  0
   57.9320   31.6920   44.8130 N   0  0  0  0  0  0  0  0  0  0  0  0
   57.7030   32.7910   45.7030 C   0  0  0  0  0  0  0  0  0  0  0  0
   57.4360   32.5880   46.9200 O   0  0  0  0  0  0  0  0  0  0  0  0
   57.7310   34.1250   45.1880 N   0  0  0  0  0  0  0  0  0  0  0  0
   58.9180   34.9740   45.2080 C   0  0  0  0  0  0  0  0  0  0  0  0
   59.8560   34.5420   46.3010 C   0  0  0  0  0  0  0  0  0  0  0  0
   61.0520   33.8870   45.9810 C   0  0  0  0  0  0  0  0  0  0  0  0
   61.9220   33.4710   46.9910 C   0  0  0  0  0  0  0  0  0  0  0  0
   61.6180   33.7020   48.3490 C   0  0  0  0  0  0  0  0  0  0  0  0
   62.5280   33.2780   49.3990 N   0  0  0  0  0  0  0  0  0  0  0  0
   63.0760   31.9160   49.4070 C   0  0  0  0  0  0  0  0  0  0  0  0
   62.9150   34.2040   50.4710 C   0  0  0  0  0  0  0  0  0  0  0  0
   60.4080   34.3570   48.6590 C   0  0  0  0  0  0  0  0  0  0  0  0
   59.5370   34.7680   47.6460 C   0  0  0  0  0  0  0  0  0  0  0  0
   58.0270   29.2930   44.3120 C   0  0  0  0  0  0  0  0  0  0  0  0
   58.2440   27.9680   44.7000 C   0  0  0  0  0  0  0  0  0  0  0  0
   55.4180   24.1560   45.3620 C   0  0  0  0  0  0  0  0  0  0  0  0
   55.5410   22.5020   44.7810 Cl  0  0  0  0  0  0  0  0  0  0  0  0
   52.3589   24.1404   46.2527 H   0  0  0  0  0  0  0  0  0  0  0  0
   52.2856   25.0730   44.7192 H   0  0  0  0  0  0  0  0  0  0  0  0
   52.9213   23.3929   44.7192 H   0  0  0  0  0  0  0  0  0  0  0  0
   59.0533   28.4829   47.9811 H   0  0  0  0  0  0  0  0  0  0  0  0
   58.6726   30.8483   47.2894 H   0  0  0  0  0  0  0  0  0  0  0  0
   57.8680   31.8810   43.7880 H   0  0  0  0  0  0  0  0  0  0  0  0
   59.4328   34.8995   44.2387 H   0  0  0  0  0  0  0  0  0  0  0  0
   58.6091   36.0132   45.3943 H   0  0  0  0  0  0  0  0  0  0  0  0
   61.3075   33.6991   44.9277 H   0  0  0  0  0  0  0  0  0  0  0  0
   62.8568   32.9563   46.7241 H   0  0  0  0  0  0  0  0  0  0  0  0
   63.2108   31.5811   50.4461 H   0  0  0  0  0  0  0  0  0  0  0  0
   62.3807   31.2380   48.8905 H   0  0  0  0  0  0  0  0  0  0  0  0
   64.0471   31.9085   48.8905 H   0  0  0  0  0  0  0  0  0  0  0  0
   62.7197   33.7367   51.4475 H   0  0  0  0  0  0  0  0  0  0  0  0
   63.9863   34.4382   50.3843 H   0  0  0  0  0  0  0  0  0  0  0  0
   62.3289   35.1308   50.3843 H   0  0  0  0  0  0  0  0  0  0  0  0
   60.1466   34.5467   49.7105 H   0  0  0  0  0  0  0  0  0  0  0  0
   58.5948   35.2723   47.9068 H   0  0  0  0  0  0  0  0  0  0  0  0
   57.7591   29.5193   43.2694 H   0  0  0  0  0  0  0  0  0  0  0  0
   58.1396   27.1569   43.9643 H   0  0  0  0  0  0  0  0  0  0  0  0
  1  2  1  0
  2  3  1  0
  3  4  1  0
  4  5  1  0
  5  6  2  3
  6  7  1  0
  7  8  2  0
  7  9  2  0
  7 10  1  0
 10 11  2  0
 11 12  1  0
 12 13  2  0
 13 14  1  0
 14 15  1  0
 15 16  2  0
 15 17  1  0
 17 18  1  0
 18 19  1  0
 19 20  2  0
 20 21  1  0
 21 22  2  0
 22 23  1  0
 23 24  1  0
 23 25  1  0
 22 26  1  0
 26 27  2  0
 13 28  1  0
 28 29  2  0
  5 30  1  0
 30 31  1  0
 30  2  2  0
 29 10  1  0
 27 19  1  0
  1 32  1  0
  1 33  1  0
  1 34  1  0
 11 35  1  0
 12 36  1  0
 14 37  1  0
 18 38  1  0
 18 39  1  0
 20 40  1  0
 21 41  1  0
 24 42  1  0
 24 43  1  0
 24 44  1  0
 25 45  1  0
 25 46  1  0
 25 47  1  0
 26 48  1  0
 27 49  1  0
 28 50  1  0
 29 51  1  0
M  CHG  2   3  -1  17  -1
M  END
>  <UniqueID>  (26) 
23

>  <SMILES>  (26) 
Cc1[n-]oc(=NS(=O)(=O)c2ccc(NC(=O)[N-]Cc3ccc(N(C)C)cc3)cc2)c1Cl

>  <Energy>  (26) 
93.5494563335531

>  <Genealogy>  (26) 
Cc1[n-]oc(=NS(=O)(=O)c2ccc(NC(=O)[N-]Cc3ccc(N(C)C)cc3)cc2)c1Cl (protonated)
Cc1[n-]oc(=NS(=O)(=O)c2ccc(NC(=O)[N-]Cc3ccc(N(C)C)cc3)cc2)c1Cl (3D coordinates assigned)
Cc1[n-]oc(=NS(=O)(=O)c2ccc(NC(=O)[N-]Cc3ccc(N(C)C)cc3)cc2)c1Cl (optimized conformer: 93.5494563335531 kcal/mol)

>  <smiles>  (26) 
Cc1[nH]oc(=NS(=O)(=O)c2ccc(NC(=O)NCc3ccc(N(C)C)cc3)cc2)c1Cl

>  <score_type>  (26) 
oracle

>  <origin>  (26) 
adg

>  <m_score__min__energy>  (26) 
-12.75

>  <m_primary>  (26) 
energy

$$$$
26:0
     RDKit          3D

 90 94  0  0  0  0  0  0  0  0999 V2000
   55.7260   22.9500   48.0180 C   0  0  0  0  0  0  0  0  0  0  0  0
   54.4730   22.5320   48.7790 C   0  0  0  0  0  0  0  0  0  0  0  0
   53.3510   22.6870   47.9280 O   0  0  0  0  0  0  0  0  0  0  0  0
   52.9640   21.4550   47.3500 C   0  0  0  0  0  0  0  0  0  0  0  0
   51.6760   21.6400   46.5480 C   0  0  0  0  0  0  0  0  0  0  0  0
   51.9790   22.2590   45.2640 N   0  0  0  0  0  0  0  0  0  0  0  0
   52.4410   23.6040   45.1080 C   0  0  0  0  0  0  0  0  0  0  0  0
   51.6090   24.5500   45.0020 O   0  0  0  0  0  0  0  0  0  0  0  0
   53.8910   23.8870   45.0710 C   0  0  0  0  0  0  0  0  0  0  0  0
   54.7840   22.9800   44.4830 C   0  0  0  0  0  0  0  0  0  0  0  0
   56.1490   23.2670   44.4220 C   0  0  0  0  0  0  0  0  0  0  0  0
   56.6510   24.4780   44.9280 C   0  0  0  0  0  0  0  0  0  0  0  0
   58.1130   24.7890   44.7460 C   0  0  0  0  0  0  0  0  0  0  0  0
   55.7630   25.3770   45.5660 C   0  0  0  0  0  0  0  0  0  0  0  0
   56.1680   26.6770   46.0030 N   0  0  0  0  0  0  0  0  0  0  0  0
   57.3890   27.0340   46.6510 C   0  0  0  0  0  0  0  0  0  0  0  0
   57.5650   26.8230   47.8840 O   0  0  0  0  0  0  0  0  0  0  0  0
   58.4190   27.7030   45.8560 C   0  0  0  0  0  0  0  0  0  0  0  0
   59.7690   27.4050   46.0630 C   0  0  0  0  0  0  0  0  0  0  0  0
   60.7590   28.2000   45.4790 C   0  0  0  0  0  0  0  0  0  0  0  0
   60.4010   29.3320   44.7410 C   0  0  0  0  0  0  0  0  0  0  0  0
   59.0530   29.6600   44.5550 C   0  0  0  0  0  0  0  0  0  0  0  0
   58.7290   30.8590   43.8390 N   0  0  0  0  0  0  0  0  0  0  0  0
   57.7970   31.9010   44.1780 C   0  0  0  0  0  0  0  0  0  0  0  0
   57.4150   32.6750   43.2590 O   0  0  0  0  0  0  0  0  0  0  0  0
   57.3330   32.1890   45.5840 C   0  0  0  0  0  0  0  0  0  0  0  0
   58.3560   32.9510   46.3850 C   0  0  0  0  0  0  0  0  0  0  0  0
   58.9380   34.1150   45.8590 C   0  0  0  0  0  0  0  0  0  0  0  0
   59.7550   34.9180   46.6580 C   0  0  0  0  0  0  0  0  0  0  0  0
   59.9780   34.5830   47.9930 C   0  0  0  0  0  0  0  0  0  0  0  0
   59.4140   33.4240   48.5330 C   0  0  0  0  0  0  0  0  0  0  0  0
   59.6100   33.1470   49.9240 N   0  0  0  0  0  0  0  0  0  0  0  0
   58.8280   32.2250   50.6860 C   0  0  0  0  0  0  0  0  0  0  0  0
   57.7430   32.6320   51.1890 O   0  0  0  0  0  0  0  0  0  0  0  0
   59.1900   30.7550   50.8120 C   0  0  0  0  0  0  0  0  0  0  0  0
   58.9250   29.9860   49.4920 C   0  0  0  0  0  0  0  0  0  0  0  0
   60.1970   29.6500   48.6930 C   0  0  0  0  0  0  0  0  0  0  0  0
   61.2570   30.6360   48.9390 N   0  0  0  0  0  0  0  0  0  0  0  0
   61.9310   31.2840   47.8320 C   0  0  0  0  0  0  0  0  0  0  0  0
   61.4270   31.2270   46.6780 O   0  0  0  0  0  0  0  0  0  0  0  0
   63.2000   32.0870   48.0490 C   0  0  0  0  0  0  0  0  0  0  0  0
   63.0190   33.4340   48.7580 C   0  0  0  0  0  0  0  0  0  0  0  0
   63.5270   34.1600   47.5210 C   0  0  0  0  0  0  0  0  0  0  0  0
   63.6830   32.8280   46.8000 C   0  0  0  0  0  0  0  0  0  0  0  0
   61.7040   30.8500   50.3250 C   0  0  0  0  0  0  0  0  0  0  0  0
   60.6120   30.4790   51.3420 C   0  0  0  0  0  0  0  0  0  0  0  0
   58.6290   32.5890   47.7140 C   0  0  0  0  0  0  0  0  0  0  0  0
   58.0640   28.7910   45.0480 C   0  0  0  0  0  0  0  0  0  0  0  0
   54.3940   25.0750   45.6200 C   0  0  0  0  0  0  0  0  0  0  0  0
   56.5185   23.2144   48.7336 H   0  0  0  0  0  0  0  0  0  0  0  0
   56.0661   22.1166   47.3856 H   0  0  0  0  0  0  0  0  0  0  0  0
   55.4976   23.8206   47.3856 H   0  0  0  0  0  0  0  0  0  0  0  0
   54.5611   21.4797   49.0872 H   0  0  0  0  0  0  0  0  0  0  0  0
   54.3527   23.1584   49.6752 H   0  0  0  0  0  0  0  0  0  0  0  0
   53.7619   21.0986   46.6819 H   0  0  0  0  0  0  0  0  0  0  0  0
   52.7916   20.7181   48.1483 H   0  0  0  0  0  0  0  0  0  0  0  0
   51.2069   20.6595   46.3791 H   0  0  0  0  0  0  0  0  0  0  0  0
   50.9877   22.2881   47.1104 H   0  0  0  0  0  0  0  0  0  0  0  0
   54.4061   22.0347   44.0664 H   0  0  0  0  0  0  0  0  0  0  0  0
   56.8389   22.5373   43.9730 H   0  0  0  0  0  0  0  0  0  0  0  0
   58.5916   24.8908   45.7312 H   0  0  0  0  0  0  0  0  0  0  0  0
   58.5946   23.9732   44.1869 H   0  0  0  0  0  0  0  0  0  0  0  0
   58.2208   25.7302   44.1869 H   0  0  0  0  0  0  0  0  0  0  0  0
   60.0524   26.5440   46.6861 H   0  0  0  0  0  0  0  0  0  0  0  0
   61.8197   27.9350   45.6000 H   0  0  0  0  0  0  0  0  0  0  0  0
   61.1838   29.9692   44.3036 H   0  0  0  0  0  0  0  0  0  0  0  0
   56.4088   32.7836   45.5355 H   0  0  0  0  0  0  0  0  0  0  0  0
   57.1676   31.2240   46.0853 H   0  0  0  0  0  0  0  0  0  0  0  0
   58.7497   34.3961   44.8123 H   0  0  0  0  0  0  0  0  0  0  0  0
   60.2240   35.8175   46.2328 H   0  0  0  0  0  0  0  0  0  0  0  0
   60.6008   35.2340   48.6241 H   0  0  0  0  0  0  0  0  0  0  0  0
   58.5147   30.3694   51.5900 H   0  0  0  0  0  0  0  0  0  0  0  0
   58.4129   29.0441   49.7380 H   0  0  0  0  0  0  0  0  0  0  0  0
   58.3173   30.6472   48.8567 H   0  0  0  0  0  0  0  0  0  0  0  0
   60.5565   28.6548   48.9934 H   0  0  0  0  0  0  0  0  0  0  0  0
   59.9488   29.6668   47.6215 H   0  0  0  0  0  0  0  0  0  0  0  0
   63.8049   31.2977   48.5192 H   0  0  0  0  0  0  0  0  0  0  0  0
   61.9759   33.6672   49.0178 H   0  0  0  0  0  0  0  0  0  0  0  0
   63.4868   33.6127   49.7374 H   0  0  0  0  0  0  0  0  0  0  0  0
   62.7894   34.8348   47.0622 H   0  0  0  0  0  0  0  0  0  0  0  0
   64.3763   34.8553   47.5941 H   0  0  0  0  0  0  0  0  0  0  0  0
   63.0241   32.7113   45.9270 H   0  0  0  0  0  0  0  0  0  0  0  0
   64.6419   32.5598   46.3324 H   0  0  0  0  0  0  0  0  0  0  0  0
   62.5914   30.2277   50.5128 H   0  0  0  0  0  0  0  0  0  0  0  0
   61.9363   31.9182   50.4478 H   0  0  0  0  0  0  0  0  0  0  0  0
   60.6987   29.4079   51.5771 H   0  0  0  0  0  0  0  0  0  0  0  0
   60.7620   31.1036   52.2349 H   0  0  0  0  0  0  0  0  0  0  0  0
   58.2275   31.6479   48.1179 H   0  0  0  0  0  0  0  0  0  0  0  0
   57.0071   28.9660   44.7983 H   0  0  0  0  0  0  0  0  0  0  0  0
   53.7031   25.7827   46.1015 H   0  0  0  0  0  0  0  0  0  0  0  0
  1  2  1  0
  2  3  1  0
  3  4  1  0
  4  5  1  0
  5  6  1  0
  6  7  1  0
  7  8  2  0
  7  9  1  0
  9 10  2  0
 10 11  1  0
 11 12  2  0
 12 13  1  0
 12 14  1  0
 14 15  1  0
 15 16  1  0
 16 17  2  0
 16 18  1  0
 18 19  2  0
 19 20  1  0
 20 21  2  0
 21 22  1  0
 22 23  1  0
 23 24  1  0
 24 25  2  0
 24 26  1  0
 26 27  1  0
 27 28  2  0
 28 29  1  0
 29 30  2  0
 30 31  1  0
 31 32  1  0
 32 33  1  0
 33 34  2  0
 33 35  1  0
 35 36  1  0
 36 37  1  0
 37 38  1  0
 38 39  1  0
 39 40  2  0
 39 41  1  0
 41 42  1  0
 42 43  1  0
 43 44  1  0
 38 45  1  0
 45 46  1  0
 31 47  2  0
 22 48  2  0
 14 49  2  0
 49  9  1  0
 48 18  1  0
 47 27  1  0
 46 35  1  0
 44 41  1  0
  1 50  1  0
  1 51  1  0
  1 52  1  0
  2 53  1  0
  2 54  1  0
  4 55  1  0
  4 56  1  0
  5 57  1  0
  5 58  1  0
 10 59  1  0
 11 60  1  0
 13 61  1  0
 13 62  1  0
 13 63  1  0
 19 64  1  0
 20 65  1  0
 21 66  1  0
 26 67  1  0
 26 68  1  0
 28 69  1  0
 29 70  1  0
 30 71  1  0
 35 72  1  0
 36 73  1  0
 36 74  1  0
 37 75  1  0
 37 76  1  0
 41 77  1  0
 42 78  1  0
 42 79  1  0
 43 80  1  0
 43 81  1  0
 44 82  1  0
 44 83  1  0
 45 84  1  0
 45 85  1  0
 46 86  1  0
 46 87  1  0
 47 88  1  0
 48 89  1  0
 49 90  1  0
M  CHG  4   6  -1  15  -1  23  -1  32  -1
M  END
>  <UniqueID>  (27) 
24

>  <SMILES>  (27) 
CCOCC[N-]C(=O)c1ccc(C)c([N-]C(=O)c2cccc([N-]C(=O)Cc3cccc([N-]C(=O)C4CCN(C(=O)C5CCC5)CC4)c3)c2)c1

>  <Energy>  (27) 
183.30763159068476

>  <Genealogy>  (27) 
CCOCC[N-]C(=O)c1ccc(C)c([N-]C(=O)c2cccc([N-]C(=O)Cc3cccc([N-]C(=O)C4CCN(C(=O)C5CCC5)CC4)c3)c2)c1 (protonated)
CCOCC[N-]C(=O)c1ccc(C)c([N-]C(=O)c2cccc([N-]C(=O)Cc3cccc([N-]C(=O)C4CCN(C(=O)C5CCC5)CC4)c3)c2)c1 (3D coordinates assigned)
CCOCC[N-]C(=O)c1ccc(C)c([N-]C(=O)c2cccc([N-]C(=O)Cc3cccc([N-]C(=O)C4CCN(C(=O)C5CCC5)CC4)c3)c2)c1 (nonaromatic ring conformer: 183.30763159068476 kcal/mol)

>  <smiles>  (27) 
CCOCCNC(=O)c1ccc(C)c(NC(=O)c2cccc(NC(=O)Cc3cccc(NC(=O)C4CCN(C(=O)C5CCC5)CC4)c3)c2)c1

>  <score_type>  (27) 
oracle

>  <origin>  (27) 
adg

>  <m_score__min__energy>  (27) 
-16.809999999999999

>  <m_primary>  (27) 
energy

$$$$
27:0
     RDKit          3D

 77 82  0  0  0  0  0  0  0  0999 V2000
   61.0200   31.5330   47.1150 C   0  0  0  0  0  0  0  0  0  0  0  0
   62.0080   32.5120   47.5600 N   0  0  0  0  0  0  0  0  0  0  0  0
   63.1860   32.7770   46.9730 C   0  0  0  0  0  0  0  0  0  0  0  0
   63.8160   33.7610   47.7020 C   0  0  0  0  0  0  0  0  0  0  0  0
   63.0400   34.1190   48.7440 N   0  0  0  0  0  0  0  0  0  0  0  0
   61.9440   33.3370   48.6280 C   0  0  0  0  0  0  0  0  0  0  0  0
   60.8000   33.4000   49.6010 C   0  0  0  0  0  0  0  0  0  0  0  0
   61.2860   33.2660   50.9930 N   0  0  0  0  0  0  0  0  0  0  0  0
   60.1690   33.3900   51.9670 C   0  0  0  0  0  0  0  0  0  0  0  0
   60.4530   32.7200   53.3250 C   0  0  0  0  0  0  0  0  0  0  0  0
   60.1650   31.3190   53.2860 O   0  0  0  0  0  0  0  0  0  0  0  0
   60.4530   30.4410   52.2270 C   0  0  0  0  0  0  0  0  0  0  0  0
   59.8250   29.1900   52.2400 C   0  0  0  0  0  0  0  0  0  0  0  0
   59.9960   28.2920   51.1860 C   0  0  0  0  0  0  0  0  0  0  0  0
   60.7990   28.6340   50.0910 C   0  0  0  0  0  0  0  0  0  0  0  0
   61.0110   27.6550   48.9680 C   0  0  0  0  0  0  0  0  0  0  0  0
   59.6760   27.0390   48.5350 C   0  0  0  0  0  0  0  0  0  0  0  0
   59.0050   27.8800   47.4720 C   0  0  0  0  0  0  0  0  0  0  0  0
   58.9270   29.2690   47.6770 C   0  0  0  0  0  0  0  0  0  0  0  0
   58.2620   30.0940   46.7690 C   0  0  0  0  0  0  0  0  0  0  0  0
   57.6560   29.5470   45.6340 C   0  0  0  0  0  0  0  0  0  0  0  0
   56.8060   30.5770   44.4820 S   0  0  0  0  0  0  0  0  0  0  0  0
   55.5130   29.9300   44.0730 O   0  0  0  0  0  0  0  0  0  0  0  0
   57.6510   30.7580   43.2530 O   0  0  0  0  0  0  0  0  0  0  0  0
   56.5240   32.1370   45.1850 N   0  0  0  0  0  0  0  0  0  0  0  0
   57.5620   33.0520   45.5500 C   0  0  0  0  0  0  0  0  0  0  0  0
   58.2420   33.7390   44.5360 C   0  0  0  0  0  0  0  0  0  0  0  0
   59.2490   34.6540   44.8570 C   0  0  0  0  0  0  0  0  0  0  0  0
   59.5680   34.9060   46.1940 C   0  0  0  0  0  0  0  0  0  0  0  0
   58.8830   34.2390   47.2130 C   0  0  0  0  0  0  0  0  0  0  0  0
   57.8760   33.3190   46.8980 C   0  0  0  0  0  0  0  0  0  0  0  0
   57.1800   32.7410   47.9070 F   0  0  0  0  0  0  0  0  0  0  0  0
   57.7130   28.1660   45.4220 C   0  0  0  0  0  0  0  0  0  0  0  0
   58.3760   27.3190   46.3270 C   0  0  0  0  0  0  0  0  0  0  0  0
   58.3490   25.8660   46.0480 C   0  0  0  0  0  0  0  0  0  0  0  0
   59.4230   25.2360   45.8530 O   0  0  0  0  0  0  0  0  0  0  0  0
   57.0850   25.1820   46.0590 N   0  0  0  0  0  0  0  0  0  0  0  0
   56.6490   24.2500   45.2560 C   0  0  0  0  0  0  0  0  0  0  0  0
   55.2830   24.2330   44.9440 C   0  0  0  0  0  0  0  0  0  0  0  0
   54.7800   23.2660   44.0720 C   0  0  0  0  0  0  0  0  0  0  0  0
   55.6120   22.3430   43.5230 N   0  0  0  0  0  0  0  0  0  0  0  0
   56.9430   22.3350   43.7960 C   0  0  0  0  0  0  0  0  0  0  0  0
   57.4910   23.2880   44.6600 C   0  0  0  0  0  0  0  0  0  0  0  0
   61.4670   29.8670   50.0870 C   0  0  0  0  0  0  0  0  0  0  0  0
   61.3100   30.7730   51.1500 C   0  0  0  0  0  0  0  0  0  0  0  0
   62.1180   32.0500   51.1470 C   0  0  0  0  0  0  0  0  0  0  0  0
   60.5475   31.0648   47.9910 H   0  0  0  0  0  0  0  0  0  0  0  0
   60.2520   32.0364   46.5094 H   0  0  0  0  0  0  0  0  0  0  0  0
   61.5163   30.7604   46.5094 H   0  0  0  0  0  0  0  0  0  0  0  0
   63.5795   32.2924   46.0673 H   0  0  0  0  0  0  0  0  0  0  0  0
   64.8021   34.1894   47.4693 H   0  0  0  0  0  0  0  0  0  0  0  0
   60.2850   34.3657   49.4902 H   0  0  0  0  0  0  0  0  0  0  0  0
   60.1092   32.5710   49.3873 H   0  0  0  0  0  0  0  0  0  0  0  0
   59.9771   34.4591   52.1408 H   0  0  0  0  0  0  0  0  0  0  0  0
   59.3023   32.8733   51.5291 H   0  0  0  0  0  0  0  0  0  0  0  0
   61.5142   32.8604   53.5784 H   0  0  0  0  0  0  0  0  0  0  0  0
   59.8059   33.1856   54.0830 H   0  0  0  0  0  0  0  0  0  0  0  0
   59.1882   28.9113   53.0925 H   0  0  0  0  0  0  0  0  0  0  0  0
   59.4981   27.3116   51.2153 H   0  0  0  0  0  0  0  0  0  0  0  0
   61.4631   28.1778   48.1123 H   0  0  0  0  0  0  0  0  0  0  0  0
   61.6774   26.8522   49.3164 H   0  0  0  0  0  0  0  0  0  0  0  0
   59.8592   26.0317   48.1329 H   0  0  0  0  0  0  0  0  0  0  0  0
   59.0134   26.9919   49.4117 H   0  0  0  0  0  0  0  0  0  0  0  0
   59.3976   29.7122   48.5670 H   0  0  0  0  0  0  0  0  0  0  0  0
   58.2144   31.1785   46.9469 H   0  0  0  0  0  0  0  0  0  0  0  0
   57.9824   33.5577   43.4826 H   0  0  0  0  0  0  0  0  0  0  0  0
   59.7914   35.1767   44.0554 H   0  0  0  0  0  0  0  0  0  0  0  0
   60.3581   35.6292   46.4442 H   0  0  0  0  0  0  0  0  0  0  0  0
   59.1356   34.4373   48.2651 H   0  0  0  0  0  0  0  0  0  0  0  0
   57.2309   27.7352   44.5321 H   0  0  0  0  0  0  0  0  0  0  0  0
   54.6079   24.9808   45.3857 H   0  0  0  0  0  0  0  0  0  0  0  0
   53.7073   23.2513   43.8288 H   0  0  0  0  0  0  0  0  0  0  0  0
   57.5921   21.5757   43.3354 H   0  0  0  0  0  0  0  0  0  0  0  0
   58.5701   23.2875   44.8732 H   0  0  0  0  0  0  0  0  0  0  0  0
   62.1214   30.1281   49.2422 H   0  0  0  0  0  0  0  0  0  0  0  0
   62.6660   32.1194   52.0983 H   0  0  0  0  0  0  0  0  0  0  0  0
   62.7962   32.0060   50.2821 H   0  0  0  0  0  0  0  0  0  0  0  0
  1  2  1  0
  2  3  1  0
  3  4  2  0
  4  5  1  0
  5  6  2  0
  6  7  1  0
  7  8  1  0
  8  9  1  0
  9 10  1  0
 10 11  1  0
 11 12  1  0
 12 13  2  0
 13 14  1  0
 14 15  2  0
 15 16  1  0
 16 17  1  0
 17 18  1  0
 18 19  2  0
 19 20  1  0
 20 21  2  0
 21 22  1  0
 22 23  2  0
 22 24  2  0
 22 25  1  0
 25 26  1  0
 26 27  2  0
 27 28  1  0
 28 29  2  0
 29 30  1  0
 30 31  2  0
 31 32  1  0
 21 33  1  0
 33 34  2  0
 34 35  1  0
 35 36  2  0
 35 37  1  0
 37 38  2  3
 38 39  1  0
 39 40  2  0
 40 41  1  0
 41 42  1  0
 42 43  2  0
 15 44  1  0
 44 45  2  0
 45 46  1  0
  6  2  1  0
 46  8  1  0
 45 12  1  0
 34 18  1  0
 43 38  1  0
 31 26  1  0
  1 47  1  0
  1 48  1  0
  1 49  1  0
  3 50  1  0
  4 51  1  0
  7 52  1  0
  7 53  1  0
  9 54  1  0
  9 55  1  0
 10 56  1  0
 10 57  1  0
 13 58  1  0
 14 59  1  0
 16 60  1  0
 16 61  1  0
 17 62  1  0
 17 63  1  0
 19 64  1  0
 20 65  1  0
 27 66  1  0
 28 67  1  0
 29 68  1  0
 30 69  1  0
 33 70  1  0
 39 71  1  0
 40 72  1  0
 42 73  1  0
 43 74  1  0
 44 75  1  0
 46 76  1  0
 46 77  1  0
M  CHG  2  25  -1  41  -1
M  END
>  <UniqueID>  (28) 
25

>  <SMILES>  (28) 
Cn1ccnc1CN1CCOc2ccc(CCc3ccc(S(=O)(=O)[N-]c4ccccc4F)cc3C(=O)N=c3cc[n-]cc3)cc2C1

>  <Energy>  (28) 
144.8535420746173

>  <Genealogy>  (28) 
Cn1ccnc1CN1CCOc2ccc(CCc3ccc(S(=O)(=O)[N-]c4ccccc4F)cc3C(=O)N=c3cc[n-]cc3)cc2C1 (protonated)
Cn1ccnc1CN1CCOc2ccc(CCc3ccc(S(=O)(=O)[N-]c4ccccc4F)cc3C(=O)N=c3cc[n-]cc3)cc2C1 (3D coordinates assigned)
Cn1ccnc1CN1CCOc2ccc(CCc3ccc(S(=O)(=O)[N-]c4ccccc4F)cc3C(=O)N=c3cc[n-]cc3)cc2C1 (nonaromatic ring conformer: 144.8535420746173 kcal/mol)

>  <smiles>  (28) 
Cn1ccnc1CN1CCOc2ccc(CCc3ccc(S(=O)(=O)Nc4ccccc4F)cc3C(=O)N=c3cc[nH]cc3)cc2C1

>  <score_type>  (28) 
oracle

>  <origin>  (28) 
adg

>  <m_score__min__energy>  (28) 
-12.119999999999999

>  <m_primary>  (28) 
energy

$$$$
28:0
     RDKit          3D

 54 57  0  0  0  0  0  0  0  0999 V2000
   60.3790   27.0750   49.3700 C   0  0  0  0  0  0  0  0  0  0  0  0
   59.8720   28.2830   48.6500 C   0  0  0  0  0  0  0  0  0  0  0  0
   59.9900   29.5500   49.2220 C   0  0  0  0  0  0  0  0  0  0  0  0
   59.5330   30.6800   48.5270 C   0  0  0  0  0  0  0  0  0  0  0  0
   59.7050   32.0280   49.1740 C   0  0  0  0  0  0  0  0  0  0  0  0
   58.9150   30.5150   47.2590 C   0  0  0  0  0  0  0  0  0  0  0  0
   58.0940   31.8690   46.4320 S   0  0  0  0  0  0  0  0  0  0  0  0
   57.0420   31.3180   45.5100 O   0  0  0  0  0  0  0  0  0  0  0  0
   57.3970   32.7610   47.4190 O   0  0  0  0  0  0  0  0  0  0  0  0
   59.2670   32.8060   45.5520 N   0  0  0  0  0  0  0  0  0  0  0  0
   59.5090   34.1040   46.1860 C   0  0  0  0  0  0  0  0  0  0  0  0
   60.8010   34.0650   46.9590 C   0  0  0  0  0  0  0  0  0  0  0  0
   61.9550   33.4930   46.4000 C   0  0  0  0  0  0  0  0  0  0  0  0
   63.1330   33.4070   47.1510 C   0  0  0  0  0  0  0  0  0  0  0  0
   63.1660   33.8960   48.4600 C   0  0  0  0  0  0  0  0  0  0  0  0
   62.0260   34.4780   49.0180 C   0  0  0  0  0  0  0  0  0  0  0  0
   60.8490   34.5690   48.2690 C   0  0  0  0  0  0  0  0  0  0  0  0
   58.9180   29.2210   46.6820 C   0  0  0  0  0  0  0  0  0  0  0  0
   58.4070   28.9280   44.9830 S   0  0  0  0  0  0  0  0  0  0  0  0
   57.9480   27.2230   45.2930 C   0  0  0  0  0  0  0  0  0  0  0  0
   58.8110   26.1440   45.2750 C   0  0  0  0  0  0  0  0  0  0  0  0
   58.0400   25.0410   45.5870 C   0  0  0  0  0  0  0  0  0  0  0  0
   58.5450   23.7500   45.7270 O   0  0  0  0  0  0  0  0  0  0  0  0
   56.7470   25.3920   45.7750 N   0  0  0  0  0  0  0  0  0  0  0  0
   55.6340   24.5350   46.0810 C   0  0  0  0  0  0  0  0  0  0  0  0
   55.6570   23.7330   47.2340 C   0  0  0  0  0  0  0  0  0  0  0  0
   54.5690   22.9130   47.5430 C   0  0  0  0  0  0  0  0  0  0  0  0
   53.4480   22.8910   46.7080 C   0  0  0  0  0  0  0  0  0  0  0  0
   52.3930   22.0940   47.0090 F   0  0  0  0  0  0  0  0  0  0  0  0
   53.4140   23.6930   45.5640 C   0  0  0  0  0  0  0  0  0  0  0  0
   54.5010   24.5150   45.2520 C   0  0  0  0  0  0  0  0  0  0  0  0
   56.6960   26.7250   45.5900 C   0  0  0  0  0  0  0  0  0  0  0  0
   55.5260   27.4710   45.6340 O   0  0  0  0  0  0  0  0  0  0  0  0
   59.3700   28.1570   47.3970 N   0  0  0  0  0  0  0  0  0  0  0  0
   60.3101   27.2393   50.4555 H   0  0  0  0  0  0  0  0  0  0  0  0
   59.7719   26.2008   49.0922 H   0  0  0  0  0  0  0  0  0  0  0  0
   61.4282   26.8960   49.0922 H   0  0  0  0  0  0  0  0  0  0  0  0
   60.4416   29.6632   50.2186 H   0  0  0  0  0  0  0  0  0  0  0  0
   59.6905   31.9142   50.2680 H   0  0  0  0  0  0  0  0  0  0  0  0
   60.6660   32.4638   48.8634 H   0  0  0  0  0  0  0  0  0  0  0  0
   58.8842   32.6912   48.8634 H   0  0  0  0  0  0  0  0  0  0  0  0
   59.5711   34.8823   45.4111 H   0  0  0  0  0  0  0  0  0  0  0  0
   58.6818   34.3299   46.8751 H   0  0  0  0  0  0  0  0  0  0  0  0
   61.9332   33.1113   45.3686 H   0  0  0  0  0  0  0  0  0  0  0  0
   64.0336   32.9542   46.7107 H   0  0  0  0  0  0  0  0  0  0  0  0
   64.0908   33.8223   49.0510 H   0  0  0  0  0  0  0  0  0  0  0  0
   62.0540   34.8650   50.0473 H   0  0  0  0  0  0  0  0  0  0  0  0
   59.9559   35.0378   48.7080 H   0  0  0  0  0  0  0  0  0  0  0  0
   59.8891   26.1600   45.0572 H   0  0  0  0  0  0  0  0  0  0  0  0
   58.5320   23.0840   44.9660 H   0  0  0  0  0  0  0  0  0  0  0  0
   56.5352   23.7507   47.8962 H   0  0  0  0  0  0  0  0  0  0  0  0
   54.5944   22.2836   48.4448 H   0  0  0  0  0  0  0  0  0  0  0  0
   52.5310   23.6775   44.9083 H   0  0  0  0  0  0  0  0  0  0  0  0
   54.4685   25.1486   44.3534 H   0  0  0  0  0  0  0  0  0  0  0  0
  1  2  1  0
  2  3  2  0
  3  4  1  0
  4  5  1  0
  4  6  2  0
  6  7  1  0
  7  8  2  0
  7  9  2  0
  7 10  1  0
 10 11  1  0
 11 12  1  0
 12 13  2  0
 13 14  1  0
 14 15  2  0
 15 16  1  0
 16 17  2  0
  6 18  1  0
 18 19  1  0
 19 20  1  0
 20 21  1  0
 21 22  2  0
 22 23  1  0
 22 24  1  0
 24 25  1  0
 25 26  2  0
 26 27  1  0
 27 28  2  0
 28 29  1  0
 28 30  1  0
 30 31  2  0
 24 32  1  0
 32 33  1  0
 18 34  2  0
 34  2  1  0
 17 12  1  0
 32 20  2  0
 31 25  1  0
  1 35  1  0
  1 36  1  0
  1 37  1  0
  3 38  1  0
  5 39  1  0
  5 40  1  0
  5 41  1  0
 11 42  1  0
 11 43  1  0
 13 44  1  0
 14 45  1  0
 15 46  1  0
 16 47  1  0
 17 48  1  0
 21 49  1  0
 23 50  1  0
 26 51  1  0
 27 52  1  0
 30 53  1  0
 31 54  1  0
M  CHG  2  10  -1  33  -1
M  END
>  <UniqueID>  (29) 
26

>  <SMILES>  (29) 
Cc1cc(C)c(S(=O)(=O)[N-]Cc2ccccc2)c(Sc2cc(O)n(-c3ccc(F)cc3)c2[O-])n1

>  <Energy>  (29) 
92.60068085840683

>  <Genealogy>  (29) 
Cc1cc(C)c(S(=O)(=O)[N-]Cc2ccccc2)c(Sc2cc(O)n(-c3ccc(F)cc3)c2[O-])n1 (protonated)
Cc1cc(C)c(S(=O)(=O)[N-]Cc2ccccc2)c(Sc2cc(O)n(-c3ccc(F)cc3)c2[O-])n1 (3D coordinates assigned)
Cc1cc(C)c(S(=O)(=O)[N-]Cc2ccccc2)c(Sc2cc(O)n(-c3ccc(F)cc3)c2[O-])n1 (optimized conformer: 92.60068085840683 kcal/mol)

>  <smiles>  (29) 
Cc1cc(C)c(S(=O)(=O)NCc2ccccc2)c(Sc2cc(O)n(-c3ccc(F)cc3)c2O)n1

>  <score_type>  (29) 
oracle

>  <origin>  (29) 
adg

>  <m_score__min__energy>  (29) 
-12.83

>  <m_primary>  (29) 
energy

$$$$
29:0
     RDKit          3D

 45 46  0  0  0  0  0  0  0  0999 V2000
   60.2660   27.5900   46.2280 C   0  0  0  0  0  0  0  0  0  0  0  0
   59.7060   27.9430   44.8530 C   0  0  0  0  0  0  0  0  0  0  0  0
   58.2850   27.5800   44.7530 N   0  0  0  0  0  0  0  0  0  0  0  0
   57.3950   28.4210   43.9380 C   0  0  0  0  0  0  0  0  0  0  0  0
   57.2260   29.7740   44.5650 C   0  0  0  0  0  0  0  0  0  0  0  0
   56.0680   30.1950   44.8270 O   0  0  0  0  0  0  0  0  0  0  0  0
   58.3790   30.5740   44.8740 N   0  0  0  0  0  0  0  0  0  0  0  0
   58.2950   31.9330   45.3300 C   0  0  0  0  0  0  0  0  0  0  0  0
   58.5160   32.2240   46.6890 C   0  0  0  0  0  0  0  0  0  0  0  0
   58.7700   31.2250   47.5730 F   0  0  0  0  0  0  0  0  0  0  0  0
   58.4550   33.5440   47.1480 C   0  0  0  0  0  0  0  0  0  0  0  0
   58.1920   34.5850   46.2540 C   0  0  0  0  0  0  0  0  0  0  0  0
   57.9950   34.3090   44.8970 C   0  0  0  0  0  0  0  0  0  0  0  0
   58.0520   32.9910   44.4320 C   0  0  0  0  0  0  0  0  0  0  0  0
   57.9160   32.7550   43.1050 F   0  0  0  0  0  0  0  0  0  0  0  0
   57.7450   26.4160   45.4220 C   0  0  0  0  0  0  0  0  0  0  0  0
   58.1740   25.2680   45.1170 O   0  0  0  0  0  0  0  0  0  0  0  0
   56.7050   26.5340   46.5080 C   0  0  0  0  0  0  0  0  0  0  0  0
   55.3610   26.3240   45.9710 N   0  0  0  0  0  0  0  0  0  0  0  0
   54.8160   25.0440   45.6200 C   0  0  0  0  0  0  0  0  0  0  0  0
   53.5970   24.8180   45.8410 O   0  0  0  0  0  0  0  0  0  0  0  0
   55.6560   23.9750   45.0500 C   0  0  0  0  0  0  0  0  0  0  0  0
   55.7170   23.8080   43.6580 C   0  0  0  0  0  0  0  0  0  0  0  0
   56.4760   22.7720   43.1080 C   0  0  0  0  0  0  0  0  0  0  0  0
   57.1900   21.9090   43.9430 C   0  0  0  0  0  0  0  0  0  0  0  0
   57.1510   22.0830   45.3280 C   0  0  0  0  0  0  0  0  0  0  0  0
   56.3880   23.1140   45.8850 C   0  0  0  0  0  0  0  0  0  0  0  0
   56.3710   23.2800   47.2310 F   0  0  0  0  0  0  0  0  0  0  0  0
   59.6101   28.0035   47.0082 H   0  0  0  0  0  0  0  0  0  0  0  0
   60.3169   26.4962   46.3334 H   0  0  0  0  0  0  0  0  0  0  0  0
   61.2747   28.0158   46.3334 H   0  0  0  0  0  0  0  0  0  0  0  0
   59.8131   29.0253   44.6882 H   0  0  0  0  0  0  0  0  0  0  0  0
   60.2657   27.3796   44.0919 H   0  0  0  0  0  0  0  0  0  0  0  0
   57.8288   28.5395   42.9341 H   0  0  0  0  0  0  0  0  0  0  0  0
   56.4103   27.9352   43.8722 H   0  0  0  0  0  0  0  0  0  0  0  0
   59.3130   30.1040   44.8960 H   0  0  0  0  0  0  0  0  0  0  0  0
   58.6143   33.7627   48.2142 H   0  0  0  0  0  0  0  0  0  0  0  0
   58.1399   35.6219   46.6174 H   0  0  0  0  0  0  0  0  0  0  0  0
   57.7947   35.1306   44.1936 H   0  0  0  0  0  0  0  0  0  0  0  0
   56.9054   25.7783   47.2818 H   0  0  0  0  0  0  0  0  0  0  0  0
   56.7576   27.5462   46.9354 H   0  0  0  0  0  0  0  0  0  0  0  0
   55.1659   24.4944   42.9983 H   0  0  0  0  0  0  0  0  0  0  0  0
   56.5114   22.6357   42.0170 H   0  0  0  0  0  0  0  0  0  0  0  0
   57.7838   21.0912   43.5088 H   0  0  0  0  0  0  0  0  0  0  0  0
   57.7217   21.4076   45.9823 H   0  0  0  0  0  0  0  0  0  0  0  0
  1  2  1  0
  2  3  1  0
  3  4  1  0
  4  5  1  0
  5  6  2  0
  5  7  1  0
  7  8  1  0
  8  9  2  0
  9 10  1  0
  9 11  1  0
 11 12  2  0
 12 13  1  0
 13 14  2  0
 14 15  1  0
  3 16  1  0
 16 17  2  0
 16 18  1  0
 18 19  1  0
 19 20  1  0
 20 21  2  0
 20 22  1  0
 22 23  2  0
 23 24  1  0
 24 25  2  0
 25 26  1  0
 26 27  2  0
 27 28  1  0
 14  8  1  0
 27 22  1  0
  1 29  1  0
  1 30  1  0
  1 31  1  0
  2 32  1  0
  2 33  1  0
  4 34  1  0
  4 35  1  0
  7 36  1  0
 11 37  1  0
 12 38  1  0
 13 39  1  0
 18 40  1  0
 18 41  1  0
 23 42  1  0
 24 43  1  0
 25 44  1  0
 26 45  1  0
M  CHG  1  19  -1
M  END
>  <UniqueID>  (30) 
27

>  <SMILES>  (30) 
CCN(CC(=O)Nc1c(F)cccc1F)C(=O)C[N-]C(=O)c1ccccc1F

>  <Energy>  (30) 
49.04392777783902

>  <Genealogy>  (30) 
CCN(CC(=O)Nc1c(F)cccc1F)C(=O)C[N-]C(=O)c1ccccc1F (protonated)
CCN(CC(=O)Nc1c(F)cccc1F)C(=O)C[N-]C(=O)c1ccccc1F (3D coordinates assigned)
CCN(CC(=O)Nc1c(F)cccc1F)C(=O)C[N-]C(=O)c1ccccc1F (optimized conformer: 49.04392777783902 kcal/mol)

>  <smiles>  (30) 
CCN(CC(=O)Nc1c(F)cccc1F)C(=O)CNC(=O)c1ccccc1F

>  <score_type>  (30) 
oracle

>  <origin>  (30) 
adg

>  <m_score__min__energy>  (30) 
-10.15

>  <m_primary>  (30) 
energy

$$$$
30:0
     RDKit          3D

 33 34  0  0  0  0  0  0  0  0999 V2000
   59.5250   35.3330   47.5770 O   0  0  0  0  0  0  0  0  0  0  0  0
   59.5480   34.6280   46.5310 C   0  0  0  0  0  0  0  0  0  0  0  0
   58.2980   34.4750   45.7220 C   0  0  0  0  0  0  0  0  0  0  0  0
   58.1840   33.0630   45.2180 C   0  0  0  0  0  0  0  0  0  0  0  0
   58.1760   31.9850   46.1200 C   0  0  0  0  0  0  0  0  0  0  0  0
   58.0500   30.6750   45.6480 C   0  0  0  0  0  0  0  0  0  0  0  0
   57.9180   30.4330   44.2780 C   0  0  0  0  0  0  0  0  0  0  0  0
   57.9060   31.5010   43.3770 C   0  0  0  0  0  0  0  0  0  0  0  0
   58.0340   32.8120   43.8440 C   0  0  0  0  0  0  0  0  0  0  0  0
   60.7540   33.9590   46.1320 N   0  0  0  0  0  0  0  0  0  0  0  0
   61.8910   33.8330   46.9970 C   0  0  0  0  0  0  0  0  0  0  0  0
   63.3960   33.9010   46.3580 S   0  0  0  0  0  0  0  0  0  0  0  0
   61.7340   33.6290   48.4080 N   0  0  0  0  0  0  0  0  0  0  0  0
   60.6550   32.8620   48.9700 C   0  0  0  0  0  0  0  0  0  0  0  0
   59.7980   33.4390   49.9240 C   0  0  0  0  0  0  0  0  0  0  0  0
   58.7350   32.7080   50.4540 C   0  0  0  0  0  0  0  0  0  0  0  0
   58.5210   31.3910   50.0490 C   0  0  0  0  0  0  0  0  0  0  0  0
   59.3600   30.8000   49.1000 C   0  0  0  0  0  0  0  0  0  0  0  0
   59.0540   29.1340   48.6240 Cl  0  0  0  0  0  0  0  0  0  0  0  0
   60.4260   31.5360   48.5480 C   0  0  0  0  0  0  0  0  0  0  0  0
   61.4980   30.7840   47.3670 Cl  0  0  0  0  0  0  0  0  0  0  0  0
   57.4260   34.7095   46.3502 H   0  0  0  0  0  0  0  0  0  0  0  0
   58.3349   35.1635   44.8649 H   0  0  0  0  0  0  0  0  0  0  0  0
   58.2691   32.1725   47.1999 H   0  0  0  0  0  0  0  0  0  0  0  0
   58.0548   29.8334   46.3563 H   0  0  0  0  0  0  0  0  0  0  0  0
   57.8235   29.4012   43.9087 H   0  0  0  0  0  0  0  0  0  0  0  0
   57.7957   31.3097   42.2994 H   0  0  0  0  0  0  0  0  0  0  0  0
   58.0172   33.6509   43.1327 H   0  0  0  0  0  0  0  0  0  0  0  0
   60.8350   33.6240   45.1460 H   0  0  0  0  0  0  0  0  0  0  0  0
   62.4780   33.9910   49.0460 H   0  0  0  0  0  0  0  0  0  0  0  0
   59.9672   34.4744   50.2546 H   0  0  0  0  0  0  0  0  0  0  0  0
   58.0643   33.1712   51.1927 H   0  0  0  0  0  0  0  0  0  0  0  0
   57.6882   30.8146   50.4782 H   0  0  0  0  0  0  0  0  0  0  0  0
  1  2  2  0
  2  3  1  0
  3  4  1  0
  4  5  2  0
  5  6  1  0
  6  7  2  0
  7  8  1  0
  8  9  2  0
  2 10  1  0
 10 11  1  0
 11 12  2  0
 11 13  1  0
 13 14  1  0
 14 15  2  0
 15 16  1  0
 16 17  2  0
 17 18  1  0
 18 19  1  0
 18 20  2  0
 20 21  1  0
  9  4  1  0
 20 14  1  0
  3 22  1  0
  3 23  1  0
  5 24  1  0
  6 25  1  0
  7 26  1  0
  8 27  1  0
  9 28  1  0
 10 29  1  0
 13 30  1  0
 15 31  1  0
 16 32  1  0
 17 33  1  0
M  END
>  <UniqueID>  (31) 
28

>  <SMILES>  (31) 
O=C(Cc1ccccc1)NC(=S)Nc1cccc(Cl)c1Cl

>  <Energy>  (31) 
35.20940231090269

>  <Genealogy>  (31) 
O=C(Cc1ccccc1)NC(=S)Nc1cccc(Cl)c1Cl (3D coordinates assigned)
O=C(Cc1ccccc1)NC(=S)Nc1cccc(Cl)c1Cl (optimized conformer: 35.20940231090269 kcal/mol)

>  <smiles>  (31) 
O=C(Cc1ccccc1)NC(=S)Nc1cccc(Cl)c1Cl

>  <score_type>  (31) 
oracle

>  <origin>  (31) 
adg

>  <m_score__min__energy>  (31) 
-7.0800000000000001

>  <m_primary>  (31) 
energy

$$$$
31:0
     RDKit          3D

 49 52  0  0  0  0  0  0  0  0999 V2000
   56.4790   32.3310   50.3360 H   0  0  0  0  0  0  0  0  0  0  0  0
   57.4830   32.2450   50.4400 O   0  0  0  0  0  0  0  0  0  0  0  0
   58.0580   31.0500   50.8620 C   0  0  0  0  0  0  0  0  0  0  0  0
   57.4070   30.1490   51.6200 N   0  0  0  0  0  0  0  0  0  0  0  0
   58.2900   29.1500   51.8210 C   0  0  0  0  0  0  0  0  0  0  0  0
   58.0867   28.2477   52.4164 H   0  0  0  0  0  0  0  0  0  0  0  0
   59.4870   29.4130   51.1770 C   0  0  0  0  0  0  0  0  0  0  0  0
   60.7240   28.5580   51.2270 C   0  0  2  0  0  0  0  0  0  0  0  0
   61.5265   29.1218   51.7252 H   0  0  0  0  0  0  0  0  0  0  0  0
   61.1460   28.2090   49.8720 N   0  0  0  0  0  0  0  0  0  0  0  0
   60.3460   28.1800   48.8500 C   0  0  0  0  0  0  0  0  0  0  0  0
   59.5800   27.1250   48.5110 N   0  0  0  0  0  0  0  0  0  0  0  0
   58.8930   27.4730   47.4330 N   0  0  0  0  0  0  0  0  0  0  0  0
   58.0040   26.5680   46.7580 C   0  0  0  0  0  0  0  0  0  0  0  0
   58.4780   25.3600   46.2170 C   0  0  0  0  0  0  0  0  0  0  0  0
   59.5412   25.0954   46.3150 H   0  0  0  0  0  0  0  0  0  0  0  0
   57.6030   24.4940   45.5550 C   0  0  0  0  0  0  0  0  0  0  0  0
   57.9805   23.5549   45.1242 H   0  0  0  0  0  0  0  0  0  0  0  0
   56.2500   24.8200   45.4400 C   0  0  0  0  0  0  0  0  0  0  0  0
   55.5645   24.1415   44.9111 H   0  0  0  0  0  0  0  0  0  0  0  0
   55.7660   26.0070   45.9960 C   0  0  0  0  0  0  0  0  0  0  0  0
   54.4200   26.3270   45.8870 O   0  0  0  0  0  0  0  0  0  0  0  0
   56.6380   26.8760   46.6590 C   0  0  0  0  0  0  0  0  0  0  0  0
   56.2521   27.8046   47.1048 H   0  0  0  0  0  0  0  0  0  0  0  0
   59.2110   28.7480   47.0870 C   0  0  0  0  0  0  0  0  0  0  0  0
   58.5800   29.5500   46.0150 C   0  0  0  0  0  0  0  0  0  0  0  0
   58.2900   28.9590   44.7750 C   0  0  0  0  0  0  0  0  0  0  0  0
   58.5289   27.8988   44.6048 H   0  0  0  0  0  0  0  0  0  0  0  0
   57.7000   29.7100   43.7570 C   0  0  0  0  0  0  0  0  0  0  0  0
   57.4734   29.2400   42.7886 H   0  0  0  0  0  0  0  0  0  0  0  0
   57.3970   31.0570   43.9660 C   0  0  0  0  0  0  0  0  0  0  0  0
   56.9230   31.6403   43.1628 H   0  0  0  0  0  0  0  0  0  0  0  0
   57.6910   31.6710   45.1880 C   0  0  0  0  0  0  0  0  0  0  0  0
   57.3650   33.0270   45.3440 O   0  0  0  0  0  0  0  0  0  0  0  0
   58.1390   34.1260   44.8590 C   0  0  0  0  0  0  0  0  0  0  0  0
   58.8650   33.7340   43.7450 F   0  0  0  0  0  0  0  0  0  0  0  0
   57.3040   35.1790   44.5220 F   0  0  0  0  0  0  0  0  0  0  0  0
   59.1050   34.5810   45.9480 C   0  0  0  0  0  0  0  0  0  0  0  0
   58.4470   34.6620   47.1620 F   0  0  0  0  0  0  0  0  0  0  0  0
   59.6190   35.8250   45.6290 F   0  0  0  0  0  0  0  0  0  0  0  0
   60.1480   33.6780   46.0570 F   0  0  0  0  0  0  0  0  0  0  0  0
   58.2990   30.9130   46.2080 C   0  0  0  0  0  0  0  0  0  0  0  0
   58.5560   31.3925   47.1640 H   0  0  0  0  0  0  0  0  0  0  0  0
   60.1560   29.2280   47.9760 C   0  0  0  0  0  0  0  0  0  0  0  0
   60.6418   30.2149   47.9834 H   0  0  0  0  0  0  0  0  0  0  0  0
   60.4560   27.3810   51.9440 O   0  0  0  0  0  0  0  0  0  0  0  0
   59.8280   27.6250   52.6730 H   0  0  0  0  0  0  0  0  0  0  0  0
   59.3440   30.6470   50.5710 C   0  0  0  0  0  0  0  0  0  0  0  0
   60.0963   31.1918   49.9818 H   0  0  0  0  0  0  0  0  0  0  0  0
  1  2  1  0
  2  3  1  0
  3  4  1  0
  4  5  1  0
  5  6  1  0
  5  7  2  0
  7  8  1  0
  8  9  1  1
  8 10  1  0
 10 11  2  0
 11 12  1  0
 12 13  1  0
 13 14  1  0
 14 15  2  0
 15 16  1  0
 15 17  1  0
 17 18  1  0
 17 19  2  0
 19 20  1  0
 19 21  1  0
 21 22  1  0
 21 23  2  0
 23 24  1  0
 13 25  1  0
 25 26  1  0
 26 27  2  0
 27 28  1  0
 27 29  1  0
 29 30  1  0
 29 31  2  0
 31 32  1  0
 31 33  1  0
 33 34  1  0
 34 35  1  0
 35 36  1  0
 35 37  1  0
 35 38  1  0
 38 39  1  0
 38 40  1  0
 38 41  1  0
 33 42  2  0
 42 43  1  0
 25 44  2  0
 44 45  1  0
  8 46  1  0
 46 47  1  0
  7 48  1  0
 48 49  1  0
 48  3  2  0
 44 11  1  0
 23 14  1  0
 42 26  1  0
M  CHG  3   4  -1  12  -1  22  -1
M  END
>  <UniqueID>  (32) 
29

>  <SMILES>  (32) 
[O-]c1cccc(-n2[n-]/c(=N\[C@H](O)c3c[n-]c(O)c3)cc2-c2cccc(OC(F)(F)C(F)(F)F)c2)c1

>  <Energy>  (32) 
115.17008562864422

>  <Genealogy>  (32) 
[O-]c1cccc(-n2[n-]c(=NC(O)c3c[n-]c(O)c3)cc2-c2cccc(OC(F)(F)C(F)(F)F)c2)c1 (protonated)
[O-]c1cccc(-n2[n-]c(=N[C@H](O)c3c[n-]c(O)c3)cc2-c2cccc(OC(F)(F)C(F)(F)F)c2)c1 (chirality)
[O-]c1cccc(-n2[n-]/c(=N\[C@H](O)c3c[n-]c(O)c3)cc2-c2cccc(OC(F)(F)C(F)(F)F)c2)c1 (cis-trans isomerization)
[O-]c1cccc(-n2[n-]/c(=N\[C@H](O)c3c[n-]c(O)c3)cc2-c2cccc(OC(F)(F)C(F)(F)F)c2)c1 (3D coordinates assigned)
[O-]c1cccc(-n2[n-]/c(=N\[C@H](O)c3c[n-]c(O)c3)cc2-c2cccc(OC(F)(F)C(F)(F)F)c2)c1 (optimized conformer: 115.17008562864422 kcal/mol)

>  <smiles>  (32) 
Oc1cccc(-n2[nH]c(=NC(O)c3c[nH]c(O)c3)cc2-c2cccc(OC(F)(F)C(F)(F)F)c2)c1

>  <score_type>  (32) 
oracle

>  <origin>  (32) 
adg

>  <m_score__min__energy>  (32) 
-13.59

>  <m_primary>  (32) 
energy

$$$$
32:0
     RDKit          3D

 38 39  0  0  0  0  0  0  0  0999 V2000
   54.7950   26.3380   45.9690 N   0  0  0  0  0  0  0  0  0  0  0  0
   55.6940   25.2340   46.0430 C   0  0  0  0  0  0  0  0  0  0  0  0
   56.1070   24.8330   47.1640 O   0  0  0  0  0  0  0  0  0  0  0  0
   56.1380   24.5420   44.7930 C   0  0  0  0  0  0  0  0  0  0  0  0
   57.4110   25.0280   44.3750 O   0  0  0  0  0  0  0  0  0  0  0  0
   58.3430   25.6000   45.2500 C   0  0  0  0  0  0  0  0  0  0  0  0
   59.1190   24.8610   45.9170 O   0  0  0  0  0  0  0  0  0  0  0  0
   58.4130   27.0710   45.3930 C   0  0  0  0  0  0  0  0  0  0  0  0
   59.0040   27.6560   46.5260 C   0  0  0  0  0  0  0  0  0  0  0  0
   59.0630   29.0460   46.6560 C   0  0  0  0  0  0  0  0  0  0  0  0
   58.5520   29.8780   45.6500 C   0  0  0  0  0  0  0  0  0  0  0  0
   58.6080   31.3030   45.8190 N   0  0  0  0  0  0  0  0  0  0  0  0
   57.5500   32.2010   45.4440 C   0  0  0  0  0  0  0  0  0  0  0  0
   56.5170   31.7720   44.8640 O   0  0  0  0  0  0  0  0  0  0  0  0
   57.7050   33.6750   45.6620 C   0  0  0  0  0  0  0  0  0  0  0  0
   59.2890   34.2700   44.9750 S   0  0  0  0  0  0  0  0  0  0  0  0
   60.2690   33.8010   46.4010 C   0  0  0  0  0  0  0  0  0  0  0  0
   61.6640   33.8920   46.3620 C   0  0  0  0  0  0  0  0  0  0  0  0
   62.4030   33.5420   47.4960 C   0  0  0  0  0  0  0  0  0  0  0  0
   63.6580   33.6360   47.4880 O   0  0  0  0  0  0  0  0  0  0  0  0
   61.7410   33.0920   48.6440 C   0  0  0  0  0  0  0  0  0  0  0  0
   60.3470   33.0060   48.6390 C   0  0  0  0  0  0  0  0  0  0  0  0
   59.6470   33.3580   47.5270 N   0  0  0  0  0  0  0  0  0  0  0  0
   57.9430   29.2970   44.5250 C   0  0  0  0  0  0  0  0  0  0  0  0
   57.8800   27.9060   44.3960 C   0  0  0  0  0  0  0  0  0  0  0  0
   55.1440   27.3180   46.0470 H   0  0  0  0  0  0  0  0  0  0  0  0
   56.2088   23.4610   44.9840 H   0  0  0  0  0  0  0  0  0  0  0  0
   55.4042   24.7410   43.9980 H   0  0  0  0  0  0  0  0  0  0  0  0
   59.4230   27.0152   47.3159 H   0  0  0  0  0  0  0  0  0  0  0  0
   59.5141   29.4911   47.5551 H   0  0  0  0  0  0  0  0  0  0  0  0
   59.5220   31.7220   46.1090 H   0  0  0  0  0  0  0  0  0  0  0  0
   56.8764   34.2019   45.1661 H   0  0  0  0  0  0  0  0  0  0  0  0
   57.6932   33.8743   46.7437 H   0  0  0  0  0  0  0  0  0  0  0  0
   62.1739   34.2350   45.4497 H   0  0  0  0  0  0  0  0  0  0  0  0
   62.3123   32.8091   49.5404 H   0  0  0  0  0  0  0  0  0  0  0  0
   59.8148   32.6534   49.5348 H   0  0  0  0  0  0  0  0  0  0  0  0
   57.5137   29.9394   43.7420 H   0  0  0  0  0  0  0  0  0  0  0  0
   57.4093   27.4616   43.5067 H   0  0  0  0  0  0  0  0  0  0  0  0
  1  2  1  0
  2  3  2  0
  2  4  1  0
  4  5  1  0
  5  6  1  0
  6  7  2  0
  6  8  1  0
  8  9  2  0
  9 10  1  0
 10 11  2  0
 11 12  1  0
 12 13  1  0
 13 14  2  0
 13 15  1  0
 15 16  1  0
 16 17  1  0
 17 18  2  0
 18 19  1  0
 19 20  2  0
 19 21  1  0
 21 22  2  0
 22 23  1  0
 11 24  1  0
 24 25  2  0
 25  8  1  0
 23 17  1  0
  1 26  1  0
  4 27  1  0
  4 28  1  0
  9 29  1  0
 10 30  1  0
 12 31  1  0
 15 32  1  0
 15 33  1  0
 18 34  1  0
 21 35  1  0
 22 36  1  0
 24 37  1  0
 25 38  1  0
M  CHG  2   1  -1  23  -1
M  END
>  <UniqueID>  (33) 
30

>  <SMILES>  (33) 
[NH-]C(=O)COC(=O)c1ccc(NC(=O)CSc2cc(=O)cc[n-]2)cc1

>  <Energy>  (33) 
34.10131081620445

>  <Genealogy>  (33) 
[NH-]C(=O)COC(=O)c1ccc(NC(=O)CSc2cc(=O)cc[n-]2)cc1 (protonated)
[NH-]C(=O)COC(=O)c1ccc(NC(=O)CSc2cc(=O)cc[n-]2)cc1 (3D coordinates assigned)
[NH-]C(=O)COC(=O)c1ccc(NC(=O)CSc2cc(=O)cc[n-]2)cc1 (optimized conformer: 34.10131081620445 kcal/mol)

>  <smiles>  (33) 
NC(=O)COC(=O)c1ccc(NC(=O)CSc2cc(=O)cc[nH]2)cc1

>  <score_type>  (33) 
oracle

>  <origin>  (33) 
adg

>  <m_score__min__energy>  (33) 
-11.390000000000001

>  <m_primary>  (33) 
energy

$$$$
33:0
     RDKit          3D

 37 39  0  0  0  0  0  0  0  0999 V2000
   64.1740   33.4520   48.8530 C   0  0  0  0  0  0  0  0  0  0  0  0
   63.1780   33.0550   47.4310 S   0  0  0  0  0  0  0  0  0  0  0  0
   63.6220   31.7520   46.8280 O   0  0  0  0  0  0  0  0  0  0  0  0
   63.3440   34.1420   46.4080 O   0  0  0  0  0  0  0  0  0  0  0  0
   61.5060   32.9640   47.8810 N   0  0  0  0  0  0  0  0  0  0  0  0
   60.3880   33.2280   47.0210 C   0  0  0  0  0  0  0  0  0  0  0  0
   60.0770   34.5220   46.5720 C   0  0  0  0  0  0  0  0  0  0  0  0
   58.9800   34.7300   45.7350 C   0  0  0  0  0  0  0  0  0  0  0  0
   58.1830   33.6540   45.3380 C   0  0  0  0  0  0  0  0  0  0  0  0
   58.4760   32.3500   45.7770 C   0  0  0  0  0  0  0  0  0  0  0  0
   57.6300   31.2050   45.3570 C   0  0  0  0  0  0  0  0  0  0  0  0
   56.5740   31.3980   44.5210 N   0  0  0  0  0  0  0  0  0  0  0  0
   55.7850   30.3640   44.1330 C   0  0  0  0  0  0  0  0  0  0  0  0
   56.0520   29.0750   44.5900 C   0  0  0  0  0  0  0  0  0  0  0  0
   57.1490   28.8760   45.4400 C   0  0  0  0  0  0  0  0  0  0  0  0
   57.4800   27.5370   45.9810 C   0  0  0  0  0  0  0  0  0  0  0  0
   58.8290   27.2030   46.2000 C   0  0  0  0  0  0  0  0  0  0  0  0
   59.1760   25.9510   46.7130 C   0  0  0  0  0  0  0  0  0  0  0  0
   58.1830   25.0140   47.0060 C   0  0  0  0  0  0  0  0  0  0  0  0
   56.8410   25.3250   46.7740 C   0  0  0  0  0  0  0  0  0  0  0  0
   56.4840   26.5750   46.2550 C   0  0  0  0  0  0  0  0  0  0  0  0
   55.1430   26.8340   45.9920 O   0  0  0  0  0  0  0  0  0  0  0  0
   57.9000   29.9490   45.8090 N   0  0  0  0  0  0  0  0  0  0  0  0
   59.5850   32.1520   46.6210 C   0  0  0  0  0  0  0  0  0  0  0  0
   63.6098   33.2271   49.7701 H   0  0  0  0  0  0  0  0  0  0  0  0
   65.0962   32.8527   48.8336 H   0  0  0  0  0  0  0  0  0  0  0  0
   64.4311   34.5214   48.8336 H   0  0  0  0  0  0  0  0  0  0  0  0
   60.7001   35.3741   46.8811 H   0  0  0  0  0  0  0  0  0  0  0  0
   58.7420   35.7458   45.3864 H   0  0  0  0  0  0  0  0  0  0  0  0
   57.3205   33.8273   44.6777 H   0  0  0  0  0  0  0  0  0  0  0  0
   54.9351   30.5435   43.4581 H   0  0  0  0  0  0  0  0  0  0  0  0
   55.4146   28.2302   44.2898 H   0  0  0  0  0  0  0  0  0  0  0  0
   59.6169   27.9338   45.9653 H   0  0  0  0  0  0  0  0  0  0  0  0
   60.2335   25.7027   46.8865 H   0  0  0  0  0  0  0  0  0  0  0  0
   58.4572   24.0321   47.4190 H   0  0  0  0  0  0  0  0  0  0  0  0
   56.0606   24.5836   47.0004 H   0  0  0  0  0  0  0  0  0  0  0  0
   59.8247   31.1373   46.9717 H   0  0  0  0  0  0  0  0  0  0  0  0
  1  2  1  0
  2  3  2  0
  2  4  2  0
  2  5  1  0
  5  6  1  0
  6  7  2  0
  7  8  1  0
  8  9  2  0
  9 10  1  0
 10 11  1  0
 11 12  2  0
 12 13  1  0
 13 14  2  0
 14 15  1  0
 15 16  1  0
 16 17  2  0
 17 18  1  0
 18 19  2  0
 19 20  1  0
 20 21  2  0
 21 22  1  0
 15 23  2  0
 10 24  2  0
 24  6  1  0
 23 11  1  0
 21 16  1  0
  1 25  1  0
  1 26  1  0
  1 27  1  0
  7 28  1  0
  8 29  1  0
  9 30  1  0
 13 31  1  0
 14 32  1  0
 17 33  1  0
 18 34  1  0
 19 35  1  0
 20 36  1  0
 24 37  1  0
M  CHG  2   5  -1  22  -1
M  END
>  <UniqueID>  (34) 
31

>  <SMILES>  (34) 
CS(=O)(=O)[N-]c1cccc(-c2nccc(-c3ccccc3[O-])n2)c1

>  <Energy>  (34) 
47.037724669917225

>  <Genealogy>  (34) 
CS(=O)(=O)[N-]c1cccc(-c2nccc(-c3ccccc3[O-])n2)c1 (protonated)
CS(=O)(=O)[N-]c1cccc(-c2nccc(-c3ccccc3[O-])n2)c1 (3D coordinates assigned)
CS(=O)(=O)[N-]c1cccc(-c2nccc(-c3ccccc3[O-])n2)c1 (optimized conformer: 47.037724669917225 kcal/mol)

>  <smiles>  (34) 
CS(=O)(=O)Nc1cccc(-c2nccc(-c3ccccc3O)n2)c1

>  <score_type>  (34) 
oracle

>  <origin>  (34) 
adg

>  <m_score__min__energy>  (34) 
-13.31

>  <m_primary>  (34) 
energy

$$$$
34:0
     RDKit          3D

 69 72  0  0  0  0  0  0  0  0999 V2000
   63.5500   32.5390   48.6440 C   0  0  0  0  0  0  0  0  0  0  0  0
   63.0090   33.0710   47.4380 O   0  0  0  0  0  0  0  0  0  0  0  0
   61.6920   33.5320   47.2960 C   0  0  0  0  0  0  0  0  0  0  0  0
   60.9190   33.7050   48.4490 C   0  0  0  0  0  0  0  0  0  0  0  0
   59.5990   34.1560   48.3590 C   0  0  0  0  0  0  0  0  0  0  0  0
   59.0410   34.4450   47.1120 C   0  0  0  0  0  0  0  0  0  0  0  0
   59.8040   34.2900   45.9450 C   0  0  0  0  0  0  0  0  0  0  0  0
   59.1920   34.5850   44.6010 C   0  0  0  0  0  0  0  0  0  0  0  0
   57.9140   33.8740   44.4590 N   0  0  0  0  0  0  0  0  0  0  0  0
   56.6780   34.5110   44.9150 C   0  0  0  0  0  0  0  0  0  0  0  0
   57.8290   32.6450   43.7100 C   0  0  0  0  0  0  0  0  0  0  0  0
   57.5070   32.6820   42.4900 O   0  0  0  0  0  0  0  0  0  0  0  0
   58.0690   31.3330   44.3500 C   0  0  0  0  0  0  0  0  0  0  0  0
   58.8650   31.2350   45.5020 C   0  0  0  0  0  0  0  0  0  0  0  0
   59.1170   29.9910   46.0820 C   0  0  0  0  0  0  0  0  0  0  0  0
   58.5700   28.8220   45.5310 C   0  0  0  0  0  0  0  0  0  0  0  0
   58.8770   27.5310   46.0990 N   0  0  0  0  0  0  0  0  0  0  0  0
   60.2910   27.1960   46.3620 C   0  0  0  0  0  0  0  0  0  0  0  0
   60.5380   26.6980   47.8000 C   0  0  0  0  0  0  0  0  0  0  0  0
   60.6830   27.8160   48.8100 C   0  0  0  0  0  0  0  0  0  0  0  0
   60.6950   29.1410   48.3380 C   0  0  0  0  0  0  0  0  0  0  0  0
   60.8870   30.2090   49.2140 C   0  0  0  0  0  0  0  0  0  0  0  0
   61.0600   29.9720   50.5770 C   0  0  0  0  0  0  0  0  0  0  0  0
   61.0250   28.6670   51.0700 C   0  0  0  0  0  0  0  0  0  0  0  0
   60.8310   27.5760   50.2020 C   0  0  0  0  0  0  0  0  0  0  0  0
   60.7710   26.1860   50.7810 C   0  0  0  0  0  0  0  0  0  0  0  0
   57.8270   26.6940   46.6470 C   0  0  0  0  0  0  0  0  0  0  0  0
   57.4000   26.9200   47.8130 O   0  0  0  0  0  0  0  0  0  0  0  0
   57.1920   25.5920   45.8760 C   0  0  0  0  0  0  0  0  0  0  0  0
   58.0040   24.5560   45.3840 C   0  0  0  0  0  0  0  0  0  0  0  0
   57.4500   23.4900   44.6720 C   0  0  0  0  0  0  0  0  0  0  0  0
   56.0760   23.4560   44.4250 C   0  0  0  0  0  0  0  0  0  0  0  0
   55.5230   22.3950   43.7150 O   0  0  0  0  0  0  0  0  0  0  0  0
   55.2570   24.4890   44.8860 C   0  0  0  0  0  0  0  0  0  0  0  0
   55.8080   25.5630   45.5950 C   0  0  0  0  0  0  0  0  0  0  0  0
   54.9710   26.5980   45.9920 O   0  0  0  0  0  0  0  0  0  0  0  0
   57.7340   28.9260   44.4050 C   0  0  0  0  0  0  0  0  0  0  0  0
   57.4870   30.1690   43.8180 C   0  0  0  0  0  0  0  0  0  0  0  0
   61.1260   33.8250   46.0390 C   0  0  0  0  0  0  0  0  0  0  0  0
   63.0633   33.0176   49.5066 H   0  0  0  0  0  0  0  0  0  0  0  0
   63.3724   31.4540   48.6782 H   0  0  0  0  0  0  0  0  0  0  0  0
   64.6319   32.7347   48.6782 H   0  0  0  0  0  0  0  0  0  0  0  0
   61.3537   33.4842   49.4351 H   0  0  0  0  0  0  0  0  0  0  0  0
   58.9988   34.2835   49.2720 H   0  0  0  0  0  0  0  0  0  0  0  0
   58.0004   34.7951   47.0445 H   0  0  0  0  0  0  0  0  0  0  0  0
   59.0178   35.6673   44.5106 H   0  0  0  0  0  0  0  0  0  0  0  0
   59.8799   34.2485   43.8114 H   0  0  0  0  0  0  0  0  0  0  0  0
   56.6556   34.5226   46.0147 H   0  0  0  0  0  0  0  0  0  0  0  0
   56.6361   35.5430   44.5365 H   0  0  0  0  0  0  0  0  0  0  0  0
   55.8132   33.9463   44.5365 H   0  0  0  0  0  0  0  0  0  0  0  0
   59.2926   32.1440   45.9502 H   0  0  0  0  0  0  0  0  0  0  0  0
   59.7501   29.9261   46.9792 H   0  0  0  0  0  0  0  0  0  0  0  0
   60.6000   26.4070   45.6605 H   0  0  0  0  0  0  0  0  0  0  0  0
   60.8763   28.1179   46.2295 H   0  0  0  0  0  0  0  0  0  0  0  0
   59.6893   26.0658   48.1000 H   0  0  0  0  0  0  0  0  0  0  0  0
   61.4885   26.1444   47.7917 H   0  0  0  0  0  0  0  0  0  0  0  0
   60.5512   29.3371   47.2652 H   0  0  0  0  0  0  0  0  0  0  0  0
   60.9020   31.2394   48.8292 H   0  0  0  0  0  0  0  0  0  0  0  0
   61.2243   30.8147   51.2646 H   0  0  0  0  0  0  0  0  0  0  0  0
   61.1503   28.4890   52.1482 H   0  0  0  0  0  0  0  0  0  0  0  0
   60.7736   26.2459   51.8794 H   0  0  0  0  0  0  0  0  0  0  0  0
   59.8505   25.6875   50.4431 H   0  0  0  0  0  0  0  0  0  0  0  0
   61.6451   25.6100   50.4431 H   0  0  0  0  0  0  0  0  0  0  0  0
   59.0891   24.5851   45.5619 H   0  0  0  0  0  0  0  0  0  0  0  0
   58.0954   22.6778   44.3061 H   0  0  0  0  0  0  0  0  0  0  0  0
   54.1748   24.4586   44.6913 H   0  0  0  0  0  0  0  0  0  0  0  0
   57.2711   28.0216   43.9834 H   0  0  0  0  0  0  0  0  0  0  0  0
   56.8341   30.2376   42.9354 H   0  0  0  0  0  0  0  0  0  0  0  0
   61.7235   33.6886   45.1255 H   0  0  0  0  0  0  0  0  0  0  0  0
  1  2  1  0
  2  3  1  0
  3  4  2  0
  4  5  1  0
  5  6  2  0
  6  7  1  0
  7  8  1  0
  8  9  1  0
  9 10  1  0
  9 11  1  0
 11 12  2  0
 11 13  1  0
 13 14  2  0
 14 15  1  0
 15 16  2  0
 16 17  1  0
 17 18  1  0
 18 19  1  0
 19 20  1  0
 20 21  2  0
 21 22  1  0
 22 23  2  0
 23 24  1  0
 24 25  2  0
 25 26  1  0
 17 27  1  0
 27 28  2  0
 27 29  1  0
 29 30  2  0
 30 31  1  0
 31 32  2  0
 32 33  1  0
 32 34  1  0
 34 35  2  0
 35 36  1  0
 16 37  1  0
 37 38  2  0
  7 39  2  0
 39  3  1  0
 38 13  1  0
 25 20  1  0
 35 29  1  0
  1 40  1  0
  1 41  1  0
  1 42  1  0
  4 43  1  0
  5 44  1  0
  6 45  1  0
  8 46  1  0
  8 47  1  0
 10 48  1  0
 10 49  1  0
 10 50  1  0
 14 51  1  0
 15 52  1  0
 18 53  1  0
 18 54  1  0
 19 55  1  0
 19 56  1  0
 21 57  1  0
 22 58  1  0
 23 59  1  0
 24 60  1  0
 26 61  1  0
 26 62  1  0
 26 63  1  0
 30 64  1  0
 31 65  1  0
 34 66  1  0
 37 67  1  0
 38 68  1  0
 39 69  1  0
M  CHG  2  33  -1  36  -1
M  END
>  <UniqueID>  (35) 
32

>  <SMILES>  (35) 
COc1cccc(CN(C)C(=O)c2ccc(N(CCc3ccccc3C)C(=O)c3ccc([O-])cc3[O-])cc2)c1

>  <Energy>  (35) 
84.63252437873882

>  <Genealogy>  (35) 
COc1cccc(CN(C)C(=O)c2ccc(N(CCc3ccccc3C)C(=O)c3ccc([O-])cc3[O-])cc2)c1 (protonated)
COc1cccc(CN(C)C(=O)c2ccc(N(CCc3ccccc3C)C(=O)c3ccc([O-])cc3[O-])cc2)c1 (3D coordinates assigned)
COc1cccc(CN(C)C(=O)c2ccc(N(CCc3ccccc3C)C(=O)c3ccc([O-])cc3[O-])cc2)c1 (optimized conformer: 84.63252437873882 kcal/mol)

>  <smiles>  (35) 
COc1cccc(CN(C)C(=O)c2ccc(N(CCc3ccccc3C)C(=O)c3ccc(O)cc3O)cc2)c1

>  <score_type>  (35) 
oracle

>  <origin>  (35) 
adg

>  <m_score__min__energy>  (35) 
-15.34

>  <m_primary>  (35) 
energy

$$$$
35:0
     RDKit          3D

 41 43  0  0  0  0  0  0  0  0999 V2000
   57.9590   34.1720   46.8550 C   0  0  0  0  0  0  0  0  0  0  0  0
   58.6780   32.9270   46.5330 N   0  0  0  0  0  0  0  0  0  0  0  0
   58.1110   32.0020   45.6850 C   0  0  0  0  0  0  0  0  0  0  0  0
   56.9840   32.2070   45.1570 O   0  0  0  0  0  0  0  0  0  0  0  0
   58.8170   30.8320   45.4210 C   0  0  0  0  0  0  0  0  0  0  0  0
   60.0200   30.6150   46.0010 C   0  0  0  0  0  0  0  0  0  0  0  0
   60.5510   29.4470   45.5850 N   0  0  0  0  0  0  0  0  0  0  0  0
   59.6080   28.9750   44.7310 C   0  0  0  0  0  0  0  0  0  0  0  0
   58.5310   29.7910   44.6160 N   0  0  0  0  0  0  0  0  0  0  0  0
   57.3880   29.5870   43.7230 C   0  0  0  0  0  0  0  0  0  0  0  0
   56.1270   29.3740   44.5180 C   0  0  0  0  0  0  0  0  0  0  0  0
   55.2300   30.2580   44.5020 O   0  0  0  0  0  0  0  0  0  0  0  0
   55.8950   28.1720   45.2640 N   0  0  0  0  0  0  0  0  0  0  0  0
   56.8910   27.2710   45.7680 C   0  0  0  0  0  0  0  0  0  0  0  0
   57.0580   25.9820   45.2300 C   0  0  0  0  0  0  0  0  0  0  0  0
   58.0600   25.1400   45.7190 C   0  0  0  0  0  0  0  0  0  0  0  0
   58.9110   25.5800   46.7360 C   0  0  0  0  0  0  0  0  0  0  0  0
   58.7620   26.8680   47.2750 C   0  0  0  0  0  0  0  0  0  0  0  0
   59.7020   27.3560   48.3410 C   0  0  0  0  0  0  0  0  0  0  0  0
   59.7060   28.7570   48.3760 O   0  0  0  0  0  0  0  0  0  0  0  0
   57.7640   27.7170   46.7680 C   0  0  0  0  0  0  0  0  0  0  0  0
   60.5780   31.4970   46.8750 N   0  0  0  0  0  0  0  0  0  0  0  0
   61.8990   31.2370   47.4630 C   0  0  0  0  0  0  0  0  0  0  0  0
   59.8990   32.6680   47.1340 C   0  0  0  0  0  0  0  0  0  0  0  0
   60.4000   33.5150   47.9280 O   0  0  0  0  0  0  0  0  0  0  0  0
   57.8934   34.2856   47.9472 H   0  0  0  0  0  0  0  0  0  0  0  0
   58.5011   35.0292   46.4291 H   0  0  0  0  0  0  0  0  0  0  0  0
   56.9456   34.1308   46.4291 H   0  0  0  0  0  0  0  0  0  0  0  0
   59.7073   28.0247   44.1860 H   0  0  0  0  0  0  0  0  0  0  0  0
   57.2666   30.4732   43.0827 H   0  0  0  0  0  0  0  0  0  0  0  0
   57.5739   28.6952   43.1064 H   0  0  0  0  0  0  0  0  0  0  0  0
   56.3974   25.6357   44.4215 H   0  0  0  0  0  0  0  0  0  0  0  0
   58.1791   24.1289   45.3026 H   0  0  0  0  0  0  0  0  0  0  0  0
   59.7006   24.9150   47.1158 H   0  0  0  0  0  0  0  0  0  0  0  0
   59.3767   26.9687   49.3178 H   0  0  0  0  0  0  0  0  0  0  0  0
   60.7178   26.9989   48.1158 H   0  0  0  0  0  0  0  0  0  0  0  0
   60.3370   29.0550   47.6690 H   0  0  0  0  0  0  0  0  0  0  0  0
   57.6676   28.7404   47.1597 H   0  0  0  0  0  0  0  0  0  0  0  0
   61.8214   31.2523   48.5602 H   0  0  0  0  0  0  0  0  0  0  0  0
   62.2589   30.2508   47.1346 H   0  0  0  0  0  0  0  0  0  0  0  0
   62.6058   32.0133   47.1346 H   0  0  0  0  0  0  0  0  0  0  0  0
  1  2  1  0
  2  3  1  0
  3  4  2  0
  3  5  1  0
  5  6  2  0
  6  7  1  0
  7  8  2  0
  8  9  1  0
  9 10  1  0
 10 11  1  0
 11 12  2  0
 11 13  1  0
 13 14  1  0
 14 15  2  0
 15 16  1  0
 16 17  2  0
 17 18  1  0
 18 19  1  0
 19 20  1  0
 18 21  2  0
  6 22  1  0
 22 23  1  0
 22 24  1  0
 24 25  2  0
 24  2  1  0
  9  5  1  0
 21 14  1  0
  1 26  1  0
  1 27  1  0
  1 28  1  0
  8 29  1  0
 10 30  1  0
 10 31  1  0
 15 32  1  0
 16 33  1  0
 17 34  1  0
 19 35  1  0
 19 36  1  0
 20 37  1  0
 21 38  1  0
 23 39  1  0
 23 40  1  0
 23 41  1  0
M  CHG  1  13  -1
M  END
>  <UniqueID>  (36) 
33

>  <SMILES>  (36) 
Cn1c(=O)c2c(ncn2CC(=O)[N-]c2cccc(CO)c2)n(C)c1=O

>  <Energy>  (36) 
92.27960030253068

>  <Genealogy>  (36) 
Cn1c(=O)c2c(ncn2CC(=O)[N-]c2cccc(CO)c2)n(C)c1=O (protonated)
Cn1c(=O)c2c(ncn2CC(=O)[N-]c2cccc(CO)c2)n(C)c1=O (3D coordinates assigned)
Cn1c(=O)c2c(ncn2CC(=O)[N-]c2cccc(CO)c2)n(C)c1=O (optimized conformer: 92.27960030253068 kcal/mol)

>  <smiles>  (36) 
Cn1c(=O)c2c(ncn2CC(=O)Nc2cccc(CO)c2)n(C)c1=O

>  <score_type>  (36) 
oracle

>  <origin>  (36) 
adg

>  <m_score__min__energy>  (36) 
-9.4100000000000001

>  <m_primary>  (36) 
energy

$$$$
36:0
     RDKit          3D

 34 36  0  0  0  0  0  0  0  0999 V2000
   59.1650   33.6130   51.6870 C   0  0  0  0  0  0  0  0  0  0  0  0
   60.0410   33.6230   50.5660 O   0  0  0  0  0  0  0  0  0  0  0  0
   59.6170   33.6050   49.2280 C   0  0  0  0  0  0  0  0  0  0  0  0
   60.2710   34.4340   48.3120 C   0  0  0  0  0  0  0  0  0  0  0  0
   59.8870   34.4540   46.9680 C   0  0  0  0  0  0  0  0  0  0  0  0
   58.8340   33.6380   46.5150 C   0  0  0  0  0  0  0  0  0  0  0  0
   58.4280   33.6560   45.0900 C   0  0  0  0  0  0  0  0  0  0  0  0
   57.9870   34.7200   44.5760 O   0  0  0  0  0  0  0  0  0  0  0  0
   58.4870   32.4530   44.3110 N   0  0  0  0  0  0  0  0  0  0  0  0
   57.9040   31.1860   44.6480 C   0  0  0  0  0  0  0  0  0  0  0  0
   56.6550   30.8580   44.1080 C   0  0  0  0  0  0  0  0  0  0  0  0
   56.0390   29.6450   44.4220 C   0  0  0  0  0  0  0  0  0  0  0  0
   56.6600   28.7440   45.2980 C   0  0  0  0  0  0  0  0  0  0  0  0
   56.0620   27.5580   45.6080 N   0  0  0  0  0  0  0  0  0  0  0  0
   56.6550   26.6830   46.4660 C   0  0  0  0  0  0  0  0  0  0  0  0
   56.0930   25.5920   46.7450 O   0  0  0  0  0  0  0  0  0  0  0  0
   57.8540   26.9840   47.0280 N   0  0  0  0  0  0  0  0  0  0  0  0
   58.4930   28.1500   46.7530 C   0  0  0  0  0  0  0  0  0  0  0  0
   59.6050   28.3870   47.2980 O   0  0  0  0  0  0  0  0  0  0  0  0
   57.9090   29.0730   45.8690 C   0  0  0  0  0  0  0  0  0  0  0  0
   58.5220   30.2980   45.5480 C   0  0  0  0  0  0  0  0  0  0  0  0
   58.1790   32.8020   47.4370 C   0  0  0  0  0  0  0  0  0  0  0  0
   58.5640   32.7850   48.7800 C   0  0  0  0  0  0  0  0  0  0  0  0
   59.7563   33.6198   52.6145 H   0  0  0  0  0  0  0  0  0  0  0  0
   58.5204   34.5038   51.6566 H   0  0  0  0  0  0  0  0  0  0  0  0
   58.5409   32.7077   51.6566 H   0  0  0  0  0  0  0  0  0  0  0  0
   61.0961   35.0771   48.6522 H   0  0  0  0  0  0  0  0  0  0  0  0
   60.4116   35.1121   46.2597 H   0  0  0  0  0  0  0  0  0  0  0  0
   56.1534   31.5633   43.4291 H   0  0  0  0  0  0  0  0  0  0  0  0
   55.0629   29.3955   43.9804 H   0  0  0  0  0  0  0  0  0  0  0  0
   55.1380   27.3100   45.1880 H   0  0  0  0  0  0  0  0  0  0  0  0
   59.4882   30.5627   46.0023 H   0  0  0  0  0  0  0  0  0  0  0  0
   57.3561   32.1556   47.0977 H   0  0  0  0  0  0  0  0  0  0  0  0
   58.0418   32.1277   49.4908 H   0  0  0  0  0  0  0  0  0  0  0  0
  1  2  1  0
  2  3  1  0
  3  4  2  0
  4  5  1  0
  5  6  2  0
  6  7  1  0
  7  8  2  0
  7  9  1  0
  9 10  1  0
 10 11  2  0
 11 12  1  0
 12 13  2  0
 13 14  1  0
 14 15  1  0
 15 16  2  0
 15 17  1  0
 17 18  1  0
 18 19  2  0
 18 20  1  0
 20 21  2  0
  6 22  1  0
 22 23  2  0
 23  3  1  0
 21 10  1  0
 20 13  1  0
  1 24  1  0
  1 25  1  0
  1 26  1  0
  4 27  1  0
  5 28  1  0
 11 29  1  0
 12 30  1  0
 14 31  1  0
 21 32  1  0
 22 33  1  0
 23 34  1  0
M  CHG  2   9  -1  17  -1
M  END
>  <UniqueID>  (37) 
34

>  <SMILES>  (37) 
COc1ccc(C(=O)[N-]c2ccc3[nH]c(=O)[n-]c(=O)c3c2)cc1

>  <Energy>  (37) 
45.68000240622047

>  <Genealogy>  (37) 
COc1ccc(C(=O)[N-]c2ccc3[nH]c(=O)[n-]c(=O)c3c2)cc1 (protonated)
COc1ccc(C(=O)[N-]c2ccc3[nH]c(=O)[n-]c(=O)c3c2)cc1 (3D coordinates assigned)
COc1ccc(C(=O)[N-]c2ccc3[nH]c(=O)[n-]c(=O)c3c2)cc1 (optimized conformer: 45.68000240622047 kcal/mol)

>  <smiles>  (37) 
COc1ccc(C(=O)Nc2ccc3[nH]c(=O)[nH]c(=O)c3c2)cc1

>  <score_type>  (37) 
oracle

>  <origin>  (37) 
adg

>  <m_score__min__energy>  (37) 
-10.69

>  <m_primary>  (37) 
energy

$$$$
37:0
     RDKit          3D

 63 67  0  0  0  0  0  0  0  0999 V2000
   64.2490   33.3900   48.6570 C   0  0  0  0  0  0  0  0  0  0  0  0
   64.4110   32.3970   49.7760 C   0  0  0  0  0  0  0  0  0  0  0  0
   65.6940   31.9940   50.1560 C   0  0  0  0  0  0  0  0  0  0  0  0
   65.8600   31.0900   51.1990 C   0  0  0  0  0  0  0  0  0  0  0  0
   64.7420   30.5940   51.8660 C   0  0  0  0  0  0  0  0  0  0  0  0
   63.4770   30.9950   51.5170 N   0  0  0  0  0  0  0  0  0  0  0  0
   62.3810   30.5040   52.1850 C   0  0  0  0  0  0  0  0  0  0  0  0
   62.5260   29.6700   53.1250 O   0  0  0  0  0  0  0  0  0  0  0  0
   61.0850   30.9300   51.8320 C   0  0  0  0  0  0  0  0  0  0  0  0
   59.9480   30.4700   52.4980 C   0  0  0  0  0  0  0  0  0  0  0  0
   58.6820   30.9410   52.1480 C   0  0  0  0  0  0  0  0  0  0  0  0
   57.5270   30.4810   52.9450 C   0  0  0  0  0  0  0  0  0  0  0  0
   56.6300   31.3070   53.2680 O   0  0  0  0  0  0  0  0  0  0  0  0
   57.3910   29.0950   53.2960 N   0  0  0  0  0  0  0  0  0  0  0  0
   56.2550   28.5860   54.0570 C   0  0  0  0  0  0  0  0  0  0  0  0
   55.0210   29.3750   53.7310 C   0  0  0  0  0  0  0  0  0  0  0  0
   54.5520   29.4690   52.4130 C   0  0  0  0  0  0  0  0  0  0  0  0
   53.3840   30.1860   52.1510 C   0  0  0  0  0  0  0  0  0  0  0  0
   52.6920   30.8050   53.1990 C   0  0  0  0  0  0  0  0  0  0  0  0
   51.2080   31.6970   52.8890 S   0  0  0  0  0  0  0  0  0  0  0  0
   51.2590   32.3690   51.2980 N   0  0  0  0  0  0  0  0  0  0  0  0
   51.0610   32.8050   53.8950 O   0  0  0  0  0  0  0  0  0  0  0  0
   50.0260   30.7770   53.0090 O   0  0  0  0  0  0  0  0  0  0  0  0
   53.1860   30.6780   54.5030 C   0  0  0  0  0  0  0  0  0  0  0  0
   54.3250   29.9730   54.7370 N   0  0  0  0  0  0  0  0  0  0  0  0
   58.5610   31.8630   51.0780 C   0  0  0  0  0  0  0  0  0  0  0  0
   57.3880   32.2570   50.6730 N   0  0  0  0  0  0  0  0  0  0  0  0
   59.6910   32.3250   50.4340 N   0  0  0  0  0  0  0  0  0  0  0  0
   59.5670   33.3790   49.3980 C   0  0  0  0  0  0  0  0  0  0  0  0
   60.0290   32.8650   48.0250 C   0  0  0  0  0  0  0  0  0  0  0  0
   59.1910   33.4300   46.9080 C   0  0  0  0  0  0  0  0  0  0  0  0
   59.7570   34.3210   45.9790 C   0  0  0  0  0  0  0  0  0  0  0  0
   59.0010   34.7860   44.8990 C   0  0  0  0  0  0  0  0  0  0  0  0
   57.6770   34.3720   44.7410 C   0  0  0  0  0  0  0  0  0  0  0  0
   57.1050   33.4890   45.6620 C   0  0  0  0  0  0  0  0  0  0  0  0
   57.8610   33.0140   46.7390 C   0  0  0  0  0  0  0  0  0  0  0  0
   60.9380   31.8630   50.7940 C   0  0  0  0  0  0  0  0  0  0  0  0
   62.0520   32.3120   50.1590 N   0  0  0  0  0  0  0  0  0  0  0  0
   63.3010   31.8980   50.4900 C   0  0  0  0  0  0  0  0  0  0  0  0
   64.0854   34.3931   49.0778 H   0  0  0  0  0  0  0  0  0  0  0  0
   65.1580   33.3960   48.0376 H   0  0  0  0  0  0  0  0  0  0  0  0
   63.3852   33.1068   48.0376 H   0  0  0  0  0  0  0  0  0  0  0  0
   66.5736   32.3925   49.6292 H   0  0  0  0  0  0  0  0  0  0  0  0
   66.8690   30.7680   51.4961 H   0  0  0  0  0  0  0  0  0  0  0  0
   64.8752   29.8707   52.6840 H   0  0  0  0  0  0  0  0  0  0  0  0
   60.0507   29.7301   53.3054 H   0  0  0  0  0  0  0  0  0  0  0  0
   58.1140   28.4150   52.9670 H   0  0  0  0  0  0  0  0  0  0  0  0
   56.0895   27.5292   53.8006 H   0  0  0  0  0  0  0  0  0  0  0  0
   56.4698   28.6811   55.1316 H   0  0  0  0  0  0  0  0  0  0  0  0
   55.0999   28.9819   51.5929 H   0  0  0  0  0  0  0  0  0  0  0  0
   53.0068   30.2650   51.1207 H   0  0  0  0  0  0  0  0  0  0  0  0
   50.3020   32.2640   50.8920 H   0  0  0  0  0  0  0  0  0  0  0  0
   52.6512   31.1498   55.3405 H   0  0  0  0  0  0  0  0  0  0  0  0
   56.5120   32.2070   51.2370 H   0  0  0  0  0  0  0  0  0  0  0  0
   58.5148   33.6920   49.3286 H   0  0  0  0  0  0  0  0  0  0  0  0
   60.2055   34.2273   49.6856 H   0  0  0  0  0  0  0  0  0  0  0  0
   61.0772   33.1594   47.8683 H   0  0  0  0  0  0  0  0  0  0  0  0
   59.9214   31.7703   48.0146 H   0  0  0  0  0  0  0  0  0  0  0  0
   60.7983   34.6533   46.1025 H   0  0  0  0  0  0  0  0  0  0  0  0
   59.4500   35.4792   44.1724 H   0  0  0  0  0  0  0  0  0  0  0  0
   57.0835   34.7407   43.8914 H   0  0  0  0  0  0  0  0  0  0  0  0
   56.0601   33.1677   45.5396 H   0  0  0  0  0  0  0  0  0  0  0  0
   57.4114   32.3117   47.4563 H   0  0  0  0  0  0  0  0  0  0  0  0
  1  2  1  0
  2  3  2  0
  3  4  1  0
  4  5  2  0
  5  6  1  0
  6  7  1  0
  7  8  2  0
  7  9  1  0
  9 10  1  0
 10 11  2  0
 11 12  1  0
 12 13  2  0
 12 14  1  0
 14 15  1  0
 15 16  1  0
 16 17  2  0
 17 18  1  0
 18 19  2  0
 19 20  1  0
 20 21  1  0
 20 22  2  0
 20 23  2  0
 19 24  1  0
 24 25  2  0
 11 26  1  0
 26 27  2  3
 26 28  1  0
 28 29  1  0
 29 30  1  0
 30 31  1  0
 31 32  2  0
 32 33  1  0
 33 34  2  0
 34 35  1  0
 35 36  2  0
 28 37  1  0
 37 38  1  0
 38 39  2  0
 39  2  1  0
 39  6  1  0
 37  9  2  0
 25 16  1  0
 36 31  1  0
  1 40  1  0
  1 41  1  0
  1 42  1  0
  3 43  1  0
  4 44  1  0
  5 45  1  0
 10 46  1  0
 14 47  1  0
 15 48  1  0
 15 49  1  0
 17 50  1  0
 18 51  1  0
 21 52  1  0
 24 53  1  0
 27 54  1  0
 29 55  1  0
 29 56  1  0
 30 57  1  0
 30 58  1  0
 32 59  1  0
 33 60  1  0
 34 61  1  0
 35 62  1  0
 36 63  1  0
M  CHG  1  21  -1
M  END
>  <UniqueID>  (38) 
35

>  <SMILES>  (38) 
Cc1cccn2c(=O)c3cc(C(=O)NCc4ccc(S([NH-])(=O)=O)cn4)c(=N)n(CCc4ccccc4)c3nc12

>  <Energy>  (38) 
83.45691924430596

>  <Genealogy>  (38) 
Cc1cccn2c(=O)c3cc(C(=O)NCc4ccc(S([NH-])(=O)=O)cn4)c(=N)n(CCc4ccccc4)c3nc12 (protonated)
Cc1cccn2c(=O)c3cc(C(=O)NCc4ccc(S([NH-])(=O)=O)cn4)c(=N)n(CCc4ccccc4)c3nc12 (3D coordinates assigned)
Cc1cccn2c(=O)c3cc(C(=O)NCc4ccc(S([NH-])(=O)=O)cn4)c(=N)n(CCc4ccccc4)c3nc12 (optimized conformer: 83.45691924430596 kcal/mol)

>  <smiles>  (38) 
Cc1cccn2c(=O)c3cc(C(=O)NCc4ccc(S(N)(=O)=O)cn4)c(=N)n(CCc4ccccc4)c3nc12

>  <score_type>  (38) 
oracle

>  <origin>  (38) 
adg

>  <m_score__min__energy>  (38) 
-11.6

>  <m_primary>  (38) 
energy

$$$$
38:0
     RDKit          3D

 36 38  0  0  1  0  0  0  0  0999 V2000
   55.9160   24.8050   47.4540 O   0  0  0  0  0  0  0  0  0  0  0  0
   56.0570   25.3550   46.0250 S   0  0  0  0  0  0  0  0  0  0  0  0
   54.6930   25.9140   45.7360 O   0  0  0  0  0  0  0  0  0  0  0  0
   57.2780   26.5600   46.1740 N   0  0  0  0  0  0  0  0  0  0  0  0
   57.1630   27.7460   45.7050 C   0  0  0  0  0  0  0  0  0  0  0  0
   55.9680   28.1920   45.2250 N   0  0  0  0  0  0  0  0  0  0  0  0
   55.8280   29.4360   44.7280 C   0  0  0  0  0  0  0  0  0  0  0  0
   56.9230   30.2860   44.7020 C   0  0  0  0  0  0  0  0  0  0  0  0
   58.1320   29.8350   45.1870 C   0  0  0  0  0  0  0  0  0  0  0  0
   59.1310   30.6510   45.1490 N   0  0  0  0  0  0  0  0  0  0  0  0
   58.9040   31.9730   45.6250 C   0  0  0  0  0  0  0  0  0  0  0  0
   59.0850   32.1940   46.9910 C   0  0  0  0  0  0  0  0  0  0  0  0
   58.8680   33.4850   47.4820 C   0  0  0  0  0  0  0  0  0  0  0  0
   58.4900   34.4910   46.6450 C   0  0  0  0  0  0  0  0  0  0  0  0
   58.3090   34.2790   45.2880 C   0  0  0  0  0  0  0  0  0  0  0  0
   58.5170   33.0090   44.7780 C   0  0  0  0  0  0  0  0  0  0  0  0
   58.2100   28.5830   45.6710 N   0  0  0  0  0  0  0  0  0  0  0  0
   56.5050   24.0420   44.9830 C   0  0  0  0  0  0  0  0  0  0  0  0
   57.7150   23.4010   44.9980 C   0  0  0  0  0  0  0  0  0  0  0  0
   57.9740   22.3590   44.1260 C   0  0  0  0  0  0  0  0  0  0  0  0
   57.0310   21.9180   43.2020 C   0  0  0  0  0  0  0  0  0  0  0  0
   55.8490   22.5670   43.2080 N   0  0  0  0  0  0  0  0  0  0  0  0
   55.5730   23.5840   44.0470 C   0  0  0  0  0  0  0  0  0  0  0  0
   55.1450   27.5250   45.2550 H   0  0  0  0  0  0  0  0  0  0  0  0
   54.8535   29.7746   44.3461 H   0  0  0  0  0  0  0  0  0  0  0  0
   56.8284   31.3056   44.3001 H   0  0  0  0  0  0  0  0  0  0  0  0
   59.3893   31.3768   47.6615 H   0  0  0  0  0  0  0  0  0  0  0  0
   59.0038   33.6902   48.5541 H   0  0  0  0  0  0  0  0  0  0  0  0
   58.3243   35.4973   47.0571 H   0  0  0  0  0  0  0  0  0  0  0  0
   58.0055   35.1048   44.6278 H   0  0  0  0  0  0  0  0  0  0  0  0
   58.3767   32.8179   43.7039 H   0  0  0  0  0  0  0  0  0  0  0  0
   59.1300   28.2640   46.0320 H   0  0  0  0  0  0  0  0  0  0  0  0
   58.4897   23.7183   45.7115 H   0  0  0  0  0  0  0  0  0  0  0  0
   58.9554   21.8636   44.1639 H   0  0  0  0  0  0  0  0  0  0  0  0
   57.2376   21.0896   42.5084 H   0  0  0  0  0  0  0  0  0  0  0  0
   54.5865   24.0678   43.9942 H   0  0  0  0  0  0  0  0  0  0  0  0
  1  2  2  0
  2  3  2  0
  2  4  1  0
  4  5  2  0
  5  6  1  0
  6  7  1  0
  7  8  2  0
  8  9  1  0
  9 10  2  0
 10 11  1  0
 11 12  2  0
 12 13  1  0
 13 14  2  0
 14 15  1  0
 15 16  2  0
  9 17  1  0
  2 18  1  0
 18 19  2  0
 19 20  1  0
 20 21  2  0
 21 22  1  0
 22 23  2  0
 17  5  1  0
 23 18  1  0
 16 11  1  0
  6 24  1  0
  7 25  1  0
  8 26  1  0
 12 27  1  0
 13 28  1  0
 14 29  1  0
 15 30  1  0
 16 31  1  0
 17 32  1  0
 19 33  1  0
 20 34  1  0
 21 35  1  0
 23 36  1  0
M  END
>  <smiles>  (39) 
O=S(=O)(N=c1[nH]ccc(=Nc2ccccc2)[nH]1)c1cccnc1

>  <score_type>  (39) 
oracle

>  <origin>  (39) 
adg

>  <m_score__min__energy>  (39) 
-8.5999999999999996

>  <m_primary>  (39) 
energy

$$$$
39:0
     RDKit          3D

 44 45  0  0  0  0  0  0  0  0999 V2000
   63.7500   32.8720   47.1110 C   0  0  0  0  0  0  0  0  0  0  0  0
   62.6150   33.8830   46.9520 C   0  0  0  0  0  0  0  0  0  0  0  0
   61.3040   33.2170   46.9380 N   0  0  0  0  0  0  0  0  0  0  0  0
   61.2120   31.7690   47.1540 C   0  0  0  0  0  0  0  0  0  0  0  0
   60.6320   31.4940   48.5090 C   0  0  0  0  0  0  0  0  0  0  0  0
   61.2530   30.7270   49.2950 O   0  0  0  0  0  0  0  0  0  0  0  0
   59.3920   32.1050   48.9060 N   0  0  0  0  0  0  0  0  0  0  0  0
   58.8470   32.0140   50.2330 C   0  0  0  0  0  0  0  0  0  0  0  0
   58.8720   33.1180   51.1090 C   0  0  0  0  0  0  0  0  0  0  0  0
   58.3180   33.0170   52.3890 C   0  0  0  0  0  0  0  0  0  0  0  0
   57.7250   31.8200   52.8030 C   0  0  0  0  0  0  0  0  0  0  0  0
   57.1810   31.7290   54.0420 F   0  0  0  0  0  0  0  0  0  0  0  0
   57.6740   30.7240   51.9330 C   0  0  0  0  0  0  0  0  0  0  0  0
   57.0880   29.5660   52.3350 F   0  0  0  0  0  0  0  0  0  0  0  0
   58.2280   30.8210   50.6500 C   0  0  0  0  0  0  0  0  0  0  0  0
   58.1700   29.7500   49.8180 F   0  0  0  0  0  0  0  0  0  0  0  0
   60.1050   33.9930   46.7740 C   0  0  0  0  0  0  0  0  0  0  0  0
   59.5710   34.5430   47.7750 O   0  0  0  0  0  0  0  0  0  0  0  0
   59.4390   34.1000   45.4310 C   0  0  0  0  0  0  0  0  0  0  0  0
   57.6210   34.0510   45.5970 S   0  0  0  0  0  0  0  0  0  0  0  0
   57.5100   32.2650   45.5010 C   0  0  0  0  0  0  0  0  0  0  0  0
   56.7500   31.6860   44.5350 N   0  0  0  0  0  0  0  0  0  0  0  0
   56.6800   30.3330   44.4140 C   0  0  0  0  0  0  0  0  0  0  0  0
   55.8650   29.7300   43.3140 C   0  0  0  0  0  0  0  0  0  0  0  0
   57.4090   29.5210   45.2920 C   0  0  0  0  0  0  0  0  0  0  0  0
   58.1790   30.1360   46.2810 C   0  0  0  0  0  0  0  0  0  0  0  0
   58.8370   29.4370   47.0960 O   0  0  0  0  0  0  0  0  0  0  0  0
   58.2210   31.4920   46.3650 N   0  0  0  0  0  0  0  0  0  0  0  0
   63.9417   32.7012   48.1806 H   0  0  0  0  0  0  0  0  0  0  0  0
   63.4652   31.9229   46.6334 H   0  0  0  0  0  0  0  0  0  0  0  0
   64.6600   33.2642   46.6334 H   0  0  0  0  0  0  0  0  0  0  0  0
   62.6473   34.5929   47.7917 H   0  0  0  0  0  0  0  0  0  0  0  0
   62.7485   34.4068   45.9940 H   0  0  0  0  0  0  0  0  0  0  0  0
   60.5653   31.3250   46.3829 H   0  0  0  0  0  0  0  0  0  0  0  0
   62.2178   31.3278   47.0928 H   0  0  0  0  0  0  0  0  0  0  0  0
   58.8110   32.5560   48.1640 H   0  0  0  0  0  0  0  0  0  0  0  0
   59.3297   34.0640   50.7840 H   0  0  0  0  0  0  0  0  0  0  0  0
   58.3487   33.8797   53.0708 H   0  0  0  0  0  0  0  0  0  0  0  0
   59.7317   35.0494   44.9588 H   0  0  0  0  0  0  0  0  0  0  0  0
   59.7578   33.2480   44.8126 H   0  0  0  0  0  0  0  0  0  0  0  0
   55.0522   29.1286   43.7472 H   0  0  0  0  0  0  0  0  0  0  0  0
   55.4376   30.5310   42.6930 H   0  0  0  0  0  0  0  0  0  0  0  0
   56.5060   29.0870   42.6930 H   0  0  0  0  0  0  0  0  0  0  0  0
   57.3757   28.4250   45.2044 H   0  0  0  0  0  0  0  0  0  0  0  0
  1  2  1  0
  2  3  1  0
  3  4  1  0
  4  5  1  0
  5  6  2  0
  5  7  1  0
  7  8  1  0
  8  9  2  0
  9 10  1  0
 10 11  2  0
 11 12  1  0
 11 13  1  0
 13 14  1  0
 13 15  2  0
 15 16  1  0
  3 17  1  0
 17 18  2  0
 17 19  1  0
 19 20  1  0
 20 21  1  0
 21 22  2  0
 22 23  1  0
 23 24  1  0
 23 25  2  0
 25 26  1  0
 26 27  2  0
 26 28  1  0
 15  8  1  0
 28 21  1  0
  1 29  1  0
  1 30  1  0
  1 31  1  0
  2 32  1  0
  2 33  1  0
  4 34  1  0
  4 35  1  0
  7 36  1  0
  9 37  1  0
 10 38  1  0
 19 39  1  0
 19 40  1  0
 24 41  1  0
 24 42  1  0
 24 43  1  0
 25 44  1  0
M  CHG  1  28  -1
M  END
>  <UniqueID>  (40) 
36

>  <SMILES>  (40) 
CCN(CC(=O)Nc1ccc(F)c(F)c1F)C(=O)CSc1nc(C)cc(=O)[n-]1

>  <Energy>  (40) 
41.75681820369026

>  <Genealogy>  (40) 
CCN(CC(=O)Nc1ccc(F)c(F)c1F)C(=O)CSc1nc(C)cc(=O)[n-]1 (protonated)
CCN(CC(=O)Nc1ccc(F)c(F)c1F)C(=O)CSc1nc(C)cc(=O)[n-]1 (3D coordinates assigned)
CCN(CC(=O)Nc1ccc(F)c(F)c1F)C(=O)CSc1nc(C)cc(=O)[n-]1 (optimized conformer: 41.75681820369026 kcal/mol)

>  <smiles>  (40) 
CCN(CC(=O)Nc1ccc(F)c(F)c1F)C(=O)CSc1nc(C)cc(=O)[nH]1

>  <score_type>  (40) 
oracle

>  <origin>  (40) 
adg

>  <m_score__min__energy>  (40) 
-8.8200000000000003

>  <m_primary>  (40) 
energy

$$$$
40:0
     RDKit          3D

 66 69  0  0  0  0  0  0  0  0999 V2000
   56.5260   23.9040   48.2250 C   0  0  0  0  0  0  0  0  0  0  0  0
   57.2290   24.7080   47.1770 C   0  0  0  0  0  0  0  0  0  0  0  0
   58.3110   25.4760   47.4080 N   0  0  0  0  0  0  0  0  0  0  0  0
   58.6540   26.0820   46.2810 N   0  0  0  0  0  0  0  0  0  0  0  0
   59.7490   27.0510   46.1850 C   0  0  0  0  0  0  0  0  0  0  0  0
   59.7260   27.9920   47.3610 C   0  0  0  0  0  0  0  0  0  0  0  0
   60.7620   27.9430   48.3050 C   0  0  0  0  0  0  0  0  0  0  0  0
   60.7660   28.8150   49.3960 C   0  0  0  0  0  0  0  0  0  0  0  0
   59.7300   29.7390   49.5730 C   0  0  0  0  0  0  0  0  0  0  0  0
   59.8060   30.6550   50.6770 N   0  0  0  0  0  0  0  0  0  0  0  0
   60.4230   31.9490   50.6750 C   0  0  0  0  0  0  0  0  0  0  0  0
   60.8200   32.4600   51.7560 O   0  0  0  0  0  0  0  0  0  0  0  0
   60.6510   32.6370   49.3850 C   0  0  0  0  0  0  0  0  0  0  0  0
   59.6530   33.2650   48.6650 C   0  0  0  0  0  0  0  0  0  0  0  0
   60.2540   33.8290   47.5550 C   0  0  0  0  0  0  0  0  0  0  0  0
   59.5840   34.6780   46.5410 C   0  0  0  0  0  0  0  0  0  0  0  0
   60.2050   35.6540   46.0390 O   0  0  0  0  0  0  0  0  0  0  0  0
   58.1690   34.4180   46.1010 C   0  0  0  0  0  0  0  0  0  0  0  0
   58.0640   33.2340   45.1700 C   0  0  0  0  0  0  0  0  0  0  0  0
   58.1240   33.4310   43.7780 C   0  0  0  0  0  0  0  0  0  0  0  0
   57.9740   32.3520   42.9000 C   0  0  0  0  0  0  0  0  0  0  0  0
   57.7570   31.0670   43.4020 C   0  0  0  0  0  0  0  0  0  0  0  0
   57.6890   30.8580   44.7800 C   0  0  0  0  0  0  0  0  0  0  0  0
   57.8350   31.9340   45.6660 C   0  0  0  0  0  0  0  0  0  0  0  0
   57.7480   31.7030   47.0020 F   0  0  0  0  0  0  0  0  0  0  0  0
   61.6030   33.4910   47.6210 C   0  0  0  0  0  0  0  0  0  0  0  0
   62.6450   33.8460   46.5950 C   0  0  0  0  0  0  0  0  0  0  0  0
   61.8460   32.7940   48.7600 N   0  0  0  0  0  0  0  0  0  0  0  0
   63.1450   32.2900   49.2190 C   0  0  0  0  0  0  0  0  0  0  0  0
   58.6960   29.8000   48.6220 C   0  0  0  0  0  0  0  0  0  0  0  0
   58.6890   28.9290   47.5270 C   0  0  0  0  0  0  0  0  0  0  0  0
   57.6840   29.0200   46.6220 F   0  0  0  0  0  0  0  0  0  0  0  0
   57.7920   25.7170   45.3040 C   0  0  0  0  0  0  0  0  0  0  0  0
   57.7760   26.2920   43.9180 C   0  0  0  0  0  0  0  0  0  0  0  0
   56.8670   24.8280   45.8420 C   0  0  0  0  0  0  0  0  0  0  0  0
   55.6670   24.2200   45.1710 C   0  0  0  0  0  0  0  0  0  0  0  0
   54.4250   24.9650   45.5430 C   0  0  0  0  0  0  0  0  0  0  0  0
   53.3040   24.3960   45.4820 O   0  0  0  0  0  0  0  0  0  0  0  0
   54.5040   26.2930   45.9540 O   0  0  0  0  0  0  0  0  0  0  0  0
   56.8319   24.2538   49.2220 H   0  0  0  0  0  0  0  0  0  0  0  0
   55.4385   24.0248   48.1117 H   0  0  0  0  0  0  0  0  0  0  0  0
   56.7908   22.8424   48.1117 H   0  0  0  0  0  0  0  0  0  0  0  0
   58.7930   25.6100   48.3270 H   0  0  0  0  0  0  0  0  0  0  0  0
   60.7083   26.5129   46.1708 H   0  0  0  0  0  0  0  0  0  0  0  0
   59.6275   27.6344   45.2604 H   0  0  0  0  0  0  0  0  0  0  0  0
   61.5764   27.2133   48.1854 H   0  0  0  0  0  0  0  0  0  0  0  0
   61.5909   28.7751   50.1226 H   0  0  0  0  0  0  0  0  0  0  0  0
   58.5850   33.3080   48.9250 H   0  0  0  0  0  0  0  0  0  0  0  0
   57.5525   34.2234   46.9909 H   0  0  0  0  0  0  0  0  0  0  0  0
   57.8191   35.3063   45.5546 H   0  0  0  0  0  0  0  0  0  0  0  0
   58.2902   34.4417   43.3768 H   0  0  0  0  0  0  0  0  0  0  0  0
   58.0270   32.5160   41.8136 H   0  0  0  0  0  0  0  0  0  0  0  0
   57.6396   30.2193   42.7109 H   0  0  0  0  0  0  0  0  0  0  0  0
   57.5201   29.8444   45.1725 H   0  0  0  0  0  0  0  0  0  0  0  0
   63.5682   34.1605   47.1037 H   0  0  0  0  0  0  0  0  0  0  0  0
   62.8539   32.9683   45.9657 H   0  0  0  0  0  0  0  0  0  0  0  0
   62.2746   34.6686   45.9657 H   0  0  0  0  0  0  0  0  0  0  0  0
   63.1672   32.2814   50.3187 H   0  0  0  0  0  0  0  0  0  0  0  0
   63.2961   31.2680   48.8412 H   0  0  0  0  0  0  0  0  0  0  0  0
   63.9458   32.9427   48.8412 H   0  0  0  0  0  0  0  0  0  0  0  0
   57.8878   30.5369   48.7396 H   0  0  0  0  0  0  0  0  0  0  0  0
   57.7455   27.3900   43.9769 H   0  0  0  0  0  0  0  0  0  0  0  0
   58.6832   25.9787   43.3806 H   0  0  0  0  0  0  0  0  0  0  0  0
   56.8876   25.9288   43.3806 H   0  0  0  0  0  0  0  0  0  0  0  0
   55.8018   24.2630   44.0801 H   0  0  0  0  0  0  0  0  0  0  0  0
   55.5669   23.1751   45.5000 H   0  0  0  0  0  0  0  0  0  0  0  0
  1  2  1  0
  2  3  2  0
  3  4  1  0
  4  5  1  0
  5  6  1  0
  6  7  2  0
  7  8  1  0
  8  9  2  0
  9 10  1  0
 10 11  1  0
 11 12  2  0
 11 13  1  0
 13 14  2  0
 14 15  1  0
 15 16  1  0
 16 17  2  0
 16 18  1  0
 18 19  1  0
 19 20  2  0
 20 21  1  0
 21 22  2  0
 22 23  1  0
 23 24  2  0
 24 25  1  0
 15 26  2  0
 26 27  1  0
 26 28  1  0
 28 29  1  0
  9 30  1  0
 30 31  2  0
 31 32  1  0
  4 33  1  0
 33 34  1  0
 33 35  2  0
 35 36  1  0
 36 37  1  0
 37 38  2  0
 37 39  1  0
 35  2  1  0
 31  6  1  0
 28 13  1  0
 24 19  1  0
  1 40  1  0
  1 41  1  0
  1 42  1  0
  3 43  1  0
  5 44  1  0
  5 45  1  0
  7 46  1  0
  8 47  1  0
 14 48  1  0
 18 49  1  0
 18 50  1  0
 20 51  1  0
 21 52  1  0
 22 53  1  0
 23 54  1  0
 27 55  1  0
 27 56  1  0
 27 57  1  0
 29 58  1  0
 29 59  1  0
 29 60  1  0
 30 61  1  0
 34 62  1  0
 34 63  1  0
 34 64  1  0
 36 65  1  0
 36 66  1  0
M  CHG  3   3   1  10  -1  39  -1
M  END
>  <UniqueID>  (41) 
37

>  <SMILES>  (41) 
Cc1[nH+]n(Cc2ccc([N-]C(=O)c3cc(C(=O)Cc4ccccc4F)c(C)n3C)cc2F)c(C)c1CC(=O)[O-]

>  <Energy>  (41) 
128.13134785477084

>  <Genealogy>  (41) 
Cc1[nH+]n(Cc2ccc([N-]C(=O)c3cc(C(=O)Cc4ccccc4F)c(C)n3C)cc2F)c(C)c1CC(=O)[O-] (protonated)
Cc1[nH+]n(Cc2ccc([N-]C(=O)c3cc(C(=O)Cc4ccccc4F)c(C)n3C)cc2F)c(C)c1CC(=O)[O-] (3D coordinates assigned)
Cc1[nH+]n(Cc2ccc([N-]C(=O)c3cc(C(=O)Cc4ccccc4F)c(C)n3C)cc2F)c(C)c1CC(=O)[O-] (optimized conformer: 128.13134785477084 kcal/mol)

>  <smiles>  (41) 
Cc1nn(Cc2ccc(NC(=O)c3cc(C(=O)Cc4ccccc4F)c(C)n3C)cc2F)c(C)c1CC(=O)O

>  <score_type>  (41) 
oracle

>  <origin>  (41) 
adg

>  <m_score__min__energy>  (41) 
-13.369999999999999

>  <m_primary>  (41) 
energy

$$$$
41:0
     RDKit          3D

 89 94  0  0  0  0  0  0  0  0999 V2000
   55.5840   22.7410   48.9280 O   0  0  0  0  0  0  0  0  0  0  0  0
   56.1160   22.9290   47.8010 C   0  0  0  0  0  0  0  0  0  0  0  0
   55.5720   24.0150   46.9060 C   0  0  0  0  0  0  0  0  0  0  0  0
   56.2440   25.3260   47.0590 N   0  0  0  0  0  0  0  0  0  0  0  0
   57.5100   25.2880   47.8420 C   0  0  0  0  0  0  0  0  0  0  0  0
   58.6960   25.8910   47.0810 C   0  0  0  0  0  0  0  0  0  0  0  0
   58.3350   27.2320   46.6030 N   0  0  0  0  0  0  0  0  0  0  0  0
   59.2290   28.3490   46.7950 C   0  0  0  0  0  0  0  0  0  0  0  0
   60.2670   28.5980   45.8820 C   0  0  0  0  0  0  0  0  0  0  0  0
   61.0890   29.7150   46.0350 C   0  0  0  0  0  0  0  0  0  0  0  0
   60.9160   30.5780   47.1230 C   0  0  0  0  0  0  0  0  0  0  0  0
   61.8940   32.0360   47.2030 Cl  0  0  0  0  0  0  0  0  0  0  0  0
   59.9330   30.2980   48.0920 C   0  0  0  0  0  0  0  0  0  0  0  0
   59.7470   31.1620   49.2300 N   0  0  0  0  0  0  0  0  0  0  0  0
   60.1330   30.7610   50.5980 C   0  0  2  0  0  0  0  0  0  0  0  0
   61.6200   30.3460   50.6840 C   0  0  0  0  0  0  0  0  0  0  0  0
   62.5700   31.5110   50.5330 C   0  0  0  0  0  0  0  0  0  0  0  0
   63.9100   31.2940   50.1660 C   0  0  0  0  0  0  0  0  0  0  0  0
   64.7820   32.3750   50.0070 C   0  0  0  0  0  0  0  0  0  0  0  0
   64.3210   33.6820   50.1920 C   0  0  0  0  0  0  0  0  0  0  0  0
   62.9810   33.9110   50.5140 C   0  0  0  0  0  0  0  0  0  0  0  0
   62.1050   32.8330   50.6690 C   0  0  0  0  0  0  0  0  0  0  0  0
   59.2220   29.6830   51.1210 C   0  0  0  0  0  0  0  0  0  0  0  0
   59.6670   28.5300   51.3660 O   0  0  0  0  0  0  0  0  0  0  0  0
   57.8230   29.9560   51.2540 N   0  0  0  0  0  0  0  0  0  0  0  0
   57.2230   30.5530   52.4400 C   0  0  0  0  0  0  0  0  0  0  0  0
   57.9780   31.7950   52.8180 C   0  0  0  0  0  0  0  0  0  0  0  0
   59.1790   31.7060   53.5450 C   0  0  0  0  0  0  0  0  0  0  0  0
   59.9000   32.8660   53.8520 C   0  0  0  0  0  0  0  0  0  0  0  0
   59.4300   34.1130   53.4300 C   0  0  0  0  0  0  0  0  0  0  0  0
   58.2420   34.2080   52.6990 C   0  0  0  0  0  0  0  0  0  0  0  0
   57.5210   33.0510   52.3870 C   0  0  0  0  0  0  0  0  0  0  0  0
   58.7810   32.5920   49.0270 S   0  0  0  0  0  0  0  0  0  0  0  0
   57.4010   32.3480   49.5690 O   0  0  0  0  0  0  0  0  0  0  0  0
   59.3910   33.7450   49.7770 O   0  0  0  0  0  0  0  0  0  0  0  0
   58.7140   32.9880   47.3160 C   0  0  0  0  0  0  0  0  0  0  0  0
   59.3410   34.1440   46.8250 C   0  0  0  0  0  0  0  0  0  0  0  0
   59.2300   34.4790   45.4710 C   0  0  0  0  0  0  0  0  0  0  0  0
   58.4900   33.6640   44.6070 C   0  0  0  0  0  0  0  0  0  0  0  0
   57.8530   32.5190   45.0940 C   0  0  0  0  0  0  0  0  0  0  0  0
   57.9610   32.1820   46.4470 C   0  0  0  0  0  0  0  0  0  0  0  0
   59.0610   29.2150   47.8870 C   0  0  0  0  0  0  0  0  0  0  0  0
   57.0160   27.4420   45.9920 C   0  0  0  0  0  0  0  0  0  0  0  0
   56.2730   26.1130   45.8060 C   0  0  0  0  0  0  0  0  0  0  0  0
   57.1620   22.0640   47.3440 N   0  0  0  0  0  0  0  0  0  0  0  0
   57.5150   21.7980   45.9780 C   0  0  0  0  0  0  0  0  0  0  0  0
   58.7940   22.0940   45.4700 C   0  0  0  0  0  0  0  0  0  0  0  0
   59.0860   21.8650   44.1220 C   0  0  0  0  0  0  0  0  0  0  0  0
   58.1030   21.3550   43.2650 C   0  0  0  0  0  0  0  0  0  0  0  0
   56.8260   21.0810   43.7560 C   0  0  0  0  0  0  0  0  0  0  0  0
   56.5290   21.3080   45.1060 C   0  0  0  0  0  0  0  0  0  0  0  0
   55.2800   21.0550   45.5670 F   0  0  0  0  0  0  0  0  0  0  0  0
   55.6859   23.6895   45.8614 H   0  0  0  0  0  0  0  0  0  0  0  0
   54.5214   24.1644   47.1957 H   0  0  0  0  0  0  0  0  0  0  0  0
   57.3647   25.8551   48.7732 H   0  0  0  0  0  0  0  0  0  0  0  0
   57.7456   24.2320   48.0406 H   0  0  0  0  0  0  0  0  0  0  0  0
   59.5652   25.9616   47.7515 H   0  0  0  0  0  0  0  0  0  0  0  0
   58.9480   25.2497   46.2235 H   0  0  0  0  0  0  0  0  0  0  0  0
   60.4328   27.9082   45.0413 H   0  0  0  0  0  0  0  0  0  0  0  0
   61.8779   29.9185   45.2959 H   0  0  0  0  0  0  0  0  0  0  0  0
   60.0154   31.6428   51.2450 H   0  0  0  0  0  0  0  0  0  0  0  0
   61.7961   29.8752   51.6624 H   0  0  0  0  0  0  0  0  0  0  0  0
   61.8158   29.6531   49.8524 H   0  0  0  0  0  0  0  0  0  0  0  0
   64.2738   30.2687   50.0032 H   0  0  0  0  0  0  0  0  0  0  0  0
   65.8331   32.1970   49.7358 H   0  0  0  0  0  0  0  0  0  0  0  0
   65.0134   34.5299   50.0840 H   0  0  0  0  0  0  0  0  0  0  0  0
   62.6152   34.9400   50.6456 H   0  0  0  0  0  0  0  0  0  0  0  0
   61.0454   33.0186   50.8987 H   0  0  0  0  0  0  0  0  0  0  0  0
   56.1750   30.8121   52.2287 H   0  0  0  0  0  0  0  0  0  0  0  0
   57.2651   29.8337   53.2712 H   0  0  0  0  0  0  0  0  0  0  0  0
   59.5518   30.7243   53.8725 H   0  0  0  0  0  0  0  0  0  0  0  0
   60.8362   32.7962   54.4252 H   0  0  0  0  0  0  0  0  0  0  0  0
   59.9972   35.0233   53.6741 H   0  0  0  0  0  0  0  0  0  0  0  0
   57.8750   35.1913   52.3698 H   0  0  0  0  0  0  0  0  0  0  0  0
   56.5925   33.1250   51.8018 H   0  0  0  0  0  0  0  0  0  0  0  0
   59.9197   34.7866   47.5048 H   0  0  0  0  0  0  0  0  0  0  0  0
   59.7244   35.3830   45.0857 H   0  0  0  0  0  0  0  0  0  0  0  0
   58.4094   33.9252   43.5415 H   0  0  0  0  0  0  0  0  0  0  0  0
   57.2672   31.8835   44.4135 H   0  0  0  0  0  0  0  0  0  0  0  0
   57.4552   31.2839   46.8312 H   0  0  0  0  0  0  0  0  0  0  0  0
   58.2347   29.0434   48.5926 H   0  0  0  0  0  0  0  0  0  0  0  0
   56.4196   28.0985   46.6426 H   0  0  0  0  0  0  0  0  0  0  0  0
   57.1594   27.9023   45.0033 H   0  0  0  0  0  0  0  0  0  0  0  0
   55.2398   26.3224   45.4918 H   0  0  0  0  0  0  0  0  0  0  0  0
   56.8039   25.5255   45.0425 H   0  0  0  0  0  0  0  0  0  0  0  0
   59.5662   22.5068   46.1358 H   0  0  0  0  0  0  0  0  0  0  0  0
   60.0910   22.0861   43.7335 H   0  0  0  0  0  0  0  0  0  0  0  0
   58.3372   21.1706   42.2062 H   0  0  0  0  0  0  0  0  0  0  0  0
   56.0514   20.6862   43.0821 H   0  0  0  0  0  0  0  0  0  0  0  0
  1  2  2  0
  2  3  1  0
  3  4  1  0
  4  5  1  0
  5  6  1  0
  6  7  1  0
  7  8  1  0
  8  9  2  0
  9 10  1  0
 10 11  2  0
 11 12  1  0
 11 13  1  0
 13 14  1  0
 14 15  1  0
 15 16  1  0
 16 17  1  0
 17 18  2  0
 18 19  1  0
 19 20  2  0
 20 21  1  0
 21 22  2  0
 15 23  1  0
 23 24  2  0
 23 25  1  0
 25 26  1  0
 26 27  1  0
 27 28  2  0
 28 29  1  0
 29 30  2  0
 30 31  1  0
 31 32  2  0
 14 33  1  0
 33 34  2  0
 33 35  2  0
 33 36  1  0
 36 37  2  0
 37 38  1  0
 38 39  2  0
 39 40  1  0
 40 41  2  0
 13 42  2  0
  7 43  1  0
 43 44  1  0
  2 45  1  0
 45 46  1  0
 46 47  2  0
 47 48  1  0
 48 49  2  0
 49 50  1  0
 50 51  2  0
 51 52  1  0
 44  4  1  0
 51 46  1  0
 42  8  1  0
 22 17  1  0
 32 27  1  0
 41 36  1  0
  3 53  1  0
  3 54  1  0
  5 55  1  0
  5 56  1  0
  6 57  1  0
  6 58  1  0
  9 59  1  0
 10 60  1  0
 15 61  1  1
 16 62  1  0
 16 63  1  0
 18 64  1  0
 19 65  1  0
 20 66  1  0
 21 67  1  0
 22 68  1  0
 26 69  1  0
 26 70  1  0
 28 71  1  0
 29 72  1  0
 30 73  1  0
 31 74  1  0
 32 75  1  0
 37 76  1  0
 38 77  1  0
 39 78  1  0
 40 79  1  0
 41 80  1  0
 42 81  1  0
 43 82  1  0
 43 83  1  0
 44 84  1  0
 44 85  1  0
 47 86  1  0
 48 87  1  0
 49 88  1  0
 50 89  1  0
M  CHG  2  25  -1  45  -1
M  END
>  <UniqueID>  (42) 
38

>  <SMILES>  (42) 
O=C(CN1CCN(c2ccc(Cl)c(N([C@H](Cc3ccccc3)C(=O)[N-]Cc3ccccc3)S(=O)(=O)c3ccccc3)c2)CC1)[N-]c1ccccc1F

>  <Energy>  (42) 
114.98610318064532

>  <Genealogy>  (42) 
O=C(CN1CCN(c2ccc(Cl)c(N(C(Cc3ccccc3)C(=O)[N-]Cc3ccccc3)S(=O)(=O)c3ccccc3)c2)CC1)[N-]c1ccccc1F (protonated)
O=C(CN1CCN(c2ccc(Cl)c(N([C@H](Cc3ccccc3)C(=O)[N-]Cc3ccccc3)S(=O)(=O)c3ccccc3)c2)CC1)[N-]c1ccccc1F (chirality)
O=C(CN1CCN(c2ccc(Cl)c(N([C@H](Cc3ccccc3)C(=O)[N-]Cc3ccccc3)S(=O)(=O)c3ccccc3)c2)CC1)[N-]c1ccccc1F (3D coordinates assigned)
O=C(CN1CCN(c2ccc(Cl)c(N([C@H](Cc3ccccc3)C(=O)[N-]Cc3ccccc3)S(=O)(=O)c3ccccc3)c2)CC1)[N-]c1ccccc1F (nonaromatic ring conformer: 114.98610318064532 kcal/mol)

>  <smiles>  (42) 
O=C(CN1CCN(c2ccc(Cl)c(N(C(Cc3ccccc3)C(=O)NCc3ccccc3)S(=O)(=O)c3ccccc3)c2)CC1)Nc1ccccc1F

>  <score_type>  (42) 
oracle

>  <origin>  (42) 
adg

>  <m_score__min__energy>  (42) 
-14.279999999999999

>  <m_primary>  (42) 
energy

$$$$
42:0
     RDKit          3D

 55 59  0  0  0  0  0  0  0  0999 V2000
   66.6590   33.1060   50.2460 C   0  0  0  0  0  0  0  0  0  0  0  0
   65.2910   32.7870   49.7310 C   0  0  0  0  0  0  0  0  0  0  0  0
   64.7720   33.3790   48.6240 N   0  0  0  0  0  0  0  0  0  0  0  0
   63.5370   32.8490   48.5480 C   0  0  0  0  0  0  0  0  0  0  0  0
   62.5560   33.1330   47.6100 C   0  0  0  0  0  0  0  0  0  0  0  0
   61.2990   32.4920   47.7370 C   0  0  0  0  0  0  0  0  0  0  0  0
   60.2690   32.7600   46.8240 C   0  0  0  0  0  0  0  0  0  0  0  0
   60.4680   33.5450   45.8540 O   0  0  0  0  0  0  0  0  0  0  0  0
   59.0180   32.1480   46.9830 C   0  0  0  0  0  0  0  0  0  0  0  0
   57.8780   32.4720   46.0940 C   0  0  0  0  0  0  0  0  0  0  0  0
   57.4390   33.6510   46.0600 O   0  0  0  0  0  0  0  0  0  0  0  0
   57.2400   31.4740   45.2860 N   0  0  0  0  0  0  0  0  0  0  0  0
   57.7620   30.1680   44.9860 C   0  0  0  0  0  0  0  0  0  0  0  0
   59.1450   29.9610   44.8170 C   0  0  0  0  0  0  0  0  0  0  0  0
   59.6390   28.6880   44.5220 C   0  0  0  0  0  0  0  0  0  0  0  0
   58.7590   27.6110   44.3750 C   0  0  0  0  0  0  0  0  0  0  0  0
   57.3840   27.8080   44.5150 C   0  0  0  0  0  0  0  0  0  0  0  0
   56.8750   29.0830   44.8140 C   0  0  0  0  0  0  0  0  0  0  0  0
   55.4600   29.2620   44.9500 N   0  0  0  0  0  0  0  0  0  0  0  0
   58.8350   31.2280   48.0190 C   0  0  0  0  0  0  0  0  0  0  0  0
   59.8290   30.9510   48.9200 N   0  0  0  0  0  0  0  0  0  0  0  0
   59.5090   30.0130   50.0180 C   0  0  0  0  0  0  0  0  0  0  0  0
   58.4960   30.6120   50.9690 C   0  0  0  0  0  0  0  0  0  0  0  0
   57.6530   29.7710   51.7220 C   0  0  0  0  0  0  0  0  0  0  0  0
   56.7340   30.3130   52.6250 C   0  0  0  0  0  0  0  0  0  0  0  0
   56.6520   31.6970   52.7940 C   0  0  0  0  0  0  0  0  0  0  0  0
   57.4950   32.5420   52.0650 C   0  0  0  0  0  0  0  0  0  0  0  0
   58.4190   32.0050   51.1600 C   0  0  0  0  0  0  0  0  0  0  0  0
   59.2400   32.8500   50.4820 F   0  0  0  0  0  0  0  0  0  0  0  0
   61.0600   31.5700   48.8110 C   0  0  0  0  0  0  0  0  0  0  0  0
   62.1080   31.3220   49.7420 C   0  0  0  0  0  0  0  0  0  0  0  0
   63.3240   31.9790   49.5710 C   0  0  0  0  0  0  0  0  0  0  0  0
   64.4340   31.9160   50.3270 N   0  0  0  0  0  0  0  0  0  0  0  0
   64.6140   31.1880   51.5820 C   0  0  0  0  0  0  0  0  0  0  0  0
   66.6466   33.1031   51.3459 H   0  0  0  0  0  0  0  0  0  0  0  0
   67.3721   32.3500   49.8854 H   0  0  0  0  0  0  0  0  0  0  0  0
   66.9641   34.0994   49.8854 H   0  0  0  0  0  0  0  0  0  0  0  0
   62.7489   33.8382   46.7881 H   0  0  0  0  0  0  0  0  0  0  0  0
   59.8405   30.8072   44.9180 H   0  0  0  0  0  0  0  0  0  0  0  0
   60.7217   28.5325   44.4052 H   0  0  0  0  0  0  0  0  0  0  0  0
   59.1504   26.6082   44.1490 H   0  0  0  0  0  0  0  0  0  0  0  0
   56.6948   26.9598   44.3904 H   0  0  0  0  0  0  0  0  0  0  0  0
   55.0760   30.0610   45.5000 H   0  0  0  0  0  0  0  0  0  0  0  0
   54.7810   28.5920   44.5300 H   0  0  0  0  0  0  0  0  0  0  0  0
   57.8676   30.7129   48.1134 H   0  0  0  0  0  0  0  0  0  0  0  0
   59.0967   29.0870   49.5907 H   0  0  0  0  0  0  0  0  0  0  0  0
   60.4322   29.8031   50.5781 H   0  0  0  0  0  0  0  0  0  0  0  0
   57.7185   28.6799   51.5984 H   0  0  0  0  0  0  0  0  0  0  0  0
   56.0747   29.6489   53.2031 H   0  0  0  0  0  0  0  0  0  0  0  0
   55.9242   32.1225   53.5006 H   0  0  0  0  0  0  0  0  0  0  0  0
   57.4320   33.6315   52.2029 H   0  0  0  0  0  0  0  0  0  0  0  0
   61.9602   30.6250   50.5801 H   0  0  0  0  0  0  0  0  0  0  0  0
   64.4455   31.8697   52.4287 H   0  0  0  0  0  0  0  0  0  0  0  0
   63.8941   30.3577   51.6308 H   0  0  0  0  0  0  0  0  0  0  0  0
   65.6379   30.7889   51.6308 H   0  0  0  0  0  0  0  0  0  0  0  0
  1  2  1  0
  2  3  2  0
  3  4  1  0
  4  5  2  0
  5  6  1  0
  6  7  1  0
  7  8  2  0
  7  9  1  0
  9 10  1  0
 10 11  2  0
 10 12  1  0
 12 13  1  0
 13 14  2  0
 14 15  1  0
 15 16  2  0
 16 17  1  0
 17 18  2  0
 18 19  1  0
  9 20  2  0
 20 21  1  0
 21 22  1  0
 22 23  1  0
 23 24  2  0
 24 25  1  0
 25 26  2  0
 26 27  1  0
 27 28  2  0
 28 29  1  0
 21 30  1  0
 30 31  1  0
 31 32  2  0
 32 33  1  0
 33 34  1  0
 33  2  1  0
 32  4  1  0
 30  6  2  0
 18 13  1  0
 28 23  1  0
  1 35  1  0
  1 36  1  0
  1 37  1  0
  5 38  1  0
 14 39  1  0
 15 40  1  0
 16 41  1  0
 17 42  1  0
 19 43  1  0
 19 44  1  0
 20 45  1  0
 22 46  1  0
 22 47  1  0
 24 48  1  0
 25 49  1  0
 26 50  1  0
 27 51  1  0
 31 52  1  0
 34 53  1  0
 34 54  1  0
 34 55  1  0
M  CHG  1  12  -1
M  END
>  <UniqueID>  (43) 
39

>  <SMILES>  (43) 
Cc1nc2cc3c(=O)c(C(=O)[N-]c4ccccc4N)cn(Cc4ccccc4F)c3cc2n1C

>  <Energy>  (43) 
114.37156361373196

>  <Genealogy>  (43) 
Cc1nc2cc3c(=O)c(C(=O)[N-]c4ccccc4N)cn(Cc4ccccc4F)c3cc2n1C (protonated)
Cc1nc2cc3c(=O)c(C(=O)[N-]c4ccccc4N)cn(Cc4ccccc4F)c3cc2n1C (3D coordinates assigned)
Cc1nc2cc3c(=O)c(C(=O)[N-]c4ccccc4N)cn(Cc4ccccc4F)c3cc2n1C (optimized conformer: 114.37156361373196 kcal/mol)

>  <smiles>  (43) 
Cc1nc2cc3c(=O)c(C(=O)Nc4ccccc4N)cn(Cc4ccccc4F)c3cc2n1C

>  <score_type>  (43) 
oracle

>  <origin>  (43) 
adg

>  <m_score__min__energy>  (43) 
-10.57

>  <m_primary>  (43) 
energy

$$$$
43:0
     RDKit          3D

 53 56  0  0  0  0  0  0  0  0999 V2000
   57.7623   32.3240   41.7167 H   0  0  0  0  0  0  0  0  0  0  0  0
   57.7270   32.1420   42.8010 C   0  0  0  0  0  0  0  0  0  0  0  0
   57.2040   30.9870   43.2770 N   0  0  0  0  0  0  0  0  0  0  0  0
   57.1510   30.7400   44.6140 C   0  0  0  0  0  0  0  0  0  0  0  0
   56.5890   29.6590   45.0730 N   0  0  0  0  0  0  0  0  0  0  0  0
   57.0180   28.3210   44.7630 C   0  0  0  0  0  0  0  0  0  0  0  0
   57.8060   28.0530   43.6270 C   0  0  0  0  0  0  0  0  0  0  0  0
   58.1343   28.8799   42.9801 H   0  0  0  0  0  0  0  0  0  0  0  0
   58.1720   26.7410   43.3190 C   0  0  0  0  0  0  0  0  0  0  0  0
   58.7842   26.5344   42.4288 H   0  0  0  0  0  0  0  0  0  0  0  0
   57.7600   25.6930   44.1420 C   0  0  0  0  0  0  0  0  0  0  0  0
   58.0345   24.6578   43.8911 H   0  0  0  0  0  0  0  0  0  0  0  0
   56.9990   25.9550   45.2850 C   0  0  0  0  0  0  0  0  0  0  0  0
   56.6845   25.1263   45.9364 H   0  0  0  0  0  0  0  0  0  0  0  0
   56.6370   27.2660   45.6020 C   0  0  0  0  0  0  0  0  0  0  0  0
   56.0523   27.4703   46.5111 H   0  0  0  0  0  0  0  0  0  0  0  0
   57.6360   31.6580   45.4860 N   0  0  0  0  0  0  0  0  0  0  0  0
   58.1790   32.8360   45.0670 C   0  0  0  0  0  0  0  0  0  0  0  0
   58.6200   33.8110   46.0480 N   0  0  0  0  0  0  0  0  0  0  0  0
   58.2150   33.7410   47.4610 C   0  0  0  0  0  0  0  0  0  0  0  0
   57.2180   33.2824   47.5359 H   0  0  0  0  0  0  0  0  0  0  0  0
   58.1811   34.7547   47.8868 H   0  0  0  0  0  0  0  0  0  0  0  0
   59.2370   32.8850   48.2390 C   0  0  0  0  0  0  0  0  0  0  0  0
   58.8653   31.8510   48.2908 H   0  0  0  0  0  0  0  0  0  0  0  0
   59.3482   33.3235   49.2417 H   0  0  0  0  0  0  0  0  0  0  0  0
   60.6350   32.8790   47.5670 C   0  0  0  0  0  0  0  0  0  0  0  0
   61.3925   32.6784   48.3389 H   0  0  0  0  0  0  0  0  0  0  0  0
   60.6610   31.8750   46.5470 O   0  0  0  0  0  0  0  0  0  0  0  0
   60.3650   30.5180   46.7300 C   0  0  0  0  0  0  0  0  0  0  0  0
   60.4510   29.6680   45.6240 C   0  0  0  0  0  0  0  0  0  0  0  0
   60.7203   30.0793   44.6400 H   0  0  0  0  0  0  0  0  0  0  0  0
   60.1980   28.3010   45.7570 C   0  0  0  0  0  0  0  0  0  0  0  0
   60.3049   27.6376   44.8861 H   0  0  0  0  0  0  0  0  0  0  0  0
   59.8080   27.7690   46.9960 C   0  0  0  0  0  0  0  0  0  0  0  0
   59.5410   26.3200   47.1380 C   0  0  0  0  0  0  0  0  0  0  0  0
   60.1450   25.4950   46.3950 O   0  0  0  0  0  0  0  0  0  0  0  0
   58.6040   25.8500   48.1140 N   0  0  0  0  0  0  0  0  0  0  0  0
   57.7240   24.7170   47.8700 C   0  0  0  0  0  0  0  0  0  0  0  0
   57.3956   24.2942   48.8309 H   0  0  0  0  0  0  0  0  0  0  0  0
   56.8463   25.0511   47.2973 H   0  0  0  0  0  0  0  0  0  0  0  0
   58.2649   23.9493   47.2973 H   0  0  0  0  0  0  0  0  0  0  0  0
   59.6800   28.6320   48.0990 C   0  0  0  0  0  0  0  0  0  0  0  0
   59.3527   28.2318   49.0699 H   0  0  0  0  0  0  0  0  0  0  0  0
   59.9660   29.9970   47.9710 C   0  0  0  0  0  0  0  0  0  0  0  0
   59.8779   30.6612   48.8434 H   0  0  0  0  0  0  0  0  0  0  0  0
   60.9200   34.2420   46.8990 C   0  0  0  0  0  0  0  0  0  0  0  0
   61.9132   34.2078   46.4274 H   0  0  0  0  0  0  0  0  0  0  0  0
   60.8804   35.0206   47.6750 H   0  0  0  0  0  0  0  0  0  0  0  0
   59.8610   34.5800   45.8180 C   0  0  0  0  0  0  0  0  0  0  0  0
   60.2639   34.3282   44.8259 H   0  0  0  0  0  0  0  0  0  0  0  0
   59.6284   35.6537   45.8725 H   0  0  0  0  0  0  0  0  0  0  0  0
   58.2190   33.0970   43.6820 C   0  0  0  0  0  0  0  0  0  0  0  0
   58.6338   34.0432   43.3044 H   0  0  0  0  0  0  0  0  0  0  0  0
  1  2  1  0
  2  3  1  0
  3  4  1  0
  4  5  2  0
  5  6  1  0
  6  7  2  0
  7  8  1  0
  7  9  1  0
  9 10  1  0
  9 11  2  0
 11 12  1  0
 11 13  1  0
 13 14  1  0
 13 15  2  0
 15 16  1  0
  4 17  1  0
 17 18  2  0
 18 19  1  0
 19 20  1  0
 20 21  1  0
 20 22  1  0
 20 23  1  0
 23 24  1  0
 23 25  1  0
 23 26  1  0
 26 27  1  0
 26 28  1  0
 28 29  1  0
 29 30  2  0
 30 31  1  0
 30 32  1  0
 32 33  1  0
 32 34  2  0
 34 35  1  0
 35 36  2  0
 35 37  1  0
 37 38  1  0
 38 39  1  0
 38 40  1  0
 38 41  1  0
 34 42  1  0
 42 43  1  0
 42 44  2  0
 44 45  1  0
 26 46  1  0
 46 47  1  0
 46 48  1  0
 46 49  1  0
 49 50  1  0
 49 51  1  0
 18 52  1  0
 52 53  1  0
 52  2  2  0
 15  6  1  0
 49 19  1  0
 44 29  1  0
M  CHG  2   3  -1  37  -1
M  END
>  <UniqueID>  (44) 
40

>  <SMILES>  (44) 
C[N-]C(=O)c1ccc(OC2CCN(c3cc[n-]/c(=N\c4ccccc4)n3)CC2)cc1

>  <Energy>  (44) 
76.59148689013465

>  <Genealogy>  (44) 
C[N-]C(=O)c1ccc(OC2CCN(c3cc[n-]c(=Nc4ccccc4)n3)CC2)cc1 (protonated)
C[N-]C(=O)c1ccc(OC2CCN(c3cc[n-]/c(=N\c4ccccc4)n3)CC2)cc1 (cis-trans isomerization)
C[N-]C(=O)c1ccc(OC2CCN(c3cc[n-]/c(=N\c4ccccc4)n3)CC2)cc1 (3D coordinates assigned)
C[N-]C(=O)c1ccc(OC2CCN(c3cc[n-]/c(=N\c4ccccc4)n3)CC2)cc1 (nonaromatic ring conformer: 76.59148689013465 kcal/mol)

>  <smiles>  (44) 
CNC(=O)c1ccc(OC2CCN(c3cc[nH]c(=Nc4ccccc4)n3)CC2)cc1

>  <score_type>  (44) 
oracle

>  <origin>  (44) 
adg

>  <m_score__min__energy>  (44) 
-11.630000000000001

>  <m_primary>  (44) 
energy

$$$$
44:0
     RDKit          3D

 33 35  0  0  0  0  0  0  0  0999 V2000
   57.6730   25.8890   44.7040 C   0  0  0  0  0  0  0  0  0  0  0  0
   56.6240   26.6350   45.9300 S   0  0  0  0  0  0  0  0  0  0  0  0
   55.5610   25.6510   46.3300 O   0  0  0  0  0  0  0  0  0  0  0  0
   57.4530   27.0090   47.1260 O   0  0  0  0  0  0  0  0  0  0  0  0
   55.8900   28.0540   45.2550 N   0  0  0  0  0  0  0  0  0  0  0  0
   56.5970   29.2300   44.8390 C   0  0  0  0  0  0  0  0  0  0  0  0
   56.3040   29.7780   43.5850 C   0  0  0  0  0  0  0  0  0  0  0  0
   56.9780   30.9160   43.1350 C   0  0  0  0  0  0  0  0  0  0  0  0
   57.9450   31.5210   43.9410 C   0  0  0  0  0  0  0  0  0  0  0  0
   58.2400   30.9980   45.2090 C   0  0  0  0  0  0  0  0  0  0  0  0
   59.2440   31.6240   46.0260 N   0  0  0  0  0  0  0  0  0  0  0  0
   60.3920   31.0390   46.3750 N   0  0  0  0  0  0  0  0  0  0  0  0
   61.1110   31.9160   47.1240 C   0  0  0  0  0  0  0  0  0  0  0  0
   62.4520   31.6580   47.6700 C   0  0  0  0  0  0  0  0  0  0  0  0
   63.6120   32.1910   47.0310 N   0  0  0  0  0  0  0  0  0  0  0  0
   62.5830   30.9580   48.7100 O   0  0  0  0  0  0  0  0  0  0  0  0
   60.3750   33.0730   47.2250 C   0  0  0  0  0  0  0  0  0  0  0  0
   60.4710   34.6410   47.7980 S   0  0  0  0  0  0  0  0  0  0  0  0
   58.9570   35.0640   47.1140 C   0  0  0  0  0  0  0  0  0  0  0  0
   58.4040   33.9700   46.4290 C   0  0  0  0  0  0  0  0  0  0  0  0
   59.2460   32.8670   46.5440 C   0  0  0  0  0  0  0  0  0  0  0  0
   57.5760   29.8390   45.6460 C   0  0  0  0  0  0  0  0  0  0  0  0
   58.4723   25.3206   45.2021 H   0  0  0  0  0  0  0  0  0  0  0  0
   57.0774   25.2105   44.0756 H   0  0  0  0  0  0  0  0  0  0  0  0
   58.1184   26.6743   44.0756 H   0  0  0  0  0  0  0  0  0  0  0  0
   55.5380   29.3096   42.9495 H   0  0  0  0  0  0  0  0  0  0  0  0
   56.7469   31.3359   42.1449 H   0  0  0  0  0  0  0  0  0  0  0  0
   58.4783   32.4126   43.5796 H   0  0  0  0  0  0  0  0  0  0  0  0
   64.5610   32.0040   47.4230 H   0  0  0  0  0  0  0  0  0  0  0  0
   63.5310   32.7730   46.1680 H   0  0  0  0  0  0  0  0  0  0  0  0
   58.4848   36.0538   47.1997 H   0  0  0  0  0  0  0  0  0  0  0  0
   57.4489   33.9825   45.8834 H   0  0  0  0  0  0  0  0  0  0  0  0
   57.8233   29.4047   46.6259 H   0  0  0  0  0  0  0  0  0  0  0  0
  1  2  1  0
  2  3  2  0
  2  4  2  0
  2  5  1  0
  5  6  1  0
  6  7  2  0
  7  8  1  0
  8  9  2  0
  9 10  1  0
 10 11  1  0
 11 12  1  0
 12 13  2  0
 13 14  1  0
 14 15  1  0
 14 16  2  0
 13 17  1  0
 17 18  1  0
 18 19  1  0
 19 20  2  0
 20 21  1  0
 10 22  2  0
 22  6  1  0
 21 11  1  0
 21 17  2  0
  1 23  1  0
  1 24  1  0
  1 25  1  0
  7 26  1  0
  8 27  1  0
  9 28  1  0
 15 29  1  0
 15 30  1  0
 19 31  1  0
 20 32  1  0
 22 33  1  0
M  CHG  1   5  -1
M  END
>  <UniqueID>  (45) 
41

>  <SMILES>  (45) 
CS(=O)(=O)[N-]c1cccc(-n2nc(C(N)=O)c3sccc32)c1

>  <Energy>  (45) 
117.66669031391952

>  <Genealogy>  (45) 
CS(=O)(=O)[N-]c1cccc(-n2nc(C(N)=O)c3sccc32)c1 (protonated)
CS(=O)(=O)[N-]c1cccc(-n2nc(C(N)=O)c3sccc32)c1 (3D coordinates assigned)
CS(=O)(=O)[N-]c1cccc(-n2nc(C(N)=O)c3sccc32)c1 (optimized conformer: 117.66669031391952 kcal/mol)

>  <smiles>  (45) 
CS(=O)(=O)Nc1cccc(-n2nc(C(N)=O)c3sccc32)c1

>  <score_type>  (45) 
oracle

>  <origin>  (45) 
adg

>  <m_score__min__energy>  (45) 
-10.07

>  <m_primary>  (45) 
energy

$$$$
45:0
     RDKit          3D

 31 33  0  0  0  0  0  0  0  0999 V2000
   60.5428   35.4333   47.5140 H   0  0  0  0  0  0  0  0  0  0  0  0
   59.7540   34.8460   47.0210 C   0  0  0  0  0  0  0  0  0  0  0  0
   59.5610   34.9550   45.6410 C   0  0  0  0  0  0  0  0  0  0  0  0
   60.2056   35.6194   45.0467 H   0  0  0  0  0  0  0  0  0  0  0  0
   58.5490   34.2200   45.0150 C   0  0  0  0  0  0  0  0  0  0  0  0
   58.4124   34.2917   43.9259 H   0  0  0  0  0  0  0  0  0  0  0  0
   57.7050   33.3890   45.7750 C   0  0  0  0  0  0  0  0  0  0  0  0
   56.6700   32.6020   45.1610 N   0  0  0  0  0  0  0  0  0  0  0  0
   56.8270   31.4630   44.6000 N   0  0  0  0  0  0  0  0  0  0  0  0
   57.1980   30.2500   45.2680 C   0  0  0  0  0  0  0  0  0  0  0  0
   56.4350   29.1000   45.3440 C   0  0  0  0  0  0  0  0  0  0  0  0
   55.1450   28.9700   44.8450 O   0  0  0  0  0  0  0  0  0  0  0  0
   57.0920   28.0970   45.9730 N   0  0  0  0  0  0  0  0  0  0  0  0
   58.2950   28.6290   46.2700 C   0  0  0  0  0  0  0  0  0  0  0  0
   59.3540   27.9770   46.8950 C   0  0  0  0  0  0  0  0  0  0  0  0
   59.2531   26.9379   47.2414 H   0  0  0  0  0  0  0  0  0  0  0  0
   60.5560   28.6840   47.0710 C   0  0  0  0  0  0  0  0  0  0  0  0
   61.4026   28.1953   47.5754 H   0  0  0  0  0  0  0  0  0  0  0  0
   60.6940   30.0130   46.6100 C   0  0  0  0  0  0  0  0  0  0  0  0
   61.9270   30.6540   46.8040 O   0  0  0  0  0  0  0  0  0  0  0  0
   62.1350   31.8150   47.6060 C   0  0  0  0  0  0  0  0  0  0  0  0
   62.2210   32.9380   46.8030 F   0  0  0  0  0  0  0  0  0  0  0  0
   63.3200   31.6740   48.3010 F   0  0  0  0  0  0  0  0  0  0  0  0
   61.1000   31.9600   48.5110 F   0  0  0  0  0  0  0  0  0  0  0  0
   59.5990   30.6470   45.9720 C   0  0  0  0  0  0  0  0  0  0  0  0
   59.6847   31.6748   45.5895 H   0  0  0  0  0  0  0  0  0  0  0  0
   58.4090   29.9300   45.8430 C   0  0  0  0  0  0  0  0  0  0  0  0
   57.9320   33.2580   47.1510 C   0  0  0  0  0  0  0  0  0  0  0  0
   57.3087   32.5735   47.7451 H   0  0  0  0  0  0  0  0  0  0  0  0
   58.9460   33.9920   47.7740 C   0  0  0  0  0  0  0  0  0  0  0  0
   59.1072   33.8965   48.8579 H   0  0  0  0  0  0  0  0  0  0  0  0
  1  2  1  0
  2  3  2  0
  3  4  1  0
  3  5  1  0
  5  6  1  0
  5  7  2  0
  7  8  1  0
  8  9  2  0
  9 10  1  0
 10 11  2  0
 11 12  1  0
 11 13  1  0
 13 14  1  0
 14 15  2  0
 15 16  1  0
 15 17  1  0
 17 18  1  0
 17 19  2  0
 19 20  1  0
 20 21  1  0
 21 22  1  0
 21 23  1  0
 21 24  1  0
 19 25  1  0
 25 26  1  0
 25 27  2  0
  7 28  1  0
 28 29  1  0
 28 30  2  0
 30 31  1  0
 30  2  1  0
 27 10  1  0
 27 14  1  0
M  CHG  2  12  -1  13  -1
M  END
>  <UniqueID>  (46) 
42

>  <SMILES>  (46) 
[O-]c1[n-]c2ccc(OC(F)(F)F)cc2c1/N=N\c1ccccc1

>  <Energy>  (46) 
79.97289423488131

>  <Genealogy>  (46) 
[O-]c1[n-]c2ccc(OC(F)(F)F)cc2c1N=Nc1ccccc1 (protonated)
[O-]c1[n-]c2ccc(OC(F)(F)F)cc2c1/N=N\c1ccccc1 (cis-trans isomerization)
[O-]c1[n-]c2ccc(OC(F)(F)F)cc2c1/N=N\c1ccccc1 (3D coordinates assigned)
[O-]c1[n-]c2ccc(OC(F)(F)F)cc2c1/N=N\c1ccccc1 (optimized conformer: 79.97289423488131 kcal/mol)

>  <smiles>  (46) 
Oc1[nH]c2ccc(OC(F)(F)F)cc2c1N=Nc1ccccc1

>  <score_type>  (46) 
oracle

>  <origin>  (46) 
adg

>  <m_score__min__energy>  (46) 
-12.029999999999999

>  <m_primary>  (46) 
energy

$$$$
46:0
     RDKit          3D

 67 70  0  0  0  0  0  0  0  0999 V2000
   56.5880   21.7030   47.9330 C   0  0  0  0  0  0  0  0  0  0  0  0
   57.0750   22.7080   47.0490 O   0  0  0  0  0  0  0  0  0  0  0  0
   56.9560   22.6630   45.6490 C   0  0  0  0  0  0  0  0  0  0  0  0
   57.8010   21.8610   44.8550 C   0  0  0  0  0  0  0  0  0  0  0  0
   57.6440   21.8290   43.4660 C   0  0  0  0  0  0  0  0  0  0  0  0
   56.6500   22.5950   42.8550 C   0  0  0  0  0  0  0  0  0  0  0  0
   55.8100   23.3970   43.6290 C   0  0  0  0  0  0  0  0  0  0  0  0
   55.9580   23.4390   45.0250 C   0  0  0  0  0  0  0  0  0  0  0  0
   54.8800   24.4490   45.9950 S   0  0  0  0  0  0  0  0  0  0  0  0
   53.4890   24.3580   45.4360 O   0  0  0  0  0  0  0  0  0  0  0  0
   54.8580   23.9740   47.4210 O   0  0  0  0  0  0  0  0  0  0  0  0
   55.4020   26.1050   45.9540 N   0  0  0  0  0  0  0  0  0  0  0  0
   56.8390   26.1660   45.7000 C   0  0  0  0  0  0  0  0  0  0  0  0
   57.2860   27.5980   45.7450 C   0  0  0  0  0  0  0  0  0  0  0  0
   58.2900   28.0040   46.6360 C   0  0  0  0  0  0  0  0  0  0  0  0
   58.6810   29.3440   46.6960 C   0  0  0  0  0  0  0  0  0  0  0  0
   58.0710   30.3070   45.8710 C   0  0  0  0  0  0  0  0  0  0  0  0
   58.4920   31.7280   45.9570 C   0  0  0  0  0  0  0  0  0  0  0  0
   59.2250   32.2090   45.0490 O   0  0  0  0  0  0  0  0  0  0  0  0
   58.0670   32.5710   47.0410 N   0  0  0  0  0  0  0  0  0  0  0  0
   58.5820   33.9280   47.2220 C   0  0  0  0  0  0  0  0  0  0  0  0
   59.9310   33.8930   47.8860 C   0  0  0  0  0  0  0  0  0  0  0  0
   61.1060   33.8630   47.1200 C   0  0  0  0  0  0  0  0  0  0  0  0
   62.3560   33.8290   47.7440 C   0  0  0  0  0  0  0  0  0  0  0  0
   62.4530   33.8340   49.1460 C   0  0  0  0  0  0  0  0  0  0  0  0
   63.7420   33.8020   49.7890 N   0  0  0  0  0  0  0  0  0  0  0  0
   64.8810   33.1500   49.1320 C   0  0  0  0  0  0  0  0  0  0  0  0
   66.0030   32.8610   50.1440 C   0  0  0  0  0  0  0  0  0  0  0  0
   65.4650   32.4270   51.4520 N   0  0  0  0  0  0  0  0  0  0  0  0
   64.8260   31.1020   51.3690 C   0  0  0  0  0  0  0  0  0  0  0  0
   64.5720   33.4330   52.0860 C   0  0  0  0  0  0  0  0  0  0  0  0
   63.9550   34.4370   51.0930 C   0  0  0  0  0  0  0  0  0  0  0  0
   61.2740   33.8460   49.9120 C   0  0  0  0  0  0  0  0  0  0  0  0
   60.0240   33.8760   49.2870 C   0  0  0  0  0  0  0  0  0  0  0  0
   57.0430   29.8970   45.0000 C   0  0  0  0  0  0  0  0  0  0  0  0
   56.6590   28.5550   44.9360 C   0  0  0  0  0  0  0  0  0  0  0  0
   56.7433   22.0235   48.9737 H   0  0  0  0  0  0  0  0  0  0  0  0
   55.5140   21.5463   47.7540 H   0  0  0  0  0  0  0  0  0  0  0  0
   57.1305   20.7630   47.7540 H   0  0  0  0  0  0  0  0  0  0  0  0
   58.5879   21.2573   45.3307 H   0  0  0  0  0  0  0  0  0  0  0  0
   58.3054   21.1987   42.8534 H   0  0  0  0  0  0  0  0  0  0  0  0
   56.5285   22.5666   41.7621 H   0  0  0  0  0  0  0  0  0  0  0  0
   55.0281   23.9992   43.1432 H   0  0  0  0  0  0  0  0  0  0  0  0
   57.3737   25.5890   46.4689 H   0  0  0  0  0  0  0  0  0  0  0  0
   57.0584   25.7406   44.7096 H   0  0  0  0  0  0  0  0  0  0  0  0
   58.7722   27.2635   47.2911 H   0  0  0  0  0  0  0  0  0  0  0  0
   59.4735   29.6492   47.3951 H   0  0  0  0  0  0  0  0  0  0  0  0
   57.3070   32.2560   47.6850 H   0  0  0  0  0  0  0  0  0  0  0  0
   58.6741   34.4147   46.2398 H   0  0  0  0  0  0  0  0  0  0  0  0
   57.8852   34.4918   47.8596 H   0  0  0  0  0  0  0  0  0  0  0  0
   61.0430   33.8663   46.0218 H   0  0  0  0  0  0  0  0  0  0  0  0
   63.2705   33.7981   47.1334 H   0  0  0  0  0  0  0  0  0  0  0  0
   64.5456   32.2025   48.6851 H   0  0  0  0  0  0  0  0  0  0  0  0
   65.2720   33.8227   48.3545 H   0  0  0  0  0  0  0  0  0  0  0  0
   66.6481   32.0655   49.7427 H   0  0  0  0  0  0  0  0  0  0  0  0
   66.5709   33.7902   50.2993 H   0  0  0  0  0  0  0  0  0  0  0  0
   64.6416   30.7196   52.3838 H   0  0  0  0  0  0  0  0  0  0  0  0
   63.8707   31.1887   50.8306 H   0  0  0  0  0  0  0  0  0  0  0  0
   65.4886   30.4084   50.8306 H   0  0  0  0  0  0  0  0  0  0  0  0
   63.7538   32.8994   52.5918 H   0  0  0  0  0  0  0  0  0  0  0  0
   65.1925   34.0151   52.7832 H   0  0  0  0  0  0  0  0  0  0  0  0
   62.9900   34.7892   51.4864 H   0  0  0  0  0  0  0  0  0  0  0  0
   64.6448   35.2847   50.9683 H   0  0  0  0  0  0  0  0  0  0  0  0
   61.3357   33.8317   51.0102 H   0  0  0  0  0  0  0  0  0  0  0  0
   59.1081   33.8863   49.8961 H   0  0  0  0  0  0  0  0  0  0  0  0
   56.5381   30.6396   44.3647 H   0  0  0  0  0  0  0  0  0  0  0  0
   55.8593   28.2478   44.2460 H   0  0  0  0  0  0  0  0  0  0  0  0
  1  2  1  0
  2  3  1  0
  3  4  2  0
  4  5  1  0
  5  6  2  0
  6  7  1  0
  7  8  2  0
  8  9  1  0
  9 10  2  0
  9 11  2  0
  9 12  1  0
 12 13  1  0
 13 14  1  0
 14 15  2  0
 15 16  1  0
 16 17  2  0
 17 18  1  0
 18 19  2  0
 18 20  1  0
 20 21  1  0
 21 22  1  0
 22 23  2  0
 23 24  1  0
 24 25  2  0
 25 26  1  0
 26 27  1  0
 27 28  1  0
 28 29  1  0
 29 30  1  0
 29 31  1  0
 31 32  1  0
 25 33  1  0
 33 34  2  0
 17 35  1  0
 35 36  2  0
  8  3  1  0
 36 14  1  0
 34 22  1  0
 32 26  1  0
  1 37  1  0
  1 38  1  0
  1 39  1  0
  4 40  1  0
  5 41  1  0
  6 42  1  0
  7 43  1  0
 13 44  1  0
 13 45  1  0
 15 46  1  0
 16 47  1  0
 20 48  1  0
 21 49  1  0
 21 50  1  0
 23 51  1  0
 24 52  1  0
 27 53  1  0
 27 54  1  0
 28 55  1  0
 28 56  1  0
 30 57  1  0
 30 58  1  0
 30 59  1  0
 31 60  1  0
 31 61  1  0
 32 62  1  0
 32 63  1  0
 33 64  1  0
 34 65  1  0
 35 66  1  0
 36 67  1  0
M  CHG  1  12  -1
M  END
>  <UniqueID>  (47) 
43

>  <SMILES>  (47) 
COc1ccccc1S(=O)(=O)[N-]Cc1ccc(C(=O)NCc2ccc(N3CCN(C)CC3)cc2)cc1

>  <Energy>  (47) 
78.55946549744792

>  <Genealogy>  (47) 
COc1ccccc1S(=O)(=O)[N-]Cc1ccc(C(=O)NCc2ccc(N3CCN(C)CC3)cc2)cc1 (protonated)
COc1ccccc1S(=O)(=O)[N-]Cc1ccc(C(=O)NCc2ccc(N3CCN(C)CC3)cc2)cc1 (3D coordinates assigned)
COc1ccccc1S(=O)(=O)[N-]Cc1ccc(C(=O)NCc2ccc(N3CCN(C)CC3)cc2)cc1 (nonaromatic ring conformer: 78.55946549744792 kcal/mol)

>  <smiles>  (47) 
COc1ccccc1S(=O)(=O)NCc1ccc(C(=O)NCc2ccc(N3CCN(C)CC3)cc2)cc1

>  <score_type>  (47) 
oracle

>  <origin>  (47) 
adg

>  <m_score__min__energy>  (47) 
-11.43

>  <m_primary>  (47) 
energy

$$$$
47:0
     RDKit          3D

 50 53  0  0  0  0  0  0  0  0999 V2000
   60.4380   33.7300   48.5210 C   0  0  0  0  0  0  0  0  0  0  0  0
   59.5460   33.2670   49.6390 C   0  0  0  0  0  0  0  0  0  0  0  0
   59.6270   33.8750   50.9040 C   0  0  0  0  0  0  0  0  0  0  0  0
   58.8030   33.4470   51.9480 C   0  0  0  0  0  0  0  0  0  0  0  0
   57.9040   32.3960   51.7550 C   0  0  0  0  0  0  0  0  0  0  0  0
   57.1020   31.9840   52.8300 O   0  0  0  0  0  0  0  0  0  0  0  0
   56.1320   30.9710   52.7720 C   0  0  0  0  0  0  0  0  0  0  0  0
   56.2770   29.7650   53.4820 C   0  0  0  0  0  0  0  0  0  0  0  0
   55.2910   28.7810   53.4040 C   0  0  0  0  0  0  0  0  0  0  0  0
   54.1500   28.9900   52.6290 C   0  0  0  0  0  0  0  0  0  0  0  0
   53.9880   30.1910   51.9190 C   0  0  0  0  0  0  0  0  0  0  0  0
   52.7520   30.4260   51.0950 C   0  0  0  0  0  0  0  0  0  0  0  0
   51.8040   31.3360   51.8150 C   0  0  0  0  0  0  0  0  0  0  0  0
   51.5110   31.2380   53.1260 N   0  0  0  0  0  0  0  0  0  0  0  0
   50.5770   32.1970   53.3090 C   0  0  0  0  0  0  0  0  0  0  0  0
   50.0350   32.4070   54.4240 O   0  0  0  0  0  0  0  0  0  0  0  0
   50.2500   32.8900   52.1960 N   0  0  0  0  0  0  0  0  0  0  0  0
   51.0330   32.3300   51.2600 C   0  0  0  0  0  0  0  0  0  0  0  0
   51.0360   32.7130   49.9230 O   0  0  0  0  0  0  0  0  0  0  0  0
   54.9770   31.1850   52.0100 C   0  0  0  0  0  0  0  0  0  0  0  0
   57.7970   31.8060   50.4840 C   0  0  0  0  0  0  0  0  0  0  0  0
   58.6150   32.2350   49.4220 C   0  0  0  0  0  0  0  0  0  0  0  0
   58.5410   31.6390   48.1530 O   0  0  0  0  0  0  0  0  0  0  0  0
   59.6080   30.9200   47.5340 C   0  0  0  0  0  0  0  0  0  0  0  0
   59.1930   29.4810   47.3200 C   0  0  0  0  0  0  0  0  0  0  0  0
   59.8460   28.4820   48.0640 C   0  0  0  0  0  0  0  0  0  0  0  0
   59.5310   27.1340   47.8740 C   0  0  0  0  0  0  0  0  0  0  0  0
   58.5730   26.7640   46.9290 C   0  0  0  0  0  0  0  0  0  0  0  0
   57.9230   27.7410   46.1720 C   0  0  0  0  0  0  0  0  0  0  0  0
   58.2260   29.1010   46.3570 C   0  0  0  0  0  0  0  0  0  0  0  0
   57.5240   30.0720   45.5530 C   0  0  0  0  0  0  0  0  0  0  0  0
   56.9650   30.8550   44.9070 N   0  0  0  0  0  0  0  0  0  0  0  0
   61.3401   34.1983   48.9416 H   0  0  0  0  0  0  0  0  0  0  0  0
   60.7271   32.8681   47.9017 H   0  0  0  0  0  0  0  0  0  0  0  0
   59.8995   34.4624   47.9017 H   0  0  0  0  0  0  0  0  0  0  0  0
   60.3433   34.6925   51.0728 H   0  0  0  0  0  0  0  0  0  0  0  0
   58.8628   33.9414   52.9288 H   0  0  0  0  0  0  0  0  0  0  0  0
   57.1709   29.5973   54.1008 H   0  0  0  0  0  0  0  0  0  0  0  0
   55.4137   27.8372   53.9555 H   0  0  0  0  0  0  0  0  0  0  0  0
   53.3747   28.2117   52.5738 H   0  0  0  0  0  0  0  0  0  0  0  0
   53.0378   30.8859   50.1375 H   0  0  0  0  0  0  0  0  0  0  0  0
   52.2536   29.4612   50.9197 H   0  0  0  0  0  0  0  0  0  0  0  0
   54.8428   32.1387   51.4785 H   0  0  0  0  0  0  0  0  0  0  0  0
   57.0665   31.0007   50.3174 H   0  0  0  0  0  0  0  0  0  0  0  0
   59.8455   31.3807   46.5638 H   0  0  0  0  0  0  0  0  0  0  0  0
   60.4952   30.9517   48.1836 H   0  0  0  0  0  0  0  0  0  0  0  0
   60.6114   28.7643   48.8019 H   0  0  0  0  0  0  0  0  0  0  0  0
   60.0394   26.3624   48.4708 H   0  0  0  0  0  0  0  0  0  0  0  0
   58.3297   25.7016   46.7803 H   0  0  0  0  0  0  0  0  0  0  0  0
   57.1699   27.4447   45.4270 H   0  0  0  0  0  0  0  0  0  0  0  0
  1  2  1  0
  2  3  2  0
  3  4  1  0
  4  5  2  0
  5  6  1  0
  6  7  1  0
  7  8  2  0
  8  9  1  0
  9 10  2  0
 10 11  1  0
 11 12  1  0
 12 13  1  0
 13 14  1  0
 14 15  1  0
 15 16  2  0
 15 17  1  0
 17 18  1  0
 18 19  1  0
 11 20  2  0
  5 21  1  0
 21 22  2  0
 22 23  1  0
 23 24  1  0
 24 25  1  0
 25 26  2  0
 26 27  1  0
 27 28  2  0
 28 29  1  0
 29 30  2  0
 30 31  1  0
 31 32  3  0
 22  2  1  0
 30 25  1  0
 20  7  1  0
 18 13  2  0
  1 33  1  0
  1 34  1  0
  1 35  1  0
  3 36  1  0
  4 37  1  0
  8 38  1  0
  9 39  1  0
 10 40  1  0
 12 41  1  0
 12 42  1  0
 20 43  1  0
 21 44  1  0
 24 45  1  0
 24 46  1  0
 26 47  1  0
 27 48  1  0
 28 49  1  0
 29 50  1  0
M  CHG  3  14  -1  17  -1  19  -1
M  END
>  <UniqueID>  (48) 
44

>  <SMILES>  (48) 
Cc1ccc(Oc2cccc(Cc3[n-]c(=O)[n-]c3[O-])c2)cc1OCc1ccccc1C#N

>  <Energy>  (48) 
91.41435237208401

>  <Genealogy>  (48) 
Cc1ccc(Oc2cccc(Cc3[n-]c(=O)[n-]c3[O-])c2)cc1OCc1ccccc1C#N (protonated)
Cc1ccc(Oc2cccc(Cc3[n-]c(=O)[n-]c3[O-])c2)cc1OCc1ccccc1C#N (3D coordinates assigned)
Cc1ccc(Oc2cccc(Cc3[n-]c(=O)[n-]c3[O-])c2)cc1OCc1ccccc1C#N (optimized conformer: 91.41435237208401 kcal/mol)

>  <smiles>  (48) 
Cc1ccc(Oc2cccc(Cc3[nH]c(=O)[nH]c3O)c2)cc1OCc1ccccc1C#N

>  <score_type>  (48) 
oracle

>  <origin>  (48) 
adg

>  <m_score__min__energy>  (48) 
-19.100000000000001

>  <m_primary>  (48) 
energy

$$$$
48:0
     RDKit          3D

 39 40  0  0  0  0  0  0  0  0999 V2000
   52.0820   29.9110   50.0150 N   0  0  0  0  0  0  0  0  0  0  0  0
   51.9950   30.7410   51.2170 C   0  0  1  0  0  0  0  0  0  0  0  0
   53.4080   31.0960   51.7100 C   0  0  0  0  0  0  0  0  0  0  0  0
   54.1060   29.7680   52.7630 S   0  0  0  0  0  0  0  0  0  0  0  0
   55.8110   30.0550   52.2910 C   0  0  0  0  0  0  0  0  0  0  0  0
   56.1500   31.1920   51.6320 N   0  0  0  0  0  0  0  0  0  0  0  0
   57.4340   31.4340   51.2630 C   0  0  0  0  0  0  0  0  0  0  0  0
   57.6990   32.4830   50.6180 O   0  0  0  0  0  0  0  0  0  0  0  0
   58.4420   30.5030   51.5800 C   0  0  0  0  0  0  0  0  0  0  0  0
   59.8620   30.7130   51.2100 C   0  0  0  0  0  0  0  0  0  0  0  0
   60.6630   31.1560   52.0770 O   0  0  0  0  0  0  0  0  0  0  0  0
   60.3680   30.3940   49.9070 N   0  0  0  0  0  0  0  0  0  0  0  0
   59.5810   30.1590   48.7300 C   0  0  0  0  0  0  0  0  0  0  0  0
   59.2430   31.1990   47.8460 C   0  0  0  0  0  0  0  0  0  0  0  0
   58.4850   30.9330   46.7020 C   0  0  0  0  0  0  0  0  0  0  0  0
   58.0630   29.6260   46.4240 C   0  0  0  0  0  0  0  0  0  0  0  0
   57.1210   29.2800   44.9770 S   0  0  0  0  0  0  0  0  0  0  0  0
   56.0850   27.9260   45.2690 N   0  0  0  0  0  0  0  0  0  0  0  0
   56.2910   30.4810   44.6190 O   0  0  0  0  0  0  0  0  0  0  0  0
   58.0380   28.9670   43.8280 O   0  0  0  0  0  0  0  0  0  0  0  0
   58.4240   28.5840   47.2890 C   0  0  0  0  0  0  0  0  0  0  0  0
   59.1850   28.8490   48.4320 C   0  0  0  0  0  0  0  0  0  0  0  0
   58.0590   29.3310   52.2460 C   0  0  0  0  0  0  0  0  0  0  0  0
   56.7610   29.1340   52.5940 N   0  0  0  0  0  0  0  0  0  0  0  0
   51.2110   31.9850   50.9080 C   0  0  0  0  0  0  0  0  0  0  0  0
   51.0190   32.3320   49.7130 O   0  0  0  0  0  0  0  0  0  0  0  0
   50.6830   32.7530   51.9390 O   0  0  0  0  0  0  0  0  0  0  0  0
   52.9560   29.3390   50.0730 H   0  0  0  0  0  0  0  0  0  0  0  0
   52.2080   30.5400   49.1880 H   0  0  0  0  0  0  0  0  0  0  0  0
   51.4797   30.1860   52.0148 H   0  0  0  0  0  0  0  0  0  0  0  0
   54.0638   31.2434   50.8392 H   0  0  0  0  0  0  0  0  0  0  0  0
   53.3428   32.0147   52.3114 H   0  0  0  0  0  0  0  0  0  0  0  0
   59.5764   32.2261   48.0556 H   0  0  0  0  0  0  0  0  0  0  0  0
   58.2190   31.7522   46.0179 H   0  0  0  0  0  0  0  0  0  0  0  0
   55.1460   28.1720   44.8860 H   0  0  0  0  0  0  0  0  0  0  0  0
   56.4490   27.1340   44.6940 H   0  0  0  0  0  0  0  0  0  0  0  0
   58.1076   27.5539   47.0680 H   0  0  0  0  0  0  0  0  0  0  0  0
   59.4740   28.0245   49.1003 H   0  0  0  0  0  0  0  0  0  0  0  0
   58.8128   28.5673   52.4880 H   0  0  0  0  0  0  0  0  0  0  0  0
  1  2  1  0
  2  3  1  0
  3  4  1  0
  4  5  1  0
  5  6  2  0
  6  7  1  0
  7  8  2  0
  7  9  1  0
  9 10  1  0
 10 11  2  0
 10 12  1  0
 12 13  1  0
 13 14  2  0
 14 15  1  0
 15 16  2  0
 16 17  1  0
 17 18  1  0
 17 19  2  0
 17 20  2  0
 16 21  1  0
 21 22  2  0
  9 23  2  0
 23 24  1  0
  2 25  1  0
 25 26  2  0
 25 27  1  0
 24  5  1  0
 22 13  1  0
  1 28  1  0
  1 29  1  0
  2 30  1  1
  3 31  1  0
  3 32  1  0
 14 33  1  0
 15 34  1  0
 18 35  1  0
 18 36  1  0
 21 37  1  0
 22 38  1  0
 23 39  1  0
M  CHG  3  12  -1  24  -1  27  -1
M  END
>  <UniqueID>  (49) 
45

>  <SMILES>  (49) 
N[C@@H](CSc1nc(=O)c(C(=O)[N-]c2ccc(S(N)(=O)=O)cc2)c[n-]1)C(=O)[O-]

>  <Energy>  (49) 
42.33012075331814

>  <Genealogy>  (49) 
NC(CSc1nc(=O)c(C(=O)[N-]c2ccc(S(N)(=O)=O)cc2)c[n-]1)C(=O)[O-] (protonated)
N[C@@H](CSc1nc(=O)c(C(=O)[N-]c2ccc(S(N)(=O)=O)cc2)c[n-]1)C(=O)[O-] (chirality)
N[C@@H](CSc1nc(=O)c(C(=O)[N-]c2ccc(S(N)(=O)=O)cc2)c[n-]1)C(=O)[O-] (3D coordinates assigned)
N[C@@H](CSc1nc(=O)c(C(=O)[N-]c2ccc(S(N)(=O)=O)cc2)c[n-]1)C(=O)[O-] (optimized conformer: 42.33012075331814 kcal/mol)

>  <smiles>  (49) 
NC(CSc1nc(=O)c(C(=O)Nc2ccc(S(N)(=O)=O)cc2)c[nH]1)C(=O)O

>  <score_type>  (49) 
oracle

>  <origin>  (49) 
adg

>  <m_score__min__energy>  (49) 
-14.59

>  <m_primary>  (49) 
energy

$$$$
49:0
     RDKit          3D

 40 42  0  0  0  0  0  0  0  0999 V2000
   64.1460   32.7480   46.9170 N   0  0  0  0  0  0  0  0  0  0  0  0
   63.1610   32.9260   48.3270 S   0  0  0  0  0  0  0  0  0  0  0  0
   63.5230   34.2020   49.0300 O   0  0  0  0  0  0  0  0  0  0  0  0
   63.4010   31.7590   49.2450 O   0  0  0  0  0  0  0  0  0  0  0  0
   61.4710   32.9690   47.8670 C   0  0  0  0  0  0  0  0  0  0  0  0
   60.3990   32.6360   48.6860 C   0  0  0  0  0  0  0  0  0  0  0  0
   59.1620   32.7690   48.0460 C   0  0  0  0  0  0  0  0  0  0  0  0
   59.2770   33.2000   46.7310 C   0  0  0  0  0  0  0  0  0  0  0  0
   57.9350   33.5080   45.6450 S   0  0  0  0  0  0  0  0  0  0  0  0
   56.6450   33.5730   46.4130 O   0  0  0  0  0  0  0  0  0  0  0  0
   58.1610   34.8200   44.9510 O   0  0  0  0  0  0  0  0  0  0  0  0
   57.8360   32.2440   44.4630 N   0  0  0  0  0  0  0  0  0  0  0  0
   57.7610   30.8420   44.7570 C   0  0  0  0  0  0  0  0  0  0  0  0
   58.8210   30.2450   45.4500 C   0  0  0  0  0  0  0  0  0  0  0  0
   58.7860   28.8830   45.7650 C   0  0  0  0  0  0  0  0  0  0  0  0
   57.6880   28.0970   45.3850 C   0  0  0  0  0  0  0  0  0  0  0  0
   57.6460   26.6990   45.7210 N   0  0  0  0  0  0  0  0  0  0  0  0
   58.9090   25.9690   45.8890 C   0  0  0  0  0  0  0  0  0  0  0  0
   58.6630   24.4610   46.0010 C   0  0  0  0  0  0  0  0  0  0  0  0
   57.6650   24.2030   46.9700 O   0  0  0  0  0  0  0  0  0  0  0  0
   56.4020   24.6140   46.4800 C   0  0  0  0  0  0  0  0  0  0  0  0
   56.4060   26.0640   46.0850 C   0  0  0  0  0  0  0  0  0  0  0  0
   55.3120   26.6850   45.9950 O   0  0  0  0  0  0  0  0  0  0  0  0
   56.6240   28.6940   44.6890 C   0  0  0  0  0  0  0  0  0  0  0  0
   56.6600   30.0540   44.3750 C   0  0  0  0  0  0  0  0  0  0  0  0
   60.9000   33.4230   46.3530 S   0  0  0  0  0  0  0  0  0  0  0  0
   65.0580   33.2130   47.1190 H   0  0  0  0  0  0  0  0  0  0  0  0
   64.3460   31.7280   46.8100 H   0  0  0  0  0  0  0  0  0  0  0  0
   60.5112   32.3027   49.7283 H   0  0  0  0  0  0  0  0  0  0  0  0
   58.1994   32.5547   48.5333 H   0  0  0  0  0  0  0  0  0  0  0  0
   59.6882   30.8521   45.7490 H   0  0  0  0  0  0  0  0  0  0  0  0
   59.6231   28.4260   46.3131 H   0  0  0  0  0  0  0  0  0  0  0  0
   59.5552   26.1642   45.0205 H   0  0  0  0  0  0  0  0  0  0  0  0
   59.3919   26.3142   46.8151 H   0  0  0  0  0  0  0  0  0  0  0  0
   58.3330   24.0726   45.0262 H   0  0  0  0  0  0  0  0  0  0  0  0
   59.5968   23.9649   46.3042 H   0  0  0  0  0  0  0  0  0  0  0  0
   56.1452   24.0053   45.6005 H   0  0  0  0  0  0  0  0  0  0  0  0
   55.6615   24.4783   47.2820 H   0  0  0  0  0  0  0  0  0  0  0  0
   55.7573   28.0865   44.3895 H   0  0  0  0  0  0  0  0  0  0  0  0
   55.8235   30.5115   43.8263 H   0  0  0  0  0  0  0  0  0  0  0  0
  1  2  1  0
  2  3  2  0
  2  4  2  0
  2  5  1  0
  5  6  2  0
  6  7  1  0
  7  8  2  0
  8  9  1  0
  9 10  2  0
  9 11  2  0
  9 12  1  0
 12 13  1  0
 13 14  2  0
 14 15  1  0
 15 16  2  0
 16 17  1  0
 17 18  1  0
 18 19  1  0
 19 20  1  0
 20 21  1  0
 21 22  1  0
 22 23  2  0
 16 24  1  0
 24 25  2  0
  8 26  1  0
 26  5  1  0
 25 13  1  0
 22 17  1  0
  1 27  1  0
  1 28  1  0
  6 29  1  0
  7 30  1  0
 14 31  1  0
 15 32  1  0
 18 33  1  0
 18 34  1  0
 19 35  1  0
 19 36  1  0
 21 37  1  0
 21 38  1  0
 24 39  1  0
 25 40  1  0
M  CHG  1  12  -1
M  END
>  <UniqueID>  (50) 
46

>  <SMILES>  (50) 
NS(=O)(=O)c1ccc(S(=O)(=O)[N-]c2ccc(N3CCOCC3=O)cc2)s1

>  <Energy>  (50) 
78.05119007894238

>  <Genealogy>  (50) 
NS(=O)(=O)c1ccc(S(=O)(=O)[N-]c2ccc(N3CCOCC3=O)cc2)s1 (protonated)
NS(=O)(=O)c1ccc(S(=O)(=O)[N-]c2ccc(N3CCOCC3=O)cc2)s1 (3D coordinates assigned)
NS(=O)(=O)c1ccc(S(=O)(=O)[N-]c2ccc(N3CCOCC3=O)cc2)s1 (nonaromatic ring conformer: 78.05119007894238 kcal/mol)

>  <smiles>  (50) 
NS(=O)(=O)c1ccc(S(=O)(=O)Nc2ccc(N3CCOCC3=O)cc2)s1

>  <score_type>  (50) 
oracle

>  <origin>  (50) 
adg

>  <m_score__min__energy>  (50) 
-9.9100000000000001

>  <m_primary>  (50) 
energy

$$$$
50:0
     RDKit          3D

 43 45  0  0  0  0  0  0  0  0999 V2000
   57.4340   31.9220   42.4430 C   0  0  0  0  0  0  0  0  0  0  0  0
   57.7540   31.5000   43.8540 C   0  0  0  0  0  0  0  0  0  0  0  0
   57.9760   30.1390   44.1170 C   0  0  0  0  0  0  0  0  0  0  0  0
   58.3000   29.7080   45.4010 C   0  0  0  0  0  0  0  0  0  0  0  0
   58.3740   30.6240   46.4480 C   0  0  0  0  0  0  0  0  0  0  0  0
   58.1210   31.9840   46.2230 C   0  0  0  0  0  0  0  0  0  0  0  0
   58.1230   33.1050   47.6380 S   0  0  0  0  0  0  0  0  0  0  0  0
   59.9180   33.1850   47.7780 C   0  0  0  0  0  0  0  0  0  0  0  0
   60.6300   33.7500   46.7090 C   0  0  0  0  0  0  0  0  0  0  0  0
   62.0230   33.8330   46.7490 C   0  0  0  0  0  0  0  0  0  0  0  0
   62.7200   33.3550   47.8570 C   0  0  0  0  0  0  0  0  0  0  0  0
   62.0240   32.7920   48.9290 C   0  0  0  0  0  0  0  0  0  0  0  0
   60.6220   32.7010   48.9040 C   0  0  0  0  0  0  0  0  0  0  0  0
   59.9400   32.1000   50.0180 N   0  0  0  0  0  0  0  0  0  0  0  0
   59.1120   30.9090   49.8000 C   0  0  0  0  0  0  0  0  0  0  0  0
   58.0090   30.8200   50.8610 C   0  0  0  0  0  0  0  0  0  0  0  0
   57.3980   32.1380   51.0730 N   0  0  0  0  0  0  0  0  0  0  0  0
   58.3480   33.1320   51.6140 C   0  0  0  0  0  0  0  0  0  0  0  0
   59.8250   32.8370   51.2820 C   0  0  0  0  0  0  0  0  0  0  0  0
   57.8880   32.4480   44.9030 C   0  0  0  0  0  0  0  0  0  0  0  0
   57.8140   33.9290   44.6000 C   0  0  0  0  0  0  0  0  0  0  0  0
   56.7695   32.7983   42.4642 H   0  0  0  0  0  0  0  0  0  0  0  0
   58.3651   32.1805   41.9175 H   0  0  0  0  0  0  0  0  0  0  0  0
   56.9338   31.0952   41.9175 H   0  0  0  0  0  0  0  0  0  0  0  0
   57.8932   29.4060   43.3010 H   0  0  0  0  0  0  0  0  0  0  0  0
   58.4978   28.6424   45.5888 H   0  0  0  0  0  0  0  0  0  0  0  0
   58.6330   30.2771   47.4592 H   0  0  0  0  0  0  0  0  0  0  0  0
   60.0860   34.1307   45.8320 H   0  0  0  0  0  0  0  0  0  0  0  0
   62.5712   34.2764   45.9047 H   0  0  0  0  0  0  0  0  0  0  0  0
   63.8176   33.4211   47.8873 H   0  0  0  0  0  0  0  0  0  0  0  0
   62.5787   32.4162   49.8014 H   0  0  0  0  0  0  0  0  0  0  0  0
   58.6512   30.9661   48.8028 H   0  0  0  0  0  0  0  0  0  0  0  0
   59.7487   30.0150   49.8731 H   0  0  0  0  0  0  0  0  0  0  0  0
   57.2373   30.1124   50.5237 H   0  0  0  0  0  0  0  0  0  0  0  0
   58.4501   30.4738   51.8074 H   0  0  0  0  0  0  0  0  0  0  0  0
   57.0330   32.4850   50.1540 H   0  0  0  0  0  0  0  0  0  0  0  0
   58.0907   34.1175   51.1986 H   0  0  0  0  0  0  0  0  0  0  0  0
   58.2557   33.0955   52.7095 H   0  0  0  0  0  0  0  0  0  0  0  0
   60.3717   33.7876   51.1957 H   0  0  0  0  0  0  0  0  0  0  0  0
   60.2505   32.2212   52.0881 H   0  0  0  0  0  0  0  0  0  0  0  0
   57.7857   34.4952   45.5427 H   0  0  0  0  0  0  0  0  0  0  0  0
   58.6983   34.2289   44.0185 H   0  0  0  0  0  0  0  0  0  0  0  0
   56.9042   34.1393   44.0185 H   0  0  0  0  0  0  0  0  0  0  0  0
  1  2  1  0
  2  3  2  0
  3  4  1  0
  4  5  2  0
  5  6  1  0
  6  7  1  0
  7  8  1  0
  8  9  2  0
  9 10  1  0
 10 11  2  0
 11 12  1  0
 12 13  2  0
 13 14  1  0
 14 15  1  0
 15 16  1  0
 16 17  1  0
 17 18  1  0
 18 19  1  0
  6 20  2  0
 20 21  1  0
 20  2  1  0
 13  8  1  0
 19 14  1  0
  1 22  1  0
  1 23  1  0
  1 24  1  0
  3 25  1  0
  4 26  1  0
  5 27  1  0
  9 28  1  0
 10 29  1  0
 11 30  1  0
 12 31  1  0
 15 32  1  0
 15 33  1  0
 16 34  1  0
 16 35  1  0
 17 36  1  0
 18 37  1  0
 18 38  1  0
 19 39  1  0
 19 40  1  0
 21 41  1  0
 21 42  1  0
 21 43  1  0
M  END
>  <UniqueID>  (51) 
47

>  <SMILES>  (51) 
Cc1cccc(Sc2ccccc2N2CCNCC2)c1C

>  <Energy>  (51) 
53.81016295864361

>  <Genealogy>  (51) 
Cc1cccc(Sc2ccccc2N2CCNCC2)c1C (3D coordinates assigned)
Cc1cccc(Sc2ccccc2N2CCNCC2)c1C (nonaromatic ring conformer: 53.81016295864361 kcal/mol)

>  <smiles>  (51) 
Cc1cccc(Sc2ccccc2N2CCNCC2)c1C

>  <score_type>  (51) 
oracle

>  <origin>  (51) 
adg

>  <m_score__min__energy>  (51) 
-7.7699999999999996

>  <m_primary>  (51) 
energy

$$$$
51:0
     RDKit          3D

 63 67  0  0  0  0  0  0  0  0999 V2000
   55.1690   30.0390   52.0300 C   0  0  0  0  0  0  0  0  0  0  0  0
   56.5920   30.0960   51.9970 O   0  0  0  0  0  0  0  0  0  0  0  0
   57.3810   30.8450   52.8860 C   0  0  0  0  0  0  0  0  0  0  0  0
   57.1300   30.8700   54.2730 C   0  0  0  0  0  0  0  0  0  0  0  0
   57.9290   31.6430   55.1230 C   0  0  0  0  0  0  0  0  0  0  0  0
   58.9860   32.3940   54.6040 C   0  0  0  0  0  0  0  0  0  0  0  0
   59.2430   32.3780   53.2320 C   0  0  0  0  0  0  0  0  0  0  0  0
   58.4420   31.6120   52.3710 C   0  0  0  0  0  0  0  0  0  0  0  0
   58.7620   31.5590   50.9380 C   0  0  0  0  0  0  0  0  0  0  0  0
   57.8990   31.9950   50.1290 O   0  0  0  0  0  0  0  0  0  0  0  0
   60.0120   31.0290   50.4380 N   0  0  0  0  0  0  0  0  0  0  0  0
   60.4220   29.6480   50.7300 C   0  0  0  0  0  0  0  0  0  0  0  0
   60.0930   28.7140   49.6060 C   0  0  0  0  0  0  0  0  0  0  0  0
   60.7040   27.5080   49.3350 C   0  0  0  0  0  0  0  0  0  0  0  0
   60.0750   27.0050   48.2170 C   0  0  0  0  0  0  0  0  0  0  0  0
   59.1030   27.9260   47.8960 C   0  0  0  0  0  0  0  0  0  0  0  0
   58.1550   27.8260   46.7520 C   0  0  0  0  0  0  0  0  0  0  0  0
   59.1400   28.9300   48.7370 O   0  0  0  0  0  0  0  0  0  0  0  0
   60.5000   31.6020   49.2150 C   0  0  0  0  0  0  0  0  0  0  0  0
   59.6790   31.5240   48.1290 N   0  0  0  0  0  0  0  0  0  0  0  0
   60.0300   32.0000   46.9060 C   0  0  0  0  0  0  0  0  0  0  0  0
   59.1120   31.8490   45.7550 C   0  0  0  0  0  0  0  0  0  0  0  0
   58.7650   30.5610   45.3070 C   0  0  0  0  0  0  0  0  0  0  0  0
   57.9120   30.3990   44.2140 C   0  0  0  0  0  0  0  0  0  0  0  0
   57.3970   31.5190   43.5570 C   0  0  0  0  0  0  0  0  0  0  0  0
   57.7250   32.8020   43.9980 C   0  0  0  0  0  0  0  0  0  0  0  0
   58.5800   32.9780   45.0920 C   0  0  0  0  0  0  0  0  0  0  0  0
   58.9070   34.6250   45.6380 Cl  0  0  0  0  0  0  0  0  0  0  0  0
   61.2670   32.6120   46.7390 C   0  0  0  0  0  0  0  0  0  0  0  0
   62.1420   32.7180   47.8160 C   0  0  0  0  0  0  0  0  0  0  0  0
   63.7160   33.4250   47.4580 Cl  0  0  0  0  0  0  0  0  0  0  0  0
   61.7730   32.2420   49.1040 C   0  0  0  0  0  0  0  0  0  0  0  0
   62.8080   32.3360   50.2370 C   0  0  1  0  0  0  0  0  0  0  0  0
   64.1430   31.5780   50.1240 C   0  0  0  0  0  0  0  0  0  0  0  0
   65.1560   32.4600   50.8810 C   0  0  0  0  0  0  0  0  0  0  0  0
   64.5800   33.7520   50.9130 O   0  0  0  0  0  0  0  0  0  0  0  0
   63.2610   33.7100   50.5180 C   0  0  0  0  0  0  0  0  0  0  0  0
   62.5200   34.7230   50.5000 O   0  0  0  0  0  0  0  0  0  0  0  0
   54.8267   30.0253   53.0753 H   0  0  0  0  0  0  0  0  0  0  0  0
   54.7548   30.9213   51.5201 H   0  0  0  0  0  0  0  0  0  0  0  0
   54.8267   29.1264   51.5201 H   0  0  0  0  0  0  0  0  0  0  0  0
   56.3014   30.2785   54.6895 H   0  0  0  0  0  0  0  0  0  0  0  0
   57.7238   31.6592   56.2036 H   0  0  0  0  0  0  0  0  0  0  0  0
   59.6150   32.9971   55.2753 H   0  0  0  0  0  0  0  0  0  0  0  0
   60.0768   32.9682   52.8240 H   0  0  0  0  0  0  0  0  0  0  0  0
   61.5085   29.6289   50.9008 H   0  0  0  0  0  0  0  0  0  0  0  0
   59.8724   29.3124   51.6218 H   0  0  0  0  0  0  0  0  0  0  0  0
   61.5266   27.0420   49.8972 H   0  0  0  0  0  0  0  0  0  0  0  0
   60.3016   26.0656   47.6916 H   0  0  0  0  0  0  0  0  0  0  0  0
   57.1292   27.7178   47.1342 H   0  0  0  0  0  0  0  0  0  0  0  0
   58.2235   28.7364   46.1384 H   0  0  0  0  0  0  0  0  0  0  0  0
   58.4120   26.9500   46.1384 H   0  0  0  0  0  0  0  0  0  0  0  0
   58.7370   31.0870   48.2480 H   0  0  0  0  0  0  0  0  0  0  0  0
   59.1684   29.6763   45.8213 H   0  0  0  0  0  0  0  0  0  0  0  0
   57.6452   29.3888   43.8699 H   0  0  0  0  0  0  0  0  0  0  0  0
   56.7318   31.3896   42.6905 H   0  0  0  0  0  0  0  0  0  0  0  0
   57.3090   33.6802   43.4826 H   0  0  0  0  0  0  0  0  0  0  0  0
   61.5542   33.0125   45.7556 H   0  0  0  0  0  0  0  0  0  0  0  0
   62.1830   31.8639   51.0094 H   0  0  0  0  0  0  0  0  0  0  0  0
   64.0667   30.5853   50.5917 H   0  0  0  0  0  0  0  0  0  0  0  0
   64.4384   31.4068   49.0783 H   0  0  0  0  0  0  0  0  0  0  0  0
   65.3081   32.0812   51.9024 H   0  0  0  0  0  0  0  0  0  0  0  0
   66.1410   32.4636   50.3914 H   0  0  0  0  0  0  0  0  0  0  0  0
  1  2  1  0
  2  3  1  0
  3  4  2  0
  4  5  1  0
  5  6  2  0
  6  7  1  0
  7  8  2  0
  8  9  1  0
  9 10  2  0
  9 11  1  0
 11 12  1  0
 12 13  1  0
 13 14  2  0
 14 15  1  0
 15 16  2  0
 16 17  1  0
 16 18  1  0
 11 19  1  0
 19 20  2  0
 20 21  1  0
 21 22  1  0
 22 23  2  0
 23 24  1  0
 24 25  2  0
 25 26  1  0
 26 27  2  0
 27 28  1  0
 21 29  2  0
 29 30  1  0
 30 31  1  0
 30 32  2  0
 32 33  1  0
 33 34  1  0
 34 35  1  0
 35 36  1  0
 36 37  1  0
 37 38  2  0
  8  3  1  0
 18 13  1  0
 32 19  1  0
 37 33  1  0
 27 22  1  0
  1 39  1  0
  1 40  1  0
  1 41  1  0
  4 42  1  0
  5 43  1  0
  6 44  1  0
  7 45  1  0
 12 46  1  0
 12 47  1  0
 14 48  1  0
 15 49  1  0
 17 50  1  0
 17 51  1  0
 17 52  1  0
 20 53  1  0
 23 54  1  0
 24 55  1  0
 25 56  1  0
 26 57  1  0
 29 58  1  0
 33 59  1  1
 34 60  1  0
 34 61  1  0
 35 62  1  0
 35 63  1  0
M  CHG  1  20   1
M  END
>  <UniqueID>  (52) 
48

>  <SMILES>  (52) 
COc1ccccc1C(=O)N(Cc1ccc(C)o1)c1[nH+]c(-c2ccccc2Cl)cc(Cl)c1[C@H]1CCOC1=O

>  <Energy>  (52) 
131.0159504303859

>  <Genealogy>  (52) 
COc1ccccc1C(=O)N(Cc1ccc(C)o1)c1[nH+]c(-c2ccccc2Cl)cc(Cl)c1C1CCOC1=O (protonated)
COc1ccccc1C(=O)N(Cc1ccc(C)o1)c1[nH+]c(-c2ccccc2Cl)cc(Cl)c1[C@H]1CCOC1=O (chirality)
COc1ccccc1C(=O)N(Cc1ccc(C)o1)c1[nH+]c(-c2ccccc2Cl)cc(Cl)c1[C@H]1CCOC1=O (3D coordinates assigned)
COc1ccccc1C(=O)N(Cc1ccc(C)o1)c1[nH+]c(-c2ccccc2Cl)cc(Cl)c1[C@H]1CCOC1=O (nonaromatic ring conformer: 131.0159504303859 kcal/mol)

>  <smiles>  (52) 
COc1ccccc1C(=O)N(Cc1ccc(C)o1)c1nc(-c2ccccc2Cl)cc(Cl)c1C1CCOC1=O

>  <score_type>  (52) 
oracle

>  <origin>  (52) 
adg

>  <m_score__min__energy>  (52) 
-8.3800000000000008

>  <m_primary>  (52) 
energy

$$$$
52:0
     RDKit          3D

 33 35  0  0  0  0  0  0  0  0999 V2000
   55.1500   27.6290   45.2830 H   0  0  0  0  0  0  0  0  0  0  0  0
   55.8680   27.0630   45.7180 O   0  0  0  0  0  0  0  0  0  0  0  0
   57.0400   27.5940   46.2600 C   0  0  0  0  0  0  0  0  0  0  0  0
   57.7220   26.8340   47.2130 C   0  0  0  0  0  0  0  0  0  0  0  0
   57.3121   25.8631   47.5281 H   0  0  0  0  0  0  0  0  0  0  0  0
   58.9140   27.2900   47.7690 C   0  0  0  0  0  0  0  0  0  0  0  0
   59.4418   26.6746   48.5124 H   0  0  0  0  0  0  0  0  0  0  0  0
   59.4440   28.5270   47.3870 C   0  0  0  0  0  0  0  0  0  0  0  0
   60.6440   28.9810   47.9590 C   0  0  0  0  0  0  0  0  0  0  0  0
   61.1711   28.3553   48.6943 H   0  0  0  0  0  0  0  0  0  0  0  0
   61.1700   30.2210   47.5990 C   0  0  0  0  0  0  0  0  0  0  0  0
   62.1126   30.5683   48.0473 H   0  0  0  0  0  0  0  0  0  0  0  0
   60.5040   31.0220   46.6720 C   0  0  0  0  0  0  0  0  0  0  0  0
   60.9208   32.0017   46.3955 H   0  0  0  0  0  0  0  0  0  0  0  0
   59.3100   30.5860   46.0930 C   0  0  0  0  0  0  0  0  0  0  0  0
   58.7897   31.2289   45.3677 H   0  0  0  0  0  0  0  0  0  0  0  0
   58.7640   29.3270   46.4300 C   0  0  0  0  0  0  0  0  0  0  0  0
   57.5510   28.8520   45.8600 C   0  0  0  0  0  0  0  0  0  0  0  0
   56.8140   29.6510   44.8570 C   0  0  0  0  0  0  0  0  0  0  0  0
   55.5740   29.8240   45.0000 O   0  0  0  0  0  0  0  0  0  0  0  0
   57.5180   30.1470   43.6550 C   0  0  0  0  0  0  0  0  0  0  0  0
   57.8891   29.3948   42.9433 H   0  0  0  0  0  0  0  0  0  0  0  0
   57.7430   31.4360   43.3580 C   0  0  0  0  0  0  0  0  0  0  0  0
   58.0067   31.6753   42.3172 H   0  0  0  0  0  0  0  0  0  0  0  0
   57.6660   32.5580   44.3110 C   0  0  0  0  0  0  0  0  0  0  0  0
   58.5670   33.6050   44.3580 C   0  0  0  0  0  0  0  0  0  0  0  0
   59.4013   33.7896   43.6653 H   0  0  0  0  0  0  0  0  0  0  0  0
   58.2100   34.3730   45.4490 C   0  0  0  0  0  0  0  0  0  0  0  0
   58.6956   35.3002   45.7873 H   0  0  0  0  0  0  0  0  0  0  0  0
   57.1250   33.7500   46.0320 C   0  0  0  0  0  0  0  0  0  0  0  0
   56.5991   34.1095   46.9288 H   0  0  0  0  0  0  0  0  0  0  0  0
   56.8040   32.6390   45.3440 N   0  0  0  0  0  0  0  0  0  0  0  0
   56.0590   31.9560   45.6020 H   0  0  0  0  0  0  0  0  0  0  0  0
  1  2  1  0
  2  3  1  0
  3  4  2  0
  4  5  1  0
  4  6  1  0
  6  7  1  0
  6  8  2  0
  8  9  1  0
  9 10  1  0
  9 11  2  0
 11 12  1  0
 11 13  1  0
 13 14  1  0
 13 15  2  0
 15 16  1  0
 15 17  1  0
 17 18  2  0
 18 19  1  0
 19 20  2  0
 19 21  1  0
 21 22  1  0
 21 23  2  0
 23 24  1  0
 23 25  1  0
 25 26  2  0
 26 27  1  0
 26 28  1  0
 28 29  1  0
 28 30  2  0
 30 31  1  0
 30 32  1  0
 32 33  1  0
 18  3  1  0
 32 25  1  0
 17  8  1  0
M  END
>  <UniqueID>  (53) 
49

>  <SMILES>  (53) 
O=C(/C=C\c1ccc[nH]1)c1c(O)ccc2ccccc12

>  <Energy>  (53) 
79.22115857593363

>  <Genealogy>  (53) 
O=C(/C=C\c1ccc[nH]1)c1c(O)ccc2ccccc12 (cis-trans isomerization)
O=C(/C=C\c1ccc[nH]1)c1c(O)ccc2ccccc12 (3D coordinates assigned)
O=C(/C=C\c1ccc[nH]1)c1c(O)ccc2ccccc12 (optimized conformer: 79.22115857593363 kcal/mol)

>  <smiles>  (53) 
O=C(C=Cc1ccc[nH]1)c1c(O)ccc2ccccc12

>  <score_type>  (53) 
oracle

>  <origin>  (53) 
adg

>  <m_score__min__energy>  (53) 
-8.0199999999999996

>  <m_primary>  (53) 
energy

$$$$
53:0
     RDKit          3D

 37 39  0  0  0  0  0  0  0  0999 V2000
   57.7680   32.3430   42.6330 C   0  0  0  0  0  0  0  0  0  0  0  0
   57.8640   32.6940   44.0940 C   0  0  0  0  0  0  0  0  0  0  0  0
   57.6720   34.0280   44.4940 C   0  0  0  0  0  0  0  0  0  0  0  0
   57.7480   34.3800   45.8420 C   0  0  0  0  0  0  0  0  0  0  0  0
   58.0020   33.4060   46.8070 C   0  0  0  0  0  0  0  0  0  0  0  0
   58.1870   32.0760   46.4270 C   0  0  0  0  0  0  0  0  0  0  0  0
   58.1350   31.7040   45.0690 C   0  0  0  0  0  0  0  0  0  0  0  0
   58.2910   30.3220   44.6890 N   0  0  0  0  0  0  0  0  0  0  0  0
   57.1930   29.4190   44.4810 C   0  0  0  0  0  0  0  0  0  0  0  0
   56.0360   29.7100   44.8880 O   0  0  0  0  0  0  0  0  0  0  0  0
   57.4240   28.0940   43.8180 C   0  0  0  0  0  0  0  0  0  0  0  0
   58.2150   26.9060   44.9570 S   0  0  0  0  0  0  0  0  0  0  0  0
   59.3770   28.0870   45.6350 C   0  0  0  0  0  0  0  0  0  0  0  0
   60.4090   28.6030   44.9350 N   0  0  0  0  0  0  0  0  0  0  0  0
   61.1510   29.4510   45.6450 N   0  0  0  0  0  0  0  0  0  0  0  0
   60.7190   29.6160   46.9180 C   0  0  0  0  0  0  0  0  0  0  0  0
   61.4010   30.4820   47.9050 C   0  0  0  0  0  0  0  0  0  0  0  0
   62.2830   31.4970   47.4980 C   0  0  0  0  0  0  0  0  0  0  0  0
   62.9080   32.3070   48.4490 C   0  0  0  0  0  0  0  0  0  0  0  0
   62.6480   32.0970   49.8030 C   0  0  0  0  0  0  0  0  0  0  0  0
   61.7920   31.1140   50.1870 N   0  0  0  0  0  0  0  0  0  0  0  0
   61.1700   30.3120   49.2820 C   0  0  0  0  0  0  0  0  0  0  0  0
   59.3400   28.6820   47.2070 S   0  0  0  0  0  0  0  0  0  0  0  0
   57.4791   31.2868   42.5279 H   0  0  0  0  0  0  0  0  0  0  0  0
   57.0110   32.9798   42.1519 H   0  0  0  0  0  0  0  0  0  0  0  0
   58.7437   32.5059   42.1519 H   0  0  0  0  0  0  0  0  0  0  0  0
   57.4604   34.7996   43.7391 H   0  0  0  0  0  0  0  0  0  0  0  0
   57.6072   35.4283   46.1442 H   0  0  0  0  0  0  0  0  0  0  0  0
   58.0566   33.6864   47.8693 H   0  0  0  0  0  0  0  0  0  0  0  0
   58.3752   31.3110   47.1947 H   0  0  0  0  0  0  0  0  0  0  0  0
   59.2580   29.9390   44.5810 H   0  0  0  0  0  0  0  0  0  0  0  0
   56.4571   27.6850   43.4896 H   0  0  0  0  0  0  0  0  0  0  0  0
   58.0947   28.2491   42.9600 H   0  0  0  0  0  0  0  0  0  0  0  0
   62.4819   31.6542   46.4276 H   0  0  0  0  0  0  0  0  0  0  0  0
   63.5986   33.1028   48.1330 H   0  0  0  0  0  0  0  0  0  0  0  0
   63.1362   32.7276   50.5606 H   0  0  0  0  0  0  0  0  0  0  0  0
   60.4826   29.5262   49.6286 H   0  0  0  0  0  0  0  0  0  0  0  0
  1  2  1  0
  2  3  2  0
  3  4  1  0
  4  5  2  0
  5  6  1  0
  6  7  2  0
  7  8  1  0
  8  9  1  0
  9 10  2  0
  9 11  1  0
 11 12  1  0
 12 13  1  0
 13 14  2  0
 14 15  1  0
 15 16  2  0
 16 17  1  0
 17 18  2  0
 18 19  1  0
 19 20  2  0
 20 21  1  0
 21 22  2  0
 16 23  1  0
  7  2  1  0
 23 13  1  0
 22 17  1  0
  1 24  1  0
  1 25  1  0
  1 26  1  0
  3 27  1  0
  4 28  1  0
  5 29  1  0
  6 30  1  0
  8 31  1  0
 11 32  1  0
 11 33  1  0
 18 34  1  0
 19 35  1  0
 20 36  1  0
 22 37  1  0
M  END
>  <UniqueID>  (54) 
50

>  <SMILES>  (54) 
Cc1ccccc1NC(=O)CSc1nnc(-c2cccnc2)s1

>  <Energy>  (54) 
72.96217979154666

>  <Genealogy>  (54) 
Cc1ccccc1NC(=O)CSc1nnc(-c2cccnc2)s1 (3D coordinates assigned)
Cc1ccccc1NC(=O)CSc1nnc(-c2cccnc2)s1 (optimized conformer: 72.96217979154666 kcal/mol)

>  <smiles>  (54) 
Cc1ccccc1NC(=O)CSc1nnc(-c2cccnc2)s1

>  <score_type>  (54) 
oracle

>  <origin>  (54) 
adg

>  <m_score__min__energy>  (54) 
-8.3800000000000008

>  <m_primary>  (54) 
energy

$$$$
54:0
     RDKit          3D

 34 36  0  0  0  0  0  0  0  0999 V2000
   63.0820   32.0160   49.4020 C   0  0  0  0  0  0  0  0  0  0  0  0
   63.0090   33.7910   49.2880 S   0  0  0  0  0  0  0  0  0  0  0  0
   63.7120   34.2230   48.0310 O   0  0  0  0  0  0  0  0  0  0  0  0
   63.6970   34.4210   50.4660 O   0  0  0  0  0  0  0  0  0  0  0  0
   61.3590   34.3180   49.2100 N   0  0  0  0  0  0  0  0  0  0  0  0
   60.3680   33.8410   48.2910 C   0  0  0  0  0  0  0  0  0  0  0  0
   60.2640   34.4600   47.0410 C   0  0  0  0  0  0  0  0  0  0  0  0
   59.3120   34.0310   46.1100 C   0  0  0  0  0  0  0  0  0  0  0  0
   58.4370   32.9780   46.4230 C   0  0  0  0  0  0  0  0  0  0  0  0
   57.4300   32.5280   45.4330 C   0  0  0  0  0  0  0  0  0  0  0  0
   56.3870   33.2120   45.2590 O   0  0  0  0  0  0  0  0  0  0  0  0
   57.6270   31.3610   44.6220 N   0  0  0  0  0  0  0  0  0  0  0  0
   57.6760   30.0060   45.0910 C   0  0  0  0  0  0  0  0  0  0  0  0
   58.8850   29.4220   45.5570 C   0  0  0  0  0  0  0  0  0  0  0  0
   58.9070   28.0940   46.0240 C   0  0  0  0  0  0  0  0  0  0  0  0
   57.7070   27.3900   46.0270 C   0  0  0  0  0  0  0  0  0  0  0  0
   57.4980   26.1290   46.4310 N   0  0  0  0  0  0  0  0  0  0  0  0
   56.1650   25.9820   46.2190 C   0  0  0  0  0  0  0  0  0  0  0  0
   55.5570   24.9100   46.4760 O   0  0  0  0  0  0  0  0  0  0  0  0
   55.5350   27.0720   45.7130 N   0  0  0  0  0  0  0  0  0  0  0  0
   56.5410   27.9510   45.6020 C   0  0  0  0  0  0  0  0  0  0  0  0
   56.4800   29.2600   45.1320 C   0  0  0  0  0  0  0  0  0  0  0  0
   58.5520   32.3460   47.6720 C   0  0  0  0  0  0  0  0  0  0  0  0
   59.5050   32.7760   48.6010 C   0  0  0  0  0  0  0  0  0  0  0  0
   63.0943   31.7168   50.4604 H   0  0  0  0  0  0  0  0  0  0  0  0
   62.2010   31.5803   48.9080 H   0  0  0  0  0  0  0  0  0  0  0  0
   63.9958   31.6541   48.9080 H   0  0  0  0  0  0  0  0  0  0  0  0
   60.9373   35.2922   46.7876 H   0  0  0  0  0  0  0  0  0  0  0  0
   59.2484   34.5212   45.1273 H   0  0  0  0  0  0  0  0  0  0  0  0
   59.8125   30.0133   45.5528 H   0  0  0  0  0  0  0  0  0  0  0  0
   59.8404   27.6292   46.3743 H   0  0  0  0  0  0  0  0  0  0  0  0
   55.5270   29.6994   44.8023 H   0  0  0  0  0  0  0  0  0  0  0  0
   57.8871   31.5060   47.9216 H   0  0  0  0  0  0  0  0  0  0  0  0
   59.5794   32.2782   49.5791 H   0  0  0  0  0  0  0  0  0  0  0  0
  1  2  1  0
  2  3  2  0
  2  4  2  0
  2  5  1  0
  5  6  1  0
  6  7  2  0
  7  8  1  0
  8  9  2  0
  9 10  1  0
 10 11  2  0
 10 12  1  0
 12 13  1  0
 13 14  2  0
 14 15  1  0
 15 16  2  0
 16 17  1  0
 17 18  1  0
 18 19  2  0
 18 20  1  0
 20 21  1  0
 21 22  2  0
  9 23  1  0
 23 24  2  0
 24  6  1  0
 22 13  1  0
 21 16  1  0
  1 25  1  0
  1 26  1  0
  1 27  1  0
  7 28  1  0
  8 29  1  0
 14 30  1  0
 15 31  1  0
 22 32  1  0
 23 33  1  0
 24 34  1  0
M  CHG  4   5  -1  12  -1  17  -1  20  -1
M  END
>  <UniqueID>  (55) 
51

>  <SMILES>  (55) 
CS(=O)(=O)[N-]c1ccc(C(=O)[N-]c2ccc3[n-]c(=O)[n-]c3c2)cc1

>  <Energy>  (55) 
77.73586686656068

>  <Genealogy>  (55) 
CS(=O)(=O)[N-]c1ccc(C(=O)[N-]c2ccc3[n-]c(=O)[n-]c3c2)cc1 (protonated)
CS(=O)(=O)[N-]c1ccc(C(=O)[N-]c2ccc3[n-]c(=O)[n-]c3c2)cc1 (3D coordinates assigned)
CS(=O)(=O)[N-]c1ccc(C(=O)[N-]c2ccc3[n-]c(=O)[n-]c3c2)cc1 (optimized conformer: 77.73586686656068 kcal/mol)

>  <smiles>  (55) 
CS(=O)(=O)Nc1ccc(C(=O)Nc2ccc3[nH]c(=O)[nH]c3c2)cc1

>  <score_type>  (55) 
oracle

>  <origin>  (55) 
adg

>  <m_score__min__energy>  (55) 
-13.109999999999999

>  <m_primary>  (55) 
energy

$$$$
55:0
     RDKit          3D

 57 59  0  0  0  0  0  0  0  0999 V2000
   57.8940   20.6510   46.3870 C   0  0  0  0  0  0  0  0  0  0  0  0
   56.4280   20.3580   46.7360 C   0  0  0  0  0  0  0  0  0  0  0  0
   56.2680   18.9200   47.2450 C   0  0  0  0  0  0  0  0  0  0  0  0
   55.4740   20.6710   45.5610 C   0  0  0  0  0  0  0  0  0  0  0  0
   55.7830   21.9540   44.9100 N   0  0  0  0  0  0  0  0  0  0  0  0
   55.5310   23.0800   45.5870 N   0  0  0  0  0  0  0  0  0  0  0  0
   55.7940   24.3130   45.0790 C   0  0  0  0  0  0  0  0  0  0  0  0
   55.5270   25.5060   45.9020 C   0  0  0  0  0  0  0  0  0  0  0  0
   54.3670   25.9970   45.9620 O   0  0  0  0  0  0  0  0  0  0  0  0
   56.6000   26.1170   46.6220 N   0  0  0  0  0  0  0  0  0  0  0  0
   57.8730   26.4660   46.0050 C   0  0  0  0  0  0  0  0  0  0  0  0
   57.9040   27.9400   45.7320 C   0  0  0  0  0  0  0  0  0  0  0  0
   56.8420   28.5590   45.0550 C   0  0  0  0  0  0  0  0  0  0  0  0
   56.8920   29.9250   44.7680 C   0  0  0  0  0  0  0  0  0  0  0  0
   58.0180   30.6830   45.1130 C   0  0  0  0  0  0  0  0  0  0  0  0
   58.0420   32.0720   44.7640 N   0  0  0  0  0  0  0  0  0  0  0  0
   58.0540   33.3650   45.9180 S   0  0  0  0  0  0  0  0  0  0  0  0
   57.8370   34.6650   45.1970 O   0  0  0  0  0  0  0  0  0  0  0  0
   56.9440   33.1840   46.9150 O   0  0  0  0  0  0  0  0  0  0  0  0
   59.6220   33.4220   46.7210 C   0  0  0  0  0  0  0  0  0  0  0  0
   59.7070   33.1590   48.0930 C   0  0  0  0  0  0  0  0  0  0  0  0
   60.9400   33.2260   48.7490 C   0  0  0  0  0  0  0  0  0  0  0  0
   62.1010   33.5770   48.0430 C   0  0  0  0  0  0  0  0  0  0  0  0
   63.4260   33.6260   48.7510 C   0  0  0  0  0  0  0  0  0  0  0  0
   64.1660   32.4760   48.4500 O   0  0  0  0  0  0  0  0  0  0  0  0
   62.0130   33.8410   46.6660 C   0  0  0  0  0  0  0  0  0  0  0  0
   60.7820   33.7610   46.0100 C   0  0  0  0  0  0  0  0  0  0  0  0
   59.0850   30.0630   45.7890 C   0  0  0  0  0  0  0  0  0  0  0  0
   60.1590   30.7750   46.2060 F   0  0  0  0  0  0  0  0  0  0  0  0
   59.0280   28.6990   46.0860 C   0  0  0  0  0  0  0  0  0  0  0  0
   56.3370   24.4160   43.7960 C   0  0  0  0  0  0  0  0  0  0  0  0
   56.6010   23.2560   43.0770 C   0  0  0  0  0  0  0  0  0  0  0  0
   56.3200   22.0140   43.6500 C   0  0  0  0  0  0  0  0  0  0  0  0
   56.5640   20.9630   42.9970 O   0  0  0  0  0  0  0  0  0  0  0  0
   58.4753   20.7672   47.3136 H   0  0  0  0  0  0  0  0  0  0  0  0
   58.3046   19.8171   45.7987 H   0  0  0  0  0  0  0  0  0  0  0  0
   57.9525   21.5786   45.7987 H   0  0  0  0  0  0  0  0  0  0  0  0
   56.1375   21.0355   47.5524 H   0  0  0  0  0  0  0  0  0  0  0  0
   56.2678   18.9183   48.3450 H   0  0  0  0  0  0  0  0  0  0  0  0
   55.3181   18.5045   46.8775 H   0  0  0  0  0  0  0  0  0  0  0  0
   57.1034   18.3059   46.8775 H   0  0  0  0  0  0  0  0  0  0  0  0
   55.5584   19.8674   44.8146 H   0  0  0  0  0  0  0  0  0  0  0  0
   54.4544   20.7400   45.9679 H   0  0  0  0  0  0  0  0  0  0  0  0
   58.6959   26.2009   46.6852 H   0  0  0  0  0  0  0  0  0  0  0  0
   57.9883   25.9139   45.0606 H   0  0  0  0  0  0  0  0  0  0  0  0
   55.9672   27.9664   44.7493 H   0  0  0  0  0  0  0  0  0  0  0  0
   56.0406   30.4091   44.2672 H   0  0  0  0  0  0  0  0  0  0  0  0
   58.7997   32.8984   48.6578 H   0  0  0  0  0  0  0  0  0  0  0  0
   61.0003   33.0024   49.8243 H   0  0  0  0  0  0  0  0  0  0  0  0
   63.9833   34.5156   48.4223 H   0  0  0  0  0  0  0  0  0  0  0  0
   63.2567   33.6758   49.8367 H   0  0  0  0  0  0  0  0  0  0  0  0
   64.5450   32.6210   47.5440 H   0  0  0  0  0  0  0  0  0  0  0  0
   62.9175   34.1120   46.1016 H   0  0  0  0  0  0  0  0  0  0  0  0
   60.7226   33.9649   44.9307 H   0  0  0  0  0  0  0  0  0  0  0  0
   59.8717   28.2170   46.6016 H   0  0  0  0  0  0  0  0  0  0  0  0
   56.5529   25.4026   43.3602 H   0  0  0  0  0  0  0  0  0  0  0  0
   57.0278   23.3160   42.0649 H   0  0  0  0  0  0  0  0  0  0  0  0
  1  2  1  0
  2  3  1  0
  2  4  1  0
  4  5  1  0
  5  6  1  0
  6  7  2  0
  7  8  1  0
  8  9  2  0
  8 10  1  0
 10 11  1  0
 11 12  1  0
 12 13  2  0
 13 14  1  0
 14 15  2  0
 15 16  1  0
 16 17  1  0
 17 18  2  0
 17 19  2  0
 17 20  1  0
 20 21  2  0
 21 22  1  0
 22 23  2  0
 23 24  1  0
 24 25  1  0
 23 26  1  0
 26 27  2  0
 15 28  1  0
 28 29  1  0
 28 30  2  0
  7 31  1  0
 31 32  2  0
 32 33  1  0
 33 34  2  0
 33  5  1  0
 30 12  1  0
 27 20  1  0
  1 35  1  0
  1 36  1  0
  1 37  1  0
  2 38  1  0
  3 39  1  0
  3 40  1  0
  3 41  1  0
  4 42  1  0
  4 43  1  0
 11 44  1  0
 11 45  1  0
 13 46  1  0
 14 47  1  0
 21 48  1  0
 22 49  1  0
 24 50  1  0
 24 51  1  0
 25 52  1  0
 26 53  1  0
 27 54  1  0
 30 55  1  0
 31 56  1  0
 32 57  1  0
M  CHG  2  10  -1  16  -1
M  END
>  <UniqueID>  (56) 
52

>  <SMILES>  (56) 
CC(C)Cn1nc(C(=O)[N-]Cc2ccc([N-]S(=O)(=O)c3ccc(CO)cc3)c(F)c2)ccc1=O

>  <Energy>  (56) 
56.758969658643494

>  <Genealogy>  (56) 
CC(C)Cn1nc(C(=O)[N-]Cc2ccc([N-]S(=O)(=O)c3ccc(CO)cc3)c(F)c2)ccc1=O (protonated)
CC(C)Cn1nc(C(=O)[N-]Cc2ccc([N-]S(=O)(=O)c3ccc(CO)cc3)c(F)c2)ccc1=O (3D coordinates assigned)
CC(C)Cn1nc(C(=O)[N-]Cc2ccc([N-]S(=O)(=O)c3ccc(CO)cc3)c(F)c2)ccc1=O (optimized conformer: 56.758969658643494 kcal/mol)

>  <smiles>  (56) 
CC(C)Cn1nc(C(=O)NCc2ccc(NS(=O)(=O)c3ccc(CO)cc3)c(F)c2)ccc1=O

>  <score_type>  (56) 
oracle

>  <origin>  (56) 
adg

>  <m_score__min__energy>  (56) 
-11.98

>  <m_primary>  (56) 
energy

$$$$
56:0
     RDKit          3D

 64 67  0  0  0  0  0  0  0  0999 V2000
   55.6170   26.5610   46.1400 O   0  0  0  0  0  0  0  0  0  0  0  0
   56.3450   27.4400   45.6090 C   0  0  0  0  0  0  0  0  0  0  0  0
   57.7800   27.1080   45.2730 C   0  0  0  0  0  0  0  0  0  0  0  0
   58.6660   28.1490   45.6980 O   0  0  0  0  0  0  0  0  0  0  0  0
   59.1290   28.3330   47.0120 C   0  0  0  0  0  0  0  0  0  0  0  0
   58.7260   29.4190   47.8110 C   0  0  0  0  0  0  0  0  0  0  0  0
   59.1940   29.5460   49.1200 C   0  0  0  0  0  0  0  0  0  0  0  0
   60.0780   28.6020   49.6530 C   0  0  0  0  0  0  0  0  0  0  0  0
   60.4930   28.7410   51.0200 N   0  0  0  0  0  0  0  0  0  0  0  0
   59.6480   28.9550   52.1590 C   0  0  0  0  0  0  0  0  0  0  0  0
   59.6730   28.1080   53.0920 O   0  0  0  0  0  0  0  0  0  0  0  0
   58.7120   30.1020   52.2430 C   0  0  0  0  0  0  0  0  0  0  0  0
   57.3260   29.8750   52.3300 C   0  0  0  0  0  0  0  0  0  0  0  0
   56.4360   30.9510   52.3950 C   0  0  0  0  0  0  0  0  0  0  0  0
   56.9190   32.2630   52.3720 C   0  0  0  0  0  0  0  0  0  0  0  0
   58.2930   32.5000   52.2800 C   0  0  0  0  0  0  0  0  0  0  0  0
   58.8970   34.1480   52.2410 Cl  0  0  0  0  0  0  0  0  0  0  0  0
   59.1880   31.4260   52.2040 C   0  0  0  0  0  0  0  0  0  0  0  0
   60.4740   27.5090   48.8620 C   0  0  0  0  0  0  0  0  0  0  0  0
   60.0120   27.3860   47.5470 C   0  0  0  0  0  0  0  0  0  0  0  0
   60.4060   26.3250   46.7990 F   0  0  0  0  0  0  0  0  0  0  0  0
   55.7350   28.6730   45.1970 N   0  0  0  0  0  0  0  0  0  0  0  0
   56.3740   29.7620   44.5200 C   0  0  0  0  0  0  0  0  0  0  0  0
   56.3170   29.8920   43.1220 C   0  0  0  0  0  0  0  0  0  0  0  0
   56.9860   30.9400   42.4860 C   0  0  0  0  0  0  0  0  0  0  0  0
   57.7410   31.8490   43.2350 C   0  0  0  0  0  0  0  0  0  0  0  0
   57.8410   31.7010   44.6260 C   0  0  0  0  0  0  0  0  0  0  0  0
   58.8510   32.7840   45.5780 S   0  0  0  0  0  0  0  0  0  0  0  0
   58.0010   33.4480   46.6260 O   0  0  0  0  0  0  0  0  0  0  0  0
   59.4610   33.8270   44.6850 O   0  0  0  0  0  0  0  0  0  0  0  0
   60.1100   31.8500   46.3290 N   0  0  0  0  0  0  0  0  0  0  0  0
   60.7200   32.1800   47.4360 C   0  0  0  0  0  0  0  0  0  0  0  0
   61.8370   31.3050   47.9610 C   0  0  0  0  0  0  0  0  0  0  0  0
   63.2310   31.9560   47.8280 C   0  0  0  0  0  0  0  0  0  0  0  0
   63.2450   33.4960   47.7380 C   0  0  0  0  0  0  0  0  0  0  0  0
   62.6430   34.2080   48.9630 C   0  0  0  0  0  0  0  0  0  0  0  0
   61.1830   33.8390   49.3050 C   0  0  0  0  0  0  0  0  0  0  0  0
   60.4190   33.4100   48.1300 N   0  0  0  0  0  0  0  0  0  0  0  0
   57.1640   30.6510   45.2610 C   0  0  0  0  0  0  0  0  0  0  0  0
   58.0590   26.1712   45.7776 H   0  0  0  0  0  0  0  0  0  0  0  0
   57.8662   27.0016   44.1816 H   0  0  0  0  0  0  0  0  0  0  0  0
   58.0376   30.1729   47.4014 H   0  0  0  0  0  0  0  0  0  0  0  0
   58.8651   30.3951   49.7372 H   0  0  0  0  0  0  0  0  0  0  0  0
   56.9406   28.8449   52.3470 H   0  0  0  0  0  0  0  0  0  0  0  0
   55.3540   30.7653   52.4643 H   0  0  0  0  0  0  0  0  0  0  0  0
   56.2174   33.1085   52.4263 H   0  0  0  0  0  0  0  0  0  0  0  0
   60.2674   31.6177   52.1135 H   0  0  0  0  0  0  0  0  0  0  0  0
   61.1497   26.7476   49.2787 H   0  0  0  0  0  0  0  0  0  0  0  0
   55.7437   29.1661   42.5267 H   0  0  0  0  0  0  0  0  0  0  0  0
   56.9192   31.0510   41.3937 H   0  0  0  0  0  0  0  0  0  0  0  0
   58.2567   32.6806   42.7324 H   0  0  0  0  0  0  0  0  0  0  0  0
   60.3910   30.9800   45.8260 H   0  0  0  0  0  0  0  0  0  0  0  0
   61.6480   31.0968   49.0245 H   0  0  0  0  0  0  0  0  0  0  0  0
   61.8454   30.3862   47.3562 H   0  0  0  0  0  0  0  0  0  0  0  0
   63.8256   31.6635   48.7060 H   0  0  0  0  0  0  0  0  0  0  0  0
   63.6396   31.5964   46.8721 H   0  0  0  0  0  0  0  0  0  0  0  0
   64.2887   33.8251   47.6268 H   0  0  0  0  0  0  0  0  0  0  0  0
   62.6171   33.7668   46.8764 H   0  0  0  0  0  0  0  0  0  0  0  0
   63.2662   33.9631   49.8357 H   0  0  0  0  0  0  0  0  0  0  0  0
   62.6289   35.2782   48.7093 H   0  0  0  0  0  0  0  0  0  0  0  0
   61.1896   33.0198   50.0391 H   0  0  0  0  0  0  0  0  0  0  0  0
   60.6973   34.7405   49.7067 H   0  0  0  0  0  0  0  0  0  0  0  0
   59.6240   34.0140   47.8380 H   0  0  0  0  0  0  0  0  0  0  0  0
   57.2535   30.5237   46.3499 H   0  0  0  0  0  0  0  0  0  0  0  0
  1  2  2  0
  2  3  1  0
  3  4  1  0
  4  5  1  0
  5  6  2  0
  6  7  1  0
  7  8  2  0
  8  9  1  0
  9 10  1  0
 10 11  2  0
 10 12  1  0
 12 13  2  0
 13 14  1  0
 14 15  2  0
 15 16  1  0
 16 17  1  0
 16 18  2  0
  8 19  1  0
 19 20  2  0
 20 21  1  0
  2 22  1  0
 22 23  1  0
 23 24  2  0
 24 25  1  0
 25 26  2  0
 26 27  1  0
 27 28  1  0
 28 29  2  0
 28 30  2  0
 28 31  1  0
 31 32  2  3
 32 33  1  0
 33 34  1  0
 34 35  1  0
 35 36  1  0
 36 37  1  0
 37 38  1  0
 27 39  2  0
 20  5  1  0
 39 23  1  0
 18 12  1  0
 38 32  1  0
  3 40  1  0
  3 41  1  0
  6 42  1  0
  7 43  1  0
 13 44  1  0
 14 45  1  0
 15 46  1  0
 18 47  1  0
 19 48  1  0
 24 49  1  0
 25 50  1  0
 26 51  1  0
 31 52  1  0
 33 53  1  0
 33 54  1  0
 34 55  1  0
 34 56  1  0
 35 57  1  0
 35 58  1  0
 36 59  1  0
 36 60  1  0
 37 61  1  0
 37 62  1  0
 38 63  1  0
 39 64  1  0
M  CHG  3   9  -1  22  -1  31   1
M  END
>  <UniqueID>  (57) 
53

>  <SMILES>  (57) 
O=C(COc1ccc([N-]C(=O)c2cccc(Cl)c2)cc1F)[N-]c1cccc(S(=O)(=O)[NH+]=C2CCCCCN2)c1

>  <Energy>  (57) 
88.04930448900883

>  <Genealogy>  (57) 
O=C(COc1ccc([N-]C(=O)c2cccc(Cl)c2)cc1F)[N-]c1cccc(S(=O)(=O)[NH+]=C2CCCCCN2)c1 (protonated)
O=C(COc1ccc([N-]C(=O)c2cccc(Cl)c2)cc1F)[N-]c1cccc(S(=O)(=O)[NH+]=C2CCCCCN2)c1 (3D coordinates assigned)
O=C(COc1ccc([N-]C(=O)c2cccc(Cl)c2)cc1F)[N-]c1cccc(S(=O)(=O)[NH+]=C2CCCCCN2)c1 (nonaromatic ring conformer: 88.04930448900883 kcal/mol)

>  <smiles>  (57) 
O=C(COc1ccc(NC(=O)c2cccc(Cl)c2)cc1F)Nc1cccc(S(=O)(=O)N=C2CCCCCN2)c1

>  <score_type>  (57) 
oracle

>  <origin>  (57) 
adg

>  <m_score__min__energy>  (57) 
-9.2300000000000004

>  <m_primary>  (57) 
energy

$$$$
57:0
     RDKit          3D

 28 30  0  0  1  0  0  0  0  0999 V2000
   58.7100   27.8000   43.8770 C   0  0  0  0  0  0  0  0  0  0  0  0
   57.6310   28.8060   43.9260 C   0  0  0  0  0  0  0  0  0  0  0  0
   56.6580   28.9420   43.0230 N   0  0  0  0  0  0  0  0  0  0  0  0
   55.8450   29.9570   43.3770 C   0  0  0  0  0  0  0  0  0  0  0  0
   56.3070   30.4720   44.5180 N   0  0  0  0  0  0  0  0  0  0  0  0
   57.4030   29.7930   44.8870 C   0  0  0  0  0  0  0  0  0  0  0  0
   58.2660   30.0220   46.1180 C   0  0  0  0  0  0  0  0  0  0  0  0
   57.8720   31.3390   46.5560 N   0  0  0  0  0  0  0  0  0  0  0  0
   58.2270   32.4400   46.0560 C   0  0  0  0  0  0  0  0  0  0  0  0
   58.0710   32.6650   44.7500 N   0  0  0  0  0  0  0  0  0  0  0  0
   58.4290   33.8190   44.1520 C   0  0  0  0  0  0  0  0  0  0  0  0
   58.9750   34.7960   44.9340 N   0  0  0  0  0  0  0  0  0  0  0  0
   59.1420   34.5900   46.2630 C   0  0  0  0  0  0  0  0  0  0  0  0
   59.6390   35.3700   47.2080 N   0  0  0  0  0  0  0  0  0  0  0  0
   59.5910   34.7200   48.3550 N   0  0  0  0  0  0  0  0  0  0  0  0
   59.0510   33.4730   48.1910 C   0  0  0  0  0  0  0  0  0  0  0  0
   58.7700   33.4000   46.8620 C   0  0  0  0  0  0  0  0  0  0  0  0
   59.0032   27.5266   44.9013 H   0  0  0  0  0  0  0  0  0  0  0  0
   58.3530   26.9049   43.3466 H   0  0  0  0  0  0  0  0  0  0  0  0
   59.5779   28.2187   43.3466 H   0  0  0  0  0  0  0  0  0  0  0  0
   56.5270   28.3650   42.1690 H   0  0  0  0  0  0  0  0  0  0  0  0
   54.9583   30.2999   42.8237 H   0  0  0  0  0  0  0  0  0  0  0  0
   58.0562   29.2695   46.8924 H   0  0  0  0  0  0  0  0  0  0  0  0
   59.3433   29.9404   45.9111 H   0  0  0  0  0  0  0  0  0  0  0  0
   57.6520   31.9040   44.1730 H   0  0  0  0  0  0  0  0  0  0  0  0
   58.2862   33.9683   43.0716 H   0  0  0  0  0  0  0  0  0  0  0  0
   60.0210   36.3470   47.1220 H   0  0  0  0  0  0  0  0  0  0  0  0
   58.8825   32.7043   48.9595 H   0  0  0  0  0  0  0  0  0  0  0  0
  1  2  1  0
  2  3  1  0
  3  4  1  0
  4  5  2  0
  5  6  1  0
  6  7  1  0
  7  8  1  0
  8  9  2  0
  9 10  1  0
 10 11  1  0
 11 12  2  0
 12 13  1  0
 13 14  1  0
 14 15  1  0
 15 16  2  0
 16 17  1  0
  6  2  2  0
 17  9  1  0
 17 13  2  0
  1 18  1  0
  1 19  1  0
  1 20  1  0
  3 21  1  0
  4 22  1  0
  7 23  1  0
  7 24  1  0
 10 25  1  0
 11 26  1  0
 14 27  1  0
 16 28  1  0
M  END
>  <smiles>  (58) 
Cc1[nH]cnc1CN=c1[nH]cnc2[nH]ncc12

>  <score_type>  (58) 
oracle

>  <origin>  (58) 
adg

>  <m_score__min__energy>  (58) 
-5.9699999999999998

>  <m_primary>  (58) 
energy

$$$$
58:0
     RDKit          3D

 26 26  0  0  0  0  0  0  0  0999 V2000
   60.7150   26.8120   46.3790 C   0  0  0  0  0  0  0  0  0  0  0  0
   59.8550   25.7910   46.4040 C   0  0  0  0  0  0  0  0  0  0  0  0
   58.3690   26.0180   46.3970 C   0  0  0  0  0  0  0  0  0  0  0  0
   58.0320   27.2830   45.7420 N   0  0  0  0  0  0  0  0  0  0  0  0
   56.6670   27.6800   45.5470 C   0  0  0  0  0  0  0  0  0  0  0  0
   55.7310   26.9330   45.9390 O   0  0  0  0  0  0  0  0  0  0  0  0
   56.3430   28.9540   44.8870 C   0  0  0  0  0  0  0  0  0  0  0  0
   55.1540   29.3740   44.8700 O   0  0  0  0  0  0  0  0  0  0  0  0
   57.3780   29.6960   44.2320 N   0  0  0  0  0  0  0  0  0  0  0  0
   57.8690   30.9670   44.6770 C   0  0  0  0  0  0  0  0  0  0  0  0
   58.1620   31.1340   46.0360 C   0  0  0  0  0  0  0  0  0  0  0  0
   58.6420   32.3560   46.5130 C   0  0  0  0  0  0  0  0  0  0  0  0
   58.8170   33.4290   45.6360 C   0  0  0  0  0  0  0  0  0  0  0  0
   59.4160   34.9650   46.2360 Cl  0  0  0  0  0  0  0  0  0  0  0  0
   58.4960   33.2850   44.2820 C   0  0  0  0  0  0  0  0  0  0  0  0
   58.0140   32.0620   43.7970 C   0  0  0  0  0  0  0  0  0  0  0  0
   57.5160   31.9730   42.1110 Cl  0  0  0  0  0  0  0  0  0  0  0  0
   61.7980   26.6192   46.3848 H   0  0  0  0  0  0  0  0  0  0  0  0
   60.3406   27.8460   46.3526 H   0  0  0  0  0  0  0  0  0  0  0  0
   60.2421   24.7617   46.4303 H   0  0  0  0  0  0  0  0  0  0  0  0
   57.8821   25.1928   45.8566 H   0  0  0  0  0  0  0  0  0  0  0  0
   58.0171   26.0593   47.4384 H   0  0  0  0  0  0  0  0  0  0  0  0
   58.7980   27.9080   45.4010 H   0  0  0  0  0  0  0  0  0  0  0  0
   58.0130   30.2964   46.7334 H   0  0  0  0  0  0  0  0  0  0  0  0
   58.8823   32.4734   47.5800 H   0  0  0  0  0  0  0  0  0  0  0  0
   58.6225   34.1351   43.5955 H   0  0  0  0  0  0  0  0  0  0  0  0
  1  2  2  0
  2  3  1  0
  3  4  1  0
  4  5  1  0
  5  6  2  0
  5  7  1  0
  7  8  2  0
  7  9  1  0
  9 10  1  0
 10 11  2  0
 11 12  1  0
 12 13  2  0
 13 14  1  0
 13 15  1  0
 15 16  2  0
 16 17  1  0
 16 10  1  0
  1 18  1  0
  1 19  1  0
  2 20  1  0
  3 21  1  0
  3 22  1  0
  4 23  1  0
 11 24  1  0
 12 25  1  0
 15 26  1  0
M  CHG  1   9  -1
M  END
>  <UniqueID>  (59) 
54

>  <SMILES>  (59) 
C=CCNC(=O)C(=O)[N-]c1ccc(Cl)cc1Cl

>  <Energy>  (59) 
25.410012178935993

>  <Genealogy>  (59) 
C=CCNC(=O)C(=O)[N-]c1ccc(Cl)cc1Cl (protonated)
C=CCNC(=O)C(=O)[N-]c1ccc(Cl)cc1Cl (3D coordinates assigned)
C=CCNC(=O)C(=O)[N-]c1ccc(Cl)cc1Cl (optimized conformer: 25.410012178935993 kcal/mol)

>  <smiles>  (59) 
C=CCNC(=O)C(=O)Nc1ccc(Cl)cc1Cl

>  <score_type>  (59) 
oracle

>  <origin>  (59) 
adg

>  <m_score__min__energy>  (59) 
-7.8899999999999997

>  <m_primary>  (59) 
energy

$$$$
59:0
     RDKit          3D

 43 45  0  0  0  0  0  0  0  0999 V2000
   57.3310   29.0240   43.2800 N   0  0  0  0  0  0  0  0  0  0  0  0
   57.6740   30.0000   44.2710 C   0  0  0  0  0  0  0  0  0  0  0  0
   57.0160   31.2390   44.2710 C   0  0  0  0  0  0  0  0  0  0  0  0
   57.3100   32.2080   45.2360 C   0  0  0  0  0  0  0  0  0  0  0  0
   56.6100   33.4150   45.2070 O   0  0  0  0  0  0  0  0  0  0  0  0
   58.2890   31.9420   46.2140 C   0  0  0  0  0  0  0  0  0  0  0  0
   58.6260   32.9380   47.2440 C   0  0  0  0  0  0  0  0  0  0  0  0
   57.6860   33.4890   47.8760 O   0  0  0  0  0  0  0  0  0  0  0  0
   60.0010   33.2700   47.5410 N   0  0  0  0  0  0  0  0  0  0  0  0
   60.3260   34.1500   48.6740 C   0  0  0  0  0  0  0  0  0  0  0  0
   61.5120   33.5780   49.4590 C   0  0  0  0  0  0  0  0  0  0  0  0
   62.6020   33.1600   48.5640 N   0  0  0  0  0  0  0  0  0  0  0  0
   63.8930   32.8630   49.1190 C   0  0  0  0  0  0  0  0  0  0  0  0
   64.9100   33.4600   48.6720 O   0  0  0  0  0  0  0  0  0  0  0  0
   64.0500   31.8600   50.1960 C   0  0  0  0  0  0  0  0  0  0  0  0
   65.2600   31.7610   50.9050 C   0  0  0  0  0  0  0  0  0  0  0  0
   65.4140   30.8040   51.9130 C   0  0  0  0  0  0  0  0  0  0  0  0
   64.3660   29.9300   52.2130 C   0  0  0  0  0  0  0  0  0  0  0  0
   63.1650   30.0100   51.5040 C   0  0  0  0  0  0  0  0  0  0  0  0
   63.0070   30.9670   50.4970 C   0  0  0  0  0  0  0  0  0  0  0  0
   62.4550   33.2850   47.1110 C   0  0  0  0  0  0  0  0  0  0  0  0
   61.0810   32.7620   46.6780 C   0  0  0  0  0  0  0  0  0  0  0  0
   58.9560   30.7100   46.2110 C   0  0  0  0  0  0  0  0  0  0  0  0
   58.6510   29.7380   45.2520 C   0  0  0  0  0  0  0  0  0  0  0  0
   59.5060   28.2030   45.3180 Cl  0  0  0  0  0  0  0  0  0  0  0  0
   56.6510   28.2620   43.5010 H   0  0  0  0  0  0  0  0  0  0  0  0
   57.7350   29.0490   42.3180 H   0  0  0  0  0  0  0  0  0  0  0  0
   56.2588   31.4513   43.5019 H   0  0  0  0  0  0  0  0  0  0  0  0
   56.5090   34.0110   46.0190 H   0  0  0  0  0  0  0  0  0  0  0  0
   60.5875   35.1493   48.2957 H   0  0  0  0  0  0  0  0  0  0  0  0
   59.4527   34.2196   49.3392 H   0  0  0  0  0  0  0  0  0  0  0  0
   61.8903   34.3489   50.1465 H   0  0  0  0  0  0  0  0  0  0  0  0
   61.1637   32.6941   50.0135 H   0  0  0  0  0  0  0  0  0  0  0  0
   66.0910   32.4407   50.6653 H   0  0  0  0  0  0  0  0  0  0  0  0
   66.3604   30.7393   52.4698 H   0  0  0  0  0  0  0  0  0  0  0  0
   64.4866   29.1789   53.0075 H   0  0  0  0  0  0  0  0  0  0  0  0
   62.3420   29.3188   51.7384 H   0  0  0  0  0  0  0  0  0  0  0  0
   62.0616   31.0214   49.9374 H   0  0  0  0  0  0  0  0  0  0  0  0
   62.5492   34.3429   46.8247 H   0  0  0  0  0  0  0  0  0  0  0  0
   63.2396   32.6941   46.6158 H   0  0  0  0  0  0  0  0  0  0  0  0
   60.8891   33.0819   45.6432 H   0  0  0  0  0  0  0  0  0  0  0  0
   61.0936   31.6651   46.7591 H   0  0  0  0  0  0  0  0  0  0  0  0
   59.7262   30.5051   46.9692 H   0  0  0  0  0  0  0  0  0  0  0  0
  1  2  1  0
  2  3  2  0
  3  4  1  0
  4  5  1  0
  4  6  2  0
  6  7  1  0
  7  8  2  0
  7  9  1  0
  9 10  1  0
 10 11  1  0
 11 12  1  0
 12 13  1  0
 13 14  2  0
 13 15  1  0
 15 16  2  0
 16 17  1  0
 17 18  2  0
 18 19  1  0
 19 20  2  0
 12 21  1  0
 21 22  1  0
  6 23  1  0
 23 24  2  0
 24 25  1  0
 24  2  1  0
 22  9  1  0
 20 15  1  0
  1 26  1  0
  1 27  1  0
  3 28  1  0
  5 29  1  0
 10 30  1  0
 10 31  1  0
 11 32  1  0
 11 33  1  0
 16 34  1  0
 17 35  1  0
 18 36  1  0
 19 37  1  0
 20 38  1  0
 21 39  1  0
 21 40  1  0
 22 41  1  0
 22 42  1  0
 23 43  1  0
M  END
>  <UniqueID>  (60) 
55

>  <SMILES>  (60) 
Nc1cc(O)c(C(=O)N2CCN(C(=O)c3ccccc3)CC2)cc1Cl

>  <Energy>  (60) 
58.05388147665798

>  <Genealogy>  (60) 
Nc1cc(O)c(C(=O)N2CCN(C(=O)c3ccccc3)CC2)cc1Cl (3D coordinates assigned)
Nc1cc(O)c(C(=O)N2CCN(C(=O)c3ccccc3)CC2)cc1Cl (nonaromatic ring conformer: 58.05388147665798 kcal/mol)

>  <smiles>  (60) 
Nc1cc(O)c(C(=O)N2CCN(C(=O)c3ccccc3)CC2)cc1Cl

>  <score_type>  (60) 
oracle

>  <origin>  (60) 
adg

>  <m_score__min__energy>  (60) 
-7.1799999999999997

>  <m_primary>  (60) 
energy

$$$$
60:0
     RDKit          3D

 33 34  0  0  0  0  0  0  0  0999 V2000
   59.3070   33.2890   48.1350 C   0  0  0  0  0  0  0  0  0  0  0  0
   58.7330   32.9290   46.7890 C   0  0  0  0  0  0  0  0  0  0  0  0
   57.9300   33.8730   46.1290 C   0  0  0  0  0  0  0  0  0  0  0  0
   57.3810   33.5890   44.8810 C   0  0  0  0  0  0  0  0  0  0  0  0
   57.6020   32.3510   44.2850 C   0  0  0  0  0  0  0  0  0  0  0  0
   58.3800   31.3780   44.9270 C   0  0  0  0  0  0  0  0  0  0  0  0
   58.5130   30.0940   44.2890 N   0  0  0  0  0  0  0  0  0  0  0  0
   58.1260   28.8420   44.8860 C   0  0  0  0  0  0  0  0  0  0  0  0
   59.1390   27.9470   45.2690 C   0  0  0  0  0  0  0  0  0  0  0  0
   60.4430   28.2630   45.0660 F   0  0  0  0  0  0  0  0  0  0  0  0
   58.8200   26.7420   45.8960 C   0  0  0  0  0  0  0  0  0  0  0  0
   57.4890   26.4130   46.1430 C   0  0  0  0  0  0  0  0  0  0  0  0
   56.4640   27.2710   45.7390 C   0  0  0  0  0  0  0  0  0  0  0  0
   55.1450   26.9090   45.9950 O   0  0  0  0  0  0  0  0  0  0  0  0
   56.7650   28.4800   45.0760 C   0  0  0  0  0  0  0  0  0  0  0  0
   55.6420   29.3590   44.5880 C   0  0  0  0  0  0  0  0  0  0  0  0
   59.0150   31.6860   46.1610 C   0  0  0  0  0  0  0  0  0  0  0  0
   59.9690   30.7030   46.7990 C   0  0  0  0  0  0  0  0  0  0  0  0
   58.6619   32.8844   48.9288 H   0  0  0  0  0  0  0  0  0  0  0  0
   60.3163   32.8618   48.2294 H   0  0  0  0  0  0  0  0  0  0  0  0
   59.3618   34.3836   48.2294 H   0  0  0  0  0  0  0  0  0  0  0  0
   57.7326   34.8462   46.6022 H   0  0  0  0  0  0  0  0  0  0  0  0
   56.7711   34.3452   44.3650 H   0  0  0  0  0  0  0  0  0  0  0  0
   57.1618   32.1341   43.3005 H   0  0  0  0  0  0  0  0  0  0  0  0
   58.8970   30.0720   43.3170 H   0  0  0  0  0  0  0  0  0  0  0  0
   59.6211   26.0504   46.1959 H   0  0  0  0  0  0  0  0  0  0  0  0
   57.2443   25.4728   46.6588 H   0  0  0  0  0  0  0  0  0  0  0  0
   55.1044   29.7798   45.4505 H   0  0  0  0  0  0  0  0  0  0  0  0
   56.0546   30.1766   43.9787 H   0  0  0  0  0  0  0  0  0  0  0  0
   54.9474   28.7621   43.9787 H   0  0  0  0  0  0  0  0  0  0  0  0
   59.8955   30.7787   47.8939 H   0  0  0  0  0  0  0  0  0  0  0  0
   59.7084   29.6819   46.4837 H   0  0  0  0  0  0  0  0  0  0  0  0
   60.9975   30.9329   46.4837 H   0  0  0  0  0  0  0  0  0  0  0  0
  1  2  1  0
  2  3  2  0
  3  4  1  0
  4  5  2  0
  5  6  1  0
  6  7  1  0
  7  8  1  0
  8  9  2  0
  9 10  1  0
  9 11  1  0
 11 12  2  0
 12 13  1  0
 13 14  1  0
 13 15  2  0
 15 16  1  0
  6 17  2  0
 17 18  1  0
 17  2  1  0
 15  8  1  0
  1 19  1  0
  1 20  1  0
  1 21  1  0
  3 22  1  0
  4 23  1  0
  5 24  1  0
  7 25  1  0
 11 26  1  0
 12 27  1  0
 16 28  1  0
 16 29  1  0
 16 30  1  0
 18 31  1  0
 18 32  1  0
 18 33  1  0
M  CHG  1  14  -1
M  END
>  <UniqueID>  (61) 
56

>  <SMILES>  (61) 
Cc1cccc(Nc2c(F)ccc([O-])c2C)c1C

>  <Energy>  (61) 
45.78148340968456

>  <Genealogy>  (61) 
Cc1cccc(Nc2c(F)ccc([O-])c2C)c1C (protonated)
Cc1cccc(Nc2c(F)ccc([O-])c2C)c1C (3D coordinates assigned)
Cc1cccc(Nc2c(F)ccc([O-])c2C)c1C (optimized conformer: 45.78148340968456 kcal/mol)

>  <smiles>  (61) 
Cc1cccc(Nc2c(F)ccc(O)c2C)c1C

>  <score_type>  (61) 
oracle

>  <origin>  (61) 
adg

>  <m_score__min__energy>  (61) 
-10.48

>  <m_primary>  (61) 
energy

$$$$
61:0
     RDKit          3D

 51 53  0  0  0  0  0  0  0  0999 V2000
   57.3080   34.2180   46.0010 C   0  0  0  0  0  0  0  0  0  0  0  0
   58.5080   34.4740   45.0830 C   0  0  0  0  0  0  0  0  0  0  0  0
   58.5380   33.4590   43.9320 C   0  0  0  0  0  0  0  0  0  0  0  0
   59.8360   34.4960   45.8680 C   0  0  0  0  0  0  0  0  0  0  0  0
   60.4210   33.1580   45.9930 N   0  0  0  0  0  0  0  0  0  0  0  0
   61.5700   32.8600   46.8090 C   0  0  0  0  0  0  0  0  0  0  0  0
   62.6200   33.7840   46.9480 C   0  0  0  0  0  0  0  0  0  0  0  0
   63.6870   33.5130   47.8030 C   0  0  0  0  0  0  0  0  0  0  0  0
   63.6980   32.3240   48.5260 C   0  0  0  0  0  0  0  0  0  0  0  0
   62.6800   31.4360   48.3900 N   0  0  0  0  0  0  0  0  0  0  0  0
   61.6270   31.6620   47.5560 C   0  0  0  0  0  0  0  0  0  0  0  0
   60.6000   30.6620   47.4370 N   0  0  0  0  0  0  0  0  0  0  0  0
   59.2560   30.9190   47.9610 C   0  0  0  0  0  0  0  0  0  0  0  0
   58.2970   31.1960   46.8000 C   0  0  0  0  0  0  0  0  0  0  0  0
   58.4410   30.1620   45.7640 N   0  0  0  0  0  0  0  0  0  0  0  0
   57.2860   29.7590   45.0050 C   0  0  0  0  0  0  0  0  0  0  0  0
   56.3290   30.5670   44.8490 O   0  0  0  0  0  0  0  0  0  0  0  0
   57.2160   28.3990   44.3630 C   0  0  0  0  0  0  0  0  0  0  0  0
   57.1270   27.3170   45.3940 C   0  0  0  0  0  0  0  0  0  0  0  0
   58.1940   26.6480   45.9600 C   0  0  0  0  0  0  0  0  0  0  0  0
   57.6380   25.7300   46.8250 C   0  0  0  0  0  0  0  0  0  0  0  0
   56.2710   25.8940   46.7300 C   0  0  0  0  0  0  0  0  0  0  0  0
   55.9970   26.8450   45.8670 O   0  0  0  0  0  0  0  0  0  0  0  0
   59.7960   29.8630   45.2710 C   0  0  0  0  0  0  0  0  0  0  0  0
   60.7310   29.5880   46.4500 C   0  0  0  0  0  0  0  0  0  0  0  0
   57.6285   34.2864   47.0511 H   0  0  0  0  0  0  0  0  0  0  0  0
   56.5297   34.9703   45.8055 H   0  0  0  0  0  0  0  0  0  0  0  0
   56.9045   33.2136   45.8055 H   0  0  0  0  0  0  0  0  0  0  0  0
   58.3885   35.4750   44.6428 H   0  0  0  0  0  0  0  0  0  0  0  0
   58.5681   32.4392   44.3432 H   0  0  0  0  0  0  0  0  0  0  0  0
   57.6359   33.5787   43.3140 H   0  0  0  0  0  0  0  0  0  0  0  0
   59.4314   33.6317   43.3140 H   0  0  0  0  0  0  0  0  0  0  0  0
   60.5490   35.1478   45.3419 H   0  0  0  0  0  0  0  0  0  0  0  0
   59.6266   34.8717   46.8804 H   0  0  0  0  0  0  0  0  0  0  0  0
   60.0740   32.4220   45.3380 H   0  0  0  0  0  0  0  0  0  0  0  0
   62.5996   34.7254   46.3794 H   0  0  0  0  0  0  0  0  0  0  0  0
   64.5128   34.2324   47.9053 H   0  0  0  0  0  0  0  0  0  0  0  0
   64.5322   32.1034   49.2083 H   0  0  0  0  0  0  0  0  0  0  0  0
   58.9073   30.0394   48.5221 H   0  0  0  0  0  0  0  0  0  0  0  0
   59.2847   31.7933   48.6280 H   0  0  0  0  0  0  0  0  0  0  0  0
   57.2628   31.1934   47.1746 H   0  0  0  0  0  0  0  0  0  0  0  0
   58.5360   32.1770   46.3635 H   0  0  0  0  0  0  0  0  0  0  0  0
   56.3270   28.3527   43.7168 H   0  0  0  0  0  0  0  0  0  0  0  0
   58.1323   28.2444   43.7743 H   0  0  0  0  0  0  0  0  0  0  0  0
   59.2634   26.8130   45.7621 H   0  0  0  0  0  0  0  0  0  0  0  0
   58.1752   25.0120   47.4621 H   0  0  0  0  0  0  0  0  0  0  0  0
   55.5236   25.3152   47.2925 H   0  0  0  0  0  0  0  0  0  0  0  0
   59.7599   28.9771   44.6200 H   0  0  0  0  0  0  0  0  0  0  0  0
   60.1734   30.7266   44.7038 H   0  0  0  0  0  0  0  0  0  0  0  0
   60.4625   28.6279   46.9149 H   0  0  0  0  0  0  0  0  0  0  0  0
   61.7701   29.5437   46.0917 H   0  0  0  0  0  0  0  0  0  0  0  0
  1  2  1  0
  2  3  1  0
  2  4  1  0
  4  5  1  0
  5  6  1  0
  6  7  2  0
  7  8  1  0
  8  9  2  0
  9 10  1  0
 10 11  2  0
 11 12  1  0
 12 13  1  0
 13 14  1  0
 14 15  1  0
 15 16  1  0
 16 17  2  0
 16 18  1  0
 18 19  1  0
 19 20  2  0
 20 21  1  0
 21 22  2  0
 22 23  1  0
 15 24  1  0
 24 25  1  0
 11  6  1  0
 25 12  1  0
 23 19  1  0
  1 26  1  0
  1 27  1  0
  1 28  1  0
  2 29  1  0
  3 30  1  0
  3 31  1  0
  3 32  1  0
  4 33  1  0
  4 34  1  0
  5 35  1  0
  7 36  1  0
  8 37  1  0
  9 38  1  0
 13 39  1  0
 13 40  1  0
 14 41  1  0
 14 42  1  0
 18 43  1  0
 18 44  1  0
 20 45  1  0
 21 46  1  0
 22 47  1  0
 24 48  1  0
 24 49  1  0
 25 50  1  0
 25 51  1  0
M  END
>  <UniqueID>  (62) 
57

>  <SMILES>  (62) 
CC(C)CNc1cccnc1N1CCN(C(=O)Cc2ccco2)CC1

>  <Energy>  (62) 
79.34823269168704

>  <Genealogy>  (62) 
CC(C)CNc1cccnc1N1CCN(C(=O)Cc2ccco2)CC1 (3D coordinates assigned)
CC(C)CNc1cccnc1N1CCN(C(=O)Cc2ccco2)CC1 (nonaromatic ring conformer: 79.34823269168704 kcal/mol)

>  <smiles>  (62) 
CC(C)CNc1cccnc1N1CCN(C(=O)Cc2ccco2)CC1

>  <score_type>  (62) 
oracle

>  <origin>  (62) 
adg

>  <m_score__min__energy>  (62) 
-7.3899999999999997

>  <m_primary>  (62) 
energy

$$$$
62:0
     RDKit          3D

 55 58  0  0  0  0  0  0  0  0999 V2000
   56.5310   26.9560   45.6980 C   0  0  0  0  0  0  0  0  0  0  0  0
   55.8720   28.1450   45.2710 O   0  0  0  0  0  0  0  0  0  0  0  0
   56.4950   29.2080   44.5970 C   0  0  0  0  0  0  0  0  0  0  0  0
   55.9770   29.7230   43.3900 C   0  0  0  0  0  0  0  0  0  0  0  0
   56.6490   30.7420   42.7070 C   0  0  0  0  0  0  0  0  0  0  0  0
   57.8450   31.2530   43.2130 C   0  0  0  0  0  0  0  0  0  0  0  0
   58.3630   30.7570   44.4090 C   0  0  0  0  0  0  0  0  0  0  0  0
   57.6850   29.7570   45.1220 C   0  0  0  0  0  0  0  0  0  0  0  0
   58.2690   29.2850   46.3440 N   0  0  0  0  0  0  0  0  0  0  0  0
   59.5260   28.6100   46.4690 C   0  0  0  0  0  0  0  0  0  0  0  0
   60.0160   27.9760   45.4960 O   0  0  0  0  0  0  0  0  0  0  0  0
   60.1850   28.5430   47.8060 C   0  0  0  0  0  0  0  0  0  0  0  0
   59.0660   29.1890   49.0970 S   0  0  0  0  0  0  0  0  0  0  0  0
   59.3670   30.9310   48.7170 C   0  0  0  0  0  0  0  0  0  0  0  0
   58.7880   31.4360   47.5940 N   0  0  0  0  0  0  0  0  0  0  0  0
   58.9540   32.7350   47.2320 C   0  0  0  0  0  0  0  0  0  0  0  0
   58.3600   33.2290   46.0590 C   0  0  0  0  0  0  0  0  0  0  0  0
   58.5340   34.5650   45.6910 C   0  0  0  0  0  0  0  0  0  0  0  0
   59.2980   35.4180   46.4910 C   0  0  0  0  0  0  0  0  0  0  0  0
   59.8900   34.9380   47.6630 C   0  0  0  0  0  0  0  0  0  0  0  0
   59.7240   33.5910   48.0400 C   0  0  0  0  0  0  0  0  0  0  0  0
   60.3020   33.0650   49.2050 C   0  0  0  0  0  0  0  0  0  0  0  0
   60.9810   33.8210   49.9560 O   0  0  0  0  0  0  0  0  0  0  0  0
   60.1290   31.7400   49.5310 N   0  0  0  0  0  0  0  0  0  0  0  0
   60.7130   31.2280   50.7880 C   0  0  0  0  0  0  0  0  0  0  0  0
   62.1200   30.6780   50.5480 C   0  0  0  0  0  0  0  0  0  0  0  0
   62.8390   31.5170   49.5250 C   0  0  0  0  0  0  0  0  0  0  0  0
   62.7020   31.2320   48.1560 C   0  0  0  0  0  0  0  0  0  0  0  0
   63.3210   32.0470   47.2020 C   0  0  0  0  0  0  0  0  0  0  0  0
   64.0790   33.1510   47.6070 C   0  0  0  0  0  0  0  0  0  0  0  0
   64.2110   33.4450   48.9670 C   0  0  0  0  0  0  0  0  0  0  0  0
   63.5890   32.6370   49.9240 C   0  0  0  0  0  0  0  0  0  0  0  0
   56.5499   26.9219   46.7973 H   0  0  0  0  0  0  0  0  0  0  0  0
   55.9904   26.0787   45.3132 H   0  0  0  0  0  0  0  0  0  0  0  0
   57.5615   26.9495   45.3132 H   0  0  0  0  0  0  0  0  0  0  0  0
   55.0378   29.3202   42.9831 H   0  0  0  0  0  0  0  0  0  0  0  0
   56.2342   31.1412   41.7697 H   0  0  0  0  0  0  0  0  0  0  0  0
   58.3786   32.0463   42.6690 H   0  0  0  0  0  0  0  0  0  0  0  0
   59.3127   31.1538   44.7972 H   0  0  0  0  0  0  0  0  0  0  0  0
   60.4370   27.4969   48.0344 H   0  0  0  0  0  0  0  0  0  0  0  0
   61.0989   29.1548   47.7856 H   0  0  0  0  0  0  0  0  0  0  0  0
   58.2100   30.8020   46.9970 H   0  0  0  0  0  0  0  0  0  0  0  0
   57.7555   32.5611   45.4278 H   0  0  0  0  0  0  0  0  0  0  0  0
   58.0688   34.9461   44.7699 H   0  0  0  0  0  0  0  0  0  0  0  0
   59.4341   36.4695   46.1982 H   0  0  0  0  0  0  0  0  0  0  0  0
   60.4871   35.6141   48.2925 H   0  0  0  0  0  0  0  0  0  0  0  0
   60.7658   32.0465   51.5209 H   0  0  0  0  0  0  0  0  0  0  0  0
   60.0764   30.4152   51.1675 H   0  0  0  0  0  0  0  0  0  0  0  0
   62.6830   30.6955   51.4928 H   0  0  0  0  0  0  0  0  0  0  0  0
   62.0431   29.6458   50.1756 H   0  0  0  0  0  0  0  0  0  0  0  0
   62.1062   30.3654   47.8333 H   0  0  0  0  0  0  0  0  0  0  0  0
   63.2115   31.8193   46.1314 H   0  0  0  0  0  0  0  0  0  0  0  0
   64.5705   33.7869   46.8559 H   0  0  0  0  0  0  0  0  0  0  0  0
   64.8055   34.3140   49.2853 H   0  0  0  0  0  0  0  0  0  0  0  0
   63.6870   32.8787   50.9926 H   0  0  0  0  0  0  0  0  0  0  0  0
  1  2  1  0
  2  3  1  0
  3  4  2  0
  4  5  1  0
  5  6  2  0
  6  7  1  0
  7  8  2  0
  8  9  1  0
  9 10  1  0
 10 11  2  0
 10 12  1  0
 12 13  1  0
 13 14  1  0
 14 15  2  0
 15 16  1  0
 16 17  2  0
 17 18  1  0
 18 19  2  0
 19 20  1  0
 20 21  2  0
 21 22  1  0
 22 23  2  0
 22 24  1  0
 24 25  1  0
 25 26  1  0
 26 27  1  0
 27 28  2  0
 28 29  1  0
 29 30  2  0
 30 31  1  0
 31 32  2  0
  8  3  1  0
 24 14  1  0
 32 27  1  0
 21 16  1  0
  1 33  1  0
  1 34  1  0
  1 35  1  0
  4 36  1  0
  5 37  1  0
  6 38  1  0
  7 39  1  0
 12 40  1  0
 12 41  1  0
 15 42  1  0
 17 43  1  0
 18 44  1  0
 19 45  1  0
 20 46  1  0
 25 47  1  0
 25 48  1  0
 26 49  1  0
 26 50  1  0
 28 51  1  0
 29 52  1  0
 30 53  1  0
 31 54  1  0
 32 55  1  0
M  CHG  2   9  -1  15   1
M  END
>  <UniqueID>  (63) 
58

>  <SMILES>  (63) 
COc1ccccc1[N-]C(=O)CSc1[nH+]c2ccccc2c(=O)n1CCc1ccccc1

>  <Energy>  (63) 
62.90319556557221

>  <Genealogy>  (63) 
COc1ccccc1[N-]C(=O)CSc1[nH+]c2ccccc2c(=O)n1CCc1ccccc1 (protonated)
COc1ccccc1[N-]C(=O)CSc1[nH+]c2ccccc2c(=O)n1CCc1ccccc1 (3D coordinates assigned)
COc1ccccc1[N-]C(=O)CSc1[nH+]c2ccccc2c(=O)n1CCc1ccccc1 (optimized conformer: 62.90319556557221 kcal/mol)

>  <smiles>  (63) 
COc1ccccc1NC(=O)CSc1nc2ccccc2c(=O)n1CCc1ccccc1

>  <score_type>  (63) 
oracle

>  <origin>  (63) 
adg

>  <m_score__min__energy>  (63) 
-10.390000000000001

>  <m_primary>  (63) 
energy

$$$$
63:0
     RDKit          3D

 54 57  0  0  0  0  0  0  0  0999 V2000
   60.5860   29.5790   48.1130 O   0  0  0  0  0  0  0  0  0  0  0  0
   59.3510   29.8240   48.0310 C   0  0  0  0  0  0  0  0  0  0  0  0
   58.5580   29.9410   49.2150 N   0  0  0  0  0  0  0  0  0  0  0  0
   59.0630   29.6670   50.5590 C   0  0  0  0  0  0  0  0  0  0  0  0
   59.6280   30.9600   51.1740 C   0  0  0  0  0  0  0  0  0  0  0  0
   60.1220   31.9210   50.1470 N   0  0  0  0  0  0  0  0  0  0  0  0
   61.5100   32.3630   50.4560 C   0  0  0  0  0  0  0  0  0  0  0  0
   62.3230   32.5980   49.2010 C   0  0  0  0  0  0  0  0  0  0  0  0
   62.8160   33.8840   48.9140 C   0  0  0  0  0  0  0  0  0  0  0  0
   63.5370   34.1130   47.7360 C   0  0  0  0  0  0  0  0  0  0  0  0
   63.7650   33.0670   46.8380 C   0  0  0  0  0  0  0  0  0  0  0  0
   63.2850   31.7850   47.1180 C   0  0  0  0  0  0  0  0  0  0  0  0
   62.5710   31.5480   48.2970 C   0  0  0  0  0  0  0  0  0  0  0  0
   59.2130   33.0880   49.9500 C   0  0  0  0  0  0  0  0  0  0  0  0
   58.9820   33.4640   48.4980 C   0  0  0  0  0  0  0  0  0  0  0  0
   57.8080   33.0550   47.8410 C   0  0  0  0  0  0  0  0  0  0  0  0
   57.5900   33.3990   46.5010 C   0  0  0  0  0  0  0  0  0  0  0  0
   58.5430   34.1460   45.8100 C   0  0  0  0  0  0  0  0  0  0  0  0
   59.7230   34.5400   46.4450 C   0  0  0  0  0  0  0  0  0  0  0  0
   59.9430   34.2010   47.7840 C   0  0  0  0  0  0  0  0  0  0  0  0
   58.7200   29.9710   46.7130 C   0  0  0  0  0  0  0  0  0  0  0  0
   59.1370   30.8500   45.7120 C   0  0  0  0  0  0  0  0  0  0  0  0
   58.2330   30.6720   44.6840 C   0  0  0  0  0  0  0  0  0  0  0  0
   58.1120   31.3240   43.4570 C   0  0  0  0  0  0  0  0  0  0  0  0
   57.0140   30.9890   42.6410 C   0  0  0  0  0  0  0  0  0  0  0  0
   56.0800   30.0170   43.0620 C   0  0  0  0  0  0  0  0  0  0  0  0
   56.2330   29.3660   44.2980 C   0  0  0  0  0  0  0  0  0  0  0  0
   57.3310   29.7210   45.0900 C   0  0  0  0  0  0  0  0  0  0  0  0
   57.6200   29.2800   46.3270 N   0  0  0  0  0  0  0  0  0  0  0  0
   58.2429   29.2907   51.1882 H   0  0  0  0  0  0  0  0  0  0  0  0
   59.8607   28.9118   50.5017 H   0  0  0  0  0  0  0  0  0  0  0  0
   58.8336   31.4476   51.7581 H   0  0  0  0  0  0  0  0  0  0  0  0
   60.4849   30.6797   51.8043 H   0  0  0  0  0  0  0  0  0  0  0  0
   60.1480   31.4240   49.2240 H   0  0  0  0  0  0  0  0  0  0  0  0
   61.4647   33.3000   51.0304 H   0  0  0  0  0  0  0  0  0  0  0  0
   61.9999   31.5653   51.0337 H   0  0  0  0  0  0  0  0  0  0  0  0
   62.6347   34.7109   49.6163 H   0  0  0  0  0  0  0  0  0  0  0  0
   63.9249   35.1187   47.5168 H   0  0  0  0  0  0  0  0  0  0  0  0
   64.3235   33.2532   45.9088 H   0  0  0  0  0  0  0  0  0  0  0  0
   63.4687   30.9623   46.4113 H   0  0  0  0  0  0  0  0  0  0  0  0
   62.2014   30.5360   48.5189 H   0  0  0  0  0  0  0  0  0  0  0  0
   58.2397   32.8462   50.4019 H   0  0  0  0  0  0  0  0  0  0  0  0
   59.7029   33.9513   50.4239 H   0  0  0  0  0  0  0  0  0  0  0  0
   57.0566   32.4615   48.3825 H   0  0  0  0  0  0  0  0  0  0  0  0
   56.6674   33.0800   45.9940 H   0  0  0  0  0  0  0  0  0  0  0  0
   58.3650   34.4260   44.7612 H   0  0  0  0  0  0  0  0  0  0  0  0
   60.4791   35.1168   45.8921 H   0  0  0  0  0  0  0  0  0  0  0  0
   60.8733   34.5128   48.2813 H   0  0  0  0  0  0  0  0  0  0  0  0
   59.9976   31.5347   45.7369 H   0  0  0  0  0  0  0  0  0  0  0  0
   58.8495   32.0748   43.1372 H   0  0  0  0  0  0  0  0  0  0  0  0
   56.8831   31.4878   41.6694 H   0  0  0  0  0  0  0  0  0  0  0  0
   55.2250   29.7672   42.4166 H   0  0  0  0  0  0  0  0  0  0  0  0
   55.5141   28.6032   44.6317 H   0  0  0  0  0  0  0  0  0  0  0  0
   57.0810   28.5820   46.8890 H   0  0  0  0  0  0  0  0  0  0  0  0
  1  2  2  0
  2  3  1  0
  3  4  1  0
  4  5  1  0
  5  6  1  0
  6  7  1  0
  7  8  1  0
  8  9  2  0
  9 10  1  0
 10 11  2  0
 11 12  1  0
 12 13  2  0
  6 14  1  0
 14 15  1  0
 15 16  2  0
 16 17  1  0
 17 18  2  0
 18 19  1  0
 19 20  2  0
  2 21  1  0
 21 22  2  0
 22 23  1  0
 23 24  2  0
 24 25  1  0
 25 26  2  0
 26 27  1  0
 27 28  2  0
 28 29  1  0
 13  8  1  0
 20 15  1  0
 29 21  1  0
 28 23  1  0
  4 30  1  0
  4 31  1  0
  5 32  1  0
  5 33  1  0
  6 34  1  0
  7 35  1  0
  7 36  1  0
  9 37  1  0
 10 38  1  0
 11 39  1  0
 12 40  1  0
 13 41  1  0
 14 42  1  0
 14 43  1  0
 16 44  1  0
 17 45  1  0
 18 46  1  0
 19 47  1  0
 20 48  1  0
 22 49  1  0
 24 50  1  0
 25 51  1  0
 26 52  1  0
 27 53  1  0
 29 54  1  0
M  CHG  2   3  -1   6   1
M  END
>  <UniqueID>  (64) 
59

>  <SMILES>  (64) 
O=C([N-]CC[NH+](Cc1ccccc1)Cc1ccccc1)c1cc2ccccc2[nH]1

>  <Energy>  (64) 
93.39429325612261

>  <Genealogy>  (64) 
O=C([N-]CC[NH+](Cc1ccccc1)Cc1ccccc1)c1cc2ccccc2[nH]1 (protonated)
O=C([N-]CC[NH+](Cc1ccccc1)Cc1ccccc1)c1cc2ccccc2[nH]1 (3D coordinates assigned)
O=C([N-]CC[NH+](Cc1ccccc1)Cc1ccccc1)c1cc2ccccc2[nH]1 (optimized conformer: 93.39429325612261 kcal/mol)

>  <smiles>  (64) 
O=C(NCCN(Cc1ccccc1)Cc1ccccc1)c1cc2ccccc2[nH]1

>  <score_type>  (64) 
oracle

>  <origin>  (64) 
adg

>  <m_score__min__energy>  (64) 
-8.2100000000000009

>  <m_primary>  (64) 
energy

$$$$
64:0
     RDKit          3D

 75 78  0  0  1  0  0  0  0  0999 V2000
   59.3170   29.2340   52.3940 C   0  0  0  0  0  0  0  0  0  0  0  0
   58.3780   29.9190   51.4220 C   0  0  0  0  0  0  0  0  0  0  0  0
   58.3440   31.3360   51.6130 N   0  0  0  0  0  0  0  0  0  0  0  0
   57.7060   32.0350   50.5450 C   0  0  0  0  0  0  0  0  0  0  0  0
   58.7340   32.3800   49.4920 C   0  0  0  0  0  0  0  0  0  0  0  0
   59.7560   33.2370   49.9940 N   0  0  0  0  0  0  0  0  0  0  0  0
   59.7560   34.5720   49.4430 C   0  0  0  0  0  0  0  0  0  0  0  0
   60.0730   34.5290   47.9530 C   0  0  0  0  0  0  0  0  0  0  0  0
   58.8840   34.9410   47.1280 C   0  0  0  0  0  0  0  0  0  0  0  0
   58.1940   33.8430   46.4930 N   0  0  0  0  0  0  0  0  0  0  0  0
   58.7460   33.2080   45.3730 C   0  0  0  0  0  0  0  0  0  0  0  0
   59.8670   33.5670   44.8730 O   0  0  0  0  0  0  0  0  0  0  0  0
   58.0880   32.0970   44.6960 C   0  0  0  0  0  0  0  0  0  0  0  0
   57.6870   32.2610   43.3730 C   0  0  0  0  0  0  0  0  0  0  0  0
   57.0480   31.2300   42.6870 C   0  0  0  0  0  0  0  0  0  0  0  0
   56.7980   30.0210   43.3040 C   0  0  0  0  0  0  0  0  0  0  0  0
   57.2000   29.8350   44.6540 C   0  0  0  0  0  0  0  0  0  0  0  0
   59.6550   28.6430   48.8410 N   0  0  0  0  0  0  0  0  0  0  0  0
   59.1700   28.0250   47.8210 C   0  0  0  0  0  0  0  0  0  0  0  0
   58.3040   28.5880   46.9770 N   0  0  0  0  0  0  0  0  0  0  0  0
   57.7900   27.9250   45.8910 C   0  0  0  0  0  0  0  0  0  0  0  0
   56.9810   28.5690   45.1800 N   0  0  0  0  0  0  0  0  0  0  0  0
   60.5720   29.7180   48.6180 C   0  0  0  0  0  0  0  0  0  0  0  0
   61.3350   30.0910   49.7210 C   0  0  0  0  0  0  0  0  0  0  0  0
   62.2590   31.1130   49.6420 C   0  0  0  0  0  0  0  0  0  0  0  0
   62.3990   31.7610   48.4110 C   0  0  0  0  0  0  0  0  0  0  0  0
   63.5790   33.0570   48.3320 S   0  0  0  0  0  0  0  0  0  0  0  0
   64.0550   33.3540   46.7170 N   0  0  0  0  0  0  0  0  0  0  0  0
   64.7390   32.6790   49.2060 O   0  0  0  0  0  0  0  0  0  0  0  0
   62.9800   34.3250   48.8860 O   0  0  0  0  0  0  0  0  0  0  0  0
   61.6350   31.3800   47.3300 C   0  0  0  0  0  0  0  0  0  0  0  0
   60.7020   30.3510   47.4000 C   0  0  0  0  0  0  0  0  0  0  0  0
   59.5440   26.7610   47.5860 N   0  0  0  0  0  0  0  0  0  0  0  0
   59.0690   26.0780   46.5400 C   0  0  0  0  0  0  0  0  0  0  0  0
   58.1550   26.6270   45.6230 C   0  0  0  0  0  0  0  0  0  0  0  0
   57.6740   25.8260   44.5000 C   0  0  0  0  0  0  0  0  0  0  0  0
   57.8330   30.8860   45.3040 C   0  0  0  0  0  0  0  0  0  0  0  0
   59.7990   33.2700   51.4200 C   0  0  0  0  0  0  0  0  0  0  0  0
   59.6250   31.8610   51.9710 C   0  0  0  0  0  0  0  0  0  0  0  0
   59.0067   29.4603   53.4248 H   0  0  0  0  0  0  0  0  0  0  0  0
   59.2837   28.1466   52.2314 H   0  0  0  0  0  0  0  0  0  0  0  0
   60.3423   29.5978   52.2314 H   0  0  0  0  0  0  0  0  0  0  0  0
   58.7138   29.7076   50.3961 H   0  0  0  0  0  0  0  0  0  0  0  0
   57.3647   29.5294   51.5992 H   0  0  0  0  0  0  0  0  0  0  0  0
   56.9259   31.3980   50.1027 H   0  0  0  0  0  0  0  0  0  0  0  0
   57.2471   32.9578   50.9296 H   0  0  0  0  0  0  0  0  0  0  0  0
   59.1977   31.4497   49.1321 H   0  0  0  0  0  0  0  0  0  0  0  0
   58.2178   32.9121   48.6794 H   0  0  0  0  0  0  0  0  0  0  0  0
   58.7646   35.0253   49.5902 H   0  0  0  0  0  0  0  0  0  0  0  0
   60.5238   35.1705   49.9551 H   0  0  0  0  0  0  0  0  0  0  0  0
   60.9082   35.2139   47.7446 H   0  0  0  0  0  0  0  0  0  0  0  0
   60.3400   33.4961   47.6849 H   0  0  0  0  0  0  0  0  0  0  0  0
   58.1720   35.4617   47.7853 H   0  0  0  0  0  0  0  0  0  0  0  0
   59.2670   35.5824   46.3206 H   0  0  0  0  0  0  0  0  0  0  0  0
   57.2810   33.5480   46.9010 H   0  0  0  0  0  0  0  0  0  0  0  0
   57.8770   33.2167   42.8626 H   0  0  0  0  0  0  0  0  0  0  0  0
   56.7394   31.3814   41.6421 H   0  0  0  0  0  0  0  0  0  0  0  0
   56.2934   29.2109   42.7570 H   0  0  0  0  0  0  0  0  0  0  0  0
   58.0230   29.5800   47.1800 H   0  0  0  0  0  0  0  0  0  0  0  0
   61.1986   29.5604   50.6749 H   0  0  0  0  0  0  0  0  0  0  0  0
   62.8621   31.4065   50.5139 H   0  0  0  0  0  0  0  0  0  0  0  0
   63.2660   33.2160   46.0750 H   0  0  0  0  0  0  0  0  0  0  0  0
   64.8530   32.7710   46.3960 H   0  0  0  0  0  0  0  0  0  0  0  0
   61.7679   31.9097   46.3751 H   0  0  0  0  0  0  0  0  0  0  0  0
   60.0987   30.0572   46.5284 H   0  0  0  0  0  0  0  0  0  0  0  0
   60.2320   26.2790   48.2370 H   0  0  0  0  0  0  0  0  0  0  0  0
   59.4074   25.0422   46.3900 H   0  0  0  0  0  0  0  0  0  0  0  0
   57.1428   24.9415   44.8814 H   0  0  0  0  0  0  0  0  0  0  0  0
   56.9885   26.4291   43.8865 H   0  0  0  0  0  0  0  0  0  0  0  0
   58.5285   25.5043   43.8865 H   0  0  0  0  0  0  0  0  0  0  0  0
   58.1447   30.7465   46.3497 H   0  0  0  0  0  0  0  0  0  0  0  0
   60.7685   33.6736   51.7474 H   0  0  0  0  0  0  0  0  0  0  0  0
   58.9870   33.9106   51.7944 H   0  0  0  0  0  0  0  0  0  0  0  0
   60.4105   31.2114   51.5575 H   0  0  0  0  0  0  0  0  0  0  0  0
   59.6999   31.8970   53.0679 H   0  0  0  0  0  0  0  0  0  0  0  0
  1  2  1  0
  2  3  1  0
  3  4  1  0
  4  5  1  0
  5  6  1  0
  6  7  1  0
  7  8  1  0
  8  9  1  0
  9 10  1  0
 10 11  1  0
 11 12  2  0
 11 13  1  0
 13 14  2  0
 14 15  1  0
 15 16  2  0
 16 17  1  0
 17 18  1  0
 18 19  2  0
 19 20  1  0
 20 21  1  0
 21 22  2  0
 22 23  1  0
 23 24  2  0
 24 25  1  0
 25 26  2  0
 26 27  1  0
 27 28  1  0
 27 29  2  0
 27 30  2  0
 26 31  1  0
 31 32  2  0
 21 33  1  0
 33 34  1  0
 34 35  2  0
 35 36  1  0
 17 37  2  0
  6 38  1  0
 38 39  1  0
 39  3  1  0
 37 13  1  0
 35 19  1  0
 32 23  1  0
  1 40  1  0
  1 41  1  0
  1 42  1  0
  2 43  1  0
  2 44  1  0
  4 45  1  0
  4 46  1  0
  5 47  1  0
  5 48  1  0
  7 49  1  0
  7 50  1  0
  8 51  1  0
  8 52  1  0
  9 53  1  0
  9 54  1  0
 10 55  1  0
 14 56  1  0
 15 57  1  0
 16 58  1  0
 20 59  1  0
 24 60  1  0
 25 61  1  0
 28 62  1  0
 28 63  1  0
 31 64  1  0
 32 65  1  0
 33 66  1  0
 34 67  1  0
 36 68  1  0
 36 69  1  0
 36 70  1  0
 37 71  1  0
 38 72  1  0
 38 73  1  0
 39 74  1  0
 39 75  1  0
M  END
>  <smiles>  (65) 
CCN1CCN(CCCNC(=O)c2cccc(N=c3[nH]c(=Nc4ccc(S(N)(=O)=O)cc4)[nH]cc3C)c2)CC1

>  <score_type>  (65) 
oracle

>  <origin>  (65) 
adg

>  <m_score__min__energy>  (65) 
-10.220000000000001

>  <m_primary>  (65) 
energy

$$$$
65:0
     RDKit          3D

 52 55  0  0  0  0  0  0  0  0999 V2000
   57.7543   34.2804   47.6207 H   0  0  0  0  0  0  0  0  0  0  0  0
   57.8480   33.8890   46.5970 C   0  0  0  0  0  0  0  0  0  0  0  0
   57.0030   32.9180   46.1610 N   0  0  0  0  0  0  0  0  0  0  0  0
   57.0880   32.4010   44.9020 C   0  0  0  0  0  0  0  0  0  0  0  0
   56.2740   31.4690   44.5040 N   0  0  0  0  0  0  0  0  0  0  0  0
   56.6870   29.7890   44.3690 S   0  0  0  0  0  0  0  0  0  0  0  0
   55.5430   28.9660   44.8910 O   0  0  0  0  0  0  0  0  0  0  0  0
   56.9210   29.4130   42.9330 O   0  0  0  0  0  0  0  0  0  0  0  0
   58.1260   29.4590   45.3210 C   0  0  0  0  0  0  0  0  0  0  0  0
   59.1960   28.7110   44.8430 C   0  0  0  0  0  0  0  0  0  0  0  0
   59.2822   28.2773   43.8358 H   0  0  0  0  0  0  0  0  0  0  0  0
   60.3350   28.5850   46.0730 S   0  0  0  0  0  0  0  0  0  0  0  0
   59.4810   29.4790   47.2130 C   0  0  0  0  0  0  0  0  0  0  0  0
   59.9110   29.7200   48.5970 C   0  0  0  0  0  0  0  0  0  0  0  0
   60.6460   28.8760   49.1740 O   0  0  0  0  0  0  0  0  0  0  0  0
   59.4260   30.8710   49.2980 N   0  0  0  0  0  0  0  0  0  0  0  0
   58.7220   30.8870   50.5500 C   0  0  0  0  0  0  0  0  0  0  0  0
   58.1590   29.7170   51.0930 C   0  0  0  0  0  0  0  0  0  0  0  0
   58.2950   28.7544   50.5783 H   0  0  0  0  0  0  0  0  0  0  0  0
   57.4280   29.7720   52.2830 C   0  0  0  0  0  0  0  0  0  0  0  0
   56.9898   28.8537   52.7010 H   0  0  0  0  0  0  0  0  0  0  0  0
   57.2530   30.9900   52.9420 C   0  0  0  0  0  0  0  0  0  0  0  0
   56.6628   31.0326   53.8693 H   0  0  0  0  0  0  0  0  0  0  0  0
   57.8260   32.1550   52.4260 C   0  0  0  0  0  0  0  0  0  0  0  0
   57.6853   33.1129   52.9481 H   0  0  0  0  0  0  0  0  0  0  0  0
   58.5810   32.1070   51.2430 C   0  0  0  0  0  0  0  0  0  0  0  0
   59.1970   33.3390   50.7200 C   0  0  0  0  0  0  0  0  0  0  0  0
   59.6700   34.1840   51.5270 O   0  0  0  0  0  0  0  0  0  0  0  0
   59.2970   33.5550   49.3050 N   0  0  0  0  0  0  0  0  0  0  0  0
   58.8670   32.8570   48.6570 H   0  0  0  0  0  0  0  0  0  0  0  0
   60.2200   34.5340   48.7350 C   0  0  0  0  0  0  0  0  0  0  0  0
   59.7208   35.0686   47.9134 H   0  0  0  0  0  0  0  0  0  0  0  0
   60.5183   35.2452   49.5194 H   0  0  0  0  0  0  0  0  0  0  0  0
   61.4510   33.8420   48.2040 C   0  0  0  0  0  0  0  0  0  0  0  0
   61.9060   34.1010   46.8990 C   0  0  0  0  0  0  0  0  0  0  0  0
   61.3616   34.8140   46.2623 H   0  0  0  0  0  0  0  0  0  0  0  0
   63.0450   33.4590   46.4050 C   0  0  0  0  0  0  0  0  0  0  0  0
   63.3958   33.6691   45.3838 H   0  0  0  0  0  0  0  0  0  0  0  0
   63.7380   32.5500   47.2090 C   0  0  0  0  0  0  0  0  0  0  0  0
   64.6311   32.0400   46.8188 H   0  0  0  0  0  0  0  0  0  0  0  0
   63.2960   32.2890   48.5090 C   0  0  0  0  0  0  0  0  0  0  0  0
   63.8439   31.5751   49.1415 H   0  0  0  0  0  0  0  0  0  0  0  0
   62.1590   32.9330   49.0080 C   0  0  0  0  0  0  0  0  0  0  0  0
   61.8180   32.7271   50.0333 H   0  0  0  0  0  0  0  0  0  0  0  0
   58.2810   29.8920   46.6450 C   0  0  0  0  0  0  0  0  0  0  0  0
   57.5319   30.4953   47.1787 H   0  0  0  0  0  0  0  0  0  0  0  0
   58.0640   32.8830   44.0220 C   0  0  0  0  0  0  0  0  0  0  0  0
   58.1419   32.4761   43.0030 H   0  0  0  0  0  0  0  0  0  0  0  0
   58.9380   33.8850   44.4490 C   0  0  0  0  0  0  0  0  0  0  0  0
   59.7058   34.2753   43.7647 H   0  0  0  0  0  0  0  0  0  0  0  0
   58.8350   34.3900   45.7460 C   0  0  0  0  0  0  0  0  0  0  0  0
   59.5237   35.1740   46.0939 H   0  0  0  0  0  0  0  0  0  0  0  0
  1  2  1  0
  2  3  1  0
  3  4  1  0
  4  5  2  0
  5  6  1  0
  6  7  2  0
  6  8  2  0
  6  9  1  0
  9 10  2  0
 10 11  1  0
 10 12  1  0
 12 13  1  0
 13 14  1  0
 14 15  2  0
 14 16  1  0
 16 17  1  0
 17 18  2  0
 18 19  1  0
 18 20  1  0
 20 21  1  0
 20 22  2  0
 22 23  1  0
 22 24  1  0
 24 25  1  0
 24 26  2  0
 26 27  1  0
 27 28  2  0
 27 29  1  0
 29 30  1  0
 29 31  1  0
 31 32  1  0
 31 33  1  0
 31 34  1  0
 34 35  2  0
 35 36  1  0
 35 37  1  0
 37 38  1  0
 37 39  2  0
 39 40  1  0
 39 41  1  0
 41 42  1  0
 41 43  2  0
 43 44  1  0
 13 45  2  0
 45 46  1  0
  4 47  1  0
 47 48  1  0
 47 49  2  0
 49 50  1  0
 49 51  1  0
 51 52  1  0
 51  2  2  0
 45  9  1  0
 26 17  1  0
 43 34  1  0
M  CHG  2   3  -1  16  -1
M  END
>  <UniqueID>  (66) 
60

>  <SMILES>  (66) 
O=C([N-]c1ccccc1C(=O)NCc1ccccc1)c1cc(S(=O)(=O)/N=c2/cccc[n-]2)cs1

>  <Energy>  (66) 
86.12197406445786

>  <Genealogy>  (66) 
O=C([N-]c1ccccc1C(=O)NCc1ccccc1)c1cc(S(=O)(=O)N=c2cccc[n-]2)cs1 (protonated)
O=C([N-]c1ccccc1C(=O)NCc1ccccc1)c1cc(S(=O)(=O)/N=c2/cccc[n-]2)cs1 (cis-trans isomerization)
O=C([N-]c1ccccc1C(=O)NCc1ccccc1)c1cc(S(=O)(=O)/N=c2/cccc[n-]2)cs1 (3D coordinates assigned)
O=C([N-]c1ccccc1C(=O)NCc1ccccc1)c1cc(S(=O)(=O)/N=c2/cccc[n-]2)cs1 (optimized conformer: 86.12197406445786 kcal/mol)

>  <smiles>  (66) 
O=C(Nc1ccccc1C(=O)NCc1ccccc1)c1cc(S(=O)(=O)N=c2cccc[nH]2)cs1

>  <score_type>  (66) 
oracle

>  <origin>  (66) 
adg

>  <m_score__min__energy>  (66) 
-13.06

>  <m_primary>  (66) 
energy

$$$$
66:0
     RDKit          3D

 68 71  0  0  0  0  0  0  0  0999 V2000
   58.2260   32.3590   50.5510 C   0  0  0  0  0  0  0  0  0  0  0  0
   59.1050   32.2300   49.3340 C   0  0  0  0  0  0  0  0  0  0  0  0
   59.2710   33.3480   48.4960 C   0  0  0  0  0  0  0  0  0  0  0  0
   60.0980   33.2810   47.3590 C   0  0  0  0  0  0  0  0  0  0  0  0
   60.2850   34.3690   46.4900 O   0  0  0  0  0  0  0  0  0  0  0  0
   59.5150   34.6320   45.3170 C   0  0  0  0  0  0  0  0  0  0  0  0
   58.3830   33.6620   45.2070 C   0  0  0  0  0  0  0  0  0  0  0  0
   58.4820   32.3340   44.8500 C   0  0  0  0  0  0  0  0  0  0  0  0
   57.1790   31.8840   44.9260 C   0  0  0  0  0  0  0  0  0  0  0  0
   56.7250   30.5040   44.6760 C   0  0  0  0  0  0  0  0  0  0  0  0
   55.5090   30.2940   44.4160 O   0  0  0  0  0  0  0  0  0  0  0  0
   57.6500   29.4030   44.6780 N   0  0  0  0  0  0  0  0  0  0  0  0
   58.5610   29.2110   45.8230 C   0  0  0  0  0  0  0  0  0  0  0  0
   58.0920   28.1010   46.7890 C   0  0  0  0  0  0  0  0  0  0  0  0
   58.3670   26.6610   46.3240 C   0  0  0  0  0  0  0  0  0  0  0  0
   57.7880   26.3310   44.9370 C   0  0  0  0  0  0  0  0  0  0  0  0
   58.3650   27.1570   43.7720 C   0  0  0  0  0  0  0  0  0  0  0  0
   57.6210   28.4810   43.5250 C   0  0  0  0  0  0  0  0  0  0  0  0
   56.3730   32.8930   45.3170 N   0  0  0  0  0  0  0  0  0  0  0  0
   57.1290   33.9410   45.4730 O   0  0  0  0  0  0  0  0  0  0  0  0
   60.7720   32.0910   47.0780 C   0  0  0  0  0  0  0  0  0  0  0  0
   60.6260   30.9790   47.9070 C   0  0  0  0  0  0  0  0  0  0  0  0
   59.8020   31.0320   49.0410 C   0  0  0  0  0  0  0  0  0  0  0  0
   59.6800   29.6010   50.0810 S   0  0  0  0  0  0  0  0  0  0  0  0
   58.3020   29.5390   50.6760 O   0  0  0  0  0  0  0  0  0  0  0  0
   59.9040   28.3510   49.2740 O   0  0  0  0  0  0  0  0  0  0  0  0
   60.8560   29.6650   51.3580 N   0  0  0  0  0  0  0  0  0  0  0  0
   61.4300   31.0070   51.4330 C   0  0  0  0  0  0  0  0  0  0  0  0
   62.8020   31.0130   50.7520 C   0  0  0  0  0  0  0  0  0  0  0  0
   63.2880   32.3920   50.5250 N   0  0  0  0  0  0  0  0  0  0  0  0
   62.1680   33.3420   50.3110 C   0  0  0  0  0  0  0  0  0  0  0  0
   62.6240   34.5670   49.5030 C   0  0  0  0  0  0  0  0  0  0  0  0
   63.1050   34.2460   48.2050 O   0  0  0  0  0  0  0  0  0  0  0  0
   63.6710   32.9450   48.1120 C   0  0  0  0  0  0  0  0  0  0  0  0
   64.2880   32.4430   49.4310 C   0  0  0  0  0  0  0  0  0  0  0  0
   58.8409   32.2688   51.4586 H   0  0  0  0  0  0  0  0  0  0  0  0
   57.7281   33.3398   50.5414 H   0  0  0  0  0  0  0  0  0  0  0  0
   57.4673   31.5626   50.5414 H   0  0  0  0  0  0  0  0  0  0  0  0
   58.7478   34.2863   48.7324 H   0  0  0  0  0  0  0  0  0  0  0  0
   59.1122   35.6543   45.3697 H   0  0  0  0  0  0  0  0  0  0  0  0
   60.1627   34.5254   44.4343 H   0  0  0  0  0  0  0  0  0  0  0  0
   59.3834   31.7684   44.5713 H   0  0  0  0  0  0  0  0  0  0  0  0
   59.5560   28.9430   45.4380 H   0  0  0  0  0  0  0  0  0  0  0  0
   58.5797   30.1536   46.3898 H   0  0  0  0  0  0  0  0  0  0  0  0
   58.6037   28.2503   47.7512 H   0  0  0  0  0  0  0  0  0  0  0  0
   56.9978   28.1955   46.8503 H   0  0  0  0  0  0  0  0  0  0  0  0
   59.4561   26.5106   46.2891 H   0  0  0  0  0  0  0  0  0  0  0  0
   57.8706   25.9934   47.0437 H   0  0  0  0  0  0  0  0  0  0  0  0
   57.9838   25.2684   44.7305 H   0  0  0  0  0  0  0  0  0  0  0  0
   56.7175   26.5791   44.9862 H   0  0  0  0  0  0  0  0  0  0  0  0
   59.4171   27.3864   43.9965 H   0  0  0  0  0  0  0  0  0  0  0  0
   58.2531   26.5504   42.8612 H   0  0  0  0  0  0  0  0  0  0  0  0
   58.0862   28.9855   42.6653 H   0  0  0  0  0  0  0  0  0  0  0  0
   56.5662   28.2275   43.3429 H   0  0  0  0  0  0  0  0  0  0  0  0
   61.4243   32.0299   46.1944 H   0  0  0  0  0  0  0  0  0  0  0  0
   61.1634   30.0493   47.6688 H   0  0  0  0  0  0  0  0  0  0  0  0
   60.7645   31.7196   50.9238 H   0  0  0  0  0  0  0  0  0  0  0  0
   61.5421   31.3000   52.4873 H   0  0  0  0  0  0  0  0  0  0  0  0
   63.5213   30.4812   51.3922 H   0  0  0  0  0  0  0  0  0  0  0  0
   62.7051   30.5158   49.7756 H   0  0  0  0  0  0  0  0  0  0  0  0
   61.3633   32.8301   49.7629 H   0  0  0  0  0  0  0  0  0  0  0  0
   61.8111   33.6860   51.2930 H   0  0  0  0  0  0  0  0  0  0  0  0
   61.7695   35.2517   49.3976 H   0  0  0  0  0  0  0  0  0  0  0  0
   63.4604   35.0229   50.0531 H   0  0  0  0  0  0  0  0  0  0  0  0
   62.8802   32.2430   47.8091 H   0  0  0  0  0  0  0  0  0  0  0  0
   64.4867   33.0009   47.3761 H   0  0  0  0  0  0  0  0  0  0  0  0
   64.6933   31.4328   49.2722 H   0  0  0  0  0  0  0  0  0  0  0  0
   65.0806   33.1463   49.7261 H   0  0  0  0  0  0  0  0  0  0  0  0
  1  2  1  0
  2  3  2  0
  3  4  1  0
  4  5  1  0
  5  6  1  0
  6  7  1  0
  7  8  2  0
  8  9  1  0
  9 10  1  0
 10 11  2  0
 10 12  1  0
 12 13  1  0
 13 14  1  0
 14 15  1  0
 15 16  1  0
 16 17  1  0
 17 18  1  0
  9 19  2  0
 19 20  1  0
  4 21  2  0
 21 22  1  0
 22 23  2  0
 23 24  1  0
 24 25  2  0
 24 26  2  0
 24 27  1  0
 27 28  1  0
 28 29  1  0
 29 30  1  0
 30 31  1  0
 31 32  1  0
 32 33  1  0
 33 34  1  0
 34 35  1  0
 23  2  1  0
 35 30  1  0
 20  7  1  0
 18 12  1  0
  1 36  1  0
  1 37  1  0
  1 38  1  0
  3 39  1  0
  6 40  1  0
  6 41  1  0
  8 42  1  0
 13 43  1  0
 13 44  1  0
 14 45  1  0
 14 46  1  0
 15 47  1  0
 15 48  1  0
 16 49  1  0
 16 50  1  0
 17 51  1  0
 17 52  1  0
 18 53  1  0
 18 54  1  0
 21 55  1  0
 22 56  1  0
 28 57  1  0
 28 58  1  0
 29 59  1  0
 29 60  1  0
 31 61  1  0
 31 62  1  0
 32 63  1  0
 32 64  1  0
 34 65  1  0
 34 66  1  0
 35 67  1  0
 35 68  1  0
M  CHG  1  27  -1
M  END
>  <UniqueID>  (67) 
61

>  <SMILES>  (67) 
Cc1cc(OCc2cc(C(=O)N3CCCCCC3)no2)ccc1S(=O)(=O)[N-]CCN1CCOCC1

>  <Energy>  (67) 
119.11218593057397

>  <Genealogy>  (67) 
Cc1cc(OCc2cc(C(=O)N3CCCCCC3)no2)ccc1S(=O)(=O)[N-]CCN1CCOCC1 (protonated)
Cc1cc(OCc2cc(C(=O)N3CCCCCC3)no2)ccc1S(=O)(=O)[N-]CCN1CCOCC1 (3D coordinates assigned)
Cc1cc(OCc2cc(C(=O)N3CCCCCC3)no2)ccc1S(=O)(=O)[N-]CCN1CCOCC1 (nonaromatic ring conformer: 119.11218593057397 kcal/mol)

>  <smiles>  (67) 
Cc1cc(OCc2cc(C(=O)N3CCCCCC3)no2)ccc1S(=O)(=O)NCCN1CCOCC1

>  <score_type>  (67) 
oracle

>  <origin>  (67) 
adg

>  <m_score__min__energy>  (67) 
-10.02

>  <m_primary>  (67) 
energy

$$$$
67:0
     RDKit          3D

 65 68  0  0  0  0  0  0  0  0999 V2000
   60.7850   33.6600   49.5220 H   0  0  0  0  0  0  0  0  0  0  0  0
   59.8000   33.6410   49.8710 N   0  0  0  0  0  0  0  0  0  0  0  0
   59.1860   32.5260   50.0960 C   0  0  0  0  0  0  0  0  0  0  0  0
   59.4180   31.4550   49.2960 N   0  0  0  0  0  0  0  0  0  0  0  0
   58.7750   30.2810   49.5250 C   0  0  0  0  0  0  0  0  0  0  0  0
   58.9890   29.1280   48.6370 C   0  0  0  0  0  0  0  0  0  0  0  0
   58.1470   29.0360   47.5180 C   0  0  0  0  0  0  0  0  0  0  0  0
   57.3187   29.7505   47.4017 H   0  0  0  0  0  0  0  0  0  0  0  0
   58.3470   28.0490   46.5500 C   0  0  0  0  0  0  0  0  0  0  0  0
   57.5060   27.9910   45.3390 C   0  0  0  0  0  0  0  0  0  0  0  0
   57.9090   27.3340   44.3430 O   0  0  0  0  0  0  0  0  0  0  0  0
   56.2650   28.7010   45.2450 N   0  0  0  0  0  0  0  0  0  0  0  0
   56.0770   29.9310   44.4820 C   0  0  0  0  0  0  0  0  0  0  0  0
   55.5190   29.7082   43.5606 H   0  0  0  0  0  0  0  0  0  0  0  0
   55.5129   30.6542   45.0894 H   0  0  0  0  0  0  0  0  0  0  0  0
   57.4370   30.5250   44.1210 C   0  0  0  0  0  0  0  0  0  0  0  0
   58.2280   29.8103   44.3920 H   0  0  0  0  0  0  0  0  0  0  0  0
   57.4628   30.7257   43.0398 H   0  0  0  0  0  0  0  0  0  0  0  0
   57.6600   31.8170   44.8630 C   0  0  0  0  0  0  0  0  0  0  0  0
   57.7950   31.8150   46.2610 C   0  0  0  0  0  0  0  0  0  0  0  0
   57.7092   30.8707   46.8187 H   0  0  0  0  0  0  0  0  0  0  0  0
   58.0380   33.0090   46.9460 C   0  0  0  0  0  0  0  0  0  0  0  0
   58.1365   33.0037   48.0416 H   0  0  0  0  0  0  0  0  0  0  0  0
   58.1560   34.2100   46.2400 C   0  0  0  0  0  0  0  0  0  0  0  0
   58.3419   35.1495   46.7811 H   0  0  0  0  0  0  0  0  0  0  0  0
   58.0380   34.2180   44.8480 C   0  0  0  0  0  0  0  0  0  0  0  0
   58.1347   35.1631   44.2936 H   0  0  0  0  0  0  0  0  0  0  0  0
   57.7970   33.0250   44.1590 C   0  0  0  0  0  0  0  0  0  0  0  0
   57.7144   33.0326   43.0621 H   0  0  0  0  0  0  0  0  0  0  0  0
   59.3690   27.1200   46.7410 C   0  0  0  0  0  0  0  0  0  0  0  0
   59.5290   26.3205   46.0026 H   0  0  0  0  0  0  0  0  0  0  0  0
   60.1660   27.2000   47.8350 N   0  0  0  0  0  0  0  0  0  0  0  0
   60.0210   28.1530   48.7950 C   0  0  0  0  0  0  0  0  0  0  0  0
   60.8520   28.1040   49.8050 N   0  0  0  0  0  0  0  0  0  0  0  0
   61.3420   29.1520   50.6500 C   0  0  0  0  0  0  0  0  0  0  0  0
   62.1990   30.1180   50.1080 C   0  0  0  0  0  0  0  0  0  0  0  0
   62.4743   30.0663   49.0443 H   0  0  0  0  0  0  0  0  0  0  0  0
   62.7100   31.1510   50.9080 C   0  0  0  0  0  0  0  0  0  0  0  0
   63.6110   32.1330   50.3750 N   0  0  0  0  0  0  0  0  0  0  0  0
   64.4020   32.4410   50.9810 H   0  0  0  0  0  0  0  0  0  0  0  0
   63.1840   33.2200   49.0880 S   0  0  0  0  0  0  0  0  0  0  0  0
   62.7480   34.5290   49.6830 O   0  0  0  0  0  0  0  0  0  0  0  0
   64.4220   33.4670   48.2690 O   0  0  0  0  0  0  0  0  0  0  0  0
   61.9230   32.5350   48.0790 N   0  0  0  0  0  0  0  0  0  0  0  0
   61.3840   33.5600   47.1730 C   0  0  0  0  0  0  0  0  0  0  0  0
   60.9522   34.3812   47.7639 H   0  0  0  0  0  0  0  0  0  0  0  0
   62.1932   33.9508   46.5387 H   0  0  0  0  0  0  0  0  0  0  0  0
   60.6034   33.1148   46.5387 H   0  0  0  0  0  0  0  0  0  0  0  0
   62.4450   31.4070   47.2950 C   0  0  0  0  0  0  0  0  0  0  0  0
   62.8076   30.6234   47.9766 H   0  0  0  0  0  0  0  0  0  0  0  0
   61.6440   30.9994   46.6608 H   0  0  0  0  0  0  0  0  0  0  0  0
   63.2742   31.7538   46.6608 H   0  0  0  0  0  0  0  0  0  0  0  0
   62.4060   31.1660   52.2790 C   0  0  0  0  0  0  0  0  0  0  0  0
   62.8037   31.9681   52.9181 H   0  0  0  0  0  0  0  0  0  0  0  0
   61.6010   30.1680   52.8370 C   0  0  0  0  0  0  0  0  0  0  0  0
   61.3741   30.1842   53.9132 H   0  0  0  0  0  0  0  0  0  0  0  0
   61.0840   29.1500   52.0310 C   0  0  0  0  0  0  0  0  0  0  0  0
   60.3410   28.1610   52.5910 F   0  0  0  0  0  0  0  0  0  0  0  0
   57.8770   30.1910   50.5400 N   0  0  0  0  0  0  0  0  0  0  0  0
   57.6550   31.2550   51.3540 C   0  0  0  0  0  0  0  0  0  0  0  0
   56.6660   31.1530   52.4650 C   0  0  0  0  0  0  0  0  0  0  0  0
   57.1915   31.2072   53.4298 H   0  0  0  0  0  0  0  0  0  0  0  0
   55.9463   31.9817   52.3924 H   0  0  0  0  0  0  0  0  0  0  0  0
   56.1305   30.1949   52.3924 H   0  0  0  0  0  0  0  0  0  0  0  0
   58.3030   32.4250   51.1240 N   0  0  0  0  0  0  0  0  0  0  0  0
  1  2  1  0
  2  3  2  3
  3  4  1  0
  4  5  2  0
  5  6  1  0
  6  7  2  0
  7  8  1  0
  7  9  1  0
  9 10  1  0
 10 11  2  0
 10 12  1  0
 12 13  1  0
 13 14  1  0
 13 15  1  0
 13 16  1  0
 16 17  1  0
 16 18  1  0
 16 19  1  0
 19 20  2  0
 20 21  1  0
 20 22  1  0
 22 23  1  0
 22 24  2  0
 24 25  1  0
 24 26  1  0
 26 27  1  0
 26 28  2  0
 28 29  1  0
  9 30  2  0
 30 31  1  0
 30 32  1  0
 32 33  1  0
 33 34  2  0
 34 35  1  0
 35 36  2  0
 36 37  1  0
 36 38  1  0
 38 39  1  0
 39 40  1  0
 39 41  1  0
 41 42  2  0
 41 43  2  0
 41 44  1  0
 44 45  1  0
 45 46  1  0
 45 47  1  0
 45 48  1  0
 44 49  1  0
 49 50  1  0
 49 51  1  0
 49 52  1  0
 38 53  2  0
 53 54  1  0
 53 55  1  0
 55 56  1  0
 55 57  2  0
 57 58  1  0
  5 59  1  0
 59 60  1  0
 60 61  1  0
 61 62  1  0
 61 63  1  0
 61 64  1  0
 60 65  2  0
 65  3  1  0
 33  6  1  0
 57 35  1  0
 28 19  1  0
M  CHG  3  12  -1  32  -1  59  -1
M  END
>  <UniqueID>  (68) 
62

>  <SMILES>  (68) 
Cc1nc(=N)nc(-c2cc(C(=O)[N-]CCc3ccccc3)c[n-]/c2=N/c2cc(NS(=O)(=O)N(C)C)ccc2F)[n-]1

>  <Energy>  (68) 
93.10231774424597

>  <Genealogy>  (68) 
Cc1nc(=N)nc(-c2cc(C(=O)[N-]CCc3ccccc3)c[n-]c2=Nc2cc(NS(=O)(=O)N(C)C)ccc2F)[n-]1 (protonated)
Cc1nc(=N)nc(-c2cc(C(=O)[N-]CCc3ccccc3)c[n-]/c2=N/c2cc(NS(=O)(=O)N(C)C)ccc2F)[n-]1 (cis-trans isomerization)
Cc1nc(=N)nc(-c2cc(C(=O)[N-]CCc3ccccc3)c[n-]/c2=N/c2cc(NS(=O)(=O)N(C)C)ccc2F)[n-]1 (3D coordinates assigned)
Cc1nc(=N)nc(-c2cc(C(=O)[N-]CCc3ccccc3)c[n-]/c2=N/c2cc(NS(=O)(=O)N(C)C)ccc2F)[n-]1 (optimized conformer: 93.10231774424597 kcal/mol)

>  <smiles>  (68) 
Cc1nc(=N)nc(-c2cc(C(=O)NCCc3ccccc3)c[nH]c2=Nc2cc(NS(=O)(=O)N(C)C)ccc2F)[nH]1

>  <score_type>  (68) 
oracle

>  <origin>  (68) 
adg

>  <m_score__min__energy>  (68) 
-14.27

>  <m_primary>  (68) 
energy

$$$$
68:0
     RDKit          3D

 45 47  0  0  0  0  0  0  0  0999 V2000
   57.0080   28.7920   45.2360 C   0  0  0  0  0  0  0  0  0  0  0  0
   57.2600   30.1340   44.6390 C   0  0  0  0  0  0  0  0  0  0  0  0
   57.6800   30.3180   43.3670 N   0  0  0  0  0  0  0  0  0  0  0  0
   57.7040   31.6620   43.2700 C   0  0  0  0  0  0  0  0  0  0  0  0
   58.1320   32.3870   42.0340 C   0  0  0  0  0  0  0  0  0  0  0  0
   57.3050   32.2480   44.4180 N   0  0  0  0  0  0  0  0  0  0  0  0
   57.1850   33.6770   44.7150 C   0  0  0  0  0  0  0  0  0  0  0  0
   58.1960   34.0980   45.7980 C   0  0  2  0  0  0  0  0  0  0  0  0
   59.6420   34.1500   45.2450 C   0  0  0  0  0  0  0  0  0  0  0  0
   60.7030   33.8680   46.3230 C   0  0  0  0  0  0  0  0  0  0  0  0
   60.2250   34.3070   47.7140 C   0  0  0  0  0  0  0  0  0  0  0  0
   58.9590   33.6500   48.1270 N   0  0  0  0  0  0  0  0  0  0  0  0
   59.2510   32.3670   49.2770 S   0  0  0  0  0  0  0  0  0  0  0  0
   58.1250   32.3130   50.2720 O   0  0  0  0  0  0  0  0  0  0  0  0
   60.5280   32.6410   50.0210 O   0  0  0  0  0  0  0  0  0  0  0  0
   59.3750   30.8110   48.4730 C   0  0  0  0  0  0  0  0  0  0  0  0
   59.9750   30.5820   47.2550 C   0  0  0  0  0  0  0  0  0  0  0  0
   59.8340   29.2760   46.9830 N   0  0  0  0  0  0  0  0  0  0  0  0
   60.3800   28.5600   45.8370 C   0  0  0  0  0  0  0  0  0  0  0  0
   59.1840   28.7420   48.0360 C   0  0  0  0  0  0  0  0  0  0  0  0
   58.8760   29.6630   48.9730 N   0  0  0  0  0  0  0  0  0  0  0  0
   58.1240   33.1540   47.0120 C   0  0  0  0  0  0  0  0  0  0  0  0
   57.0190   31.2920   45.2840 N   0  0  0  0  0  0  0  0  0  0  0  0
   57.0227   28.8701   46.3331 H   0  0  0  0  0  0  0  0  0  0  0  0
   56.0249   28.4234   44.9078 H   0  0  0  0  0  0  0  0  0  0  0  0
   57.7904   28.0919   44.9078 H   0  0  0  0  0  0  0  0  0  0  0  0
   58.6727   33.3029   42.3148 H   0  0  0  0  0  0  0  0  0  0  0  0
   58.7925   31.7391   41.4390 H   0  0  0  0  0  0  0  0  0  0  0  0
   57.2456   32.6523   41.4390 H   0  0  0  0  0  0  0  0  0  0  0  0
   57.3780   34.2532   43.7981 H   0  0  0  0  0  0  0  0  0  0  0  0
   56.1685   33.8757   45.0856 H   0  0  0  0  0  0  0  0  0  0  0  0
   57.9219   35.1131   46.1212 H   0  0  0  0  0  0  0  0  0  0  0  0
   59.7411   33.3974   44.4489 H   0  0  0  0  0  0  0  0  0  0  0  0
   59.8159   35.1685   44.8676 H   0  0  0  0  0  0  0  0  0  0  0  0
   60.9144   32.7887   46.3422 H   0  0  0  0  0  0  0  0  0  0  0  0
   61.6082   34.4409   46.0733 H   0  0  0  0  0  0  0  0  0  0  0  0
   61.0053   34.0568   48.4478 H   0  0  0  0  0  0  0  0  0  0  0  0
   60.0345   35.3895   47.6698 H   0  0  0  0  0  0  0  0  0  0  0  0
   60.4762   31.3301   46.6232 H   0  0  0  0  0  0  0  0  0  0  0  0
   61.0119   27.7314   46.1894 H   0  0  0  0  0  0  0  0  0  0  0  0
   59.5559   28.1595   45.2283 H   0  0  0  0  0  0  0  0  0  0  0  0
   60.9843   29.2487   45.2283 H   0  0  0  0  0  0  0  0  0  0  0  0
   58.9326   27.6746   48.1220 H   0  0  0  0  0  0  0  0  0  0  0  0
   58.4806   32.1573   46.7128 H   0  0  0  0  0  0  0  0  0  0  0  0
   57.0796   33.1065   47.3541 H   0  0  0  0  0  0  0  0  0  0  0  0
  1  2  1  0
  2  3  1  0
  3  4  2  0
  4  5  1  0
  4  6  1  0
  6  7  1  0
  7  8  1  0
  8  9  1  0
  9 10  1  0
 10 11  1  0
 11 12  1  0
 12 13  1  0
 13 14  2  0
 13 15  2  0
 13 16  1  0
 16 17  2  0
 17 18  1  0
 18 19  1  0
 18 20  1  0
 20 21  2  0
 12 22  1  0
  6 23  1  0
 23  2  2  0
 22  8  1  0
 21 16  1  0
  1 24  1  0
  1 25  1  0
  1 26  1  0
  5 27  1  0
  5 28  1  0
  5 29  1  0
  7 30  1  0
  7 31  1  0
  8 32  1  1
  9 33  1  0
  9 34  1  0
 10 35  1  0
 10 36  1  0
 11 37  1  0
 11 38  1  0
 17 39  1  0
 19 40  1  0
 19 41  1  0
 19 42  1  0
 20 43  1  0
 22 44  1  0
 22 45  1  0
M  END
>  <UniqueID>  (69) 
63

>  <SMILES>  (69) 
Cc1nc(C)n(C[C@@H]2CCCN(S(=O)(=O)c3cn(C)cn3)C2)n1

>  <Energy>  (69) 
106.90664731915265

>  <Genealogy>  (69) 
Cc1nc(C)n(C[C@@H]2CCCN(S(=O)(=O)c3cn(C)cn3)C2)n1 (chirality)
Cc1nc(C)n(C[C@@H]2CCCN(S(=O)(=O)c3cn(C)cn3)C2)n1 (3D coordinates assigned)
Cc1nc(C)n(C[C@@H]2CCCN(S(=O)(=O)c3cn(C)cn3)C2)n1 (nonaromatic ring conformer: 106.90664731915265 kcal/mol)

>  <smiles>  (69) 
Cc1nc(C)n(CC2CCCN(S(=O)(=O)c3cn(C)cn3)C2)n1

>  <score_type>  (69) 
oracle

>  <origin>  (69) 
adg

>  <m_score__min__energy>  (69) 
-8.0999999999999996

>  <m_primary>  (69) 
energy

$$$$
69:0
     RDKit          3D

 11 11  0  0  0  0  0  0  0  0999 V2000
   51.0150   32.2990   49.8780 O   0  0  0  0  0  0  0  0  0  0  0  0
   51.1160   32.0560   51.1090 C   0  0  0  0  0  0  0  0  0  0  0  0
   50.2890   32.7190   52.0070 O   0  0  0  0  0  0  0  0  0  0  0  0
   52.0990   31.0820   51.5960 C   0  0  0  0  0  0  0  0  0  0  0  0
   53.4820   31.1870   51.4880 C   0  0  0  0  0  0  0  0  0  0  0  0
   54.1620   30.0980   52.0470 C   0  0  0  0  0  0  0  0  0  0  0  0
   53.3220   29.1360   52.5930 C   0  0  0  0  0  0  0  0  0  0  0  0
   51.7320   29.6400   52.3820 S   0  0  0  0  0  0  0  0  0  0  0  0
   53.9897   32.0388   51.0119 H   0  0  0  0  0  0  0  0  0  0  0  0
   55.2586   30.0124   52.0531 H   0  0  0  0  0  0  0  0  0  0  0  0
   53.6424   28.2034   53.0804 H   0  0  0  0  0  0  0  0  0  0  0  0
  1  2  2  0
  2  3  1  0
  2  4  1  0
  4  5  2  0
  5  6  1  0
  6  7  2  0
  7  8  1  0
  8  4  1  0
  5  9  1  0
  6 10  1  0
  7 11  1  0
M  CHG  1   3  -1
M  END
>  <UniqueID>  (70) 
64

>  <SMILES>  (70) 
O=C([O-])c1cccs1

>  <Energy>  (70) 
34.59409667641279

>  <Genealogy>  (70) 
O=C([O-])c1cccs1 (protonated)
O=C([O-])c1cccs1 (3D coordinates assigned)
O=C([O-])c1cccs1 (optimized conformer: 34.59409667641279 kcal/mol)

>  <smiles>  (70) 
O=C(O)c1cccs1

>  <score_type>  (70) 
oracle

>  <origin>  (70) 
adg

>  <m_score__min__energy>  (70) 
-7.9199999999999999

>  <m_primary>  (70) 
energy

$$$$
70:0
     RDKit          3D

 61 64  0  0  0  0  0  0  0  0999 V2000
   54.7750   26.3420   45.9740 O   0  0  0  0  0  0  0  0  0  0  0  0
   55.9020   25.9480   46.3820 C   0  0  0  0  0  0  0  0  0  0  0  0
   56.0490   24.6240   46.7790 O   0  0  0  0  0  0  0  0  0  0  0  0
   57.0470   26.8830   46.4380 C   0  0  0  0  0  0  0  0  0  0  0  0
   58.0320   26.7510   47.4340 C   0  0  0  0  0  0  0  0  0  0  0  0
   59.1190   27.6290   47.4790 C   0  0  0  0  0  0  0  0  0  0  0  0
   59.2580   28.6430   46.5170 C   0  0  0  0  0  0  0  0  0  0  0  0
   60.4090   29.6190   46.6300 C   0  0  0  0  0  0  0  0  0  0  0  0
   60.0850   30.8440   47.4020 N   0  0  2  0  0  0  0  0  0  0  0  0
   60.4910   32.1410   46.7840 C   0  0  0  0  0  0  0  0  0  0  0  0
   59.3810   32.9390   46.1250 C   0  0  0  0  0  0  0  0  0  0  0  0
   58.0740   32.4270   46.0160 C   0  0  0  0  0  0  0  0  0  0  0  0
   57.0650   33.1930   45.4270 C   0  0  0  0  0  0  0  0  0  0  0  0
   57.3770   34.4530   44.9090 C   0  0  0  0  0  0  0  0  0  0  0  0
   58.6550   34.9160   44.9710 N   0  0  0  0  0  0  0  0  0  0  0  0
   59.6520   34.1950   45.5510 C   0  0  0  0  0  0  0  0  0  0  0  0
   60.7010   30.6780   49.0350 S   0  0  0  0  0  0  0  0  0  0  0  0
   61.6470   31.8030   49.3540 O   0  0  0  0  0  0  0  0  0  0  0  0
   61.4290   29.3720   49.1970 O   0  0  0  0  0  0  0  0  0  0  0  0
   59.3610   30.7360   50.1800 C   0  0  0  0  0  0  0  0  0  0  0  0
   58.5260   31.8590   50.2140 C   0  0  0  0  0  0  0  0  0  0  0  0
   57.4260   31.8930   51.0770 C   0  0  0  0  0  0  0  0  0  0  0  0
   57.1440   30.8000   51.9180 C   0  0  0  0  0  0  0  0  0  0  0  0
   55.9150   30.8200   52.8110 C   0  0  0  0  0  0  0  0  0  0  0  0
   54.6260   30.8820   51.9570 C   0  0  0  0  0  0  0  0  0  0  0  0
   53.3970   30.5760   52.8160 C   0  0  0  0  0  0  0  0  0  0  0  0
   53.4460   29.1530   53.4120 C   0  0  0  0  0  0  0  0  0  0  0  0
   54.8690   28.5710   53.5150 C   0  0  0  0  0  0  0  0  0  0  0  0
   55.9120   29.6490   53.8350 C   0  0  0  0  0  0  0  0  0  0  0  0
   57.9930   29.6790   51.8820 C   0  0  0  0  0  0  0  0  0  0  0  0
   59.0910   29.6460   51.0190 C   0  0  0  0  0  0  0  0  0  0  0  0
   58.2520   28.8000   45.5460 C   0  0  0  0  0  0  0  0  0  0  0  0
   57.1680   27.9170   45.4960 C   0  0  0  0  0  0  0  0  0  0  0  0
   57.9461   25.9504   48.1834 H   0  0  0  0  0  0  0  0  0  0  0  0
   59.8717   27.5249   48.2744 H   0  0  0  0  0  0  0  0  0  0  0  0
   61.2481   29.1090   47.1258 H   0  0  0  0  0  0  0  0  0  0  0  0
   60.6555   29.9417   45.6077 H   0  0  0  0  0  0  0  0  0  0  0  0
   59.0480   30.8810   47.5290 H   0  0  0  0  0  0  0  0  0  0  0  0
   60.9325   32.7667   47.5737 H   0  0  0  0  0  0  0  0  0  0  0  0
   61.1890   31.8791   45.9752 H   0  0  0  0  0  0  0  0  0  0  0  0
   57.8465   31.4201   46.3960 H   0  0  0  0  0  0  0  0  0  0  0  0
   56.0359   32.8085   45.3715 H   0  0  0  0  0  0  0  0  0  0  0  0
   56.5898   35.0701   44.4514 H   0  0  0  0  0  0  0  0  0  0  0  0
   60.6761   34.5960   45.5715 H   0  0  0  0  0  0  0  0  0  0  0  0
   58.7358   32.7179   49.5595 H   0  0  0  0  0  0  0  0  0  0  0  0
   56.7764   32.7804   51.0987 H   0  0  0  0  0  0  0  0  0  0  0  0
   55.9478   31.7363   53.4187 H   0  0  0  0  0  0  0  0  0  0  0  0
   54.5251   31.8894   51.5270 H   0  0  0  0  0  0  0  0  0  0  0  0
   54.6947   30.1319   51.1553 H   0  0  0  0  0  0  0  0  0  0  0  0
   53.3492   31.3041   53.6392 H   0  0  0  0  0  0  0  0  0  0  0  0
   52.5078   30.6435   52.1720 H   0  0  0  0  0  0  0  0  0  0  0  0
   53.0102   29.1845   54.4215 H   0  0  0  0  0  0  0  0  0  0  0  0
   52.8813   28.5002   52.7301 H   0  0  0  0  0  0  0  0  0  0  0  0
   54.8855   27.8137   54.3127 H   0  0  0  0  0  0  0  0  0  0  0  0
   55.1258   28.1302   52.5405 H   0  0  0  0  0  0  0  0  0  0  0  0
   55.6975   30.0579   54.8334 H   0  0  0  0  0  0  0  0  0  0  0  0
   56.9017   29.1711   53.7888 H   0  0  0  0  0  0  0  0  0  0  0  0
   57.7905   28.8206   52.5394 H   0  0  0  0  0  0  0  0  0  0  0  0
   59.7455   28.7622   50.9978 H   0  0  0  0  0  0  0  0  0  0  0  0
   58.3183   29.6239   44.8201 H   0  0  0  0  0  0  0  0  0  0  0  0
   56.4046   28.0337   44.7126 H   0  0  0  0  0  0  0  0  0  0  0  0
  1  2  2  0
  2  3  1  0
  2  4  1  0
  4  5  2  0
  5  6  1  0
  6  7  2  0
  7  8  1  0
  8  9  1  0
  9 10  1  0
 10 11  1  0
 11 12  2  0
 12 13  1  0
 13 14  2  0
 14 15  1  0
 15 16  2  0
  9 17  1  0
 17 18  2  0
 17 19  2  0
 17 20  1  0
 20 21  2  0
 21 22  1  0
 22 23  2  0
 23 24  1  0
 24 25  1  0
 25 26  1  0
 26 27  1  0
 27 28  1  0
 28 29  1  0
 23 30  1  0
 30 31  2  0
  7 32  1  0
 32 33  2  0
 33  4  1  0
 16 11  1  0
 31 20  1  0
 29 24  1  0
  5 34  1  0
  6 35  1  0
  8 36  1  0
  8 37  1  0
  9 38  1  1
 10 39  1  0
 10 40  1  0
 12 41  1  0
 13 42  1  0
 14 43  1  0
 16 44  1  0
 21 45  1  0
 22 46  1  0
 24 47  1  0
 25 48  1  0
 25 49  1  0
 26 50  1  0
 26 51  1  0
 27 52  1  0
 27 53  1  0
 28 54  1  0
 28 55  1  0
 29 56  1  0
 29 57  1  0
 30 58  1  0
 31 59  1  0
 32 60  1  0
 33 61  1  0
M  CHG  2   3  -1   9   1
M  END
>  <UniqueID>  (71) 
65

>  <SMILES>  (71) 
O=C([O-])c1ccc(C[N@H+](Cc2cccnc2)S(=O)(=O)c2ccc(C3CCCCC3)cc2)cc1

>  <Energy>  (71) 
76.82126752826066

>  <Genealogy>  (71) 
O=C([O-])c1ccc(C[NH+](Cc2cccnc2)S(=O)(=O)c2ccc(C3CCCCC3)cc2)cc1 (protonated)
O=C([O-])c1ccc(C[N@H+](Cc2cccnc2)S(=O)(=O)c2ccc(C3CCCCC3)cc2)cc1 (chirality)
O=C([O-])c1ccc(C[N@H+](Cc2cccnc2)S(=O)(=O)c2ccc(C3CCCCC3)cc2)cc1 (3D coordinates assigned)
O=C([O-])c1ccc(C[N@H+](Cc2cccnc2)S(=O)(=O)c2ccc(C3CCCCC3)cc2)cc1 (nonaromatic ring conformer: 76.82126752826066 kcal/mol)

>  <smiles>  (71) 
O=C(O)c1ccc(CN(Cc2cccnc2)S(=O)(=O)c2ccc(C3CCCCC3)cc2)cc1

>  <score_type>  (71) 
oracle

>  <origin>  (71) 
adg

>  <m_score__min__energy>  (71) 
-10.59

>  <m_primary>  (71) 
energy

$$$$
71:0
     RDKit          3D

 35 36  0  0  0  0  0  0  0  0999 V2000
   55.1540   26.6390   46.1900 N   0  0  0  0  0  0  0  0  0  0  0  0
   56.2910   25.3410   46.2570 S   0  0  0  0  0  0  0  0  0  0  0  0
   56.2910   24.6020   44.9490 O   0  0  0  0  0  0  0  0  0  0  0  0
   55.8950   24.3860   47.3490 O   0  0  0  0  0  0  0  0  0  0  0  0
   57.8990   25.9830   46.5800 C   0  0  0  0  0  0  0  0  0  0  0  0
   58.9680   25.6520   45.7390 C   0  0  0  0  0  0  0  0  0  0  0  0
   60.2450   26.1600   45.9960 C   0  0  0  0  0  0  0  0  0  0  0  0
   60.4560   27.0120   47.0840 C   0  0  0  0  0  0  0  0  0  0  0  0
   59.3820   27.3770   47.9160 C   0  0  0  0  0  0  0  0  0  0  0  0
   59.5580   28.2350   49.0520 N   0  0  0  0  0  0  0  0  0  0  0  0
   59.6840   29.6630   49.0310 C   0  0  0  0  0  0  0  0  0  0  0  0
   59.2370   30.3640   49.9770 O   0  0  0  0  0  0  0  0  0  0  0  0
   60.4250   30.3200   47.9150 C   0  0  0  0  0  0  0  0  0  0  0  0
   59.7990   31.5580   47.5930 O   0  0  0  0  0  0  0  0  0  0  0  0
   59.3030   31.8460   46.3170 C   0  0  0  0  0  0  0  0  0  0  0  0
   59.8430   32.7470   45.6180 O   0  0  0  0  0  0  0  0  0  0  0  0
   58.1410   31.0950   45.7930 C   0  0  0  0  0  0  0  0  0  0  0  0
   57.9550   29.7380   46.1210 C   0  0  0  0  0  0  0  0  0  0  0  0
   56.8570   29.0330   45.6190 C   0  0  0  0  0  0  0  0  0  0  0  0
   55.9340   29.6720   44.7860 C   0  0  0  0  0  0  0  0  0  0  0  0
   54.8430   28.9700   44.2900 O   0  0  0  0  0  0  0  0  0  0  0  0
   56.1080   31.0180   44.4550 C   0  0  0  0  0  0  0  0  0  0  0  0
   57.2050   31.7270   44.9550 C   0  0  0  0  0  0  0  0  0  0  0  0
   58.1100   26.8430   47.6670 C   0  0  0  0  0  0  0  0  0  0  0  0
   55.2480   27.0780   45.2460 H   0  0  0  0  0  0  0  0  0  0  0  0
   58.8031   24.9915   44.8750 H   0  0  0  0  0  0  0  0  0  0  0  0
   61.0856   25.8886   45.3405 H   0  0  0  0  0  0  0  0  0  0  0  0
   61.4651   27.3983   47.2902 H   0  0  0  0  0  0  0  0  0  0  0  0
   61.4646   30.5042   48.2236 H   0  0  0  0  0  0  0  0  0  0  0  0
   60.4152   29.6638   47.0322 H   0  0  0  0  0  0  0  0  0  0  0  0
   58.6779   29.2298   46.7760 H   0  0  0  0  0  0  0  0  0  0  0  0
   56.7191   27.9734   45.8800 H   0  0  0  0  0  0  0  0  0  0  0  0
   55.3812   31.5209   43.8002 H   0  0  0  0  0  0  0  0  0  0  0  0
   57.3366   32.7867   44.6909 H   0  0  0  0  0  0  0  0  0  0  0  0
   57.2707   27.1008   48.3297 H   0  0  0  0  0  0  0  0  0  0  0  0
  1  2  1  0
  2  3  2  0
  2  4  2  0
  2  5  1  0
  5  6  2  0
  6  7  1  0
  7  8  2  0
  8  9  1  0
  9 10  1  0
 10 11  1  0
 11 12  2  0
 11 13  1  0
 13 14  1  0
 14 15  1  0
 15 16  2  0
 15 17  1  0
 17 18  2  0
 18 19  1  0
 19 20  2  0
 20 21  1  0
 20 22  1  0
 22 23  2  0
  9 24  2  0
 24  5  1  0
 23 17  1  0
  1 25  1  0
  6 26  1  0
  7 27  1  0
  8 28  1  0
 13 29  1  0
 13 30  1  0
 18 31  1  0
 19 32  1  0
 22 33  1  0
 23 34  1  0
 24 35  1  0
M  CHG  3   1  -1  10  -1  21  -1
M  END
>  <UniqueID>  (72) 
66

>  <SMILES>  (72) 
[NH-]S(=O)(=O)c1cccc([N-]C(=O)COC(=O)c2ccc([O-])cc2)c1

>  <Energy>  (72) 
36.34143526460084

>  <Genealogy>  (72) 
[NH-]S(=O)(=O)c1cccc([N-]C(=O)COC(=O)c2ccc([O-])cc2)c1 (protonated)
[NH-]S(=O)(=O)c1cccc([N-]C(=O)COC(=O)c2ccc([O-])cc2)c1 (3D coordinates assigned)
[NH-]S(=O)(=O)c1cccc([N-]C(=O)COC(=O)c2ccc([O-])cc2)c1 (optimized conformer: 36.34143526460084 kcal/mol)

>  <smiles>  (72) 
NS(=O)(=O)c1cccc(NC(=O)COC(=O)c2ccc(O)cc2)c1

>  <score_type>  (72) 
oracle

>  <origin>  (72) 
adg

>  <m_score__min__energy>  (72) 
-13.630000000000001

>  <m_primary>  (72) 
energy

$$$$
72:0
     RDKit          3D

 45 48  0  0  0  0  0  0  0  0999 V2000
   56.5558   24.8364   47.0821 H   0  0  0  0  0  0  0  0  0  0  0  0
   56.6610   25.8150   46.5910 C   0  0  0  0  0  0  0  0  0  0  0  0
   55.6600   26.5230   46.0330 N   0  0  0  0  0  0  0  0  0  0  0  0
   56.2880   27.6280   45.5710 C   0  0  0  0  0  0  0  0  0  0  0  0
   55.6860   28.6100   44.9670 N   0  0  0  0  0  0  0  0  0  0  0  0
   56.2760   29.8790   44.6560 C   0  0  0  0  0  0  0  0  0  0  0  0
   55.5260   30.8800   44.5080 O   0  0  0  0  0  0  0  0  0  0  0  0
   57.7000   30.0310   44.5600 N   0  0  0  0  0  0  0  0  0  0  0  0
   58.3230   29.3310   45.0190 H   0  0  0  0  0  0  0  0  0  0  0  0
   58.3130   31.1120   43.7940 C   0  0  0  0  0  0  0  0  0  0  0  0
   59.3235   30.8112   43.4804 H   0  0  0  0  0  0  0  0  0  0  0  0
   57.6998   31.3239   42.9057 H   0  0  0  0  0  0  0  0  0  0  0  0
   58.4000   32.3400   44.6420 C   0  0  0  0  0  0  0  0  0  0  0  0
   58.2990   33.6020   44.1770 N   0  0  0  0  0  0  0  0  0  0  0  0
   58.5640   34.4040   45.1980 N   0  0  0  0  0  0  0  0  0  0  0  0
   58.8300   33.6940   46.2830 N   0  0  0  0  0  0  0  0  0  0  0  0
   59.2700   34.2610   47.5520 C   0  0  0  0  0  0  0  0  0  0  0  0
   59.0369   35.3358   47.5717 H   0  0  0  0  0  0  0  0  0  0  0  0
   58.7485   33.7525   48.3763 H   0  0  0  0  0  0  0  0  0  0  0  0
   60.7550   34.0690   47.7110 C   0  0  0  0  0  0  0  0  0  0  0  0
   61.5560   33.8640   46.5760 C   0  0  0  0  0  0  0  0  0  0  0  0
   61.0992   33.8718   45.5754 H   0  0  0  0  0  0  0  0  0  0  0  0
   62.9310   33.6500   46.7110 C   0  0  0  0  0  0  0  0  0  0  0  0
   63.5532   33.4941   45.8174 H   0  0  0  0  0  0  0  0  0  0  0  0
   63.5150   33.6340   47.9790 C   0  0  0  0  0  0  0  0  0  0  0  0
   64.5982   33.4732   48.0830 H   0  0  0  0  0  0  0  0  0  0  0  0
   62.7250   33.8220   49.1160 C   0  0  0  0  0  0  0  0  0  0  0  0
   63.1873   33.8073   50.1140 H   0  0  0  0  0  0  0  0  0  0  0  0
   61.3470   34.0290   48.9880 C   0  0  0  0  0  0  0  0  0  0  0  0
   60.5950   34.1890   50.1070 F   0  0  0  0  0  0  0  0  0  0  0  0
   58.7540   32.3910   45.9720 C   0  0  0  0  0  0  0  0  0  0  0  0
   58.9370   31.5381   46.6421 H   0  0  0  0  0  0  0  0  0  0  0  0
   57.5770   27.6350   45.8170 O   0  0  0  0  0  0  0  0  0  0  0  0
   57.8410   26.5180   46.4460 C   0  0  0  0  0  0  0  0  0  0  0  0
   59.2150   26.1230   46.9240 C   0  0  0  0  0  0  0  0  0  0  0  0
   59.1209   25.0293   46.8529 H   0  0  0  0  0  0  0  0  0  0  0  0
   60.3450   26.8570   46.2070 C   0  0  0  0  0  0  0  0  0  0  0  0
   61.1121   26.1939   45.7806 H   0  0  0  0  0  0  0  0  0  0  0  0
   60.1354   27.4711   45.3188 H   0  0  0  0  0  0  0  0  0  0  0  0
   60.7500   27.5130   47.5210 C   0  0  0  0  0  0  0  0  0  0  0  0
   61.7593   27.2424   47.8646 H   0  0  0  0  0  0  0  0  0  0  0  0
   60.8287   28.6078   47.5934 H   0  0  0  0  0  0  0  0  0  0  0  0
   59.6300   26.7740   48.2420 C   0  0  0  0  0  0  0  0  0  0  0  0
   59.9792   26.0622   49.0045 H   0  0  0  0  0  0  0  0  0  0  0  0
   58.8958   27.3269   48.8464 H   0  0  0  0  0  0  0  0  0  0  0  0
  1  2  1  0
  2  3  1  0
  3  4  1  0
  4  5  2  0
  5  6  1  0
  6  7  2  0
  6  8  1  0
  8  9  1  0
  8 10  1  0
 10 11  1  0
 10 12  1  0
 10 13  1  0
 13 14  1  0
 14 15  2  0
 15 16  1  0
 16 17  1  0
 17 18  1  0
 17 19  1  0
 17 20  1  0
 20 21  2  0
 21 22  1  0
 21 23  1  0
 23 24  1  0
 23 25  2  0
 25 26  1  0
 25 27  1  0
 27 28  1  0
 27 29  2  0
 29 30  1  0
 16 31  1  0
 31 32  1  0
  4 33  1  0
 33 34  1  0
 34 35  1  0
 35 36  1  0
 35 37  1  0
 37 38  1  0
 37 39  1  0
 37 40  1  0
 40 41  1  0
 40 42  1  0
 40 43  1  0
 43 44  1  0
 43 45  1  0
 34  2  2  0
 43 35  1  0
 31 13  2  0
 29 20  1  0
M  CHG  1   3  -1
M  END
>  <UniqueID>  (73) 
67

>  <SMILES>  (73) 
O=C(/N=c1\[n-]cc(C2CCC2)o1)NCc1cn(Cc2ccccc2F)nn1

>  <Energy>  (73) 
169.13897164005124

>  <Genealogy>  (73) 
O=C(N=c1[n-]cc(C2CCC2)o1)NCc1cn(Cc2ccccc2F)nn1 (protonated)
O=C(/N=c1\[n-]cc(C2CCC2)o1)NCc1cn(Cc2ccccc2F)nn1 (cis-trans isomerization)
O=C(/N=c1\[n-]cc(C2CCC2)o1)NCc1cn(Cc2ccccc2F)nn1 (3D coordinates assigned)
O=C(/N=c1\[n-]cc(C2CCC2)o1)NCc1cn(Cc2ccccc2F)nn1 (nonaromatic ring conformer: 169.13897164005124 kcal/mol)

>  <smiles>  (73) 
O=C(N=c1[nH]cc(C2CCC2)o1)NCc1cn(Cc2ccccc2F)nn1

>  <score_type>  (73) 
oracle

>  <origin>  (73) 
adg

>  <m_score__min__energy>  (73) 
-11.02

>  <m_primary>  (73) 
energy

$$$$
73:0
     RDKit          3D

 44 46  0  0  0  0  0  0  0  0999 V2000
   55.6380   26.8390   46.0390 N   0  0  0  0  0  0  0  0  0  0  0  0
   57.0680   26.8520   46.1290 C   0  0  0  0  0  0  0  0  0  0  0  0
   57.6970   26.0700   47.1120 C   0  0  0  0  0  0  0  0  0  0  0  0
   59.0900   25.9860   47.1670 C   0  0  0  0  0  0  0  0  0  0  0  0
   59.8690   26.6740   46.2350 C   0  0  0  0  0  0  0  0  0  0  0  0
   59.2570   27.4630   45.2590 C   0  0  0  0  0  0  0  0  0  0  0  0
   57.8620   27.5840   45.2130 C   0  0  0  0  0  0  0  0  0  0  0  0
   57.2840   28.4370   44.2170 N   0  0  0  0  0  0  0  0  0  0  0  0
   56.5410   29.6270   44.5080 C   0  0  0  0  0  0  0  0  0  0  0  0
   55.3440   29.5370   44.9000 O   0  0  0  0  0  0  0  0  0  0  0  0
   57.1780   30.9570   44.3700 C   0  0  0  0  0  0  0  0  0  0  0  0
   57.5460   31.4480   43.1050 C   0  0  0  0  0  0  0  0  0  0  0  0
   58.1320   32.7090   42.9780 C   0  0  0  0  0  0  0  0  0  0  0  0
   58.3640   33.4950   44.1100 C   0  0  0  0  0  0  0  0  0  0  0  0
   58.0220   33.0140   45.3840 C   0  0  0  0  0  0  0  0  0  0  0  0
   58.2160   33.7970   46.5710 N   0  0  0  0  0  0  0  0  0  0  0  0
   59.3220   34.6620   46.8580 C   0  0  0  0  0  0  0  0  0  0  0  0
   59.6460   35.5820   46.0600 O   0  0  0  0  0  0  0  0  0  0  0  0
   60.1570   34.4030   48.0720 C   0  0  0  0  0  0  0  0  0  0  0  0
   61.2360   33.3950   47.7590 C   0  0  0  0  0  0  0  0  0  0  0  0
   62.5720   33.8340   47.6920 C   0  0  0  0  0  0  0  0  0  0  0  0
   63.6040   32.9330   47.4250 C   0  0  0  0  0  0  0  0  0  0  0  0
   63.3190   31.5820   47.2260 C   0  0  0  0  0  0  0  0  0  0  0  0
   62.0020   31.1280   47.3030 C   0  0  0  0  0  0  0  0  0  0  0  0
   60.9560   32.0170   47.5770 C   0  0  0  0  0  0  0  0  0  0  0  0
   59.6630   31.4960   47.6640 O   0  0  0  0  0  0  0  0  0  0  0  0
   57.4150   31.7570   45.5050 C   0  0  0  0  0  0  0  0  0  0  0  0
   55.0490   26.3040   46.7130 H   0  0  0  0  0  0  0  0  0  0  0  0
   55.1450   27.4430   45.3430 H   0  0  0  0  0  0  0  0  0  0  0  0
   57.0877   25.5196   47.8440 H   0  0  0  0  0  0  0  0  0  0  0  0
   59.5736   25.3773   47.9452 H   0  0  0  0  0  0  0  0  0  0  0  0
   60.9656   26.5945   46.2695 H   0  0  0  0  0  0  0  0  0  0  0  0
   59.8752   27.9939   44.5202 H   0  0  0  0  0  0  0  0  0  0  0  0
   57.3710   30.8344   42.2090 H   0  0  0  0  0  0  0  0  0  0  0  0
   58.4121   33.0852   41.9830 H   0  0  0  0  0  0  0  0  0  0  0  0
   58.8154   34.4924   44.0027 H   0  0  0  0  0  0  0  0  0  0  0  0
   60.6232   35.3440   48.3995 H   0  0  0  0  0  0  0  0  0  0  0  0
   59.5143   34.0036   48.8704 H   0  0  0  0  0  0  0  0  0  0  0  0
   62.8047   34.8972   47.8516 H   0  0  0  0  0  0  0  0  0  0  0  0
   64.6435   33.2887   47.3714 H   0  0  0  0  0  0  0  0  0  0  0  0
   64.1327   30.8746   47.0084 H   0  0  0  0  0  0  0  0  0  0  0  0
   61.7835   30.0613   47.1469 H   0  0  0  0  0  0  0  0  0  0  0  0
   58.8300   32.0230   47.4360 H   0  0  0  0  0  0  0  0  0  0  0  0
   57.1197   31.3901   46.4991 H   0  0  0  0  0  0  0  0  0  0  0  0
  1  2  1  0
  2  3  2  0
  3  4  1  0
  4  5  2  0
  5  6  1  0
  6  7  2  0
  7  8  1  0
  8  9  1  0
  9 10  2  0
  9 11  1  0
 11 12  2  0
 12 13  1  0
 13 14  2  0
 14 15  1  0
 15 16  1  0
 16 17  1  0
 17 18  2  0
 17 19  1  0
 19 20  1  0
 20 21  2  0
 21 22  1  0
 22 23  2  0
 23 24  1  0
 24 25  2  0
 25 26  1  0
 15 27  2  0
  7  2  1  0
 27 11  1  0
 25 20  1  0
  1 28  1  0
  1 29  1  0
  3 30  1  0
  4 31  1  0
  5 32  1  0
  6 33  1  0
 12 34  1  0
 13 35  1  0
 14 36  1  0
 19 37  1  0
 19 38  1  0
 21 39  1  0
 22 40  1  0
 23 41  1  0
 24 42  1  0
 26 43  1  0
 27 44  1  0
M  CHG  2   8  -1  16  -1
M  END
>  <UniqueID>  (74) 
68

>  <SMILES>  (74) 
Nc1ccccc1[N-]C(=O)c1cccc([N-]C(=O)Cc2ccccc2O)c1

>  <Energy>  (74) 
57.441486405294114

>  <Genealogy>  (74) 
Nc1ccccc1[N-]C(=O)c1cccc([N-]C(=O)Cc2ccccc2O)c1 (protonated)
Nc1ccccc1[N-]C(=O)c1cccc([N-]C(=O)Cc2ccccc2O)c1 (3D coordinates assigned)
Nc1ccccc1[N-]C(=O)c1cccc([N-]C(=O)Cc2ccccc2O)c1 (optimized conformer: 57.441486405294114 kcal/mol)

>  <smiles>  (74) 
Nc1ccccc1NC(=O)c1cccc(NC(=O)Cc2ccccc2O)c1

>  <score_type>  (74) 
oracle

>  <origin>  (74) 
adg

>  <m_score__min__energy>  (74) 
-11.81

>  <m_primary>  (74) 
energy

$$$$
74:0
     RDKit          3D

 43 45  0  0  0  0  0  0  0  0999 V2000
   63.7350   33.5920   46.8900 C   0  0  0  0  0  0  0  0  0  0  0  0
   62.9020   32.6800   47.7320 C   0  0  0  0  0  0  0  0  0  0  0  0
   63.1330   32.5780   49.1090 C   0  0  0  0  0  0  0  0  0  0  0  0
   62.3380   31.7220   49.8720 C   0  0  0  0  0  0  0  0  0  0  0  0
   61.3260   30.9800   49.2620 C   0  0  0  0  0  0  0  0  0  0  0  0
   61.1230   31.0980   47.8770 C   0  0  0  0  0  0  0  0  0  0  0  0
   60.0480   30.3500   47.1960 C   0  0  0  0  0  0  0  0  0  0  0  0
   59.1550   29.7690   47.8720 O   0  0  0  0  0  0  0  0  0  0  0  0
   60.0120   30.2830   45.7630 N   0  0  0  0  0  0  0  0  0  0  0  0
   58.7960   30.0650   45.0340 C   0  0  0  0  0  0  0  0  0  0  0  0
   58.5760   28.8150   44.4380 C   0  0  0  0  0  0  0  0  0  0  0  0
   57.3930   28.5630   43.7380 C   0  0  0  0  0  0  0  0  0  0  0  0
   56.4250   29.5620   43.6170 C   0  0  0  0  0  0  0  0  0  0  0  0
   56.6450   30.8220   44.1820 C   0  0  0  0  0  0  0  0  0  0  0  0
   57.8310   31.0900   44.8830 C   0  0  0  0  0  0  0  0  0  0  0  0
   58.0730   32.4210   45.3690 N   0  0  0  0  0  0  0  0  0  0  0  0
   58.4610   33.4880   44.4360 C   0  0  0  0  0  0  0  0  0  0  0  0
   59.6510   34.2650   45.0030 C   0  0  0  0  0  0  0  0  0  0  0  0
   59.3770   34.8210   46.4170 C   0  0  0  0  0  0  0  0  0  0  0  0
   58.1760   34.1670   47.1240 C   0  0  0  0  0  0  0  0  0  0  0  0
   58.0840   32.6680   46.8200 C   0  0  0  0  0  0  0  0  0  0  0  0
   61.9120   31.9430   47.1570 N   0  0  0  0  0  0  0  0  0  0  0  0
   64.3333   34.2470   47.5404 H   0  0  0  0  0  0  0  0  0  0  0  0
   64.4055   32.9943   46.2550 H   0  0  0  0  0  0  0  0  0  0  0  0
   63.0792   34.2058   46.2550 H   0  0  0  0  0  0  0  0  0  0  0  0
   63.9321   33.1660   49.5840 H   0  0  0  0  0  0  0  0  0  0  0  0
   62.5092   31.6321   50.9549 H   0  0  0  0  0  0  0  0  0  0  0  0
   60.6927   30.3085   49.8604 H   0  0  0  0  0  0  0  0  0  0  0  0
   60.9130   30.3030   45.2360 H   0  0  0  0  0  0  0  0  0  0  0  0
   59.3395   28.0276   44.5220 H   0  0  0  0  0  0  0  0  0  0  0  0
   57.2242   27.5764   43.2818 H   0  0  0  0  0  0  0  0  0  0  0  0
   55.4888   29.3577   43.0769 H   0  0  0  0  0  0  0  0  0  0  0  0
   55.8833   31.6086   44.0763 H   0  0  0  0  0  0  0  0  0  0  0  0
   58.7419   33.0438   43.4697 H   0  0  0  0  0  0  0  0  0  0  0  0
   57.6127   34.1742   44.2960 H   0  0  0  0  0  0  0  0  0  0  0  0
   60.5202   33.5926   45.0511 H   0  0  0  0  0  0  0  0  0  0  0  0
   59.8372   35.1215   44.3383 H   0  0  0  0  0  0  0  0  0  0  0  0
   60.2731   34.6563   47.0333 H   0  0  0  0  0  0  0  0  0  0  0  0
   59.1351   35.8875   46.2987 H   0  0  0  0  0  0  0  0  0  0  0  0
   58.2843   34.3041   48.2100 H   0  0  0  0  0  0  0  0  0  0  0  0
   57.2583   34.6478   46.7544 H   0  0  0  0  0  0  0  0  0  0  0  0
   58.9509   32.1574   47.2647 H   0  0  0  0  0  0  0  0  0  0  0  0
   57.1467   32.2819   47.2471 H   0  0  0  0  0  0  0  0  0  0  0  0
  1  2  1  0
  2  3  2  0
  3  4  1  0
  4  5  2  0
  5  6  1  0
  6  7  1  0
  7  8  2  0
  7  9  1  0
  9 10  1  0
 10 11  2  0
 11 12  1  0
 12 13  2  0
 13 14  1  0
 14 15  2  0
 15 16  1  0
 16 17  1  0
 17 18  1  0
 18 19  1  0
 19 20  1  0
 20 21  1  0
  6 22  2  0
 22  2  1  0
 15 10  1  0
 21 16  1  0
  1 23  1  0
  1 24  1  0
  1 25  1  0
  3 26  1  0
  4 27  1  0
  5 28  1  0
  9 29  1  0
 11 30  1  0
 12 31  1  0
 13 32  1  0
 14 33  1  0
 17 34  1  0
 17 35  1  0
 18 36  1  0
 18 37  1  0
 19 38  1  0
 19 39  1  0
 20 40  1  0
 20 41  1  0
 21 42  1  0
 21 43  1  0
M  END
>  <UniqueID>  (75) 
69

>  <SMILES>  (75) 
Cc1cccc(C(=O)Nc2ccccc2N2CCCCC2)n1

>  <Energy>  (75) 
53.55950412338602

>  <Genealogy>  (75) 
Cc1cccc(C(=O)Nc2ccccc2N2CCCCC2)n1 (3D coordinates assigned)
Cc1cccc(C(=O)Nc2ccccc2N2CCCCC2)n1 (nonaromatic ring conformer: 53.55950412338602 kcal/mol)

>  <smiles>  (75) 
Cc1cccc(C(=O)Nc2ccccc2N2CCCCC2)n1

>  <score_type>  (75) 
oracle

>  <origin>  (75) 
adg

>  <m_score__min__energy>  (75) 
-7.4400000000000004

>  <m_primary>  (75) 
energy

$$$$
75:0
     RDKit          3D

 35 37  0  0  0  0  0  0  0  0999 V2000
   61.2570   33.8960   47.6700 C   0  0  0  0  0  0  0  0  0  0  0  0
   59.5560   34.2900   48.1860 S   0  0  0  0  0  0  0  0  0  0  0  0
   58.8090   33.4070   46.8150 C   0  0  0  0  0  0  0  0  0  0  0  0
   58.4680   34.0930   45.6440 C   0  0  0  0  0  0  0  0  0  0  0  0
   57.8730   33.4070   44.5820 C   0  0  0  0  0  0  0  0  0  0  0  0
   57.6220   32.0360   44.6830 C   0  0  0  0  0  0  0  0  0  0  0  0
   57.9770   31.3340   45.8490 C   0  0  0  0  0  0  0  0  0  0  0  0
   57.7070   29.9270   45.9900 N   0  0  0  0  0  0  0  0  0  0  0  0
   58.7140   28.9440   46.2850 C   0  0  0  0  0  0  0  0  0  0  0  0
   59.8430   29.3050   46.7160 O   0  0  0  0  0  0  0  0  0  0  0  0
   58.4190   27.5040   46.1220 C   0  0  0  0  0  0  0  0  0  0  0  0
   59.4550   26.5590   46.0210 C   0  0  0  0  0  0  0  0  0  0  0  0
   59.1440   25.2060   45.8640 C   0  0  0  0  0  0  0  0  0  0  0  0
   57.8070   24.7990   45.8050 C   0  0  0  0  0  0  0  0  0  0  0  0
   57.4630   23.4480   45.6460 C   0  0  0  0  0  0  0  0  0  0  0  0
   56.1170   23.0720   45.5900 C   0  0  0  0  0  0  0  0  0  0  0  0
   55.1110   24.0380   45.6920 C   0  0  0  0  0  0  0  0  0  0  0  0
   55.4440   25.3880   45.8500 C   0  0  0  0  0  0  0  0  0  0  0  0
   54.4350   26.3390   45.9500 O   0  0  0  0  0  0  0  0  0  0  0  0
   56.7910   25.7740   45.9070 C   0  0  0  0  0  0  0  0  0  0  0  0
   57.1240   27.0850   46.0600 N   0  0  0  0  0  0  0  0  0  0  0  0
   58.5530   32.0350   46.9200 C   0  0  0  0  0  0  0  0  0  0  0  0
   61.8859   33.7503   48.5607 H   0  0  0  0  0  0  0  0  0  0  0  0
   61.2537   32.9748   47.0688 H   0  0  0  0  0  0  0  0  0  0  0  0
   61.6591   34.7248   47.0688 H   0  0  0  0  0  0  0  0  0  0  0  0
   58.6682   35.1713   45.5596 H   0  0  0  0  0  0  0  0  0  0  0  0
   57.6013   33.9479   43.6635 H   0  0  0  0  0  0  0  0  0  0  0  0
   57.1448   31.5036   43.8471 H   0  0  0  0  0  0  0  0  0  0  0  0
   56.7090   29.6210   45.9660 H   0  0  0  0  0  0  0  0  0  0  0  0
   60.5052   26.8832   46.0654 H   0  0  0  0  0  0  0  0  0  0  0  0
   59.9499   24.4613   45.7868 H   0  0  0  0  0  0  0  0  0  0  0  0
   58.2514   22.6851   45.5654 H   0  0  0  0  0  0  0  0  0  0  0  0
   55.8487   22.0125   45.4653 H   0  0  0  0  0  0  0  0  0  0  0  0
   54.0543   23.7357   45.6479 H   0  0  0  0  0  0  0  0  0  0  0  0
   58.8051   31.5021   47.8487 H   0  0  0  0  0  0  0  0  0  0  0  0
  1  2  1  0
  2  3  1  0
  3  4  2  0
  4  5  1  0
  5  6  2  0
  6  7  1  0
  7  8  1  0
  8  9  1  0
  9 10  2  0
  9 11  1  0
 11 12  2  0
 12 13  1  0
 13 14  2  0
 14 15  1  0
 15 16  2  0
 16 17  1  0
 17 18  2  0
 18 19  1  0
 18 20  1  0
 20 21  2  0
  7 22  2  0
 22  3  1  0
 21 11  1  0
 20 14  1  0
  1 23  1  0
  1 24  1  0
  1 25  1  0
  4 26  1  0
  5 27  1  0
  6 28  1  0
  8 29  1  0
 12 30  1  0
 13 31  1  0
 15 32  1  0
 16 33  1  0
 17 34  1  0
 22 35  1  0
M  CHG  1  19  -1
M  END
>  <UniqueID>  (76) 
70

>  <SMILES>  (76) 
CSc1cccc(NC(=O)c2ccc3cccc([O-])c3n2)c1

>  <Energy>  (76) 
40.64389451578428

>  <Genealogy>  (76) 
CSc1cccc(NC(=O)c2ccc3cccc([O-])c3n2)c1 (protonated)
CSc1cccc(NC(=O)c2ccc3cccc([O-])c3n2)c1 (3D coordinates assigned)
CSc1cccc(NC(=O)c2ccc3cccc([O-])c3n2)c1 (optimized conformer: 40.64389451578428 kcal/mol)

>  <smiles>  (76) 
CSc1cccc(NC(=O)c2ccc3cccc(O)c3n2)c1

>  <score_type>  (76) 
oracle

>  <origin>  (76) 
adg

>  <m_score__min__energy>  (76) 
-12.07

>  <m_primary>  (76) 
energy

$$$$
76:0
     RDKit          3D

 67 71  0  0  0  0  0  0  0  0999 V2000
   60.6400   32.9790   52.5790 C   0  0  0  0  0  0  0  0  0  0  0  0
   60.8180   33.8510   51.4670 O   0  0  0  0  0  0  0  0  0  0  0  0
   61.8640   33.7520   50.5360 C   0  0  0  0  0  0  0  0  0  0  0  0
   63.2190   33.8360   50.9160 C   0  0  0  0  0  0  0  0  0  0  0  0
   64.2390   33.7110   49.9640 C   0  0  0  0  0  0  0  0  0  0  0  0
   65.6010   33.8250   50.4020 N   0  0  0  0  0  0  0  0  0  0  0  0
   66.6080   32.5180   50.9360 S   0  0  0  0  0  0  0  0  0  0  0  0
   66.5590   32.3950   52.7130 C   0  0  0  0  0  0  0  0  0  0  0  0
   68.0200   32.7310   50.4640 O   0  0  0  0  0  0  0  0  0  0  0  0
   66.0900   31.2360   50.3490 O   0  0  0  0  0  0  0  0  0  0  0  0
   63.9010   33.4770   48.6200 C   0  0  0  0  0  0  0  0  0  0  0  0
   62.5620   33.3990   48.2370 C   0  0  0  0  0  0  0  0  0  0  0  0
   61.5410   33.5700   49.1840 C   0  0  0  0  0  0  0  0  0  0  0  0
   60.1650   33.4580   48.7960 N   0  0  0  0  0  0  0  0  0  0  0  0
   59.5530   32.5360   48.0890 C   0  0  0  0  0  0  0  0  0  0  0  0
   58.8330   32.7970   46.8800 C   0  0  0  0  0  0  0  0  0  0  0  0
   58.3910   34.0810   46.4770 C   0  0  0  0  0  0  0  0  0  0  0  0
   57.7570   34.2700   45.2460 C   0  0  0  0  0  0  0  0  0  0  0  0
   57.4950   33.1830   44.4190 C   0  0  0  0  0  0  0  0  0  0  0  0
   57.8170   31.8950   44.8430 C   0  0  0  0  0  0  0  0  0  0  0  0
   58.4480   31.6940   46.0750 C   0  0  0  0  0  0  0  0  0  0  0  0
   58.6350   30.4270   46.5140 N   0  0  0  0  0  0  0  0  0  0  0  0
   59.1850   30.1390   47.7200 C   0  0  0  0  0  0  0  0  0  0  0  0
   59.3110   28.7920   48.1370 C   0  0  0  0  0  0  0  0  0  0  0  0
   58.7600   27.6680   47.3340 C   0  0  0  0  0  0  0  0  0  0  0  0
   59.0650   26.4780   47.6250 O   0  0  0  0  0  0  0  0  0  0  0  0
   57.8800   27.9230   46.2280 N   0  0  0  0  0  0  0  0  0  0  0  0
   57.7010   27.0120   45.1320 C   0  0  0  0  0  0  0  0  0  0  0  0
   58.0480   27.4150   43.8380 C   0  0  0  0  0  0  0  0  0  0  0  0
   57.8960   26.5390   42.7630 C   0  0  0  0  0  0  0  0  0  0  0  0
   57.4100   25.2450   42.9720 C   0  0  0  0  0  0  0  0  0  0  0  0
   57.0740   24.8020   44.2680 C   0  0  0  0  0  0  0  0  0  0  0  0
   56.5820   23.4530   44.4900 N   0  0  0  0  0  0  0  0  0  0  0  0
   56.6330   22.4500   43.4160 C   0  0  0  0  0  0  0  0  0  0  0  0
   56.0260   23.0630   45.7920 C   0  0  0  0  0  0  0  0  0  0  0  0
   57.2330   25.7030   45.3430 C   0  0  0  0  0  0  0  0  0  0  0  0
   59.9400   28.5140   49.3620 C   0  0  0  0  0  0  0  0  0  0  0  0
   60.4250   29.5460   50.1640 C   0  0  0  0  0  0  0  0  0  0  0  0
   60.2870   30.8730   49.7620 C   0  0  0  0  0  0  0  0  0  0  0  0
   59.6600   31.1940   48.5380 C   0  0  0  0  0  0  0  0  0  0  0  0
   60.7561   33.5479   53.5133 H   0  0  0  0  0  0  0  0  0  0  0  0
   59.6332   32.5375   52.5413 H   0  0  0  0  0  0  0  0  0  0  0  0
   61.3932   32.1782   52.5413 H   0  0  0  0  0  0  0  0  0  0  0  0
   63.4783   34.0016   51.9721 H   0  0  0  0  0  0  0  0  0  0  0  0
   66.9317   33.3305   53.1557 H   0  0  0  0  0  0  0  0  0  0  0  0
   65.5232   32.2217   53.0401 H   0  0  0  0  0  0  0  0  0  0  0  0
   67.1919   31.5569   53.0401 H   0  0  0  0  0  0  0  0  0  0  0  0
   64.6946   33.3550   47.8681 H   0  0  0  0  0  0  0  0  0  0  0  0
   62.3049   33.2022   47.1857 H   0  0  0  0  0  0  0  0  0  0  0  0
   58.5491   34.9422   47.1429 H   0  0  0  0  0  0  0  0  0  0  0  0
   57.4642   35.2821   44.9300 H   0  0  0  0  0  0  0  0  0  0  0  0
   57.0346   33.3395   43.4323 H   0  0  0  0  0  0  0  0  0  0  0  0
   57.5737   31.0322   44.2056 H   0  0  0  0  0  0  0  0  0  0  0  0
   57.2780   28.7780   46.2670 H   0  0  0  0  0  0  0  0  0  0  0  0
   58.4426   28.4275   43.6674 H   0  0  0  0  0  0  0  0  0  0  0  0
   58.1596   26.8677   41.7469 H   0  0  0  0  0  0  0  0  0  0  0  0
   57.2883   24.5648   42.1161 H   0  0  0  0  0  0  0  0  0  0  0  0
   56.6842   21.4434   43.8565 H   0  0  0  0  0  0  0  0  0  0  0  0
   55.7295   22.5325   42.7940 H   0  0  0  0  0  0  0  0  0  0  0  0
   57.5235   22.6238   42.7940 H   0  0  0  0  0  0  0  0  0  0  0  0
   56.6400   23.4937   46.5967 H   0  0  0  0  0  0  0  0  0  0  0  0
   54.9950   23.4369   45.8773 H   0  0  0  0  0  0  0  0  0  0  0  0
   56.0265   21.9663   45.8773 H   0  0  0  0  0  0  0  0  0  0  0  0
   56.9864   25.3753   46.3637 H   0  0  0  0  0  0  0  0  0  0  0  0
   60.0510   27.4706   49.6920 H   0  0  0  0  0  0  0  0  0  0  0  0
   60.9189   29.3117   51.1185 H   0  0  0  0  0  0  0  0  0  0  0  0
   60.6705   31.6790   50.4048 H   0  0  0  0  0  0  0  0  0  0  0  0
  1  2  1  0
  2  3  1  0
  3  4  2  0
  4  5  1  0
  5  6  1  0
  6  7  1  0
  7  8  1  0
  7  9  2  0
  7 10  2  0
  5 11  2  0
 11 12  1  0
 12 13  2  0
 13 14  1  0
 14 15  2  3
 15 16  1  0
 16 17  2  0
 17 18  1  0
 18 19  2  0
 19 20  1  0
 20 21  2  0
 21 22  1  0
 22 23  1  0
 23 24  2  0
 24 25  1  0
 25 26  2  0
 25 27  1  0
 27 28  1  0
 28 29  2  0
 29 30  1  0
 30 31  2  0
 31 32  1  0
 32 33  1  0
 33 34  1  0
 33 35  1  0
 32 36  2  0
 24 37  1  0
 37 38  2  0
 38 39  1  0
 39 40  2  0
 13  3  1  0
 40 15  1  0
 21 16  1  0
 40 23  1  0
 36 28  1  0
  1 41  1  0
  1 42  1  0
  1 43  1  0
  4 44  1  0
  8 45  1  0
  8 46  1  0
  8 47  1  0
 11 48  1  0
 12 49  1  0
 17 50  1  0
 18 51  1  0
 19 52  1  0
 20 53  1  0
 27 54  1  0
 29 55  1  0
 30 56  1  0
 31 57  1  0
 34 58  1  0
 34 59  1  0
 34 60  1  0
 35 61  1  0
 35 62  1  0
 35 63  1  0
 36 64  1  0
 37 65  1  0
 38 66  1  0
 39 67  1  0
M  CHG  2   6  -1  22  -1
M  END
>  <UniqueID>  (77) 
71

>  <SMILES>  (77) 
COc1cc([N-]S(C)(=O)=O)ccc1N=c1c2ccccc2[n-]c2c(C(=O)Nc3cccc(N(C)C)c3)cccc12

>  <Energy>  (77) 
109.15002123911607

>  <Genealogy>  (77) 
COc1cc([N-]S(C)(=O)=O)ccc1N=c1c2ccccc2[n-]c2c(C(=O)Nc3cccc(N(C)C)c3)cccc12 (protonated)
COc1cc([N-]S(C)(=O)=O)ccc1N=c1c2ccccc2[n-]c2c(C(=O)Nc3cccc(N(C)C)c3)cccc12 (3D coordinates assigned)
COc1cc([N-]S(C)(=O)=O)ccc1N=c1c2ccccc2[n-]c2c(C(=O)Nc3cccc(N(C)C)c3)cccc12 (optimized conformer: 109.15002123911607 kcal/mol)

>  <smiles>  (77) 
COc1cc(NS(C)(=O)=O)ccc1N=c1c2ccccc2[nH]c2c(C(=O)Nc3cccc(N(C)C)c3)cccc12

>  <score_type>  (77) 
oracle

>  <origin>  (77) 
adg

>  <m_score__min__energy>  (77) 
-11.74

>  <m_primary>  (77) 
energy

$$$$
77:0
     RDKit          3D

 40 43  0  0  0  0  0  0  0  0999 V2000
   53.4376   24.7227   45.9323 H   0  0  0  0  0  0  0  0  0  0  0  0
   54.4800   24.5620   45.6200 C   0  0  0  0  0  0  0  0  0  0  0  0
   55.4970   25.0920   46.3500 N   0  0  0  0  0  0  0  0  0  0  0  0
   56.8060   24.9200   46.0130 C   0  0  0  0  0  0  0  0  0  0  0  0
   57.7110   25.4750   46.7700 N   0  0  0  0  0  0  0  0  0  0  0  0
   58.9910   26.0230   46.4030 C   0  0  0  0  0  0  0  0  0  0  0  0
   59.9570   25.2610   46.1290 O   0  0  0  0  0  0  0  0  0  0  0  0
   59.2000   27.4900   46.4400 C   0  0  0  0  0  0  0  0  0  0  0  0
   59.2000   28.2420   45.2510 C   0  0  0  0  0  0  0  0  0  0  0  0
   59.0436   27.7370   44.2864 H   0  0  0  0  0  0  0  0  0  0  0  0
   59.3970   29.6250   45.2850 C   0  0  0  0  0  0  0  0  0  0  0  0
   59.3927   30.1985   44.3463 H   0  0  0  0  0  0  0  0  0  0  0  0
   59.6000   30.2890   46.5020 C   0  0  0  0  0  0  0  0  0  0  0  0
   59.8080   31.7130   46.4980 N   0  0  0  0  0  0  0  0  0  0  0  0
   60.6530   32.1030   46.9720 H   0  0  0  0  0  0  0  0  0  0  0  0
   58.6870   32.8570   45.8290 S   0  0  0  0  0  0  0  0  0  0  0  0
   57.5450   33.0480   46.7880 O   0  0  0  0  0  0  0  0  0  0  0  0
   59.3880   34.1720   45.6320 O   0  0  0  0  0  0  0  0  0  0  0  0
   58.0480   32.2550   44.3020 C   0  0  0  0  0  0  0  0  0  0  0  0
   58.4300   32.8380   43.0740 C   0  0  0  0  0  0  0  0  0  0  0  0
   59.1424   33.6761   43.0659 H   0  0  0  0  0  0  0  0  0  0  0  0
   57.9030   32.3520   41.8530 C   0  0  0  0  0  0  0  0  0  0  0  0
   58.2057   32.8181   40.9037 H   0  0  0  0  0  0  0  0  0  0  0  0
   56.9940   31.2760   41.8450 C   0  0  0  0  0  0  0  0  0  0  0  0
   56.5758   30.8868   40.9050 H   0  0  0  0  0  0  0  0  0  0  0  0
   56.6470   30.7260   43.0740 C   0  0  0  0  0  0  0  0  0  0  0  0
   55.8180   29.7070   43.3360 N   0  0  0  0  0  0  0  0  0  0  0  0
   55.8490   29.5920   44.6420 O   0  0  0  0  0  0  0  0  0  0  0  0
   56.6310   30.4550   45.2420 N   0  0  0  0  0  0  0  0  0  0  0  0
   57.1480   31.1880   44.2460 C   0  0  0  0  0  0  0  0  0  0  0  0
   59.5930   29.5400   47.6940 C   0  0  0  0  0  0  0  0  0  0  0  0
   59.7429   30.0473   48.6584 H   0  0  0  0  0  0  0  0  0  0  0  0
   59.3970   28.1570   47.6610 C   0  0  0  0  0  0  0  0  0  0  0  0
   59.3969   27.5846   48.6003 H   0  0  0  0  0  0  0  0  0  0  0  0
   57.1170   24.1860   44.8480 C   0  0  0  0  0  0  0  0  0  0  0  0
   58.1646   24.0511   44.5408 H   0  0  0  0  0  0  0  0  0  0  0  0
   56.0830   23.6320   44.0880 C   0  0  0  0  0  0  0  0  0  0  0  0
   56.3159   23.0513   43.1833 H   0  0  0  0  0  0  0  0  0  0  0  0
   54.7570   23.8150   44.4760 C   0  0  0  0  0  0  0  0  0  0  0  0
   53.9388   23.3753   43.8867 H   0  0  0  0  0  0  0  0  0  0  0  0
  1  2  1  0
  2  3  1  0
  3  4  1  0
  4  5  2  0
  5  6  1  0
  6  7  2  0
  6  8  1  0
  8  9  2  0
  9 10  1  0
  9 11  1  0
 11 12  1  0
 11 13  2  0
 13 14  1  0
 14 15  1  0
 14 16  1  0
 16 17  2  0
 16 18  2  0
 16 19  1  0
 19 20  2  0
 20 21  1  0
 20 22  1  0
 22 23  1  0
 22 24  2  0
 24 25  1  0
 24 26  1  0
 26 27  2  0
 27 28  1  0
 28 29  1  0
 29 30  2  0
 13 31  1  0
 31 32  1  0
 31 33  2  0
 33 34  1  0
  4 35  1  0
 35 36  1  0
 35 37  2  0
 37 38  1  0
 37 39  1  0
 39 40  1  0
 39  2  2  0
 33  8  1  0
 30 19  1  0
 30 26  1  0
M  CHG  1   3  -1
M  END
>  <UniqueID>  (78) 
72

>  <SMILES>  (78) 
O=C(/N=c1\cccc[n-]1)c1ccc(NS(=O)(=O)c2cccc3nonc23)cc1

>  <Energy>  (78) 
100.16125981464609

>  <Genealogy>  (78) 
O=C(N=c1cccc[n-]1)c1ccc(NS(=O)(=O)c2cccc3nonc23)cc1 (protonated)
O=C(/N=c1\cccc[n-]1)c1ccc(NS(=O)(=O)c2cccc3nonc23)cc1 (cis-trans isomerization)
O=C(/N=c1\cccc[n-]1)c1ccc(NS(=O)(=O)c2cccc3nonc23)cc1 (3D coordinates assigned)
O=C(/N=c1\cccc[n-]1)c1ccc(NS(=O)(=O)c2cccc3nonc23)cc1 (optimized conformer: 100.16125981464609 kcal/mol)

>  <smiles>  (78) 
O=C(N=c1cccc[nH]1)c1ccc(NS(=O)(=O)c2cccc3nonc23)cc1

>  <score_type>  (78) 
oracle

>  <origin>  (78) 
adg

>  <m_score__min__energy>  (78) 
-11.119999999999999

>  <m_primary>  (78) 
energy

$$$$
78:0
     RDKit          3D

 49 51  0  0  0  0  0  0  0  0999 V2000
   55.8220   31.1390   52.3740 C   0  0  0  0  0  0  0  0  0  0  0  0
   56.5920   30.2070   51.6220 O   0  0  0  0  0  0  0  0  0  0  0  0
   57.8100   30.5080   50.9950 C   0  0  0  0  0  0  0  0  0  0  0  0
   58.3370   31.7960   51.1480 C   0  0  0  0  0  0  0  0  0  0  0  0
   59.5470   32.1460   50.5440 C   0  0  0  0  0  0  0  0  0  0  0  0
   60.2480   31.2070   49.7770 C   0  0  0  0  0  0  0  0  0  0  0  0
   61.7800   31.6640   49.0340 S   0  0  0  0  0  0  0  0  0  0  0  0
   61.9010   30.8970   47.7460 O   0  0  0  0  0  0  0  0  0  0  0  0
   62.9220   31.2830   49.9360 O   0  0  0  0  0  0  0  0  0  0  0  0
   61.7990   33.3950   48.7180 N   0  0  0  0  0  0  0  0  0  0  0  0
   63.1890   33.8640   48.6080 C   0  0  0  0  0  0  0  0  0  0  0  0
   63.5870   33.8320   47.1330 C   0  0  0  0  0  0  0  0  0  0  0  0
   62.2930   33.6350   46.3630 C   0  0  0  0  0  0  0  0  0  0  0  0
   61.2010   33.7690   47.4220 C   0  0  1  0  0  0  0  0  0  0  0  0
   59.9000   33.0640   47.1020 C   0  0  0  0  0  0  0  0  0  0  0  0
   58.8190   33.4600   47.6150 O   0  0  0  0  0  0  0  0  0  0  0  0
   59.9200   31.9100   46.2450 N   0  0  0  0  0  0  0  0  0  0  0  0
   58.7450   31.2460   45.7480 C   0  0  0  0  0  0  0  0  0  0  0  0
   57.8020   31.9190   44.9490 C   0  0  0  0  0  0  0  0  0  0  0  0
   56.6810   31.2420   44.4630 C   0  0  0  0  0  0  0  0  0  0  0  0
   56.4940   29.8880   44.7540 C   0  0  0  0  0  0  0  0  0  0  0  0
   55.3910   29.2550   44.2810 F   0  0  0  0  0  0  0  0  0  0  0  0
   57.4430   29.1970   45.5230 C   0  0  0  0  0  0  0  0  0  0  0  0
   57.2160   27.4860   45.8880 S   0  0  0  0  0  0  0  0  0  0  0  0
   55.5440   27.0610   45.7840 N   0  0  0  0  0  0  0  0  0  0  0  0
   57.6990   27.1970   47.2810 O   0  0  0  0  0  0  0  0  0  0  0  0
   57.9970   26.6600   44.9060 O   0  0  0  0  0  0  0  0  0  0  0  0
   58.5640   29.8810   46.0160 C   0  0  0  0  0  0  0  0  0  0  0  0
   59.7280   29.9160   49.6190 C   0  0  0  0  0  0  0  0  0  0  0  0
   58.5170   29.5660   50.2230 C   0  0  0  0  0  0  0  0  0  0  0  0
   55.9726   30.9567   53.4483 H   0  0  0  0  0  0  0  0  0  0  0  0
   56.1416   32.1622   52.1274 H   0  0  0  0  0  0  0  0  0  0  0  0
   54.7568   31.0181   52.1274 H   0  0  0  0  0  0  0  0  0  0  0  0
   57.7932   32.5393   51.7494 H   0  0  0  0  0  0  0  0  0  0  0  0
   59.9502   33.1615   50.6711 H   0  0  0  0  0  0  0  0  0  0  0  0
   63.2671   34.8915   48.9928 H   0  0  0  0  0  0  0  0  0  0  0  0
   63.8565   33.2172   49.1963 H   0  0  0  0  0  0  0  0  0  0  0  0
   64.0649   34.7796   46.8440 H   0  0  0  0  0  0  0  0  0  0  0  0
   64.3099   33.0295   46.9246 H   0  0  0  0  0  0  0  0  0  0  0  0
   62.1800   34.4061   45.5867 H   0  0  0  0  0  0  0  0  0  0  0  0
   62.2569   32.6671   45.8416 H   0  0  0  0  0  0  0  0  0  0  0  0
   60.8626   34.8151   47.4564 H   0  0  0  0  0  0  0  0  0  0  0  0
   60.8490   31.4780   46.0380 H   0  0  0  0  0  0  0  0  0  0  0  0
   57.9482   32.9819   44.7064 H   0  0  0  0  0  0  0  0  0  0  0  0
   55.9421   31.7771   43.8484 H   0  0  0  0  0  0  0  0  0  0  0  0
   55.1870   27.4400   44.8790 H   0  0  0  0  0  0  0  0  0  0  0  0
   59.3090   29.3413   46.6191 H   0  0  0  0  0  0  0  0  0  0  0  0
   60.2746   29.1749   49.0174 H   0  0  0  0  0  0  0  0  0  0  0  0
   58.1145   28.5504   50.0947 H   0  0  0  0  0  0  0  0  0  0  0  0
  1  2  1  0
  2  3  1  0
  3  4  2  0
  4  5  1  0
  5  6  2  0
  6  7  1  0
  7  8  2  0
  7  9  2  0
  7 10  1  0
 10 11  1  0
 11 12  1  0
 12 13  1  0
 13 14  1  0
 14 15  1  0
 15 16  2  0
 15 17  1  0
 17 18  1  0
 18 19  2  0
 19 20  1  0
 20 21  2  0
 21 22  1  0
 21 23  1  0
 23 24  1  0
 24 25  1  0
 24 26  2  0
 24 27  2  0
 23 28  2  0
  6 29  1  0
 29 30  2  0
 30  3  1  0
 14 10  1  0
 28 18  1  0
  1 31  1  0
  1 32  1  0
  1 33  1  0
  4 34  1  0
  5 35  1  0
 11 36  1  0
 11 37  1  0
 12 38  1  0
 12 39  1  0
 13 40  1  0
 13 41  1  0
 14 42  1  1
 17 43  1  0
 19 44  1  0
 20 45  1  0
 25 46  1  0
 28 47  1  0
 29 48  1  0
 30 49  1  0
M  CHG  1  25  -1
M  END
>  <UniqueID>  (79) 
73

>  <SMILES>  (79) 
COc1ccc(S(=O)(=O)N2CCC[C@H]2C(=O)Nc2ccc(F)c(S([NH-])(=O)=O)c2)cc1

>  <Energy>  (79) 
60.2137651700945

>  <Genealogy>  (79) 
COc1ccc(S(=O)(=O)N2CCCC2C(=O)Nc2ccc(F)c(S([NH-])(=O)=O)c2)cc1 (protonated)
COc1ccc(S(=O)(=O)N2CCC[C@H]2C(=O)Nc2ccc(F)c(S([NH-])(=O)=O)c2)cc1 (chirality)
COc1ccc(S(=O)(=O)N2CCC[C@H]2C(=O)Nc2ccc(F)c(S([NH-])(=O)=O)c2)cc1 (3D coordinates assigned)
COc1ccc(S(=O)(=O)N2CCC[C@H]2C(=O)Nc2ccc(F)c(S([NH-])(=O)=O)c2)cc1 (nonaromatic ring conformer: 60.2137651700945 kcal/mol)

>  <smiles>  (79) 
COc1ccc(S(=O)(=O)N2CCCC2C(=O)Nc2ccc(F)c(S(N)(=O)=O)c2)cc1

>  <score_type>  (79) 
oracle

>  <origin>  (79) 
adg

>  <m_score__min__energy>  (79) 
-11.359999999999999

>  <m_primary>  (79) 
energy

$$$$
79:0
     RDKit          3D

 60 63  0  0  0  0  0  0  0  0999 V2000
   55.3690   26.7050   46.0050 N   0  0  0  0  0  0  0  0  0  0  0  0
   57.0100   27.0830   45.6210 S   0  0  0  0  0  0  0  0  0  0  0  0
   57.8360   27.0800   46.8730 O   0  0  0  0  0  0  0  0  0  0  0  0
   57.5330   26.0380   44.6760 O   0  0  0  0  0  0  0  0  0  0  0  0
   57.0990   28.6680   44.8660 C   0  0  0  0  0  0  0  0  0  0  0  0
   56.9610   28.7930   43.4760 C   0  0  0  0  0  0  0  0  0  0  0  0
   57.0100   30.0540   42.8760 C   0  0  0  0  0  0  0  0  0  0  0  0
   57.1990   31.1950   43.6570 C   0  0  0  0  0  0  0  0  0  0  0  0
   57.3640   31.0780   45.0440 C   0  0  0  0  0  0  0  0  0  0  0  0
   57.5750   32.2590   45.8220 N   0  0  0  0  0  0  0  0  0  0  0  0
   58.5240   33.2960   45.5360 C   0  0  0  0  0  0  0  0  0  0  0  0
   58.3760   33.9710   44.4860 O   0  0  0  0  0  0  0  0  0  0  0  0
   59.7230   33.5860   46.4140 C   0  0  0  0  0  0  0  0  0  0  0  0
   59.8000   32.7060   47.6100 N   0  0  0  0  0  0  0  0  0  0  0  0
   59.6490   33.2630   48.8620 C   0  0  0  0  0  0  0  0  0  0  0  0
   59.5900   34.5200   48.9880 O   0  0  0  0  0  0  0  0  0  0  0  0
   59.5520   32.4740   49.9810 N   0  0  0  0  0  0  0  0  0  0  0  0
   59.3910   33.0970   51.3130 C   0  0  0  0  0  0  0  0  0  0  0  0
   60.7020   33.7750   51.7370 C   0  0  0  0  0  0  0  0  0  0  0  0
   61.9470   32.8760   51.5830 C   0  0  0  0  0  0  0  0  0  0  0  0
   63.0140   33.4220   50.7170 N   0  0  0  0  0  0  0  0  0  0  0  0
   64.0050   32.4500   50.2140 C   0  0  0  0  0  0  0  0  0  0  0  0
   63.7330   32.0080   48.7570 C   0  0  0  0  0  0  0  0  0  0  0  0
   62.7050   32.7420   48.1250 O   0  0  0  0  0  0  0  0  0  0  0  0
   62.9210   34.1190   48.3200 C   0  0  0  0  0  0  0  0  0  0  0  0
   62.6120   34.4890   49.7760 C   0  0  0  0  0  0  0  0  0  0  0  0
   59.6710   31.1150   49.8780 C   0  0  0  0  0  0  0  0  0  0  0  0
   59.5750   30.3920   50.9100 O   0  0  0  0  0  0  0  0  0  0  0  0
   59.9230   30.5210   48.6350 C   0  0  0  0  0  0  0  0  0  0  0  0
   60.0870   29.1260   48.5150 C   0  0  0  0  0  0  0  0  0  0  0  0
   60.3730   28.5510   47.2780 C   0  0  0  0  0  0  0  0  0  0  0  0
   60.5090   29.3560   46.1510 C   0  0  0  0  0  0  0  0  0  0  0  0
   60.3420   30.7380   46.2520 C   0  0  0  0  0  0  0  0  0  0  0  0
   60.0200   31.3470   47.4920 C   0  0  0  0  0  0  0  0  0  0  0  0
   57.2890   29.8150   45.6490 C   0  0  0  0  0  0  0  0  0  0  0  0
   54.8340   26.7000   45.1050 H   0  0  0  0  0  0  0  0  0  0  0  0
   56.8138   27.8960   42.8565 H   0  0  0  0  0  0  0  0  0  0  0  0
   56.8993   30.1475   41.7856 H   0  0  0  0  0  0  0  0  0  0  0  0
   57.2185   32.1876   43.1834 H   0  0  0  0  0  0  0  0  0  0  0  0
   60.6359   33.4448   45.8168 H   0  0  0  0  0  0  0  0  0  0  0  0
   59.6211   34.6200   46.7751 H   0  0  0  0  0  0  0  0  0  0  0  0
   58.5895   33.8491   51.2690 H   0  0  0  0  0  0  0  0  0  0  0  0
   59.1326   32.3193   52.0468 H   0  0  0  0  0  0  0  0  0  0  0  0
   60.8440   34.6730   51.1177 H   0  0  0  0  0  0  0  0  0  0  0  0
   60.6085   34.0117   52.8071 H   0  0  0  0  0  0  0  0  0  0  0  0
   62.3725   32.7095   52.5836 H   0  0  0  0  0  0  0  0  0  0  0  0
   61.5993   31.9537   51.0947 H   0  0  0  0  0  0  0  0  0  0  0  0
   65.0026   32.9111   50.2599 H   0  0  0  0  0  0  0  0  0  0  0  0
   63.9372   31.5534   50.8477 H   0  0  0  0  0  0  0  0  0  0  0  0
   64.6586   32.1357   48.1765 H   0  0  0  0  0  0  0  0  0  0  0  0
   63.4035   30.9592   48.7947 H   0  0  0  0  0  0  0  0  0  0  0  0
   63.9707   34.3599   48.0963 H   0  0  0  0  0  0  0  0  0  0  0  0
   62.2606   34.6900   47.6508 H   0  0  0  0  0  0  0  0  0  0  0  0
   63.1557   35.4106   50.0311 H   0  0  0  0  0  0  0  0  0  0  0  0
   61.5248   34.6296   49.8669 H   0  0  0  0  0  0  0  0  0  0  0  0
   59.9885   28.4864   49.4045 H   0  0  0  0  0  0  0  0  0  0  0  0
   60.4912   27.4607   47.1925 H   0  0  0  0  0  0  0  0  0  0  0  0
   60.7487   28.9020   45.1782 H   0  0  0  0  0  0  0  0  0  0  0  0
   60.4620   31.3647   45.3560 H   0  0  0  0  0  0  0  0  0  0  0  0
   57.3796   29.7242   46.7415 H   0  0  0  0  0  0  0  0  0  0  0  0
  1  2  1  0
  2  3  2  0
  2  4  2  0
  2  5  1  0
  5  6  2  0
  6  7  1  0
  7  8  2  0
  8  9  1  0
  9 10  1  0
 10 11  1  0
 11 12  2  0
 11 13  1  0
 13 14  1  0
 14 15  1  0
 15 16  2  0
 15 17  1  0
 17 18  1  0
 18 19  1  0
 19 20  1  0
 20 21  1  0
 21 22  1  0
 22 23  1  0
 23 24  1  0
 24 25  1  0
 25 26  1  0
 17 27  1  0
 27 28  2  0
 27 29  1  0
 29 30  2  0
 30 31  1  0
 31 32  2  0
 32 33  1  0
 33 34  2  0
  9 35  2  0
 35  5  1  0
 34 14  1  0
 26 21  1  0
 34 29  1  0
  1 36  1  0
  6 37  1  0
  7 38  1  0
  8 39  1  0
 13 40  1  0
 13 41  1  0
 18 42  1  0
 18 43  1  0
 19 44  1  0
 19 45  1  0
 20 46  1  0
 20 47  1  0
 22 48  1  0
 22 49  1  0
 23 50  1  0
 23 51  1  0
 25 52  1  0
 25 53  1  0
 26 54  1  0
 26 55  1  0
 30 56  1  0
 31 57  1  0
 32 58  1  0
 33 59  1  0
 35 60  1  0
M  CHG  2   1  -1  10  -1
M  END
>  <UniqueID>  (80) 
74

>  <SMILES>  (80) 
[NH-]S(=O)(=O)c1cccc([N-]C(=O)Cn2c(=O)n(CCCN3CCOCC3)c(=O)c3ccccc32)c1

>  <Energy>  (80) 
94.74904381122171

>  <Genealogy>  (80) 
[NH-]S(=O)(=O)c1cccc([N-]C(=O)Cn2c(=O)n(CCCN3CCOCC3)c(=O)c3ccccc32)c1 (protonated)
[NH-]S(=O)(=O)c1cccc([N-]C(=O)Cn2c(=O)n(CCCN3CCOCC3)c(=O)c3ccccc32)c1 (3D coordinates assigned)
[NH-]S(=O)(=O)c1cccc([N-]C(=O)Cn2c(=O)n(CCCN3CCOCC3)c(=O)c3ccccc32)c1 (nonaromatic ring conformer: 94.74904381122171 kcal/mol)

>  <smiles>  (80) 
NS(=O)(=O)c1cccc(NC(=O)Cn2c(=O)n(CCCN3CCOCC3)c(=O)c3ccccc32)c1

>  <score_type>  (80) 
oracle

>  <origin>  (80) 
adg

>  <m_score__min__energy>  (80) 
-13.16

>  <m_primary>  (80) 
energy

$$$$
80:0
     RDKit          3D

 43 45  0  0  0  0  0  0  0  0999 V2000
   60.7590   26.7670   48.0300 C   0  0  0  0  0  0  0  0  0  0  0  0
   59.7320   27.7660   47.7620 N   0  0  0  0  0  0  0  0  0  0  0  0
   58.9300   27.7220   46.5750 C   0  0  0  0  0  0  0  0  0  0  0  0
   59.0760   26.7820   45.7450 O   0  0  0  0  0  0  0  0  0  0  0  0
   57.8780   28.7710   46.3350 C   0  0  2  0  0  0  0  0  0  0  0  0
   56.8500   28.3070   45.2780 C   0  0  0  0  0  0  0  0  0  0  0  0
   56.7030   29.6340   44.1200 S   0  0  0  0  0  0  0  0  0  0  0  0
   55.5400   30.5210   44.4670 O   0  0  0  0  0  0  0  0  0  0  0  0
   56.6130   29.1440   42.7030 O   0  0  0  0  0  0  0  0  0  0  0  0
   58.2680   30.3770   44.4800 C   0  0  1  0  0  0  0  0  0  0  0  0
   58.3990   31.8990   44.1710 C   0  0  1  0  0  0  0  0  0  0  0  0
   57.7220   32.3220   42.8600 C   0  0  0  0  0  0  0  0  0  0  0  0
   57.9470   32.7760   45.3480 C   0  0  0  0  0  0  0  0  0  0  0  0
   58.7780   32.4400   46.5480 C   0  0  0  0  0  0  0  0  0  0  0  0
   59.2500   33.4080   47.2840 N   0  0  0  0  0  0  0  0  0  0  0  0
   60.6140   33.6340   47.6630 C   0  0  0  0  0  0  0  0  0  0  0  0
   61.6370   33.3220   46.7590 C   0  0  0  0  0  0  0  0  0  0  0  0
   62.9770   33.4780   47.1280 C   0  0  0  0  0  0  0  0  0  0  0  0
   63.3020   33.9270   48.4120 C   0  0  0  0  0  0  0  0  0  0  0  0
   62.2870   34.2070   49.3320 C   0  0  0  0  0  0  0  0  0  0  0  0
   60.9460   34.0500   48.9650 C   0  0  0  0  0  0  0  0  0  0  0  0
   58.9300   31.0010   46.8600 C   0  0  0  0  0  0  0  0  0  0  0  0
   59.3180   30.6170   47.9970 O   0  0  0  0  0  0  0  0  0  0  0  0
   58.5020   30.0300   45.8870 N   0  0  0  0  0  0  0  0  0  0  0  0
   60.8807   26.6487   49.1168 H   0  0  0  0  0  0  0  0  0  0  0  0
   60.4594   25.8054   47.5877 H   0  0  0  0  0  0  0  0  0  0  0  0
   61.7119   27.0930   47.5877 H   0  0  0  0  0  0  0  0  0  0  0  0
   59.5810   28.5310   48.4570 H   0  0  0  0  0  0  0  0  0  0  0  0
   57.3524   28.9361   47.2871 H   0  0  0  0  0  0  0  0  0  0  0  0
   57.2064   27.3973   44.7727 H   0  0  0  0  0  0  0  0  0  0  0  0
   55.8805   28.0673   45.7391 H   0  0  0  0  0  0  0  0  0  0  0  0
   59.0450   29.9888   43.8051 H   0  0  0  0  0  0  0  0  0  0  0  0
   59.4759   32.0698   44.0258 H   0  0  0  0  0  0  0  0  0  0  0  0
   56.8091   32.8924   43.0862 H   0  0  0  0  0  0  0  0  0  0  0  0
   58.4118   32.9500   42.2771 H   0  0  0  0  0  0  0  0  0  0  0  0
   57.4600   31.4267   42.2771 H   0  0  0  0  0  0  0  0  0  0  0  0
   58.0809   33.8371   45.0910 H   0  0  0  0  0  0  0  0  0  0  0  0
   56.8848   32.5907   45.5655 H   0  0  0  0  0  0  0  0  0  0  0  0
   61.3855   32.9525   45.7539 H   0  0  0  0  0  0  0  0  0  0  0  0
   63.7758   33.2474   46.4078 H   0  0  0  0  0  0  0  0  0  0  0  0
   64.3558   34.0598   48.6981 H   0  0  0  0  0  0  0  0  0  0  0  0
   62.5429   34.5510   50.3450 H   0  0  0  0  0  0  0  0  0  0  0  0
   60.1496   34.2523   49.6963 H   0  0  0  0  0  0  0  0  0  0  0  0
  1  2  1  0
  2  3  1  0
  3  4  2  0
  3  5  1  0
  5  6  1  0
  6  7  1  0
  7  8  2  0
  7  9  2  0
  7 10  1  0
 10 11  1  0
 11 12  1  0
 11 13  1  0
 13 14  1  0
 14 15  2  3
 15 16  1  0
 16 17  2  0
 17 18  1  0
 18 19  2  0
 19 20  1  0
 20 21  2  0
 14 22  1  0
 22 23  2  0
 22 24  1  0
 24  5  1  0
 24 10  1  0
 21 16  1  0
  1 25  1  0
  1 26  1  0
  1 27  1  0
  2 28  1  0
  5 29  1  1
  6 30  1  0
  6 31  1  0
 10 32  1  6
 11 33  1  6
 12 34  1  0
 12 35  1  0
 12 36  1  0
 13 37  1  0
 13 38  1  0
 17 39  1  0
 18 40  1  0
 19 41  1  0
 20 42  1  0
 21 43  1  0
M  END
>  <UniqueID>  (81) 
75

>  <SMILES>  (81) 
CNC(=O)[C@@H]1CS(=O)(=O)[C@H]2C(C)CC(=Nc3ccccc3)C(=O)N12

>  <Energy>  (81) 
57.23902015099752

>  <Genealogy>  (81) 
CNC(=O)[C@@H]1CS(=O)(=O)[C@H]2C(C)CC(=Nc3ccccc3)C(=O)N12 (chirality)
CNC(=O)[C@@H]1CS(=O)(=O)[C@H]2C(C)CC(=Nc3ccccc3)C(=O)N12 (3D coordinates assigned)
CNC(=O)[C@@H]1CS(=O)(=O)[C@H]2C(C)CC(=Nc3ccccc3)C(=O)N12 (nonaromatic ring conformer: 57.23902015099752 kcal/mol)

>  <smiles>  (81) 
CNC(=O)C1CS(=O)(=O)C2C(C)CC(=Nc3ccccc3)C(=O)N12

>  <score_type>  (81) 
oracle

>  <origin>  (81) 
adg

>  <m_score__min__energy>  (81) 
-8.7699999999999996

>  <m_primary>  (81) 
energy

$$$$
81:0
     RDKit          3D

 40 41  0  0  0  0  0  0  0  0999 V2000
   58.1230   26.9810   43.6980 C   0  0  0  0  0  0  0  0  0  0  0  0
   57.4100   27.6320   44.8790 C   0  0  0  0  0  0  0  0  0  0  0  0
   57.4530   29.1460   44.7720 C   0  0  0  0  0  0  0  0  0  0  0  0
   58.6510   29.8960   44.9180 C   0  0  0  0  0  0  0  0  0  0  0  0
   60.0130   29.2600   45.1130 C   0  0  0  0  0  0  0  0  0  0  0  0
   60.2010   28.8590   46.5580 C   0  0  0  0  0  0  0  0  0  0  0  0
   60.2730   29.8420   47.5630 C   0  0  0  0  0  0  0  0  0  0  0  0
   60.2150   31.1600   47.2470 F   0  0  0  0  0  0  0  0  0  0  0  0
   60.3940   29.4710   48.9060 C   0  0  0  0  0  0  0  0  0  0  0  0
   60.4420   28.1220   49.2600 C   0  0  0  0  0  0  0  0  0  0  0  0
   60.3680   27.1390   48.2730 C   0  0  0  0  0  0  0  0  0  0  0  0
   60.2470   27.4980   46.9270 C   0  0  0  0  0  0  0  0  0  0  0  0
   60.1660   26.5190   45.9910 F   0  0  0  0  0  0  0  0  0  0  0  0
   58.5920   31.2590   44.8700 N   0  0  0  0  0  0  0  0  0  0  0  0
   57.4280   31.9120   44.6290 C   0  0  0  0  0  0  0  0  0  0  0  0
   57.4080   33.7020   44.4990 S   0  0  0  0  0  0  0  0  0  0  0  0
   58.1920   34.0750   46.1210 C   0  0  0  0  0  0  0  0  0  0  0  0
   57.7640   33.0860   47.2110 C   0  0  0  0  0  0  0  0  0  0  0  0
   59.7170   34.1610   46.0110 C   0  0  0  0  0  0  0  0  0  0  0  0
   56.2730   31.2160   44.5050 N   0  0  0  0  0  0  0  0  0  0  0  0
   56.2540   29.8640   44.5830 C   0  0  0  0  0  0  0  0  0  0  0  0
   55.1490   29.2650   44.4830 O   0  0  0  0  0  0  0  0  0  0  0  0
   58.8873   26.2831   44.0705 H   0  0  0  0  0  0  0  0  0  0  0  0
   57.3923   26.4319   43.0859 H   0  0  0  0  0  0  0  0  0  0  0  0
   58.6035   27.7585   43.0859 H   0  0  0  0  0  0  0  0  0  0  0  0
   56.3608   27.3018   44.8924 H   0  0  0  0  0  0  0  0  0  0  0  0
   57.9201   27.3311   45.8060 H   0  0  0  0  0  0  0  0  0  0  0  0
   60.0916   28.3672   44.4752 H   0  0  0  0  0  0  0  0  0  0  0  0
   60.7910   29.9877   44.8388 H   0  0  0  0  0  0  0  0  0  0  0  0
   60.4515   30.2449   49.6856 H   0  0  0  0  0  0  0  0  0  0  0  0
   60.5382   27.8338   50.3172 H   0  0  0  0  0  0  0  0  0  0  0  0
   60.4050   26.0764   48.5549 H   0  0  0  0  0  0  0  0  0  0  0  0
   59.4610   31.8220   44.9980 H   0  0  0  0  0  0  0  0  0  0  0  0
   57.8279   35.0676   46.4248 H   0  0  0  0  0  0  0  0  0  0  0  0
   57.9545   33.5263   48.2009 H   0  0  0  0  0  0  0  0  0  0  0  0
   56.6909   32.8677   47.1072 H   0  0  0  0  0  0  0  0  0  0  0  0
   58.3394   32.1543   47.1072 H   0  0  0  0  0  0  0  0  0  0  0  0
   60.1565   34.1858   47.0191 H   0  0  0  0  0  0  0  0  0  0  0  0
   60.0955   33.2828   45.4675 H   0  0  0  0  0  0  0  0  0  0  0  0
   59.9944   35.0762   45.4675 H   0  0  0  0  0  0  0  0  0  0  0  0
  1  2  1  0
  2  3  1  0
  3  4  2  0
  4  5  1  0
  5  6  1  0
  6  7  2  0
  7  8  1  0
  7  9  1  0
  9 10  2  0
 10 11  1  0
 11 12  2  0
 12 13  1  0
  4 14  1  0
 14 15  1  0
 15 16  1  0
 16 17  1  0
 17 18  1  0
 17 19  1  0
 15 20  2  0
 20 21  1  0
 21 22  2  0
 21  3  1  0
 12  6  1  0
  1 23  1  0
  1 24  1  0
  1 25  1  0
  2 26  1  0
  2 27  1  0
  5 28  1  0
  5 29  1  0
  9 30  1  0
 10 31  1  0
 11 32  1  0
 14 33  1  0
 17 34  1  0
 18 35  1  0
 18 36  1  0
 18 37  1  0
 19 38  1  0
 19 39  1  0
 19 40  1  0
M  END
>  <UniqueID>  (82) 
76

>  <SMILES>  (82) 
CCc1c(Cc2c(F)cccc2F)[nH]c(SC(C)C)nc1=O

>  <Energy>  (82) 
33.884729330800575

>  <Genealogy>  (82) 
CCc1c(Cc2c(F)cccc2F)[nH]c(SC(C)C)nc1=O (3D coordinates assigned)
CCc1c(Cc2c(F)cccc2F)[nH]c(SC(C)C)nc1=O (optimized conformer: 33.884729330800575 kcal/mol)

>  <smiles>  (82) 
CCc1c(Cc2c(F)cccc2F)[nH]c(SC(C)C)nc1=O

>  <score_type>  (82) 
oracle

>  <origin>  (82) 
adg

>  <m_score__min__energy>  (82) 
-7.3799999999999999

>  <m_primary>  (82) 
energy

$$$$
82:0
     RDKit          3D

 54 56  0  0  0  0  0  0  0  0999 V2000
   55.1850   24.9340   45.6230 C   0  0  0  0  0  0  0  0  0  0  0  0
   55.2910   26.3210   45.9220 O   0  0  0  0  0  0  0  0  0  0  0  0
   56.4970   27.0300   46.0370 C   0  0  0  0  0  0  0  0  0  0  0  0
   57.6120   26.4590   46.6830 C   0  0  0  0  0  0  0  0  0  0  0  0
   58.8100   27.1640   46.7940 C   0  0  0  0  0  0  0  0  0  0  0  0
   58.9280   28.4490   46.2550 C   0  0  0  0  0  0  0  0  0  0  0  0
   60.1900   29.2490   46.4750 C   0  0  0  0  0  0  0  0  0  0  0  0
   60.5350   29.3830   47.9700 C   0  0  0  0  0  0  0  0  0  0  0  0
   59.8410   30.5340   48.5780 N   0  0  0  0  0  0  0  0  0  0  0  0
   60.2100   31.7950   48.1970 C   0  0  0  0  0  0  0  0  0  0  0  0
   59.6790   32.9130   48.8330 C   0  0  0  0  0  0  0  0  0  0  0  0
   58.7970   32.7460   49.8960 C   0  0  0  0  0  0  0  0  0  0  0  0
   58.4200   31.4590   50.3080 C   0  0  0  0  0  0  0  0  0  0  0  0
   57.5920   31.2930   51.5350 C   0  0  0  0  0  0  0  0  0  0  0  0
   57.7530   32.0720   52.5130 O   0  0  0  0  0  0  0  0  0  0  0  0
   56.6260   30.2400   51.6260 N   0  0  0  0  0  0  0  0  0  0  0  0
   55.3080   30.3510   52.1780 C   0  0  0  0  0  0  0  0  0  0  0  0
   54.9970   29.8500   53.4530 C   0  0  0  0  0  0  0  0  0  0  0  0
   53.6850   29.9120   53.9270 C   0  0  0  0  0  0  0  0  0  0  0  0
   52.6750   30.4670   53.1390 C   0  0  0  0  0  0  0  0  0  0  0  0
   52.9650   30.9660   51.8540 C   0  0  0  0  0  0  0  0  0  0  0  0
   51.9000   31.5460   50.9910 C   0  0  0  0  0  0  0  0  0  0  0  0
   51.4110   30.8470   49.7560 C   0  0  0  0  0  0  0  0  0  0  0  0
   51.4050   32.6700   51.2760 O   0  0  0  0  0  0  0  0  0  0  0  0
   54.2890   30.8910   51.3830 C   0  0  0  0  0  0  0  0  0  0  0  0
   58.9240   30.3500   49.5860 C   0  0  0  0  0  0  0  0  0  0  0  0
   58.5490   29.1820   49.8840 O   0  0  0  0  0  0  0  0  0  0  0  0
   57.8280   29.0220   45.6030 C   0  0  0  0  0  0  0  0  0  0  0  0
   56.6090   28.3360   45.4950 C   0  0  0  0  0  0  0  0  0  0  0  0
   55.5590   29.0120   44.8490 O   0  0  0  0  0  0  0  0  0  0  0  0
   55.6630   29.8070   43.6740 C   0  0  0  0  0  0  0  0  0  0  0  0
   55.1411   24.3593   46.5599 H   0  0  0  0  0  0  0  0  0  0  0  0
   54.2705   24.7537   45.0390 H   0  0  0  0  0  0  0  0  0  0  0  0
   56.0615   24.6168   45.0390 H   0  0  0  0  0  0  0  0  0  0  0  0
   57.5363   25.4457   47.1044 H   0  0  0  0  0  0  0  0  0  0  0  0
   59.6677   26.7064   47.3088 H   0  0  0  0  0  0  0  0  0  0  0  0
   61.0231   28.7463   45.9620 H   0  0  0  0  0  0  0  0  0  0  0  0
   60.0263   30.2594   46.0722 H   0  0  0  0  0  0  0  0  0  0  0  0
   60.2303   28.4640   48.4921 H   0  0  0  0  0  0  0  0  0  0  0  0
   61.6194   29.5418   48.0637 H   0  0  0  0  0  0  0  0  0  0  0  0
   60.9340   31.9266   47.3794 H   0  0  0  0  0  0  0  0  0  0  0  0
   59.9551   33.9234   48.4971 H   0  0  0  0  0  0  0  0  0  0  0  0
   58.3933   33.6273   50.4159 H   0  0  0  0  0  0  0  0  0  0  0  0
   55.7872   29.4087   54.0782 H   0  0  0  0  0  0  0  0  0  0  0  0
   53.4459   29.5213   54.9271 H   0  0  0  0  0  0  0  0  0  0  0  0
   51.6458   30.5150   53.5242 H   0  0  0  0  0  0  0  0  0  0  0  0
   50.8024   29.9770   50.0437 H   0  0  0  0  0  0  0  0  0  0  0  0
   50.8002   31.5407   49.1596 H   0  0  0  0  0  0  0  0  0  0  0  0
   52.2721   30.5110   49.1596 H   0  0  0  0  0  0  0  0  0  0  0  0
   54.5273   31.2621   50.3753 H   0  0  0  0  0  0  0  0  0  0  0  0
   57.9220   30.0279   45.1680 H   0  0  0  0  0  0  0  0  0  0  0  0
   55.8009   30.8613   43.9557 H   0  0  0  0  0  0  0  0  0  0  0  0
   56.5248   29.4707   43.0789 H   0  0  0  0  0  0  0  0  0  0  0  0
   54.7437   29.7037   43.0789 H   0  0  0  0  0  0  0  0  0  0  0  0
  1  2  1  0
  2  3  1  0
  3  4  2  0
  4  5  1  0
  5  6  2  0
  6  7  1  0
  7  8  1  0
  8  9  1  0
  9 10  1  0
 10 11  2  0
 11 12  1  0
 12 13  2  0
 13 14  1  0
 14 15  2  0
 14 16  1  0
 16 17  1  0
 17 18  2  0
 18 19  1  0
 19 20  2  0
 20 21  1  0
 21 22  1  0
 22 23  1  0
 22 24  2  0
 21 25  2  0
 13 26  1  0
 26 27  2  0
  6 28  1  0
 28 29  2  0
 29 30  1  0
 30 31  1  0
 29  3  1  0
 26  9  1  0
 25 17  1  0
  1 32  1  0
  1 33  1  0
  1 34  1  0
  4 35  1  0
  5 36  1  0
  7 37  1  0
  7 38  1  0
  8 39  1  0
  8 40  1  0
 10 41  1  0
 11 42  1  0
 12 43  1  0
 18 44  1  0
 19 45  1  0
 20 46  1  0
 23 47  1  0
 23 48  1  0
 23 49  1  0
 25 50  1  0
 28 51  1  0
 31 52  1  0
 31 53  1  0
 31 54  1  0
M  CHG  1  16  -1
M  END
>  <UniqueID>  (83) 
77

>  <SMILES>  (83) 
COc1ccc(CCn2cccc(C(=O)[N-]c3cccc(C(C)=O)c3)c2=O)cc1OC

>  <Energy>  (83) 
61.23508752084496

>  <Genealogy>  (83) 
COc1ccc(CCn2cccc(C(=O)[N-]c3cccc(C(C)=O)c3)c2=O)cc1OC (protonated)
COc1ccc(CCn2cccc(C(=O)[N-]c3cccc(C(C)=O)c3)c2=O)cc1OC (3D coordinates assigned)
COc1ccc(CCn2cccc(C(=O)[N-]c3cccc(C(C)=O)c3)c2=O)cc1OC (optimized conformer: 61.23508752084496 kcal/mol)

>  <smiles>  (83) 
COc1ccc(CCn2cccc(C(=O)Nc3cccc(C(C)=O)c3)c2=O)cc1OC

>  <score_type>  (83) 
oracle

>  <origin>  (83) 
adg

>  <m_score__min__energy>  (83) 
-11.01

>  <m_primary>  (83) 
energy

$$$$
83:0
     RDKit          3D

 52 55  0  0  0  0  0  0  0  0999 V2000
   59.3670   35.3000   44.8910 C   0  0  0  0  0  0  0  0  0  0  0  0
   58.6790   34.3320   45.7540 N   0  0  0  0  0  0  0  0  0  0  0  0
   57.5490   33.5670   45.2300 C   0  0  0  0  0  0  0  0  0  0  0  0
   57.8950   32.0820   45.0760 C   0  0  2  0  0  0  0  0  0  0  0  0
   56.9820   31.3180   44.1060 C   0  0  0  0  0  0  0  0  0  0  0  0
   56.5490   30.1060   44.7180 O   0  0  0  0  0  0  0  0  0  0  0  0
   57.3980   29.0410   45.0560 C   0  0  0  0  0  0  0  0  0  0  0  0
   58.1650   28.4560   44.0450 C   0  0  0  0  0  0  0  0  0  0  0  0
   59.0320   27.3980   44.3320 C   0  0  0  0  0  0  0  0  0  0  0  0
   59.1380   26.9000   45.6410 C   0  0  0  0  0  0  0  0  0  0  0  0
   60.0740   25.7870   45.9400 C   0  0  0  0  0  0  0  0  0  0  0  0
   61.2590   26.0510   46.2770 O   0  0  0  0  0  0  0  0  0  0  0  0
   59.6620   24.4140   45.9130 N   0  0  0  0  0  0  0  0  0  0  0  0
   58.4110   23.9140   45.4170 C   0  0  0  0  0  0  0  0  0  0  0  0
   58.3310   22.7070   44.7010 C   0  0  0  0  0  0  0  0  0  0  0  0
   57.0970   22.2460   44.2430 C   0  0  0  0  0  0  0  0  0  0  0  0
   55.9320   22.9720   44.5030 C   0  0  0  0  0  0  0  0  0  0  0  0
   55.9910   24.1720   45.2350 C   0  0  0  0  0  0  0  0  0  0  0  0
   54.7950   24.9250   45.5090 N   0  0  0  0  0  0  0  0  0  0  0  0
   54.8620   26.1050   45.9110 O   0  0  0  0  0  0  0  0  0  0  0  0
   53.5540   24.3520   45.3440 O   0  0  0  0  0  0  0  0  0  0  0  0
   57.2390   24.6280   45.6960 C   0  0  0  0  0  0  0  0  0  0  0  0
   58.3770   27.4970   46.6610 C   0  0  0  0  0  0  0  0  0  0  0  0
   57.5070   28.5520   46.3710 C   0  0  0  0  0  0  0  0  0  0  0  0
   57.9550   31.4250   46.3380 O   0  0  0  0  0  0  0  0  0  0  0  0
   58.8430   31.6400   47.4060 C   0  0  0  0  0  0  0  0  0  0  0  0
   59.1690   30.5360   48.1330 N   0  0  0  0  0  0  0  0  0  0  0  0
   60.0140   30.5690   49.1940 C   0  0  0  0  0  0  0  0  0  0  0  0
   60.5890   31.7700   49.5820 C   0  0  0  0  0  0  0  0  0  0  0  0
   60.2830   32.9290   48.8760 C   0  0  0  0  0  0  0  0  0  0  0  0
   59.4060   32.8990   47.7720 C   0  0  0  0  0  0  0  0  0  0  0  0
   59.0960   34.2060   47.1280 C   0  0  0  0  0  0  0  0  0  0  0  0
   59.2490   35.2540   47.8140 O   0  0  0  0  0  0  0  0  0  0  0  0
   59.8920   36.0387   45.5144 H   0  0  0  0  0  0  0  0  0  0  0  0
   60.0943   34.7730   44.2560 H   0  0  0  0  0  0  0  0  0  0  0  0
   58.6302   35.8136   44.2560 H   0  0  0  0  0  0  0  0  0  0  0  0
   56.6997   33.6656   45.9221 H   0  0  0  0  0  0  0  0  0  0  0  0
   57.2951   33.9656   44.2367 H   0  0  0  0  0  0  0  0  0  0  0  0
   58.8957   32.0690   44.6194 H   0  0  0  0  0  0  0  0  0  0  0  0
   56.1072   31.9379   43.8603 H   0  0  0  0  0  0  0  0  0  0  0  0
   57.5368   31.0864   43.1848 H   0  0  0  0  0  0  0  0  0  0  0  0
   58.0857   28.8315   43.0141 H   0  0  0  0  0  0  0  0  0  0  0  0
   59.6353   26.9524   43.5274 H   0  0  0  0  0  0  0  0  0  0  0  0
   59.2430   22.1252   44.5016 H   0  0  0  0  0  0  0  0  0  0  0  0
   57.0407   21.3061   43.6742 H   0  0  0  0  0  0  0  0  0  0  0  0
   54.9637   22.6035   44.1335 H   0  0  0  0  0  0  0  0  0  0  0  0
   57.2952   25.5567   46.2828 H   0  0  0  0  0  0  0  0  0  0  0  0
   58.4667   27.1314   47.6946 H   0  0  0  0  0  0  0  0  0  0  0  0
   56.9050   29.0019   47.1742 H   0  0  0  0  0  0  0  0  0  0  0  0
   60.2426   29.6450   49.7454 H   0  0  0  0  0  0  0  0  0  0  0  0
   61.2789   31.8057   50.4380 H   0  0  0  0  0  0  0  0  0  0  0  0
   60.7325   33.8846   49.1840 H   0  0  0  0  0  0  0  0  0  0  0  0
  1  2  1  0
  2  3  1  0
  3  4  1  0
  4  5  1  0
  5  6  1  0
  6  7  1  0
  7  8  2  0
  8  9  1  0
  9 10  2  0
 10 11  1  0
 11 12  2  0
 11 13  1  0
 13 14  1  0
 14 15  2  0
 15 16  1  0
 16 17  2  0
 17 18  1  0
 18 19  1  0
 19 20  2  0
 19 21  1  0
 18 22  2  0
 10 23  1  0
 23 24  2  0
  4 25  1  0
 25 26  1  0
 26 27  2  0
 27 28  1  0
 28 29  2  0
 29 30  1  0
 30 31  2  0
 31 32  1  0
 32 33  2  0
 32  2  1  0
 24  7  1  0
 31 26  1  0
 22 14  1  0
  1 34  1  0
  1 35  1  0
  1 36  1  0
  3 37  1  0
  3 38  1  0
  4 39  1  6
  5 40  1  0
  5 41  1  0
  8 42  1  0
  9 43  1  0
 15 44  1  0
 16 45  1  0
 17 46  1  0
 22 47  1  0
 23 48  1  0
 24 49  1  0
 28 50  1  0
 29 51  1  0
 30 52  1  0
M  CHG  3  13  -1  19   1  21  -1
M  END
>  <UniqueID>  (84) 
78

>  <SMILES>  (84) 
CN1C[C@H](COc2ccc(C(=O)[N-]c3cccc([N+](=O)[O-])c3)cc2)Oc2ncccc2C1=O

>  <Energy>  (84) 
74.94825910331795

>  <Genealogy>  (84) 
CN1CC(COc2ccc(C(=O)[N-]c3cccc([N+](=O)[O-])c3)cc2)Oc2ncccc2C1=O (protonated)
CN1C[C@H](COc2ccc(C(=O)[N-]c3cccc([N+](=O)[O-])c3)cc2)Oc2ncccc2C1=O (chirality)
CN1C[C@H](COc2ccc(C(=O)[N-]c3cccc([N+](=O)[O-])c3)cc2)Oc2ncccc2C1=O (3D coordinates assigned)
CN1C[C@H](COc2ccc(C(=O)[N-]c3cccc([N+](=O)[O-])c3)cc2)Oc2ncccc2C1=O (nonaromatic ring conformer: 74.94825910331795 kcal/mol)

>  <smiles>  (84) 
CN1CC(COc2ccc(C(=O)Nc3cccc([N+](=O)[O-])c3)cc2)Oc2ncccc2C1=O

>  <score_type>  (84) 
oracle

>  <origin>  (84) 
adg

>  <m_score__min__energy>  (84) 
-7.4400000000000004

>  <m_primary>  (84) 
energy

$$$$
84:0
     RDKit          3D

 44 46  0  0  0  0  0  0  0  0999 V2000
   64.3610   32.4260   49.4100 C   0  0  0  0  0  0  0  0  0  0  0  0
   62.9060   31.9720   49.4410 C   0  0  0  0  0  0  0  0  0  0  0  0
   62.0600   32.8300   48.5390 C   0  0  0  0  0  0  0  0  0  0  0  0
   60.9210   33.4770   49.0410 C   0  0  0  0  0  0  0  0  0  0  0  0
   60.1540   34.3000   48.2120 C   0  0  0  0  0  0  0  0  0  0  0  0
   60.5240   34.4990   46.8670 C   0  0  0  0  0  0  0  0  0  0  0  0
   59.7930   35.3200   45.9930 O   0  0  0  0  0  0  0  0  0  0  0  0
   58.8780   34.8600   44.9980 C   0  0  0  0  0  0  0  0  0  0  0  0
   58.2590   33.5570   45.4130 C   0  0  0  0  0  0  0  0  0  0  0  0
   57.7330   33.4650   46.5550 O   0  0  0  0  0  0  0  0  0  0  0  0
   58.2860   32.4280   44.5240 N   0  0  0  0  0  0  0  0  0  0  0  0
   57.6560   31.1690   44.8110 C   0  0  0  0  0  0  0  0  0  0  0  0
   56.4180   30.8280   44.2460 C   0  0  0  0  0  0  0  0  0  0  0  0
   55.8330   29.5930   44.5200 C   0  0  0  0  0  0  0  0  0  0  0  0
   56.4800   28.6750   45.3530 C   0  0  0  0  0  0  0  0  0  0  0  0
   55.8910   27.4780   45.6080 N   0  0  0  0  0  0  0  0  0  0  0  0
   56.4710   26.5470   46.4020 C   0  0  0  0  0  0  0  0  0  0  0  0
   55.8860   25.4520   46.6100 O   0  0  0  0  0  0  0  0  0  0  0  0
   57.7120   26.8000   46.9880 C   0  0  0  0  0  0  0  0  0  0  0  0
   58.3700   28.0230   46.7580 C   0  0  0  0  0  0  0  0  0  0  0  0
   59.7190   28.2810   47.4040 C   0  0  0  0  0  0  0  0  0  0  0  0
   60.6470   28.6140   46.4340 F   0  0  0  0  0  0  0  0  0  0  0  0
   59.6640   29.3200   48.3190 F   0  0  0  0  0  0  0  0  0  0  0  0
   60.1410   27.1460   48.0740 F   0  0  0  0  0  0  0  0  0  0  0  0
   57.7400   28.9860   45.9210 C   0  0  0  0  0  0  0  0  0  0  0  0
   58.3200   30.2410   45.6290 C   0  0  0  0  0  0  0  0  0  0  0  0
   61.6660   33.8570   46.3730 C   0  0  0  0  0  0  0  0  0  0  0  0
   62.4320   33.0340   47.2020 C   0  0  0  0  0  0  0  0  0  0  0  0
   64.7311   32.5415   50.4394 H   0  0  0  0  0  0  0  0  0  0  0  0
   64.9684   31.6747   48.8841 H   0  0  0  0  0  0  0  0  0  0  0  0
   64.4334   33.3894   48.8841 H   0  0  0  0  0  0  0  0  0  0  0  0
   62.8470   30.9266   49.1040 H   0  0  0  0  0  0  0  0  0  0  0  0
   62.5295   32.0638   50.4705 H   0  0  0  0  0  0  0  0  0  0  0  0
   60.6302   33.3358   50.0924 H   0  0  0  0  0  0  0  0  0  0  0  0
   59.2566   34.7951   48.6115 H   0  0  0  0  0  0  0  0  0  0  0  0
   58.0849   35.6100   44.8615 H   0  0  0  0  0  0  0  0  0  0  0  0
   59.4247   34.7092   44.0554 H   0  0  0  0  0  0  0  0  0  0  0  0
   58.8950   32.4850   43.6770 H   0  0  0  0  0  0  0  0  0  0  0  0
   55.9056   31.5401   43.5823 H   0  0  0  0  0  0  0  0  0  0  0  0
   54.8578   29.3393   44.0789 H   0  0  0  0  0  0  0  0  0  0  0  0
   58.1782   26.0403   47.6326 H   0  0  0  0  0  0  0  0  0  0  0  0
   59.3049   30.4943   46.0482 H   0  0  0  0  0  0  0  0  0  0  0  0
   61.9624   34.0019   45.3236 H   0  0  0  0  0  0  0  0  0  0  0  0
   63.3323   32.5430   46.8040 H   0  0  0  0  0  0  0  0  0  0  0  0
  1  2  1  0
  2  3  1  0
  3  4  2  0
  4  5  1  0
  5  6  2  0
  6  7  1  0
  7  8  1  0
  8  9  1  0
  9 10  2  0
  9 11  1  0
 11 12  1  0
 12 13  2  0
 13 14  1  0
 14 15  2  0
 15 16  1  0
 16 17  1  0
 17 18  2  0
 17 19  1  0
 19 20  2  0
 20 21  1  0
 21 22  1  0
 21 23  1  0
 21 24  1  0
 20 25  1  0
 25 26  2  0
  6 27  1  0
 27 28  2  0
 28  3  1  0
 26 12  1  0
 25 15  1  0
  1 29  1  0
  1 30  1  0
  1 31  1  0
  2 32  1  0
  2 33  1  0
  4 34  1  0
  5 35  1  0
  8 36  1  0
  8 37  1  0
 11 38  1  0
 13 39  1  0
 14 40  1  0
 19 41  1  0
 26 42  1  0
 27 43  1  0
 28 44  1  0
M  CHG  1  16  -1
M  END
>  <UniqueID>  (85) 
79

>  <SMILES>  (85) 
CCc1ccc(OCC(=O)Nc2ccc3[n-]c(=O)cc(C(F)(F)F)c3c2)cc1

>  <Energy>  (85) 
52.75521922439064

>  <Genealogy>  (85) 
CCc1ccc(OCC(=O)Nc2ccc3[n-]c(=O)cc(C(F)(F)F)c3c2)cc1 (protonated)
CCc1ccc(OCC(=O)Nc2ccc3[n-]c(=O)cc(C(F)(F)F)c3c2)cc1 (3D coordinates assigned)
CCc1ccc(OCC(=O)Nc2ccc3[n-]c(=O)cc(C(F)(F)F)c3c2)cc1 (optimized conformer: 52.75521922439064 kcal/mol)

>  <smiles>  (85) 
CCc1ccc(OCC(=O)Nc2ccc3[nH]c(=O)cc(C(F)(F)F)c3c2)cc1

>  <score_type>  (85) 
oracle

>  <origin>  (85) 
adg

>  <m_score__min__energy>  (85) 
-9.9700000000000006

>  <m_primary>  (85) 
energy

$$$$
85:0
     RDKit          3D

 40 43  0  0  0  0  0  0  0  0999 V2000
   57.8500   29.3630   51.2610 O   0  0  0  0  0  0  0  0  0  0  0  0
   57.2950   30.4930   51.3580 C   0  0  0  0  0  0  0  0  0  0  0  0
   55.9340   30.5800   51.6820 O   0  0  0  0  0  0  0  0  0  0  0  0
   55.3200   29.8260   52.6910 C   0  0  0  0  0  0  0  0  0  0  0  0
   53.9990   29.5370   52.6850 C   0  0  0  0  0  0  0  0  0  0  0  0
   53.0370   30.2560   51.8150 C   0  0  0  0  0  0  0  0  0  0  0  0
   52.5180   31.4950   52.2290 C   0  0  0  0  0  0  0  0  0  0  0  0
   51.6120   32.1870   51.4200 C   0  0  0  0  0  0  0  0  0  0  0  0
   51.2250   31.6560   50.1860 C   0  0  0  0  0  0  0  0  0  0  0  0
   50.3210   32.3440   49.3860 O   0  0  0  0  0  0  0  0  0  0  0  0
   51.7520   30.4350   49.7560 C   0  0  0  0  0  0  0  0  0  0  0  0
   52.6600   29.7410   50.5600 C   0  0  0  0  0  0  0  0  0  0  0  0
   53.4990   28.4900   53.4790 O   0  0  0  0  0  0  0  0  0  0  0  0
   54.3070   27.4540   53.9640 C   0  0  0  0  0  0  0  0  0  0  0  0
   53.7480   26.1970   54.2160 C   0  0  0  0  0  0  0  0  0  0  0  0
   54.5690   25.1200   54.5690 C   0  0  0  0  0  0  0  0  0  0  0  0
   54.0020   23.8690   54.8000 O   0  0  0  0  0  0  0  0  0  0  0  0
   55.9550   25.3080   54.6810 C   0  0  0  0  0  0  0  0  0  0  0  0
   56.5120   26.5730   54.4650 C   0  0  0  0  0  0  0  0  0  0  0  0
   55.6840   27.6490   54.1290 C   0  0  0  0  0  0  0  0  0  0  0  0
   56.3350   29.3150   54.0800 S   0  0  0  0  0  0  0  0  0  0  0  0
   58.0800   31.7260   51.1400 C   0  0  0  0  0  0  0  0  0  0  0  0
   58.3460   32.5950   52.2130 C   0  0  0  0  0  0  0  0  0  0  0  0
   59.0770   33.7690   52.0080 C   0  0  0  0  0  0  0  0  0  0  0  0
   59.5460   34.0890   50.7330 C   0  0  0  0  0  0  0  0  0  0  0  0
   59.2870   33.2350   49.6570 C   0  0  0  0  0  0  0  0  0  0  0  0
   59.8730   33.6400   48.0540 Cl  0  0  0  0  0  0  0  0  0  0  0  0
   58.5560   32.0580   49.8570 C   0  0  0  0  0  0  0  0  0  0  0  0
   52.8264   31.9223   53.1946 H   0  0  0  0  0  0  0  0  0  0  0  0
   51.2027   33.1515   51.7551 H   0  0  0  0  0  0  0  0  0  0  0  0
   51.4514   30.0196   48.7828 H   0  0  0  0  0  0  0  0  0  0  0  0
   53.0825   28.7873   50.2106 H   0  0  0  0  0  0  0  0  0  0  0  0
   52.6602   26.0545   54.1365 H   0  0  0  0  0  0  0  0  0  0  0  0
   53.2740   23.7370   55.4920 H   0  0  0  0  0  0  0  0  0  0  0  0
   56.6049   24.4589   54.9392 H   0  0  0  0  0  0  0  0  0  0  0  0
   57.5979   26.7210   54.5591 H   0  0  0  0  0  0  0  0  0  0  0  0
   57.9767   32.3496   53.2197 H   0  0  0  0  0  0  0  0  0  0  0  0
   59.2830   34.4419   52.8534 H   0  0  0  0  0  0  0  0  0  0  0  0
   60.1199   35.0140   50.5747 H   0  0  0  0  0  0  0  0  0  0  0  0
   58.3524   31.3892   49.0077 H   0  0  0  0  0  0  0  0  0  0  0  0
  1  2  2  0
  2  3  1  0
  3  4  1  0
  4  5  2  0
  5  6  1  0
  6  7  2  0
  7  8  1  0
  8  9  2  0
  9 10  1  0
  9 11  1  0
 11 12  2  0
  5 13  1  0
 13 14  1  0
 14 15  2  0
 15 16  1  0
 16 17  1  0
 16 18  2  0
 18 19  1  0
 19 20  2  0
 20 21  1  0
  2 22  1  0
 22 23  2  0
 23 24  1  0
 24 25  2  0
 25 26  1  0
 26 27  1  0
 26 28  2  0
 21  4  1  0
 28 22  1  0
 12  6  1  0
 20 14  1  0
  7 29  1  0
  8 30  1  0
 11 31  1  0
 12 32  1  0
 15 33  1  0
 17 34  1  0
 18 35  1  0
 19 36  1  0
 23 37  1  0
 24 38  1  0
 25 39  1  0
 28 40  1  0
M  CHG  1  10  -1
M  END
>  <UniqueID>  (86) 
80

>  <SMILES>  (86) 
O=C(OC1=C(c2ccc([O-])cc2)Oc2cc(O)ccc2S1)c1cccc(Cl)c1

>  <Energy>  (86) 
70.38078640609315

>  <Genealogy>  (86) 
O=C(OC1=C(c2ccc([O-])cc2)Oc2cc(O)ccc2S1)c1cccc(Cl)c1 (protonated)
O=C(OC1=C(c2ccc([O-])cc2)Oc2cc(O)ccc2S1)c1cccc(Cl)c1 (3D coordinates assigned)
O=C(OC1=C(c2ccc([O-])cc2)Oc2cc(O)ccc2S1)c1cccc(Cl)c1 (nonaromatic ring conformer: 70.38078640609315 kcal/mol)

>  <smiles>  (86) 
O=C(OC1=C(c2ccc(O)cc2)Oc2cc(O)ccc2S1)c1cccc(Cl)c1

>  <score_type>  (86) 
oracle

>  <origin>  (86) 
adg

>  <m_score__min__energy>  (86) 
-11.32

>  <m_primary>  (86) 
energy

$$$$
86:0
     RDKit          3D

 45 47  0  0  0  0  0  0  0  0999 V2000
   58.4361   35.1260   47.1129 H   0  0  0  0  0  0  0  0  0  0  0  0
   58.3470   34.2550   46.4470 C   0  0  0  0  0  0  0  0  0  0  0  0
   57.4910   34.3020   45.3480 C   0  0  0  0  0  0  0  0  0  0  0  0
   56.8915   35.2043   45.1573 H   0  0  0  0  0  0  0  0  0  0  0  0
   57.3930   33.2050   44.4880 C   0  0  0  0  0  0  0  0  0  0  0  0
   56.7376   33.2597   43.6063 H   0  0  0  0  0  0  0  0  0  0  0  0
   58.1260   32.0310   44.7410 C   0  0  0  0  0  0  0  0  0  0  0  0
   58.0910   30.9180   43.7180 C   0  0  0  0  0  0  0  0  0  0  0  0
   58.5675   30.0226   44.1436 H   0  0  0  0  0  0  0  0  0  0  0  0
   58.6308   31.2500   42.8189 H   0  0  0  0  0  0  0  0  0  0  0  0
   56.6550   30.5820   43.3280 C   0  0  0  0  0  0  0  0  0  0  0  0
   56.0517   30.4408   44.2369 H   0  0  0  0  0  0  0  0  0  0  0  0
   56.2343   31.4060   42.7329 H   0  0  0  0  0  0  0  0  0  0  0  0
   56.6435   29.6569   42.7329 H   0  0  0  0  0  0  0  0  0  0  0  0
   58.9420   31.9630   45.8980 C   0  0  0  0  0  0  0  0  0  0  0  0
   59.8060   30.8460   46.1370 N   0  0  0  0  0  0  0  0  0  0  0  0
   59.8620   29.9920   47.1270 C   0  0  0  0  0  0  0  0  0  0  0  0
   59.3060   28.6710   47.1050 C   0  0  0  0  0  0  0  0  0  0  0  0
   58.0530   28.0940   45.9830 S   0  0  0  0  0  0  0  0  0  0  0  0
   58.6060   27.9490   44.5920 O   0  0  0  0  0  0  0  0  0  0  0  0
   56.9540   29.1150   45.9160 O   0  0  0  0  0  0  0  0  0  0  0  0
   57.3720   26.5680   46.4520 N   0  0  0  0  0  0  0  0  0  0  0  0
   56.2480   26.0010   46.1160 C   0  0  0  0  0  0  0  0  0  0  0  0
   55.1460   26.7010   45.9850 O   0  0  0  0  0  0  0  0  0  0  0  0
   54.1360   25.9480   45.6650 N   0  0  0  0  0  0  0  0  0  0  0  0
   54.5970   24.6870   45.5800 C   0  0  0  0  0  0  0  0  0  0  0  0
   53.7270   23.5140   45.2600 C   0  0  0  0  0  0  0  0  0  0  0  0
   53.3814   23.0480   46.1946 H   0  0  0  0  0  0  0  0  0  0  0  0
   52.8584   23.8505   44.6750 H   0  0  0  0  0  0  0  0  0  0  0  0
   54.3011   22.7804   44.6750 H   0  0  0  0  0  0  0  0  0  0  0  0
   55.9580   24.6610   45.8480 C   0  0  0  0  0  0  0  0  0  0  0  0
   56.7990   23.4240   45.9450 C   0  0  0  0  0  0  0  0  0  0  0  0
   56.9670   23.1769   47.0036 H   0  0  0  0  0  0  0  0  0  0  0  0
   56.2808   22.5887   45.4513 H   0  0  0  0  0  0  0  0  0  0  0  0
   57.7663   23.5986   45.4513 H   0  0  0  0  0  0  0  0  0  0  0  0
   59.6470   27.7960   48.1500 C   0  0  0  0  0  0  0  0  0  0  0  0
   59.3062   26.7507   48.1153 H   0  0  0  0  0  0  0  0  0  0  0  0
   60.4090   28.2330   49.2270 C   0  0  0  0  0  0  0  0  0  0  0  0
   60.6785   27.5379   50.0358 H   0  0  0  0  0  0  0  0  0  0  0  0
   60.8260   29.5550   49.2710 C   0  0  0  0  0  0  0  0  0  0  0  0
   61.3868   29.9246   50.1422 H   0  0  0  0  0  0  0  0  0  0  0  0
   60.5440   30.3940   48.2420 N   0  0  0  0  0  0  0  0  0  0  0  0
   60.9160   31.3700   48.2930 H   0  0  0  0  0  0  0  0  0  0  0  0
   59.0910   33.1020   46.7020 C   0  0  0  0  0  0  0  0  0  0  0  0
   59.8012   33.0867   47.5419 H   0  0  0  0  0  0  0  0  0  0  0  0
  1  2  1  0
  2  3  2  0
  3  4  1  0
  3  5  1  0
  5  6  1  0
  5  7  2  0
  7  8  1  0
  8  9  1  0
  8 10  1  0
  8 11  1  0
 11 12  1  0
 11 13  1  0
 11 14  1  0
  7 15  1  0
 15 16  1  0
 16 17  2  0
 17 18  1  0
 18 19  1  0
 19 20  2  0
 19 21  2  0
 19 22  1  0
 22 23  2  3
 23 24  1  0
 24 25  1  0
 25 26  1  0
 26 27  1  0
 27 28  1  0
 27 29  1  0
 27 30  1  0
 26 31  2  0
 31 32  1  0
 32 33  1  0
 32 34  1  0
 32 35  1  0
 18 36  2  0
 36 37  1  0
 36 38  1  0
 38 39  1  0
 38 40  2  0
 40 41  1  0
 40 42  1  0
 42 43  1  0
 15 44  2  0
 44 45  1  0
 44  2  1  0
 42 17  1  0
 31 23  1  0
M  CHG  1  25  -1
M  END
>  <UniqueID>  (87) 
81

>  <SMILES>  (87) 
CCc1ccccc1/N=c1/[nH]cccc1S(=O)(=O)N=c1o[n-]c(C)c1C

>  <Energy>  (87) 
106.06178237863078

>  <Genealogy>  (87) 
CCc1ccccc1N=c1[nH]cccc1S(=O)(=O)N=c1o[n-]c(C)c1C (protonated)
CCc1ccccc1/N=c1/[nH]cccc1S(=O)(=O)N=c1o[n-]c(C)c1C (cis-trans isomerization)
CCc1ccccc1/N=c1/[nH]cccc1S(=O)(=O)N=c1o[n-]c(C)c1C (3D coordinates assigned)
CCc1ccccc1/N=c1/[nH]cccc1S(=O)(=O)N=c1o[n-]c(C)c1C (optimized conformer: 106.06178237863078 kcal/mol)

>  <smiles>  (87) 
CCc1ccccc1N=c1[nH]cccc1S(=O)(=O)N=c1o[nH]c(C)c1C

>  <score_type>  (87) 
oracle

>  <origin>  (87) 
adg

>  <m_score__min__energy>  (87) 
-11.6

>  <m_primary>  (87) 
energy

$$$$
87:0
     RDKit          3D

 38 41  0  0  0  0  0  0  0  0999 V2000
   60.9230   28.5910   44.5560 C   0  0  0  0  0  0  0  0  0  0  0  0
   60.6200   29.3320   45.8180 C   0  0  0  0  0  0  0  0  0  0  0  0
   61.5240   30.0990   46.4590 N   0  0  0  0  0  0  0  0  0  0  0  0
   60.9340   30.6060   47.5300 N   0  0  0  0  0  0  0  0  0  0  0  0
   61.6070   31.5070   48.4710 C   0  0  0  0  0  0  0  0  0  0  0  0
   60.5830   32.3100   49.3120 C   0  0  0  0  0  0  0  0  0  0  0  0
   60.4840   33.7730   48.8580 C   0  0  0  0  0  0  0  0  0  0  0  0
   61.7830   34.4710   48.9190 N   0  0  0  0  0  0  0  0  0  0  0  0
   62.9570   33.6330   48.5950 C   0  0  0  0  0  0  0  0  0  0  0  0
   62.5990   32.4210   47.7270 C   0  0  0  0  0  0  0  0  0  0  0  0
   59.6560   30.1780   47.5960 C   0  0  0  0  0  0  0  0  0  0  0  0
   59.4190   29.3510   46.5160 C   0  0  0  0  0  0  0  0  0  0  0  0
   58.1590   28.6450   46.2050 C   0  0  0  0  0  0  0  0  0  0  0  0
   57.9180   27.3290   46.6610 C   0  0  0  0  0  0  0  0  0  0  0  0
   56.6920   26.6860   46.3630 C   0  0  0  0  0  0  0  0  0  0  0  0
   56.4820   25.5160   46.7730 O   0  0  0  0  0  0  0  0  0  0  0  0
   55.7310   27.3290   45.6320 N   0  0  0  0  0  0  0  0  0  0  0  0
   55.9700   28.5920   45.2030 C   0  0  0  0  0  0  0  0  0  0  0  0
   55.1480   29.3500   44.4630 N   0  0  0  0  0  0  0  0  0  0  0  0
   55.7810   30.4980   44.2430 N   0  0  0  0  0  0  0  0  0  0  0  0
   56.9950   30.4660   44.8410 C   0  0  0  0  0  0  0  0  0  0  0  0
   57.1320   29.2470   45.4700 C   0  0  0  0  0  0  0  0  0  0  0  0
   61.3288   27.5986   44.8019 H   0  0  0  0  0  0  0  0  0  0  0  0
   60.0003   28.4746   43.9686 H   0  0  0  0  0  0  0  0  0  0  0  0
   61.6629   29.1544   43.9686 H   0  0  0  0  0  0  0  0  0  0  0  0
   62.1878   30.9002   49.1812 H   0  0  0  0  0  0  0  0  0  0  0  0
   59.5939   31.8394   49.2106 H   0  0  0  0  0  0  0  0  0  0  0  0
   60.9232   32.3021   50.3580 H   0  0  0  0  0  0  0  0  0  0  0  0
   60.1187   33.7969   47.8207 H   0  0  0  0  0  0  0  0  0  0  0  0
   59.7936   34.2897   49.5409 H   0  0  0  0  0  0  0  0  0  0  0  0
   61.9100   34.8510   49.8860 H   0  0  0  0  0  0  0  0  0  0  0  0
   63.6901   34.2490   48.0536 H   0  0  0  0  0  0  0  0  0  0  0  0
   63.3651   33.2530   49.5432 H   0  0  0  0  0  0  0  0  0  0  0  0
   62.1399   32.7685   46.7897 H   0  0  0  0  0  0  0  0  0  0  0  0
   63.5154   31.8530   47.5088 H   0  0  0  0  0  0  0  0  0  0  0  0
   58.9276   30.4427   48.3766 H   0  0  0  0  0  0  0  0  0  0  0  0
   58.6847   26.8030   47.2488 H   0  0  0  0  0  0  0  0  0  0  0  0
   57.7426   31.2728   44.8274 H   0  0  0  0  0  0  0  0  0  0  0  0
  1  2  1  0
  2  3  2  0
  3  4  1  0
  4  5  1  0
  5  6  1  0
  6  7  1  0
  7  8  1  0
  8  9  1  0
  9 10  1  0
  4 11  1  0
 11 12  2  0
 12 13  1  0
 13 14  2  0
 14 15  1  0
 15 16  2  0
 15 17  1  0
 17 18  1  0
 18 19  1  0
 19 20  1  0
 20 21  2  0
 21 22  1  0
 12  2  1  0
 22 13  1  0
 10  5  1  0
 22 18  2  0
  1 23  1  0
  1 24  1  0
  1 25  1  0
  5 26  1  0
  6 27  1  0
  6 28  1  0
  7 29  1  0
  7 30  1  0
  8 31  1  0
  9 32  1  0
  9 33  1  0
 10 34  1  0
 10 35  1  0
 11 36  1  0
 14 37  1  0
 21 38  1  0
M  CHG  2  17  -1  19  -1
M  END
>  <UniqueID>  (88) 
82

>  <SMILES>  (88) 
Cc1nn(C2CCNCC2)cc1-c1cc(=O)[n-]c2[n-]ncc12

>  <Energy>  (88) 
120.20596097225774

>  <Genealogy>  (88) 
Cc1nn(C2CCNCC2)cc1-c1cc(=O)[n-]c2[n-]ncc12 (protonated)
Cc1nn(C2CCNCC2)cc1-c1cc(=O)[n-]c2[n-]ncc12 (3D coordinates assigned)
Cc1nn(C2CCNCC2)cc1-c1cc(=O)[n-]c2[n-]ncc12 (nonaromatic ring conformer: 120.20596097225774 kcal/mol)

>  <smiles>  (88) 
Cc1nn(C2CCNCC2)cc1-c1cc(=O)[nH]c2[nH]ncc12

>  <score_type>  (88) 
oracle

>  <origin>  (88) 
adg

>  <m_score__min__energy>  (88) 
-11.73

>  <m_primary>  (88) 
energy

$$$$
88:0
     RDKit          3D

 37 39  0  0  1  0  0  0  0  0999 V2000
   56.3800   24.0200   46.9550 C   0  0  0  0  0  0  0  0  0  0  0  0
   57.0810   25.2280   46.6810 O   0  0  0  0  0  0  0  0  0  0  0  0
   56.4330   26.3050   46.0470 C   0  0  0  0  0  0  0  0  0  0  0  0
   55.1780   26.3320   45.9700 O   0  0  0  0  0  0  0  0  0  0  0  0
   57.2850   27.3640   45.4980 C   0  0  0  0  0  0  0  0  0  0  0  0
   58.5280   27.0960   44.9430 C   0  0  0  0  0  0  0  0  0  0  0  0
   59.2720   28.1490   44.4460 C   0  0  0  0  0  0  0  0  0  0  0  0
   58.8190   29.4620   44.4820 C   0  0  0  0  0  0  0  0  0  0  0  0
   57.5820   29.7300   45.0330 C   0  0  0  0  0  0  0  0  0  0  0  0
   57.0370   31.0430   45.1120 N   0  0  0  0  0  0  0  0  0  0  0  0
   57.7700   32.0790   45.3080 C   0  0  0  0  0  0  0  0  0  0  0  0
   59.0010   31.9600   45.8860 N   0  0  0  0  0  0  0  0  0  0  0  0
   59.7490   33.0600   46.0800 C   0  0  0  0  0  0  0  0  0  0  0  0
   61.0550   32.8880   46.6990 C   0  0  0  0  0  0  0  0  0  0  0  0
   61.3310   31.6700   47.2850 C   0  0  0  0  0  0  0  0  0  0  0  0
   62.5720   31.4560   47.8930 C   0  0  0  0  0  0  0  0  0  0  0  0
   63.5020   32.5000   47.8830 C   0  0  0  0  0  0  0  0  0  0  0  0
   63.2260   33.6890   47.3070 N   0  0  0  0  0  0  0  0  0  0  0  0
   62.0230   33.8670   46.7310 C   0  0  0  0  0  0  0  0  0  0  0  0
   59.2440   34.2800   45.6860 C   0  0  0  0  0  0  0  0  0  0  0  0
   57.9980   34.3910   45.1030 C   0  0  0  0  0  0  0  0  0  0  0  0
   57.2760   33.2690   44.9240 N   0  0  0  0  0  0  0  0  0  0  0  0
   56.8430   28.6690   45.5300 C   0  0  0  0  0  0  0  0  0  0  0  0
   56.2996   23.8815   48.0433 H   0  0  0  0  0  0  0  0  0  0  0  0
   55.3725   24.0732   46.5167 H   0  0  0  0  0  0  0  0  0  0  0  0
   56.9261   23.1717   46.5167 H   0  0  0  0  0  0  0  0  0  0  0  0
   58.9133   26.0666   44.8995 H   0  0  0  0  0  0  0  0  0  0  0  0
   60.2583   27.9403   44.0060 H   0  0  0  0  0  0  0  0  0  0  0  0
   59.4374   30.2766   44.0771 H   0  0  0  0  0  0  0  0  0  0  0  0
   60.5769   30.8693   47.2740 H   0  0  0  0  0  0  0  0  0  0  0  0
   62.8102   30.4921   48.3665 H   0  0  0  0  0  0  0  0  0  0  0  0
   64.4833   32.3485   48.3565 H   0  0  0  0  0  0  0  0  0  0  0  0
   61.8028   34.8386   46.2645 H   0  0  0  0  0  0  0  0  0  0  0  0
   59.8479   35.1864   45.8397 H   0  0  0  0  0  0  0  0  0  0  0  0
   57.6052   35.3705   44.7928 H   0  0  0  0  0  0  0  0  0  0  0  0
   56.3290   33.3420   44.4810 H   0  0  0  0  0  0  0  0  0  0  0  0
   55.8571   28.8779   45.9709 H   0  0  0  0  0  0  0  0  0  0  0  0
  1  2  1  0
  2  3  1  0
  3  4  2  0
  3  5  1  0
  5  6  2  0
  6  7  1  0
  7  8  2  0
  8  9  1  0
  9 10  1  0
 10 11  2  0
 11 12  1  0
 12 13  2  0
 13 14  1  0
 14 15  2  0
 15 16  1  0
 16 17  2  0
 17 18  1  0
 18 19  2  0
 13 20  1  0
 20 21  2  0
 21 22  1  0
  9 23  2  0
 23  5  1  0
 22 11  1  0
 19 14  1  0
  1 24  1  0
  1 25  1  0
  1 26  1  0
  6 27  1  0
  7 28  1  0
  8 29  1  0
 15 30  1  0
 16 31  1  0
 17 32  1  0
 19 33  1  0
 20 34  1  0
 21 35  1  0
 22 36  1  0
 23 37  1  0
M  END
>  <smiles>  (89) 
COC(=O)c1cccc(N=c2nc(-c3cccnc3)cc[nH]2)c1

>  <score_type>  (89) 
oracle

>  <origin>  (89) 
adg

>  <m_score__min__energy>  (89) 
-8.0800000000000001

>  <m_primary>  (89) 
energy

$$$$
89:0
     RDKit          3D

 34 36  0  0  0  0  0  0  0  0999 V2000
   54.8090   29.3320   44.5070 O   0  0  0  0  0  0  0  0  0  0  0  0
   55.9230   29.7160   44.0650 C   0  0  0  0  0  0  0  0  0  0  0  0
   56.0140   30.1720   42.7550 O   0  0  0  0  0  0  0  0  0  0  0  0
   57.1070   29.7420   44.9510 C   0  0  0  0  0  0  0  0  0  0  0  0
   57.9590   30.8750   45.0360 C   0  0  0  0  0  0  0  0  0  0  0  0
   57.8250   32.0660   44.1130 C   0  0  0  0  0  0  0  0  0  0  0  0
   57.0260   33.4670   44.9770 S   0  0  0  0  0  0  0  0  0  0  0  0
   58.3840   33.7390   46.1200 C   0  0  0  0  0  0  0  0  0  0  0  0
   58.2190   33.4620   47.4840 C   0  0  0  0  0  0  0  0  0  0  0  0
   59.2810   33.6580   48.3720 C   0  0  0  0  0  0  0  0  0  0  0  0
   60.5060   34.1430   47.9020 C   0  0  0  0  0  0  0  0  0  0  0  0
   60.6690   34.4320   46.5430 C   0  0  0  0  0  0  0  0  0  0  0  0
   59.6080   34.2330   45.6530 C   0  0  0  0  0  0  0  0  0  0  0  0
   59.0120   30.8620   45.9070 N   0  0  0  0  0  0  0  0  0  0  0  0
   59.2990   29.7850   46.6880 C   0  0  0  0  0  0  0  0  0  0  0  0
   60.4010   29.8160   47.5590 C   0  0  0  0  0  0  0  0  0  0  0  0
   60.7040   28.7080   48.3530 C   0  0  0  0  0  0  0  0  0  0  0  0
   59.9130   27.5600   48.2850 C   0  0  0  0  0  0  0  0  0  0  0  0
   58.8150   27.5150   47.4230 C   0  0  0  0  0  0  0  0  0  0  0  0
   58.4970   28.6260   46.6160 C   0  0  0  0  0  0  0  0  0  0  0  0
   57.3970   28.6130   45.7430 C   0  0  0  0  0  0  0  0  0  0  0  0
   56.6560   27.5910   45.6770 O   0  0  0  0  0  0  0  0  0  0  0  0
   58.8249   32.3740   43.7735 H   0  0  0  0  0  0  0  0  0  0  0  0
   57.2018   31.7788   43.2533 H   0  0  0  0  0  0  0  0  0  0  0  0
   57.2530   33.0900   47.8562 H   0  0  0  0  0  0  0  0  0  0  0  0
   59.1532   33.4307   49.4407 H   0  0  0  0  0  0  0  0  0  0  0  0
   61.3412   34.2972   48.6011 H   0  0  0  0  0  0  0  0  0  0  0  0
   61.6316   34.8158   46.1740 H   0  0  0  0  0  0  0  0  0  0  0  0
   59.7356   34.4649   44.5853 H   0  0  0  0  0  0  0  0  0  0  0  0
   59.6320   31.7040   45.9570 H   0  0  0  0  0  0  0  0  0  0  0  0
   61.0284   30.7178   47.6157 H   0  0  0  0  0  0  0  0  0  0  0  0
   61.5677   28.7400   49.0334 H   0  0  0  0  0  0  0  0  0  0  0  0
   60.1549   26.6889   48.9116 H   0  0  0  0  0  0  0  0  0  0  0  0
   58.1951   26.6077   47.3736 H   0  0  0  0  0  0  0  0  0  0  0  0
  1  2  2  0
  2  3  1  0
  2  4  1  0
  4  5  2  0
  5  6  1  0
  6  7  1  0
  7  8  1  0
  8  9  2  0
  9 10  1  0
 10 11  2  0
 11 12  1  0
 12 13  2  0
  5 14  1  0
 14 15  1  0
 15 16  2  0
 16 17  1  0
 17 18  2  0
 18 19  1  0
 19 20  2  0
 20 21  1  0
 21 22  2  0
 21  4  1  0
 13  8  1  0
 20 15  1  0
  6 23  1  0
  6 24  1  0
  9 25  1  0
 10 26  1  0
 11 27  1  0
 12 28  1  0
 13 29  1  0
 14 30  1  0
 16 31  1  0
 17 32  1  0
 18 33  1  0
 19 34  1  0
M  CHG  1   3  -1
M  END
>  <UniqueID>  (90) 
83

>  <SMILES>  (90) 
O=C([O-])c1c(CSc2ccccc2)[nH]c2ccccc2c1=O

>  <Energy>  (90) 
44.36356533849423

>  <Genealogy>  (90) 
O=C([O-])c1c(CSc2ccccc2)[nH]c2ccccc2c1=O (protonated)
O=C([O-])c1c(CSc2ccccc2)[nH]c2ccccc2c1=O (3D coordinates assigned)
O=C([O-])c1c(CSc2ccccc2)[nH]c2ccccc2c1=O (optimized conformer: 44.36356533849423 kcal/mol)

>  <smiles>  (90) 
O=C(O)c1c(CSc2ccccc2)[nH]c2ccccc2c1=O

>  <score_type>  (90) 
oracle

>  <origin>  (90) 
adg

>  <m_score__min__energy>  (90) 
-9.5899999999999999

>  <m_primary>  (90) 
energy

$$$$
90:0
     RDKit          3D

 34 35  0  0  1  0  0  0  0  0999 V2000
   54.7160   24.9570   45.6210 C   0  0  0  0  0  0  0  0  0  0  0  0
   54.9950   26.2940   45.9930 O   0  0  0  0  0  0  0  0  0  0  0  0
   56.3110   26.7290   45.9470 C   0  0  0  0  0  0  0  0  0  0  0  0
   57.3570   25.9420   46.3800 C   0  0  0  0  0  0  0  0  0  0  0  0
   58.6600   26.3950   46.3250 C   0  0  0  0  0  0  0  0  0  0  0  0
   58.9830   27.6620   45.8330 C   0  0  0  0  0  0  0  0  0  0  0  0
   60.3640   28.1210   45.7830 C   0  0  0  0  0  0  0  0  0  0  0  0
   60.7420   29.3460   45.5510 C   0  0  0  0  0  0  0  0  0  0  0  0
   60.4720   30.4000   46.5200 C   0  0  0  0  0  0  0  0  0  0  0  0
   61.0780   30.5590   47.7050 N   0  0  0  0  0  0  0  0  0  0  0  0
   60.5820   31.6310   48.3340 N   0  0  0  0  0  0  0  0  0  0  0  0
   59.6380   32.1970   47.5680 C   0  0  0  0  0  0  0  0  0  0  0  0
   58.8100   33.4010   47.8400 C   0  0  0  0  0  0  0  0  0  0  0  0
   59.5580   31.4310   46.4200 C   0  0  0  0  0  0  0  0  0  0  0  0
   58.4900   31.6840   45.0400 Cl  0  0  0  0  0  0  0  0  0  0  0  0
   57.9170   28.4250   45.4080 C   0  0  0  0  0  0  0  0  0  0  0  0
   56.6050   27.9860   45.4570 C   0  0  0  0  0  0  0  0  0  0  0  0
   55.5380   28.7630   45.0250 O   0  0  0  0  0  0  0  0  0  0  0  0
   55.7520   29.7450   44.0370 C   0  0  0  0  0  0  0  0  0  0  0  0
   54.5881   24.3439   46.5253 H   0  0  0  0  0  0  0  0  0  0  0  0
   53.7924   24.9275   45.0243 H   0  0  0  0  0  0  0  0  0  0  0  0
   55.5508   24.5606   45.0243 H   0  0  0  0  0  0  0  0  0  0  0  0
   57.1500   24.9368   46.7757 H   0  0  0  0  0  0  0  0  0  0  0  0
   59.4683   25.7384   46.6793 H   0  0  0  0  0  0  0  0  0  0  0  0
   61.1519   27.3729   45.9550 H   0  0  0  0  0  0  0  0  0  0  0  0
   61.2692   29.5865   44.6160 H   0  0  0  0  0  0  0  0  0  0  0  0
   61.8410   29.9630   48.1380 H   0  0  0  0  0  0  0  0  0  0  0  0
   58.7133   33.5416   48.9267 H   0  0  0  0  0  0  0  0  0  0  0  0
   59.2920   34.2851   47.3973 H   0  0  0  0  0  0  0  0  0  0  0  0
   57.8119   33.2673   47.3973 H   0  0  0  0  0  0  0  0  0  0  0  0
   58.1182   29.4309   45.0109 H   0  0  0  0  0  0  0  0  0  0  0  0
   55.9625   30.7108   44.5195 H   0  0  0  0  0  0  0  0  0  0  0  0
   56.6078   29.4541   43.4102 H   0  0  0  0  0  0  0  0  0  0  0  0
   54.8527   29.8365   43.4102 H   0  0  0  0  0  0  0  0  0  0  0  0
  1  2  1  0
  2  3  1  0
  3  4  2  0
  4  5  1  0
  5  6  2  0
  6  7  1  0
  7  8  2  0
  8  9  1  0
  9 10  1  0
 10 11  1  0
 11 12  2  0
 12 13  1  0
 12 14  1  0
 14 15  1  0
  6 16  1  0
 16 17  2  0
 17 18  1  0
 18 19  1  0
 17  3  1  0
 14  9  2  0
  1 20  1  0
  1 21  1  0
  1 22  1  0
  4 23  1  0
  5 24  1  0
  7 25  1  0
  8 26  1  0
 10 27  1  0
 13 28  1  0
 13 29  1  0
 13 30  1  0
 16 31  1  0
 19 32  1  0
 19 33  1  0
 19 34  1  0
M  END
>  <smiles>  (91) 
COc1ccc(C=Cc2[nH]nc(C)c2Cl)cc1OC

>  <score_type>  (91) 
oracle

>  <origin>  (91) 
adg

>  <m_score__min__energy>  (91) 
-7.21

>  <m_primary>  (91) 
energy

$$$$
91:0
     RDKit          3D

 54 57  0  0  0  0  0  0  0  0999 V2000
   54.9110   26.7120   45.9960 O   0  0  0  0  0  0  0  0  0  0  0  0
   56.1760   26.1800   46.2530 C   0  0  0  0  0  0  0  0  0  0  0  0
   57.3420   26.9230   45.9440 C   0  0  0  0  0  0  0  0  0  0  0  0
   57.2750   28.2460   45.3880 N   0  0  0  0  0  0  0  0  0  0  0  0
   57.8550   28.6150   44.1230 C   0  0  0  0  0  0  0  0  0  0  0  0
   58.2830   27.4620   43.0340 S   0  0  0  0  0  0  0  0  0  0  0  0
   57.8770   29.9920   43.7110 N   0  0  0  0  0  0  0  0  0  0  0  0
   57.8480   31.1060   44.6230 C   0  0  0  0  0  0  0  0  0  0  0  0
   57.0760   32.2480   44.3430 C   0  0  0  0  0  0  0  0  0  0  0  0
   57.0260   33.3110   45.2470 C   0  0  0  0  0  0  0  0  0  0  0  0
   57.7250   33.2360   46.4530 C   0  0  0  0  0  0  0  0  0  0  0  0
   58.4780   32.1000   46.7550 C   0  0  0  0  0  0  0  0  0  0  0  0
   58.5580   31.0330   45.8390 C   0  0  0  0  0  0  0  0  0  0  0  0
   59.2990   29.8750   46.1300 O   0  0  0  0  0  0  0  0  0  0  0  0
   59.8930   29.5760   47.3650 C   0  0  0  0  0  0  0  0  0  0  0  0
   59.4750   28.4840   48.1480 C   0  0  0  0  0  0  0  0  0  0  0  0
   60.0900   28.2230   49.3770 C   0  0  0  0  0  0  0  0  0  0  0  0
   61.1130   29.0540   49.8380 C   0  0  0  0  0  0  0  0  0  0  0  0
   61.5150   30.1570   49.0770 C   0  0  0  0  0  0  0  0  0  0  0  0
   60.9010   30.4200   47.8490 C   0  0  0  0  0  0  0  0  0  0  0  0
   58.6050   26.3520   46.1490 C   0  0  0  0  0  0  0  0  0  0  0  0
   58.7230   25.0800   46.7010 C   0  0  0  0  0  0  0  0  0  0  0  0
   57.5800   24.3570   47.0400 C   0  0  0  0  0  0  0  0  0  0  0  0
   56.3020   24.8820   46.8130 C   0  0  0  0  0  0  0  0  0  0  0  0
   55.2150   24.0570   47.1660 O   0  0  0  0  0  0  0  0  0  0  0  0
   54.5110   23.1390   46.3290 C   0  0  0  0  0  0  0  0  0  0  0  0
   55.3520   22.7040   45.1560 C   0  0  0  0  0  0  0  0  0  0  0  0
   55.4390   23.5080   44.0050 C   0  0  0  0  0  0  0  0  0  0  0  0
   56.2470   23.1170   42.9330 C   0  0  0  0  0  0  0  0  0  0  0  0
   56.9810   21.9300   43.0030 C   0  0  0  0  0  0  0  0  0  0  0  0
   56.9160   21.1350   44.1510 C   0  0  0  0  0  0  0  0  0  0  0  0
   56.1130   21.5250   45.2290 C   0  0  0  0  0  0  0  0  0  0  0  0
   54.0570   26.3240   46.3690 H   0  0  0  0  0  0  0  0  0  0  0  0
   56.6050   28.9170   45.8270 H   0  0  0  0  0  0  0  0  0  0  0  0
   57.9010   30.1940   42.6850 H   0  0  0  0  0  0  0  0  0  0  0  0
   56.5066   32.3042   43.4035 H   0  0  0  0  0  0  0  0  0  0  0  0
   56.4355   34.2080   45.0087 H   0  0  0  0  0  0  0  0  0  0  0  0
   57.6824   34.0727   47.1659 H   0  0  0  0  0  0  0  0  0  0  0  0
   59.0123   32.0377   47.7145 H   0  0  0  0  0  0  0  0  0  0  0  0
   58.6622   27.8337   47.7925 H   0  0  0  0  0  0  0  0  0  0  0  0
   59.7673   27.3621   49.9809 H   0  0  0  0  0  0  0  0  0  0  0  0
   61.6029   28.8414   50.7997 H   0  0  0  0  0  0  0  0  0  0  0  0
   62.3142   30.8172   49.4449 H   0  0  0  0  0  0  0  0  0  0  0  0
   61.2112   31.2951   47.2591 H   0  0  0  0  0  0  0  0  0  0  0  0
   59.5096   26.9131   45.8717 H   0  0  0  0  0  0  0  0  0  0  0  0
   59.7189   24.6446   46.8700 H   0  0  0  0  0  0  0  0  0  0  0  0
   57.6838   23.3597   47.4923 H   0  0  0  0  0  0  0  0  0  0  0  0
   54.2377   22.2530   46.9209 H   0  0  0  0  0  0  0  0  0  0  0  0
   53.6135   23.6436   45.9419 H   0  0  0  0  0  0  0  0  0  0  0  0
   54.8695   24.4474   43.9481 H   0  0  0  0  0  0  0  0  0  0  0  0
   56.3050   23.7455   42.0321 H   0  0  0  0  0  0  0  0  0  0  0  0
   57.6098   21.6212   42.1549 H   0  0  0  0  0  0  0  0  0  0  0  0
   57.4964   20.2022   44.2072 H   0  0  0  0  0  0  0  0  0  0  0  0
   56.0775   20.9058   46.1375 H   0  0  0  0  0  0  0  0  0  0  0  0
  1  2  1  0
  2  3  2  0
  3  4  1  0
  4  5  1  0
  5  6  2  0
  5  7  1  0
  7  8  1  0
  8  9  2  0
  9 10  1  0
 10 11  2  0
 11 12  1  0
 12 13  2  0
 13 14  1  0
 14 15  1  0
 15 16  2  0
 16 17  1  0
 17 18  2  0
 18 19  1  0
 19 20  2  0
  3 21  1  0
 21 22  2  0
 22 23  1  0
 23 24  2  0
 24 25  1  0
 25 26  1  0
 26 27  1  0
 27 28  2  0
 28 29  1  0
 29 30  2  0
 30 31  1  0
 31 32  2  0
 24  2  1  0
 32 27  1  0
 13  8  1  0
 20 15  1  0
  1 33  1  0
  4 34  1  0
  7 35  1  0
  9 36  1  0
 10 37  1  0
 11 38  1  0
 12 39  1  0
 16 40  1  0
 17 41  1  0
 18 42  1  0
 19 43  1  0
 20 44  1  0
 21 45  1  0
 22 46  1  0
 23 47  1  0
 26 48  1  0
 26 49  1  0
 28 50  1  0
 29 51  1  0
 30 52  1  0
 31 53  1  0
 32 54  1  0
M  END
>  <UniqueID>  (92) 
84

>  <SMILES>  (92) 
Oc1c(NC(=S)Nc2ccccc2Oc2ccccc2)cccc1OCc1ccccc1

>  <Energy>  (92) 
79.1404840409717

>  <Genealogy>  (92) 
Oc1c(NC(=S)Nc2ccccc2Oc2ccccc2)cccc1OCc1ccccc1 (3D coordinates assigned)
Oc1c(NC(=S)Nc2ccccc2Oc2ccccc2)cccc1OCc1ccccc1 (optimized conformer: 79.1404840409717 kcal/mol)

>  <smiles>  (92) 
Oc1c(NC(=S)Nc2ccccc2Oc2ccccc2)cccc1OCc1ccccc1

>  <score_type>  (92) 
oracle

>  <origin>  (92) 
adg

>  <m_score__min__energy>  (92) 
-9.7699999999999996

>  <m_primary>  (92) 
energy

$$$$
92:0
     RDKit          3D

 51 53  0  0  0  0  0  0  0  0999 V2000
   63.5600   33.4450   46.8240 C   0  0  0  0  0  0  0  0  0  0  0  0
   63.1120   32.8830   48.1480 C   0  0  0  0  0  0  0  0  0  0  0  0
   63.9410   31.9600   48.8100 C   0  0  0  0  0  0  0  0  0  0  0  0
   63.5600   31.4120   50.0360 C   0  0  0  0  0  0  0  0  0  0  0  0
   62.3480   31.7780   50.6180 C   0  0  0  0  0  0  0  0  0  0  0  0
   61.5140   32.6940   49.9770 C   0  0  0  0  0  0  0  0  0  0  0  0
   61.8780   33.2600   48.7430 C   0  0  0  0  0  0  0  0  0  0  0  0
   60.9190   34.2400   48.0990 C   0  0  0  0  0  0  0  0  0  0  0  0
   59.8500   33.5180   47.3780 N   0  0  0  0  0  0  0  0  0  0  0  0
   58.5450   34.2040   47.5120 C   0  0  0  0  0  0  0  0  0  0  0  0
   57.4060   33.3780   46.8720 C   0  0  0  0  0  0  0  0  0  0  0  0
   57.0300   33.8380   45.4510 C   0  0  0  0  0  0  0  0  0  0  0  0
   58.1680   33.8080   44.5070 N   0  0  0  0  0  0  0  0  0  0  0  0
   58.1830   32.6300   43.6140 C   0  0  0  0  0  0  0  0  0  0  0  0
   57.7370   31.3640   44.2910 C   0  0  0  0  0  0  0  0  0  0  0  0
   56.4850   30.7810   44.2220 C   0  0  0  0  0  0  0  0  0  0  0  0
   56.4830   29.6470   44.9500 N   0  0  0  0  0  0  0  0  0  0  0  0
   57.6890   29.5130   45.4760 N   0  0  0  0  0  0  0  0  0  0  0  0
   58.1550   28.1770   46.4720 S   0  0  0  0  0  0  0  0  0  0  0  0
   59.6130   27.4170   45.7940 C   0  0  0  0  0  0  0  0  0  0  0  0
   57.0350   27.1780   46.5270 O   0  0  0  0  0  0  0  0  0  0  0  0
   58.4540   28.6600   47.8650 O   0  0  0  0  0  0  0  0  0  0  0  0
   58.4780   30.5380   45.1080 C   0  0  0  0  0  0  0  0  0  0  0  0
   59.4960   34.2740   44.9770 C   0  0  0  0  0  0  0  0  0  0  0  0
   60.2280   33.3270   45.9620 C   0  0  0  0  0  0  0  0  0  0  0  0
   64.2372   34.2945   46.9965 H   0  0  0  0  0  0  0  0  0  0  0  0
   64.0873   32.6656   46.2544 H   0  0  0  0  0  0  0  0  0  0  0  0
   62.6827   33.7853   46.2544 H   0  0  0  0  0  0  0  0  0  0  0  0
   64.8996   31.6668   48.3571 H   0  0  0  0  0  0  0  0  0  0  0  0
   64.2173   30.6904   50.5432 H   0  0  0  0  0  0  0  0  0  0  0  0
   62.0488   31.3443   51.5836 H   0  0  0  0  0  0  0  0  0  0  0  0
   60.5588   32.9772   50.4434 H   0  0  0  0  0  0  0  0  0  0  0  0
   60.4677   34.8708   48.8790 H   0  0  0  0  0  0  0  0  0  0  0  0
   61.4741   34.8632   47.3824 H   0  0  0  0  0  0  0  0  0  0  0  0
   58.3251   34.3497   48.5799 H   0  0  0  0  0  0  0  0  0  0  0  0
   58.6067   35.1708   46.9910 H   0  0  0  0  0  0  0  0  0  0  0  0
   57.7248   32.3263   46.8235 H   0  0  0  0  0  0  0  0  0  0  0  0
   56.5148   33.5181   47.5014 H   0  0  0  0  0  0  0  0  0  0  0  0
   56.2401   33.1757   45.0670 H   0  0  0  0  0  0  0  0  0  0  0  0
   56.6947   34.8831   45.5245 H   0  0  0  0  0  0  0  0  0  0  0  0
   57.5117   32.8270   42.7651 H   0  0  0  0  0  0  0  0  0  0  0  0
   59.2241   32.4781   43.2931 H   0  0  0  0  0  0  0  0  0  0  0  0
   55.6266   31.1798   43.6616 H   0  0  0  0  0  0  0  0  0  0  0  0
   60.2642   27.0776   46.6130 H   0  0  0  0  0  0  0  0  0  0  0  0
   59.3231   26.5552   45.1748 H   0  0  0  0  0  0  0  0  0  0  0  0
   60.1534   28.1481   45.1748 H   0  0  0  0  0  0  0  0  0  0  0  0
   59.5261   30.6897   45.4056 H   0  0  0  0  0  0  0  0  0  0  0  0
   60.1394   34.4078   44.0949 H   0  0  0  0  0  0  0  0  0  0  0  0
   59.3086   35.2028   45.5357 H   0  0  0  0  0  0  0  0  0  0  0  0
   59.9964   32.2894   45.6798 H   0  0  0  0  0  0  0  0  0  0  0  0
   61.3006   33.5592   45.8865 H   0  0  0  0  0  0  0  0  0  0  0  0
  1  2  1  0
  2  3  2  0
  3  4  1  0
  4  5  2  0
  5  6  1  0
  6  7  2  0
  7  8  1  0
  8  9  1  0
  9 10  1  0
 10 11  1  0
 11 12  1  0
 12 13  1  0
 13 14  1  0
 14 15  1  0
 15 16  1  0
 16 17  2  0
 17 18  1  0
 18 19  1  0
 19 20  1  0
 19 21  2  0
 19 22  2  0
 18 23  1  0
 13 24  1  0
 24 25  1  0
  7  2  1  0
 25  9  1  0
 23 15  2  0
  1 26  1  0
  1 27  1  0
  1 28  1  0
  3 29  1  0
  4 30  1  0
  5 31  1  0
  6 32  1  0
  8 33  1  0
  8 34  1  0
 10 35  1  0
 10 36  1  0
 11 37  1  0
 11 38  1  0
 12 39  1  0
 12 40  1  0
 14 41  1  0
 14 42  1  0
 16 43  1  0
 20 44  1  0
 20 45  1  0
 20 46  1  0
 23 47  1  0
 24 48  1  0
 24 49  1  0
 25 50  1  0
 25 51  1  0
M  END
>  <UniqueID>  (93) 
85

>  <SMILES>  (93) 
Cc1ccccc1CN1CCCN(Cc2cnn(S(C)(=O)=O)c2)CC1

>  <Energy>  (93) 
96.09544670679563

>  <Genealogy>  (93) 
Cc1ccccc1CN1CCCN(Cc2cnn(S(C)(=O)=O)c2)CC1 (3D coordinates assigned)
Cc1ccccc1CN1CCCN(Cc2cnn(S(C)(=O)=O)c2)CC1 (nonaromatic ring conformer: 96.09544670679563 kcal/mol)

>  <smiles>  (93) 
Cc1ccccc1CN1CCCN(Cc2cnn(S(C)(=O)=O)c2)CC1

>  <score_type>  (93) 
oracle

>  <origin>  (93) 
adg

>  <m_score__min__energy>  (93) 
-7.4100000000000001

>  <m_primary>  (93) 
energy

$$$$
93:0
     RDKit          3D

 54 56  0  0  0  0  0  0  0  0999 V2000
   63.3940   31.9070   51.1690 C   0  0  0  0  0  0  0  0  0  0  0  0
   62.8420   30.6340   50.8580 O   0  0  0  0  0  0  0  0  0  0  0  0
   61.7420   30.4320   50.0110 C   0  0  0  0  0  0  0  0  0  0  0  0
   60.5180   29.9210   50.4840 C   0  0  0  0  0  0  0  0  0  0  0  0
   59.4440   29.7390   49.6080 C   0  0  0  0  0  0  0  0  0  0  0  0
   59.5790   30.0610   48.2560 C   0  0  0  0  0  0  0  0  0  0  0  0
   60.7890   30.5690   47.7770 C   0  0  0  0  0  0  0  0  0  0  0  0
   61.8670   30.7620   48.6490 C   0  0  0  0  0  0  0  0  0  0  0  0
   63.0830   31.3210   48.1490 N   0  0  0  0  0  0  0  0  0  0  0  0
   63.1780   32.9850   47.6760 S   0  0  0  0  0  0  0  0  0  0  0  0
   63.8530   33.0930   46.3370 O   0  0  0  0  0  0  0  0  0  0  0  0
   63.9950   33.7320   48.6920 O   0  0  0  0  0  0  0  0  0  0  0  0
   61.5610   33.6790   47.5880 C   0  0  0  0  0  0  0  0  0  0  0  0
   60.9380   34.1910   48.7340 C   0  0  0  0  0  0  0  0  0  0  0  0
   59.6180   34.6420   48.6700 C   0  0  0  0  0  0  0  0  0  0  0  0
   58.9030   34.5530   47.4730 C   0  0  0  0  0  0  0  0  0  0  0  0
   59.5070   34.0240   46.3160 C   0  0  0  0  0  0  0  0  0  0  0  0
   58.7080   33.8630   45.0730 C   0  0  0  0  0  0  0  0  0  0  0  0
   58.0570   34.8480   44.6290 O   0  0  0  0  0  0  0  0  0  0  0  0
   58.6290   32.5980   44.3930 N   0  0  0  0  0  0  0  0  0  0  0  0
   57.7090   32.3650   43.2800 C   0  0  0  0  0  0  0  0  0  0  0  0
   56.9360   31.0950   43.4800 C   0  0  0  0  0  0  0  0  0  0  0  0
   56.3010   30.5780   42.5200 O   0  0  0  0  0  0  0  0  0  0  0  0
   56.9130   30.4950   44.7820 N   0  0  0  0  0  0  0  0  0  0  0  0
   57.4210   29.2030   45.1460 C   0  0  0  0  0  0  0  0  0  0  0  0
   58.8010   29.0530   45.3190 C   0  0  0  0  0  0  0  0  0  0  0  0
   59.3400   27.8180   45.6890 C   0  0  0  0  0  0  0  0  0  0  0  0
   58.5030   26.7170   45.8750 C   0  0  0  0  0  0  0  0  0  0  0  0
   57.1230   26.8400   45.6700 C   0  0  0  0  0  0  0  0  0  0  0  0
   56.0590   25.4540   45.9000 S   0  0  0  0  0  0  0  0  0  0  0  0
   54.4170   25.9460   45.6810 N   0  0  0  0  0  0  0  0  0  0  0  0
   56.4030   24.3810   44.9050 O   0  0  0  0  0  0  0  0  0  0  0  0
   56.2310   24.8990   47.2870 O   0  0  0  0  0  0  0  0  0  0  0  0
   56.5830   28.0810   45.2990 C   0  0  0  0  0  0  0  0  0  0  0  0
   60.8550   33.6260   46.3780 C   0  0  0  0  0  0  0  0  0  0  0  0
   63.4461   32.0272   52.2612 H   0  0  0  0  0  0  0  0  0  0  0  0
   64.4055   31.9820   50.7432 H   0  0  0  0  0  0  0  0  0  0  0  0
   62.7574   32.6966   50.7432 H   0  0  0  0  0  0  0  0  0  0  0  0
   60.4065   29.6639   51.5477 H   0  0  0  0  0  0  0  0  0  0  0  0
   58.4901   29.3411   49.9846 H   0  0  0  0  0  0  0  0  0  0  0  0
   58.7329   29.9147   47.5684 H   0  0  0  0  0  0  0  0  0  0  0  0
   60.8951   30.8182   46.7109 H   0  0  0  0  0  0  0  0  0  0  0  0
   61.4892   34.2377   49.6848 H   0  0  0  0  0  0  0  0  0  0  0  0
   59.1399   35.0684   49.5642 H   0  0  0  0  0  0  0  0  0  0  0  0
   57.8596   34.8990   47.4340 H   0  0  0  0  0  0  0  0  0  0  0  0
   59.0720   31.7510   44.8090 H   0  0  0  0  0  0  0  0  0  0  0  0
   57.0054   33.2078   43.2121 H   0  0  0  0  0  0  0  0  0  0  0  0
   58.2946   32.2772   42.3530 H   0  0  0  0  0  0  0  0  0  0  0  0
   59.4672   29.9142   45.1625 H   0  0  0  0  0  0  0  0  0  0  0  0
   60.4254   27.7136   45.8338 H   0  0  0  0  0  0  0  0  0  0  0  0
   58.9280   25.7504   46.1833 H   0  0  0  0  0  0  0  0  0  0  0  0
   54.2350   26.7150   46.3620 H   0  0  0  0  0  0  0  0  0  0  0  0
   55.5009   28.1781   45.1269 H   0  0  0  0  0  0  0  0  0  0  0  0
   61.3600   33.2697   45.4680 H   0  0  0  0  0  0  0  0  0  0  0  0
  1  2  1  0
  2  3  1  0
  3  4  2  0
  4  5  1  0
  5  6  2  0
  6  7  1  0
  7  8  2  0
  8  9  1  0
  9 10  1  0
 10 11  2  0
 10 12  2  0
 10 13  1  0
 13 14  2  0
 14 15  1  0
 15 16  2  0
 16 17  1  0
 17 18  1  0
 18 19  2  0
 18 20  1  0
 20 21  1  0
 21 22  1  0
 22 23  2  0
 22 24  1  0
 24 25  1  0
 25 26  2  0
 26 27  1  0
 27 28  2  0
 28 29  1  0
 29 30  1  0
 30 31  1  0
 30 32  2  0
 30 33  2  0
 29 34  2  0
 17 35  2  0
  8  3  1  0
 35 13  1  0
 34 25  1  0
  1 36  1  0
  1 37  1  0
  1 38  1  0
  4 39  1  0
  5 40  1  0
  6 41  1  0
  7 42  1  0
 14 43  1  0
 15 44  1  0
 16 45  1  0
 20 46  1  0
 21 47  1  0
 21 48  1  0
 26 49  1  0
 27 50  1  0
 28 51  1  0
 31 52  1  0
 34 53  1  0
 35 54  1  0
M  CHG  3   9  -1  24  -1  31  -1
M  END
>  <UniqueID>  (94) 
86

>  <SMILES>  (94) 
COc1ccccc1[N-]S(=O)(=O)c1cccc(C(=O)NCC(=O)[N-]c2cccc(S([NH-])(=O)=O)c2)c1

>  <Energy>  (94) 
66.06597604843934

>  <Genealogy>  (94) 
COc1ccccc1[N-]S(=O)(=O)c1cccc(C(=O)NCC(=O)[N-]c2cccc(S([NH-])(=O)=O)c2)c1 (protonated)
COc1ccccc1[N-]S(=O)(=O)c1cccc(C(=O)NCC(=O)[N-]c2cccc(S([NH-])(=O)=O)c2)c1 (3D coordinates assigned)
COc1ccccc1[N-]S(=O)(=O)c1cccc(C(=O)NCC(=O)[N-]c2cccc(S([NH-])(=O)=O)c2)c1 (optimized conformer: 66.06597604843934 kcal/mol)

>  <smiles>  (94) 
COc1ccccc1NS(=O)(=O)c1cccc(C(=O)NCC(=O)Nc2cccc(S(N)(=O)=O)c2)c1

>  <score_type>  (94) 
oracle

>  <origin>  (94) 
adg

>  <m_score__min__energy>  (94) 
-16.550000000000001

>  <m_primary>  (94) 
energy

$$$$
94:0
     RDKit          3D

 32 33  0  0  0  0  0  0  0  0999 V2000
   61.1500   31.9650   47.1270 C   0  0  0  0  0  0  0  0  0  0  0  0
   60.1620   30.8840   46.9900 N   0  0  0  0  0  0  0  0  0  0  0  0
   58.9630   31.1510   47.8010 C   0  0  0  0  0  0  0  0  0  0  0  0
   60.7370   29.5420   47.2310 C   0  0  0  0  0  0  0  0  0  0  0  0
   60.5100   28.5320   46.0860 C   0  0  0  0  0  0  0  0  0  0  0  0
   59.0910   28.1110   46.0460 N   0  0  0  0  0  0  0  0  0  0  0  0
   58.7200   26.9840   46.7490 C   0  0  0  0  0  0  0  0  0  0  0  0
   59.5610   26.3450   47.4380 O   0  0  0  0  0  0  0  0  0  0  0  0
   57.4060   26.5210   46.7180 C   0  0  0  0  0  0  0  0  0  0  0  0
   56.4430   27.2040   45.9900 C   0  0  0  0  0  0  0  0  0  0  0  0
   55.1400   26.7150   45.9660 O   0  0  0  0  0  0  0  0  0  0  0  0
   56.7900   28.3720   45.3020 C   0  0  0  0  0  0  0  0  0  0  0  0
   55.8190   29.0890   44.5810 C   0  0  0  0  0  0  0  0  0  0  0  0
   56.1570   30.2670   43.9190 C   0  0  0  0  0  0  0  0  0  0  0  0
   57.4630   30.7490   43.9740 C   0  0  0  0  0  0  0  0  0  0  0  0
   57.8750   32.2470   43.1560 Cl  0  0  0  0  0  0  0  0  0  0  0  0
   58.4430   30.0480   44.6820 C   0  0  0  0  0  0  0  0  0  0  0  0
   58.1360   28.8360   45.3500 C   0  0  0  0  0  0  0  0  0  0  0  0
   61.3311   32.1632   48.1937 H   0  0  0  0  0  0  0  0  0  0  0  0
   62.0918   31.6642   46.6449 H   0  0  0  0  0  0  0  0  0  0  0  0
   60.7659   32.8761   46.6449 H   0  0  0  0  0  0  0  0  0  0  0  0
   59.2221   31.0933   48.8685 H   0  0  0  0  0  0  0  0  0  0  0  0
   58.5807   32.1563   47.5703 H   0  0  0  0  0  0  0  0  0  0  0  0
   58.1902   30.4029   47.5703 H   0  0  0  0  0  0  0  0  0  0  0  0
   61.8211   29.6546   47.3796 H   0  0  0  0  0  0  0  0  0  0  0  0
   60.2212   29.1351   48.1132 H   0  0  0  0  0  0  0  0  0  0  0  0
   60.7758   29.0034   45.1283 H   0  0  0  0  0  0  0  0  0  0  0  0
   61.1409   27.6476   46.2586 H   0  0  0  0  0  0  0  0  0  0  0  0
   57.1317   25.6114   47.2724 H   0  0  0  0  0  0  0  0  0  0  0  0
   54.7847   28.7169   44.5394 H   0  0  0  0  0  0  0  0  0  0  0  0
   55.3918   30.8174   43.3520 H   0  0  0  0  0  0  0  0  0  0  0  0
   59.4689   30.4430   44.7215 H   0  0  0  0  0  0  0  0  0  0  0  0
  1  2  1  0
  2  3  1  0
  2  4  1  0
  4  5  1  0
  5  6  1  0
  6  7  1  0
  7  8  2  0
  7  9  1  0
  9 10  2  0
 10 11  1  0
 10 12  1  0
 12 13  2  0
 13 14  1  0
 14 15  2  0
 15 16  1  0
 15 17  1  0
 17 18  2  0
 18  6  1  0
 18 12  1  0
  1 19  1  0
  1 20  1  0
  1 21  1  0
  3 22  1  0
  3 23  1  0
  3 24  1  0
  4 25  1  0
  4 26  1  0
  5 27  1  0
  5 28  1  0
  9 29  1  0
 13 30  1  0
 14 31  1  0
 17 32  1  0
M  CHG  1  11  -1
M  END
>  <UniqueID>  (95) 
87

>  <SMILES>  (95) 
CN(C)CCn1c(=O)cc([O-])c2ccc(Cl)cc21

>  <Energy>  (95) 
44.73568500915362

>  <Genealogy>  (95) 
CN(C)CCn1c(=O)cc([O-])c2ccc(Cl)cc21 (protonated)
CN(C)CCn1c(=O)cc([O-])c2ccc(Cl)cc21 (3D coordinates assigned)
CN(C)CCn1c(=O)cc([O-])c2ccc(Cl)cc21 (optimized conformer: 44.73568500915362 kcal/mol)

>  <smiles>  (95) 
CN(C)CCn1c(=O)cc(O)c2ccc(Cl)cc21

>  <score_type>  (95) 
oracle

>  <origin>  (95) 
adg

>  <m_score__min__energy>  (95) 
-9.3399999999999999

>  <m_primary>  (95) 
energy

$$$$
95:0
     RDKit          3D

 38 40  0  0  0  0  0  0  0  0999 V2000
   56.2370   30.0250   44.8770 O   0  0  0  0  0  0  0  0  0  0  0  0
   57.4330   30.2350   45.2130 C   0  0  0  0  0  0  0  0  0  0  0  0
   58.3150   29.1120   45.3550 N   0  0  0  0  0  0  0  0  0  0  0  0
   58.0270   27.9420   45.8580 C   0  0  0  0  0  0  0  0  0  0  0  0
   58.8790   27.2840   46.7730 C   0  0  0  0  0  0  0  0  0  0  0  0
   58.5120   26.0370   47.2790 C   0  0  0  0  0  0  0  0  0  0  0  0
   57.3080   25.4550   46.8890 C   0  0  0  0  0  0  0  0  0  0  0  0
   56.4780   26.1360   45.9980 C   0  0  0  0  0  0  0  0  0  0  0  0
   56.8460   27.3520   45.5110 N   0  0  0  0  0  0  0  0  0  0  0  0
   57.9120   31.6300   45.3750 C   0  0  0  0  0  0  0  0  0  0  0  0
   57.7540   32.5700   44.3490 C   0  0  0  0  0  0  0  0  0  0  0  0
   58.2200   33.8710   44.5160 C   0  0  0  0  0  0  0  0  0  0  0  0
   58.8420   34.2350   45.7130 C   0  0  0  0  0  0  0  0  0  0  0  0
   59.2680   35.4150   45.8440 O   0  0  0  0  0  0  0  0  0  0  0  0
   58.9830   33.3200   46.7270 N   0  0  0  0  0  0  0  0  0  0  0  0
   59.6750   33.6800   47.9760 C   0  0  0  0  0  0  0  0  0  0  0  0
   61.1650   33.5530   47.8010 C   0  0  0  0  0  0  0  0  0  0  0  0
   61.7650   33.8450   46.5650 C   0  0  0  0  0  0  0  0  0  0  0  0
   63.1440   33.6880   46.3970 C   0  0  0  0  0  0  0  0  0  0  0  0
   63.9320   33.2310   47.4560 C   0  0  0  0  0  0  0  0  0  0  0  0
   63.3420   32.9290   48.6870 C   0  0  0  0  0  0  0  0  0  0  0  0
   64.3310   32.3470   50.0140 Cl  0  0  0  0  0  0  0  0  0  0  0  0
   61.9630   33.0860   48.8590 C   0  0  0  0  0  0  0  0  0  0  0  0
   58.5290   32.0370   46.5690 C   0  0  0  0  0  0  0  0  0  0  0  0
   59.8248   27.7516   47.0841 H   0  0  0  0  0  0  0  0  0  0  0  0
   59.1729   25.5136   47.9855 H   0  0  0  0  0  0  0  0  0  0  0  0
   57.0148   24.4692   47.2793 H   0  0  0  0  0  0  0  0  0  0  0  0
   55.5223   25.6881   45.6880 H   0  0  0  0  0  0  0  0  0  0  0  0
   56.2010   27.8370   44.8460 H   0  0  0  0  0  0  0  0  0  0  0  0
   57.2608   32.2798   43.4096 H   0  0  0  0  0  0  0  0  0  0  0  0
   58.0991   34.6091   43.7094 H   0  0  0  0  0  0  0  0  0  0  0  0
   59.4277   34.7183   48.2420 H   0  0  0  0  0  0  0  0  0  0  0  0
   59.3486   32.9991   48.7759 H   0  0  0  0  0  0  0  0  0  0  0  0
   61.1475   34.1985   45.7261 H   0  0  0  0  0  0  0  0  0  0  0  0
   63.6095   33.9248   45.4289 H   0  0  0  0  0  0  0  0  0  0  0  0
   65.0169   33.1087   47.3214 H   0  0  0  0  0  0  0  0  0  0  0  0
   61.5009   32.8427   49.8271 H   0  0  0  0  0  0  0  0  0  0  0  0
   58.6496   31.3148   47.3899 H   0  0  0  0  0  0  0  0  0  0  0  0
  1  2  2  0
  2  3  1  0
  3  4  2  3
  4  5  1  0
  5  6  2  0
  6  7  1  0
  7  8  2  0
  8  9  1  0
  2 10  1  0
 10 11  1  0
 11 12  2  0
 12 13  1  0
 13 14  2  0
 13 15  1  0
 15 16  1  0
 16 17  1  0
 17 18  2  0
 18 19  1  0
 19 20  2  0
 20 21  1  0
 21 22  1  0
 21 23  2  0
 15 24  1  0
  9  4  1  0
 24 10  2  0
 23 17  1  0
  5 25  1  0
  6 26  1  0
  7 27  1  0
  8 28  1  0
  9 29  1  0
 11 30  1  0
 12 31  1  0
 16 32  1  0
 16 33  1  0
 18 34  1  0
 19 35  1  0
 20 36  1  0
 23 37  1  0
 24 38  1  0
M  END
>  <UniqueID>  (96) 
88

>  <SMILES>  (96) 
O=C(N=c1cccc[nH]1)c1ccc(=O)n(Cc2cccc(Cl)c2)c1

>  <Energy>  (96) 
52.8910969824391

>  <Genealogy>  (96) 
O=C(N=c1cccc[nH]1)c1ccc(=O)n(Cc2cccc(Cl)c2)c1 (3D coordinates assigned)
O=C(N=c1cccc[nH]1)c1ccc(=O)n(Cc2cccc(Cl)c2)c1 (optimized conformer: 52.8910969824391 kcal/mol)

>  <smiles>  (96) 
O=C(N=c1cccc[nH]1)c1ccc(=O)n(Cc2cccc(Cl)c2)c1

>  <score_type>  (96) 
oracle

>  <origin>  (96) 
adg

>  <m_score__min__energy>  (96) 
-8.3800000000000008

>  <m_primary>  (96) 
energy

$$$$
