0:0
     RDKit          3D

 42 44  0  0  0  0  0  0  0  0999 V2000
   59.1900   33.0170   51.0400 C   0  0  0  0  0  0  0  0  0  0  0  0
   60.1700   33.7580   51.7580 O   0  0  0  0  0  0  0  0  0  0  0  0
   61.5200   33.3870   51.8760 C   0  0  0  0  0  0  0  0  0  0  0  0
   62.1090   33.0950   53.1210 C   0  0  0  0  0  0  0  0  0  0  0  0
   63.4550   32.7300   53.1980 C   0  0  0  0  0  0  0  0  0  0  0  0
   64.2320   32.6480   52.0400 C   0  0  0  0  0  0  0  0  0  0  0  0
   63.6640   32.9340   50.7870 C   0  0  0  0  0  0  0  0  0  0  0  0
   64.4120   32.8620   49.5990 C   0  0  0  0  0  0  0  0  0  0  0  0
   65.6310   32.5360   49.6180 O   0  0  0  0  0  0  0  0  0  0  0  0
   63.8040   33.1560   48.3750 C   0  0  0  0  0  0  0  0  0  0  0  0
   62.4480   33.5210   48.3390 C   0  0  0  0  0  0  0  0  0  0  0  0
   61.7750   33.8340   47.0590 C   0  0  0  0  0  0  0  0  0  0  0  0
   62.4350   33.8170   45.9840 O   0  0  0  0  0  0  0  0  0  0  0  0
   60.3750   34.1570   47.0320 N   0  0  0  0  0  0  0  0  0  0  0  0
   59.6510   34.3870   45.7830 C   0  0  0  0  0  0  0  0  0  0  0  0
   58.9360   33.1330   45.3580 C   0  0  0  0  0  0  0  0  0  0  0  0
   58.0420   33.1690   44.2760 C   0  0  0  0  0  0  0  0  0  0  0  0
   57.3550   32.0140   43.8900 C   0  0  0  0  0  0  0  0  0  0  0  0
   57.5550   30.8110   44.5790 C   0  0  0  0  0  0  0  0  0  0  0  0
   56.6770   29.3610   44.1050 S   0  0  0  0  0  0  0  0  0  0  0  0
   55.1240   29.3530   44.8620 N   0  0  0  0  0  0  0  0  0  0  0  0
   57.4470   28.1390   44.5250 O   0  0  0  0  0  0  0  0  0  0  0  0
   56.5060   29.3330   42.6130 O   0  0  0  0  0  0  0  0  0  0  0  0
   58.4380   30.7750   45.6680 C   0  0  0  0  0  0  0  0  0  0  0  0
   59.1250   31.9300   46.0550 C   0  0  0  0  0  0  0  0  0  0  0  0
   61.7430   33.5830   49.5020 N   0  0  0  0  0  0  0  0  0  0  0  0
   62.3000   33.3050   50.7120 C   0  0  0  0  0  0  0  0  0  0  0  0
   58.5201   32.5105   51.7504 H   0  0  0  0  0  0  0  0  0  0  0  0
   58.6045   33.7003   50.4073 H   0  0  0  0  0  0  0  0  0  0  0  0
   59.6879   32.2675   50.4073 H   0  0  0  0  0  0  0  0  0  0  0  0
   61.5054   33.1547   54.0387 H   0  0  0  0  0  0  0  0  0  0  0  0
   63.9058   32.5058   54.1760 H   0  0  0  0  0  0  0  0  0  0  0  0
   65.2911   32.3588   52.1092 H   0  0  0  0  0  0  0  0  0  0  0  0
   64.3856   33.1017   47.4429 H   0  0  0  0  0  0  0  0  0  0  0  0
   59.8420   34.2320   47.9270 H   0  0  0  0  0  0  0  0  0  0  0  0
   58.9159   35.1916   45.9321 H   0  0  0  0  0  0  0  0  0  0  0  0
   60.3684   34.6739   45.0000 H   0  0  0  0  0  0  0  0  0  0  0  0
   57.8813   34.1100   43.7295 H   0  0  0  0  0  0  0  0  0  0  0  0
   56.6550   32.0502   43.0423 H   0  0  0  0  0  0  0  0  0  0  0  0
   55.1560   28.6320   45.6160 H   0  0  0  0  0  0  0  0  0  0  0  0
   58.5906   29.8355   46.2194 H   0  0  0  0  0  0  0  0  0  0  0  0
   59.8166   31.8952   46.9097 H   0  0  0  0  0  0  0  0  0  0  0  0
  1  2  1  0
  2  3  1  0
  3  4  2  0
  4  5  1  0
  5  6  2  0
  6  7  1  0
  7  8  1  0
  8  9  2  0
  8 10  1  0
 10 11  2  0
 11 12  1  0
 12 13  2  0
 12 14  1  0
 14 15  1  0
 15 16  1  0
 16 17  2  0
 17 18  1  0
 18 19  2  0
 19 20  1  0
 20 21  1  0
 20 22  2  0
 20 23  2  0
 19 24  1  0
 24 25  2  0
 11 26  1  0
 26 27  1  0
 27  3  1  0
 27  7  2  0
 25 16  1  0
  1 28  1  0
  1 29  1  0
  1 30  1  0
  4 31  1  0
  5 32  1  0
  6 33  1  0
 10 34  1  0
 14 35  1  0
 15 36  1  0
 15 37  1  0
 17 38  1  0
 18 39  1  0
 21 40  1  0
 24 41  1  0
 25 42  1  0
M  CHG  2  21  -1  26  -1
M  END
>  <UniqueID>  (1) 
1

>  <SMILES>  (1) 
COc1cccc2c(=O)cc(C(=O)NCc3ccc(S([NH-])(=O)=O)cc3)[n-]c12

>  <Energy>  (1) 
46.038670808009

>  <Genealogy>  (1) 
COc1cccc2c(=O)cc(C(=O)NCc3ccc(S([NH-])(=O)=O)cc3)[n-]c12 (protonated)
COc1cccc2c(=O)cc(C(=O)NCc3ccc(S([NH-])(=O)=O)cc3)[n-]c12 (3D coordinates assigned)
COc1cccc2c(=O)cc(C(=O)NCc3ccc(S([NH-])(=O)=O)cc3)[n-]c12 (optimized conformer: 46.038670808009 kcal/mol)

>  <smiles>  (1) 
COc1cccc2c(=O)cc(C(=O)NCc3ccc(S(N)(=O)=O)cc3)[nH]c12

>  <score_type>  (1) 
oracle

>  <origin>  (1) 
adg

>  <m_score__min__energy>  (1) 
-11.15

>  <m_primary>  (1) 
energy

$$$$
1:0
     RDKit          3D

 47 49  0  0  0  0  0  0  0  0999 V2000
   60.0590   30.0300   45.6550 O   0  0  0  0  0  0  0  0  0  0  0  0
   59.0750   30.0930   46.4400 C   0  0  0  0  0  0  0  0  0  0  0  0
   57.7400   29.9650   45.9260 N   0  0  0  0  0  0  0  0  0  0  0  0
   57.4730   29.6610   44.5160 C   0  0  1  0  0  0  0  0  0  0  0  0
   58.1750   28.3480   44.1220 C   0  0  0  0  0  0  0  0  0  0  0  0
   58.1490   27.3440   45.2470 C   0  0  0  0  0  0  0  0  0  0  0  0
   59.3400   26.9600   45.8880 C   0  0  0  0  0  0  0  0  0  0  0  0
   59.3060   26.0510   46.9490 C   0  0  0  0  0  0  0  0  0  0  0  0
   58.0870   25.5240   47.3830 C   0  0  0  0  0  0  0  0  0  0  0  0
   56.8970   25.9070   46.7570 C   0  0  0  0  0  0  0  0  0  0  0  0
   56.9260   26.8170   45.6950 C   0  0  0  0  0  0  0  0  0  0  0  0
   55.9880   29.5730   44.2830 C   0  0  0  0  0  0  0  0  0  0  0  0
   55.2090   29.3410   45.2440 O   0  0  0  0  0  0  0  0  0  0  0  0
   55.4660   29.7530   43.0070 O   0  0  0  0  0  0  0  0  0  0  0  0
   59.3010   30.2650   47.8930 C   0  0  0  0  0  0  0  0  0  0  0  0
   58.8430   29.2570   48.7600 C   0  0  0  0  0  0  0  0  0  0  0  0
   59.0320   29.3610   50.1380 C   0  0  0  0  0  0  0  0  0  0  0  0
   59.6760   30.4750   50.6720 C   0  0  0  0  0  0  0  0  0  0  0  0
   60.1320   31.4900   49.8310 C   0  0  0  0  0  0  0  0  0  0  0  0
   59.9550   31.4050   48.4370 C   0  0  0  0  0  0  0  0  0  0  0  0
   60.4380   32.5580   47.5780 C   0  0  0  0  0  0  0  0  0  0  0  0
   59.3300   33.1580   46.7430 C   0  0  0  0  0  0  0  0  0  0  0  0
   57.9810   33.0000   47.1120 C   0  0  0  0  0  0  0  0  0  0  0  0
   56.9630   33.5320   46.3130 C   0  0  0  0  0  0  0  0  0  0  0  0
   57.2790   34.2100   45.1330 C   0  0  0  0  0  0  0  0  0  0  0  0
   58.6140   34.3490   44.7450 C   0  0  0  0  0  0  0  0  0  0  0  0
   59.6350   33.8180   45.5390 C   0  0  0  0  0  0  0  0  0  0  0  0
   56.9380   30.0880   46.5860 H   0  0  0  0  0  0  0  0  0  0  0  0
   57.8726   30.4681   43.8844 H   0  0  0  0  0  0  0  0  0  0  0  0
   57.6633   27.9181   43.2483 H   0  0  0  0  0  0  0  0  0  0  0  0
   59.2256   28.5765   43.8896 H   0  0  0  0  0  0  0  0  0  0  0  0
   60.3016   27.3763   45.5533 H   0  0  0  0  0  0  0  0  0  0  0  0
   60.2412   25.7497   47.4436 H   0  0  0  0  0  0  0  0  0  0  0  0
   58.0635   24.8076   48.2174 H   0  0  0  0  0  0  0  0  0  0  0  0
   55.9374   25.4925   47.0998 H   0  0  0  0  0  0  0  0  0  0  0  0
   55.9875   27.1213   45.2086 H   0  0  0  0  0  0  0  0  0  0  0  0
   58.3297   28.3763   48.3466 H   0  0  0  0  0  0  0  0  0  0  0  0
   58.6722   28.5627   50.8038 H   0  0  0  0  0  0  0  0  0  0  0  0
   59.8251   30.5543   51.7590 H   0  0  0  0  0  0  0  0  0  0  0  0
   60.6360   32.3675   50.2622 H   0  0  0  0  0  0  0  0  0  0  0  0
   60.8487   33.3395   48.2342 H   0  0  0  0  0  0  0  0  0  0  0  0
   61.2021   32.1667   46.8902 H   0  0  0  0  0  0  0  0  0  0  0  0
   57.7257   32.4556   48.0331 H   0  0  0  0  0  0  0  0  0  0  0  0
   55.9115   33.4162   46.6146 H   0  0  0  0  0  0  0  0  0  0  0  0
   56.4776   34.6339   44.5101 H   0  0  0  0  0  0  0  0  0  0  0  0
   58.8623   34.8774   43.8127 H   0  0  0  0  0  0  0  0  0  0  0  0
   60.6831   33.9170   45.2201 H   0  0  0  0  0  0  0  0  0  0  0  0
  1  2  2  0
  2  3  1  0
  3  4  1  0
  4  5  1  0
  5  6  1  0
  6  7  2  0
  7  8  1  0
  8  9  2  0
  9 10  1  0
 10 11  2  0
  4 12  1  0
 12 13  2  0
 12 14  1  0
  2 15  1  0
 15 16  2  0
 16 17  1  0
 17 18  2  0
 18 19  1  0
 19 20  2  0
 20 21  1  0
 21 22  1  0
 22 23  2  0
 23 24  1  0
 24 25  2  0
 25 26  1  0
 26 27  2  0
 11  6  1  0
 20 15  1  0
 27 22  1  0
  3 28  1  0
  4 29  1  6
  5 30  1  0
  5 31  1  0
  7 32  1  0
  8 33  1  0
  9 34  1  0
 10 35  1  0
 11 36  1  0
 16 37  1  0
 17 38  1  0
 18 39  1  0
 19 40  1  0
 21 41  1  0
 21 42  1  0
 23 43  1  0
 24 44  1  0
 25 45  1  0
 26 46  1  0
 27 47  1  0
M  CHG  1  14  -1
M  END
>  <UniqueID>  (2) 
2

>  <SMILES>  (2) 
O=C(N[C@@H](Cc1ccccc1)C(=O)[O-])c1ccccc1Cc1ccccc1

>  <Energy>  (2) 
52.11054435150121

>  <Genealogy>  (2) 
O=C(NC(Cc1ccccc1)C(=O)[O-])c1ccccc1Cc1ccccc1 (protonated)
O=C(N[C@@H](Cc1ccccc1)C(=O)[O-])c1ccccc1Cc1ccccc1 (chirality)
O=C(N[C@@H](Cc1ccccc1)C(=O)[O-])c1ccccc1Cc1ccccc1 (3D coordinates assigned)
O=C(N[C@@H](Cc1ccccc1)C(=O)[O-])c1ccccc1Cc1ccccc1 (optimized conformer: 52.11054435150121 kcal/mol)

>  <smiles>  (2) 
O=C(NC(Cc1ccccc1)C(=O)O)c1ccccc1Cc1ccccc1

>  <score_type>  (2) 
oracle

>  <origin>  (2) 
adg

>  <m_score__min__energy>  (2) 
-11.390000000000001

>  <m_primary>  (2) 
energy

$$$$
2:0
     RDKit          3D

 34 35  0  0  0  0  0  0  0  0999 V2000
   58.0340   28.7290   43.7780 N   0  0  0  0  0  0  0  0  0  0  0  0
   57.2040   28.3020   44.6780 C   0  0  0  0  0  0  0  0  0  0  0  0
   55.9550   28.9840   44.8720 N   0  0  0  0  0  0  0  0  0  0  0  0
   55.6920   30.2370   44.3480 O   0  0  0  0  0  0  0  0  0  0  0  0
   56.6980   31.0960   43.8860 C   0  0  0  0  0  0  0  0  0  0  0  0
   57.0250   31.0840   42.6670 O   0  0  0  0  0  0  0  0  0  0  0  0
   57.4030   31.9850   44.8350 C   0  0  0  0  0  0  0  0  0  0  0  0
   57.0700   33.3450   44.9230 C   0  0  0  0  0  0  0  0  0  0  0  0
   57.7420   34.1810   45.8160 C   0  0  0  0  0  0  0  0  0  0  0  0
   58.7580   33.6790   46.6410 C   0  0  0  0  0  0  0  0  0  0  0  0
   59.4810   34.5890   47.4810 N   0  0  0  0  0  0  0  0  0  0  0  0
   59.0800   32.3020   46.5880 C   0  0  0  0  0  0  0  0  0  0  0  0
   60.0590   31.7220   47.4660 N   0  0  0  0  0  0  0  0  0  0  0  0
   61.1480   32.2990   47.6630 O   0  0  0  0  0  0  0  0  0  0  0  0
   59.7150   30.6620   48.2740 O   0  0  0  0  0  0  0  0  0  0  0  0
   58.4100   31.4730   45.6710 C   0  0  0  0  0  0  0  0  0  0  0  0
   57.5070   27.0830   45.4680 C   0  0  0  0  0  0  0  0  0  0  0  0
   58.8400   26.6650   45.6440 C   0  0  0  0  0  0  0  0  0  0  0  0
   59.1300   25.5100   46.3750 C   0  0  0  0  0  0  0  0  0  0  0  0
   58.0970   24.7580   46.9360 C   0  0  0  0  0  0  0  0  0  0  0  0
   56.7700   25.1600   46.7700 C   0  0  0  0  0  0  0  0  0  0  0  0
   56.4700   26.3180   46.0430 C   0  0  0  0  0  0  0  0  0  0  0  0
   55.1410   26.7100   45.9170 O   0  0  0  0  0  0  0  0  0  0  0  0
   57.7390   29.3310   42.9770 H   0  0  0  0  0  0  0  0  0  0  0  0
   55.1490   28.4390   45.2520 H   0  0  0  0  0  0  0  0  0  0  0  0
   56.2741   33.7551   44.2840 H   0  0  0  0  0  0  0  0  0  0  0  0
   57.4713   35.2457   45.8730 H   0  0  0  0  0  0  0  0  0  0  0  0
   60.3340   34.2710   47.9940 H   0  0  0  0  0  0  0  0  0  0  0  0
   59.1250   35.5450   47.6950 H   0  0  0  0  0  0  0  0  0  0  0  0
   58.6780   30.4081   45.6070 H   0  0  0  0  0  0  0  0  0  0  0  0
   59.6590   27.2520   45.2028 H   0  0  0  0  0  0  0  0  0  0  0  0
   60.1748   25.1929   46.5085 H   0  0  0  0  0  0  0  0  0  0  0  0
   58.3281   23.8481   47.5093 H   0  0  0  0  0  0  0  0  0  0  0  0
   55.9576   24.5646   47.2121 H   0  0  0  0  0  0  0  0  0  0  0  0
  1  2  2  3
  2  3  1  0
  3  4  1  0
  4  5  1  0
  5  6  2  0
  5  7  1  0
  7  8  2  0
  8  9  1  0
  9 10  2  0
 10 11  1  0
 10 12  1  0
 12 13  1  0
 13 14  2  0
 13 15  1  0
 12 16  2  0
  2 17  1  0
 17 18  2  0
 18 19  1  0
 19 20  2  0
 20 21  1  0
 21 22  2  0
 22 23  1  0
 16  7  1  0
 22 17  1  0
  1 24  1  0
  3 25  1  0
  8 26  1  0
  9 27  1  0
 11 28  1  0
 11 29  1  0
 16 30  1  0
 18 31  1  0
 19 32  1  0
 20 33  1  0
 21 34  1  0
M  CHG  3  13   1  15  -1  23  -1
M  END
>  <UniqueID>  (3) 
3

>  <SMILES>  (3) 
N=C(NOC(=O)c1ccc(N)c([N+](=O)[O-])c1)c1ccccc1[O-]

>  <Energy>  (3) 
50.05944036132139

>  <Genealogy>  (3) 
N=C(NOC(=O)c1ccc(N)c([N+](=O)[O-])c1)c1ccccc1[O-] (protonated)
N=C(NOC(=O)c1ccc(N)c([N+](=O)[O-])c1)c1ccccc1[O-] (3D coordinates assigned)
N=C(NOC(=O)c1ccc(N)c([N+](=O)[O-])c1)c1ccccc1[O-] (optimized conformer: 50.05944036132139 kcal/mol)

>  <smiles>  (3) 
N=C(NOC(=O)c1ccc(N)c([N+](=O)[O-])c1)c1ccccc1O

>  <score_type>  (3) 
oracle

>  <origin>  (3) 
adg

>  <m_score__min__energy>  (3) 
-11.99

>  <m_primary>  (3) 
energy

$$$$
3:0
     RDKit          3D

 51 54  0  0  0  0  0  0  0  0999 V2000
   58.0730   31.4860   43.4400 C   0  0  0  0  0  0  0  0  0  0  0  0
   57.7920   31.6390   44.9320 C   0  0  0  0  0  0  0  0  0  0  0  0
   57.7710   30.3180   45.6020 N   0  0  0  0  0  0  0  0  0  0  0  0
   56.7460   29.4470   45.3070 C   0  0  0  0  0  0  0  0  0  0  0  0
   55.8740   29.7530   44.4440 O   0  0  0  0  0  0  0  0  0  0  0  0
   56.6520   28.2430   45.9350 N   0  0  0  0  0  0  0  0  0  0  0  0
   55.6060   27.4000   45.6240 O   0  0  0  0  0  0  0  0  0  0  0  0
   57.5670   27.8550   46.8610 C   0  0  0  0  0  0  0  0  0  0  0  0
   57.4400   26.7350   47.4320 O   0  0  0  0  0  0  0  0  0  0  0  0
   58.6490   28.6900   47.1640 C   0  0  0  0  0  0  0  0  0  0  0  0
   59.6250   28.3050   48.1060 C   0  0  0  0  0  0  0  0  0  0  0  0
   60.7160   29.1320   48.3720 C   0  0  0  0  0  0  0  0  0  0  0  0
   60.8590   30.3450   47.6940 C   0  0  0  0  0  0  0  0  0  0  0  0
   62.2520   31.3840   47.9930 S   0  0  0  0  0  0  0  0  0  0  0  0
   63.1310   31.3840   46.7740 O   0  0  0  0  0  0  0  0  0  0  0  0
   63.0480   30.8820   49.1660 O   0  0  0  0  0  0  0  0  0  0  0  0
   61.7070   32.9990   48.3080 N   0  0  0  0  0  0  0  0  0  0  0  0
   60.5650   33.5190   47.6200 C   0  0  0  0  0  0  0  0  0  0  0  0
   60.7420   34.0890   46.3500 C   0  0  0  0  0  0  0  0  0  0  0  0
   59.6410   34.5230   45.6100 C   0  0  0  0  0  0  0  0  0  0  0  0
   58.3550   34.4000   46.1360 C   0  0  0  0  0  0  0  0  0  0  0  0
   58.1670   33.8670   47.4120 C   0  0  0  0  0  0  0  0  0  0  0  0
   59.2680   33.4310   48.1760 C   0  0  0  0  0  0  0  0  0  0  0  0
   59.0630   32.9720   49.5270 N   0  0  0  0  0  0  0  0  0  0  0  0
   58.1680   31.8790   49.8800 C   0  0  0  0  0  0  0  0  0  0  0  0
   58.2840   31.7420   51.3900 C   0  0  0  0  0  0  0  0  0  0  0  0
   58.8030   33.0920   51.8790 C   0  0  0  0  0  0  0  0  0  0  0  0
   59.5540   33.6850   50.6960 C   0  0  0  0  0  0  0  0  0  0  0  0
   59.8940   30.7390   46.7590 C   0  0  0  0  0  0  0  0  0  0  0  0
   58.7570   29.9350   46.4940 C   0  0  0  0  0  0  0  0  0  0  0  0
   59.0311   30.9643   43.2989 H   0  0  0  0  0  0  0  0  0  0  0  0
   57.2657   30.9029   42.9728 H   0  0  0  0  0  0  0  0  0  0  0  0
   58.1247   32.4805   42.9728 H   0  0  0  0  0  0  0  0  0  0  0  0
   58.5783   32.2606   45.3851 H   0  0  0  0  0  0  0  0  0  0  0  0
   56.8078   32.1139   45.0583 H   0  0  0  0  0  0  0  0  0  0  0  0
   59.5252   27.3456   48.6348 H   0  0  0  0  0  0  0  0  0  0  0  0
   61.4657   28.8284   49.1175 H   0  0  0  0  0  0  0  0  0  0  0  0
   62.4110   33.6800   48.6750 H   0  0  0  0  0  0  0  0  0  0  0  0
   61.7552   34.1945   45.9349 H   0  0  0  0  0  0  0  0  0  0  0  0
   59.7874   34.9620   44.6121 H   0  0  0  0  0  0  0  0  0  0  0  0
   57.4867   34.7240   45.5435 H   0  0  0  0  0  0  0  0  0  0  0  0
   57.1506   33.7865   47.8250 H   0  0  0  0  0  0  0  0  0  0  0  0
   57.1337   32.1190   49.5926 H   0  0  0  0  0  0  0  0  0  0  0  0
   58.4327   30.9462   49.3606 H   0  0  0  0  0  0  0  0  0  0  0  0
   57.3014   31.5235   51.8336 H   0  0  0  0  0  0  0  0  0  0  0  0
   58.9533   30.9174   51.6765 H   0  0  0  0  0  0  0  0  0  0  0  0
   57.9663   33.7440   52.1704 H   0  0  0  0  0  0  0  0  0  0  0  0
   59.4479   32.9876   52.7640 H   0  0  0  0  0  0  0  0  0  0  0  0
   59.3429   34.7609   50.6068 H   0  0  0  0  0  0  0  0  0  0  0  0
   60.6431   33.5805   50.8101 H   0  0  0  0  0  0  0  0  0  0  0  0
   60.0205   31.6897   46.2203 H   0  0  0  0  0  0  0  0  0  0  0  0
  1  2  1  0
  2  3  1  0
  3  4  1  0
  4  5  2  0
  4  6  1  0
  6  7  1  0
  6  8  1  0
  8  9  2  0
  8 10  1  0
 10 11  2  0
 11 12  1  0
 12 13  2  0
 13 14  1  0
 14 15  2  0
 14 16  2  0
 14 17  1  0
 17 18  1  0
 18 19  2  0
 19 20  1  0
 20 21  2  0
 21 22  1  0
 22 23  2  0
 23 24  1  0
 24 25  1  0
 25 26  1  0
 26 27  1  0
 27 28  1  0
 13 29  1  0
 29 30  2  0
 30  3  1  0
 30 10  1  0
 23 18  1  0
 28 24  1  0
  1 31  1  0
  1 32  1  0
  1 33  1  0
  2 34  1  0
  2 35  1  0
 11 36  1  0
 12 37  1  0
 17 38  1  0
 19 39  1  0
 20 40  1  0
 21 41  1  0
 22 42  1  0
 25 43  1  0
 25 44  1  0
 26 45  1  0
 26 46  1  0
 27 47  1  0
 27 48  1  0
 28 49  1  0
 28 50  1  0
 29 51  1  0
M  CHG  1   7  -1
M  END
>  <UniqueID>  (4) 
4

>  <SMILES>  (4) 
CCn1c(=O)n([O-])c(=O)c2ccc(S(=O)(=O)Nc3ccccc3N3CCCC3)cc21

>  <Energy>  (4) 
74.58644727929294

>  <Genealogy>  (4) 
CCn1c(=O)n([O-])c(=O)c2ccc(S(=O)(=O)Nc3ccccc3N3CCCC3)cc21 (protonated)
CCn1c(=O)n([O-])c(=O)c2ccc(S(=O)(=O)Nc3ccccc3N3CCCC3)cc21 (3D coordinates assigned)
CCn1c(=O)n([O-])c(=O)c2ccc(S(=O)(=O)Nc3ccccc3N3CCCC3)cc21 (nonaromatic ring conformer: 74.58644727929294 kcal/mol)

>  <smiles>  (4) 
CCn1c(=O)n(O)c(=O)c2ccc(S(=O)(=O)Nc3ccccc3N3CCCC3)cc21

>  <score_type>  (4) 
oracle

>  <origin>  (4) 
adg

>  <m_score__min__energy>  (4) 
-11.210000000000001

>  <m_primary>  (4) 
energy

$$$$
4:0
     RDKit          3D

 46 48  0  0  0  0  0  0  0  0999 V2000
   56.4650   22.9790   47.2590 C   0  0  0  0  0  0  0  0  0  0  0  0
   55.4720   24.0430   47.3440 N   0  0  0  0  0  0  0  0  0  0  0  0
   55.6140   25.0930   45.9670 S   0  0  0  0  0  0  0  0  0  0  0  0
   55.7140   24.2600   44.7210 O   0  0  0  0  0  0  0  0  0  0  0  0
   54.3920   25.9620   45.8600 O   0  0  0  0  0  0  0  0  0  0  0  0
   57.0590   26.0940   46.1060 C   0  0  0  0  0  0  0  0  0  0  0  0
   57.8700   25.9920   47.2430 C   0  0  0  0  0  0  0  0  0  0  0  0
   59.0110   26.7900   47.3650 C   0  0  0  0  0  0  0  0  0  0  0  0
   59.3440   27.6970   46.3560 C   0  0  0  0  0  0  0  0  0  0  0  0
   58.5320   27.8160   45.2170 C   0  0  0  0  0  0  0  0  0  0  0  0
   58.8890   28.7810   44.1190 C   0  0  0  0  0  0  0  0  0  0  0  0
   58.5870   30.1500   44.5310 N   0  0  0  0  0  0  0  0  0  0  0  0
   57.2460   30.5920   44.8020 C   0  0  0  0  0  0  0  0  0  0  0  0
   56.3080   29.7540   44.8530 O   0  0  0  0  0  0  0  0  0  0  0  0
   56.9550   31.9700   45.0790 N   0  0  0  0  0  0  0  0  0  0  0  0
   57.7480   32.8200   45.6600 C   0  0  0  0  0  0  0  0  0  0  0  0
   58.0020   34.0660   45.1980 N   0  0  0  0  0  0  0  0  0  0  0  0
   58.8310   34.7470   46.0320 C   0  0  0  0  0  0  0  0  0  0  0  0
   59.2350   34.0370   47.1580 C   0  0  0  0  0  0  0  0  0  0  0  0
   60.0750   34.5700   48.2750 C   0  0  0  0  0  0  0  0  0  0  0  0
   61.4810   34.0520   48.1550 C   0  0  0  0  0  0  0  0  0  0  0  0
   62.0400   33.8030   46.8910 C   0  0  0  0  0  0  0  0  0  0  0  0
   63.3600   33.3550   46.7800 C   0  0  0  0  0  0  0  0  0  0  0  0
   64.1330   33.1610   47.9280 C   0  0  0  0  0  0  0  0  0  0  0  0
   63.5880   33.4190   49.1890 C   0  0  0  0  0  0  0  0  0  0  0  0
   62.2680   33.8670   49.3040 C   0  0  0  0  0  0  0  0  0  0  0  0
   58.5110   32.5170   47.1260 S   0  0  0  0  0  0  0  0  0  0  0  0
   57.3900   27.0090   45.0960 C   0  0  0  0  0  0  0  0  0  0  0  0
   56.7560   22.6672   48.2729 H   0  0  0  0  0  0  0  0  0  0  0  0
   56.0375   22.1207   46.7200 H   0  0  0  0  0  0  0  0  0  0  0  0
   57.3507   23.3463   46.7200 H   0  0  0  0  0  0  0  0  0  0  0  0
   57.6086   25.2824   48.0418 H   0  0  0  0  0  0  0  0  0  0  0  0
   59.6482   26.7037   48.2575 H   0  0  0  0  0  0  0  0  0  0  0  0
   60.2453   28.3199   46.4543 H   0  0  0  0  0  0  0  0  0  0  0  0
   59.9631   28.6972   43.8969 H   0  0  0  0  0  0  0  0  0  0  0  0
   58.2995   28.5381   43.2226 H   0  0  0  0  0  0  0  0  0  0  0  0
   59.3900   30.7900   44.7220 H   0  0  0  0  0  0  0  0  0  0  0  0
   59.1570   35.7785   45.8325 H   0  0  0  0  0  0  0  0  0  0  0  0
   60.0868   35.6690   48.2292 H   0  0  0  0  0  0  0  0  0  0  0  0
   59.6500   34.2405   49.2346 H   0  0  0  0  0  0  0  0  0  0  0  0
   61.4371   33.9610   45.9846 H   0  0  0  0  0  0  0  0  0  0  0  0
   63.7905   33.1550   45.7877 H   0  0  0  0  0  0  0  0  0  0  0  0
   65.1701   32.8053   47.8392 H   0  0  0  0  0  0  0  0  0  0  0  0
   64.1980   33.2695   50.0921 H   0  0  0  0  0  0  0  0  0  0  0  0
   61.8446   34.0752   50.2976 H   0  0  0  0  0  0  0  0  0  0  0  0
   56.7514   27.0947   44.2045 H   0  0  0  0  0  0  0  0  0  0  0  0
  1  2  1  0
  2  3  1  0
  3  4  2  0
  3  5  2  0
  3  6  1  0
  6  7  2  0
  7  8  1  0
  8  9  2  0
  9 10  1  0
 10 11  1  0
 11 12  1  0
 12 13  1  0
 13 14  2  0
 13 15  1  0
 15 16  2  3
 16 17  1  0
 17 18  1  0
 18 19  2  0
 19 20  1  0
 20 21  1  0
 21 22  2  0
 22 23  1  0
 23 24  2  0
 24 25  1  0
 25 26  2  0
 19 27  1  0
 10 28  2  0
 28  6  1  0
 27 16  1  0
 26 21  1  0
  1 29  1  0
  1 30  1  0
  1 31  1  0
  7 32  1  0
  8 33  1  0
  9 34  1  0
 11 35  1  0
 11 36  1  0
 12 37  1  0
 18 38  1  0
 20 39  1  0
 20 40  1  0
 22 41  1  0
 23 42  1  0
 24 43  1  0
 25 44  1  0
 26 45  1  0
 28 46  1  0
M  CHG  2   2  -1  17  -1
M  END
>  <UniqueID>  (5) 
5

>  <SMILES>  (5) 
C[N-]S(=O)(=O)c1cccc(CNC(=O)N=c2[n-]cc(Cc3ccccc3)s2)c1

>  <Energy>  (5) 
76.0160758253196

>  <Genealogy>  (5) 
C[N-]S(=O)(=O)c1cccc(CNC(=O)N=c2[n-]cc(Cc3ccccc3)s2)c1 (protonated)
C[N-]S(=O)(=O)c1cccc(CNC(=O)N=c2[n-]cc(Cc3ccccc3)s2)c1 (3D coordinates assigned)
C[N-]S(=O)(=O)c1cccc(CNC(=O)N=c2[n-]cc(Cc3ccccc3)s2)c1 (optimized conformer: 76.0160758253196 kcal/mol)

>  <smiles>  (5) 
CNS(=O)(=O)c1cccc(CNC(=O)N=c2[nH]cc(Cc3ccccc3)s2)c1

>  <score_type>  (5) 
oracle

>  <origin>  (5) 
adg

>  <m_score__min__energy>  (5) 
-12.52

>  <m_primary>  (5) 
energy

$$$$
5:0
     RDKit          3D

 60 63  0  0  0  0  0  0  0  0999 V2000
   56.0470   29.7280   42.7550 C   0  0  0  0  0  0  0  0  0  0  0  0
   56.8200   30.7200   43.5580 C   0  0  0  0  0  0  0  0  0  0  0  0
   57.3830   31.8840   43.0750 C   0  0  0  0  0  0  0  0  0  0  0  0
   57.9710   32.4950   44.1630 C   0  0  0  0  0  0  0  0  0  0  0  0
   57.7170   31.6650   45.2390 C   0  0  0  0  0  0  0  0  0  0  0  0
   58.1380   31.9000   46.6220 C   0  0  0  0  0  0  0  0  0  0  0  0
   58.0970   33.1010   47.2310 N   0  0  0  0  0  0  0  0  0  0  0  0
   58.5580   32.8790   48.4510 N   0  0  0  0  0  0  0  0  0  0  0  0
   58.8610   31.5970   48.5660 N   0  0  0  0  0  0  0  0  0  0  0  0
   59.4460   30.9910   49.7560 C   0  0  0  0  0  0  0  0  0  0  0  0
   60.6250   30.1240   49.3920 C   0  0  0  0  0  0  0  0  0  0  0  0
   61.5560   29.9930   50.2330 O   0  0  0  0  0  0  0  0  0  0  0  0
   60.6870   29.3890   48.1440 N   0  0  0  0  0  0  0  0  0  0  0  0
   61.2210   30.0600   46.9470 C   0  0  0  0  0  0  0  0  0  0  0  0
   61.9530   31.3120   47.3310 C   0  0  0  0  0  0  0  0  0  0  0  0
   63.2060   31.2790   47.4660 O   0  0  0  0  0  0  0  0  0  0  0  0
   61.2280   32.5330   47.5350 N   0  0  0  0  0  0  0  0  0  0  0  0
   61.8840   33.7900   47.8940 C   0  0  0  0  0  0  0  0  0  0  0  0
   62.7360   33.5950   49.1250 C   0  0  0  0  0  0  0  0  0  0  0  0
   64.1260   33.4440   48.9690 C   0  0  0  0  0  0  0  0  0  0  0  0
   64.9480   33.2610   50.0810 C   0  0  0  0  0  0  0  0  0  0  0  0
   64.3980   33.2290   51.3610 C   0  0  0  0  0  0  0  0  0  0  0  0
   63.0230   33.3940   51.5360 C   0  0  0  0  0  0  0  0  0  0  0  0
   62.1810   33.6000   50.4290 C   0  0  0  0  0  0  0  0  0  0  0  0
   60.7040   33.7940   50.6590 C   0  0  0  0  0  0  0  0  0  0  0  0
   60.2620   27.9820   48.0480 C   0  0  0  0  0  0  0  0  0  0  0  0
   59.3380   27.7760   46.8760 C   0  0  0  0  0  0  0  0  0  0  0  0
   57.9570   27.6120   47.0760 C   0  0  0  0  0  0  0  0  0  0  0  0
   57.1050   27.4220   45.9840 C   0  0  0  0  0  0  0  0  0  0  0  0
   57.6220   27.4030   44.6870 C   0  0  0  0  0  0  0  0  0  0  0  0
   58.9930   27.5780   44.4780 C   0  0  0  0  0  0  0  0  0  0  0  0
   59.8480   27.7680   45.5670 C   0  0  0  0  0  0  0  0  0  0  0  0
   58.6200   30.9460   47.4410 N   0  0  0  0  0  0  0  0  0  0  0  0
   57.0290   30.6150   44.8500 O   0  0  0  0  0  0  0  0  0  0  0  0
   55.5140   29.0440   43.4318 H   0  0  0  0  0  0  0  0  0  0  0  0
   55.3201   30.2564   42.1206 H   0  0  0  0  0  0  0  0  0  0  0  0
   56.7370   29.1523   42.1206 H   0  0  0  0  0  0  0  0  0  0  0  0
   57.3663   32.2488   42.0374 H   0  0  0  0  0  0  0  0  0  0  0  0
   58.5262   33.4446   44.1725 H   0  0  0  0  0  0  0  0  0  0  0  0
   59.7805   31.7864   50.4383 H   0  0  0  0  0  0  0  0  0  0  0  0
   58.6845   30.3638   50.2425 H   0  0  0  0  0  0  0  0  0  0  0  0
   61.9133   29.3800   46.4290 H   0  0  0  0  0  0  0  0  0  0  0  0
   60.3843   30.3254   46.2840 H   0  0  0  0  0  0  0  0  0  0  0  0
   60.2070   32.5530   47.3140 H   0  0  0  0  0  0  0  0  0  0  0  0
   62.5200   34.1202   47.0595 H   0  0  0  0  0  0  0  0  0  0  0  0
   61.1172   34.5506   48.1026 H   0  0  0  0  0  0  0  0  0  0  0  0
   64.5681   33.4705   47.9621 H   0  0  0  0  0  0  0  0  0  0  0  0
   66.0333   33.1416   49.9472 H   0  0  0  0  0  0  0  0  0  0  0  0
   65.0482   33.0735   52.2345 H   0  0  0  0  0  0  0  0  0  0  0  0
   62.5945   33.3626   52.5486 H   0  0  0  0  0  0  0  0  0  0  0  0
   60.5016   33.8206   51.7399 H   0  0  0  0  0  0  0  0  0  0  0  0
   60.3832   34.7420   50.2025 H   0  0  0  0  0  0  0  0  0  0  0  0
   60.1493   32.9610   50.2025 H   0  0  0  0  0  0  0  0  0  0  0  0
   61.1504   27.3457   47.9219 H   0  0  0  0  0  0  0  0  0  0  0  0
   59.7242   27.7146   48.9696 H   0  0  0  0  0  0  0  0  0  0  0  0
   57.5447   27.6332   48.0956 H   0  0  0  0  0  0  0  0  0  0  0  0
   56.0255   27.2872   46.1468 H   0  0  0  0  0  0  0  0  0  0  0  0
   56.9502   27.2503   43.8295 H   0  0  0  0  0  0  0  0  0  0  0  0
   59.3991   27.5662   43.4558 H   0  0  0  0  0  0  0  0  0  0  0  0
   60.9254   27.9120   45.3984 H   0  0  0  0  0  0  0  0  0  0  0  0
  1  2  1  0
  2  3  2  0
  3  4  1  0
  4  5  2  0
  5  6  1  0
  6  7  1  0
  7  8  2  0
  8  9  1  0
  9 10  1  0
 10 11  1  0
 11 12  2  0
 11 13  1  0
 13 14  1  0
 14 15  1  0
 15 16  2  0
 15 17  1  0
 17 18  1  0
 18 19  1  0
 19 20  2  0
 20 21  1  0
 21 22  2  0
 22 23  1  0
 23 24  2  0
 24 25  1  0
 13 26  1  0
 26 27  1  0
 27 28  2  0
 28 29  1  0
 29 30  2  0
 30 31  1  0
 31 32  2  0
  9 33  1  0
  5 34  1  0
 34  2  1  0
 33  6  2  0
 24 19  1  0
 32 27  1  0
  1 35  1  0
  1 36  1  0
  1 37  1  0
  3 38  1  0
  4 39  1  0
 10 40  1  0
 10 41  1  0
 14 42  1  0
 14 43  1  0
 17 44  1  0
 18 45  1  0
 18 46  1  0
 20 47  1  0
 21 48  1  0
 22 49  1  0
 23 50  1  0
 25 51  1  0
 25 52  1  0
 25 53  1  0
 26 54  1  0
 26 55  1  0
 28 56  1  0
 29 57  1  0
 30 58  1  0
 31 59  1  0
 32 60  1  0
M  END
>  <UniqueID>  (6) 
6

>  <SMILES>  (6) 
Cc1ccc(-c2nnn(CC(=O)N(CC(=O)NCc3ccccc3C)Cc3ccccc3)n2)o1

>  <Energy>  (6) 
117.93797174912451

>  <Genealogy>  (6) 
Cc1ccc(-c2nnn(CC(=O)N(CC(=O)NCc3ccccc3C)Cc3ccccc3)n2)o1 (3D coordinates assigned)
Cc1ccc(-c2nnn(CC(=O)N(CC(=O)NCc3ccccc3C)Cc3ccccc3)n2)o1 (optimized conformer: 117.93797174912451 kcal/mol)

>  <smiles>  (6) 
Cc1ccc(-c2nnn(CC(=O)N(CC(=O)NCc3ccccc3C)Cc3ccccc3)n2)o1

>  <score_type>  (6) 
oracle

>  <origin>  (6) 
adg

>  <m_score__min__energy>  (6) 
-9.5500000000000007

>  <m_primary>  (6) 
energy

$$$$
6:0
     RDKit          3D

 39 40  0  0  0  0  0  0  0  0999 V2000
   54.9890   29.3530   44.2710 N   0  0  0  0  0  0  0  0  0  0  0  0
   56.3880   29.6250   44.3030 C   0  0  0  0  0  0  0  0  0  0  0  0
   57.0260   29.7580   43.2240 O   0  0  0  0  0  0  0  0  0  0  0  0
   57.0970   29.7740   45.6140 C   0  0  0  0  0  0  0  0  0  0  0  0
   57.7440   28.4630   46.0240 C   0  0  0  0  0  0  0  0  0  0  0  0
   59.0780   28.4510   46.5080 C   0  0  0  0  0  0  0  0  0  0  0  0
   59.8740   29.6860   46.6410 C   0  0  0  0  0  0  0  0  0  0  0  0
   60.7420   29.9600   45.7730 O   0  0  0  0  0  0  0  0  0  0  0  0
   59.6800   30.5800   47.7420 N   0  0  0  0  0  0  0  0  0  0  0  0
   58.5630   31.5130   47.8370 C   0  0  0  0  0  0  0  0  0  0  0  0
   58.8100   32.6820   46.9290 C   0  0  0  0  0  0  0  0  0  0  0  0
   58.2620   32.7000   45.6360 C   0  0  0  0  0  0  0  0  0  0  0  0
   58.4690   33.8030   44.8010 C   0  0  0  0  0  0  0  0  0  0  0  0
   59.2170   34.8930   45.2510 C   0  0  0  0  0  0  0  0  0  0  0  0
   59.7550   34.8870   46.5420 C   0  0  0  0  0  0  0  0  0  0  0  0
   59.5480   33.7890   47.3820 C   0  0  0  0  0  0  0  0  0  0  0  0
   59.6690   27.2470   46.9040 C   0  0  0  0  0  0  0  0  0  0  0  0
   58.9600   26.0530   46.8340 C   0  0  0  0  0  0  0  0  0  0  0  0
   57.6390   26.0370   46.3730 C   0  0  0  0  0  0  0  0  0  0  0  0
   56.8760   24.7370   46.3580 C   0  0  0  0  0  0  0  0  0  0  0  0
   55.5320   24.9630   46.6830 O   0  0  0  0  0  0  0  0  0  0  0  0
   57.0130   27.2420   45.9940 C   0  0  0  0  0  0  0  0  0  0  0  0
   55.6690   27.1870   45.6090 O   0  0  0  0  0  0  0  0  0  0  0  0
   54.6360   28.3800   44.1310 H   0  0  0  0  0  0  0  0  0  0  0  0
   57.8743   30.5465   45.5188 H   0  0  0  0  0  0  0  0  0  0  0  0
   56.3648   30.0634   46.3821 H   0  0  0  0  0  0  0  0  0  0  0  0
   57.6345   31.0053   47.5370 H   0  0  0  0  0  0  0  0  0  0  0  0
   58.4681   31.8674   48.8740 H   0  0  0  0  0  0  0  0  0  0  0  0
   57.6689   31.8451   45.2792 H   0  0  0  0  0  0  0  0  0  0  0  0
   58.0416   33.8118   43.7875 H   0  0  0  0  0  0  0  0  0  0  0  0
   59.3831   35.7564   44.5900 H   0  0  0  0  0  0  0  0  0  0  0  0
   60.3417   35.7472   46.8967 H   0  0  0  0  0  0  0  0  0  0  0  0
   59.9639   33.7914   48.4004 H   0  0  0  0  0  0  0  0  0  0  0  0
   60.7047   27.2446   47.2744 H   0  0  0  0  0  0  0  0  0  0  0  0
   59.4414   25.1136   47.1435 H   0  0  0  0  0  0  0  0  0  0  0  0
   56.9374   24.2908   45.3544 H   0  0  0  0  0  0  0  0  0  0  0  0
   57.3153   24.0535   47.0995 H   0  0  0  0  0  0  0  0  0  0  0  0
   55.5000   25.8270   47.1730 H   0  0  0  0  0  0  0  0  0  0  0  0
   55.1460   27.9700   45.2440 H   0  0  0  0  0  0  0  0  0  0  0  0
  1  2  1  0
  2  3  2  0
  2  4  1  0
  4  5  1  0
  5  6  2  0
  6  7  1  0
  7  8  2  0
  7  9  1  0
  9 10  1  0
 10 11  1  0
 11 12  2  0
 12 13  1  0
 13 14  2  0
 14 15  1  0
 15 16  2  0
  6 17  1  0
 17 18  2  0
 18 19  1  0
 19 20  1  0
 20 21  1  0
 19 22  2  0
 22 23  1  0
 22  5  1  0
 16 11  1  0
  1 24  1  0
  4 25  1  0
  4 26  1  0
 10 27  1  0
 10 28  1  0
 12 29  1  0
 13 30  1  0
 14 31  1  0
 15 32  1  0
 16 33  1  0
 17 34  1  0
 18 35  1  0
 20 36  1  0
 20 37  1  0
 21 38  1  0
 23 39  1  0
M  CHG  2   1  -1   9  -1
M  END
>  <UniqueID>  (7) 
7

>  <SMILES>  (7) 
[NH-]C(=O)Cc1c(C(=O)[N-]Cc2ccccc2)ccc(CO)c1O

>  <Energy>  (7) 
45.00600514393512

>  <Genealogy>  (7) 
[NH-]C(=O)Cc1c(C(=O)[N-]Cc2ccccc2)ccc(CO)c1O (protonated)
[NH-]C(=O)Cc1c(C(=O)[N-]Cc2ccccc2)ccc(CO)c1O (3D coordinates assigned)
[NH-]C(=O)Cc1c(C(=O)[N-]Cc2ccccc2)ccc(CO)c1O (optimized conformer: 45.00600514393512 kcal/mol)

>  <smiles>  (7) 
NC(=O)Cc1c(C(=O)NCc2ccccc2)ccc(CO)c1O

>  <score_type>  (7) 
oracle

>  <origin>  (7) 
adg

>  <m_score__min__energy>  (7) 
-12.41

>  <m_primary>  (7) 
energy

$$$$
7:0
     RDKit          3D

 31 32  0  0  0  0  0  0  0  0999 V2000
   63.6870   31.7240   47.3430 N   0  0  0  0  0  0  0  0  0  0  0  0
   62.9430   33.2760   47.5220 S   0  0  0  0  0  0  0  0  0  0  0  0
   63.3270   34.1330   46.3490 O   0  0  0  0  0  0  0  0  0  0  0  0
   63.4420   33.9050   48.7910 O   0  0  0  0  0  0  0  0  0  0  0  0
   61.1830   33.1270   47.5950 C   0  0  0  0  0  0  0  0  0  0  0  0
   60.4020   33.5680   46.5140 C   0  0  0  0  0  0  0  0  0  0  0  0
   59.0080   33.4440   46.5430 C   0  0  0  0  0  0  0  0  0  0  0  0
   58.0430   33.9760   45.1680 S   0  0  0  0  0  0  0  0  0  0  0  0
   58.7230   35.1510   44.5250 O   0  0  0  0  0  0  0  0  0  0  0  0
   56.6680   34.3870   45.6170 O   0  0  0  0  0  0  0  0  0  0  0  0
   57.8990   32.6980   44.0030 N   0  0  0  0  0  0  0  0  0  0  0  0
   57.6090   31.3280   44.3120 C   0  0  0  0  0  0  0  0  0  0  0  0
   56.3070   30.8020   44.2370 C   0  0  0  0  0  0  0  0  0  0  0  0
   56.0650   29.4640   44.5630 C   0  0  0  0  0  0  0  0  0  0  0  0
   54.7690   28.9660   44.4850 O   0  0  0  0  0  0  0  0  0  0  0  0
   57.1260   28.6330   44.9630 C   0  0  0  0  0  0  0  0  0  0  0  0
   56.9010   27.2960   45.2910 O   0  0  0  0  0  0  0  0  0  0  0  0
   58.4250   29.1540   45.0320 C   0  0  0  0  0  0  0  0  0  0  0  0
   59.7690   28.1380   45.5300 Cl  0  0  0  0  0  0  0  0  0  0  0  0
   58.6620   30.4950   44.7070 C   0  0  0  0  0  0  0  0  0  0  0  0
   58.3850   32.8870   47.6650 C   0  0  0  0  0  0  0  0  0  0  0  0
   59.1500   32.4460   48.7450 C   0  0  0  0  0  0  0  0  0  0  0  0
   60.5450   32.5590   48.7180 C   0  0  0  0  0  0  0  0  0  0  0  0
   61.4550   31.9710   50.1070 Cl  0  0  0  0  0  0  0  0  0  0  0  0
   64.5280   31.8560   46.7370 H   0  0  0  0  0  0  0  0  0  0  0  0
   60.8907   34.0153   45.6359 H   0  0  0  0  0  0  0  0  0  0  0  0
   55.4741   31.4469   43.9200 H   0  0  0  0  0  0  0  0  0  0  0  0
   56.3030   26.6970   44.7340 H   0  0  0  0  0  0  0  0  0  0  0  0
   59.6843   30.8972   44.7626 H   0  0  0  0  0  0  0  0  0  0  0  0
   57.2892   32.7966   47.6957 H   0  0  0  0  0  0  0  0  0  0  0  0
   58.6540   32.0068   49.6231 H   0  0  0  0  0  0  0  0  0  0  0  0
  1  2  1  0
  2  3  2  0
  2  4  2  0
  2  5  1  0
  5  6  2  0
  6  7  1  0
  7  8  1  0
  8  9  2  0
  8 10  2  0
  8 11  1  0
 11 12  1  0
 12 13  2  0
 13 14  1  0
 14 15  1  0
 14 16  2  0
 16 17  1  0
 16 18  1  0
 18 19  1  0
 18 20  2  0
  7 21  2  0
 21 22  1  0
 22 23  2  0
 23 24  1  0
 23  5  1  0
 20 12  1  0
  1 25  1  0
  6 26  1  0
 13 27  1  0
 17 28  1  0
 20 29  1  0
 21 30  1  0
 22 31  1  0
M  CHG  3   1  -1  11  -1  15  -1
M  END
>  <UniqueID>  (8) 
8

>  <SMILES>  (8) 
[NH-]S(=O)(=O)c1cc(S(=O)(=O)[N-]c2cc([O-])c(O)c(Cl)c2)ccc1Cl

>  <Energy>  (8) 
36.46855258462864

>  <Genealogy>  (8) 
[NH-]S(=O)(=O)c1cc(S(=O)(=O)[N-]c2cc([O-])c(O)c(Cl)c2)ccc1Cl (protonated)
[NH-]S(=O)(=O)c1cc(S(=O)(=O)[N-]c2cc([O-])c(O)c(Cl)c2)ccc1Cl (3D coordinates assigned)
[NH-]S(=O)(=O)c1cc(S(=O)(=O)[N-]c2cc([O-])c(O)c(Cl)c2)ccc1Cl (optimized conformer: 36.46855258462864 kcal/mol)

>  <smiles>  (8) 
NS(=O)(=O)c1cc(S(=O)(=O)Nc2cc(O)c(O)c(Cl)c2)ccc1Cl

>  <score_type>  (8) 
oracle

>  <origin>  (8) 
adg

>  <m_score__min__energy>  (8) 
-15.789999999999999

>  <m_primary>  (8) 
energy

$$$$
8:0
     RDKit          3D

 39 41  0  0  0  0  0  0  0  0999 V2000
   55.1450   29.3420   44.7980 N   0  0  0  0  0  0  0  0  0  0  0  0
   56.5230   29.3560   45.1630 C   0  0  0  0  0  0  0  0  0  0  0  0
   57.2360   30.3300   44.7990 O   0  0  0  0  0  0  0  0  0  0  0  0
   57.1240   28.2490   45.9570 C   0  0  0  0  0  0  0  0  0  0  0  0
   58.4080   28.4160   46.5140 C   0  0  0  0  0  0  0  0  0  0  0  0
   59.0020   27.4080   47.2800 C   0  0  0  0  0  0  0  0  0  0  0  0
   60.3220   27.6200   47.8000 N   0  0  0  0  0  0  0  0  0  0  0  0
   60.6790   27.7650   49.1810 C   0  0  0  0  0  0  0  0  0  0  0  0
   60.7230   26.7360   49.9080 O   0  0  0  0  0  0  0  0  0  0  0  0
   61.0500   29.0970   49.7720 C   0  0  0  0  0  0  0  0  0  0  0  0
   60.5090   30.1830   48.9530 N   0  0  0  0  0  0  0  0  0  0  0  0
   61.2020   30.9790   48.1100 C   0  0  0  0  0  0  0  0  0  0  0  0
   62.5580   30.8390   47.8400 O   0  0  0  0  0  0  0  0  0  0  0  0
   60.3740   31.9430   47.5710 C   0  0  0  0  0  0  0  0  0  0  0  0
   59.1180   31.7120   48.0850 C   0  0  0  0  0  0  0  0  0  0  0  0
   59.2390   30.6450   48.9530 C   0  0  0  0  0  0  0  0  0  0  0  0
   58.2140   30.1200   49.7310 O   0  0  0  0  0  0  0  0  0  0  0  0
   57.9310   32.5880   47.8200 C   0  0  0  0  0  0  0  0  0  0  0  0
   58.1630   33.4320   46.5500 C   0  0  0  0  0  0  0  0  0  0  0  0
   59.5720   34.0660   46.5320 C   0  0  0  0  0  0  0  0  0  0  0  0
   60.6820   32.9940   46.5490 C   0  0  0  0  0  0  0  0  0  0  0  0
   58.3280   26.1920   47.4600 C   0  0  0  0  0  0  0  0  0  0  0  0
   57.0560   26.0060   46.9160 C   0  0  0  0  0  0  0  0  0  0  0  0
   56.3970   24.7970   47.1130 O   0  0  0  0  0  0  0  0  0  0  0  0
   56.4470   27.0250   46.1730 C   0  0  0  0  0  0  0  0  0  0  0  0
   55.1760   26.8010   45.6560 O   0  0  0  0  0  0  0  0  0  0  0  0
   54.3960   29.3480   45.5250 H   0  0  0  0  0  0  0  0  0  0  0  0
   58.9527   29.3563   46.3431 H   0  0  0  0  0  0  0  0  0  0  0  0
   60.6387   29.1700   50.7896 H   0  0  0  0  0  0  0  0  0  0  0  0
   62.1462   29.1828   49.8024 H   0  0  0  0  0  0  0  0  0  0  0  0
   57.0395   31.9590   47.6801 H   0  0  0  0  0  0  0  0  0  0  0  0
   57.7850   33.2624   48.6767 H   0  0  0  0  0  0  0  0  0  0  0  0
   58.0524   32.7850   45.6673 H   0  0  0  0  0  0  0  0  0  0  0  0
   57.4220   34.2449   46.5396 H   0  0  0  0  0  0  0  0  0  0  0  0
   59.6776   34.6737   45.6212 H   0  0  0  0  0  0  0  0  0  0  0  0
   59.6803   34.6853   47.4347 H   0  0  0  0  0  0  0  0  0  0  0  0
   60.7495   32.5258   45.5559 H   0  0  0  0  0  0  0  0  0  0  0  0
   61.6384   33.4732   46.8055 H   0  0  0  0  0  0  0  0  0  0  0  0
   58.8033   25.3815   48.0320 H   0  0  0  0  0  0  0  0  0  0  0  0
  1  2  1  0
  2  3  2  0
  2  4  1  0
  4  5  2  0
  5  6  1  0
  6  7  1  0
  7  8  1  0
  8  9  2  0
  8 10  1  0
 10 11  1  0
 11 12  1  0
 12 13  1  0
 12 14  2  0
 14 15  1  0
 15 16  2  0
 16 17  1  0
 15 18  1  0
 18 19  1  0
 19 20  1  0
 20 21  1  0
  6 22  2  0
 22 23  1  0
 23 24  1  0
 23 25  2  0
 25 26  1  0
 25  4  1  0
 16 11  1  0
 21 14  1  0
  1 27  1  0
  5 28  1  0
 10 29  1  0
 10 30  1  0
 18 31  1  0
 18 32  1  0
 19 33  1  0
 19 34  1  0
 20 35  1  0
 20 36  1  0
 21 37  1  0
 21 38  1  0
 22 39  1  0
M  CHG  6   1  -1   7  -1  13  -1  17  -1  24  -1  26  -1
M  END
>  <UniqueID>  (9) 
9

>  <SMILES>  (9) 
[NH-]C(=O)c1cc([N-]C(=O)Cn2c([O-])c3c(c2[O-])CCCC3)cc([O-])c1[O-]

>  <Energy>  (9) 
75.70688870984823

>  <Genealogy>  (9) 
[NH-]C(=O)c1cc([N-]C(=O)Cn2c([O-])c3c(c2[O-])CCCC3)cc([O-])c1[O-] (protonated)
[NH-]C(=O)c1cc([N-]C(=O)Cn2c([O-])c3c(c2[O-])CCCC3)cc([O-])c1[O-] (3D coordinates assigned)
[NH-]C(=O)c1cc([N-]C(=O)Cn2c([O-])c3c(c2[O-])CCCC3)cc([O-])c1[O-] (nonaromatic ring conformer: 75.70688870984823 kcal/mol)

>  <smiles>  (9) 
NC(=O)c1cc(NC(=O)Cn2c(O)c3c(c2O)CCCC3)cc(O)c1O

>  <score_type>  (9) 
oracle

>  <origin>  (9) 
adg

>  <m_score__min__energy>  (9) 
-19.690000000000001

>  <m_primary>  (9) 
energy

$$$$
9:0
     RDKit          3D

 43 45  0  0  0  0  0  0  0  0999 V2000
   61.1930   33.4850   46.5060 N   0  0  0  0  0  0  0  0  0  0  0  0
   62.4300   32.8660   47.5420 S   0  0  0  0  0  0  0  0  0  0  0  0
   63.6340   32.4840   46.7230 O   0  0  0  0  0  0  0  0  0  0  0  0
   62.8320   33.9280   48.5290 O   0  0  0  0  0  0  0  0  0  0  0  0
   61.8220   31.4490   48.3940 C   0  0  0  0  0  0  0  0  0  0  0  0
   62.2760   31.1470   49.6840 C   0  0  0  0  0  0  0  0  0  0  0  0
   61.7900   30.0200   50.3510 C   0  0  0  0  0  0  0  0  0  0  0  0
   60.8470   29.1910   49.7370 C   0  0  0  0  0  0  0  0  0  0  0  0
   60.3720   29.4870   48.4460 C   0  0  0  0  0  0  0  0  0  0  0  0
   59.3680   28.6110   47.7900 C   0  0  0  0  0  0  0  0  0  0  0  0
   59.4260   27.2170   47.9460 C   0  0  0  0  0  0  0  0  0  0  0  0
   58.4780   26.3980   47.3290 C   0  0  0  0  0  0  0  0  0  0  0  0
   57.4630   26.9570   46.5480 C   0  0  0  0  0  0  0  0  0  0  0  0
   56.5230   26.1250   45.9450 O   0  0  0  0  0  0  0  0  0  0  0  0
   57.3900   28.3480   46.3760 C   0  0  0  0  0  0  0  0  0  0  0  0
   56.3370   28.8890   45.5650 N   0  0  0  0  0  0  0  0  0  0  0  0
   56.5320   29.5590   43.9780 S   0  0  0  0  0  0  0  0  0  0  0  0
   57.2930   28.5900   43.1140 O   0  0  0  0  0  0  0  0  0  0  0  0
   55.1770   29.7810   43.3680 O   0  0  0  0  0  0  0  0  0  0  0  0
   57.3630   31.1060   44.0850 C   0  0  0  0  0  0  0  0  0  0  0  0
   57.7340   31.7660   42.9090 C   0  0  0  0  0  0  0  0  0  0  0  0
   58.3770   33.0030   42.9680 C   0  0  0  0  0  0  0  0  0  0  0  0
   58.6500   33.5920   44.2040 C   0  0  0  0  0  0  0  0  0  0  0  0
   58.2820   32.9460   45.4000 C   0  0  0  0  0  0  0  0  0  0  0  0
   58.5580   33.5560   46.6760 N   0  0  0  0  0  0  0  0  0  0  0  0
   58.9490   34.7410   46.7400 O   0  0  0  0  0  0  0  0  0  0  0  0
   58.3770   32.8500   47.8460 O   0  0  0  0  0  0  0  0  0  0  0  0
   57.6390   31.6970   45.3290 C   0  0  0  0  0  0  0  0  0  0  0  0
   58.3480   29.1680   46.9960 C   0  0  0  0  0  0  0  0  0  0  0  0
   60.8670   30.6260   47.7830 C   0  0  0  0  0  0  0  0  0  0  0  0
   61.1010   34.5070   46.7150 H   0  0  0  0  0  0  0  0  0  0  0  0
   60.2970   33.0350   46.8000 H   0  0  0  0  0  0  0  0  0  0  0  0
   63.0161   31.7980   50.1724 H   0  0  0  0  0  0  0  0  0  0  0  0
   62.1507   29.7841   51.3631 H   0  0  0  0  0  0  0  0  0  0  0  0
   60.4739   28.3018   50.2662 H   0  0  0  0  0  0  0  0  0  0  0  0
   60.2223   26.7675   48.5574 H   0  0  0  0  0  0  0  0  0  0  0  0
   58.5305   25.3069   47.4585 H   0  0  0  0  0  0  0  0  0  0  0  0
   57.5178   31.3076   41.9327 H   0  0  0  0  0  0  0  0  0  0  0  0
   58.6692   33.5149   42.0392 H   0  0  0  0  0  0  0  0  0  0  0  0
   59.1562   34.5678   44.2439 H   0  0  0  0  0  0  0  0  0  0  0  0
   57.3499   31.1788   46.2552 H   0  0  0  0  0  0  0  0  0  0  0  0
   58.3002   30.2584   46.8592 H   0  0  0  0  0  0  0  0  0  0  0  0
   60.5004   30.8721   46.7755 H   0  0  0  0  0  0  0  0  0  0  0  0
  1  2  1  0
  2  3  2  0
  2  4  2  0
  2  5  1  0
  5  6  2  0
  6  7  1  0
  7  8  2  0
  8  9  1  0
  9 10  1  0
 10 11  2  0
 11 12  1  0
 12 13  2  0
 13 14  1  0
 13 15  1  0
 15 16  1  0
 16 17  1  0
 17 18  2  0
 17 19  2  0
 17 20  1  0
 20 21  2  0
 21 22  1  0
 22 23  2  0
 23 24  1  0
 24 25  1  0
 25 26  2  0
 25 27  1  0
 24 28  2  0
 15 29  2  0
  9 30  2  0
 30  5  1  0
 29 10  1  0
 28 20  1  0
  1 31  1  0
  1 32  1  0
  6 33  1  0
  7 34  1  0
  8 35  1  0
 11 36  1  0
 12 37  1  0
 21 38  1  0
 22 39  1  0
 23 40  1  0
 28 41  1  0
 29 42  1  0
 30 43  1  0
M  CHG  4  14  -1  16  -1  25   1  27  -1
M  END
>  <UniqueID>  (10) 
10

>  <SMILES>  (10) 
NS(=O)(=O)c1cccc(-c2ccc([O-])c([N-]S(=O)(=O)c3cccc([N+](=O)[O-])c3)c2)c1

>  <Energy>  (10) 
53.31528701036417

>  <Genealogy>  (10) 
NS(=O)(=O)c1cccc(-c2ccc([O-])c([N-]S(=O)(=O)c3cccc([N+](=O)[O-])c3)c2)c1 (protonated)
NS(=O)(=O)c1cccc(-c2ccc([O-])c([N-]S(=O)(=O)c3cccc([N+](=O)[O-])c3)c2)c1 (3D coordinates assigned)
NS(=O)(=O)c1cccc(-c2ccc([O-])c([N-]S(=O)(=O)c3cccc([N+](=O)[O-])c3)c2)c1 (optimized conformer: 53.31528701036417 kcal/mol)

>  <smiles>  (10) 
NS(=O)(=O)c1cccc(-c2ccc(O)c(NS(=O)(=O)c3cccc([N+](=O)[O-])c3)c2)c1

>  <score_type>  (10) 
oracle

>  <origin>  (10) 
adg

>  <m_score__min__energy>  (10) 
-13.44

>  <m_primary>  (10) 
energy

$$$$
10:0
     RDKit          3D

 48 49  0  0  0  0  0  0  0  0999 V2000
   57.4080   28.0680   47.0960 O   0  0  0  0  0  0  0  0  0  0  0  0
   57.0500   27.6120   45.9770 C   0  0  0  0  0  0  0  0  0  0  0  0
   57.6720   26.3490   45.4470 C   0  0  0  0  0  0  0  0  0  0  0  0
   58.7000   25.8610   46.3620 N   0  0  0  0  0  0  0  0  0  0  0  0
   60.0960   26.8940   46.2870 S   0  0  0  0  0  0  0  0  0  0  0  0
   59.9450   27.8620   45.1450 O   0  0  0  0  0  0  0  0  0  0  0  0
   61.3200   26.0560   46.0430 O   0  0  0  0  0  0  0  0  0  0  0  0
   60.2910   27.7720   47.8020 C   0  0  0  0  0  0  0  0  0  0  0  0
   60.4980   27.0830   49.0050 C   0  0  0  0  0  0  0  0  0  0  0  0
   60.6650   27.7940   50.1970 C   0  0  0  0  0  0  0  0  0  0  0  0
   60.6330   29.1920   50.1940 C   0  0  0  0  0  0  0  0  0  0  0  0
   60.4390   29.8810   48.9980 C   0  0  0  0  0  0  0  0  0  0  0  0
   60.2660   29.1750   47.8030 C   0  0  0  0  0  0  0  0  0  0  0  0
   56.0070   28.2820   45.2600 N   0  0  0  0  0  0  0  0  0  0  0  0
   56.2480   29.2720   44.2210 C   0  0  0  0  0  0  0  0  0  0  0  0
   56.9270   30.4660   44.8060 C   0  0  0  0  0  0  0  0  0  0  0  0
   56.3980   31.6040   44.6830 O   0  0  0  0  0  0  0  0  0  0  0  0
   58.1630   30.3180   45.5150 N   0  0  0  0  0  0  0  0  0  0  0  0
   59.0910   31.4320   45.6940 C   0  0  0  0  0  0  0  0  0  0  0  0
   58.6410   32.2670   46.8480 C   0  0  0  0  0  0  0  0  0  0  0  0
   58.3870   31.7190   47.9530 O   0  0  0  0  0  0  0  0  0  0  0  0
   58.5970   33.6590   46.7120 O   0  0  0  0  0  0  0  0  0  0  0  0
   59.4220   34.5450   47.4650 C   0  0  0  0  0  0  0  0  0  0  0  0
   60.6720   33.8260   47.9160 C   0  0  0  0  0  0  0  0  0  0  0  0
   61.6500   33.4980   46.9550 C   0  0  0  0  0  0  0  0  0  0  0  0
   61.4900   33.8580   45.6560 F   0  0  0  0  0  0  0  0  0  0  0  0
   62.7920   32.7830   47.3230 C   0  0  0  0  0  0  0  0  0  0  0  0
   62.9750   32.3880   48.6470 C   0  0  0  0  0  0  0  0  0  0  0  0
   62.0190   32.7070   49.6110 C   0  0  0  0  0  0  0  0  0  0  0  0
   60.8690   33.4230   49.2590 C   0  0  0  0  0  0  0  0  0  0  0  0
   59.7090   33.7840   50.5350 Cl  0  0  0  0  0  0  0  0  0  0  0  0
   56.8925   25.5809   45.3357 H   0  0  0  0  0  0  0  0  0  0  0  0
   58.1360   26.5631   44.4729 H   0  0  0  0  0  0  0  0  0  0  0  0
   60.5290   25.9835   49.0111 H   0  0  0  0  0  0  0  0  0  0  0  0
   60.8222   27.2516   51.1410 H   0  0  0  0  0  0  0  0  0  0  0  0
   60.7608   29.7475   51.1348 H   0  0  0  0  0  0  0  0  0  0  0  0
   60.4219   30.9809   48.9939 H   0  0  0  0  0  0  0  0  0  0  0  0
   60.1099   29.7213   46.8611 H   0  0  0  0  0  0  0  0  0  0  0  0
   56.8880   28.8339   43.4409 H   0  0  0  0  0  0  0  0  0  0  0  0
   55.2869   29.5796   43.7833 H   0  0  0  0  0  0  0  0  0  0  0  0
   58.4930   29.3570   45.7620 H   0  0  0  0  0  0  0  0  0  0  0  0
   60.0998   31.0417   45.8938 H   0  0  0  0  0  0  0  0  0  0  0  0
   59.1122   32.0451   44.7809 H   0  0  0  0  0  0  0  0  0  0  0  0
   59.7018   35.4043   46.8378 H   0  0  0  0  0  0  0  0  0  0  0  0
   58.8667   34.8940   48.3480 H   0  0  0  0  0  0  0  0  0  0  0  0
   63.5490   32.5310   46.5658 H   0  0  0  0  0  0  0  0  0  0  0  0
   63.8751   31.8236   48.9321 H   0  0  0  0  0  0  0  0  0  0  0  0
   62.1697   32.3939   50.6547 H   0  0  0  0  0  0  0  0  0  0  0  0
  1  2  2  0
  2  3  1  0
  3  4  1  0
  4  5  1  0
  5  6  2  0
  5  7  2  0
  5  8  1  0
  8  9  2  0
  9 10  1  0
 10 11  2  0
 11 12  1  0
 12 13  2  0
  2 14  1  0
 14 15  1  0
 15 16  1  0
 16 17  2  0
 16 18  1  0
 18 19  1  0
 19 20  1  0
 20 21  2  0
 20 22  1  0
 22 23  1  0
 23 24  1  0
 24 25  2  0
 25 26  1  0
 25 27  1  0
 27 28  2  0
 28 29  1  0
 29 30  2  0
 30 31  1  0
 13  8  1  0
 30 24  1  0
  3 32  1  0
  3 33  1  0
  9 34  1  0
 10 35  1  0
 11 36  1  0
 12 37  1  0
 13 38  1  0
 15 39  1  0
 15 40  1  0
 18 41  1  0
 19 42  1  0
 19 43  1  0
 23 44  1  0
 23 45  1  0
 27 46  1  0
 28 47  1  0
 29 48  1  0
M  CHG  2   4  -1  14  -1
M  END
>  <UniqueID>  (11) 
11

>  <SMILES>  (11) 
O=C(C[N-]S(=O)(=O)c1ccccc1)[N-]CC(=O)NCC(=O)OCc1c(F)cccc1Cl

>  <Energy>  (11) 
36.844542949139885

>  <Genealogy>  (11) 
O=C(C[N-]S(=O)(=O)c1ccccc1)[N-]CC(=O)NCC(=O)OCc1c(F)cccc1Cl (protonated)
O=C(C[N-]S(=O)(=O)c1ccccc1)[N-]CC(=O)NCC(=O)OCc1c(F)cccc1Cl (3D coordinates assigned)
O=C(C[N-]S(=O)(=O)c1ccccc1)[N-]CC(=O)NCC(=O)OCc1c(F)cccc1Cl (optimized conformer: 36.844542949139885 kcal/mol)

>  <smiles>  (11) 
O=C(CNC(=O)CNS(=O)(=O)c1ccccc1)NCC(=O)OCc1c(F)cccc1Cl

>  <score_type>  (11) 
oracle

>  <origin>  (11) 
adg

>  <m_score__min__energy>  (11) 
-11.960000000000001

>  <m_primary>  (11) 
energy

$$$$
11:0
     RDKit          3D

 61 64  0  0  0  0  0  0  0  0999 V2000
   55.1480   27.5740   45.4610 H   0  0  0  0  0  0  0  0  0  0  0  0
   55.2500   26.7190   45.9930 O   0  0  0  0  0  0  0  0  0  0  0  0
   56.4590   26.0250   46.0350 C   0  0  0  0  0  0  0  0  0  0  0  0
   56.5810   24.8580   46.8020 C   0  0  0  0  0  0  0  0  0  0  0  0
   55.7206   24.4847   47.3767 H   0  0  0  0  0  0  0  0  0  0  0  0
   57.7950   24.1700   46.8360 C   0  0  0  0  0  0  0  0  0  0  0  0
   57.8993   23.2565   47.4399 H   0  0  0  0  0  0  0  0  0  0  0  0
   58.8750   24.6530   46.0960 C   0  0  0  0  0  0  0  0  0  0  0  0
   59.8357   24.1174   46.1106 H   0  0  0  0  0  0  0  0  0  0  0  0
   58.7390   25.7860   45.3570 N   0  0  0  0  0  0  0  0  0  0  0  0
   57.5700   26.4880   45.3130 C   0  0  0  0  0  0  0  0  0  0  0  0
   57.4630   27.5660   44.5880 N   0  0  0  0  0  0  0  0  0  0  0  0
   57.1600   28.8840   45.0720 C   0  0  0  0  0  0  0  0  0  0  0  0
   55.9730   29.2950   44.9860 O   0  0  0  0  0  0  0  0  0  0  0  0
   58.1780   29.7420   45.7240 C   0  0  0  0  0  0  0  0  0  0  0  0
   58.2340   31.1160   45.4360 C   0  0  0  0  0  0  0  0  0  0  0  0
   57.5307   31.5505   44.7104 H   0  0  0  0  0  0  0  0  0  0  0  0
   59.1760   31.9350   46.0640 C   0  0  0  0  0  0  0  0  0  0  0  0
   59.2144   33.0077   45.8237 H   0  0  0  0  0  0  0  0  0  0  0  0
   60.0740   31.3970   47.0000 C   0  0  0  0  0  0  0  0  0  0  0  0
   61.0290   32.2440   47.6660 N   0  0  0  0  0  0  0  0  0  0  0  0
   60.5470   33.4690   48.3240 C   0  0  0  0  0  0  0  0  0  0  0  0
   59.8240   33.1932   49.1058 H   0  0  0  0  0  0  0  0  0  0  0  0
   60.0772   34.1068   47.5608 H   0  0  0  0  0  0  0  0  0  0  0  0
   61.6980   34.2580   48.9660 C   0  0  0  0  0  0  0  0  0  0  0  0
   61.2819   34.9883   49.6756 H   0  0  0  0  0  0  0  0  0  0  0  0
   62.2586   34.7706   48.1704 H   0  0  0  0  0  0  0  0  0  0  0  0
   62.6650   33.3120   49.7210 C   0  0  0  0  0  0  0  0  0  0  0  0
   63.7740   34.1190   50.4390 C   0  0  0  0  0  0  0  0  0  0  0  0
   64.7235   34.0146   49.8936 H   0  0  0  0  0  0  0  0  0  0  0  0
   63.5064   35.1853   50.4755 H   0  0  0  0  0  0  0  0  0  0  0  0
   63.9200   33.5830   51.8020 N   0  0  0  0  0  0  0  0  0  0  0  0
   65.3190   33.3500   52.2260 C   0  0  0  0  0  0  0  0  0  0  0  0
   65.4726   32.2651   52.3229 H   0  0  0  0  0  0  0  0  0  0  0  0
   65.4524   33.8895   53.1753 H   0  0  0  0  0  0  0  0  0  0  0  0
   66.3850   33.9040   51.2510 C   0  0  0  0  0  0  0  0  0  0  0  0
   67.1541   34.4392   51.8273 H   0  0  0  0  0  0  0  0  0  0  0  0
   65.8879   34.5822   50.5418 H   0  0  0  0  0  0  0  0  0  0  0  0
   67.0530   32.7740   50.4540 C   0  0  0  0  0  0  0  0  0  0  0  0
   68.0489   32.5763   50.8771 H   0  0  0  0  0  0  0  0  0  0  0  0
   67.1345   33.0890   49.4032 H   0  0  0  0  0  0  0  0  0  0  0  0
   66.2240   31.4950   50.5130 C   0  0  0  0  0  0  0  0  0  0  0  0
   66.0465   31.2212   51.5635 H   0  0  0  0  0  0  0  0  0  0  0  0
   65.2601   31.6592   50.0090 H   0  0  0  0  0  0  0  0  0  0  0  0
   66.7675   30.6822   50.0090 H   0  0  0  0  0  0  0  0  0  0  0  0
   63.0170   32.4370   51.9470 C   0  0  0  0  0  0  0  0  0  0  0  0
   63.5656   31.4966   51.7900 H   0  0  0  0  0  0  0  0  0  0  0  0
   62.5787   32.3962   52.9551 H   0  0  0  0  0  0  0  0  0  0  0  0
   61.9480   32.6060   50.8850 C   0  0  0  0  0  0  0  0  0  0  0  0
   61.5598   31.6276   50.5657 H   0  0  0  0  0  0  0  0  0  0  0  0
   61.0833   33.1790   51.2511 H   0  0  0  0  0  0  0  0  0  0  0  0
   63.2800   32.2590   48.7330 C   0  0  0  0  0  0  0  0  0  0  0  0
   63.3508   31.2950   49.2580 H   0  0  0  0  0  0  0  0  0  0  0  0
   64.2599   32.6525   48.4249 H   0  0  0  0  0  0  0  0  0  0  0  0
   62.4660   32.0460   47.4420 C   0  0  0  0  0  0  0  0  0  0  0  0
   62.6323   31.0203   47.0811 H   0  0  0  0  0  0  0  0  0  0  0  0
   62.8018   32.7850   46.6997 H   0  0  0  0  0  0  0  0  0  0  0  0
   60.0140   30.0260   47.2950 C   0  0  0  0  0  0  0  0  0  0  0  0
   60.7135   29.5936   48.0256 H   0  0  0  0  0  0  0  0  0  0  0  0
   59.0730   29.2070   46.6680 C   0  0  0  0  0  0  0  0  0  0  0  0
   59.0313   28.1357   46.9140 H   0  0  0  0  0  0  0  0  0  0  0  0
  1  2  1  0
  2  3  1  0
  3  4  2  0
  4  5  1  0
  4  6  1  0
  6  7  1  0
  6  8  2  0
  8  9  1  0
  8 10  1  0
 10 11  1  0
 11 12  2  0
 12 13  1  0
 13 14  2  0
 13 15  1  0
 15 16  2  0
 16 17  1  0
 16 18  1  0
 18 19  1  0
 18 20  2  0
 20 21  1  0
 21 22  1  0
 22 23  1  0
 22 24  1  0
 22 25  1  0
 25 26  1  0
 25 27  1  0
 25 28  1  0
 28 29  1  0
 29 30  1  0
 29 31  1  0
 29 32  1  0
 32 33  1  0
 33 34  1  0
 33 35  1  0
 33 36  1  0
 36 37  1  0
 36 38  1  0
 36 39  1  0
 39 40  1  0
 39 41  1  0
 39 42  1  0
 42 43  1  0
 42 44  1  0
 42 45  1  0
 32 46  1  0
 46 47  1  0
 46 48  1  0
 46 49  1  0
 49 50  1  0
 49 51  1  0
 28 52  1  0
 52 53  1  0
 52 54  1  0
 52 55  1  0
 55 56  1  0
 55 57  1  0
 20 58  1  0
 58 59  1  0
 58 60  2  0
 60 61  1  0
 11  3  1  0
 60 15  1  0
 55 21  1  0
 49 28  1  0
M  CHG  1  10  -1
M  END
>  <UniqueID>  (12) 
12

>  <SMILES>  (12) 
CCCCN1CCC2(CCN(c3ccc(C(=O)/N=c4\[n-]cccc4O)cc3)CC2)C1

>  <Energy>  (12) 
84.00862993904073

>  <Genealogy>  (12) 
CCCCN1CCC2(CCN(c3ccc(C(=O)N=c4[n-]cccc4O)cc3)CC2)C1 (protonated)
CCCCN1CCC2(CCN(c3ccc(C(=O)/N=c4\[n-]cccc4O)cc3)CC2)C1 (cis-trans isomerization)
CCCCN1CCC2(CCN(c3ccc(C(=O)/N=c4\[n-]cccc4O)cc3)CC2)C1 (3D coordinates assigned)
CCCCN1CCC2(CCN(c3ccc(C(=O)/N=c4\[n-]cccc4O)cc3)CC2)C1 (nonaromatic ring conformer: 84.00862993904073 kcal/mol)

>  <smiles>  (12) 
CCCCN1CCC2(CCN(c3ccc(C(=O)N=c4[nH]cccc4O)cc3)CC2)C1

>  <score_type>  (12) 
oracle

>  <origin>  (12) 
adg

>  <m_score__min__energy>  (12) 
-10.85

>  <m_primary>  (12) 
energy

$$$$
12:0
     RDKit          3D

 53 56  0  0  0  0  0  0  0  0999 V2000
   58.6000   27.2110   43.7560 O   0  0  0  0  0  0  0  0  0  0  0  0
   58.1770   27.6710   44.8500 C   0  0  0  0  0  0  0  0  0  0  0  0
   57.5130   26.7790   45.7570 N   0  0  0  0  0  0  0  0  0  0  0  0
   56.8900   25.6730   45.4530 C   0  0  0  0  0  0  0  0  0  0  0  0
   57.5530   24.5810   44.9540 N   0  0  0  0  0  0  0  0  0  0  0  0
   56.8960   23.4290   44.6440 C   0  0  0  0  0  0  0  0  0  0  0  0
   55.5140   23.3380   44.8170 C   0  0  0  0  0  0  0  0  0  0  0  0
   54.8130   24.4390   45.3030 C   0  0  0  0  0  0  0  0  0  0  0  0
   55.4970   25.6140   45.6210 C   0  0  0  0  0  0  0  0  0  0  0  0
   54.7930   26.7110   46.1070 O   0  0  0  0  0  0  0  0  0  0  0  0
   58.3000   29.1240   45.1310 C   0  0  0  0  0  0  0  0  0  0  0  0
   57.5080   30.0500   44.4300 C   0  0  0  0  0  0  0  0  0  0  0  0
   57.6280   31.4210   44.6820 C   0  0  0  0  0  0  0  0  0  0  0  0
   58.5410   31.8840   45.6370 C   0  0  0  0  0  0  0  0  0  0  0  0
   58.7370   33.6110   45.9130 S   0  0  0  0  0  0  0  0  0  0  0  0
   59.3050   34.2720   44.6870 O   0  0  0  0  0  0  0  0  0  0  0  0
   57.3920   34.2240   46.1940 O   0  0  0  0  0  0  0  0  0  0  0  0
   59.8060   33.8760   47.2580 N   0  0  0  0  0  0  0  0  0  0  0  0
   59.2890   34.4660   48.4970 C   0  0  0  0  0  0  0  0  0  0  0  0
   59.2630   33.4380   49.5970 C   0  0  0  0  0  0  0  0  0  0  0  0
   58.5850   32.2200   49.4200 C   0  0  0  0  0  0  0  0  0  0  0  0
   58.5350   31.2840   50.4570 C   0  0  0  0  0  0  0  0  0  0  0  0
   59.1540   31.5570   51.6790 C   0  0  0  0  0  0  0  0  0  0  0  0
   59.8300   32.7660   51.8650 C   0  0  0  0  0  0  0  0  0  0  0  0
   59.8860   33.7030   50.8280 C   0  0  0  0  0  0  0  0  0  0  0  0
   61.1820   33.4760   47.1610 C   0  0  0  0  0  0  0  0  0  0  0  0
   62.0760   34.2150   46.3710 C   0  0  0  0  0  0  0  0  0  0  0  0
   63.4200   33.8380   46.2900 C   0  0  0  0  0  0  0  0  0  0  0  0
   63.8780   32.7220   46.9960 C   0  0  0  0  0  0  0  0  0  0  0  0
   62.9930   31.9830   47.7850 C   0  0  0  0  0  0  0  0  0  0  0  0
   61.6480   32.3580   47.8700 C   0  0  0  0  0  0  0  0  0  0  0  0
   59.3180   30.9660   46.3520 C   0  0  0  0  0  0  0  0  0  0  0  0
   59.1960   29.5970   46.1060 C   0  0  0  0  0  0  0  0  0  0  0  0
   58.5800   24.6070   44.7730 H   0  0  0  0  0  0  0  0  0  0  0  0
   57.4571   22.5663   44.2555 H   0  0  0  0  0  0  0  0  0  0  0  0
   54.9837   22.4059   44.5719 H   0  0  0  0  0  0  0  0  0  0  0  0
   53.7225   24.3830   45.4361 H   0  0  0  0  0  0  0  0  0  0  0  0
   56.7886   29.6941   43.6778 H   0  0  0  0  0  0  0  0  0  0  0  0
   57.0032   32.1372   44.1282 H   0  0  0  0  0  0  0  0  0  0  0  0
   59.9368   35.3025   48.7979 H   0  0  0  0  0  0  0  0  0  0  0  0
   58.2646   34.8257   48.3205 H   0  0  0  0  0  0  0  0  0  0  0  0
   58.0915   32.0022   48.4613 H   0  0  0  0  0  0  0  0  0  0  0  0
   58.0070   30.3302   50.3103 H   0  0  0  0  0  0  0  0  0  0  0  0
   59.1094   30.8205   52.4949 H   0  0  0  0  0  0  0  0  0  0  0  0
   60.3181   32.9807   52.8271 H   0  0  0  0  0  0  0  0  0  0  0  0
   60.4208   34.6526   50.9771 H   0  0  0  0  0  0  0  0  0  0  0  0
   61.7183   35.0934   45.8138 H   0  0  0  0  0  0  0  0  0  0  0  0
   64.1176   34.4203   45.6701 H   0  0  0  0  0  0  0  0  0  0  0  0
   64.9353   32.4256   46.9304 H   0  0  0  0  0  0  0  0  0  0  0  0
   63.3544   31.1049   48.3403 H   0  0  0  0  0  0  0  0  0  0  0  0
   60.9542   31.7754   48.4938 H   0  0  0  0  0  0  0  0  0  0  0  0
   60.0283   31.3245   47.1115 H   0  0  0  0  0  0  0  0  0  0  0  0
   59.8055   28.8830   46.6793 H   0  0  0  0  0  0  0  0  0  0  0  0
  1  2  2  0
  2  3  1  0
  3  4  2  3
  4  5  1  0
  5  6  1  0
  6  7  2  0
  7  8  1  0
  8  9  2  0
  9 10  1  0
  2 11  1  0
 11 12  2  0
 12 13  1  0
 13 14  2  0
 14 15  1  0
 15 16  2  0
 15 17  2  0
 15 18  1  0
 18 19  1  0
 19 20  1  0
 20 21  2  0
 21 22  1  0
 22 23  2  0
 23 24  1  0
 24 25  2  0
 18 26  1  0
 26 27  2  0
 27 28  1  0
 28 29  2  0
 29 30  1  0
 30 31  2  0
 14 32  1  0
 32 33  2  0
  9  4  1  0
 33 11  1  0
 25 20  1  0
 31 26  1  0
  5 34  1  0
  6 35  1  0
  7 36  1  0
  8 37  1  0
 12 38  1  0
 13 39  1  0
 19 40  1  0
 19 41  1  0
 21 42  1  0
 22 43  1  0
 23 44  1  0
 24 45  1  0
 25 46  1  0
 27 47  1  0
 28 48  1  0
 29 49  1  0
 30 50  1  0
 31 51  1  0
 32 52  1  0
 33 53  1  0
M  CHG  1  10  -1
M  END
>  <UniqueID>  (13) 
13

>  <SMILES>  (13) 
O=C(N=c1[nH]cccc1[O-])c1ccc(S(=O)(=O)N(Cc2ccccc2)c2ccccc2)cc1

>  <Energy>  (13) 
69.50745458086638

>  <Genealogy>  (13) 
O=C(N=c1[nH]cccc1[O-])c1ccc(S(=O)(=O)N(Cc2ccccc2)c2ccccc2)cc1 (protonated)
O=C(N=c1[nH]cccc1[O-])c1ccc(S(=O)(=O)N(Cc2ccccc2)c2ccccc2)cc1 (3D coordinates assigned)
O=C(N=c1[nH]cccc1[O-])c1ccc(S(=O)(=O)N(Cc2ccccc2)c2ccccc2)cc1 (optimized conformer: 69.50745458086638 kcal/mol)

>  <smiles>  (13) 
O=C(N=c1[nH]cccc1O)c1ccc(S(=O)(=O)N(Cc2ccccc2)c2ccccc2)cc1

>  <score_type>  (13) 
oracle

>  <origin>  (13) 
adg

>  <m_score__min__energy>  (13) 
-12.91

>  <m_primary>  (13) 
energy

$$$$
13:0
     RDKit          3D

 60 63  0  0  0  0  0  0  0  0999 V2000
   53.1830   29.3950   54.5490 C   0  0  0  0  0  0  0  0  0  0  0  0
   54.3300   30.2420   54.5680 O   0  0  0  0  0  0  0  0  0  0  0  0
   55.3480   30.2200   53.6020 C   0  0  0  0  0  0  0  0  0  0  0  0
   55.4180   31.1580   52.5550 C   0  0  0  0  0  0  0  0  0  0  0  0
   56.4670   31.1100   51.6360 C   0  0  0  0  0  0  0  0  0  0  0  0
   57.4590   30.1170   51.7400 C   0  0  0  0  0  0  0  0  0  0  0  0
   58.4980   29.9840   50.7570 N   0  0  0  0  0  0  0  0  0  0  0  0
   59.6230   30.8650   50.6260 C   0  0  0  0  0  0  0  0  0  0  0  0
   60.0810   31.4650   51.6390 O   0  0  0  0  0  0  0  0  0  0  0  0
   60.3180   30.9910   49.3240 C   0  0  0  0  0  0  0  0  0  0  0  0
   61.6030   31.5430   49.2690 C   0  0  0  0  0  0  0  0  0  0  0  0
   62.2870   31.5900   48.0580 C   0  0  0  0  0  0  0  0  0  0  0  0
   61.6860   31.0840   46.9070 C   0  0  0  0  0  0  0  0  0  0  0  0
   60.4180   30.5700   46.9450 N   0  0  0  0  0  0  0  0  0  0  0  0
   59.8350   30.0210   45.7070 C   0  0  0  0  0  0  0  0  0  0  0  0
   59.3000   28.6250   45.9440 C   0  0  0  0  0  0  0  0  0  0  0  0
   59.9680   27.7900   46.8580 C   0  0  0  0  0  0  0  0  0  0  0  0
   59.4970   26.5040   47.1250 C   0  0  0  0  0  0  0  0  0  0  0  0
   58.3440   26.0380   46.4930 C   0  0  0  0  0  0  0  0  0  0  0  0
   57.6750   26.8470   45.5730 C   0  0  0  0  0  0  0  0  0  0  0  0
   58.1460   28.1420   45.2830 C   0  0  0  0  0  0  0  0  0  0  0  0
   57.4260   28.9840   44.3660 N   0  0  0  0  0  0  0  0  0  0  0  0
   56.2920   29.7940   44.7050 C   0  0  0  0  0  0  0  0  0  0  0  0
   55.1600   29.2630   44.8690 O   0  0  0  0  0  0  0  0  0  0  0  0
   56.4200   31.2130   44.8380 N   0  0  0  0  0  0  0  0  0  0  0  0
   57.4560   32.0130   44.1900 C   0  0  0  0  0  0  0  0  0  0  0  0
   58.0950   32.9300   45.1920 C   0  0  0  0  0  0  0  0  0  0  0  0
   57.8090   32.7910   46.5610 C   0  0  0  0  0  0  0  0  0  0  0  0
   58.3970   33.6510   47.4980 C   0  0  0  0  0  0  0  0  0  0  0  0
   59.2910   34.6390   47.0760 C   0  0  0  0  0  0  0  0  0  0  0  0
   59.5790   34.7860   45.7130 C   0  0  0  0  0  0  0  0  0  0  0  0
   58.9760   33.9440   44.7750 C   0  0  0  0  0  0  0  0  0  0  0  0
   59.7210   30.5420   48.1270 C   0  0  0  0  0  0  0  0  0  0  0  0
   58.5260   30.1460   48.1440 O   0  0  0  0  0  0  0  0  0  0  0  0
   57.3690   29.1710   52.7690 C   0  0  0  0  0  0  0  0  0  0  0  0
   56.3300   29.2280   53.6970 C   0  0  0  0  0  0  0  0  0  0  0  0
   52.8770   29.1690   55.5811 H   0  0  0  0  0  0  0  0  0  0  0  0
   52.3601   29.9038   54.0256 H   0  0  0  0  0  0  0  0  0  0  0  0
   53.4272   28.4588   54.0256 H   0  0  0  0  0  0  0  0  0  0  0  0
   54.6424   31.9323   52.4607 H   0  0  0  0  0  0  0  0  0  0  0  0
   56.5189   31.8523   50.8259 H   0  0  0  0  0  0  0  0  0  0  0  0
   58.4380   29.1800   50.0900 H   0  0  0  0  0  0  0  0  0  0  0  0
   62.0717   31.9392   50.1819 H   0  0  0  0  0  0  0  0  0  0  0  0
   63.2965   32.0242   48.0096 H   0  0  0  0  0  0  0  0  0  0  0  0
   62.2378   31.0979   45.9555 H   0  0  0  0  0  0  0  0  0  0  0  0
   59.0127   30.6718   45.3750 H   0  0  0  0  0  0  0  0  0  0  0  0
   60.6183   29.9746   44.9361 H   0  0  0  0  0  0  0  0  0  0  0  0
   60.8718   28.1550   47.3679 H   0  0  0  0  0  0  0  0  0  0  0  0
   60.0350   25.8575   47.8340 H   0  0  0  0  0  0  0  0  0  0  0  0
   57.9616   25.0319   46.7199 H   0  0  0  0  0  0  0  0  0  0  0  0
   56.7722   26.4697   45.0703 H   0  0  0  0  0  0  0  0  0  0  0  0
   58.2210   31.3454   43.7668 H   0  0  0  0  0  0  0  0  0  0  0  0
   57.0014   32.6133   43.3881 H   0  0  0  0  0  0  0  0  0  0  0  0
   57.1199   32.0029   46.8987 H   0  0  0  0  0  0  0  0  0  0  0  0
   58.1549   33.5485   48.5661 H   0  0  0  0  0  0  0  0  0  0  0  0
   59.7682   35.3008   47.8138 H   0  0  0  0  0  0  0  0  0  0  0  0
   60.2807   35.5652   45.3807 H   0  0  0  0  0  0  0  0  0  0  0  0
   59.1915   34.0749   43.7043 H   0  0  0  0  0  0  0  0  0  0  0  0
   58.1251   28.3757   52.8457 H   0  0  0  0  0  0  0  0  0  0  0  0
   56.2820   28.4879   54.5094 H   0  0  0  0  0  0  0  0  0  0  0  0
  1  2  1  0
  2  3  1  0
  3  4  2  0
  4  5  1  0
  5  6  2  0
  6  7  1  0
  7  8  1  0
  8  9  2  0
  8 10  1  0
 10 11  2  0
 11 12  1  0
 12 13  2  0
 13 14  1  0
 14 15  1  0
 15 16  1  0
 16 17  2  0
 17 18  1  0
 18 19  2  0
 19 20  1  0
 20 21  2  0
 21 22  1  0
 22 23  1  0
 23 24  2  0
 23 25  1  0
 25 26  1  0
 26 27  1  0
 27 28  2  0
 28 29  1  0
 29 30  2  0
 30 31  1  0
 31 32  2  0
 14 33  1  0
 33 34  2  0
  6 35  1  0
 35 36  2  0
 36  3  1  0
 33 10  1  0
 21 16  1  0
 32 27  1  0
  1 37  1  0
  1 38  1  0
  1 39  1  0
  4 40  1  0
  5 41  1  0
  7 42  1  0
 11 43  1  0
 12 44  1  0
 13 45  1  0
 15 46  1  0
 15 47  1  0
 17 48  1  0
 18 49  1  0
 19 50  1  0
 20 51  1  0
 26 52  1  0
 26 53  1  0
 28 54  1  0
 29 55  1  0
 30 56  1  0
 31 57  1  0
 32 58  1  0
 35 59  1  0
 36 60  1  0
M  CHG  2  22  -1  25  -1
M  END
>  <UniqueID>  (14) 
14

>  <SMILES>  (14) 
COc1ccc(NC(=O)c2cccn(Cc3ccccc3[N-]C(=O)[N-]Cc3ccccc3)c2=O)cc1

>  <Energy>  (14) 
73.67303694949898

>  <Genealogy>  (14) 
COc1ccc(NC(=O)c2cccn(Cc3ccccc3[N-]C(=O)[N-]Cc3ccccc3)c2=O)cc1 (protonated)
COc1ccc(NC(=O)c2cccn(Cc3ccccc3[N-]C(=O)[N-]Cc3ccccc3)c2=O)cc1 (3D coordinates assigned)
COc1ccc(NC(=O)c2cccn(Cc3ccccc3[N-]C(=O)[N-]Cc3ccccc3)c2=O)cc1 (optimized conformer: 73.67303694949898 kcal/mol)

>  <smiles>  (14) 
COc1ccc(NC(=O)c2cccn(Cc3ccccc3NC(=O)NCc3ccccc3)c2=O)cc1

>  <score_type>  (14) 
oracle

>  <origin>  (14) 
adg

>  <m_score__min__energy>  (14) 
-13.76

>  <m_primary>  (14) 
energy

$$$$
14:0
     RDKit          3D

 38 39  0  0  0  0  0  0  0  0999 V2000
   55.2820   26.7110   46.1540 N   0  0  0  0  0  0  0  0  0  0  0  0
   56.2630   27.5990   45.6230 C   0  0  0  0  0  0  0  0  0  0  0  0
   57.4530   27.2140   45.5040 O   0  0  0  0  0  0  0  0  0  0  0  0
   55.9100   28.9260   45.2210 N   0  0  0  0  0  0  0  0  0  0  0  0
   56.7500   29.7730   44.3830 C   0  0  0  0  0  0  0  0  0  0  0  0
   57.9280   30.3330   45.1860 C   0  0  0  0  0  0  0  0  0  0  0  0
   57.6010   32.0270   45.8060 S   0  0  0  0  0  0  0  0  0  0  0  0
   59.2700   32.8300   45.7820 C   0  0  1  0  0  0  0  0  0  0  0  0
   59.3240   34.1110   44.9150 C   0  0  0  0  0  0  0  0  0  0  0  0
   59.6250   35.3810   45.7250 C   0  0  0  0  0  0  0  0  0  0  0  0
   59.0030   35.3090   47.0480 N   0  0  0  0  0  0  0  0  0  0  0  0
   59.6650   34.3120   47.9050 C   0  0  0  0  0  0  0  0  0  0  0  0
   59.9920   32.9900   47.1500 C   0  0  1  0  0  0  0  0  0  0  0  0
   59.9210   31.7270   48.0080 C   0  0  0  0  0  0  0  0  0  0  0  0
   58.9100   31.5520   48.9790 C   0  0  0  0  0  0  0  0  0  0  0  0
   58.8260   30.3690   49.7160 C   0  0  0  0  0  0  0  0  0  0  0  0
   59.7430   29.3400   49.5030 C   0  0  0  0  0  0  0  0  0  0  0  0
   60.7350   29.4840   48.5330 C   0  0  0  0  0  0  0  0  0  0  0  0
   60.8240   30.6620   47.7810 C   0  0  0  0  0  0  0  0  0  0  0  0
   61.8140   30.7590   46.8080 O   0  0  0  0  0  0  0  0  0  0  0  0
   54.5100   27.0690   46.7610 H   0  0  0  0  0  0  0  0  0  0  0  0
   57.1366   29.1787   43.5420 H   0  0  0  0  0  0  0  0  0  0  0  0
   56.1449   30.6130   44.0112 H   0  0  0  0  0  0  0  0  0  0  0  0
   58.1175   29.6720   46.0446 H   0  0  0  0  0  0  0  0  0  0  0  0
   58.8001   30.3808   44.5172 H   0  0  0  0  0  0  0  0  0  0  0  0
   59.8836   32.0712   45.2744 H   0  0  0  0  0  0  0  0  0  0  0  0
   60.1107   33.9862   44.1564 H   0  0  0  0  0  0  0  0  0  0  0  0
   58.3294   34.2408   44.4635 H   0  0  0  0  0  0  0  0  0  0  0  0
   60.7137   35.4849   45.8428 H   0  0  0  0  0  0  0  0  0  0  0  0
   59.2153   36.2491   45.1878 H   0  0  0  0  0  0  0  0  0  0  0  0
   59.1020   36.2460   47.5040 H   0  0  0  0  0  0  0  0  0  0  0  0
   60.6040   34.7420   48.2838 H   0  0  0  0  0  0  0  0  0  0  0  0
   58.9712   34.0642   48.7219 H   0  0  0  0  0  0  0  0  0  0  0  0
   61.0575   33.1085   46.9038 H   0  0  0  0  0  0  0  0  0  0  0  0
   58.1810   32.3564   49.1564 H   0  0  0  0  0  0  0  0  0  0  0  0
   58.0327   30.2480   50.4683 H   0  0  0  0  0  0  0  0  0  0  0  0
   59.6841   28.4170   50.0985 H   0  0  0  0  0  0  0  0  0  0  0  0
   61.4513   28.6678   48.3578 H   0  0  0  0  0  0  0  0  0  0  0  0
  1  2  1  0
  2  3  2  0
  2  4  1  0
  4  5  1  0
  5  6  1  0
  6  7  1  0
  7  8  1  0
  8  9  1  0
  9 10  1  0
 10 11  1  0
 11 12  1  0
 12 13  1  0
 13 14  1  0
 14 15  2  0
 15 16  1  0
 16 17  2  0
 17 18  1  0
 18 19  2  0
 19 20  1  0
 13  8  1  0
 19 14  1  0
  1 21  1  0
  5 22  1  0
  5 23  1  0
  6 24  1  0
  6 25  1  0
  8 26  1  6
  9 27  1  0
  9 28  1  0
 10 29  1  0
 10 30  1  0
 11 31  1  0
 12 32  1  0
 12 33  1  0
 13 34  1  6
 15 35  1  0
 16 36  1  0
 17 37  1  0
 18 38  1  0
M  CHG  3   1  -1   4  -1  20  -1
M  END
>  <UniqueID>  (15) 
15

>  <SMILES>  (15) 
[NH-]C(=O)[N-]CCS[C@H]1CCNC[C@H]1c1ccccc1[O-]

>  <Energy>  (15) 
49.450601423546374

>  <Genealogy>  (15) 
[NH-]C(=O)[N-]CCSC1CCNCC1c1ccccc1[O-] (protonated)
[NH-]C(=O)[N-]CCS[C@H]1CCNC[C@H]1c1ccccc1[O-] (chirality)
[NH-]C(=O)[N-]CCS[C@H]1CCNC[C@H]1c1ccccc1[O-] (3D coordinates assigned)
[NH-]C(=O)[N-]CCS[C@H]1CCNC[C@H]1c1ccccc1[O-] (nonaromatic ring conformer: 49.450601423546374 kcal/mol)

>  <smiles>  (15) 
NC(=O)NCCSC1CCNCC1c1ccccc1O

>  <score_type>  (15) 
oracle

>  <origin>  (15) 
adg

>  <m_score__min__energy>  (15) 
-14.390000000000001

>  <m_primary>  (15) 
energy

$$$$
15:0
     RDKit          3D

 49 52  0  0  1  0  0  0  0  0999 V2000
   60.6060   34.5810   48.8250 C   0  0  0  0  0  0  0  0  0  0  0  0
   60.7530   34.1800   47.0610 S   0  0  0  0  0  0  0  0  0  0  0  0
   60.0760   32.5950   46.7110 C   0  0  0  0  0  0  0  0  0  0  0  0
   58.8780   32.5440   46.0040 C   0  0  0  0  0  0  0  0  0  0  0  0
   58.0720   34.0310   45.5190 Cl  0  0  0  0  0  0  0  0  0  0  0  0
   58.3220   31.3470   45.6830 N   0  0  0  0  0  0  0  0  0  0  0  0
   58.9520   30.2380   46.0610 C   0  0  0  0  0  0  0  0  0  0  0  0
   58.4110   28.9010   45.7480 C   0  0  0  0  0  0  0  0  0  0  0  0
   58.3510   28.4520   44.4420 C   0  0  0  0  0  0  0  0  0  0  0  0
   57.8450   27.1930   44.1170 C   0  0  0  0  0  0  0  0  0  0  0  0
   57.3930   26.3770   45.1300 C   0  0  0  0  0  0  0  0  0  0  0  0
   56.8600   25.0760   44.9070 N   0  0  0  0  0  0  0  0  0  0  0  0
   55.5530   24.7260   45.3370 C   0  0  0  0  0  0  0  0  0  0  0  0
   54.7930   25.5380   45.9350 O   0  0  0  0  0  0  0  0  0  0  0  0
   55.1360   23.3770   45.0480 N   0  0  0  0  0  0  0  0  0  0  0  0
   55.8990   22.5330   44.4370 C   0  0  0  0  0  0  0  0  0  0  0  0
   56.5810   22.7150   43.2900 N   0  0  0  0  0  0  0  0  0  0  0  0
   57.2350   21.5720   43.0390 C   0  0  0  0  0  0  0  0  0  0  0  0
   56.9380   20.7240   44.0330 N   0  0  0  0  0  0  0  0  0  0  0  0
   56.1200   21.2910   44.9010 N   0  0  0  0  0  0  0  0  0  0  0  0
   57.4380   26.7930   46.4600 C   0  0  0  0  0  0  0  0  0  0  0  0
   57.9480   28.0480   46.7200 C   0  0  0  0  0  0  0  0  0  0  0  0
   60.1060   30.2820   46.7420 N   0  0  0  0  0  0  0  0  0  0  0  0
   60.7230   31.4470   47.1000 C   0  0  0  0  0  0  0  0  0  0  0  0
   61.9050   31.3600   47.8370 N   0  0  0  0  0  0  0  0  0  0  0  0
   63.1720   31.6770   47.1260 C   0  0  0  0  0  0  0  0  0  0  0  0
   63.7360   32.8340   47.9660 C   0  0  0  0  0  0  0  0  0  0  0  0
   63.9410   32.3880   49.2610 O   0  0  0  0  0  0  0  0  0  0  0  0
   62.6790   32.2310   49.8850 C   0  0  0  0  0  0  0  0  0  0  0  0
   62.0880   30.9790   49.2120 C   0  0  0  0  0  0  0  0  0  0  0  0
   60.9232   33.7156   49.4254 H   0  0  0  0  0  0  0  0  0  0  0  0
   61.2461   35.4443   49.0593 H   0  0  0  0  0  0  0  0  0  0  0  0
   59.5596   34.8261   49.0593 H   0  0  0  0  0  0  0  0  0  0  0  0
   58.7128   29.1065   43.6353 H   0  0  0  0  0  0  0  0  0  0  0  0
   57.8078   26.8581   43.0699 H   0  0  0  0  0  0  0  0  0  0  0  0
   57.4700   24.3790   44.4110 H   0  0  0  0  0  0  0  0  0  0  0  0
   57.8911   21.3688   42.1798 H   0  0  0  0  0  0  0  0  0  0  0  0
   57.3030   19.7660   44.0960 H   0  0  0  0  0  0  0  0  0  0  0  0
   55.7530   20.8310   45.7520 H   0  0  0  0  0  0  0  0  0  0  0  0
   57.0798   26.1439   47.2726 H   0  0  0  0  0  0  0  0  0  0  0  0
   57.9861   28.3852   47.7663 H   0  0  0  0  0  0  0  0  0  0  0  0
   63.8552   30.8149   47.1252 H   0  0  0  0  0  0  0  0  0  0  0  0
   63.0310   31.9300   46.0648 H   0  0  0  0  0  0  0  0  0  0  0  0
   64.6905   33.1717   47.5360 H   0  0  0  0  0  0  0  0  0  0  0  0
   63.0260   33.6742   47.9685 H   0  0  0  0  0  0  0  0  0  0  0  0
   62.7942   32.0760   50.9679 H   0  0  0  0  0  0  0  0  0  0  0  0
   62.0366   33.1168   49.7728 H   0  0  0  0  0  0  0  0  0  0  0  0
   62.7836   30.1305   49.2908 H   0  0  0  0  0  0  0  0  0  0  0  0
   61.1489   30.6549   49.6842 H   0  0  0  0  0  0  0  0  0  0  0  0
  1  2  1  0
  2  3  1  0
  3  4  2  0
  4  5  1  0
  4  6  1  0
  6  7  2  0
  7  8  1  0
  8  9  2  0
  9 10  1  0
 10 11  2  0
 11 12  1  0
 12 13  1  0
 13 14  2  0
 13 15  1  0
 15 16  2  0
 16 17  1  0
 17 18  2  0
 18 19  1  0
 19 20  1  0
 11 21  1  0
 21 22  2  0
  7 23  1  0
 23 24  2  0
 24 25  1  0
 25 26  1  0
 26 27  1  0
 27 28  1  0
 28 29  1  0
 29 30  1  0
 24  3  1  0
 30 25  1  0
 22  8  1  0
 20 16  1  0
  1 31  1  0
  1 32  1  0
  1 33  1  0
  9 34  1  0
 10 35  1  0
 12 36  1  0
 18 37  1  0
 19 38  1  0
 20 39  1  0
 21 40  1  0
 22 41  1  0
 26 42  1  0
 26 43  1  0
 27 44  1  0
 27 45  1  0
 29 46  1  0
 29 47  1  0
 30 48  1  0
 30 49  1  0
M  END
>  <smiles>  (16) 
CSc1c(Cl)nc(-c2ccc(NC(=O)N=c3nc[nH][nH]3)cc2)nc1N1CCOCC1

>  <score_type>  (16) 
oracle

>  <origin>  (16) 
adg

>  <m_score__min__energy>  (16) 
-8.7100000000000009

>  <m_primary>  (16) 
energy

$$$$
16:0
     RDKit          3D

 31 33  0  0  0  0  0  0  0  0999 V2000
   50.7090   33.3340   52.2790 O   0  0  0  0  0  0  0  0  0  0  0  0
   51.2940   32.4450   51.6100 C   0  0  0  0  0  0  0  0  0  0  0  0
   50.7240   31.9630   50.4770 N   0  0  0  0  0  0  0  0  0  0  0  0
   51.3540   31.0000   49.7590 C   0  0  0  0  0  0  0  0  0  0  0  0
   50.8250   30.5490   48.7100 O   0  0  0  0  0  0  0  0  0  0  0  0
   52.5540   30.5210   50.1720 N   0  0  0  0  0  0  0  0  0  0  0  0
   53.1360   31.0090   51.3020 C   0  0  0  0  0  0  0  0  0  0  0  0
   54.2750   30.5490   51.7300 N   0  0  0  0  0  0  0  0  0  0  0  0
   54.4760   29.5710   52.7660 C   0  0  0  0  0  0  0  0  0  0  0  0
   53.4190   29.1430   53.5920 C   0  0  0  0  0  0  0  0  0  0  0  0
   53.6350   28.1640   54.5650 C   0  0  0  0  0  0  0  0  0  0  0  0
   54.8970   27.5860   54.7060 C   0  0  0  0  0  0  0  0  0  0  0  0
   55.9450   27.9810   53.8740 C   0  0  0  0  0  0  0  0  0  0  0  0
   55.7440   28.9800   52.9030 C   0  0  0  0  0  0  0  0  0  0  0  0
   56.7740   29.3770   52.0360 O   0  0  0  0  0  0  0  0  0  0  0  0
   57.3730   30.6450   52.0090 C   0  0  0  0  0  0  0  0  0  0  0  0
   57.2420   31.5530   53.0770 C   0  0  0  0  0  0  0  0  0  0  0  0
   57.8400   32.8150   53.0040 C   0  0  0  0  0  0  0  0  0  0  0  0
   58.5590   33.1850   51.8650 C   0  0  0  0  0  0  0  0  0  0  0  0
   58.6760   32.2950   50.7930 C   0  0  0  0  0  0  0  0  0  0  0  0
   58.0790   31.0320   50.8630 C   0  0  0  0  0  0  0  0  0  0  0  0
   52.4950   31.9660   52.0220 N   0  0  0  0  0  0  0  0  0  0  0  0
   52.4177   29.5819   53.4705 H   0  0  0  0  0  0  0  0  0  0  0  0
   52.8097   27.8487   55.2203 H   0  0  0  0  0  0  0  0  0  0  0  0
   55.0660   26.8174   55.4746 H   0  0  0  0  0  0  0  0  0  0  0  0
   56.9334   27.5093   53.9774 H   0  0  0  0  0  0  0  0  0  0  0  0
   56.6678   31.2690   53.9712 H   0  0  0  0  0  0  0  0  0  0  0  0
   57.7440   33.5175   53.8450 H   0  0  0  0  0  0  0  0  0  0  0  0
   59.0330   34.1762   51.8114 H   0  0  0  0  0  0  0  0  0  0  0  0
   59.2379   32.5883   49.8940 H   0  0  0  0  0  0  0  0  0  0  0  0
   58.1645   30.3388   50.0132 H   0  0  0  0  0  0  0  0  0  0  0  0
  1  2  2  0
  2  3  1  0
  3  4  1  0
  4  5  2  0
  4  6  1  0
  6  7  1  0
  7  8  2  3
  8  9  1  0
  9 10  2  0
 10 11  1  0
 11 12  2  0
 12 13  1  0
 13 14  2  0
 14 15  1  0
 15 16  1  0
 16 17  2  0
 17 18  1  0
 18 19  2  0
 19 20  1  0
 20 21  2  0
  7 22  1  0
 22  2  1  0
 14  9  1  0
 21 16  1  0
 10 23  1  0
 11 24  1  0
 12 25  1  0
 13 26  1  0
 17 27  1  0
 18 28  1  0
 19 29  1  0
 20 30  1  0
 21 31  1  0
M  CHG  3   3  -1   6  -1  22  -1
M  END
>  <UniqueID>  (17) 
16

>  <SMILES>  (17) 
O=c1[n-]c(=O)[n-]c(=Nc2ccccc2Oc2ccccc2)[n-]1

>  <Energy>  (17) 
48.13911095562374

>  <Genealogy>  (17) 
O=c1[n-]c(=O)[n-]c(=Nc2ccccc2Oc2ccccc2)[n-]1 (protonated)
O=c1[n-]c(=O)[n-]c(=Nc2ccccc2Oc2ccccc2)[n-]1 (3D coordinates assigned)
O=c1[n-]c(=O)[n-]c(=Nc2ccccc2Oc2ccccc2)[n-]1 (optimized conformer: 48.13911095562374 kcal/mol)

>  <smiles>  (17) 
O=c1[nH]c(=O)[nH]c(=Nc2ccccc2Oc2ccccc2)[nH]1

>  <score_type>  (17) 
oracle

>  <origin>  (17) 
adg

>  <m_score__min__energy>  (17) 
-13.050000000000001

>  <m_primary>  (17) 
energy

$$$$
17:0
     RDKit          3D

 54 56  0  0  0  0  0  0  0  0999 V2000
   59.9870   29.9000   45.8610 C   0  0  0  0  0  0  0  0  0  0  0  0
   60.4250   28.1550   45.5710 S   0  0  0  0  0  0  0  0  0  0  0  0
   59.2610   27.9120   44.1820 C   0  0  0  0  0  0  0  0  0  0  0  0
   58.0600   27.0500   44.6080 C   0  0  0  0  0  0  0  0  0  0  0  0
   57.4380   27.4400   45.9660 C   0  0  1  0  0  0  0  0  0  0  0  0
   56.9740   28.8290   45.9390 N   0  0  0  0  0  0  0  0  0  0  0  0
   56.2940   29.4670   44.8470 C   0  0  0  0  0  0  0  0  0  0  0  0
   55.1400   29.0690   44.5320 O   0  0  0  0  0  0  0  0  0  0  0  0
   56.8900   30.5930   44.1030 C   0  0  0  0  0  0  0  0  0  0  0  0
   57.0130   30.5200   42.7080 C   0  0  0  0  0  0  0  0  0  0  0  0
   57.5710   31.5850   41.9960 C   0  0  0  0  0  0  0  0  0  0  0  0
   58.0280   32.7210   42.6710 C   0  0  0  0  0  0  0  0  0  0  0  0
   57.9310   32.7970   44.0680 C   0  0  0  0  0  0  0  0  0  0  0  0
   58.4820   33.9820   44.8120 C   0  0  0  0  0  0  0  0  0  0  0  0
   59.4770   33.5430   45.7870 N   0  0  0  0  0  0  0  0  0  0  0  0
   59.7240   34.2590   47.0090 C   0  0  0  0  0  0  0  0  0  0  0  0
   58.9290   35.1680   47.3730 O   0  0  0  0  0  0  0  0  0  0  0  0
   60.8940   33.9490   47.8520 C   0  0  0  0  0  0  0  0  0  0  0  0
   62.0670   33.3200   47.4300 C   0  0  0  0  0  0  0  0  0  0  0  0
   62.8680   33.2720   48.5500 C   0  0  0  0  0  0  0  0  0  0  0  0
   64.1540   32.7620   48.7230 C   0  0  0  0  0  0  0  0  0  0  0  0
   64.7430   32.8540   50.0080 C   0  0  0  0  0  0  0  0  0  0  0  0
   66.1100   32.3340   50.2440 C   0  0  0  0  0  0  0  0  0  0  0  0
   67.2490   33.0510   49.7710 N   0  0  0  0  0  0  0  0  0  0  0  0
   66.2800   31.2520   50.8690 O   0  0  0  0  0  0  0  0  0  0  0  0
   64.0120   33.4570   51.0700 C   0  0  0  0  0  0  0  0  0  0  0  0
   62.7170   33.9650   50.8560 C   0  0  0  0  0  0  0  0  0  0  0  0
   62.1770   33.8550   49.5770 C   0  0  0  0  0  0  0  0  0  0  0  0
   60.9700   34.2760   49.1650 N   0  0  0  0  0  0  0  0  0  0  0  0
   57.3670   31.7250   44.7810 C   0  0  0  0  0  0  0  0  0  0  0  0
   56.3250   26.4980   46.3490 C   0  0  0  0  0  0  0  0  0  0  0  0
   55.1430   26.7000   45.9600 O   0  0  0  0  0  0  0  0  0  0  0  0
   56.6100   25.3720   47.1110 O   0  0  0  0  0  0  0  0  0  0  0  0
   59.9391   30.0910   46.9432 H   0  0  0  0  0  0  0  0  0  0  0  0
   60.7499   30.5498   45.4074 H   0  0  0  0  0  0  0  0  0  0  0  0
   59.0077   30.1125   45.4074 H   0  0  0  0  0  0  0  0  0  0  0  0
   58.8965   28.8930   43.8433 H   0  0  0  0  0  0  0  0  0  0  0  0
   59.7912   27.3939   43.3693 H   0  0  0  0  0  0  0  0  0  0  0  0
   57.2819   27.1403   43.8357 H   0  0  0  0  0  0  0  0  0  0  0  0
   58.4382   26.0233   44.7219 H   0  0  0  0  0  0  0  0  0  0  0  0
   58.2183   27.3552   46.7367 H   0  0  0  0  0  0  0  0  0  0  0  0
   56.6694   29.6223   42.1730 H   0  0  0  0  0  0  0  0  0  0  0  0
   57.6510   31.5295   40.9003 H   0  0  0  0  0  0  0  0  0  0  0  0
   58.4646   33.5570   42.1050 H   0  0  0  0  0  0  0  0  0  0  0  0
   58.9527   34.6735   44.0977 H   0  0  0  0  0  0  0  0  0  0  0  0
   57.6610   34.4904   45.3388 H   0  0  0  0  0  0  0  0  0  0  0  0
   60.0120   32.6700   45.5800 H   0  0  0  0  0  0  0  0  0  0  0  0
   62.3007   32.9446   46.4228 H   0  0  0  0  0  0  0  0  0  0  0  0
   64.6964   32.3008   47.8845 H   0  0  0  0  0  0  0  0  0  0  0  0
   67.4720   33.1010   48.7540 H   0  0  0  0  0  0  0  0  0  0  0  0
   64.4647   33.5268   52.0701 H   0  0  0  0  0  0  0  0  0  0  0  0
   62.1493   34.4341   51.6731 H   0  0  0  0  0  0  0  0  0  0  0  0
   60.2420   34.7550   49.7420 H   0  0  0  0  0  0  0  0  0  0  0  0
   57.2991   31.7739   45.8778 H   0  0  0  0  0  0  0  0  0  0  0  0
  1  2  1  0
  2  3  1  0
  3  4  1  0
  4  5  1  0
  5  6  1  0
  6  7  1  0
  7  8  2  0
  7  9  1  0
  9 10  2  0
 10 11  1  0
 11 12  2  0
 12 13  1  0
 13 14  1  0
 14 15  1  0
 15 16  1  0
 16 17  2  0
 16 18  1  0
 18 19  2  0
 19 20  1  0
 20 21  2  0
 21 22  1  0
 22 23  1  0
 23 24  1  0
 23 25  2  0
 22 26  2  0
 26 27  1  0
 27 28  2  0
 28 29  1  0
 13 30  2  0
  5 31  1  0
 31 32  2  0
 31 33  1  0
 30  9  1  0
 29 18  1  0
 28 20  1  0
  1 34  1  0
  1 35  1  0
  1 36  1  0
  3 37  1  0
  3 38  1  0
  4 39  1  0
  4 40  1  0
  5 41  1  1
 10 42  1  0
 11 43  1  0
 12 44  1  0
 14 45  1  0
 14 46  1  0
 15 47  1  0
 19 48  1  0
 21 49  1  0
 24 50  1  0
 26 51  1  0
 27 52  1  0
 29 53  1  0
 30 54  1  0
M  CHG  3   6  -1  24  -1  33  -1
M  END
>  <UniqueID>  (18) 
17

>  <SMILES>  (18) 
CSCC[C@@H]([N-]C(=O)c1cccc(CNC(=O)c2cc3cc(C([NH-])=O)ccc3[nH]2)c1)C(=O)[O-]

>  <Energy>  (18) 
85.53319793211638

>  <Genealogy>  (18) 
CSCCC([N-]C(=O)c1cccc(CNC(=O)c2cc3cc(C([NH-])=O)ccc3[nH]2)c1)C(=O)[O-] (protonated)
CSCC[C@@H]([N-]C(=O)c1cccc(CNC(=O)c2cc3cc(C([NH-])=O)ccc3[nH]2)c1)C(=O)[O-] (chirality)
CSCC[C@@H]([N-]C(=O)c1cccc(CNC(=O)c2cc3cc(C([NH-])=O)ccc3[nH]2)c1)C(=O)[O-] (3D coordinates assigned)
CSCC[C@@H]([N-]C(=O)c1cccc(CNC(=O)c2cc3cc(C([NH-])=O)ccc3[nH]2)c1)C(=O)[O-] (optimized conformer: 85.53319793211638 kcal/mol)

>  <smiles>  (18) 
CSCCC(NC(=O)c1cccc(CNC(=O)c2cc3cc(C(N)=O)ccc3[nH]2)c1)C(=O)O

>  <score_type>  (18) 
oracle

>  <origin>  (18) 
adg

>  <m_score__min__energy>  (18) 
-16.289999999999999

>  <m_primary>  (18) 
energy

$$$$
18:0
     RDKit          3D

 60 64  0  0  0  0  0  0  0  0999 V2000
   54.3890   27.0960   46.3520 H   0  0  0  0  0  0  0  0  0  0  0  0
   55.1410   26.6920   45.8070 O   0  0  0  0  0  0  0  0  0  0  0  0
   56.1130   25.9090   46.4150 C   0  0  0  0  0  0  0  0  0  0  0  0
   55.8440   24.8370   47.1720 N   0  0  0  0  0  0  0  0  0  0  0  0
   57.0740   24.4130   47.5280 C   0  0  0  0  0  0  0  0  0  0  0  0
   57.2570   23.4010   48.2480 O   0  0  0  0  0  0  0  0  0  0  0  0
   58.0920   25.1520   47.0400 N   0  0  0  0  0  0  0  0  0  0  0  0
   57.4680   26.1130   46.3400 C   0  0  0  0  0  0  0  0  0  0  0  0
   58.1710   27.1490   45.5200 C   0  0  0  0  0  0  0  0  0  0  0  0
   57.5615   27.3889   44.6363 H   0  0  0  0  0  0  0  0  0  0  0  0
   59.1488   26.7563   45.2043 H   0  0  0  0  0  0  0  0  0  0  0  0
   58.3800   28.3950   46.3330 C   0  0  0  0  0  0  0  0  0  0  0  0
   58.9050   28.4350   47.6080 C   0  0  0  0  0  0  0  0  0  0  0  0
   59.2101   27.5579   48.1975 H   0  0  0  0  0  0  0  0  0  0  0  0
   58.9860   29.7160   48.0190 N   0  0  0  0  0  0  0  0  0  0  0  0
   58.5090   30.4310   46.9780 C   0  0  0  0  0  0  0  0  0  0  0  0
   58.3560   32.2160   47.0320 S   0  0  0  0  0  0  0  0  0  0  0  0
   59.7830   32.3930   48.1150 C   0  0  0  0  0  0  0  0  0  0  0  0
   59.6190   33.1500   49.3810 C   0  0  0  0  0  0  0  0  0  0  0  0
   60.0880   34.3180   49.4630 O   0  0  0  0  0  0  0  0  0  0  0  0
   58.8840   32.5870   50.5350 C   0  0  0  0  0  0  0  0  0  0  0  0
   58.8310   33.2920   51.7520 C   0  0  0  0  0  0  0  0  0  0  0  0
   59.3170   34.2751   51.8369 H   0  0  0  0  0  0  0  0  0  0  0  0
   58.1630   32.7480   52.8540 C   0  0  0  0  0  0  0  0  0  0  0  0
   58.1166   33.3092   53.7990 H   0  0  0  0  0  0  0  0  0  0  0  0
   57.5540   31.4930   52.7580 C   0  0  0  0  0  0  0  0  0  0  0  0
   56.7210   30.8070   54.1390 Cl  0  0  0  0  0  0  0  0  0  0  0  0
   57.6020   30.7860   51.5520 C   0  0  0  0  0  0  0  0  0  0  0  0
   57.1159   29.8024   51.4730 H   0  0  0  0  0  0  0  0  0  0  0  0
   58.2660   31.3260   50.4470 C   0  0  0  0  0  0  0  0  0  0  0  0
   58.3057   30.7621   49.5034 H   0  0  0  0  0  0  0  0  0  0  0  0
   60.9650   31.9090   47.6950 C   0  0  0  0  0  0  0  0  0  0  0  0
   60.9841   31.3677   46.7376 H   0  0  0  0  0  0  0  0  0  0  0  0
   62.2460   32.0530   48.4310 C   0  0  0  0  0  0  0  0  0  0  0  0
   63.2270   32.9650   47.9910 C   0  0  0  0  0  0  0  0  0  0  0  0
   63.0480   33.5625   47.0849 H   0  0  0  0  0  0  0  0  0  0  0  0
   64.4230   33.1170   48.6940 C   0  0  0  0  0  0  0  0  0  0  0  0
   65.1895   33.8172   48.3305 H   0  0  0  0  0  0  0  0  0  0  0  0
   64.6460   32.3820   49.8560 C   0  0  0  0  0  0  0  0  0  0  0  0
   65.5945   32.4934   50.4018 H   0  0  0  0  0  0  0  0  0  0  0  0
   63.6710   31.5060   50.3290 C   0  0  0  0  0  0  0  0  0  0  0  0
   63.8505   30.9370   51.2531 H   0  0  0  0  0  0  0  0  0  0  0  0
   62.4540   31.3430   49.6310 C   0  0  0  0  0  0  0  0  0  0  0  0
   61.4440   30.4830   50.0990 O   0  0  0  0  0  0  0  0  0  0  0  0
   61.4410   29.8700   51.3880 C   0  0  0  0  0  0  0  0  0  0  0  0
   61.4448   30.6491   52.1645 H   0  0  0  0  0  0  0  0  0  0  0  0
   60.5398   29.2486   51.4964 H   0  0  0  0  0  0  0  0  0  0  0  0
   62.3361   29.2399   51.4964 H   0  0  0  0  0  0  0  0  0  0  0  0
   58.1300   29.6590   45.9360 N   0  0  0  0  0  0  0  0  0  0  0  0
   57.6690   30.1070   44.6520 C   0  0  0  0  0  0  0  0  0  0  0  0
   56.6560   29.4000   43.9850 C   0  0  0  0  0  0  0  0  0  0  0  0
   56.2398   28.4855   44.4326 H   0  0  0  0  0  0  0  0  0  0  0  0
   56.1750   29.8540   42.7550 C   0  0  0  0  0  0  0  0  0  0  0  0
   55.3812   29.2964   42.2363 H   0  0  0  0  0  0  0  0  0  0  0  0
   56.7000   31.0150   42.1820 C   0  0  0  0  0  0  0  0  0  0  0  0
   56.3138   31.3756   41.2172 H   0  0  0  0  0  0  0  0  0  0  0  0
   57.7160   31.7180   42.8350 C   0  0  0  0  0  0  0  0  0  0  0  0
   58.1310   32.6307   42.3825 H   0  0  0  0  0  0  0  0  0  0  0  0
   58.2060   31.2620   44.0640 C   0  0  0  0  0  0  0  0  0  0  0  0
   59.0141   31.8105   44.5701 H   0  0  0  0  0  0  0  0  0  0  0  0
  1  2  1  0
  2  3  1  0
  3  4  1  0
  4  5  1  0
  5  6  2  0
  5  7  1  0
  7  8  1  0
  8  9  1  0
  9 10  1  0
  9 11  1  0
  9 12  1  0
 12 13  2  0
 13 14  1  0
 13 15  1  0
 15 16  2  0
 16 17  1  0
 17 18  1  0
 18 19  1  0
 19 20  2  0
 19 21  1  0
 21 22  2  0
 22 23  1  0
 22 24  1  0
 24 25  1  0
 24 26  2  0
 26 27  1  0
 26 28  1  0
 28 29  1  0
 28 30  2  0
 30 31  1  0
 18 32  2  0
 32 33  1  0
 32 34  1  0
 34 35  2  0
 35 36  1  0
 35 37  1  0
 37 38  1  0
 37 39  2  0
 39 40  1  0
 39 41  1  0
 41 42  1  0
 41 43  2  0
 43 44  1  0
 44 45  1  0
 45 46  1  0
 45 47  1  0
 45 48  1  0
 16 49  1  0
 49 50  1  0
 50 51  2  0
 51 52  1  0
 51 53  1  0
 53 54  1  0
 53 55  2  0
 55 56  1  0
 55 57  1  0
 57 58  1  0
 57 59  2  0
 59 60  1  0
  8  3  2  0
 49 12  1  0
 59 50  1  0
 30 21  1  0
 43 34  1  0
M  CHG  2   4  -1   7  -1
M  END
>  <UniqueID>  (19) 
18

>  <SMILES>  (19) 
COc1ccccc1/C=C(/Sc1ncc(Cc2[n-]c(=O)[n-]c2O)n1-c1ccccc1)C(=O)c1ccc(Cl)cc1

>  <Energy>  (19) 
134.00220993080572

>  <Genealogy>  (19) 
COc1ccccc1C=C(Sc1ncc(Cc2[n-]c(=O)[n-]c2O)n1-c1ccccc1)C(=O)c1ccc(Cl)cc1 (protonated)
COc1ccccc1/C=C(/Sc1ncc(Cc2[n-]c(=O)[n-]c2O)n1-c1ccccc1)C(=O)c1ccc(Cl)cc1 (cis-trans isomerization)
COc1ccccc1/C=C(/Sc1ncc(Cc2[n-]c(=O)[n-]c2O)n1-c1ccccc1)C(=O)c1ccc(Cl)cc1 (3D coordinates assigned)
COc1ccccc1/C=C(/Sc1ncc(Cc2[n-]c(=O)[n-]c2O)n1-c1ccccc1)C(=O)c1ccc(Cl)cc1 (optimized conformer: 134.00220993080572 kcal/mol)

>  <smiles>  (19) 
COc1ccccc1C=C(Sc1ncc(Cc2[nH]c(=O)[nH]c2O)n1-c1ccccc1)C(=O)c1ccc(Cl)cc1

>  <score_type>  (19) 
oracle

>  <origin>  (19) 
adg

>  <m_score__min__energy>  (19) 
-14.800000000000001

>  <m_primary>  (19) 
energy

$$$$
19:0
     RDKit          3D

 68 71  0  0  1  0  0  0  0  0999 V2000
   57.5000   21.1110   43.2640 C   0  0  0  0  0  0  0  0  0  0  0  0
   56.2310   21.7540   43.4890 N   0  0  0  0  0  0  0  0  0  0  0  0
   56.0520   22.9630   42.7260 C   0  0  0  0  0  0  0  0  0  0  0  0
   56.6560   24.1790   43.4100 C   0  0  0  0  0  0  0  0  0  0  0  0
   55.9360   24.4450   44.7090 C   0  0  0  0  0  0  0  0  0  0  0  0
   56.9980   24.8460   45.7210 C   0  0  0  0  0  0  0  0  0  0  0  0
   56.4400   25.8580   46.5420 O   0  0  0  0  0  0  0  0  0  0  0  0
   57.0630   27.0910   46.5460 C   0  0  0  0  0  0  0  0  0  0  0  0
   56.6600   28.0380   45.5980 C   0  0  0  0  0  0  0  0  0  0  0  0
   57.2950   29.2730   45.6140 C   0  0  0  0  0  0  0  0  0  0  0  0
   56.9740   30.1850   44.7750 N   0  0  0  0  0  0  0  0  0  0  0  0
   60.7410   29.5580   47.9690 C   0  0  0  0  0  0  0  0  0  0  0  0
   60.6620   30.7610   48.9210 C   0  0  0  0  0  0  0  0  0  0  0  0
   61.6000   31.8310   48.5670 C   0  0  0  0  0  0  0  0  0  0  0  0
   61.6900   32.9830   49.3420 C   0  0  0  0  0  0  0  0  0  0  0  0
   63.2720   32.6970   47.1380 C   0  0  0  0  0  0  0  0  0  0  0  0
   59.4720   34.5670   47.2980 C   0  0  0  0  0  0  0  0  0  0  0  0
   58.6810   33.4780   47.5850 C   0  0  0  0  0  0  0  0  0  0  0  0
   58.5650   33.0760   48.8930 F   0  0  0  0  0  0  0  0  0  0  0  0
   62.3900   31.6660   47.4500 C   0  0  0  0  0  0  0  0  0  0  0  0
   58.2570   29.5230   46.5150 N   0  0  0  0  0  0  0  0  0  0  0  0
   58.6010   28.5690   47.4000 C   0  0  0  0  0  0  0  0  0  0  0  0
   59.5190   28.8270   48.2490 N   0  0  0  0  0  0  0  0  0  0  0  0
   57.9360   31.0240   44.0800 C   0  0  0  0  0  0  0  0  0  0  0  0
   57.4070   32.4540   44.1950 C   0  0  0  0  0  0  0  0  0  0  0  0
   58.1180   33.1810   45.2720 C   0  0  0  0  0  0  0  0  0  0  0  0
   58.9000   34.2570   44.9940 C   0  0  0  0  0  0  0  0  0  0  0  0
   59.5880   34.9710   45.9750 C   0  0  0  0  0  0  0  0  0  0  0  0
   63.3670   33.8430   47.9000 C   0  0  0  0  0  0  0  0  0  0  0  0
   62.5800   34.0020   49.0090 C   0  0  0  0  0  0  0  0  0  0  0  0
   58.0020   32.7770   46.5910 C   0  0  0  0  0  0  0  0  0  0  0  0
   58.0280   27.3540   47.4420 N   0  0  0  0  0  0  0  0  0  0  0  0
   55.2700   23.1900   45.2310 C   0  0  0  0  0  0  0  0  0  0  0  0
   56.1100   21.9730   44.9110 C   0  0  0  0  0  0  0  0  0  0  0  0
   57.9676   20.8741   44.2311 H   0  0  0  0  0  0  0  0  0  0  0  0
   57.3449   20.1828   42.6945 H   0  0  0  0  0  0  0  0  0  0  0  0
   58.1568   21.7851   42.6945 H   0  0  0  0  0  0  0  0  0  0  0  0
   56.5328   22.8352   41.7449 H   0  0  0  0  0  0  0  0  0  0  0  0
   54.9706   23.1384   42.6272 H   0  0  0  0  0  0  0  0  0  0  0  0
   57.7206   23.9919   43.6142 H   0  0  0  0  0  0  0  0  0  0  0  0
   56.5531   25.0544   42.7519 H   0  0  0  0  0  0  0  0  0  0  0  0
   55.1693   25.2182   44.5533 H   0  0  0  0  0  0  0  0  0  0  0  0
   57.2802   23.9774   46.3341 H   0  0  0  0  0  0  0  0  0  0  0  0
   57.9013   25.2130   45.2116 H   0  0  0  0  0  0  0  0  0  0  0  0
   55.8695   27.8126   44.8671 H   0  0  0  0  0  0  0  0  0  0  0  0
   61.6264   28.9422   48.1854 H   0  0  0  0  0  0  0  0  0  0  0  0
   60.8336   29.8514   46.9129 H   0  0  0  0  0  0  0  0  0  0  0  0
   59.6397   31.1661   48.8907 H   0  0  0  0  0  0  0  0  0  0  0  0
   60.9314   30.4048   49.9263 H   0  0  0  0  0  0  0  0  0  0  0  0
   61.0497   33.0908   50.2299 H   0  0  0  0  0  0  0  0  0  0  0  0
   63.9161   32.5941   46.2523 H   0  0  0  0  0  0  0  0  0  0  0  0
   60.0003   35.1051   48.0988 H   0  0  0  0  0  0  0  0  0  0  0  0
   62.3264   30.7586   46.8314 H   0  0  0  0  0  0  0  0  0  0  0  0
   58.7160   30.4610   46.5020 H   0  0  0  0  0  0  0  0  0  0  0  0
   58.9258   30.9433   44.5530 H   0  0  0  0  0  0  0  0  0  0  0  0
   58.0514   30.7199   43.0292 H   0  0  0  0  0  0  0  0  0  0  0  0
   57.5638   32.9766   43.2399 H   0  0  0  0  0  0  0  0  0  0  0  0
   56.3340   32.4200   44.4348 H   0  0  0  0  0  0  0  0  0  0  0  0
   58.9948   34.5799   43.9467 H   0  0  0  0  0  0  0  0  0  0  0  0
   60.2102   35.8372   45.7056 H   0  0  0  0  0  0  0  0  0  0  0  0
   64.0781   34.6325   47.6154 H   0  0  0  0  0  0  0  0  0  0  0  0
   62.6487   34.9125   49.6224 H   0  0  0  0  0  0  0  0  0  0  0  0
   57.3785   31.9092   46.8521 H   0  0  0  0  0  0  0  0  0  0  0  0
   58.3200   26.6380   48.1420 H   0  0  0  0  0  0  0  0  0  0  0  0
   55.1498   23.2706   46.3214 H   0  0  0  0  0  0  0  0  0  0  0  0
   54.2874   23.0813   44.7486 H   0  0  0  0  0  0  0  0  0  0  0  0
   57.1152   22.1147   45.3347 H   0  0  0  0  0  0  0  0  0  0  0  0
   55.6126   21.0943   45.3475 H   0  0  0  0  0  0  0  0  0  0  0  0
  1  2  1  0
  2  3  1  0
  3  4  1  0
  4  5  1  0
  5  6  1  0
  6  7  1  0
  7  8  1  0
  8  9  2  0
  9 10  1  0
 10 11  2  0
 11 12  1  0
 12 13  1  0
 13 14  1  0
 14 15  2  0
 15 16  1  0
 16 17  2  0
 17 18  1  0
 18 19  1  0
 18 20  2  0
 10 21  1  0
 21 22  1  0
 22 23  2  0
 23 24  1  0
 24 25  1  0
 25 26  1  0
 26 27  2  0
 27 28  1  0
 28 29  2  0
 29 30  1  0
 30 31  2  0
 22 32  1  0
  5 33  1  0
 33 34  1  0
 34  2  1  0
 32  8  1  0
 20 14  1  0
 31 26  1  0
  1 35  1  0
  1 36  1  0
  1 37  1  0
  3 38  1  0
  3 39  1  0
  4 40  1  0
  4 41  1  0
  5 42  1  0
  6 43  1  0
  6 44  1  0
  9 45  1  0
 12 46  1  0
 12 47  1  0
 13 48  1  0
 13 49  1  0
 15 50  1  0
 16 51  1  0
 17 52  1  0
 20 53  1  0
 21 54  1  0
 24 55  1  0
 24 56  1  0
 25 57  1  0
 25 58  1  0
 27 59  1  0
 28 60  1  0
 29 61  1  0
 30 62  1  0
 31 63  1  0
 32 64  1  0
 33 65  1  0
 33 66  1  0
 34 67  1  0
 34 68  1  0
M  END
>  <smiles>  (20) 
CN1CCC(COc2cc(=NCCc3cccc(F)c3)[nH]c(=NCCc3ccccc3)[nH]2)CC1

>  <score_type>  (20) 
oracle

>  <origin>  (20) 
adg

>  <m_score__min__energy>  (20) 
-10.529999999999999

>  <m_primary>  (20) 
energy

$$$$
20:0
     RDKit          3D

 35 37  0  0  0  0  0  0  0  0999 V2000
   60.7830   30.7870   47.1800 C   0  0  0  0  0  0  0  0  0  0  0  0
   60.1540   31.9950   47.5890 O   0  0  0  0  0  0  0  0  0  0  0  0
   59.6130   32.9480   46.7100 C   0  0  0  0  0  0  0  0  0  0  0  0
   60.2370   34.1900   46.4760 C   0  0  0  0  0  0  0  0  0  0  0  0
   59.6620   35.1120   45.5980 C   0  0  0  0  0  0  0  0  0  0  0  0
   58.4640   34.8100   44.9470 C   0  0  0  0  0  0  0  0  0  0  0  0
   57.8400   33.5800   45.1690 C   0  0  0  0  0  0  0  0  0  0  0  0
   58.4120   32.6480   46.0420 C   0  0  0  0  0  0  0  0  0  0  0  0
   57.7770   31.3830   46.2340 N   0  0  0  0  0  0  0  0  0  0  0  0
   57.4290   30.3560   44.8860 S   0  0  0  0  0  0  0  0  0  0  0  0
   56.0000   30.5590   44.4670 O   0  0  0  0  0  0  0  0  0  0  0  0
   58.3240   30.7160   43.7330 O   0  0  0  0  0  0  0  0  0  0  0  0
   57.6760   28.6730   45.3410 C   0  0  0  0  0  0  0  0  0  0  0  0
   58.9780   28.1750   45.4940 C   0  0  0  0  0  0  0  0  0  0  0  0
   59.1870   26.8620   45.9260 C   0  0  0  0  0  0  0  0  0  0  0  0
   58.0910   26.0350   46.2140 C   0  0  0  0  0  0  0  0  0  0  0  0
   58.2700   24.7550   46.6500 N   0  0  0  0  0  0  0  0  0  0  0  0
   57.2030   23.9590   46.9380 C   0  0  0  0  0  0  0  0  0  0  0  0
   57.3890   22.7790   47.3410 O   0  0  0  0  0  0  0  0  0  0  0  0
   55.9020   24.4610   46.7840 C   0  0  0  0  0  0  0  0  0  0  0  0
   54.9020   23.7420   47.0450 O   0  0  0  0  0  0  0  0  0  0  0  0
   55.7230   25.7340   46.3490 N   0  0  0  0  0  0  0  0  0  0  0  0
   56.7810   26.5360   46.0580 C   0  0  0  0  0  0  0  0  0  0  0  0
   56.5780   27.8490   45.6240 C   0  0  0  0  0  0  0  0  0  0  0  0
   61.0829   30.2110   48.0678 H   0  0  0  0  0  0  0  0  0  0  0  0
   60.0797   30.1930   46.5779 H   0  0  0  0  0  0  0  0  0  0  0  0
   61.6729   31.0226   46.5779 H   0  0  0  0  0  0  0  0  0  0  0  0
   61.1802   34.4342   46.9866 H   0  0  0  0  0  0  0  0  0  0  0  0
   60.1545   36.0791   45.4188 H   0  0  0  0  0  0  0  0  0  0  0  0
   58.0119   35.5403   44.2597 H   0  0  0  0  0  0  0  0  0  0  0  0
   56.8962   33.3434   44.6560 H   0  0  0  0  0  0  0  0  0  0  0  0
   59.8401   28.8215   45.2727 H   0  0  0  0  0  0  0  0  0  0  0  0
   60.2111   26.4772   46.0401 H   0  0  0  0  0  0  0  0  0  0  0  0
   59.2370   24.3750   46.7700 H   0  0  0  0  0  0  0  0  0  0  0  0
   55.5553   28.2361   45.5044 H   0  0  0  0  0  0  0  0  0  0  0  0
  1  2  1  0
  2  3  1  0
  3  4  2  0
  4  5  1  0
  5  6  2  0
  6  7  1  0
  7  8  2  0
  8  9  1  0
  9 10  1  0
 10 11  2  0
 10 12  2  0
 10 13  1  0
 13 14  2  0
 14 15  1  0
 15 16  2  0
 16 17  1  0
 17 18  1  0
 18 19  2  0
 18 20  1  0
 20 21  2  0
 20 22  1  0
 22 23  1  0
 23 24  2  0
  8  3  1  0
 24 13  1  0
 23 16  1  0
  1 25  1  0
  1 26  1  0
  1 27  1  0
  4 28  1  0
  5 29  1  0
  6 30  1  0
  7 31  1  0
 14 32  1  0
 15 33  1  0
 17 34  1  0
 24 35  1  0
M  CHG  2   9  -1  22  -1
M  END
>  <UniqueID>  (21) 
19

>  <SMILES>  (21) 
COc1ccccc1[N-]S(=O)(=O)c1ccc2[nH]c(=O)c(=O)[n-]c2c1

>  <Energy>  (21) 
49.5641572608041

>  <Genealogy>  (21) 
COc1ccccc1[N-]S(=O)(=O)c1ccc2[nH]c(=O)c(=O)[n-]c2c1 (protonated)
COc1ccccc1[N-]S(=O)(=O)c1ccc2[nH]c(=O)c(=O)[n-]c2c1 (3D coordinates assigned)
COc1ccccc1[N-]S(=O)(=O)c1ccc2[nH]c(=O)c(=O)[n-]c2c1 (optimized conformer: 49.5641572608041 kcal/mol)

>  <smiles>  (21) 
COc1ccccc1NS(=O)(=O)c1ccc2[nH]c(=O)c(=O)[nH]c2c1

>  <score_type>  (21) 
oracle

>  <origin>  (21) 
adg

>  <m_score__min__energy>  (21) 
-11.119999999999999

>  <m_primary>  (21) 
energy

$$$$
21:0
     RDKit          3D

 32 33  0  0  0  0  0  0  0  0999 V2000
   64.4560   32.7160   49.0570 C   0  0  0  0  0  0  0  0  0  0  0  0
   63.6540   33.8850   48.9280 O   0  0  0  0  0  0  0  0  0  0  0  0
   62.2840   33.8920   49.1960 C   0  0  0  0  0  0  0  0  0  0  0  0
   61.3770   33.9870   48.1880 N   0  0  0  0  0  0  0  0  0  0  0  0
   60.0450   33.9850   48.4550 C   0  0  0  0  0  0  0  0  0  0  0  0
   59.1630   34.0970   47.5050 N   0  0  0  0  0  0  0  0  0  0  0  0
   58.6110   33.0320   46.7110 C   0  0  0  0  0  0  0  0  0  0  0  0
   58.7420   31.6790   47.0790 C   0  0  0  0  0  0  0  0  0  0  0  0
   58.1640   30.6770   46.2940 C   0  0  0  0  0  0  0  0  0  0  0  0
   57.4380   31.0110   45.1440 C   0  0  0  0  0  0  0  0  0  0  0  0
   56.6990   29.7480   44.1660 S   0  0  0  0  0  0  0  0  0  0  0  0
   55.1470   29.3550   44.8150 N   0  0  0  0  0  0  0  0  0  0  0  0
   56.5450   30.2260   42.7490 O   0  0  0  0  0  0  0  0  0  0  0  0
   57.5710   28.5240   44.1700 O   0  0  0  0  0  0  0  0  0  0  0  0
   57.2730   32.3590   44.7980 C   0  0  0  0  0  0  0  0  0  0  0  0
   57.8490   33.3620   45.5830 C   0  0  0  0  0  0  0  0  0  0  0  0
   59.6240   33.9070   49.7430 N   0  0  0  0  0  0  0  0  0  0  0  0
   60.5250   33.8130   50.7580 C   0  0  0  0  0  0  0  0  0  0  0  0
   60.1020   33.7270   52.0870 O   0  0  0  0  0  0  0  0  0  0  0  0
   58.8250   34.1800   52.5190 C   0  0  0  0  0  0  0  0  0  0  0  0
   61.8530   33.8060   50.4790 N   0  0  0  0  0  0  0  0  0  0  0  0
   64.6094   32.4924   50.1231 H   0  0  0  0  0  0  0  0  0  0  0  0
   63.9486   31.8680   48.5738 H   0  0  0  0  0  0  0  0  0  0  0  0
   65.4298   32.8842   48.5738 H   0  0  0  0  0  0  0  0  0  0  0  0
   59.3011   31.4097   47.9873 H   0  0  0  0  0  0  0  0  0  0  0  0
   58.2800   29.6214   46.5809 H   0  0  0  0  0  0  0  0  0  0  0  0
   55.3080   28.7140   45.6240 H   0  0  0  0  0  0  0  0  0  0  0  0
   56.6885   32.6286   43.9060 H   0  0  0  0  0  0  0  0  0  0  0  0
   57.7028   34.4182   45.3129 H   0  0  0  0  0  0  0  0  0  0  0  0
   58.7927   34.1915   53.6185 H   0  0  0  0  0  0  0  0  0  0  0  0
   58.6476   35.1959   52.1363 H   0  0  0  0  0  0  0  0  0  0  0  0
   58.0470   33.5030   52.1363 H   0  0  0  0  0  0  0  0  0  0  0  0
  1  2  1  0
  2  3  1  0
  3  4  2  0
  4  5  1  0
  5  6  2  3
  6  7  1  0
  7  8  2  0
  8  9  1  0
  9 10  2  0
 10 11  1  0
 11 12  1  0
 11 13  2  0
 11 14  2  0
 10 15  1  0
 15 16  2  0
  5 17  1  0
 17 18  2  0
 18 19  1  0
 19 20  1  0
 18 21  1  0
 21  3  1  0
 16  7  1  0
  1 22  1  0
  1 23  1  0
  1 24  1  0
  8 25  1  0
  9 26  1  0
 12 27  1  0
 15 28  1  0
 16 29  1  0
 20 30  1  0
 20 31  1  0
 20 32  1  0
M  CHG  2  12  -1  21  -1
M  END
>  <UniqueID>  (22) 
20

>  <SMILES>  (22) 
COc1nc(=Nc2ccc(S([NH-])(=O)=O)cc2)nc(OC)[n-]1

>  <Energy>  (22) 
34.63613067182229

>  <Genealogy>  (22) 
COc1nc(=Nc2ccc(S([NH-])(=O)=O)cc2)nc(OC)[n-]1 (protonated)
COc1nc(=Nc2ccc(S([NH-])(=O)=O)cc2)nc(OC)[n-]1 (3D coordinates assigned)
COc1nc(=Nc2ccc(S([NH-])(=O)=O)cc2)nc(OC)[n-]1 (optimized conformer: 34.63613067182229 kcal/mol)

>  <smiles>  (22) 
COc1nc(=Nc2ccc(S(N)(=O)=O)cc2)nc(OC)[nH]1

>  <score_type>  (22) 
oracle

>  <origin>  (22) 
adg

>  <m_score__min__energy>  (22) 
-9.5800000000000001

>  <m_primary>  (22) 
energy

$$$$
22:0
     RDKit          3D

 63 66  0  0  0  0  0  0  0  0999 V2000
   59.8700   33.9750   48.7440 C   0  0  0  0  0  0  0  0  0  0  0  0
   59.3070   34.0610   47.3570 C   0  0  0  0  0  0  0  0  0  0  0  0
   59.8510   34.9600   46.4290 C   0  0  0  0  0  0  0  0  0  0  0  0
   59.3490   35.0160   45.1260 C   0  0  0  0  0  0  0  0  0  0  0  0
   58.3110   34.1670   44.7360 C   0  0  0  0  0  0  0  0  0  0  0  0
   57.7710   33.2460   45.6480 C   0  0  0  0  0  0  0  0  0  0  0  0
   56.6450   32.3350   45.2400 C   0  0  0  0  0  0  0  0  0  0  0  0
   57.0590   31.4640   44.1170 N   0  0  0  0  0  0  0  0  0  0  0  0
   58.5270   31.2740   44.0240 C   0  0  0  0  0  0  0  0  0  0  0  0
   59.0820   30.3360   45.1090 C   0  0  0  0  0  0  0  0  0  0  0  0
   58.3310   28.9930   45.0980 C   0  0  0  0  0  0  0  0  0  0  0  0
   58.8720   27.9900   46.1440 C   0  0  0  0  0  0  0  0  0  0  0  0
   58.4820   28.2900   47.6050 C   0  0  0  0  0  0  0  0  0  0  0  0
   58.8060   29.6240   47.9570 O   0  0  0  0  0  0  0  0  0  0  0  0
   59.6720   29.6960   49.0830 C   0  0  0  0  0  0  0  0  0  0  0  0
   60.8570   30.5880   48.7760 C   0  0  0  0  0  0  0  0  0  0  0  0
   61.1170   31.0240   47.4630 C   0  0  0  0  0  0  0  0  0  0  0  0
   62.2000   31.8660   47.1990 C   0  0  0  0  0  0  0  0  0  0  0  0
   63.0280   32.2910   48.2420 C   0  0  0  0  0  0  0  0  0  0  0  0
   64.0780   33.1100   47.9830 F   0  0  0  0  0  0  0  0  0  0  0  0
   62.7700   31.8770   49.5510 C   0  0  0  0  0  0  0  0  0  0  0  0
   61.6880   31.0340   49.8200 C   0  0  0  0  0  0  0  0  0  0  0  0
   58.9200   30.2640   50.2660 C   0  0  0  0  0  0  0  0  0  0  0  0
   58.8760   29.5530   51.4790 C   0  0  0  0  0  0  0  0  0  0  0  0
   58.2140   30.0880   52.5880 C   0  0  0  0  0  0  0  0  0  0  0  0
   57.6000   31.3400   52.5030 C   0  0  0  0  0  0  0  0  0  0  0  0
   56.9600   31.8560   53.5810 F   0  0  0  0  0  0  0  0  0  0  0  0
   57.6520   32.0630   51.3090 C   0  0  0  0  0  0  0  0  0  0  0  0
   58.3130   31.5330   50.1960 C   0  0  0  0  0  0  0  0  0  0  0  0
   56.8160   29.2250   45.2140 C   0  0  0  0  0  0  0  0  0  0  0  0
   56.3380   30.1730   44.1030 C   0  0  0  0  0  0  0  0  0  0  0  0
   58.2750   33.1960   46.9590 C   0  0  0  0  0  0  0  0  0  0  0  0
   59.0593   34.0988   49.4771 H   0  0  0  0  0  0  0  0  0  0  0  0
   60.3462   32.9937   48.8862 H   0  0  0  0  0  0  0  0  0  0  0  0
   60.6175   34.7694   48.8862 H   0  0  0  0  0  0  0  0  0  0  0  0
   60.6759   35.6237   46.7275 H   0  0  0  0  0  0  0  0  0  0  0  0
   59.7727   35.7310   44.4054 H   0  0  0  0  0  0  0  0  0  0  0  0
   57.9152   34.2200   43.7111 H   0  0  0  0  0  0  0  0  0  0  0  0
   56.3589   31.7078   46.0972 H   0  0  0  0  0  0  0  0  0  0  0  0
   55.7921   32.9494   44.9159 H   0  0  0  0  0  0  0  0  0  0  0  0
   58.7634   30.8478   43.0379 H   0  0  0  0  0  0  0  0  0  0  0  0
   58.9958   32.2584   44.1692 H   0  0  0  0  0  0  0  0  0  0  0  0
   60.1501   30.1547   44.9186 H   0  0  0  0  0  0  0  0  0  0  0  0
   58.9465   30.8106   46.0920 H   0  0  0  0  0  0  0  0  0  0  0  0
   58.5203   28.5126   44.1267 H   0  0  0  0  0  0  0  0  0  0  0  0
   58.4886   26.9913   45.8878 H   0  0  0  0  0  0  0  0  0  0  0  0
   59.9686   28.0648   46.0996 H   0  0  0  0  0  0  0  0  0  0  0  0
   57.3990   28.1398   47.7256 H   0  0  0  0  0  0  0  0  0  0  0  0
   59.0429   27.6096   48.2626 H   0  0  0  0  0  0  0  0  0  0  0  0
   60.0308   28.6831   49.3182 H   0  0  0  0  0  0  0  0  0  0  0  0
   60.4634   30.6997   46.6398 H   0  0  0  0  0  0  0  0  0  0  0  0
   62.4015   32.1950   46.1689 H   0  0  0  0  0  0  0  0  0  0  0  0
   63.4197   32.2151   50.3717 H   0  0  0  0  0  0  0  0  0  0  0  0
   61.4851   30.7175   50.8538 H   0  0  0  0  0  0  0  0  0  0  0  0
   59.3652   28.5707   51.5553 H   0  0  0  0  0  0  0  0  0  0  0  0
   58.1765   29.5216   53.5302 H   0  0  0  0  0  0  0  0  0  0  0  0
   57.1724   33.0508   51.2439 H   0  0  0  0  0  0  0  0  0  0  0  0
   58.3590   32.1105   49.2609 H   0  0  0  0  0  0  0  0  0  0  0  0
   56.2927   28.2620   45.1201 H   0  0  0  0  0  0  0  0  0  0  0  0
   56.5960   29.6781   46.1919 H   0  0  0  0  0  0  0  0  0  0  0  0
   56.5011   29.6875   43.1295 H   0  0  0  0  0  0  0  0  0  0  0  0
   55.2717   30.3816   44.2748 H   0  0  0  0  0  0  0  0  0  0  0  0
   57.8585   32.4749   47.6777 H   0  0  0  0  0  0  0  0  0  0  0  0
  1  2  1  0
  2  3  2  0
  3  4  1  0
  4  5  2  0
  5  6  1  0
  6  7  1  0
  7  8  1  0
  8  9  1  0
  9 10  1  0
 10 11  1  0
 11 12  1  0
 12 13  1  0
 13 14  1  0
 14 15  1  0
 15 16  1  0
 16 17  2  0
 17 18  1  0
 18 19  2  0
 19 20  1  0
 19 21  1  0
 21 22  2  0
 15 23  1  0
 23 24  2  0
 24 25  1  0
 25 26  2  0
 26 27  1  0
 26 28  1  0
 28 29  2  0
 11 30  1  0
 30 31  1  0
  6 32  2  0
 32  2  1  0
 31  8  1  0
 22 16  1  0
 29 23  1  0
  1 33  1  0
  1 34  1  0
  1 35  1  0
  3 36  1  0
  4 37  1  0
  5 38  1  0
  7 39  1  0
  7 40  1  0
  9 41  1  0
  9 42  1  0
 10 43  1  0
 10 44  1  0
 11 45  1  0
 12 46  1  0
 12 47  1  0
 13 48  1  0
 13 49  1  0
 15 50  1  0
 17 51  1  0
 18 52  1  0
 21 53  1  0
 22 54  1  0
 24 55  1  0
 25 56  1  0
 28 57  1  0
 29 58  1  0
 30 59  1  0
 30 60  1  0
 31 61  1  0
 31 62  1  0
 32 63  1  0
M  END
>  <UniqueID>  (23) 
21

>  <SMILES>  (23) 
Cc1cccc(CN2CCC(CCOC(c3ccc(F)cc3)c3ccc(F)cc3)CC2)c1

>  <Energy>  (23) 
69.18079748964203

>  <Genealogy>  (23) 
Cc1cccc(CN2CCC(CCOC(c3ccc(F)cc3)c3ccc(F)cc3)CC2)c1 (3D coordinates assigned)
Cc1cccc(CN2CCC(CCOC(c3ccc(F)cc3)c3ccc(F)cc3)CC2)c1 (nonaromatic ring conformer: 69.18079748964203 kcal/mol)

>  <smiles>  (23) 
Cc1cccc(CN2CCC(CCOC(c3ccc(F)cc3)c3ccc(F)cc3)CC2)c1

>  <score_type>  (23) 
oracle

>  <origin>  (23) 
adg

>  <m_score__min__energy>  (23) 
-9.3800000000000008

>  <m_primary>  (23) 
energy

$$$$
23:0
     RDKit          3D

 43 45  0  0  0  0  0  0  0  0999 V2000
   58.4050   29.8890   53.3680 O   0  0  0  0  0  0  0  0  0  0  0  0
   57.8270   30.8190   52.7400 C   0  0  0  0  0  0  0  0  0  0  0  0
   56.5010   31.2130   53.1160 N   0  0  0  0  0  0  0  0  0  0  0  0
   55.3360   31.1030   52.2470 C   0  0  0  0  0  0  0  0  0  0  0  0
   54.7750   29.6780   52.2740 C   0  0  0  0  0  0  0  0  0  0  0  0
   53.3540   29.6930   52.6260 N   0  0  0  0  0  0  0  0  0  0  0  0
   52.4770   30.6170   52.3440 C   0  0  0  0  0  0  0  0  0  0  0  0
   51.7020   31.2620   53.3300 C   0  0  0  0  0  0  0  0  0  0  0  0
   50.7930   32.2560   52.9480 C   0  0  0  0  0  0  0  0  0  0  0  0
   50.6650   32.6010   51.6400 N   0  0  0  0  0  0  0  0  0  0  0  0
   51.3950   31.9940   50.6680 C   0  0  0  0  0  0  0  0  0  0  0  0
   52.3050   30.9860   51.0020 C   0  0  0  0  0  0  0  0  0  0  0  0
   58.5180   31.5000   51.6190 C   0  0  0  0  0  0  0  0  0  0  0  0
   57.8460   31.7550   50.4120 C   0  0  0  0  0  0  0  0  0  0  0  0
   58.4970   32.4090   49.3610 C   0  0  0  0  0  0  0  0  0  0  0  0
   59.8320   32.8180   49.4920 C   0  0  0  0  0  0  0  0  0  0  0  0
   60.4640   33.4960   48.3920 N   0  0  0  0  0  0  0  0  0  0  0  0
   59.6300   34.0060   46.9560 S   0  0  0  0  0  0  0  0  0  0  0  0
   58.5540   34.9950   47.3070 O   0  0  0  0  0  0  0  0  0  0  0  0
   60.6070   34.6300   45.9990 O   0  0  0  0  0  0  0  0  0  0  0  0
   58.9070   32.6100   46.1770 C   0  0  0  0  0  0  0  0  0  0  0  0
   59.3640   31.3000   46.2790 C   0  0  0  0  0  0  0  0  0  0  0  0
   58.5980   30.3970   45.5320 C   0  0  0  0  0  0  0  0  0  0  0  0
   57.5460   31.0020   44.8530 C   0  0  0  0  0  0  0  0  0  0  0  0
   56.2800   30.1150   43.7360 Br  0  0  0  0  0  0  0  0  0  0  0  0
   57.5580   32.6540   45.1740 S   0  0  0  0  0  0  0  0  0  0  0  0
   60.5050   32.5710   50.7020 C   0  0  0  0  0  0  0  0  0  0  0  0
   59.8570   31.9120   51.7500 C   0  0  0  0  0  0  0  0  0  0  0  0
   54.5607   31.8032   52.5916 H   0  0  0  0  0  0  0  0  0  0  0  0
   55.6378   31.3455   51.2174 H   0  0  0  0  0  0  0  0  0  0  0  0
   54.8970   29.2220   51.2804 H   0  0  0  0  0  0  0  0  0  0  0  0
   55.3224   29.0944   53.0288 H   0  0  0  0  0  0  0  0  0  0  0  0
   51.8107   30.9867   54.3894 H   0  0  0  0  0  0  0  0  0  0  0  0
   50.1800   32.7597   53.7099 H   0  0  0  0  0  0  0  0  0  0  0  0
   51.2701   32.2957   49.6176 H   0  0  0  0  0  0  0  0  0  0  0  0
   52.8847   30.4836   50.2137 H   0  0  0  0  0  0  0  0  0  0  0  0
   56.7995   31.4378   50.2925 H   0  0  0  0  0  0  0  0  0  0  0  0
   57.9568   32.6044   48.4229 H   0  0  0  0  0  0  0  0  0  0  0  0
   61.4780   33.7320   48.4610 H   0  0  0  0  0  0  0  0  0  0  0  0
   60.2349   31.0049   46.8826 H   0  0  0  0  0  0  0  0  0  0  0  0
   58.8072   29.3180   45.4868 H   0  0  0  0  0  0  0  0  0  0  0  0
   61.5480   32.8986   50.8241 H   0  0  0  0  0  0  0  0  0  0  0  0
   60.3989   31.7134   52.6864 H   0  0  0  0  0  0  0  0  0  0  0  0
  1  2  2  0
  2  3  1  0
  3  4  1  0
  4  5  1  0
  5  6  1  0
  6  7  2  3
  7  8  1  0
  8  9  2  0
  9 10  1  0
 10 11  1  0
 11 12  2  0
  2 13  1  0
 13 14  2  0
 14 15  1  0
 15 16  2  0
 16 17  1  0
 17 18  1  0
 18 19  2  0
 18 20  2  0
 18 21  1  0
 21 22  2  0
 22 23  1  0
 23 24  2  0
 24 25  1  0
 24 26  1  0
 16 27  1  0
 27 28  2  0
 12  7  1  0
 28 13  1  0
 26 21  1  0
  4 29  1  0
  4 30  1  0
  5 31  1  0
  5 32  1  0
  8 33  1  0
  9 34  1  0
 11 35  1  0
 12 36  1  0
 14 37  1  0
 15 38  1  0
 17 39  1  0
 22 40  1  0
 23 41  1  0
 27 42  1  0
 28 43  1  0
M  CHG  2   3  -1  10  -1
M  END
>  <UniqueID>  (24) 
22

>  <SMILES>  (24) 
O=C([N-]CCN=c1cc[n-]cc1)c1ccc(NS(=O)(=O)c2ccc(Br)s2)cc1

>  <Energy>  (24) 
76.3801196776148

>  <Genealogy>  (24) 
O=C([N-]CCN=c1cc[n-]cc1)c1ccc(NS(=O)(=O)c2ccc(Br)s2)cc1 (protonated)
O=C([N-]CCN=c1cc[n-]cc1)c1ccc(NS(=O)(=O)c2ccc(Br)s2)cc1 (3D coordinates assigned)
O=C([N-]CCN=c1cc[n-]cc1)c1ccc(NS(=O)(=O)c2ccc(Br)s2)cc1 (optimized conformer: 76.3801196776148 kcal/mol)

>  <smiles>  (24) 
O=C(NCCN=c1cc[nH]cc1)c1ccc(NS(=O)(=O)c2ccc(Br)s2)cc1

>  <score_type>  (24) 
oracle

>  <origin>  (24) 
adg

>  <m_score__min__energy>  (24) 
-12.359999999999999

>  <m_primary>  (24) 
energy

$$$$
24:0
     RDKit          3D

 41 43  0  0  0  0  0  0  0  0999 V2000
   60.2417   29.7826   45.3628 H   0  0  0  0  0  0  0  0  0  0  0  0
   59.8400   29.9930   46.3650 C   0  0  0  0  0  0  0  0  0  0  0  0
   59.4040   31.2420   46.6740 N   0  0  0  0  0  0  0  0  0  0  0  0
   58.9110   31.5270   47.9080 C   0  0  0  0  0  0  0  0  0  0  0  0
   58.4840   32.7270   48.1610 N   0  0  0  0  0  0  0  0  0  0  0  0
   59.2130   33.9500   47.8330 C   0  0  0  0  0  0  0  0  0  0  0  0
   60.2918   33.7756   47.9590 H   0  0  0  0  0  0  0  0  0  0  0  0
   58.8838   34.7568   48.5043 H   0  0  0  0  0  0  0  0  0  0  0  0
   58.9320   34.3560   46.3870 C   0  0  0  0  0  0  0  0  0  0  0  0
   59.8352   34.1868   45.7823 H   0  0  0  0  0  0  0  0  0  0  0  0
   58.6527   35.4197   46.3661 H   0  0  0  0  0  0  0  0  0  0  0  0
   57.8210   33.5630   45.8300 N   0  0  0  0  0  0  0  0  0  0  0  0
   57.7970   32.6460   46.3360 H   0  0  0  0  0  0  0  0  0  0  0  0
   57.9950   33.2570   44.4010 C   0  0  0  0  0  0  0  0  0  0  0  0
   59.0687   33.2583   44.1618 H   0  0  0  0  0  0  0  0  0  0  0  0
   57.4663   34.0222   43.8137 H   0  0  0  0  0  0  0  0  0  0  0  0
   57.4200   31.9160   44.0610 C   0  0  0  0  0  0  0  0  0  0  0  0
   56.9630   31.0700   45.0230 N   0  0  0  0  0  0  0  0  0  0  0  0
   56.4760   29.9290   44.4880 C   0  0  0  0  0  0  0  0  0  0  0  0
   55.9490   28.9590   45.1750 N   0  0  0  0  0  0  0  0  0  0  0  0
   56.6170   27.7700   45.6200 C   0  0  0  0  0  0  0  0  0  0  0  0
   57.8600   27.6740   45.4380 O   0  0  0  0  0  0  0  0  0  0  0  0
   55.8810   26.7040   46.2480 N   0  0  0  0  0  0  0  0  0  0  0  0
   55.6260   25.5270   45.7550 C   0  0  0  0  0  0  0  0  0  0  0  0
   54.4350   24.9020   45.9840 N   0  0  0  0  0  0  0  0  0  0  0  0
   54.1670   23.6620   45.4950 C   0  0  0  0  0  0  0  0  0  0  0  0
   53.1947   23.1893   45.6979 H   0  0  0  0  0  0  0  0  0  0  0  0
   55.1260   22.9880   44.7350 C   0  0  0  0  0  0  0  0  0  0  0  0
   54.9179   21.9821   44.3415 H   0  0  0  0  0  0  0  0  0  0  0  0
   56.3510   23.6060   44.4810 C   0  0  0  0  0  0  0  0  0  0  0  0
   57.1147   23.0895   43.8810 H   0  0  0  0  0  0  0  0  0  0  0  0
   56.6060   24.8820   44.9900 C   0  0  0  0  0  0  0  0  0  0  0  0
   57.5686   25.3760   44.7915 H   0  0  0  0  0  0  0  0  0  0  0  0
   56.6080   29.9140   42.8160 S   0  0  0  0  0  0  0  0  0  0  0  0
   57.3110   31.4410   42.7560 C   0  0  0  0  0  0  0  0  0  0  0  0
   57.6288   31.9713   41.8462 H   0  0  0  0  0  0  0  0  0  0  0  0
   58.8560   30.5480   48.8550 N   0  0  0  0  0  0  0  0  0  0  0  0
   59.2780   29.2850   48.5820 C   0  0  0  0  0  0  0  0  0  0  0  0
   59.2249   28.5064   49.3572 H   0  0  0  0  0  0  0  0  0  0  0  0
   59.7780   28.9790   47.3180 C   0  0  0  0  0  0  0  0  0  0  0  0
   60.1160   27.9601   47.0782 H   0  0  0  0  0  0  0  0  0  0  0  0
  1  2  1  0
  2  3  2  0
  3  4  1  0
  4  5  2  3
  5  6  1  0
  6  7  1  0
  6  8  1  0
  6  9  1  0
  9 10  1  0
  9 11  1  0
  9 12  1  0
 12 13  1  0
 12 14  1  0
 14 15  1  0
 14 16  1  0
 14 17  1  0
 17 18  1  0
 18 19  1  0
 19 20  2  3
 20 21  1  0
 21 22  2  0
 21 23  1  0
 23 24  2  0
 24 25  1  0
 25 26  1  0
 26 27  1  0
 26 28  2  0
 28 29  1  0
 28 30  1  0
 30 31  1  0
 30 32  2  0
 32 33  1  0
 19 34  1  0
 34 35  1  0
 35 36  1  0
  4 37  1  0
 37 38  1  0
 38 39  1  0
 38 40  2  0
 40 41  1  0
 40  2  1  0
 35 17  2  0
 32 24  1  0
M  CHG  3  18  -1  25  -1  37  -1
M  END
>  <UniqueID>  (25) 
23

>  <SMILES>  (25) 
O=C(N=c1[n-]c(CNCCN=c2nccc[n-]2)cs1)/N=c1/cccc[n-]1

>  <Energy>  (25) 
71.40537826336954

>  <Genealogy>  (25) 
O=C(N=c1cccc[n-]1)N=c1[n-]c(CNCCN=c2nccc[n-]2)cs1 (protonated)
O=C(N=c1[n-]c(CNCCN=c2nccc[n-]2)cs1)/N=c1/cccc[n-]1 (cis-trans isomerization)
O=C(N=c1[n-]c(CNCCN=c2nccc[n-]2)cs1)/N=c1/cccc[n-]1 (3D coordinates assigned)
O=C(N=c1[n-]c(CNCCN=c2nccc[n-]2)cs1)/N=c1/cccc[n-]1 (optimized conformer: 71.40537826336954 kcal/mol)

>  <smiles>  (25) 
O=C(N=c1cccc[nH]1)N=c1[nH]c(CNCCN=c2nccc[nH]2)cs1

>  <score_type>  (25) 
oracle

>  <origin>  (25) 
adg

>  <m_score__min__energy>  (25) 
-12.380000000000001

>  <m_primary>  (25) 
energy

$$$$
25:0
     RDKit          3D

 29 31  0  0  0  0  0  0  0  0999 V2000
   63.8490   34.1830   51.6430 C   0  0  0  0  0  0  0  0  0  0  0  0
   63.6910   33.6890   50.2790 N   0  0  0  0  0  0  0  0  0  0  0  0
   64.6500   33.1070   49.5180 C   0  0  0  0  0  0  0  0  0  0  0  0
   64.1370   32.7630   48.2710 C   0  0  0  0  0  0  0  0  0  0  0  0
   62.8160   33.1590   48.2980 C   0  0  0  0  0  0  0  0  0  0  0  0
   61.8250   33.0630   47.3240 C   0  0  0  0  0  0  0  0  0  0  0  0
   60.5380   33.5640   47.6280 C   0  0  0  0  0  0  0  0  0  0  0  0
   59.4480   33.4830   46.6250 C   0  0  0  0  0  0  0  0  0  0  0  0
   58.8050   32.3190   46.4200 C   0  0  0  0  0  0  0  0  0  0  0  0
   57.7060   32.2280   45.4400 C   0  0  0  0  0  0  0  0  0  0  0  0
   57.1120   31.1330   45.2550 O   0  0  0  0  0  0  0  0  0  0  0  0
   57.3020   33.4240   44.6810 C   0  0  0  0  0  0  0  0  0  0  0  0
   57.9350   34.5830   44.8690 C   0  0  0  0  0  0  0  0  0  0  0  0
   59.0490   34.6790   45.8330 C   0  0  0  0  0  0  0  0  0  0  0  0
   59.6680   35.7690   45.9550 O   0  0  0  0  0  0  0  0  0  0  0  0
   60.2950   34.1370   48.9050 C   0  0  0  0  0  0  0  0  0  0  0  0
   61.3180   34.2170   49.8650 C   0  0  0  0  0  0  0  0  0  0  0  0
   62.5760   33.7160   49.5250 C   0  0  0  0  0  0  0  0  0  0  0  0
   63.5934   33.3838   52.3543 H   0  0  0  0  0  0  0  0  0  0  0  0
   64.8918   34.4952   51.8014 H   0  0  0  0  0  0  0  0  0  0  0  0
   63.1809   35.0424   51.8014 H   0  0  0  0  0  0  0  0  0  0  0  0
   65.6869   32.9315   49.8405 H   0  0  0  0  0  0  0  0  0  0  0  0
   64.6713   32.2784   47.4405 H   0  0  0  0  0  0  0  0  0  0  0  0
   62.0377   32.6096   46.3446 H   0  0  0  0  0  0  0  0  0  0  0  0
   59.1019   31.4257   46.9892 H   0  0  0  0  0  0  0  0  0  0  0  0
   56.4761   33.3612   43.9572 H   0  0  0  0  0  0  0  0  0  0  0  0
   57.6249   35.4731   44.3020 H   0  0  0  0  0  0  0  0  0  0  0  0
   59.2934   34.5229   49.1453 H   0  0  0  0  0  0  0  0  0  0  0  0
   61.1333   34.6609   50.8544 H   0  0  0  0  0  0  0  0  0  0  0  0
  1  2  1  0
  2  3  1  0
  3  4  2  0
  4  5  1  0
  5  6  2  0
  6  7  1  0
  7  8  1  0
  8  9  2  0
  9 10  1  0
 10 11  2  0
 10 12  1  0
 12 13  2  0
 13 14  1  0
 14 15  2  0
  7 16  2  0
 16 17  1  0
 17 18  2  0
 18  2  1  0
 18  5  1  0
 14  8  1  0
  1 19  1  0
  1 20  1  0
  1 21  1  0
  3 22  1  0
  4 23  1  0
  6 24  1  0
  9 25  1  0
 12 26  1  0
 13 27  1  0
 16 28  1  0
 17 29  1  0
M  END
>  <UniqueID>  (26) 
24

>  <SMILES>  (26) 
Cn1ccc2cc(C3=CC(=O)C=CC3=O)ccc21

>  <Energy>  (26) 
67.96607536038437

>  <Genealogy>  (26) 
Cn1ccc2cc(C3=CC(=O)C=CC3=O)ccc21 (3D coordinates assigned)
Cn1ccc2cc(C3=CC(=O)C=CC3=O)ccc21 (nonaromatic ring conformer: 67.96607536038437 kcal/mol)

>  <smiles>  (26) 
Cn1ccc2cc(C3=CC(=O)C=CC3=O)ccc21

>  <score_type>  (26) 
oracle

>  <origin>  (26) 
adg

>  <m_score__min__energy>  (26) 
-7.3099999999999996

>  <m_primary>  (26) 
energy

$$$$
26:0
     RDKit          3D

 41 42  0  0  0  0  0  0  0  0999 V2000
   57.6990   23.9190   44.2940 C   0  0  0  0  0  0  0  0  0  0  0  0
   57.6540   23.3720   45.7170 C   0  0  0  0  0  0  0  0  0  0  0  0
   57.9970   24.4600   46.7390 C   0  0  0  0  0  0  0  0  0  0  0  0
   57.4090   25.7920   46.3200 C   0  0  0  0  0  0  0  0  0  0  0  0
   58.2210   26.9180   46.0620 C   0  0  0  0  0  0  0  0  0  0  0  0
   60.0040   26.8900   46.3100 S   0  0  0  0  0  0  0  0  0  0  0  0
   60.3570   28.2360   45.1240 C   0  0  0  0  0  0  0  0  0  0  0  0
   60.2000   29.5820   45.7620 C   0  0  0  0  0  0  0  0  0  0  0  0
   61.1260   30.0320   46.4900 O   0  0  0  0  0  0  0  0  0  0  0  0
   58.9850   30.3260   45.5790 N   0  0  0  0  0  0  0  0  0  0  0  0
   58.8090   31.7010   45.9720 C   0  0  0  0  0  0  0  0  0  0  0  0
   59.7770   32.3600   46.7530 C   0  0  0  0  0  0  0  0  0  0  0  0
   59.6150   33.7030   47.0970 C   0  0  0  0  0  0  0  0  0  0  0  0
   58.4940   34.4070   46.6610 C   0  0  0  0  0  0  0  0  0  0  0  0
   57.5320   33.7720   45.8720 C   0  0  0  0  0  0  0  0  0  0  0  0
   57.6820   32.4160   45.5160 C   0  0  0  0  0  0  0  0  0  0  0  0
   56.7340   31.7500   44.7230 O   0  0  0  0  0  0  0  0  0  0  0  0
   56.9910   31.2300   43.4230 C   0  0  0  0  0  0  0  0  0  0  0  0
   57.6570   28.0640   45.5980 N   0  0  0  0  0  0  0  0  0  0  0  0
   56.3210   28.1580   45.3870 C   0  0  0  0  0  0  0  0  0  0  0  0
   55.8270   29.2350   44.9640 O   0  0  0  0  0  0  0  0  0  0  0  0
   55.5180   27.0920   45.6290 N   0  0  0  0  0  0  0  0  0  0  0  0
   56.0270   25.9180   46.0800 C   0  0  0  0  0  0  0  0  0  0  0  0
   55.2480   24.9460   46.2720 O   0  0  0  0  0  0  0  0  0  0  0  0
   57.7892   25.0149   44.3251 H   0  0  0  0  0  0  0  0  0  0  0  0
   58.5653   23.4947   43.7653 H   0  0  0  0  0  0  0  0  0  0  0  0
   56.7750   23.6420   43.7653 H   0  0  0  0  0  0  0  0  0  0  0  0
   56.6427   22.9916   45.9235 H   0  0  0  0  0  0  0  0  0  0  0  0
   58.3968   22.5653   45.8040 H   0  0  0  0  0  0  0  0  0  0  0  0
   57.5870   24.1766   47.7196 H   0  0  0  0  0  0  0  0  0  0  0  0
   59.0910   24.5587   46.7972 H   0  0  0  0  0  0  0  0  0  0  0  0
   61.3897   28.1307   44.7602 H   0  0  0  0  0  0  0  0  0  0  0  0
   59.6406   28.1614   44.2926 H   0  0  0  0  0  0  0  0  0  0  0  0
   58.1680   29.8190   45.1700 H   0  0  0  0  0  0  0  0  0  0  0  0
   60.6678   31.8125   47.0948 H   0  0  0  0  0  0  0  0  0  0  0  0
   60.3738   34.2069   47.7136 H   0  0  0  0  0  0  0  0  0  0  0  0
   58.3667   35.4638   46.9385 H   0  0  0  0  0  0  0  0  0  0  0  0
   56.6516   34.3335   45.5261 H   0  0  0  0  0  0  0  0  0  0  0  0
   57.4768   30.2470   43.5107 H   0  0  0  0  0  0  0  0  0  0  0  0
   56.0422   31.1226   42.8769 H   0  0  0  0  0  0  0  0  0  0  0  0
   57.6526   31.9185   42.8769 H   0  0  0  0  0  0  0  0  0  0  0  0
  1  2  1  0
  2  3  1  0
  3  4  1  0
  4  5  2  0
  5  6  1  0
  6  7  1  0
  7  8  1  0
  8  9  2  0
  8 10  1  0
 10 11  1  0
 11 12  2  0
 12 13  1  0
 13 14  2  0
 14 15  1  0
 15 16  2  0
 16 17  1  0
 17 18  1  0
  5 19  1  0
 19 20  1  0
 20 21  2  0
 20 22  1  0
 22 23  1  0
 23 24  2  0
 23  4  1  0
 16 11  1  0
  1 25  1  0
  1 26  1  0
  1 27  1  0
  2 28  1  0
  2 29  1  0
  3 30  1  0
  3 31  1  0
  7 32  1  0
  7 33  1  0
 10 34  1  0
 12 35  1  0
 13 36  1  0
 14 37  1  0
 15 38  1  0
 18 39  1  0
 18 40  1  0
 18 41  1  0
M  CHG  2  19  -1  22  -1
M  END
>  <UniqueID>  (27) 
25

>  <SMILES>  (27) 
CCCc1c(SCC(=O)Nc2ccccc2OC)[n-]c(=O)[n-]c1=O

>  <Energy>  (27) 
35.71880022313656

>  <Genealogy>  (27) 
CCCc1c(SCC(=O)Nc2ccccc2OC)[n-]c(=O)[n-]c1=O (protonated)
CCCc1c(SCC(=O)Nc2ccccc2OC)[n-]c(=O)[n-]c1=O (3D coordinates assigned)
CCCc1c(SCC(=O)Nc2ccccc2OC)[n-]c(=O)[n-]c1=O (optimized conformer: 35.71880022313656 kcal/mol)

>  <smiles>  (27) 
CCCc1c(SCC(=O)Nc2ccccc2OC)[nH]c(=O)[nH]c1=O

>  <score_type>  (27) 
oracle

>  <origin>  (27) 
adg

>  <m_score__min__energy>  (27) 
-11.02

>  <m_primary>  (27) 
energy

$$$$
27:0
     RDKit          3D

 51 53  0  0  0  0  0  0  0  0999 V2000
   59.0690   33.2010   51.3250 C   0  0  0  0  0  0  0  0  0  0  0  0
   59.8230   34.2040   50.6540 O   0  0  0  0  0  0  0  0  0  0  0  0
   60.8230   33.9410   49.7030 C   0  0  0  0  0  0  0  0  0  0  0  0
   62.0630   33.3810   50.0510 C   0  0  0  0  0  0  0  0  0  0  0  0
   62.9910   33.1310   49.0930 N   0  0  0  0  0  0  0  0  0  0  0  0
   62.7400   33.4050   47.7860 C   0  0  0  0  0  0  0  0  0  0  0  0
   63.7870   33.1490   46.7550 C   0  0  0  0  0  0  0  0  0  0  0  0
   61.5530   33.9590   47.4260 N   0  0  0  0  0  0  0  0  0  0  0  0
   60.5880   34.2290   48.3450 C   0  0  0  0  0  0  0  0  0  0  0  0
   59.2740   34.8010   47.8760 C   0  0  0  0  0  0  0  0  0  0  0  0
   58.3380   33.7330   47.4990 N   0  0  0  0  0  0  0  0  0  0  0  0
   58.6880   33.0910   46.2170 C   0  0  2  0  0  0  0  0  0  0  0  0
   58.2220   33.9120   44.9840 C   0  0  0  0  0  0  0  0  0  0  0  0
   57.7210   33.0370   43.8190 C   0  0  0  0  0  0  0  0  0  0  0  0
   58.4950   31.7150   43.6930 C   0  0  0  0  0  0  0  0  0  0  0  0
   58.5500   30.9880   44.9740 N   0  0  0  0  0  0  0  0  0  0  0  0
   58.9590   29.6020   44.9850 C   0  0  0  0  0  0  0  0  0  0  0  0
   60.1110   29.2820   44.5830 O   0  0  0  0  0  0  0  0  0  0  0  0
   58.0570   28.5290   45.4520 C   0  0  0  0  0  0  0  0  0  0  0  0
   58.6010   27.4460   46.1550 C   0  0  0  0  0  0  0  0  0  0  0  0
   57.7810   26.3960   46.5690 C   0  0  0  0  0  0  0  0  0  0  0  0
   56.4170   26.4400   46.2810 C   0  0  0  0  0  0  0  0  0  0  0  0
   55.6650   25.4950   46.6360 O   0  0  0  0  0  0  0  0  0  0  0  0
   55.8960   27.5050   45.6180 N   0  0  0  0  0  0  0  0  0  0  0  0
   56.6630   28.5530   45.2110 C   0  0  0  0  0  0  0  0  0  0  0  0
   55.9930   29.6830   44.4840 C   0  0  0  0  0  0  0  0  0  0  0  0
   58.1210   31.6690   46.2040 C   0  0  0  0  0  0  0  0  0  0  0  0
   59.1686   33.3335   52.4124 H   0  0  0  0  0  0  0  0  0  0  0  0
   58.0099   33.2868   51.0406 H   0  0  0  0  0  0  0  0  0  0  0  0
   59.4457   32.2074   51.0406 H   0  0  0  0  0  0  0  0  0  0  0  0
   62.2825   33.1445   51.1026 H   0  0  0  0  0  0  0  0  0  0  0  0
   64.7407   32.9158   47.2510 H   0  0  0  0  0  0  0  0  0  0  0  0
   63.4829   32.2988   46.1268 H   0  0  0  0  0  0  0  0  0  0  0  0
   63.9095   34.0436   46.1268 H   0  0  0  0  0  0  0  0  0  0  0  0
   58.8313   35.3971   48.6876 H   0  0  0  0  0  0  0  0  0  0  0  0
   59.4613   35.4299   46.9931 H   0  0  0  0  0  0  0  0  0  0  0  0
   57.3660   34.1170   47.4730 H   0  0  0  0  0  0  0  0  0  0  0  0
   59.7843   33.0489   46.1371 H   0  0  0  0  0  0  0  0  0  0  0  0
   57.4038   34.5772   45.2972 H   0  0  0  0  0  0  0  0  0  0  0  0
   59.0957   34.4709   44.6175 H   0  0  0  0  0  0  0  0  0  0  0  0
   56.6578   32.8078   43.9833 H   0  0  0  0  0  0  0  0  0  0  0  0
   57.8768   33.6026   42.8885 H   0  0  0  0  0  0  0  0  0  0  0  0
   57.9969   31.0808   42.9449 H   0  0  0  0  0  0  0  0  0  0  0  0
   59.5257   31.9502   43.3891 H   0  0  0  0  0  0  0  0  0  0  0  0
   59.6773   27.4236   46.3811 H   0  0  0  0  0  0  0  0  0  0  0  0
   58.2059   25.5421   47.1170 H   0  0  0  0  0  0  0  0  0  0  0  0
   55.5733   30.3909   45.2139 H   0  0  0  0  0  0  0  0  0  0  0  0
   56.7300   30.2011   43.8528 H   0  0  0  0  0  0  0  0  0  0  0  0
   55.1849   29.2849   43.8528 H   0  0  0  0  0  0  0  0  0  0  0  0
   57.0223   31.7109   46.2371 H   0  0  0  0  0  0  0  0  0  0  0  0
   58.4905   31.1161   47.0802 H   0  0  0  0  0  0  0  0  0  0  0  0
  1  2  1  0
  2  3  1  0
  3  4  2  0
  4  5  1  0
  5  6  2  0
  6  7  1  0
  6  8  1  0
  8  9  2  0
  9 10  1  0
 10 11  1  0
 11 12  1  0
 12 13  1  0
 13 14  1  0
 14 15  1  0
 15 16  1  0
 16 17  1  0
 17 18  2  0
 17 19  1  0
 19 20  1  0
 20 21  2  0
 21 22  1  0
 22 23  2  0
 22 24  1  0
 24 25  1  0
 25 26  1  0
 16 27  1  0
  9  3  1  0
 27 12  1  0
 25 19  2  0
  1 28  1  0
  1 29  1  0
  1 30  1  0
  4 31  1  0
  7 32  1  0
  7 33  1  0
  7 34  1  0
 10 35  1  0
 10 36  1  0
 11 37  1  0
 12 38  1  6
 13 39  1  0
 13 40  1  0
 14 41  1  0
 14 42  1  0
 15 43  1  0
 15 44  1  0
 20 45  1  0
 21 46  1  0
 26 47  1  0
 26 48  1  0
 26 49  1  0
 27 50  1  0
 27 51  1  0
M  CHG  1  24  -1
M  END
>  <UniqueID>  (28) 
26

>  <SMILES>  (28) 
COc1cnc(C)nc1CN[C@@H]1CCCN(C(=O)c2ccc(=O)[n-]c2C)C1

>  <Energy>  (28) 
58.643279005284306

>  <Genealogy>  (28) 
COc1cnc(C)nc1CNC1CCCN(C(=O)c2ccc(=O)[n-]c2C)C1 (protonated)
COc1cnc(C)nc1CN[C@@H]1CCCN(C(=O)c2ccc(=O)[n-]c2C)C1 (chirality)
COc1cnc(C)nc1CN[C@@H]1CCCN(C(=O)c2ccc(=O)[n-]c2C)C1 (3D coordinates assigned)
COc1cnc(C)nc1CN[C@@H]1CCCN(C(=O)c2ccc(=O)[n-]c2C)C1 (nonaromatic ring conformer: 58.643279005284306 kcal/mol)

>  <smiles>  (28) 
COc1cnc(C)nc1CNC1CCCN(C(=O)c2ccc(=O)[nH]c2C)C1

>  <score_type>  (28) 
oracle

>  <origin>  (28) 
adg

>  <m_score__min__energy>  (28) 
-10.25

>  <m_primary>  (28) 
energy

$$$$
28:0
     RDKit          3D

 46 48  0  0  0  0  0  0  0  0999 V2000
   55.4070   24.3990   47.0820 O   0  0  0  0  0  0  0  0  0  0  0  0
   56.6650   24.4640   47.0850 C   0  0  0  0  0  0  0  0  0  0  0  0
   57.3960   23.3770   47.5520 O   0  0  0  0  0  0  0  0  0  0  0  0
   57.3560   25.6810   46.6040 C   0  0  0  0  0  0  0  0  0  0  0  0
   58.7510   25.8090   46.7270 C   0  0  0  0  0  0  0  0  0  0  0  0
   59.4020   26.9530   46.2580 C   0  0  0  0  0  0  0  0  0  0  0  0
   58.6720   27.9870   45.6530 C   0  0  0  0  0  0  0  0  0  0  0  0
   59.3730   29.1960   45.0900 C   0  0  0  0  0  0  0  0  0  0  0  0
   58.4460   29.9970   44.2910 N   0  0  0  0  0  0  0  0  0  0  0  0
   57.5740   31.0020   44.8230 C   0  0  0  0  0  0  0  0  0  0  0  0
   56.3340   30.7870   44.8490 O   0  0  0  0  0  0  0  0  0  0  0  0
   58.0910   32.2950   45.3060 C   0  0  0  0  0  0  0  0  0  0  0  0
   58.0850   33.4030   44.4460 C   0  0  0  0  0  0  0  0  0  0  0  0
   58.5540   34.6400   44.8890 C   0  0  0  0  0  0  0  0  0  0  0  0
   59.0280   34.7810   46.1930 C   0  0  0  0  0  0  0  0  0  0  0  0
   59.0310   33.6870   47.0610 C   0  0  0  0  0  0  0  0  0  0  0  0
   58.5660   32.4310   46.6280 C   0  0  0  0  0  0  0  0  0  0  0  0
   58.5190   31.3000   47.5100 N   0  0  0  0  0  0  0  0  0  0  0  0
   59.8150   30.7800   48.5360 S   0  0  0  0  0  0  0  0  0  0  0  0
   60.2290   29.3940   48.1290 O   0  0  0  0  0  0  0  0  0  0  0  0
   59.3120   30.7320   49.9490 O   0  0  0  0  0  0  0  0  0  0  0  0
   61.2020   31.8650   48.3230 C   0  0  0  0  0  0  0  0  0  0  0  0
   62.1130   31.5440   47.3040 C   0  0  0  0  0  0  0  0  0  0  0  0
   63.2800   32.2900   47.1270 C   0  0  0  0  0  0  0  0  0  0  0  0
   63.5600   33.3590   47.9770 C   0  0  0  0  0  0  0  0  0  0  0  0
   62.6670   33.6940   48.9960 C   0  0  0  0  0  0  0  0  0  0  0  0
   61.4760   32.9720   49.1700 C   0  0  0  0  0  0  0  0  0  0  0  0
   60.5590   33.4170   50.2300 C   0  0  0  0  0  0  0  0  0  0  0  0
   59.6270   34.2210   49.9660 O   0  0  0  0  0  0  0  0  0  0  0  0
   60.7820   33.0300   51.5460 O   0  0  0  0  0  0  0  0  0  0  0  0
   57.2810   27.8660   45.5390 C   0  0  0  0  0  0  0  0  0  0  0  0
   56.6270   26.7230   46.0090 C   0  0  0  0  0  0  0  0  0  0  0  0
   59.3340   25.0026   47.1959 H   0  0  0  0  0  0  0  0  0  0  0  0
   60.4932   27.0433   46.3638 H   0  0  0  0  0  0  0  0  0  0  0  0
   59.7606   29.8083   45.9176 H   0  0  0  0  0  0  0  0  0  0  0  0
   60.2007   28.8614   44.4474 H   0  0  0  0  0  0  0  0  0  0  0  0
   57.7089   33.2962   43.4178 H   0  0  0  0  0  0  0  0  0  0  0  0
   58.5499   35.5048   44.2092 H   0  0  0  0  0  0  0  0  0  0  0  0
   59.4005   35.7565   46.5388 H   0  0  0  0  0  0  0  0  0  0  0  0
   59.3994   33.8077   48.0904 H   0  0  0  0  0  0  0  0  0  0  0  0
   61.9048   30.6945   46.6370 H   0  0  0  0  0  0  0  0  0  0  0  0
   63.9786   32.0342   46.3167 H   0  0  0  0  0  0  0  0  0  0  0  0
   64.4853   33.9388   47.8445 H   0  0  0  0  0  0  0  0  0  0  0  0
   62.8989   34.5322   49.6695 H   0  0  0  0  0  0  0  0  0  0  0  0
   56.6988   28.6764   45.0762 H   0  0  0  0  0  0  0  0  0  0  0  0
   55.5345   26.6396   45.9120 H   0  0  0  0  0  0  0  0  0  0  0  0
  1  2  2  0
  2  3  1  0
  2  4  1  0
  4  5  2  0
  5  6  1  0
  6  7  2  0
  7  8  1  0
  8  9  1  0
  9 10  1  0
 10 11  2  0
 10 12  1  0
 12 13  2  0
 13 14  1  0
 14 15  2  0
 15 16  1  0
 16 17  2  0
 17 18  1  0
 18 19  1  0
 19 20  2  0
 19 21  2  0
 19 22  1  0
 22 23  2  0
 23 24  1  0
 24 25  2  0
 25 26  1  0
 26 27  2  0
 27 28  1  0
 28 29  2  0
 28 30  1  0
  7 31  1  0
 31 32  2  0
 32  4  1  0
 17 12  1  0
 27 22  1  0
  5 33  1  0
  6 34  1  0
  8 35  1  0
  8 36  1  0
 13 37  1  0
 14 38  1  0
 15 39  1  0
 16 40  1  0
 23 41  1  0
 24 42  1  0
 25 43  1  0
 26 44  1  0
 31 45  1  0
 32 46  1  0
M  CHG  4   3  -1   9  -1  18  -1  30  -1
M  END
>  <UniqueID>  (29) 
27

>  <SMILES>  (29) 
O=C([O-])c1ccc(C[N-]C(=O)c2ccccc2[N-]S(=O)(=O)c2ccccc2C(=O)[O-])cc1

>  <Energy>  (29) 
63.88424586869959

>  <Genealogy>  (29) 
O=C([O-])c1ccc(C[N-]C(=O)c2ccccc2[N-]S(=O)(=O)c2ccccc2C(=O)[O-])cc1 (protonated)
O=C([O-])c1ccc(C[N-]C(=O)c2ccccc2[N-]S(=O)(=O)c2ccccc2C(=O)[O-])cc1 (3D coordinates assigned)
O=C([O-])c1ccc(C[N-]C(=O)c2ccccc2[N-]S(=O)(=O)c2ccccc2C(=O)[O-])cc1 (optimized conformer: 63.88424586869959 kcal/mol)

>  <smiles>  (29) 
O=C(O)c1ccc(CNC(=O)c2ccccc2NS(=O)(=O)c2ccccc2C(=O)O)cc1

>  <score_type>  (29) 
oracle

>  <origin>  (29) 
adg

>  <m_score__min__energy>  (29) 
-16.57

>  <m_primary>  (29) 
energy

$$$$
29:0
     RDKit          3D

 54 56  0  0  0  0  0  0  0  0999 V2000
   63.4300   33.2900   46.7580 C   0  0  0  0  0  0  0  0  0  0  0  0
   62.9910   33.3150   48.1570 N   0  0  0  0  0  0  0  0  0  0  0  0
   63.9000   32.8900   49.2270 C   0  0  0  0  0  0  0  0  0  0  0  0
   61.7170   33.8920   48.5130 C   0  0  0  0  0  0  0  0  0  0  0  0
   61.5760   34.4530   49.6350 O   0  0  0  0  0  0  0  0  0  0  0  0
   60.5620   33.8380   47.5930 C   0  0  0  0  0  0  0  0  0  0  0  0
   60.5700   34.5710   46.3970 C   0  0  0  0  0  0  0  0  0  0  0  0
   59.4900   34.4930   45.5130 C   0  0  0  0  0  0  0  0  0  0  0  0
   58.3940   33.6670   45.8060 C   0  0  0  0  0  0  0  0  0  0  0  0
   57.2190   33.5890   44.8700 C   0  0  0  0  0  0  0  0  0  0  0  0
   56.5360   32.3020   45.0280 N   0  0  0  0  0  0  0  0  0  0  0  0
   57.2850   31.1120   44.0070 S   0  0  0  0  0  0  0  0  0  0  0  0
   56.3390   30.7220   42.9060 O   0  0  0  0  0  0  0  0  0  0  0  0
   58.5230   31.6960   43.3900 O   0  0  0  0  0  0  0  0  0  0  0  0
   57.7330   29.6960   44.9550 C   0  0  0  0  0  0  0  0  0  0  0  0
   58.8710   29.7400   45.7710 C   0  0  0  0  0  0  0  0  0  0  0  0
   59.2210   28.6330   46.5490 C   0  0  0  0  0  0  0  0  0  0  0  0
   58.4270   27.4830   46.5290 C   0  0  0  0  0  0  0  0  0  0  0  0
   57.2690   27.4370   45.7370 C   0  0  0  0  0  0  0  0  0  0  0  0
   56.4260   26.2260   45.7070 C   0  0  0  0  0  0  0  0  0  0  0  0
   55.2180   26.3220   46.0560 O   0  0  0  0  0  0  0  0  0  0  0  0
   56.9580   24.9460   45.3170 N   0  0  0  0  0  0  0  0  0  0  0  0
   58.3760   24.6210   45.3090 C   0  0  0  0  0  0  0  0  0  0  0  0
   58.4590   23.1440   44.9430 C   0  0  0  0  0  0  0  0  0  0  0  0
   57.0600   22.5790   45.1620 C   0  0  0  0  0  0  0  0  0  0  0  0
   56.1170   23.7750   45.1320 C   0  0  0  0  0  0  0  0  0  0  0  0
   56.9360   28.5420   44.9370 C   0  0  0  0  0  0  0  0  0  0  0  0
   58.3950   32.9180   46.9920 C   0  0  0  0  0  0  0  0  0  0  0  0
   59.4770   32.9930   47.8760 C   0  0  0  0  0  0  0  0  0  0  0  0
   64.5275   33.2275   46.7192 H   0  0  0  0  0  0  0  0  0  0  0  0
   62.9948   32.4152   46.2527 H   0  0  0  0  0  0  0  0  0  0  0  0
   63.0969   34.2086   46.2527 H   0  0  0  0  0  0  0  0  0  0  0  0
   63.4419   33.1042   50.2039 H   0  0  0  0  0  0  0  0  0  0  0  0
   64.0895   31.8100   49.1397 H   0  0  0  0  0  0  0  0  0  0  0  0
   64.8503   33.4372   49.1397 H   0  0  0  0  0  0  0  0  0  0  0  0
   61.4310   35.2108   46.1534 H   0  0  0  0  0  0  0  0  0  0  0  0
   59.4993   35.0816   44.5838 H   0  0  0  0  0  0  0  0  0  0  0  0
   56.5168   34.4043   45.0983 H   0  0  0  0  0  0  0  0  0  0  0  0
   57.5762   33.6830   43.8339 H   0  0  0  0  0  0  0  0  0  0  0  0
   56.6750   31.9800   46.0150 H   0  0  0  0  0  0  0  0  0  0  0  0
   59.4907   30.6484   45.7994 H   0  0  0  0  0  0  0  0  0  0  0  0
   60.1228   28.6669   47.1780 H   0  0  0  0  0  0  0  0  0  0  0  0
   58.7106   26.6107   47.1362 H   0  0  0  0  0  0  0  0  0  0  0  0
   58.9051   25.2314   44.5623 H   0  0  0  0  0  0  0  0  0  0  0  0
   58.8445   24.8246   46.2832 H   0  0  0  0  0  0  0  0  0  0  0  0
   58.7584   23.0269   43.8910 H   0  0  0  0  0  0  0  0  0  0  0  0
   59.2068   22.6181   45.5547 H   0  0  0  0  0  0  0  0  0  0  0  0
   56.8041   21.8699   44.3610 H   0  0  0  0  0  0  0  0  0  0  0  0
   56.9896   22.0331   46.1144 H   0  0  0  0  0  0  0  0  0  0  0  0
   55.5948   23.8271   44.1653 H   0  0  0  0  0  0  0  0  0  0  0  0
   55.3457   23.7026   45.9129 H   0  0  0  0  0  0  0  0  0  0  0  0
   56.0453   28.5023   44.2927 H   0  0  0  0  0  0  0  0  0  0  0  0
   57.5399   32.2677   47.2285 H   0  0  0  0  0  0  0  0  0  0  0  0
   59.4776   32.3884   48.7950 H   0  0  0  0  0  0  0  0  0  0  0  0
  1  2  1  0
  2  3  1  0
  2  4  1  0
  4  5  2  0
  4  6  1  0
  6  7  2  0
  7  8  1  0
  8  9  2  0
  9 10  1  0
 10 11  1  0
 11 12  1  0
 12 13  2  0
 12 14  2  0
 12 15  1  0
 15 16  2  0
 16 17  1  0
 17 18  2  0
 18 19  1  0
 19 20  1  0
 20 21  2  0
 20 22  1  0
 22 23  1  0
 23 24  1  0
 24 25  1  0
 25 26  1  0
 19 27  2  0
  9 28  1  0
 28 29  2  0
 29  6  1  0
 27 15  1  0
 26 22  1  0
  1 30  1  0
  1 31  1  0
  1 32  1  0
  3 33  1  0
  3 34  1  0
  3 35  1  0
  7 36  1  0
  8 37  1  0
 10 38  1  0
 10 39  1  0
 11 40  1  0
 16 41  1  0
 17 42  1  0
 18 43  1  0
 23 44  1  0
 23 45  1  0
 24 46  1  0
 24 47  1  0
 25 48  1  0
 25 49  1  0
 26 50  1  0
 26 51  1  0
 27 52  1  0
 28 53  1  0
 29 54  1  0
M  END
>  <UniqueID>  (30) 
28

>  <SMILES>  (30) 
CN(C)C(=O)c1ccc(CNS(=O)(=O)c2cccc(C(=O)N3CCCC3)c2)cc1

>  <Energy>  (30) 
59.74482157766923

>  <Genealogy>  (30) 
CN(C)C(=O)c1ccc(CNS(=O)(=O)c2cccc(C(=O)N3CCCC3)c2)cc1 (3D coordinates assigned)
CN(C)C(=O)c1ccc(CNS(=O)(=O)c2cccc(C(=O)N3CCCC3)c2)cc1 (nonaromatic ring conformer: 59.74482157766923 kcal/mol)

>  <smiles>  (30) 
CN(C)C(=O)c1ccc(CNS(=O)(=O)c2cccc(C(=O)N3CCCC3)c2)cc1

>  <score_type>  (30) 
oracle

>  <origin>  (30) 
adg

>  <m_score__min__energy>  (30) 
-10

>  <m_primary>  (30) 
energy

$$$$
30:0
     RDKit          3D

 47 49  0  0  0  0  0  0  0  0999 V2000
   54.7950   26.2000   45.9880 N   0  0  0  0  0  0  0  0  0  0  0  0
   55.8890   25.3050   46.1850 C   0  0  0  0  0  0  0  0  0  0  0  0
   55.6530   24.0830   46.3910 O   0  0  0  0  0  0  0  0  0  0  0  0
   57.2840   25.8010   46.1480 C   0  0  0  0  0  0  0  0  0  0  0  0
   58.3620   24.9010   46.0680 C   0  0  0  0  0  0  0  0  0  0  0  0
   59.6780   25.3700   46.0620 C   0  0  0  0  0  0  0  0  0  0  0  0
   59.9350   26.7420   46.1300 C   0  0  0  0  0  0  0  0  0  0  0  0
   58.8730   27.6570   46.1840 C   0  0  0  0  0  0  0  0  0  0  0  0
   59.1500   29.1360   46.2910 C   0  0  0  0  0  0  0  0  0  0  0  0
   58.9850   29.6450   47.7290 C   0  0  0  0  0  0  0  0  0  0  0  0
   60.0170   30.6810   48.0680 C   0  0  0  0  0  0  0  0  0  0  0  0
   61.2220   30.3740   48.6980 C   0  0  0  0  0  0  0  0  0  0  0  0
   62.1300   31.7870   48.7870 S   0  0  0  0  0  0  0  0  0  0  0  0
   60.9610   32.7170   48.0120 C   0  0  0  0  0  0  0  0  0  0  0  0
   61.0850   34.1770   47.7210 C   0  0  0  0  0  0  0  0  0  0  0  0
   60.0850   34.5810   46.6820 C   0  0  0  0  0  0  0  0  0  0  0  0
   59.5990   35.7460   46.7120 O   0  0  0  0  0  0  0  0  0  0  0  0
   59.6650   33.6430   45.6800 N   0  0  0  0  0  0  0  0  0  0  0  0
   58.7010   33.9880   44.6370 C   0  0  0  0  0  0  0  0  0  0  0  0
   58.0350   32.7470   44.1060 C   0  0  0  0  0  0  0  0  0  0  0  0
   57.9850   32.5150   42.7210 C   0  0  0  0  0  0  0  0  0  0  0  0
   57.3460   31.3740   42.2220 C   0  0  0  0  0  0  0  0  0  0  0  0
   56.7570   30.4590   43.1000 C   0  0  0  0  0  0  0  0  0  0  0  0
   56.8030   30.6860   44.4800 C   0  0  0  0  0  0  0  0  0  0  0  0
   57.4370   31.8260   44.9830 C   0  0  0  0  0  0  0  0  0  0  0  0
   59.8780   31.9800   47.6890 N   0  0  0  0  0  0  0  0  0  0  0  0
   57.5510   27.1820   46.1930 C   0  0  0  0  0  0  0  0  0  0  0  0
   54.7260   27.0920   46.5270 H   0  0  0  0  0  0  0  0  0  0  0  0
   58.1674   23.8199   46.0097 H   0  0  0  0  0  0  0  0  0  0  0  0
   60.5140   24.6575   46.0036 H   0  0  0  0  0  0  0  0  0  0  0  0
   60.9731   27.1055   46.1412 H   0  0  0  0  0  0  0  0  0  0  0  0
   60.1813   29.3297   45.9611 H   0  0  0  0  0  0  0  0  0  0  0  0
   58.4250   29.6661   45.6558 H   0  0  0  0  0  0  0  0  0  0  0  0
   57.9842   30.0882   47.8386 H   0  0  0  0  0  0  0  0  0  0  0  0
   59.1134   28.7934   48.4133 H   0  0  0  0  0  0  0  0  0  0  0  0
   61.5250   29.3843   49.0705 H   0  0  0  0  0  0  0  0  0  0  0  0
   60.9029   34.7486   48.6430 H   0  0  0  0  0  0  0  0  0  0  0  0
   62.0980   34.3848   47.3460 H   0  0  0  0  0  0  0  0  0  0  0  0
   60.0470   32.6700   45.6990 H   0  0  0  0  0  0  0  0  0  0  0  0
   57.9365   34.6579   45.0574 H   0  0  0  0  0  0  0  0  0  0  0  0
   59.2309   34.4886   43.8132 H   0  0  0  0  0  0  0  0  0  0  0  0
   58.4491   33.2317   42.0274 H   0  0  0  0  0  0  0  0  0  0  0  0
   57.3071   31.1968   41.1371 H   0  0  0  0  0  0  0  0  0  0  0  0
   56.2578   29.5614   42.7062 H   0  0  0  0  0  0  0  0  0  0  0  0
   56.3394   29.9660   45.1705 H   0  0  0  0  0  0  0  0  0  0  0  0
   57.4679   32.0026   46.0683 H   0  0  0  0  0  0  0  0  0  0  0  0
   56.7160   27.8968   46.2357 H   0  0  0  0  0  0  0  0  0  0  0  0
  1  2  1  0
  2  3  2  0
  2  4  1  0
  4  5  2  0
  5  6  1  0
  6  7  2  0
  7  8  1  0
  8  9  1  0
  9 10  1  0
 10 11  1  0
 11 12  2  0
 12 13  1  0
 13 14  1  0
 14 15  1  0
 15 16  1  0
 16 17  2  0
 16 18  1  0
 18 19  1  0
 19 20  1  0
 20 21  2  0
 21 22  1  0
 22 23  2  0
 23 24  1  0
 24 25  2  0
 14 26  2  0
  8 27  2  0
 27  4  1  0
 26 11  1  0
 25 20  1  0
  1 28  1  0
  5 29  1  0
  6 30  1  0
  7 31  1  0
  9 32  1  0
  9 33  1  0
 10 34  1  0
 10 35  1  0
 12 36  1  0
 15 37  1  0
 15 38  1  0
 18 39  1  0
 19 40  1  0
 19 41  1  0
 21 42  1  0
 22 43  1  0
 23 44  1  0
 24 45  1  0
 25 46  1  0
 27 47  1  0
M  CHG  1   1  -1
M  END
>  <UniqueID>  (31) 
29

>  <SMILES>  (31) 
[NH-]C(=O)c1cccc(CCc2csc(CC(=O)NCc3ccccc3)n2)c1

>  <Energy>  (31) 
68.68524089345334

>  <Genealogy>  (31) 
[NH-]C(=O)c1cccc(CCc2csc(CC(=O)NCc3ccccc3)n2)c1 (protonated)
[NH-]C(=O)c1cccc(CCc2csc(CC(=O)NCc3ccccc3)n2)c1 (3D coordinates assigned)
[NH-]C(=O)c1cccc(CCc2csc(CC(=O)NCc3ccccc3)n2)c1 (optimized conformer: 68.68524089345334 kcal/mol)

>  <smiles>  (31) 
NC(=O)c1cccc(CCc2csc(CC(=O)NCc3ccccc3)n2)c1

>  <score_type>  (31) 
oracle

>  <origin>  (31) 
adg

>  <m_score__min__energy>  (31) 
-12.02

>  <m_primary>  (31) 
energy

$$$$
31:0
     RDKit          3D

 48 50  0  0  0  0  0  0  0  0999 V2000
   60.3130   28.0550   46.5980 C   0  0  0  0  0  0  0  0  0  0  0  0
   59.5260   27.0510   46.9900 C   0  0  0  0  0  0  0  0  0  0  0  0
   58.0300   27.1750   46.9330 C   0  0  0  0  0  0  0  0  0  0  0  0
   57.4140   26.9110   45.2350 S   0  0  0  0  0  0  0  0  0  0  0  0
   57.0640   28.6430   44.9420 C   0  0  0  0  0  0  0  0  0  0  0  0
   55.8150   29.1530   44.8780 N   0  0  0  0  0  0  0  0  0  0  0  0
   55.7980   30.4620   44.6400 N   0  0  0  0  0  0  0  0  0  0  0  0
   57.0360   30.9890   44.5090 C   0  0  0  0  0  0  0  0  0  0  0  0
   57.2810   32.2470   44.2820 N   0  0  0  0  0  0  0  0  0  0  0  0
   57.4670   33.2680   45.2750 C   0  0  0  0  0  0  0  0  0  0  0  0
   56.6820   34.2530   45.2830 O   0  0  0  0  0  0  0  0  0  0  0  0
   58.5350   33.1980   46.3000 C   0  0  0  0  0  0  0  0  0  0  0  0
   58.5420   32.1040   47.1800 C   0  0  0  0  0  0  0  0  0  0  0  0
   59.5090   32.0050   48.1870 C   0  0  0  0  0  0  0  0  0  0  0  0
   59.5210   30.6240   49.2820 S   0  0  0  0  0  0  0  0  0  0  0  0
   60.8850   29.9870   49.2860 O   0  0  0  0  0  0  0  0  0  0  0  0
   58.5230   29.6090   48.7950 O   0  0  0  0  0  0  0  0  0  0  0  0
   59.0970   31.1390   50.8970 N   0  0  0  0  0  0  0  0  0  0  0  0
   57.6880   31.5900   50.9290 C   0  0  0  0  0  0  0  0  0  0  0  0
   57.4450   32.5390   52.1140 C   0  0  0  0  0  0  0  0  0  0  0  0
   58.2410   33.7170   52.0870 O   0  0  0  0  0  0  0  0  0  0  0  0
   59.4360   33.5830   51.3270 C   0  0  0  0  0  0  0  0  0  0  0  0
   60.0420   32.1700   51.3930 C   0  0  0  0  0  0  0  0  0  0  0  0
   60.4890   32.9940   48.3060 C   0  0  0  0  0  0  0  0  0  0  0  0
   60.5070   34.0760   47.4250 C   0  0  0  0  0  0  0  0  0  0  0  0
   59.5490   34.1820   46.4010 C   0  0  0  0  0  0  0  0  0  0  0  0
   59.6260   35.3530   45.4580 C   0  0  0  0  0  0  0  0  0  0  0  0
   58.2370   29.8290   44.7050 S   0  0  0  0  0  0  0  0  0  0  0  0
   61.4067   27.9476   46.6463 H   0  0  0  0  0  0  0  0  0  0  0  0
   59.8680   28.9899   46.2266 H   0  0  0  0  0  0  0  0  0  0  0  0
   59.9792   26.1195   47.3601 H   0  0  0  0  0  0  0  0  0  0  0  0
   57.5814   26.4232   47.5990 H   0  0  0  0  0  0  0  0  0  0  0  0
   57.7507   28.1898   47.2526 H   0  0  0  0  0  0  0  0  0  0  0  0
   57.7802   31.3172   47.0770 H   0  0  0  0  0  0  0  0  0  0  0  0
   59.1840   30.2960   51.5130 H   0  0  0  0  0  0  0  0  0  0  0  0
   57.4567   32.1171   49.9916 H   0  0  0  0  0  0  0  0  0  0  0  0
   57.0386   30.7096   51.0436 H   0  0  0  0  0  0  0  0  0  0  0  0
   56.3862   32.8373   52.1063 H   0  0  0  0  0  0  0  0  0  0  0  0
   57.7245   31.9881   53.0241 H   0  0  0  0  0  0  0  0  0  0  0  0
   59.2101   33.8177   50.2763 H   0  0  0  0  0  0  0  0  0  0  0  0
   60.1751   34.2757   51.7558 H   0  0  0  0  0  0  0  0  0  0  0  0
   60.9523   32.1443   50.7760 H   0  0  0  0  0  0  0  0  0  0  0  0
   60.2698   31.9456   52.4455 H   0  0  0  0  0  0  0  0  0  0  0  0
   61.2493   32.9193   49.0974 H   0  0  0  0  0  0  0  0  0  0  0  0
   61.2778   34.8533   47.5325 H   0  0  0  0  0  0  0  0  0  0  0  0
   59.6874   36.2864   46.0368 H   0  0  0  0  0  0  0  0  0  0  0  0
   60.5197   35.2552   44.8241 H   0  0  0  0  0  0  0  0  0  0  0  0
   58.7272   35.3730   44.8241 H   0  0  0  0  0  0  0  0  0  0  0  0
  1  2  2  0
  2  3  1  0
  3  4  1  0
  4  5  1  0
  5  6  2  0
  6  7  1  0
  7  8  1  0
  8  9  2  3
  9 10  1  0
 10 11  2  0
 10 12  1  0
 12 13  2  0
 13 14  1  0
 14 15  1  0
 15 16  2  0
 15 17  2  0
 15 18  1  0
 18 19  1  0
 19 20  1  0
 20 21  1  0
 21 22  1  0
 22 23  1  0
 14 24  2  0
 24 25  1  0
 25 26  2  0
 26 27  1  0
  8 28  1  0
 28  5  1  0
 26 12  1  0
 23 18  1  0
  1 29  1  0
  1 30  1  0
  2 31  1  0
  3 32  1  0
  3 33  1  0
 13 34  1  0
 18 35  1  0
 19 36  1  0
 19 37  1  0
 20 38  1  0
 20 39  1  0
 22 40  1  0
 22 41  1  0
 23 42  1  0
 23 43  1  0
 24 44  1  0
 25 45  1  0
 27 46  1  0
 27 47  1  0
 27 48  1  0
M  CHG  2   7  -1  18   1
M  END
>  <UniqueID>  (32) 
30

>  <SMILES>  (32) 
C=CCSc1n[n-]c(=NC(=O)c2cc(S(=O)(=O)[NH+]3CCOCC3)ccc2C)s1

>  <Energy>  (32) 
97.65503502994758

>  <Genealogy>  (32) 
C=CCSc1n[n-]c(=NC(=O)c2cc(S(=O)(=O)[NH+]3CCOCC3)ccc2C)s1 (protonated)
C=CCSc1n[n-]c(=NC(=O)c2cc(S(=O)(=O)[NH+]3CCOCC3)ccc2C)s1 (3D coordinates assigned)
C=CCSc1n[n-]c(=NC(=O)c2cc(S(=O)(=O)[NH+]3CCOCC3)ccc2C)s1 (nonaromatic ring conformer: 97.65503502994758 kcal/mol)

>  <smiles>  (32) 
C=CCSc1n[nH]c(=NC(=O)c2cc(S(=O)(=O)N3CCOCC3)ccc2C)s1

>  <score_type>  (32) 
oracle

>  <origin>  (32) 
adg

>  <m_score__min__energy>  (32) 
-10.18

>  <m_primary>  (32) 
energy

$$$$
32:0
     RDKit          3D

 42 44  0  0  0  0  0  0  0  0999 V2000
   55.8940   28.5850   45.1440 N   0  0  0  0  0  0  0  0  0  0  0  0
   57.2170   29.6790   44.9540 S   0  0  0  0  0  0  0  0  0  0  0  0
   56.7280   31.0950   45.0650 O   0  0  0  0  0  0  0  0  0  0  0  0
   57.8270   29.4860   43.5930 O   0  0  0  0  0  0  0  0  0  0  0  0
   58.4160   29.3720   46.2040 C   0  0  0  0  0  0  0  0  0  0  0  0
   59.1450   28.1750   46.2130 C   0  0  0  0  0  0  0  0  0  0  0  0
   60.0950   27.9410   47.2100 C   0  0  0  0  0  0  0  0  0  0  0  0
   60.3100   28.8910   48.2110 C   0  0  0  0  0  0  0  0  0  0  0  0
   59.5650   30.0780   48.2340 C   0  0  0  0  0  0  0  0  0  0  0  0
   59.8180   31.0500   49.2580 N   0  0  0  0  0  0  0  0  0  0  0  0
   58.8410   31.5000   50.2080 C   0  0  0  0  0  0  0  0  0  0  0  0
   58.7320   32.7970   50.6740 C   0  0  0  0  0  0  0  0  0  0  0  0
   57.7520   32.7570   51.6480 C   0  0  0  0  0  0  0  0  0  0  0  0
   57.3190   33.8550   52.3820 O   0  0  0  0  0  0  0  0  0  0  0  0
   57.2740   31.5050   51.8100 N   0  0  0  0  0  0  0  0  0  0  0  0
   56.2340   31.0790   52.7480 C   0  0  0  0  0  0  0  0  0  0  0  0
   55.1060   30.3390   52.0220 C   0  0  0  0  0  0  0  0  0  0  0  0
   53.7490   30.7630   52.5170 C   0  0  0  0  0  0  0  0  0  0  0  0
   53.3890   30.5570   53.8590 C   0  0  0  0  0  0  0  0  0  0  0  0
   52.1340   30.9620   54.3230 C   0  0  0  0  0  0  0  0  0  0  0  0
   51.2240   31.5660   53.4490 C   0  0  0  0  0  0  0  0  0  0  0  0
   49.9860   31.9830   53.9210 O   0  0  0  0  0  0  0  0  0  0  0  0
   51.5650   31.7480   52.1030 C   0  0  0  0  0  0  0  0  0  0  0  0
   50.6570   32.3320   51.2260 O   0  0  0  0  0  0  0  0  0  0  0  0
   52.8220   31.3470   51.6390 C   0  0  0  0  0  0  0  0  0  0  0  0
   57.9490   30.7300   50.9380 C   0  0  0  0  0  0  0  0  0  0  0  0
   57.7880   29.3520   50.8390 O   0  0  0  0  0  0  0  0  0  0  0  0
   58.6320   30.3240   47.2110 C   0  0  0  0  0  0  0  0  0  0  0  0
   55.1350   29.1060   45.6370 H   0  0  0  0  0  0  0  0  0  0  0  0
   58.9688   27.4187   45.4339 H   0  0  0  0  0  0  0  0  0  0  0  0
   60.6751   27.0064   47.2067 H   0  0  0  0  0  0  0  0  0  0  0  0
   61.0686   28.7065   48.9860 H   0  0  0  0  0  0  0  0  0  0  0  0
   60.7850   31.4380   49.3390 H   0  0  0  0  0  0  0  0  0  0  0  0
   59.3042   33.6752   50.3402 H   0  0  0  0  0  0  0  0  0  0  0  0
   56.6792   30.4085   53.4978 H   0  0  0  0  0  0  0  0  0  0  0  0
   55.8116   31.9726   53.2307 H   0  0  0  0  0  0  0  0  0  0  0  0
   55.1750   30.5533   50.9453 H   0  0  0  0  0  0  0  0  0  0  0  0
   55.2208   29.2630   52.2195 H   0  0  0  0  0  0  0  0  0  0  0  0
   54.0979   30.0747   54.5481 H   0  0  0  0  0  0  0  0  0  0  0  0
   51.8616   30.8054   55.3772 H   0  0  0  0  0  0  0  0  0  0  0  0
   53.0857   31.4899   50.5807 H   0  0  0  0  0  0  0  0  0  0  0  0
   58.0683   31.2686   47.2005 H   0  0  0  0  0  0  0  0  0  0  0  0
  1  2  1  0
  2  3  2  0
  2  4  2  0
  2  5  1  0
  5  6  2  0
  6  7  1  0
  7  8  2  0
  8  9  1  0
  9 10  1  0
 10 11  1  0
 11 12  1  0
 12 13  2  0
 13 14  1  0
 13 15  1  0
 15 16  1  0
 16 17  1  0
 17 18  1  0
 18 19  2  0
 19 20  1  0
 20 21  2  0
 21 22  1  0
 21 23  1  0
 23 24  1  0
 23 25  2  0
 15 26  1  0
 26 27  1  0
  9 28  2  0
 28  5  1  0
 26 11  2  0
 25 18  1  0
  1 29  1  0
  6 30  1  0
  7 31  1  0
  8 32  1  0
 10 33  1  0
 12 34  1  0
 16 35  1  0
 16 36  1  0
 17 37  1  0
 17 38  1  0
 19 39  1  0
 20 40  1  0
 25 41  1  0
 28 42  1  0
M  CHG  5   1  -1  14  -1  22  -1  24  -1  27  -1
M  END
>  <UniqueID>  (33) 
31

>  <SMILES>  (33) 
[NH-]S(=O)(=O)c1cccc(Nc2cc([O-])n(CCc3ccc([O-])c([O-])c3)c2[O-])c1

>  <Energy>  (33) 
71.78935938672983

>  <Genealogy>  (33) 
[NH-]S(=O)(=O)c1cccc(Nc2cc([O-])n(CCc3ccc([O-])c([O-])c3)c2[O-])c1 (protonated)
[NH-]S(=O)(=O)c1cccc(Nc2cc([O-])n(CCc3ccc([O-])c([O-])c3)c2[O-])c1 (3D coordinates assigned)
[NH-]S(=O)(=O)c1cccc(Nc2cc([O-])n(CCc3ccc([O-])c([O-])c3)c2[O-])c1 (optimized conformer: 71.78935938672983 kcal/mol)

>  <smiles>  (33) 
NS(=O)(=O)c1cccc(Nc2cc(O)n(CCc3ccc(O)c(O)c3)c2O)c1

>  <score_type>  (33) 
oracle

>  <origin>  (33) 
adg

>  <m_score__min__energy>  (33) 
-20.16

>  <m_primary>  (33) 
energy

$$$$
33:0
     RDKit          3D

 52 55  0  0  0  0  0  0  0  0999 V2000
   59.8600   32.8230   46.9720 H   0  0  0  0  0  0  0  0  0  0  0  0
   59.5240   31.8960   47.1980 O   0  0  0  0  0  0  0  0  0  0  0  0
   59.2800   31.4870   48.5110 C   0  0  0  0  0  0  0  0  0  0  0  0
   59.2140   30.1190   48.8440 C   0  0  0  0  0  0  0  0  0  0  0  0
   59.3900   29.1360   47.8120 N   0  0  0  0  0  0  0  0  0  0  0  0
   59.1880   27.7220   47.9250 C   0  0  0  0  0  0  0  0  0  0  0  0
   60.1640   26.9920   48.2410 O   0  0  0  0  0  0  0  0  0  0  0  0
   57.9140   27.1350   47.6240 N   0  0  0  0  0  0  0  0  0  0  0  0
   57.6170   26.1710   46.7940 C   0  0  0  0  0  0  0  0  0  0  0  0
   57.5740   24.9080   47.2980 N   0  0  0  0  0  0  0  0  0  0  0  0
   57.2520   23.8250   46.5470 C   0  0  0  0  0  0  0  0  0  0  0  0
   57.2234   22.8261   47.0068 H   0  0  0  0  0  0  0  0  0  0  0  0
   56.9580   23.9770   45.1960 C   0  0  0  0  0  0  0  0  0  0  0  0
   56.6737   23.1064   44.5868 H   0  0  0  0  0  0  0  0  0  0  0  0
   57.0280   25.2450   44.6240 C   0  0  0  0  0  0  0  0  0  0  0  0
   56.8225   25.3708   43.5507 H   0  0  0  0  0  0  0  0  0  0  0  0
   57.3590   26.3660   45.4060 C   0  0  0  0  0  0  0  0  0  0  0  0
   57.6050   27.6320   44.7710 N   0  0  0  0  0  0  0  0  0  0  0  0
   56.7030   28.7450   44.7100 C   0  0  0  0  0  0  0  0  0  0  0  0
   55.5700   28.6320   45.2460 O   0  0  0  0  0  0  0  0  0  0  0  0
   57.0510   29.9990   44.0010 C   0  0  0  0  0  0  0  0  0  0  0  0
   56.6840   30.1910   42.6570 C   0  0  0  0  0  0  0  0  0  0  0  0
   56.1277   29.4055   42.1245 H   0  0  0  0  0  0  0  0  0  0  0  0
   57.0220   31.3740   41.9940 C   0  0  0  0  0  0  0  0  0  0  0  0
   56.7367   31.5132   40.9408 H   0  0  0  0  0  0  0  0  0  0  0  0
   57.7210   32.3800   42.6650 C   0  0  0  0  0  0  0  0  0  0  0  0
   57.9904   33.3075   42.1385 H   0  0  0  0  0  0  0  0  0  0  0  0
   58.0790   32.2080   44.0080 C   0  0  0  0  0  0  0  0  0  0  0  0
   58.8030   33.2420   44.6970 C   0  0  0  0  0  0  0  0  0  0  0  0
   59.3870   34.0730   45.2520 N   0  0  0  0  0  0  0  0  0  0  0  0
   57.7400   31.0230   44.6750 C   0  0  0  0  0  0  0  0  0  0  0  0
   58.0146   30.8931   45.7322 H   0  0  0  0  0  0  0  0  0  0  0  0
   58.9180   29.7480   50.1650 C   0  0  0  0  0  0  0  0  0  0  0  0
   58.8281   28.6831   50.4255 H   0  0  0  0  0  0  0  0  0  0  0  0
   58.7370   30.7190   51.1500 C   0  0  0  0  0  0  0  0  0  0  0  0
   58.5145   30.4153   52.1836 H   0  0  0  0  0  0  0  0  0  0  0  0
   58.8370   32.0760   50.8300 C   0  0  0  0  0  0  0  0  0  0  0  0
   58.5060   33.2590   52.0900 Cl  0  0  0  0  0  0  0  0  0  0  0  0
   59.1170   32.4640   49.5060 C   0  0  0  0  0  0  0  0  0  0  0  0
   59.1880   33.8480   49.1370 N   0  0  0  0  0  0  0  0  0  0  0  0
   60.1670   34.3890   48.2430 C   0  0  0  0  0  0  0  0  0  0  0  0
   59.8550   35.3240   47.4570 O   0  0  0  0  0  0  0  0  0  0  0  0
   61.5400   33.8590   48.2650 C   0  0  0  0  0  0  0  0  0  0  0  0
   62.0170   33.1900   47.1770 N   0  0  0  0  0  0  0  0  0  0  0  0
   63.2830   32.6940   47.1310 C   0  0  0  0  0  0  0  0  0  0  0  0
   63.6335   32.1641   46.2330 H   0  0  0  0  0  0  0  0  0  0  0  0
   64.1370   32.8570   48.2220 C   0  0  0  0  0  0  0  0  0  0  0  0
   65.1611   32.4567   48.1915 H   0  0  0  0  0  0  0  0  0  0  0  0
   63.6770   33.5340   49.3530 C   0  0  0  0  0  0  0  0  0  0  0  0
   64.3388   33.6680   50.2214 H   0  0  0  0  0  0  0  0  0  0  0  0
   62.3760   34.0410   49.3810 C   0  0  0  0  0  0  0  0  0  0  0  0
   62.0086   34.5778   50.2680 H   0  0  0  0  0  0  0  0  0  0  0  0
  1  2  1  0
  2  3  1  0
  3  4  2  0
  4  5  1  0
  5  6  1  0
  6  7  2  0
  6  8  1  0
  8  9  2  0
  9 10  1  0
 10 11  1  0
 11 12  1  0
 11 13  2  0
 13 14  1  0
 13 15  1  0
 15 16  1  0
 15 17  2  0
 17 18  1  0
 18 19  1  0
 19 20  2  0
 19 21  1  0
 21 22  2  0
 22 23  1  0
 22 24  1  0
 24 25  1  0
 24 26  2  0
 26 27  1  0
 26 28  1  0
 28 29  1  0
 29 30  3  0
 28 31  2  0
 31 32  1  0
  4 33  1  0
 33 34  1  0
 33 35  2  0
 35 36  1  0
 35 37  1  0
 37 38  1  0
 37 39  2  0
 39 40  1  0
 40 41  1  0
 41 42  2  0
 41 43  1  0
 43 44  2  0
 44 45  1  0
 45 46  1  0
 45 47  2  0
 47 48  1  0
 47 49  1  0
 49 50  1  0
 49 51  2  0
 51 52  1  0
 39  3  1  0
 51 43  1  0
 17  9  1  0
 31 21  1  0
M  CHG  4   5  -1  10  -1  18  -1  40  -1
M  END
>  <UniqueID>  (34) 
32

>  <SMILES>  (34) 
N#Cc1cccc(C(=O)[N-]c2ccc[n-]/c2=N/C(=O)[N-]c2ccc(Cl)c([N-]C(=O)c3ccccn3)c2O)c1

>  <Energy>  (34) 
89.19608009716579

>  <Genealogy>  (34) 
N#Cc1cccc(C(=O)[N-]c2ccc[n-]c2=NC(=O)[N-]c2ccc(Cl)c([N-]C(=O)c3ccccn3)c2O)c1 (protonated)
N#Cc1cccc(C(=O)[N-]c2ccc[n-]/c2=N/C(=O)[N-]c2ccc(Cl)c([N-]C(=O)c3ccccn3)c2O)c1 (cis-trans isomerization)
N#Cc1cccc(C(=O)[N-]c2ccc[n-]/c2=N/C(=O)[N-]c2ccc(Cl)c([N-]C(=O)c3ccccn3)c2O)c1 (3D coordinates assigned)
N#Cc1cccc(C(=O)[N-]c2ccc[n-]/c2=N/C(=O)[N-]c2ccc(Cl)c([N-]C(=O)c3ccccn3)c2O)c1 (optimized conformer: 89.19608009716579 kcal/mol)

>  <smiles>  (34) 
N#Cc1cccc(C(=O)Nc2ccc[nH]c2=NC(=O)Nc2ccc(Cl)c(NC(=O)c3ccccn3)c2O)c1

>  <score_type>  (34) 
oracle

>  <origin>  (34) 
adg

>  <m_score__min__energy>  (34) 
-15.300000000000001

>  <m_primary>  (34) 
energy

$$$$
34:0
     RDKit          3D

 64 67  0  0  0  0  0  0  0  0999 V2000
   61.2950   32.7350   49.7030 C   0  0  0  0  0  0  0  0  0  0  0  0
   59.9120   32.8730   49.2100 N   0  0  1  0  0  0  0  0  0  0  0  0
   58.9060   32.5280   50.2530 C   0  0  0  0  0  0  0  0  0  0  0  0
   58.4110   31.0650   50.2410 C   0  0  0  0  0  0  0  0  0  0  0  0
   59.2460   30.2300   49.3870 N   0  0  0  0  0  0  0  0  0  0  0  0
   58.9750   29.9620   48.0070 C   0  0  0  0  0  0  0  0  0  0  0  0
   58.5300   30.8860   47.2710 O   0  0  0  0  0  0  0  0  0  0  0  0
   59.2430   28.6190   47.4250 C   0  0  0  0  0  0  0  0  0  0  0  0
   59.9550   27.6840   48.2020 C   0  0  0  0  0  0  0  0  0  0  0  0
   60.1790   26.3860   47.7410 C   0  0  0  0  0  0  0  0  0  0  0  0
   59.6960   25.9860   46.4890 C   0  0  0  0  0  0  0  0  0  0  0  0
   59.9410   24.5870   45.9890 C   0  0  0  0  0  0  0  0  0  0  0  0
   58.7820   23.7710   46.1690 O   0  0  0  0  0  0  0  0  0  0  0  0
   58.0490   23.1620   45.1370 C   0  0  0  0  0  0  0  0  0  0  0  0
   58.5360   22.0500   44.4220 C   0  0  0  0  0  0  0  0  0  0  0  0
   57.7690   21.4750   43.4030 C   0  0  0  0  0  0  0  0  0  0  0  0
   56.5150   22.0010   43.0860 C   0  0  0  0  0  0  0  0  0  0  0  0
   56.0240   23.1050   43.7880 C   0  0  0  0  0  0  0  0  0  0  0  0
   56.7860   23.6850   44.8100 C   0  0  0  0  0  0  0  0  0  0  0  0
   56.0780   25.1860   45.7620 Br  0  0  0  0  0  0  0  0  0  0  0  0
   59.0140   26.9130   45.6900 C   0  0  0  0  0  0  0  0  0  0  0  0
   58.7810   28.2230   46.1380 C   0  0  0  0  0  0  0  0  0  0  0  0
   58.0690   29.1420   45.2260 C   0  0  0  0  0  0  0  0  0  0  0  0
   58.7730   30.1260   44.5140 C   0  0  0  0  0  0  0  0  0  0  0  0
   58.0890   31.0000   43.6620 C   0  0  0  0  0  0  0  0  0  0  0  0
   56.7040   30.8890   43.5080 C   0  0  0  0  0  0  0  0  0  0  0  0
   56.0000   29.9020   44.2050 C   0  0  0  0  0  0  0  0  0  0  0  0
   56.6800   29.0260   45.0570 C   0  0  0  0  0  0  0  0  0  0  0  0
   59.7190   34.2070   48.5880 C   0  0  0  0  0  0  0  0  0  0  0  0
   59.0220   34.1240   47.2510 C   0  0  0  0  0  0  0  0  0  0  0  0
   57.7350   33.5680   47.1600 C   0  0  0  0  0  0  0  0  0  0  0  0
   57.0740   33.5200   45.9290 C   0  0  0  0  0  0  0  0  0  0  0  0
   57.6900   34.0290   44.7810 C   0  0  0  0  0  0  0  0  0  0  0  0
   58.9690   34.5860   44.8640 C   0  0  0  0  0  0  0  0  0  0  0  0
   59.6340   34.6350   46.0930 C   0  0  0  0  0  0  0  0  0  0  0  0
   61.2939   32.7351   50.8030 H   0  0  0  0  0  0  0  0  0  0  0  0
   61.7222   31.7898   49.3369 H   0  0  0  0  0  0  0  0  0  0  0  0
   61.9005   33.5772   49.3369 H   0  0  0  0  0  0  0  0  0  0  0  0
   59.8040   32.1590   48.4500 H   0  0  0  0  0  0  0  0  0  0  0  0
   59.3566   32.7253   51.2369 H   0  0  0  0  0  0  0  0  0  0  0  0
   58.0229   33.1475   50.0376 H   0  0  0  0  0  0  0  0  0  0  0  0
   58.4389   30.6689   51.2668 H   0  0  0  0  0  0  0  0  0  0  0  0
   57.3848   31.0491   49.8452 H   0  0  0  0  0  0  0  0  0  0  0  0
   60.3407   27.9820   49.1881 H   0  0  0  0  0  0  0  0  0  0  0  0
   60.7382   25.6730   48.3647 H   0  0  0  0  0  0  0  0  0  0  0  0
   60.1915   24.6258   44.9186 H   0  0  0  0  0  0  0  0  0  0  0  0
   60.7715   24.1493   46.5623 H   0  0  0  0  0  0  0  0  0  0  0  0
   59.5238   21.6320   44.6661 H   0  0  0  0  0  0  0  0  0  0  0  0
   58.1549   20.6060   42.8499 H   0  0  0  0  0  0  0  0  0  0  0  0
   55.9141   21.5467   42.2844 H   0  0  0  0  0  0  0  0  0  0  0  0
   55.0365   23.5196   43.5373 H   0  0  0  0  0  0  0  0  0  0  0  0
   58.6552   26.6095   44.6954 H   0  0  0  0  0  0  0  0  0  0  0  0
   59.8640   30.2100   44.6261 H   0  0  0  0  0  0  0  0  0  0  0  0
   58.6421   31.7759   43.1123 H   0  0  0  0  0  0  0  0  0  0  0  0
   56.1680   31.5780   42.8386 H   0  0  0  0  0  0  0  0  0  0  0  0
   54.9103   29.8146   44.0830 H   0  0  0  0  0  0  0  0  0  0  0  0
   56.1252   28.2440   45.5962 H   0  0  0  0  0  0  0  0  0  0  0  0
   59.1129   34.8276   49.2643 H   0  0  0  0  0  0  0  0  0  0  0  0
   60.7137   34.6458   48.4207 H   0  0  0  0  0  0  0  0  0  0  0  0
   57.2456   33.1689   48.0607 H   0  0  0  0  0  0  0  0  0  0  0  0
   56.0675   33.0811   45.8631 H   0  0  0  0  0  0  0  0  0  0  0  0
   57.1680   33.9909   43.8135 H   0  0  0  0  0  0  0  0  0  0  0  0
   59.4533   34.9865   43.9612 H   0  0  0  0  0  0  0  0  0  0  0  0
   60.6402   35.0752   46.1541 H   0  0  0  0  0  0  0  0  0  0  0  0
  1  2  1  0
  2  3  1  0
  3  4  1  0
  4  5  1  0
  5  6  1  0
  6  7  2  0
  6  8  1  0
  8  9  2  0
  9 10  1  0
 10 11  2  0
 11 12  1  0
 12 13  1  0
 13 14  1  0
 14 15  2  0
 15 16  1  0
 16 17  2  0
 17 18  1  0
 18 19  2  0
 19 20  1  0
 11 21  1  0
 21 22  2  0
 22 23  1  0
 23 24  2  0
 24 25  1  0
 25 26  2  0
 26 27  1  0
 27 28  2  0
  2 29  1  0
 29 30  1  0
 30 31  2  0
 31 32  1  0
 32 33  2  0
 33 34  1  0
 34 35  2  0
 22  8  1  0
 28 23  1  0
 35 30  1  0
 19 14  1  0
  1 36  1  0
  1 37  1  0
  1 38  1  0
  2 39  1  6
  3 40  1  0
  3 41  1  0
  4 42  1  0
  4 43  1  0
  9 44  1  0
 10 45  1  0
 12 46  1  0
 12 47  1  0
 15 48  1  0
 16 49  1  0
 17 50  1  0
 18 51  1  0
 21 52  1  0
 24 53  1  0
 25 54  1  0
 26 55  1  0
 27 56  1  0
 28 57  1  0
 29 58  1  0
 29 59  1  0
 31 60  1  0
 32 61  1  0
 33 62  1  0
 34 63  1  0
 35 64  1  0
M  CHG  2   2   1   5  -1
M  END
>  <UniqueID>  (35) 
33

>  <SMILES>  (35) 
C[N@@H+](CC[N-]C(=O)c1ccc(COc2ccccc2Br)cc1-c1ccccc1)Cc1ccccc1

>  <Energy>  (35) 
80.1740458993762

>  <Genealogy>  (35) 
C[NH+](CC[N-]C(=O)c1ccc(COc2ccccc2Br)cc1-c1ccccc1)Cc1ccccc1 (protonated)
C[N@@H+](CC[N-]C(=O)c1ccc(COc2ccccc2Br)cc1-c1ccccc1)Cc1ccccc1 (chirality)
C[N@@H+](CC[N-]C(=O)c1ccc(COc2ccccc2Br)cc1-c1ccccc1)Cc1ccccc1 (3D coordinates assigned)
C[N@@H+](CC[N-]C(=O)c1ccc(COc2ccccc2Br)cc1-c1ccccc1)Cc1ccccc1 (optimized conformer: 80.1740458993762 kcal/mol)

>  <smiles>  (35) 
CN(CCNC(=O)c1ccc(COc2ccccc2Br)cc1-c1ccccc1)Cc1ccccc1

>  <score_type>  (35) 
oracle

>  <origin>  (35) 
adg

>  <m_score__min__energy>  (35) 
-9.4800000000000004

>  <m_primary>  (35) 
energy

$$$$
35:0
     RDKit          3D

 44 46  0  0  0  0  0  0  0  0999 V2000
   54.0350   24.8640   45.3550 O   0  0  0  0  0  0  0  0  0  0  0  0
   55.0620   25.2900   45.9500 C   0  0  0  0  0  0  0  0  0  0  0  0
   55.9980   24.3210   46.5980 C   0  0  0  0  0  0  0  0  0  0  0  0
   55.8450   22.9290   45.9790 C   0  0  0  0  0  0  0  0  0  0  0  0
   57.0680   22.5610   45.2450 N   0  0  0  0  0  0  0  0  0  0  0  0
   58.2850   22.8960   45.7700 C   0  0  0  0  0  0  0  0  0  0  0  0
   59.4610   22.5390   45.1140 C   0  0  0  0  0  0  0  0  0  0  0  0
   59.3670   21.8250   43.9220 C   0  0  0  0  0  0  0  0  0  0  0  0
   60.4090   21.4830   43.3040 O   0  0  0  0  0  0  0  0  0  0  0  0
   58.1490   21.4930   43.4290 N   0  0  0  0  0  0  0  0  0  0  0  0
   57.0070   21.8460   44.0750 C   0  0  0  0  0  0  0  0  0  0  0  0
   55.8970   21.5060   43.5840 O   0  0  0  0  0  0  0  0  0  0  0  0
   55.2880   26.6970   46.0960 N   0  0  0  0  0  0  0  0  0  0  0  0
   56.4330   27.4120   45.6070 C   0  0  0  0  0  0  0  0  0  0  0  0
   57.6660   26.7520   45.5760 C   0  0  0  0  0  0  0  0  0  0  0  0
   58.8080   27.4050   45.1120 C   0  0  0  0  0  0  0  0  0  0  0  0
   58.7240   28.7220   44.6540 C   0  0  0  0  0  0  0  0  0  0  0  0
   57.4870   29.3870   44.6270 C   0  0  0  0  0  0  0  0  0  0  0  0
   57.4050   30.7730   44.1210 C   0  0  0  0  0  0  0  0  0  0  0  0
   57.1410   30.9620   42.9030 O   0  0  0  0  0  0  0  0  0  0  0  0
   57.6330   31.9050   44.9810 N   0  0  0  0  0  0  0  0  0  0  0  0
   57.4140   33.2730   44.5440 C   0  0  0  0  0  0  0  0  0  0  0  0
   57.8350   34.1500   45.7150 C   0  0  0  0  0  0  0  0  0  0  0  0
   58.7120   33.2660   46.5960 C   0  0  0  0  0  0  0  0  0  0  0  0
   58.3280   31.8320   46.2580 C   0  0  0  0  0  0  0  0  0  0  0  0
   56.3350   28.7260   45.1020 C   0  0  0  0  0  0  0  0  0  0  0  0
   55.0970   29.3590   45.0220 O   0  0  0  0  0  0  0  0  0  0  0  0
   57.0323   24.6678   46.4569 H   0  0  0  0  0  0  0  0  0  0  0  0
   55.7602   24.2607   47.6703 H   0  0  0  0  0  0  0  0  0  0  0  0
   55.6656   22.1941   46.7775 H   0  0  0  0  0  0  0  0  0  0  0  0
   54.9961   22.9387   45.2796 H   0  0  0  0  0  0  0  0  0  0  0  0
   58.3361   23.4518   46.7179 H   0  0  0  0  0  0  0  0  0  0  0  0
   60.4419   22.8149   45.5283 H   0  0  0  0  0  0  0  0  0  0  0  0
   57.7356   25.7096   45.9203 H   0  0  0  0  0  0  0  0  0  0  0  0
   59.7758   26.8822   45.1068 H   0  0  0  0  0  0  0  0  0  0  0  0
   59.6316   29.2412   44.3126 H   0  0  0  0  0  0  0  0  0  0  0  0
   58.0267   33.4957   43.6580 H   0  0  0  0  0  0  0  0  0  0  0  0
   56.3651   33.4469   44.2621 H   0  0  0  0  0  0  0  0  0  0  0  0
   58.4043   35.0206   45.3573 H   0  0  0  0  0  0  0  0  0  0  0  0
   56.9655   34.5381   46.2658 H   0  0  0  0  0  0  0  0  0  0  0  0
   59.7755   33.4399   46.3751 H   0  0  0  0  0  0  0  0  0  0  0  0
   58.5630   33.4840   47.6638 H   0  0  0  0  0  0  0  0  0  0  0  0
   59.2268   31.2039   46.1709 H   0  0  0  0  0  0  0  0  0  0  0  0
   57.6977   31.3837   47.0401 H   0  0  0  0  0  0  0  0  0  0  0  0
  1  2  2  0
  2  3  1  0
  3  4  1  0
  4  5  1  0
  5  6  1  0
  6  7  2  0
  7  8  1  0
  8  9  2  0
  8 10  1  0
 10 11  1  0
 11 12  2  0
  2 13  1  0
 13 14  1  0
 14 15  2  0
 15 16  1  0
 16 17  2  0
 17 18  1  0
 18 19  1  0
 19 20  2  0
 19 21  1  0
 21 22  1  0
 22 23  1  0
 23 24  1  0
 24 25  1  0
 18 26  2  0
 26 27  1  0
 11  5  1  0
 26 14  1  0
 25 21  1  0
  3 28  1  0
  3 29  1  0
  4 30  1  0
  4 31  1  0
  6 32  1  0
  7 33  1  0
 15 34  1  0
 16 35  1  0
 17 36  1  0
 22 37  1  0
 22 38  1  0
 23 39  1  0
 23 40  1  0
 24 41  1  0
 24 42  1  0
 25 43  1  0
 25 44  1  0
M  CHG  3  10  -1  13  -1  27  -1
M  END
>  <UniqueID>  (36) 
34

>  <SMILES>  (36) 
O=C(CCn1ccc(=O)[n-]c1=O)[N-]c1cccc(C(=O)N2CCCC2)c1[O-]

>  <Energy>  (36) 
54.824331885505565

>  <Genealogy>  (36) 
O=C(CCn1ccc(=O)[n-]c1=O)[N-]c1cccc(C(=O)N2CCCC2)c1[O-] (protonated)
O=C(CCn1ccc(=O)[n-]c1=O)[N-]c1cccc(C(=O)N2CCCC2)c1[O-] (3D coordinates assigned)
O=C(CCn1ccc(=O)[n-]c1=O)[N-]c1cccc(C(=O)N2CCCC2)c1[O-] (nonaromatic ring conformer: 54.824331885505565 kcal/mol)

>  <smiles>  (36) 
O=C(CCn1ccc(=O)[nH]c1=O)Nc1cccc(C(=O)N2CCCC2)c1O

>  <score_type>  (36) 
oracle

>  <origin>  (36) 
adg

>  <m_score__min__energy>  (36) 
-15.67

>  <m_primary>  (36) 
energy

$$$$
36:0
     RDKit          3D

 33 35  0  0  0  0  0  0  0  0999 V2000
   59.8831   31.5722   49.2571 H   0  0  0  0  0  0  0  0  0  0  0  0
   59.5140   32.1560   48.4010 C   0  0  0  0  0  0  0  0  0  0  0  0
   58.5250   31.6250   47.5690 C   0  0  0  0  0  0  0  0  0  0  0  0
   58.1322   30.6157   47.7614 H   0  0  0  0  0  0  0  0  0  0  0  0
   58.0290   32.3740   46.4870 C   0  0  0  0  0  0  0  0  0  0  0  0
   57.0280   31.8330   45.6060 N   0  0  0  0  0  0  0  0  0  0  0  0
   57.2130   30.8980   44.7530 N   0  0  0  0  0  0  0  0  0  0  0  0
   57.5190   29.5290   45.0730 C   0  0  0  0  0  0  0  0  0  0  0  0
   56.5010   28.5920   45.3030 C   0  0  0  0  0  0  0  0  0  0  0  0
   55.1680   28.9780   45.1940 O   0  0  0  0  0  0  0  0  0  0  0  0
   56.8320   27.2650   45.6230 C   0  0  0  0  0  0  0  0  0  0  0  0
   55.8320   26.3170   45.8910 C   0  0  0  0  0  0  0  0  0  0  0  0
   54.7732   26.6127   45.8512 H   0  0  0  0  0  0  0  0  0  0  0  0
   56.1730   25.0040   46.2070 C   0  0  0  0  0  0  0  0  0  0  0  0
   55.3826   24.2684   46.4172 H   0  0  0  0  0  0  0  0  0  0  0  0
   57.5120   24.6180   46.2580 C   0  0  0  0  0  0  0  0  0  0  0  0
   57.7692   23.5784   46.5093 H   0  0  0  0  0  0  0  0  0  0  0  0
   58.5360   25.5420   45.9920 C   0  0  0  0  0  0  0  0  0  0  0  0
   59.9670   25.0780   46.0590 C   0  0  0  0  0  0  0  0  0  0  0  0
   60.2715   24.9792   47.1114 H   0  0  0  0  0  0  0  0  0  0  0  0
   60.0604   24.1035   45.5573 H   0  0  0  0  0  0  0  0  0  0  0  0
   60.6144   25.8123   45.5573 H   0  0  0  0  0  0  0  0  0  0  0  0
   58.1980   26.8830   45.6690 C   0  0  0  0  0  0  0  0  0  0  0  0
   59.1630   27.8150   45.3910 N   0  0  0  0  0  0  0  0  0  0  0  0
   60.1740   27.5570   45.4040 H   0  0  0  0  0  0  0  0  0  0  0  0
   58.8520   29.1070   45.0930 C   0  0  0  0  0  0  0  0  0  0  0  0
   59.7760   29.9290   44.8460 O   0  0  0  0  0  0  0  0  0  0  0  0
   58.5810   33.6380   46.2160 C   0  0  0  0  0  0  0  0  0  0  0  0
   58.0210   34.5900   44.8480 Cl  0  0  0  0  0  0  0  0  0  0  0  0
   59.5740   34.1650   47.0520 C   0  0  0  0  0  0  0  0  0  0  0  0
   59.9921   35.1614   46.8463 H   0  0  0  0  0  0  0  0  0  0  0  0
   60.0350   33.4280   48.1470 C   0  0  0  0  0  0  0  0  0  0  0  0
   61.2780   34.0930   49.1920 Cl  0  0  0  0  0  0  0  0  0  0  0  0
  1  2  1  0
  2  3  2  0
  3  4  1  0
  3  5  1  0
  5  6  1  0
  6  7  2  0
  7  8  1  0
  8  9  2  0
  9 10  1  0
  9 11  1  0
 11 12  2  0
 12 13  1  0
 12 14  1  0
 14 15  1  0
 14 16  2  0
 16 17  1  0
 16 18  1  0
 18 19  1  0
 19 20  1  0
 19 21  1  0
 19 22  1  0
 18 23  2  0
 23 24  1  0
 24 25  1  0
 24 26  1  0
 26 27  2  0
  5 28  2  0
 28 29  1  0
 28 30  1  0
 30 31  1  0
 30 32  2  0
 32 33  1  0
 32  2  1  0
 26  8  1  0
 23 11  1  0
M  CHG  1  10  -1
M  END
>  <UniqueID>  (37) 
35

>  <SMILES>  (37) 
Cc1cccc2c([O-])c(/N=N\c3ccc(Cl)cc3Cl)c(=O)[nH]c12

>  <Energy>  (37) 
56.594853223876655

>  <Genealogy>  (37) 
Cc1cccc2c([O-])c(N=Nc3ccc(Cl)cc3Cl)c(=O)[nH]c12 (protonated)
Cc1cccc2c([O-])c(/N=N\c3ccc(Cl)cc3Cl)c(=O)[nH]c12 (cis-trans isomerization)
Cc1cccc2c([O-])c(/N=N\c3ccc(Cl)cc3Cl)c(=O)[nH]c12 (3D coordinates assigned)
Cc1cccc2c([O-])c(/N=N\c3ccc(Cl)cc3Cl)c(=O)[nH]c12 (optimized conformer: 56.594853223876655 kcal/mol)

>  <smiles>  (37) 
Cc1cccc2c(O)c(N=Nc3ccc(Cl)cc3Cl)c(=O)[nH]c12

>  <score_type>  (37) 
oracle

>  <origin>  (37) 
adg

>  <m_score__min__energy>  (37) 
-11.58

>  <m_primary>  (37) 
energy

$$$$
37:0
     RDKit          3D

 48 51  0  0  0  0  0  0  0  0999 V2000
   55.2390   26.4220   45.9880 N   0  0  0  0  0  0  0  0  0  0  0  0
   56.9320   26.0740   46.0220 S   0  0  0  0  0  0  0  0  0  0  0  0
   57.2940   25.5280   47.3750 O   0  0  0  0  0  0  0  0  0  0  0  0
   57.2560   25.0440   44.9770 O   0  0  0  0  0  0  0  0  0  0  0  0
   57.8390   27.5460   45.6920 C   0  0  0  0  0  0  0  0  0  0  0  0
   59.1490   27.7060   46.1680 C   0  0  0  0  0  0  0  0  0  0  0  0
   59.8550   28.8820   45.8980 C   0  0  0  0  0  0  0  0  0  0  0  0
   59.2580   29.9020   45.1520 C   0  0  0  0  0  0  0  0  0  0  0  0
   57.9510   29.7520   44.6730 C   0  0  0  0  0  0  0  0  0  0  0  0
   57.2180   31.0380   43.7190 S   0  0  0  0  0  0  0  0  0  0  0  0
   58.1680   31.5340   42.6660 O   0  0  0  0  0  0  0  0  0  0  0  0
   55.9860   30.4980   43.0490 O   0  0  0  0  0  0  0  0  0  0  0  0
   56.7760   32.3590   44.7540 N   0  0  0  0  0  0  0  0  0  0  0  0
   57.7200   33.1070   45.5430 C   0  0  0  0  0  0  0  0  0  0  0  0
   58.3560   34.2580   45.0450 C   0  0  0  0  0  0  0  0  0  0  0  0
   59.2680   34.9570   45.8360 C   0  0  0  0  0  0  0  0  0  0  0  0
   59.5580   34.5200   47.1290 C   0  0  0  0  0  0  0  0  0  0  0  0
   58.9370   33.3700   47.6470 C   0  0  0  0  0  0  0  0  0  0  0  0
   59.2230   32.9050   49.0280 C   0  0  0  0  0  0  0  0  0  0  0  0
   58.3100   32.3270   49.6790 O   0  0  0  0  0  0  0  0  0  0  0  0
   60.5530   33.0860   49.6630 C   0  0  0  0  0  0  0  0  0  0  0  0
   60.6470   33.6630   50.9400 C   0  0  0  0  0  0  0  0  0  0  0  0
   61.8580   33.8550   51.5220 N   0  0  0  0  0  0  0  0  0  0  0  0
   63.0200   33.5090   50.9080 C   0  0  0  0  0  0  0  0  0  0  0  0
   64.2510   33.7250   51.5500 C   0  0  0  0  0  0  0  0  0  0  0  0
   64.3190   34.4400   53.1550 Cl  0  0  0  0  0  0  0  0  0  0  0  0
   65.4420   33.3680   50.9120 C   0  0  0  0  0  0  0  0  0  0  0  0
   65.4150   32.7980   49.6360 C   0  0  0  0  0  0  0  0  0  0  0  0
   64.1970   32.5790   48.9880 C   0  0  0  0  0  0  0  0  0  0  0  0
   62.9870   32.9320   49.6160 C   0  0  0  0  0  0  0  0  0  0  0  0
   61.7400   32.7250   48.9940 C   0  0  0  0  0  0  0  0  0  0  0  0
   61.6830   32.2030   47.8450 O   0  0  0  0  0  0  0  0  0  0  0  0
   58.0080   32.6790   46.8490 C   0  0  0  0  0  0  0  0  0  0  0  0
   57.2420   28.5740   44.9470 C   0  0  0  0  0  0  0  0  0  0  0  0
   55.1420   27.4610   45.9920 H   0  0  0  0  0  0  0  0  0  0  0  0
   59.6215   26.9045   46.7548 H   0  0  0  0  0  0  0  0  0  0  0  0
   60.8817   29.0047   46.2732 H   0  0  0  0  0  0  0  0  0  0  0  0
   59.8168   30.8256   44.9405 H   0  0  0  0  0  0  0  0  0  0  0  0
   55.7540   32.5420   44.8740 H   0  0  0  0  0  0  0  0  0  0  0  0
   58.1333   34.6090   44.0266 H   0  0  0  0  0  0  0  0  0  0  0  0
   59.7607   35.8566   45.4386 H   0  0  0  0  0  0  0  0  0  0  0  0
   60.2767   35.0786   47.7466 H   0  0  0  0  0  0  0  0  0  0  0  0
   59.7320   33.9616   51.4726 H   0  0  0  0  0  0  0  0  0  0  0  0
   66.4050   33.5363   51.4162 H   0  0  0  0  0  0  0  0  0  0  0  0
   66.3569   32.5207   49.1400 H   0  0  0  0  0  0  0  0  0  0  0  0
   64.1830   32.1295   47.9842 H   0  0  0  0  0  0  0  0  0  0  0  0
   57.5000   31.7911   47.2533 H   0  0  0  0  0  0  0  0  0  0  0  0
   56.2132   28.4552   44.5763 H   0  0  0  0  0  0  0  0  0  0  0  0
  1  2  1  0
  2  3  2  0
  2  4  2  0
  2  5  1  0
  5  6  2  0
  6  7  1  0
  7  8  2  0
  8  9  1  0
  9 10  1  0
 10 11  2  0
 10 12  2  0
 10 13  1  0
 13 14  1  0
 14 15  2  0
 15 16  1  0
 16 17  2  0
 17 18  1  0
 18 19  1  0
 19 20  2  0
 19 21  1  0
 21 22  2  0
 22 23  1  0
 23 24  1  0
 24 25  2  0
 25 26  1  0
 25 27  1  0
 27 28  2  0
 28 29  1  0
 29 30  2  0
 30 31  1  0
 31 32  2  0
 18 33  2  0
  9 34  2  0
 34  5  1  0
 33 14  1  0
 31 21  1  0
 30 24  1  0
  1 35  1  0
  6 36  1  0
  7 37  1  0
  8 38  1  0
 13 39  1  0
 15 40  1  0
 16 41  1  0
 17 42  1  0
 22 43  1  0
 27 44  1  0
 28 45  1  0
 29 46  1  0
 33 47  1  0
 34 48  1  0
M  CHG  2   1  -1  23  -1
M  END
>  <UniqueID>  (38) 
36

>  <SMILES>  (38) 
[NH-]S(=O)(=O)c1cccc(S(=O)(=O)Nc2cccc(C(=O)c3c[n-]c4c(Cl)cccc4c3=O)c2)c1

>  <Energy>  (38) 
68.24920365836932

>  <Genealogy>  (38) 
[NH-]S(=O)(=O)c1cccc(S(=O)(=O)Nc2cccc(C(=O)c3c[n-]c4c(Cl)cccc4c3=O)c2)c1 (protonated)
[NH-]S(=O)(=O)c1cccc(S(=O)(=O)Nc2cccc(C(=O)c3c[n-]c4c(Cl)cccc4c3=O)c2)c1 (3D coordinates assigned)
[NH-]S(=O)(=O)c1cccc(S(=O)(=O)Nc2cccc(C(=O)c3c[n-]c4c(Cl)cccc4c3=O)c2)c1 (optimized conformer: 68.24920365836932 kcal/mol)

>  <smiles>  (38) 
NS(=O)(=O)c1cccc(S(=O)(=O)Nc2cccc(C(=O)c3c[nH]c4c(Cl)cccc4c3=O)c2)c1

>  <score_type>  (38) 
oracle

>  <origin>  (38) 
adg

>  <m_score__min__energy>  (38) 
-14.380000000000001

>  <m_primary>  (38) 
energy

$$$$
38:0
     RDKit          3D

 26 28  0  0  0  0  0  0  0  0999 V2000
   55.1070   26.5030   45.9930 O   0  0  0  0  0  0  0  0  0  0  0  0
   56.3270   26.3510   45.7120 C   0  0  0  0  0  0  0  0  0  0  0  0
   57.1390   27.5230   45.3110 C   0  0  0  0  0  0  0  0  0  0  0  0
   56.5520   28.7950   45.0950 C   0  0  0  0  0  0  0  0  0  0  0  0
   55.1840   28.9960   45.2480 O   0  0  0  0  0  0  0  0  0  0  0  0
   57.3460   29.8810   44.7160 C   0  0  0  0  0  0  0  0  0  0  0  0
   58.7190   29.7230   44.5450 C   0  0  0  0  0  0  0  0  0  0  0  0
   59.3070   28.4760   44.7520 C   0  0  0  0  0  0  0  0  0  0  0  0
   58.5290   27.3690   45.1280 C   0  0  0  0  0  0  0  0  0  0  0  0
   59.2350   26.0580   45.3620 C   0  0  0  0  0  0  0  0  0  0  0  0
   58.3440   24.8610   45.6260 C   0  0  0  0  0  0  0  0  0  0  0  0
   58.9300   23.5740   45.7380 C   0  0  0  0  0  0  0  0  0  0  0  0
   60.3080   23.3690   45.6210 O   0  0  0  0  0  0  0  0  0  0  0  0
   58.1270   22.4590   45.9810 C   0  0  0  0  0  0  0  0  0  0  0  0
   56.7530   22.5970   46.1280 C   0  0  0  0  0  0  0  0  0  0  0  0
   56.1560   23.8540   46.0410 C   0  0  0  0  0  0  0  0  0  0  0  0
   54.7760   23.9400   46.1960 O   0  0  0  0  0  0  0  0  0  0  0  0
   56.9450   25.0040   45.7960 C   0  0  0  0  0  0  0  0  0  0  0  0
   56.8840   30.8657   44.5519 H   0  0  0  0  0  0  0  0  0  0  0  0
   59.3390   30.5813   44.2469 H   0  0  0  0  0  0  0  0  0  0  0  0
   60.3926   28.3579   44.6193 H   0  0  0  0  0  0  0  0  0  0  0  0
   59.8393   25.8373   44.4697 H   0  0  0  0  0  0  0  0  0  0  0  0
   59.8231   26.1980   46.2810 H   0  0  0  0  0  0  0  0  0  0  0  0
   60.7210   22.6830   45.0040 H   0  0  0  0  0  0  0  0  0  0  0  0
   58.5862   21.4623   46.0568 H   0  0  0  0  0  0  0  0  0  0  0  0
   56.1315   21.7087   46.3143 H   0  0  0  0  0  0  0  0  0  0  0  0
  1  2  2  0
  2  3  1  0
  3  4  2  0
  4  5  1  0
  4  6  1  0
  6  7  2  0
  7  8  1  0
  8  9  2  0
  9 10  1  0
 10 11  1  0
 11 12  2  0
 12 13  1  0
 12 14  1  0
 14 15  2  0
 15 16  1  0
 16 17  1  0
 16 18  2  0
 18  2  1  0
  9  3  1  0
 18 11  1  0
  6 19  1  0
  7 20  1  0
  8 21  1  0
 10 22  1  0
 10 23  1  0
 13 24  1  0
 14 25  1  0
 15 26  1  0
M  CHG  2   5  -1  17  -1
M  END
>  <UniqueID>  (39) 
37

>  <SMILES>  (39) 
O=C1c2c([O-])cccc2Cc2c(O)ccc([O-])c21

>  <Energy>  (39) 
39.45660872313749

>  <Genealogy>  (39) 
O=C1c2c([O-])cccc2Cc2c(O)ccc([O-])c21 (protonated)
O=C1c2c([O-])cccc2Cc2c(O)ccc([O-])c21 (3D coordinates assigned)
O=C1c2c([O-])cccc2Cc2c(O)ccc([O-])c21 (nonaromatic ring conformer: 39.45660872313749 kcal/mol)

>  <smiles>  (39) 
O=C1c2c(O)cccc2Cc2c(O)ccc(O)c21

>  <score_type>  (39) 
oracle

>  <origin>  (39) 
adg

>  <m_score__min__energy>  (39) 
-12.210000000000001

>  <m_primary>  (39) 
energy

$$$$
39:0
     RDKit          3D

 55 57  0  0  0  0  0  0  0  0999 V2000
   59.3330   34.8970   47.0770 C   0  0  0  0  0  0  0  0  0  0  0  0
   59.2790   35.3190   45.3090 S   0  0  0  0  0  0  0  0  0  0  0  0
   58.7200   33.6910   44.8220 C   0  0  0  0  0  0  0  0  0  0  0  0
   58.3710   33.3700   43.5590 N   0  0  0  0  0  0  0  0  0  0  0  0
   57.9920   32.0670   43.4560 C   0  0  0  0  0  0  0  0  0  0  0  0
   58.0410   31.3500   44.6500 C   0  0  0  0  0  0  0  0  0  0  0  0
   57.7340   29.9210   44.8320 C   0  0  0  0  0  0  0  0  0  0  0  0
   56.7990   29.5870   45.6080 O   0  0  0  0  0  0  0  0  0  0  0  0
   58.4740   28.9110   44.1290 N   0  0  0  0  0  0  0  0  0  0  0  0
   58.3400   27.5190   44.4470 C   0  0  0  0  0  0  0  0  0  0  0  0
   57.7850   26.6590   43.4910 C   0  0  0  0  0  0  0  0  0  0  0  0
   57.5720   25.3130   43.7860 C   0  0  0  0  0  0  0  0  0  0  0  0
   57.9250   24.8000   45.0420 C   0  0  0  0  0  0  0  0  0  0  0  0
   57.6540   23.3590   45.3780 C   0  0  0  0  0  0  0  0  0  0  0  0
   56.4120   23.2340   46.6540 S   0  0  0  0  0  0  0  0  0  0  0  0
   55.0910   22.1610   46.1320 C   0  0  0  0  0  0  0  0  0  0  0  0
   55.8550   24.5980   46.9560 O   0  0  0  0  0  0  0  0  0  0  0  0
   57.0400   22.6710   47.8970 O   0  0  0  0  0  0  0  0  0  0  0  0
   58.5000   25.6510   45.9970 C   0  0  0  0  0  0  0  0  0  0  0  0
   58.7290   27.0070   45.7070 C   0  0  0  0  0  0  0  0  0  0  0  0
   59.4390   27.8450   46.7030 C   0  0  0  0  0  0  0  0  0  0  0  0
   59.1660   27.7320   48.0080 C   0  0  0  0  0  0  0  0  0  0  0  0
   59.9960   28.4860   49.0080 C   0  0  0  0  0  0  0  0  0  0  0  0
   60.2160   29.9600   48.5630 C   0  0  0  0  0  0  0  0  0  0  0  0
   58.9230   30.7630   48.8310 C   0  0  0  0  0  0  0  0  0  0  0  0
   61.3440   30.5680   49.4220 C   0  0  0  0  0  0  0  0  0  0  0  0
   60.5980   30.0600   47.0390 C   0  0  0  0  0  0  0  0  0  0  0  0
   60.5960   28.7160   46.2820 C   0  0  0  0  0  0  0  0  0  0  0  0
   58.5850   32.3810   45.8640 S   0  0  0  0  0  0  0  0  0  0  0  0
   59.2159   35.8121   47.6761 H   0  0  0  0  0  0  0  0  0  0  0  0
   58.5170   34.1978   47.3122 H   0  0  0  0  0  0  0  0  0  0  0  0
   60.2988   34.4258   47.3122 H   0  0  0  0  0  0  0  0  0  0  0  0
   57.6722   31.6154   42.5053 H   0  0  0  0  0  0  0  0  0  0  0  0
   58.9530   29.1650   43.2370 H   0  0  0  0  0  0  0  0  0  0  0  0
   57.5147   27.0489   42.4986 H   0  0  0  0  0  0  0  0  0  0  0  0
   57.1250   24.6508   43.0299 H   0  0  0  0  0  0  0  0  0  0  0  0
   57.2996   22.8381   44.4763 H   0  0  0  0  0  0  0  0  0  0  0  0
   58.5843   22.8989   45.7425 H   0  0  0  0  0  0  0  0  0  0  0  0
   54.5829   21.7482   47.0160 H   0  0  0  0  0  0  0  0  0  0  0  0
   54.3707   22.7330   45.5287 H   0  0  0  0  0  0  0  0  0  0  0  0
   55.5032   21.3387   45.5287 H   0  0  0  0  0  0  0  0  0  0  0  0
   58.7750   25.2525   46.9847 H   0  0  0  0  0  0  0  0  0  0  0  0
   58.3388   27.0909   48.3467 H   0  0  0  0  0  0  0  0  0  0  0  0
   59.4808   28.4782   49.9799 H   0  0  0  0  0  0  0  0  0  0  0  0
   60.9779   27.9960   49.0841 H   0  0  0  0  0  0  0  0  0  0  0  0
   58.7690   30.8586   49.9160 H   0  0  0  0  0  0  0  0  0  0  0  0
   59.0137   31.7639   48.3839 H   0  0  0  0  0  0  0  0  0  0  0  0
   58.0660   30.2380   48.3839 H   0  0  0  0  0  0  0  0  0  0  0  0
   61.1038   30.4385   50.4876 H   0  0  0  0  0  0  0  0  0  0  0  0
   62.2924   30.0589   49.1954 H   0  0  0  0  0  0  0  0  0  0  0  0
   61.4401   31.6401   49.1954 H   0  0  0  0  0  0  0  0  0  0  0  0
   59.8765   30.7300   46.5486 H   0  0  0  0  0  0  0  0  0  0  0  0
   61.6318   30.4342   47.0028 H   0  0  0  0  0  0  0  0  0  0  0  0
   60.5198   28.9140   45.2027 H   0  0  0  0  0  0  0  0  0  0  0  0
   61.5304   28.1859   46.5184 H   0  0  0  0  0  0  0  0  0  0  0  0
  1  2  1  0
  2  3  1  0
  3  4  2  0
  4  5  1  0
  5  6  2  0
  6  7  1  0
  7  8  2  0
  7  9  1  0
  9 10  1  0
 10 11  2  0
 11 12  1  0
 12 13  2  0
 13 14  1  0
 14 15  1  0
 15 16  1  0
 15 17  2  0
 15 18  2  0
 13 19  1  0
 19 20  2  0
 20 21  1  0
 21 22  2  0
 22 23  1  0
 23 24  1  0
 24 25  1  0
 24 26  1  0
 24 27  1  0
 27 28  1  0
  6 29  1  0
 29  3  1  0
 20 10  1  0
 28 21  1  0
  1 30  1  0
  1 31  1  0
  1 32  1  0
  5 33  1  0
  9 34  1  0
 11 35  1  0
 12 36  1  0
 14 37  1  0
 14 38  1  0
 16 39  1  0
 16 40  1  0
 16 41  1  0
 19 42  1  0
 22 43  1  0
 23 44  1  0
 23 45  1  0
 25 46  1  0
 25 47  1  0
 25 48  1  0
 26 49  1  0
 26 50  1  0
 26 51  1  0
 27 52  1  0
 27 53  1  0
 28 54  1  0
 28 55  1  0
M  END
>  <UniqueID>  (40) 
38

>  <SMILES>  (40) 
CSc1ncc(C(=O)Nc2ccc(CS(C)(=O)=O)cc2C2=CCC(C)(C)CC2)s1

>  <Energy>  (40) 
83.42205243876879

>  <Genealogy>  (40) 
CSc1ncc(C(=O)Nc2ccc(CS(C)(=O)=O)cc2C2=CCC(C)(C)CC2)s1 (3D coordinates assigned)
CSc1ncc(C(=O)Nc2ccc(CS(C)(=O)=O)cc2C2=CCC(C)(C)CC2)s1 (nonaromatic ring conformer: 83.42205243876879 kcal/mol)

>  <smiles>  (40) 
CSc1ncc(C(=O)Nc2ccc(CS(C)(=O)=O)cc2C2=CCC(C)(C)CC2)s1

>  <score_type>  (40) 
oracle

>  <origin>  (40) 
adg

>  <m_score__min__energy>  (40) 
-9.3800000000000008

>  <m_primary>  (40) 
energy

$$$$
40:0
     RDKit          3D

 67 69  0  0  0  0  0  0  0  0999 V2000
   54.4500   30.4920   51.6710 C   0  0  0  0  0  0  0  0  0  0  0  0
   55.8350   30.9480   52.1140 C   0  0  0  0  0  0  0  0  0  0  0  0
   56.8410   30.0600   51.6260 O   0  0  0  0  0  0  0  0  0  0  0  0
   58.0530   30.4390   51.0220 C   0  0  0  0  0  0  0  0  0  0  0  0
   58.5360   29.8170   49.8530 C   0  0  0  0  0  0  0  0  0  0  0  0
   59.7200   30.2600   49.2430 C   0  0  0  0  0  0  0  0  0  0  0  0
   60.2410   29.5680   48.0080 C   0  0  0  0  0  0  0  0  0  0  0  0
   60.0390   28.0720   48.0480 C   0  0  0  0  0  0  0  0  0  0  0  0
   60.7900   27.3680   48.7140 O   0  0  0  0  0  0  0  0  0  0  0  0
   58.9430   27.4910   47.2890 N   0  0  2  0  0  0  0  0  0  0  0  0
   59.0020   26.0270   47.1470 C   0  0  0  0  0  0  0  0  0  0  0  0
   59.0190   26.0950   45.6280 C   0  0  0  0  0  0  0  0  0  0  0  0
   58.9930   27.6210   45.8060 C   0  0  2  0  0  0  0  0  0  0  0  0
   60.2580   28.3090   45.2380 C   0  0  0  0  0  0  0  0  0  0  0  0
   57.7360   28.2810   45.2590 C   0  0  0  0  0  0  0  0  0  0  0  0
   56.6330   28.0610   45.8230 O   0  0  0  0  0  0  0  0  0  0  0  0
   57.7600   29.1500   44.1220 N   0  0  0  0  0  0  0  0  0  0  0  0
   56.9000   30.6530   44.0420 S   0  0  0  0  0  0  0  0  0  0  0  0
   55.4780   30.4340   44.4790 O   0  0  0  0  0  0  0  0  0  0  0  0
   56.8840   31.1280   42.6170 O   0  0  0  0  0  0  0  0  0  0  0  0
   57.6790   31.8790   45.0380 C   0  0  0  0  0  0  0  0  0  0  0  0
   57.0610   33.1140   45.2680 C   0  0  0  0  0  0  0  0  0  0  0  0
   57.6790   34.0690   46.0760 C   0  0  0  0  0  0  0  0  0  0  0  0
   58.9300   33.8030   46.6650 C   0  0  0  0  0  0  0  0  0  0  0  0
   59.5770   34.7350   47.4910 O   0  0  0  0  0  0  0  0  0  0  0  0
   59.7680   34.5740   48.8940 C   0  0  0  0  0  0  0  0  0  0  0  0
   59.5600   32.5710   46.4270 C   0  0  0  0  0  0  0  0  0  0  0  0
   60.8050   32.3310   47.0300 O   0  0  0  0  0  0  0  0  0  0  0  0
   61.9720   33.1160   46.8070 C   0  0  0  0  0  0  0  0  0  0  0  0
   58.9320   31.6160   45.6040 C   0  0  0  0  0  0  0  0  0  0  0  0
   60.4380   31.3170   49.8160 C   0  0  0  0  0  0  0  0  0  0  0  0
   59.9730   31.9340   50.9780 C   0  0  0  0  0  0  0  0  0  0  0  0
   58.8000   31.4890   51.5990 C   0  0  0  0  0  0  0  0  0  0  0  0
   58.3850   32.1370   52.7710 O   0  0  0  0  0  0  0  0  0  0  0  0
   58.5220   33.5120   52.9980 C   0  0  0  0  0  0  0  0  0  0  0  0
   59.4580   33.9890   54.0570 C   0  0  0  0  0  0  0  0  0  0  0  0
   57.8000   34.3440   52.3830 O   0  0  0  0  0  0  0  0  0  0  0  0
   53.8304   30.2880   52.5567 H   0  0  0  0  0  0  0  0  0  0  0  0
   53.9791   31.2825   51.0683 H   0  0  0  0  0  0  0  0  0  0  0  0
   54.5408   29.5763   51.0683 H   0  0  0  0  0  0  0  0  0  0  0  0
   56.0246   31.9582   51.7221 H   0  0  0  0  0  0  0  0  0  0  0  0
   55.8704   30.9511   53.2134 H   0  0  0  0  0  0  0  0  0  0  0  0
   57.9794   28.9758   49.4142 H   0  0  0  0  0  0  0  0  0  0  0  0
   59.7140   29.9707   47.1304 H   0  0  0  0  0  0  0  0  0  0  0  0
   61.3236   29.7553   47.9544 H   0  0  0  0  0  0  0  0  0  0  0  0
   58.0160   27.7650   47.6970 H   0  0  0  0  0  0  0  0  0  0  0  0
   59.9127   25.5826   47.5749 H   0  0  0  0  0  0  0  0  0  0  0  0
   58.2328   25.4154   47.6413 H   0  0  0  0  0  0  0  0  0  0  0  0
   59.9292   25.6976   45.1551 H   0  0  0  0  0  0  0  0  0  0  0  0
   58.2895   25.5591   45.0030 H   0  0  0  0  0  0  0  0  0  0  0  0
   60.8919   28.6538   46.0682 H   0  0  0  0  0  0  0  0  0  0  0  0
   60.8196   27.5921   44.6211 H   0  0  0  0  0  0  0  0  0  0  0  0
   59.9614   29.1701   44.6211 H   0  0  0  0  0  0  0  0  0  0  0  0
   56.0849   33.3322   44.8102 H   0  0  0  0  0  0  0  0  0  0  0  0
   57.1857   35.0360   46.2540 H   0  0  0  0  0  0  0  0  0  0  0  0
   59.0365   35.1906   49.4368 H   0  0  0  0  0  0  0  0  0  0  0  0
   59.6286   33.5168   49.1641 H   0  0  0  0  0  0  0  0  0  0  0  0
   60.7863   34.8903   49.1641 H   0  0  0  0  0  0  0  0  0  0  0  0
   62.4072   33.4088   47.7739 H   0  0  0  0  0  0  0  0  0  0  0  0
   62.7064   32.5276   46.2374 H   0  0  0  0  0  0  0  0  0  0  0  0
   61.7038   34.0180   46.2374 H   0  0  0  0  0  0  0  0  0  0  0  0
   59.4301   30.6558   45.4044 H   0  0  0  0  0  0  0  0  0  0  0  0
   61.3719   31.6621   49.3484 H   0  0  0  0  0  0  0  0  0  0  0  0
   60.5327   32.7769   51.4095 H   0  0  0  0  0  0  0  0  0  0  0  0
   59.0321   33.7719   55.0477 H   0  0  0  0  0  0  0  0  0  0  0  0
   60.4239   33.4732   53.9521 H   0  0  0  0  0  0  0  0  0  0  0  0
   59.6083   35.0736   53.9521 H   0  0  0  0  0  0  0  0  0  0  0  0
  1  2  1  0
  2  3  1  0
  3  4  1  0
  4  5  2  0
  5  6  1  0
  6  7  1  0
  7  8  1  0
  8  9  2  0
  8 10  1  0
 10 11  1  0
 11 12  1  0
 12 13  1  0
 13 14  1  1
 13 15  1  0
 15 16  2  0
 15 17  1  0
 17 18  1  0
 18 19  2  0
 18 20  2  0
 18 21  1  0
 21 22  2  0
 22 23  1  0
 23 24  2  0
 24 25  1  0
 25 26  1  0
 24 27  1  0
 27 28  1  0
 28 29  1  0
 27 30  2  0
  6 31  2  0
 31 32  1  0
 32 33  2  0
 33 34  1  0
 34 35  1  0
 35 36  1  0
 35 37  2  0
 33  4  1  0
 13 10  1  0
 30 21  1  0
  1 38  1  0
  1 39  1  0
  1 40  1  0
  2 41  1  0
  2 42  1  0
  5 43  1  0
  7 44  1  0
  7 45  1  0
 10 46  1  1
 11 47  1  0
 11 48  1  0
 12 49  1  0
 12 50  1  0
 14 51  1  0
 14 52  1  0
 14 53  1  0
 22 54  1  0
 23 55  1  0
 26 56  1  0
 26 57  1  0
 26 58  1  0
 29 59  1  0
 29 60  1  0
 29 61  1  0
 30 62  1  0
 31 63  1  0
 32 64  1  0
 36 65  1  0
 36 66  1  0
 36 67  1  0
M  CHG  2  10   1  17  -1
M  END
>  <UniqueID>  (41) 
39

>  <SMILES>  (41) 
CCOc1cc(CC(=O)[N@@H+]2CC[C@@]2(C)C(=O)[N-]S(=O)(=O)c2ccc(OC)c(OC)c2)ccc1OC(C)=O

>  <Energy>  (41) 
156.18755844215573

>  <Genealogy>  (41) 
CCOc1cc(CC(=O)[NH+]2CCC2(C)C(=O)[N-]S(=O)(=O)c2ccc(OC)c(OC)c2)ccc1OC(C)=O (protonated)
CCOc1cc(CC(=O)[N@@H+]2CC[C@@]2(C)C(=O)[N-]S(=O)(=O)c2ccc(OC)c(OC)c2)ccc1OC(C)=O (chirality)
CCOc1cc(CC(=O)[N@@H+]2CC[C@@]2(C)C(=O)[N-]S(=O)(=O)c2ccc(OC)c(OC)c2)ccc1OC(C)=O (3D coordinates assigned)
CCOc1cc(CC(=O)[N@@H+]2CC[C@@]2(C)C(=O)[N-]S(=O)(=O)c2ccc(OC)c(OC)c2)ccc1OC(C)=O (nonaromatic ring conformer: 156.18755844215573 kcal/mol)

>  <smiles>  (41) 
CCOc1cc(CC(=O)N2CCC2(C)C(=O)NS(=O)(=O)c2ccc(OC)c(OC)c2)ccc1OC(C)=O

>  <score_type>  (41) 
oracle

>  <origin>  (41) 
adg

>  <m_score__min__energy>  (41) 
-9

>  <m_primary>  (41) 
energy

$$$$
41:0
     RDKit          3D

 44 46  0  0  0  0  0  0  0  0999 V2000
   59.6150   35.1320   45.9690 C   0  0  0  0  0  0  0  0  0  0  0  0
   59.3500   33.9690   45.1720 N   0  0  0  0  0  0  0  0  0  0  0  0
   57.9920   33.1210   45.7750 S   0  0  0  0  0  0  0  0  0  0  0  0
   58.0010   33.0820   47.2760 O   0  0  0  0  0  0  0  0  0  0  0  0
   56.7730   33.9010   45.2990 O   0  0  0  0  0  0  0  0  0  0  0  0
   57.8330   31.5150   45.1380 C   0  0  0  0  0  0  0  0  0  0  0  0
   56.6890   31.2240   44.4120 C   0  0  0  0  0  0  0  0  0  0  0  0
   56.5010   29.9700   43.8800 C   0  0  0  0  0  0  0  0  0  0  0  0
   57.4630   29.0290   44.0860 C   0  0  0  0  0  0  0  0  0  0  0  0
   58.6180   29.3130   44.8150 C   0  0  0  0  0  0  0  0  0  0  0  0
   59.5890   28.2040   44.9670 C   0  0  0  0  0  0  0  0  0  0  0  0
   59.5690   27.5310   46.6610 S   0  0  0  0  0  0  0  0  0  0  0  0
   59.6850   28.9180   47.7800 C   0  0  0  0  0  0  0  0  0  0  0  0
   58.7710   29.0140   48.7750 N   0  0  0  0  0  0  0  0  0  0  0  0
   58.8150   30.0430   49.6440 C   0  0  0  0  0  0  0  0  0  0  0  0
   57.9620   30.1110   50.5570 O   0  0  0  0  0  0  0  0  0  0  0  0
   59.8280   31.0050   49.4880 C   0  0  0  0  0  0  0  0  0  0  0  0
   59.7680   32.0960   50.4020 C   0  0  0  0  0  0  0  0  0  0  0  0
   59.7340   32.9800   51.1250 N   0  0  0  0  0  0  0  0  0  0  0  0
   60.7630   30.9200   48.4820 C   0  0  0  0  0  0  0  0  0  0  0  0
   61.7990   31.8940   48.2240 C   0  0  0  0  0  0  0  0  0  0  0  0
   61.6140   32.7320   47.1240 C   0  0  0  0  0  0  0  0  0  0  0  0
   62.5890   33.6670   46.7550 C   0  0  0  0  0  0  0  0  0  0  0  0
   63.7680   33.8080   47.4500 C   0  0  0  0  0  0  0  0  0  0  0  0
   63.9520   32.9840   48.5340 C   0  0  0  0  0  0  0  0  0  0  0  0
   62.9750   32.0470   48.9010 C   0  0  0  0  0  0  0  0  0  0  0  0
   60.6400   29.8470   47.6520 N   0  0  0  0  0  0  0  0  0  0  0  0
   58.8160   30.5710   45.3530 C   0  0  0  0  0  0  0  0  0  0  0  0
   59.5547   34.8675   47.0350 H   0  0  0  0  0  0  0  0  0  0  0  0
   60.6224   35.5106   45.7416 H   0  0  0  0  0  0  0  0  0  0  0  0
   58.8710   35.9097   45.7416 H   0  0  0  0  0  0  0  0  0  0  0  0
   59.3370   34.1130   44.1530 H   0  0  0  0  0  0  0  0  0  0  0  0
   55.9259   32.0016   44.2602 H   0  0  0  0  0  0  0  0  0  0  0  0
   55.5955   29.7330   43.3021 H   0  0  0  0  0  0  0  0  0  0  0  0
   57.3263   28.0209   43.6677 H   0  0  0  0  0  0  0  0  0  0  0  0
   59.3300   27.4020   44.2601 H   0  0  0  0  0  0  0  0  0  0  0  0
   60.5964   28.5949   44.7614 H   0  0  0  0  0  0  0  0  0  0  0  0
   60.6869   32.6570   46.5368 H   0  0  0  0  0  0  0  0  0  0  0  0
   62.4063   34.3096   45.8811 H   0  0  0  0  0  0  0  0  0  0  0  0
   64.5276   34.5457   47.1519 H   0  0  0  0  0  0  0  0  0  0  0  0
   64.8784   33.0603   49.1222 H   0  0  0  0  0  0  0  0  0  0  0  0
   63.1648   31.4058   49.7744 H   0  0  0  0  0  0  0  0  0  0  0  0
   61.3130   29.6780   46.8540 H   0  0  0  0  0  0  0  0  0  0  0  0
   59.7216   30.8100   45.9298 H   0  0  0  0  0  0  0  0  0  0  0  0
  1  2  1  0
  2  3  1  0
  3  4  2  0
  3  5  2  0
  3  6  1  0
  6  7  2  0
  7  8  1  0
  8  9  2  0
  9 10  1  0
 10 11  1  0
 11 12  1  0
 12 13  1  0
 13 14  2  0
 14 15  1  0
 15 16  2  0
 15 17  1  0
 17 18  1  0
 18 19  3  0
 17 20  2  0
 20 21  1  0
 21 22  2  0
 22 23  1  0
 23 24  2  0
 24 25  1  0
 25 26  2  0
 20 27  1  0
 10 28  2  0
 28  6  1  0
 27 13  1  0
 26 21  1  0
  1 29  1  0
  1 30  1  0
  1 31  1  0
  2 32  1  0
  7 33  1  0
  8 34  1  0
  9 35  1  0
 11 36  1  0
 11 37  1  0
 22 38  1  0
 23 39  1  0
 24 40  1  0
 25 41  1  0
 26 42  1  0
 27 43  1  0
 28 44  1  0
M  END
>  <smiles>  (42) 
CNS(=O)(=O)c1cccc(CSc2nc(=O)c(C#N)c(-c3ccccc3)[nH]2)c1

>  <score_type>  (42) 
oracle

>  <origin>  (42) 
adg

>  <m_score__min__energy>  (42) 
-9.0800000000000001

>  <m_primary>  (42) 
energy

$$$$
42:0
     RDKit          3D

 54 57  0  0  0  0  0  0  0  0999 V2000
   54.5496   31.2366   53.8949 H   0  0  0  0  0  0  0  0  0  0  0  0
   55.1630   30.7200   53.1420 C   0  0  0  0  0  0  0  0  0  0  0  0
   56.6330   30.7860   53.2990 C   0  0  0  0  0  0  0  0  0  0  0  0
   57.1270   31.1040   54.4150 O   0  0  0  0  0  0  0  0  0  0  0  0
   57.5310   30.5400   52.1400 C   0  0  0  0  0  0  0  0  0  0  0  0
   57.7230   31.5450   51.1730 C   0  0  0  0  0  0  0  0  0  0  0  0
   57.2162   32.5141   51.2915 H   0  0  0  0  0  0  0  0  0  0  0  0
   58.5510   31.3300   50.0600 C   0  0  0  0  0  0  0  0  0  0  0  0
   58.7440   32.4170   49.0720 C   0  0  0  0  0  0  0  0  0  0  0  0
   58.1200   32.3270   47.8170 C   0  0  0  0  0  0  0  0  0  0  0  0
   57.5397   31.4285   47.5603 H   0  0  0  0  0  0  0  0  0  0  0  0
   58.2300   33.3740   46.8860 C   0  0  0  0  0  0  0  0  0  0  0  0
   57.5410   33.3220   45.5790 C   0  0  0  0  0  0  0  0  0  0  0  0
   57.7572   34.1280   44.8623 H   0  0  0  0  0  0  0  0  0  0  0  0
   56.6720   32.3710   45.1940 C   0  0  0  0  0  0  0  0  0  0  0  0
   55.6245   32.4934   45.5067 H   0  0  0  0  0  0  0  0  0  0  0  0
   56.9990   31.1740   44.3870 C   0  0  0  0  0  0  0  0  0  0  0  0
   56.8460   31.2420   43.1390 O   0  0  0  0  0  0  0  0  0  0  0  0
   57.4330   29.8890   44.9920 C   0  0  0  0  0  0  0  0  0  0  0  0
   58.7750   29.7010   45.3710 C   0  0  0  0  0  0  0  0  0  0  0  0
   59.4990   30.5184   45.2385 H   0  0  0  0  0  0  0  0  0  0  0  0
   59.1950   28.4850   45.9140 C   0  0  0  0  0  0  0  0  0  0  0  0
   60.2483   28.3454   46.1988 H   0  0  0  0  0  0  0  0  0  0  0  0
   58.2800   27.4460   46.0960 C   0  0  0  0  0  0  0  0  0  0  0  0
   58.6136   26.4877   46.5208 H   0  0  0  0  0  0  0  0  0  0  0  0
   56.9420   27.6230   45.7390 C   0  0  0  0  0  0  0  0  0  0  0  0
   56.2214   26.8061   45.8921 H   0  0  0  0  0  0  0  0  0  0  0  0
   56.5140   28.8360   45.1870 C   0  0  0  0  0  0  0  0  0  0  0  0
   55.1800   28.9740   44.8150 O   0  0  0  0  0  0  0  0  0  0  0  0
   59.0420   34.4750   47.1860 C   0  0  0  0  0  0  0  0  0  0  0  0
   59.1689   35.2791   46.4462 H   0  0  0  0  0  0  0  0  0  0  0  0
   59.6910   34.5570   48.4190 C   0  0  0  0  0  0  0  0  0  0  0  0
   60.3199   35.4296   48.6492 H   0  0  0  0  0  0  0  0  0  0  0  0
   59.5460   33.5360   49.3630 C   0  0  0  0  0  0  0  0  0  0  0  0
   60.2200   33.6330   50.5770 O   0  0  0  0  0  0  0  0  0  0  0  0
   59.2130   30.0970   49.9230 C   0  0  0  0  0  0  0  0  0  0  0  0
   60.0750   29.8670   48.8550 O   0  0  0  0  0  0  0  0  0  0  0  0
   59.0220   29.0920   50.8720 C   0  0  0  0  0  0  0  0  0  0  0  0
   59.5318   28.1248   50.7516 H   0  0  0  0  0  0  0  0  0  0  0  0
   58.1890   29.3030   51.9740 C   0  0  0  0  0  0  0  0  0  0  0  0
   58.0400   28.2810   52.9070 O   0  0  0  0  0  0  0  0  0  0  0  0
   54.5190   30.0800   52.1540 C   0  0  0  0  0  0  0  0  0  0  0  0
   54.8995   29.0907   51.8600 H   0  0  0  0  0  0  0  0  0  0  0  0
   53.3380   30.5980   51.4280 C   0  0  0  0  0  0  0  0  0  0  0  0
   52.8780   29.9870   50.2470 C   0  0  0  0  0  0  0  0  0  0  0  0
   53.3747   29.0811   49.8693 H   0  0  0  0  0  0  0  0  0  0  0  0
   51.7920   30.5270   49.5520 C   0  0  0  0  0  0  0  0  0  0  0  0
   51.4260   30.0355   48.6385 H   0  0  0  0  0  0  0  0  0  0  0  0
   51.1700   31.6900   50.0150 C   0  0  0  0  0  0  0  0  0  0  0  0
   50.0920   32.2220   49.3180 O   0  0  0  0  0  0  0  0  0  0  0  0
   51.6400   32.3200   51.1740 C   0  0  0  0  0  0  0  0  0  0  0  0
   51.0310   33.4820   51.6340 O   0  0  0  0  0  0  0  0  0  0  0  0
   52.7260   31.7810   51.8720 C   0  0  0  0  0  0  0  0  0  0  0  0
   53.1024   32.2867   52.7734 H   0  0  0  0  0  0  0  0  0  0  0  0
  1  2  1  0
  2  3  1  0
  3  4  2  0
  3  5  1  0
  5  6  2  0
  6  7  1  0
  6  8  1  0
  8  9  1  0
  9 10  2  0
 10 11  1  0
 10 12  1  0
 12 13  1  0
 13 14  1  0
 13 15  2  0
 15 16  1  0
 15 17  1  0
 17 18  2  0
 17 19  1  0
 19 20  2  0
 20 21  1  0
 20 22  1  0
 22 23  1  0
 22 24  2  0
 24 25  1  0
 24 26  1  0
 26 27  1  0
 26 28  2  0
 28 29  1  0
 12 30  2  0
 30 31  1  0
 30 32  1  0
 32 33  1  0
 32 34  2  0
 34 35  1  0
  8 36  2  0
 36 37  1  0
 36 38  1  0
 38 39  1  0
 38 40  2  0
 40 41  1  0
  2 42  2  0
 42 43  1  0
 42 44  1  0
 44 45  2  0
 45 46  1  0
 45 47  1  0
 47 48  1  0
 47 49  2  0
 49 50  1  0
 49 51  1  0
 51 52  1  0
 51 53  2  0
 53 54  1  0
 40  5  1  0
 53 44  1  0
 34  9  1  0
 28 19  1  0
M  CHG  6  29  -1  35  -1  37  -1  41  -1  50  -1  52  -1
M  END
>  <UniqueID>  (43) 
40

>  <SMILES>  (43) 
O=C(/C=C\c1ccc([O-])c(-c2cc(C(=O)/C=C\c3ccc([O-])c([O-])c3)c([O-])cc2[O-])c1)c1ccccc1[O-]

>  <Energy>  (43) 
88.52586369801924

>  <Genealogy>  (43) 
O=C(C=Cc1ccc([O-])c(-c2cc(C(=O)C=Cc3ccc([O-])c([O-])c3)c([O-])cc2[O-])c1)c1ccccc1[O-] (protonated)
O=C(/C=C\c1ccc([O-])c(-c2cc(C(=O)/C=C\c3ccc([O-])c([O-])c3)c([O-])cc2[O-])c1)c1ccccc1[O-] (cis-trans isomerization)
O=C(/C=C\c1ccc([O-])c(-c2cc(C(=O)/C=C\c3ccc([O-])c([O-])c3)c([O-])cc2[O-])c1)c1ccccc1[O-] (3D coordinates assigned)
O=C(/C=C\c1ccc([O-])c(-c2cc(C(=O)/C=C\c3ccc([O-])c([O-])c3)c([O-])cc2[O-])c1)c1ccccc1[O-] (optimized conformer: 88.52586369801924 kcal/mol)

>  <smiles>  (43) 
O=C(C=Cc1ccc(O)c(-c2cc(C(=O)C=Cc3ccc(O)c(O)c3)c(O)cc2O)c1)c1ccccc1O

>  <score_type>  (43) 
oracle

>  <origin>  (43) 
adg

>  <m_score__min__energy>  (43) 
-25.440000000000001

>  <m_primary>  (43) 
energy

$$$$
43:0
     RDKit          3D

 46 48  0  0  0  0  0  0  0  0999 V2000
   59.3040   29.4810   49.2840 C   0  0  0  0  0  0  0  0  0  0  0  0
   59.0980   30.7300   50.0380 N   0  0  0  0  0  0  0  0  0  0  0  0
   59.9200   31.8020   49.8050 C   0  0  0  0  0  0  0  0  0  0  0  0
   60.9750   31.7000   48.8310 N   0  0  0  0  0  0  0  0  0  0  0  0
   61.4720   32.9610   47.7490 S   0  0  0  0  0  0  0  0  0  0  0  0
   62.7040   32.5190   47.0110 O   0  0  0  0  0  0  0  0  0  0  0  0
   61.7930   34.1950   48.5430 O   0  0  0  0  0  0  0  0  0  0  0  0
   60.1650   33.3290   46.6270 C   0  0  0  0  0  0  0  0  0  0  0  0
   59.9130   34.6580   46.2730 C   0  0  0  0  0  0  0  0  0  0  0  0
   58.8490   34.9670   45.4240 C   0  0  0  0  0  0  0  0  0  0  0  0
   58.0290   33.9520   44.9250 C   0  0  0  0  0  0  0  0  0  0  0  0
   58.2730   32.6100   45.2660 C   0  0  0  0  0  0  0  0  0  0  0  0
   57.3950   31.5300   44.7570 C   0  0  0  0  0  0  0  0  0  0  0  0
   56.1430   31.6450   44.8430 O   0  0  0  0  0  0  0  0  0  0  0  0
   57.9710   30.3360   44.2080 N   0  0  0  0  0  0  0  0  0  0  0  0
   57.9920   29.0350   44.8150 C   0  0  0  0  0  0  0  0  0  0  0  0
   59.1940   28.3200   44.9810 C   0  0  0  0  0  0  0  0  0  0  0  0
   59.1940   27.0740   45.6100 C   0  0  0  0  0  0  0  0  0  0  0  0
   58.0020   26.5350   46.0940 C   0  0  0  0  0  0  0  0  0  0  0  0
   56.8080   27.2440   45.9560 C   0  0  0  0  0  0  0  0  0  0  0  0
   56.7950   28.4920   45.3250 C   0  0  0  0  0  0  0  0  0  0  0  0
   55.5830   29.1760   45.2150 O   0  0  0  0  0  0  0  0  0  0  0  0
   59.3530   32.3080   46.1170 C   0  0  0  0  0  0  0  0  0  0  0  0
   59.7200   32.9890   50.5170 C   0  0  0  0  0  0  0  0  0  0  0  0
   58.7310   33.0410   51.4900 C   0  0  0  0  0  0  0  0  0  0  0  0
   58.5490   34.1210   52.1150 O   0  0  0  0  0  0  0  0  0  0  0  0
   57.9740   31.9360   51.7650 N   0  0  0  0  0  0  0  0  0  0  0  0
   56.9330   31.9980   52.8020 C   0  0  0  0  0  0  0  0  0  0  0  0
   58.1430   30.7910   51.0250 C   0  0  0  0  0  0  0  0  0  0  0  0
   57.4150   29.7840   51.2590 O   0  0  0  0  0  0  0  0  0  0  0  0
   59.4416   28.6465   49.9874 H   0  0  0  0  0  0  0  0  0  0  0  0
   58.4259   29.2858   48.6509 H   0  0  0  0  0  0  0  0  0  0  0  0
   60.1983   29.5782   48.6509 H   0  0  0  0  0  0  0  0  0  0  0  0
   60.5544   35.4615   46.6643 H   0  0  0  0  0  0  0  0  0  0  0  0
   58.6554   36.0137   45.1468 H   0  0  0  0  0  0  0  0  0  0  0  0
   57.1882   34.2040   44.2620 H   0  0  0  0  0  0  0  0  0  0  0  0
   60.1388   28.7462   44.6126 H   0  0  0  0  0  0  0  0  0  0  0  0
   60.1353   26.5163   45.7242 H   0  0  0  0  0  0  0  0  0  0  0  0
   58.0032   25.5505   46.5847 H   0  0  0  0  0  0  0  0  0  0  0  0
   55.8714   26.8187   46.3459 H   0  0  0  0  0  0  0  0  0  0  0  0
   55.4390   30.0930   45.6230 H   0  0  0  0  0  0  0  0  0  0  0  0
   59.5610   31.2613   46.3837 H   0  0  0  0  0  0  0  0  0  0  0  0
   60.3404   33.8730   50.3081 H   0  0  0  0  0  0  0  0  0  0  0  0
   57.4034   31.9700   53.7959 H   0  0  0  0  0  0  0  0  0  0  0  0
   56.3619   32.9318   52.6928 H   0  0  0  0  0  0  0  0  0  0  0  0
   56.2551   31.1386   52.6928 H   0  0  0  0  0  0  0  0  0  0  0  0
  1  2  1  0
  2  3  1  0
  3  4  1  0
  4  5  1  0
  5  6  2  0
  5  7  2  0
  5  8  1  0
  8  9  2  0
  9 10  1  0
 10 11  2  0
 11 12  1  0
 12 13  1  0
 13 14  2  0
 13 15  1  0
 15 16  1  0
 16 17  2  0
 17 18  1  0
 18 19  2  0
 19 20  1  0
 20 21  2  0
 21 22  1  0
 12 23  2  0
  3 24  2  0
 24 25  1  0
 25 26  2  0
 25 27  1  0
 27 28  1  0
 27 29  1  0
 29 30  2  0
 29  2  1  0
 23  8  1  0
 21 16  1  0
  1 31  1  0
  1 32  1  0
  1 33  1  0
  9 34  1  0
 10 35  1  0
 11 36  1  0
 17 37  1  0
 18 38  1  0
 19 39  1  0
 20 40  1  0
 22 41  1  0
 23 42  1  0
 24 43  1  0
 28 44  1  0
 28 45  1  0
 28 46  1  0
M  CHG  2   4  -1  15  -1
M  END
>  <UniqueID>  (44) 
41

>  <SMILES>  (44) 
Cn1c([N-]S(=O)(=O)c2cccc(C(=O)[N-]c3ccccc3O)c2)cc(=O)n(C)c1=O

>  <Energy>  (44) 
64.31715219032053

>  <Genealogy>  (44) 
Cn1c([N-]S(=O)(=O)c2cccc(C(=O)[N-]c3ccccc3O)c2)cc(=O)n(C)c1=O (protonated)
Cn1c([N-]S(=O)(=O)c2cccc(C(=O)[N-]c3ccccc3O)c2)cc(=O)n(C)c1=O (3D coordinates assigned)
Cn1c([N-]S(=O)(=O)c2cccc(C(=O)[N-]c3ccccc3O)c2)cc(=O)n(C)c1=O (optimized conformer: 64.31715219032053 kcal/mol)

>  <smiles>  (44) 
Cn1c(NS(=O)(=O)c2cccc(C(=O)Nc3ccccc3O)c2)cc(=O)n(C)c1=O

>  <score_type>  (44) 
oracle

>  <origin>  (44) 
adg

>  <m_score__min__energy>  (44) 
-13.5

>  <m_primary>  (44) 
energy

$$$$
44:0
     RDKit          3D

 55 56  0  0  0  0  0  0  0  0999 V2000
   58.3149   33.7195   43.2859 H   0  0  0  0  0  0  0  0  0  0  0  0
   57.8990   32.7640   43.6380 C   0  0  0  0  0  0  0  0  0  0  0  0
   57.4020   31.8250   42.7290 C   0  0  0  0  0  0  0  0  0  0  0  0
   57.4430   32.1000   41.2590 C   0  0  0  0  0  0  0  0  0  0  0  0
   57.6033   33.1753   41.0915 H   0  0  0  0  0  0  0  0  0  0  0  0
   58.2662   31.5310   40.8023 H   0  0  0  0  0  0  0  0  0  0  0  0
   56.4896   31.7959   40.8023 H   0  0  0  0  0  0  0  0  0  0  0  0
   56.8910   30.6500   43.1840 N   0  0  0  0  0  0  0  0  0  0  0  0
   56.8430   30.3700   44.5120 C   0  0  0  0  0  0  0  0  0  0  0  0
   56.3160   29.2470   44.9060 N   0  0  0  0  0  0  0  0  0  0  0  0
   57.0090   28.0350   45.2620 C   0  0  0  0  0  0  0  0  0  0  0  0
   56.3930   27.0000   45.9900 C   0  0  0  0  0  0  0  0  0  0  0  0
   55.3452   27.1020   46.3088 H   0  0  0  0  0  0  0  0  0  0  0  0
   57.1090   25.8430   46.3090 C   0  0  0  0  0  0  0  0  0  0  0  0
   56.6162   25.0345   46.8689 H   0  0  0  0  0  0  0  0  0  0  0  0
   58.4470   25.7030   45.9230 C   0  0  0  0  0  0  0  0  0  0  0  0
   59.1390   24.5000   46.2860 N   0  0  0  0  0  0  0  0  0  0  0  0
   59.2460   23.2960   45.5140 C   0  0  0  0  0  0  0  0  0  0  0  0
   60.2600   22.5550   45.6060 O   0  0  0  0  0  0  0  0  0  0  0  0
   58.1720   22.9620   44.5250 C   0  0  0  0  0  0  0  0  0  0  0  0
   58.6127   22.3865   43.6976 H   0  0  0  0  0  0  0  0  0  0  0  0
   57.7352   23.9014   44.1551 H   0  0  0  0  0  0  0  0  0  0  0  0
   57.0600   22.1330   45.1730 C   0  0  0  0  0  0  0  0  0  0  0  0
   57.4897   21.5167   45.9765 H   0  0  0  0  0  0  0  0  0  0  0  0
   56.6022   21.4916   44.4056 H   0  0  0  0  0  0  0  0  0  0  0  0
   56.0150   23.0180   45.7430 N   0  0  0  0  0  0  0  0  0  0  0  0
   54.9730   23.3700   44.7540 C   0  0  0  0  0  0  0  0  0  0  0  0
   54.4085   22.4625   44.4937 H   0  0  0  0  0  0  0  0  0  0  0  0
   55.4712   23.7939   43.8697 H   0  0  0  0  0  0  0  0  0  0  0  0
   54.0010   24.4180   45.2990 C   0  0  0  0  0  0  0  0  0  0  0  0
   54.0193   24.3983   46.3987 H   0  0  0  0  0  0  0  0  0  0  0  0
   54.3009   25.4154   44.9451 H   0  0  0  0  0  0  0  0  0  0  0  0
   52.9839   24.1939   44.9451 H   0  0  0  0  0  0  0  0  0  0  0  0
   55.4990   22.5370   47.0500 C   0  0  0  0  0  0  0  0  0  0  0  0
   54.4770   22.9226   47.1793 H   0  0  0  0  0  0  0  0  0  0  0  0
   55.5422   21.4383   47.0193 H   0  0  0  0  0  0  0  0  0  0  0  0
   56.3350   22.9750   48.2630 C   0  0  0  0  0  0  0  0  0  0  0  0
   55.8094   22.6996   49.1892 H   0  0  0  0  0  0  0  0  0  0  0  0
   57.3138   22.4739   48.2340 H   0  0  0  0  0  0  0  0  0  0  0  0
   56.4801   24.0650   48.2340 H   0  0  0  0  0  0  0  0  0  0  0  0
   59.0820   26.7650   45.2580 C   0  0  0  0  0  0  0  0  0  0  0  0
   60.1466   26.6878   44.9923 H   0  0  0  0  0  0  0  0  0  0  0  0
   58.3640   27.9200   44.9330 C   0  0  0  0  0  0  0  0  0  0  0  0
   58.8698   28.7470   44.4131 H   0  0  0  0  0  0  0  0  0  0  0  0
   57.3100   31.2840   45.4040 N   0  0  0  0  0  0  0  0  0  0  0  0
   57.8570   32.4640   45.0080 C   0  0  0  0  0  0  0  0  0  0  0  0
   58.3710   33.3740   46.0030 N   0  0  0  0  0  0  0  0  0  0  0  0
   59.0830   34.5780   45.5660 C   0  0  0  0  0  0  0  0  0  0  0  0
   59.4186   35.1454   46.4466 H   0  0  0  0  0  0  0  0  0  0  0  0
   59.9555   34.2890   44.9617 H   0  0  0  0  0  0  0  0  0  0  0  0
   58.4094   35.2033   44.9617 H   0  0  0  0  0  0  0  0  0  0  0  0
   58.1530   33.1680   47.4370 C   0  0  0  0  0  0  0  0  0  0  0  0
   58.8363   33.8137   48.0082 H   0  0  0  0  0  0  0  0  0  0  0  0
   57.1127   33.4206   47.6897 H   0  0  0  0  0  0  0  0  0  0  0  0
   58.3464   32.1150   47.6897 H   0  0  0  0  0  0  0  0  0  0  0  0
  1  2  1  0
  2  3  1  0
  3  4  1  0
  4  5  1  0
  4  6  1  0
  4  7  1  0
  3  8  2  0
  8  9  1  0
  9 10  2  0
 10 11  1  0
 11 12  2  0
 12 13  1  0
 12 14  1  0
 14 15  1  0
 14 16  2  0
 16 17  1  0
 17 18  1  0
 18 19  2  0
 18 20  1  0
 20 21  1  0
 20 22  1  0
 20 23  1  0
 23 24  1  0
 23 25  1  0
 23 26  1  0
 26 27  1  0
 27 28  1  0
 27 29  1  0
 27 30  1  0
 30 31  1  0
 30 32  1  0
 30 33  1  0
 26 34  1  0
 34 35  1  0
 34 36  1  0
 34 37  1  0
 37 38  1  0
 37 39  1  0
 37 40  1  0
 16 41  1  0
 41 42  1  0
 41 43  2  0
 43 44  1  0
  9 45  1  0
 45 46  1  0
 46 47  1  0
 47 48  1  0
 48 49  1  0
 48 50  1  0
 48 51  1  0
 47 52  1  0
 52 53  1  0
 52 54  1  0
 52 55  1  0
 46  2  2  0
 43 11  1  0
M  CHG  2  17  -1  45  -1
M  END
>  <UniqueID>  (45) 
42

>  <SMILES>  (45) 
CCN(CC)CCC(=O)[N-]c1ccc(/N=c2/nc(C)cc(N(C)C)[n-]2)cc1

>  <Energy>  (45) 
63.67479003171045

>  <Genealogy>  (45) 
CCN(CC)CCC(=O)[N-]c1ccc(N=c2nc(C)cc(N(C)C)[n-]2)cc1 (protonated)
CCN(CC)CCC(=O)[N-]c1ccc(/N=c2/nc(C)cc(N(C)C)[n-]2)cc1 (cis-trans isomerization)
CCN(CC)CCC(=O)[N-]c1ccc(/N=c2/nc(C)cc(N(C)C)[n-]2)cc1 (3D coordinates assigned)
CCN(CC)CCC(=O)[N-]c1ccc(/N=c2/nc(C)cc(N(C)C)[n-]2)cc1 (optimized conformer: 63.67479003171045 kcal/mol)

>  <smiles>  (45) 
CCN(CC)CCC(=O)Nc1ccc(N=c2nc(C)cc(N(C)C)[nH]2)cc1

>  <score_type>  (45) 
oracle

>  <origin>  (45) 
adg

>  <m_score__min__energy>  (45) 
-10.220000000000001

>  <m_primary>  (45) 
energy

$$$$
45:0
     RDKit          3D

 35 37  0  0  0  0  0  0  0  0999 V2000
   56.8570   31.3380   43.0570 O   0  0  0  0  0  0  0  0  0  0  0  0
   57.5820   31.2440   44.0850 C   0  0  0  0  0  0  0  0  0  0  0  0
   58.0080   32.4780   44.7730 C   0  0  0  0  0  0  0  0  0  0  0  0
   58.5970   33.5800   44.1620 C   0  0  0  0  0  0  0  0  0  0  0  0
   58.8500   34.6380   45.0450 C   0  0  0  0  0  0  0  0  0  0  0  0
   58.4540   34.3820   46.3500 C   0  0  0  0  0  0  0  0  0  0  0  0
   57.7860   32.8410   46.4040 S   0  0  0  0  0  0  0  0  0  0  0  0
   57.9680   29.9000   44.5710 C   0  0  0  0  0  0  0  0  0  0  0  0
   59.3060   29.4780   44.5110 C   0  0  0  0  0  0  0  0  0  0  0  0
   59.6680   28.2070   44.9620 C   0  0  0  0  0  0  0  0  0  0  0  0
   58.6980   27.3370   45.4610 C   0  0  0  0  0  0  0  0  0  0  0  0
   57.3470   27.7250   45.4930 C   0  0  0  0  0  0  0  0  0  0  0  0
   56.3250   26.8650   46.0160 N   0  0  0  0  0  0  0  0  0  0  0  0
   56.5170   25.5700   46.6030 C   0  0  0  0  0  0  0  0  0  0  0  0
   57.5360   25.3360   47.3070 O   0  0  0  0  0  0  0  0  0  0  0  0
   55.5740   24.4760   46.2850 C   0  0  0  0  0  0  0  0  0  0  0  0
   56.0150   23.1500   46.4320 C   0  0  0  0  0  0  0  0  0  0  0  0
   55.1260   22.0950   46.2220 C   0  0  0  0  0  0  0  0  0  0  0  0
   55.5150   20.9050   46.3640 O   0  0  0  0  0  0  0  0  0  0  0  0
   53.8060   22.3670   45.8630 C   0  0  0  0  0  0  0  0  0  0  0  0
   52.9010   21.3320   45.6570 O   0  0  0  0  0  0  0  0  0  0  0  0
   53.4000   23.6920   45.7040 C   0  0  0  0  0  0  0  0  0  0  0  0
   54.2760   24.7200   45.8940 N   0  0  0  0  0  0  0  0  0  0  0  0
   53.8180   25.9940   45.6190 O   0  0  0  0  0  0  0  0  0  0  0  0
   56.9900   29.0120   45.0610 C   0  0  0  0  0  0  0  0  0  0  0  0
   55.6890   29.3980   45.1310 F   0  0  0  0  0  0  0  0  0  0  0  0
   58.8405   33.6173   43.0899 H   0  0  0  0  0  0  0  0  0  0  0  0
   59.3186   35.5830   44.7330 H   0  0  0  0  0  0  0  0  0  0  0  0
   58.5592   35.0694   47.2023 H   0  0  0  0  0  0  0  0  0  0  0  0
   60.0741   30.1532   44.1060 H   0  0  0  0  0  0  0  0  0  0  0  0
   60.7209   27.8908   44.9238 H   0  0  0  0  0  0  0  0  0  0  0  0
   58.9915   26.3435   45.8309 H   0  0  0  0  0  0  0  0  0  0  0  0
   57.0586   22.9440   46.7120 H   0  0  0  0  0  0  0  0  0  0  0  0
   52.3596   23.9107   45.4216 H   0  0  0  0  0  0  0  0  0  0  0  0
   54.4000   26.7120   45.2080 H   0  0  0  0  0  0  0  0  0  0  0  0
  1  2  2  0
  2  3  1  0
  3  4  2  0
  4  5  1  0
  5  6  2  0
  6  7  1  0
  2  8  1  0
  8  9  2  0
  9 10  1  0
 10 11  2  0
 11 12  1  0
 12 13  1  0
 13 14  1  0
 14 15  2  0
 14 16  1  0
 16 17  2  0
 17 18  1  0
 18 19  2  0
 18 20  1  0
 20 21  1  0
 20 22  2  0
 22 23  1  0
 23 24  1  0
 12 25  2  0
 25 26  1  0
  7  3  1  0
 25  8  1  0
 23 16  1  0
  4 27  1  0
  5 28  1  0
  6 29  1  0
  9 30  1  0
 10 31  1  0
 11 32  1  0
 17 33  1  0
 22 34  1  0
 24 35  1  0
M  CHG  2  13  -1  21  -1
M  END
>  <UniqueID>  (46) 
43

>  <SMILES>  (46) 
O=C(c1cccs1)c1cccc([N-]C(=O)c2cc(=O)c([O-])cn2O)c1F

>  <Energy>  (46) 
80.05391558890493

>  <Genealogy>  (46) 
O=C(c1cccs1)c1cccc([N-]C(=O)c2cc(=O)c([O-])cn2O)c1F (protonated)
O=C(c1cccs1)c1cccc([N-]C(=O)c2cc(=O)c([O-])cn2O)c1F (3D coordinates assigned)
O=C(c1cccs1)c1cccc([N-]C(=O)c2cc(=O)c([O-])cn2O)c1F (optimized conformer: 80.05391558890493 kcal/mol)

>  <smiles>  (46) 
O=C(c1cccs1)c1cccc(NC(=O)c2cc(=O)c(O)cn2O)c1F

>  <score_type>  (46) 
oracle

>  <origin>  (46) 
adg

>  <m_score__min__energy>  (46) 
-12.66

>  <m_primary>  (46) 
energy

$$$$
46:0
     RDKit          3D

 34 35  0  0  0  0  0  0  0  0999 V2000
   54.7780   28.9390   45.4330 H   0  0  0  0  0  0  0  0  0  0  0  0
   55.2410   29.3270   44.6460 O   0  0  0  0  0  0  0  0  0  0  0  0
   56.6080   29.3430   44.9510 C   0  0  0  0  0  0  0  0  0  0  0  0
   56.8251   30.2023   45.6025 H   0  0  0  0  0  0  0  0  0  0  0  0
   57.1836   29.4255   44.0173 H   0  0  0  0  0  0  0  0  0  0  0  0
   56.9980   28.0680   45.6600 C   0  0  0  0  0  0  0  0  0  0  0  0
   58.2770   27.8850   46.2370 C   0  0  0  0  0  0  0  0  0  0  0  0
   59.3110   28.9520   46.2260 C   0  0  0  0  0  0  0  0  0  0  0  0
   59.2800   29.9600   47.0530 N   0  0  0  0  0  0  0  0  0  0  0  0
   59.3500   31.3560   46.7200 C   0  0  0  0  0  0  0  0  0  0  0  0
   58.2520   32.0400   46.1700 C   0  0  0  0  0  0  0  0  0  0  0  0
   57.3157   31.4995   45.9670 H   0  0  0  0  0  0  0  0  0  0  0  0
   58.3450   33.4040   45.8800 C   0  0  0  0  0  0  0  0  0  0  0  0
   57.4911   33.9262   45.4238 H   0  0  0  0  0  0  0  0  0  0  0  0
   59.5220   34.1100   46.1680 C   0  0  0  0  0  0  0  0  0  0  0  0
   59.6350   35.5650   45.8200 C   0  0  0  0  0  0  0  0  0  0  0  0
   59.6812   36.1604   46.7438 H   0  0  0  0  0  0  0  0  0  0  0  0
   60.5488   35.7311   45.2305 H   0  0  0  0  0  0  0  0  0  0  0  0
   58.7579   35.8702   45.2305 H   0  0  0  0  0  0  0  0  0  0  0  0
   60.6120   33.4300   46.7330 C   0  0  0  0  0  0  0  0  0  0  0  0
   61.5440   33.9728   46.9492 H   0  0  0  0  0  0  0  0  0  0  0  0
   60.5180   32.0660   47.0220 C   0  0  0  0  0  0  0  0  0  0  0  0
   61.3674   31.5468   47.4899 H   0  0  0  0  0  0  0  0  0  0  0  0
   60.3570   28.9440   45.1550 C   0  0  0  0  0  0  0  0  0  0  0  0
   61.3551   28.9364   45.6173 H   0  0  0  0  0  0  0  0  0  0  0  0
   60.2354   28.0468   44.5304 H   0  0  0  0  0  0  0  0  0  0  0  0
   60.2491   29.8430   44.5304 H   0  0  0  0  0  0  0  0  0  0  0  0
   58.5520   26.6500   46.8480 C   0  0  0  0  0  0  0  0  0  0  0  0
   59.6730   26.4320   47.3830 O   0  0  0  0  0  0  0  0  0  0  0  0
   57.6060   25.6790   46.8780 N   0  0  0  0  0  0  0  0  0  0  0  0
   56.3820   25.8750   46.3290 C   0  0  0  0  0  0  0  0  0  0  0  0
   55.5230   24.9550   46.3740 O   0  0  0  0  0  0  0  0  0  0  0  0
   56.0830   27.0590   45.7310 N   0  0  0  0  0  0  0  0  0  0  0  0
   55.1340   27.1890   45.3100 H   0  0  0  0  0  0  0  0  0  0  0  0
  1  2  1  0
  2  3  1  0
  3  4  1  0
  3  5  1  0
  3  6  1  0
  6  7  2  0
  7  8  1  0
  8  9  2  0
  9 10  1  0
 10 11  2  0
 11 12  1  0
 11 13  1  0
 13 14  1  0
 13 15  2  0
 15 16  1  0
 16 17  1  0
 16 18  1  0
 16 19  1  0
 15 20  1  0
 20 21  1  0
 20 22  2  0
 22 23  1  0
  8 24  1  0
 24 25  1  0
 24 26  1  0
 24 27  1  0
  7 28  1  0
 28 29  2  0
 28 30  1  0
 30 31  1  0
 31 32  2  0
 31 33  1  0
 33 34  1  0
 33  6  1  0
 22 10  1  0
M  CHG  1  30  -1
M  END
>  <UniqueID>  (47) 
44

>  <SMILES>  (47) 
C/C(=N/c1ccc(C)cc1)c1c(CO)[nH]c(=O)[n-]c1=O

>  <Energy>  (47) 
47.340306833394415

>  <Genealogy>  (47) 
CC(=Nc1ccc(C)cc1)c1c(CO)[nH]c(=O)[n-]c1=O (protonated)
C/C(=N/c1ccc(C)cc1)c1c(CO)[nH]c(=O)[n-]c1=O (cis-trans isomerization)
C/C(=N/c1ccc(C)cc1)c1c(CO)[nH]c(=O)[n-]c1=O (3D coordinates assigned)
C/C(=N/c1ccc(C)cc1)c1c(CO)[nH]c(=O)[n-]c1=O (optimized conformer: 47.340306833394415 kcal/mol)

>  <smiles>  (47) 
CC(=Nc1ccc(C)cc1)c1c(CO)[nH]c(=O)[nH]c1=O

>  <score_type>  (47) 
oracle

>  <origin>  (47) 
adg

>  <m_score__min__energy>  (47) 
-9.8800000000000008

>  <m_primary>  (47) 
energy

$$$$
47:0
     RDKit          3D

 36 38  0  0  0  0  0  0  0  0999 V2000
   57.7620   30.4160   50.5640 O   0  0  0  0  0  0  0  0  0  0  0  0
   58.7790   30.2580   49.8360 C   0  0  0  0  0  0  0  0  0  0  0  0
   59.4800   29.0100   49.8390 N   0  0  0  0  0  0  0  0  0  0  0  0
   60.1650   28.4670   48.6720 C   0  0  0  0  0  0  0  0  0  0  0  0
   59.1690   28.0440   47.6330 C   0  0  0  0  0  0  0  0  0  0  0  0
   58.8200   26.7160   47.4030 C   0  0  0  0  0  0  0  0  0  0  0  0
   57.7140   26.6740   46.1380 S   0  0  0  0  0  0  0  0  0  0  0  0
   57.6710   28.3350   45.8720 C   0  0  0  0  0  0  0  0  0  0  0  0
   56.8670   29.0120   44.8470 C   0  0  0  0  0  0  0  0  0  0  0  0
   57.4080   29.6740   43.8030 N   0  0  0  0  0  0  0  0  0  0  0  0
   56.3410   30.1310   43.1260 C   0  0  0  0  0  0  0  0  0  0  0  0
   55.1930   29.7380   43.7690 C   0  0  0  0  0  0  0  0  0  0  0  0
   55.5180   29.0280   44.8630 N   0  0  0  0  0  0  0  0  0  0  0  0
   58.5300   28.9520   46.7750 C   0  0  0  0  0  0  0  0  0  0  0  0
   59.2460   31.3230   49.0000 N   0  0  0  0  0  0  0  0  0  0  0  0
   58.5710   32.6170   48.9250 C   0  0  0  0  0  0  0  0  0  0  0  0
   58.5630   33.1200   47.5080 C   0  0  0  0  0  0  0  0  0  0  0  0
   57.7890   32.4660   46.5350 C   0  0  0  0  0  0  0  0  0  0  0  0
   57.7600   32.9430   45.2200 C   0  0  0  0  0  0  0  0  0  0  0  0
   58.4980   34.0760   44.8700 C   0  0  0  0  0  0  0  0  0  0  0  0
   59.2660   34.7370   45.8340 C   0  0  0  0  0  0  0  0  0  0  0  0
   59.2970   34.2640   47.1490 C   0  0  0  0  0  0  0  0  0  0  0  0
   60.8261   29.2373   48.2484 H   0  0  0  0  0  0  0  0  0  0  0  0
   60.7551   27.5910   48.9792 H   0  0  0  0  0  0  0  0  0  0  0  0
   59.2023   25.8442   47.9543 H   0  0  0  0  0  0  0  0  0  0  0  0
   56.3809   30.7264   42.2019 H   0  0  0  0  0  0  0  0  0  0  0  0
   54.1687   29.9680   43.4405 H   0  0  0  0  0  0  0  0  0  0  0  0
   58.6918   30.0394   46.8127 H   0  0  0  0  0  0  0  0  0  0  0  0
   60.1100   31.1740   48.4330 H   0  0  0  0  0  0  0  0  0  0  0  0
   57.5346   32.5066   49.2767 H   0  0  0  0  0  0  0  0  0  0  0  0
   59.1088   33.3384   49.5577 H   0  0  0  0  0  0  0  0  0  0  0  0
   57.2036   31.5756   46.8080 H   0  0  0  0  0  0  0  0  0  0  0  0
   57.1553   32.4251   44.4610 H   0  0  0  0  0  0  0  0  0  0  0  0
   58.4752   34.4487   43.8353 H   0  0  0  0  0  0  0  0  0  0  0  0
   59.8460   35.6297   45.5572 H   0  0  0  0  0  0  0  0  0  0  0  0
   59.8981   34.7890   47.9060 H   0  0  0  0  0  0  0  0  0  0  0  0
  1  2  2  0
  2  3  1  0
  3  4  1  0
  4  5  1  0
  5  6  2  0
  6  7  1  0
  7  8  1  0
  8  9  1  0
  9 10  2  0
 10 11  1  0
 11 12  2  0
 12 13  1  0
  8 14  2  0
  2 15  1  0
 15 16  1  0
 16 17  1  0
 17 18  2  0
 18 19  1  0
 19 20  2  0
 20 21  1  0
 21 22  2  0
 14  5  1  0
 22 17  1  0
 13  9  1  0
  4 23  1  0
  4 24  1  0
  6 25  1  0
 11 26  1  0
 12 27  1  0
 14 28  1  0
 15 29  1  0
 16 30  1  0
 16 31  1  0
 18 32  1  0
 19 33  1  0
 20 34  1  0
 21 35  1  0
 22 36  1  0
M  CHG  2   3  -1  13  -1
M  END
>  <UniqueID>  (48) 
45

>  <SMILES>  (48) 
O=C([N-]Cc1csc(-c2ncc[n-]2)c1)NCc1ccccc1

>  <Energy>  (48) 
84.59950649781501

>  <Genealogy>  (48) 
O=C([N-]Cc1csc(-c2ncc[n-]2)c1)NCc1ccccc1 (protonated)
O=C([N-]Cc1csc(-c2ncc[n-]2)c1)NCc1ccccc1 (3D coordinates assigned)
O=C([N-]Cc1csc(-c2ncc[n-]2)c1)NCc1ccccc1 (optimized conformer: 84.59950649781501 kcal/mol)

>  <smiles>  (48) 
O=C(NCc1ccccc1)NCc1csc(-c2ncc[nH]2)c1

>  <score_type>  (48) 
oracle

>  <origin>  (48) 
adg

>  <m_score__min__energy>  (48) 
-11.1

>  <m_primary>  (48) 
energy

$$$$
48:0
     RDKit          3D

 44 47  0  0  0  0  0  0  0  0999 V2000
   53.3280   22.6040   47.7320 C   0  0  0  0  0  0  0  0  0  0  0  0
   53.5010   22.5250   45.9620 S   0  0  0  0  0  0  0  0  0  0  0  0
   52.1500   22.3680   45.3230 O   0  0  0  0  0  0  0  0  0  0  0  0
   54.3420   21.3350   45.6000 O   0  0  0  0  0  0  0  0  0  0  0  0
   54.2770   23.9590   45.3660 N   0  0  0  0  0  0  0  0  0  0  0  0
   55.5630   24.4320   45.7880 C   0  0  0  0  0  0  0  0  0  0  0  0
   56.5870   23.4960   45.9730 C   0  0  0  0  0  0  0  0  0  0  0  0
   57.8630   23.9100   46.3570 C   0  0  0  0  0  0  0  0  0  0  0  0
   58.1310   25.2650   46.5530 C   0  0  0  0  0  0  0  0  0  0  0  0
   57.1230   26.2190   46.3690 C   0  0  0  0  0  0  0  0  0  0  0  0
   57.4380   27.6020   46.5800 N   0  0  0  0  0  0  0  0  0  0  0  0
   58.3250   28.3900   45.7730 C   0  0  0  0  0  0  0  0  0  0  0  0
   59.5540   28.1200   45.7780 O   0  0  0  0  0  0  0  0  0  0  0  0
   57.8180   29.4260   44.8540 C   0  0  0  0  0  0  0  0  0  0  0  0
   57.0610   29.0360   43.7300 C   0  0  0  0  0  0  0  0  0  0  0  0
   56.6440   29.9830   42.7800 C   0  0  0  0  0  0  0  0  0  0  0  0
   56.9810   31.3340   42.9310 C   0  0  0  0  0  0  0  0  0  0  0  0
   57.7140   31.7210   44.0520 C   0  0  0  0  0  0  0  0  0  0  0  0
   58.1110   30.7960   45.0060 C   0  0  0  0  0  0  0  0  0  0  0  0
   58.7650   31.5370   46.0870 C   0  0  0  0  0  0  0  0  0  0  0  0
   59.2170   31.1170   47.3440 C   0  0  0  0  0  0  0  0  0  0  0  0
   59.7580   32.0710   48.2180 C   0  0  0  0  0  0  0  0  0  0  0  0
   59.8200   33.4260   47.8440 C   0  0  0  0  0  0  0  0  0  0  0  0
   59.3270   33.8390   46.5990 C   0  0  0  0  0  0  0  0  0  0  0  0
   58.7940   32.8780   45.7370 C   0  0  0  0  0  0  0  0  0  0  0  0
   58.1460   33.1170   44.4050 C   0  0  2  0  0  0  0  0  0  0  0  0
   57.0500   33.9920   44.5060 O   0  0  0  0  0  0  0  0  0  0  0  0
   55.8180   25.7950   46.0470 C   0  0  0  0  0  0  0  0  0  0  0  0
   54.7740   26.7110   46.0550 O   0  0  0  0  0  0  0  0  0  0  0  0
   54.2304   22.1919   48.2074 H   0  0  0  0  0  0  0  0  0  0  0  0
   53.1965   23.6514   48.0412 H   0  0  0  0  0  0  0  0  0  0  0  0
   52.4503   22.0174   48.0412 H   0  0  0  0  0  0  0  0  0  0  0  0
   56.3845   22.4265   45.8146 H   0  0  0  0  0  0  0  0  0  0  0  0
   58.6596   23.1661   46.5055 H   0  0  0  0  0  0  0  0  0  0  0  0
   59.1394   25.5855   46.8536 H   0  0  0  0  0  0  0  0  0  0  0  0
   56.7938   27.9774   43.5955 H   0  0  0  0  0  0  0  0  0  0  0  0
   56.0492   29.6616   41.9123 H   0  0  0  0  0  0  0  0  0  0  0  0
   56.6731   32.0757   42.1793 H   0  0  0  0  0  0  0  0  0  0  0  0
   59.1491   30.0598   47.6400 H   0  0  0  0  0  0  0  0  0  0  0  0
   60.1363   31.7579   49.2023 H   0  0  0  0  0  0  0  0  0  0  0  0
   60.2574   34.1644   48.5320 H   0  0  0  0  0  0  0  0  0  0  0  0
   59.3591   34.8989   46.3064 H   0  0  0  0  0  0  0  0  0  0  0  0
   58.7987   33.5956   43.6600 H   0  0  0  0  0  0  0  0  0  0  0  0
   56.3680   33.5670   45.0900 H   0  0  0  0  0  0  0  0  0  0  0  0
  1  2  1  0
  2  3  2  0
  2  4  2  0
  2  5  1  0
  5  6  1  0
  6  7  2  0
  7  8  1  0
  8  9  2  0
  9 10  1  0
 10 11  1  0
 11 12  1  0
 12 13  2  0
 12 14  1  0
 14 15  2  0
 15 16  1  0
 16 17  2  0
 17 18  1  0
 18 19  2  0
 19 20  1  0
 20 21  2  0
 21 22  1  0
 22 23  2  0
 23 24  1  0
 24 25  2  0
 25 26  1  0
 26 27  1  0
 10 28  2  0
 28 29  1  0
 28  6  1  0
 19 14  1  0
 25 20  1  0
 26 18  1  0
  1 30  1  0
  1 31  1  0
  1 32  1  0
  7 33  1  0
  8 34  1  0
  9 35  1  0
 15 36  1  0
 16 37  1  0
 17 38  1  0
 21 39  1  0
 22 40  1  0
 23 41  1  0
 24 42  1  0
 26 43  1  6
 27 44  1  0
M  CHG  3   5  -1  11  -1  29  -1
M  END
>  <UniqueID>  (49) 
46

>  <SMILES>  (49) 
CS(=O)(=O)[N-]c1cccc([N-]C(=O)c2cccc3c2-c2ccccc2[C@@H]3O)c1[O-]

>  <Energy>  (49) 
85.27972739186674

>  <Genealogy>  (49) 
CS(=O)(=O)[N-]c1cccc([N-]C(=O)c2cccc3c2-c2ccccc2C3O)c1[O-] (protonated)
CS(=O)(=O)[N-]c1cccc([N-]C(=O)c2cccc3c2-c2ccccc2[C@@H]3O)c1[O-] (chirality)
CS(=O)(=O)[N-]c1cccc([N-]C(=O)c2cccc3c2-c2ccccc2[C@@H]3O)c1[O-] (3D coordinates assigned)
CS(=O)(=O)[N-]c1cccc([N-]C(=O)c2cccc3c2-c2ccccc2[C@@H]3O)c1[O-] (nonaromatic ring conformer: 85.27972739186674 kcal/mol)

>  <smiles>  (49) 
CS(=O)(=O)Nc1cccc(NC(=O)c2cccc3c2-c2ccccc2C3O)c1O

>  <score_type>  (49) 
oracle

>  <origin>  (49) 
adg

>  <m_score__min__energy>  (49) 
-16.640000000000001

>  <m_primary>  (49) 
energy

$$$$
49:0
     RDKit          3D

 34 36  0  0  0  0  0  0  0  0999 V2000
   57.7460   26.5060   44.5280 C   0  0  0  0  0  0  0  0  0  0  0  0
   56.6060   27.2590   45.6690 S   0  0  0  0  0  0  0  0  0  0  0  0
   57.3350   27.7130   46.9020 O   0  0  0  0  0  0  0  0  0  0  0  0
   55.5660   26.2470   46.0590 O   0  0  0  0  0  0  0  0  0  0  0  0
   55.8230   28.6120   44.9180 N   0  0  0  0  0  0  0  0  0  0  0  0
   56.4570   29.6820   44.5580 C   0  0  0  0  0  0  0  0  0  0  0  0
   57.1900   30.4600   45.3810 N   0  0  0  0  0  0  0  0  0  0  0  0
   57.7430   31.5170   44.7030 C   0  0  0  0  0  0  0  0  0  0  0  0
   58.5740   32.5260   45.4020 C   0  0  0  0  0  0  0  0  0  0  0  0
   58.3970   33.8830   45.0740 C   0  0  0  0  0  0  0  0  0  0  0  0
   59.2030   34.8680   45.6460 C   0  0  0  0  0  0  0  0  0  0  0  0
   60.1990   34.5140   46.5560 C   0  0  0  0  0  0  0  0  0  0  0  0
   60.3810   33.1770   46.9090 C   0  0  0  0  0  0  0  0  0  0  0  0
   59.5680   32.1720   46.3550 C   0  0  0  0  0  0  0  0  0  0  0  0
   59.7420   30.7850   46.8430 C   0  0  0  0  0  0  0  0  0  0  0  0
   60.2090   29.7800   45.9780 C   0  0  0  0  0  0  0  0  0  0  0  0
   60.3620   28.4690   46.4390 C   0  0  0  0  0  0  0  0  0  0  0  0
   60.0420   28.1490   47.7620 C   0  0  0  0  0  0  0  0  0  0  0  0
   60.1950   26.8460   48.2180 O   0  0  0  0  0  0  0  0  0  0  0  0
   59.5630   29.1400   48.6240 C   0  0  0  0  0  0  0  0  0  0  0  0
   59.4090   30.4530   48.1670 C   0  0  0  0  0  0  0  0  0  0  0  0
   57.4580   31.6130   43.3710 N   0  0  0  0  0  0  0  0  0  0  0  0
   56.4900   30.3070   43.0260 S   0  0  0  0  0  0  0  0  0  0  0  0
   58.5355   25.9845   45.0890 H   0  0  0  0  0  0  0  0  0  0  0  0
   57.2085   25.7847   43.8950 H   0  0  0  0  0  0  0  0  0  0  0  0
   58.1985   27.2835   43.8950 H   0  0  0  0  0  0  0  0  0  0  0  0
   57.6134   34.1708   44.3577 H   0  0  0  0  0  0  0  0  0  0  0  0
   59.0528   35.9245   45.3790 H   0  0  0  0  0  0  0  0  0  0  0  0
   60.8420   35.2905   46.9960 H   0  0  0  0  0  0  0  0  0  0  0  0
   61.1682   32.9059   47.6279 H   0  0  0  0  0  0  0  0  0  0  0  0
   60.4550   30.0261   44.9345 H   0  0  0  0  0  0  0  0  0  0  0  0
   60.7347   27.6881   45.7599 H   0  0  0  0  0  0  0  0  0  0  0  0
   59.3068   28.8867   49.6633 H   0  0  0  0  0  0  0  0  0  0  0  0
   59.0258   31.2284   48.8466 H   0  0  0  0  0  0  0  0  0  0  0  0
  1  2  1  0
  2  3  2  0
  2  4  2  0
  2  5  1  0
  5  6  2  3
  6  7  1  0
  7  8  1  0
  8  9  1  0
  9 10  2  0
 10 11  1  0
 11 12  2  0
 12 13  1  0
 13 14  2  0
 14 15  1  0
 15 16  2  0
 16 17  1  0
 17 18  2  0
 18 19  1  0
 18 20  1  0
 20 21  2  0
  8 22  2  0
 22 23  1  0
 23  6  1  0
 14  9  1  0
 21 15  1  0
  1 24  1  0
  1 25  1  0
  1 26  1  0
 10 27  1  0
 11 28  1  0
 12 29  1  0
 13 30  1  0
 16 31  1  0
 17 32  1  0
 20 33  1  0
 21 34  1  0
M  CHG  2   7  -1  19  -1
M  END
>  <UniqueID>  (50) 
47

>  <SMILES>  (50) 
CS(=O)(=O)N=c1[n-]c(-c2ccccc2-c2ccc([O-])cc2)ns1

>  <Energy>  (50) 
82.91806205490185

>  <Genealogy>  (50) 
CS(=O)(=O)N=c1[n-]c(-c2ccccc2-c2ccc([O-])cc2)ns1 (protonated)
CS(=O)(=O)N=c1[n-]c(-c2ccccc2-c2ccc([O-])cc2)ns1 (3D coordinates assigned)
CS(=O)(=O)N=c1[n-]c(-c2ccccc2-c2ccc([O-])cc2)ns1 (optimized conformer: 82.91806205490185 kcal/mol)

>  <smiles>  (50) 
CS(=O)(=O)N=c1[nH]c(-c2ccccc2-c2ccc(O)cc2)ns1

>  <score_type>  (50) 
oracle

>  <origin>  (50) 
adg

>  <m_score__min__energy>  (50) 
-11.880000000000001

>  <m_primary>  (50) 
energy

$$$$
50:0
     RDKit          3D

 32 33  0  0  0  0  0  0  0  0999 V2000
   56.8750   30.4400   42.9370 C   0  0  0  0  0  0  0  0  0  0  0  0
   57.7200   30.1640   44.1450 C   0  0  0  0  0  0  0  0  0  0  0  0
   58.5480   31.0450   44.5030 O   0  0  0  0  0  0  0  0  0  0  0  0
   57.5770   28.9050   44.9320 C   0  0  0  0  0  0  0  0  0  0  0  0
   58.7180   28.2250   45.3970 C   0  0  0  0  0  0  0  0  0  0  0  0
   58.5990   27.0410   46.1260 C   0  0  0  0  0  0  0  0  0  0  0  0
   57.3380   26.4980   46.4070 C   0  0  0  0  0  0  0  0  0  0  0  0
   57.2260   25.2020   47.1760 C   0  0  0  0  0  0  0  0  0  0  0  0
   56.3970   24.1890   46.4270 C   0  0  0  0  0  0  0  0  0  0  0  0
   55.1610   24.1360   46.6710 O   0  0  0  0  0  0  0  0  0  0  0  0
   56.9840   23.2480   45.4320 C   0  0  0  0  0  0  0  0  0  0  0  0
   58.3720   23.0110   45.3970 C   0  0  0  0  0  0  0  0  0  0  0  0
   58.9240   22.1400   44.4540 C   0  0  0  0  0  0  0  0  0  0  0  0
   58.1040   21.4930   43.5320 C   0  0  0  0  0  0  0  0  0  0  0  0
   56.7250   21.7140   43.5480 C   0  0  0  0  0  0  0  0  0  0  0  0
   55.9140   21.0630   42.6250 O   0  0  0  0  0  0  0  0  0  0  0  0
   56.1610   22.5840   44.4910 C   0  0  0  0  0  0  0  0  0  0  0  0
   54.7820   22.7700   44.4930 O   0  0  0  0  0  0  0  0  0  0  0  0
   56.1890   27.1780   45.9630 C   0  0  0  0  0  0  0  0  0  0  0  0
   54.9210   26.6810   46.2550 O   0  0  0  0  0  0  0  0  0  0  0  0
   56.3050   28.3670   45.2300 C   0  0  0  0  0  0  0  0  0  0  0  0
   55.1420   29.0130   44.8180 O   0  0  0  0  0  0  0  0  0  0  0  0
   55.8744   30.7668   43.2564 H   0  0  0  0  0  0  0  0  0  0  0  0
   57.3443   31.2316   42.3343 H   0  0  0  0  0  0  0  0  0  0  0  0
   56.7866   29.5240   42.3343 H   0  0  0  0  0  0  0  0  0  0  0  0
   59.7172   28.6323   45.1829 H   0  0  0  0  0  0  0  0  0  0  0  0
   59.5043   26.5287   46.4837 H   0  0  0  0  0  0  0  0  0  0  0  0
   58.2342   24.7920   47.3356 H   0  0  0  0  0  0  0  0  0  0  0  0
   56.7334   25.4106   48.1372 H   0  0  0  0  0  0  0  0  0  0  0  0
   59.0287   23.5171   46.1199 H   0  0  0  0  0  0  0  0  0  0  0  0
   60.0098   21.9645   44.4396 H   0  0  0  0  0  0  0  0  0  0  0  0
   58.5427   20.8081   42.7914 H   0  0  0  0  0  0  0  0  0  0  0  0
  1  2  1  0
  2  3  2  0
  2  4  1  0
  4  5  2  0
  5  6  1  0
  6  7  2  0
  7  8  1  0
  8  9  1  0
  9 10  2  0
  9 11  1  0
 11 12  2  0
 12 13  1  0
 13 14  2  0
 14 15  1  0
 15 16  1  0
 15 17  2  0
 17 18  1  0
  7 19  1  0
 19 20  1  0
 19 21  2  0
 21 22  1  0
 21  4  1  0
 17 11  1  0
  1 23  1  0
  1 24  1  0
  1 25  1  0
  5 26  1  0
  6 27  1  0
  8 28  1  0
  8 29  1  0
 12 30  1  0
 13 31  1  0
 14 32  1  0
M  CHG  4  16  -1  18  -1  20  -1  22  -1
M  END
>  <UniqueID>  (51) 
48

>  <SMILES>  (51) 
CC(=O)c1ccc(CC(=O)c2cccc([O-])c2[O-])c([O-])c1[O-]

>  <Energy>  (51) 
40.02017974266236

>  <Genealogy>  (51) 
CC(=O)c1ccc(CC(=O)c2cccc([O-])c2[O-])c([O-])c1[O-] (protonated)
CC(=O)c1ccc(CC(=O)c2cccc([O-])c2[O-])c([O-])c1[O-] (3D coordinates assigned)
CC(=O)c1ccc(CC(=O)c2cccc([O-])c2[O-])c([O-])c1[O-] (optimized conformer: 40.02017974266236 kcal/mol)

>  <smiles>  (51) 
CC(=O)c1ccc(CC(=O)c2cccc(O)c2O)c(O)c1O

>  <score_type>  (51) 
oracle

>  <origin>  (51) 
adg

>  <m_score__min__energy>  (51) 
-17.84

>  <m_primary>  (51) 
energy

$$$$
51:0
     RDKit          3D

 49 52  0  0  0  0  0  0  0  0999 V2000
   63.4030   33.2960   50.8600 C   0  0  0  0  0  0  0  0  0  0  0  0
   62.9780   33.3640   49.4230 C   0  0  0  0  0  0  0  0  0  0  0  0
   63.7440   32.7330   48.4310 C   0  0  0  0  0  0  0  0  0  0  0  0
   63.3690   32.8290   47.0890 C   0  0  0  0  0  0  0  0  0  0  0  0
   62.2310   33.5530   46.7290 C   0  0  0  0  0  0  0  0  0  0  0  0
   61.4660   34.2060   47.7020 C   0  0  0  0  0  0  0  0  0  0  0  0
   60.3430   34.9350   47.2760 O   0  0  0  0  0  0  0  0  0  0  0  0
   59.1310   34.3800   46.7670 C   0  0  0  0  0  0  0  0  0  0  0  0
   59.3970   33.3580   45.6520 C   0  0  0  0  0  0  0  0  0  0  0  0
   58.2680   32.3290   45.5000 C   0  0  0  0  0  0  0  0  0  0  0  0
   58.6050   31.0650   46.1620 N   0  0  0  0  0  0  0  0  0  0  0  0
   58.4710   29.8370   45.6090 C   0  0  0  0  0  0  0  0  0  0  0  0
   58.9100   28.8560   46.4910 C   0  0  0  0  0  0  0  0  0  0  0  0
   58.9640   27.4100   46.1990 C   0  0  0  0  0  0  0  0  0  0  0  0
   60.0670   26.9050   45.8600 O   0  0  0  0  0  0  0  0  0  0  0  0
   57.7650   26.5500   46.2420 C   0  0  0  0  0  0  0  0  0  0  0  0
   57.6520   25.2800   46.7880 C   0  0  0  0  0  0  0  0  0  0  0  0
   56.4080   24.8570   46.6890 O   0  0  0  0  0  0  0  0  0  0  0  0
   55.6970   25.7970   46.1120 C   0  0  0  0  0  0  0  0  0  0  0  0
   54.3370   25.6960   45.8490 O   0  0  0  0  0  0  0  0  0  0  0  0
   56.4930   26.8790   45.8190 C   0  0  0  0  0  0  0  0  0  0  0  0
   56.0970   28.0680   45.2150 O   0  0  0  0  0  0  0  0  0  0  0  0
   59.3490   29.5330   47.6170 C   0  0  0  0  0  0  0  0  0  0  0  0
   59.9740   29.0820   48.7830 C   0  0  0  0  0  0  0  0  0  0  0  0
   60.3300   30.0340   49.7540 C   0  0  0  0  0  0  0  0  0  0  0  0
   60.0790   31.4040   49.5370 C   0  0  0  0  0  0  0  0  0  0  0  0
   59.4860   31.8390   48.3390 C   0  0  0  0  0  0  0  0  0  0  0  0
   59.1370   30.8740   47.3880 C   0  0  0  0  0  0  0  0  0  0  0  0
   61.8520   34.1170   49.0530 C   0  0  0  0  0  0  0  0  0  0  0  0
   62.5259   33.4363   51.5088 H   0  0  0  0  0  0  0  0  0  0  0  0
   63.8555   32.3140   51.0625 H   0  0  0  0  0  0  0  0  0  0  0  0
   64.1393   34.0878   51.0625 H   0  0  0  0  0  0  0  0  0  0  0  0
   64.6414   32.1617   48.7108 H   0  0  0  0  0  0  0  0  0  0  0  0
   63.9717   32.3330   46.3140 H   0  0  0  0  0  0  0  0  0  0  0  0
   61.9331   33.6107   45.6717 H   0  0  0  0  0  0  0  0  0  0  0  0
   58.5956   33.8804   47.5879 H   0  0  0  0  0  0  0  0  0  0  0  0
   58.5303   35.1990   46.3445 H   0  0  0  0  0  0  0  0  0  0  0  0
   59.5092   33.8985   44.7005 H   0  0  0  0  0  0  0  0  0  0  0  0
   60.3103   32.8072   45.9214 H   0  0  0  0  0  0  0  0  0  0  0  0
   57.3502   32.7353   45.9500 H   0  0  0  0  0  0  0  0  0  0  0  0
   58.1218   32.1306   44.4280 H   0  0  0  0  0  0  0  0  0  0  0  0
   58.0709   29.6424   44.6030 H   0  0  0  0  0  0  0  0  0  0  0  0
   58.4787   24.7101   47.2373 H   0  0  0  0  0  0  0  0  0  0  0  0
   55.1490   28.1930   44.8830 H   0  0  0  0  0  0  0  0  0  0  0  0
   60.1814   28.0127   48.9364 H   0  0  0  0  0  0  0  0  0  0  0  0
   60.8077   29.7077   50.6896 H   0  0  0  0  0  0  0  0  0  0  0  0
   60.3491   32.1379   50.3106 H   0  0  0  0  0  0  0  0  0  0  0  0
   59.3016   32.9076   48.1545 H   0  0  0  0  0  0  0  0  0  0  0  0
   61.2677   34.6408   49.8238 H   0  0  0  0  0  0  0  0  0  0  0  0
  1  2  1  0
  2  3  2  0
  3  4  1  0
  4  5  2  0
  5  6  1  0
  6  7  1  0
  7  8  1  0
  8  9  1  0
  9 10  1  0
 10 11  1  0
 11 12  1  0
 12 13  2  0
 13 14  1  0
 14 15  2  0
 14 16  1  0
 16 17  2  0
 17 18  1  0
 18 19  1  0
 19 20  1  0
 19 21  2  0
 21 22  1  0
 13 23  1  0
 23 24  2  0
 24 25  1  0
 25 26  2  0
 26 27  1  0
 27 28  2  0
  6 29  2  0
 29  2  1  0
 28 11  1  0
 21 16  1  0
 28 23  1  0
  1 30  1  0
  1 31  1  0
  1 32  1  0
  3 33  1  0
  4 34  1  0
  5 35  1  0
  8 36  1  0
  8 37  1  0
  9 38  1  0
  9 39  1  0
 10 40  1  0
 10 41  1  0
 12 42  1  0
 17 43  1  0
 22 44  1  0
 24 45  1  0
 25 46  1  0
 26 47  1  0
 27 48  1  0
 29 49  1  0
M  CHG  1  20  -1
M  END
>  <UniqueID>  (52) 
49

>  <SMILES>  (52) 
Cc1cccc(OCCCn2cc(C(=O)c3coc([O-])c3O)c3ccccc32)c1

>  <Energy>  (52) 
112.2782261352432

>  <Genealogy>  (52) 
Cc1cccc(OCCCn2cc(C(=O)c3coc([O-])c3O)c3ccccc32)c1 (protonated)
Cc1cccc(OCCCn2cc(C(=O)c3coc([O-])c3O)c3ccccc32)c1 (3D coordinates assigned)
Cc1cccc(OCCCn2cc(C(=O)c3coc([O-])c3O)c3ccccc32)c1 (optimized conformer: 112.2782261352432 kcal/mol)

>  <smiles>  (52) 
Cc1cccc(OCCCn2cc(C(=O)c3coc(O)c3O)c3ccccc32)c1

>  <score_type>  (52) 
oracle

>  <origin>  (52) 
adg

>  <m_score__min__energy>  (52) 
-11.24

>  <m_primary>  (52) 
energy

$$$$
52:0
     RDKit          3D

 71 74  0  0  0  0  0  0  0  0999 V2000
   57.0250   32.0340   44.4090 H   0  0  0  0  0  0  0  0  0  0  0  0
   57.3750   31.2110   44.8790 O   0  0  0  0  0  0  0  0  0  0  0  0
   57.9550   31.2330   46.1470 C   0  0  0  0  0  0  0  0  0  0  0  0
   58.2270   32.4620   46.7950 C   0  0  0  0  0  0  0  0  0  0  0  0
   57.8530   33.7570   46.1980 C   0  0  0  0  0  0  0  0  0  0  0  0
   56.7730   33.8530   45.5570 O   0  0  0  0  0  0  0  0  0  0  0  0
   58.6800   34.9190   46.3450 N   0  0  0  0  0  0  0  0  0  0  0  0
   59.9660   34.9660   47.0400 C   0  0  0  0  0  0  0  0  0  0  0  0
   60.3575   35.9930   46.9950 H   0  0  0  0  0  0  0  0  0  0  0  0
   59.8035   34.6496   48.0809 H   0  0  0  0  0  0  0  0  0  0  0  0
   60.9910   34.0160   46.4080 C   0  0  0  0  0  0  0  0  0  0  0  0
   60.4603   33.1522   45.9811 H   0  0  0  0  0  0  0  0  0  0  0  0
   61.5357   34.5692   45.6287 H   0  0  0  0  0  0  0  0  0  0  0  0
   61.9930   33.5220   47.4200 C   0  0  0  0  0  0  0  0  0  0  0  0
   62.1670   34.2060   48.6350 C   0  0  0  0  0  0  0  0  0  0  0  0
   61.5640   35.0999   48.8528 H   0  0  0  0  0  0  0  0  0  0  0  0
   63.1050   33.7530   49.5680 C   0  0  0  0  0  0  0  0  0  0  0  0
   63.2300   34.2839   50.5233 H   0  0  0  0  0  0  0  0  0  0  0  0
   63.8850   32.6250   49.2880 C   0  0  0  0  0  0  0  0  0  0  0  0
   64.6210   32.2690   50.0239 H   0  0  0  0  0  0  0  0  0  0  0  0
   63.7290   31.9510   48.0740 C   0  0  0  0  0  0  0  0  0  0  0  0
   64.3472   31.0688   47.8514 H   0  0  0  0  0  0  0  0  0  0  0  0
   62.7870   32.3980   47.1420 C   0  0  0  0  0  0  0  0  0  0  0  0
   62.6676   31.8663   46.1864 H   0  0  0  0  0  0  0  0  0  0  0  0
   58.8600   32.4750   47.9630 O   0  0  0  0  0  0  0  0  0  0  0  0
   59.2670   31.3760   48.5820 C   0  0  0  0  0  0  0  0  0  0  0  0
   59.9900   31.5020   49.8990 C   0  0  0  0  0  0  0  0  0  0  0  0
   59.4057   30.9733   50.6665 H   0  0  0  0  0  0  0  0  0  0  0  0
   60.1030   32.8520   50.2780 O   0  0  0  0  0  0  0  0  0  0  0  0
   59.7800   33.3920   49.5080 H   0  0  0  0  0  0  0  0  0  0  0  0
   61.2630   30.9170   49.8110 O   0  0  0  0  0  0  0  0  0  0  0  0
   61.1350   29.9550   49.5950 H   0  0  0  0  0  0  0  0  0  0  0  0
   59.0220   30.1230   48.0110 C   0  0  0  0  0  0  0  0  0  0  0  0
   59.3596   29.2092   48.5219 H   0  0  0  0  0  0  0  0  0  0  0  0
   58.3480   30.0340   46.7910 C   0  0  0  0  0  0  0  0  0  0  0  0
   58.1780   28.8380   46.2920 N   0  0  0  0  0  0  0  0  0  0  0  0
   58.5820   28.2930   45.0280 C   0  0  0  0  0  0  0  0  0  0  0  0
   59.7150   28.5620   44.5440 O   0  0  0  0  0  0  0  0  0  0  0  0
   57.5840   27.5670   44.1850 C   0  0  0  0  0  0  0  0  0  0  0  0
   57.9756   27.4649   43.1622 H   0  0  0  0  0  0  0  0  0  0  0  0
   56.6425   28.1355   44.1669 H   0  0  0  0  0  0  0  0  0  0  0  0
   57.3410   26.2720   44.7300 O   0  0  0  0  0  0  0  0  0  0  0  0
   56.6260   26.0660   45.9130 C   0  0  0  0  0  0  0  0  0  0  0  0
   55.4240   26.4370   46.0120 O   0  0  0  0  0  0  0  0  0  0  0  0
   57.3120   25.4330   47.0820 C   0  0  0  0  0  0  0  0  0  0  0  0
   57.3354   24.3426   46.9392 H   0  0  0  0  0  0  0  0  0  0  0  0
   56.7567   25.6878   47.9968 H   0  0  0  0  0  0  0  0  0  0  0  0
   58.7150   25.9410   47.2150 C   0  0  0  0  0  0  0  0  0  0  0  0
   59.0810   26.7660   48.2330 N   0  0  0  0  0  0  0  0  0  0  0  0
   60.3900   27.0920   48.1550 C   0  0  0  0  0  0  0  0  0  0  0  0
   61.0000   27.8650   49.0030 N   0  0  0  0  0  0  0  0  0  0  0  0
   60.8000   27.8570   50.4240 C   0  0  0  0  0  0  0  0  0  0  0  0
   60.0030   28.6970   50.9240 O   0  0  0  0  0  0  0  0  0  0  0  0
   61.4480   26.8550   51.3080 C   0  0  0  0  0  0  0  0  0  0  0  0
   62.6670   27.1410   51.9500 C   0  0  0  0  0  0  0  0  0  0  0  0
   63.1386   28.1252   51.8125 H   0  0  0  0  0  0  0  0  0  0  0  0
   63.2830   26.1840   52.7610 C   0  0  0  0  0  0  0  0  0  0  0  0
   64.2256   26.4277   53.2729 H   0  0  0  0  0  0  0  0  0  0  0  0
   62.7100   24.9180   52.9270 C   0  0  0  0  0  0  0  0  0  0  0  0
   63.3800   23.9830   53.7320 O   0  0  0  0  0  0  0  0  0  0  0  0
   64.0570   24.3090   54.9420 C   0  0  0  0  0  0  0  0  0  0  0  0
   63.4375   24.0107   55.8006 H   0  0  0  0  0  0  0  0  0  0  0  0
   65.0178   23.7748   54.9799 H   0  0  0  0  0  0  0  0  0  0  0  0
   64.2385   25.3933   54.9799 H   0  0  0  0  0  0  0  0  0  0  0  0
   61.4950   24.6240   52.2780 C   0  0  0  0  0  0  0  0  0  0  0  0
   61.0336   23.6334   52.4037 H   0  0  0  0  0  0  0  0  0  0  0  0
   60.8720   25.5840   51.4750 C   0  0  0  0  0  0  0  0  0  0  0  0
   59.9247   25.3429   50.9705 H   0  0  0  0  0  0  0  0  0  0  0  0
   61.1480   26.3580   46.8500 S   0  0  0  0  0  0  0  0  0  0  0  0
   59.7390   25.5970   46.3330 C   0  0  0  0  0  0  0  0  0  0  0  0
   59.6426   24.9431   45.4538 H   0  0  0  0  0  0  0  0  0  0  0  0
  1  2  1  0
  2  3  1  0
  3  4  2  0
  4  5  1  0
  5  6  2  0
  5  7  1  0
  7  8  1  0
  8  9  1  0
  8 10  1  0
  8 11  1  0
 11 12  1  0
 11 13  1  0
 11 14  1  0
 14 15  2  0
 15 16  1  0
 15 17  1  0
 17 18  1  0
 17 19  2  0
 19 20  1  0
 19 21  1  0
 21 22  1  0
 21 23  2  0
 23 24  1  0
  4 25  1  0
 25 26  1  0
 26 27  1  0
 27 28  1  0
 27 29  1  0
 29 30  1  0
 27 31  1  0
 31 32  1  0
 26 33  2  0
 33 34  1  0
 33 35  1  0
 35 36  2  0
 36 37  1  0
 37 38  2  0
 37 39  1  0
 39 40  1  0
 39 41  1  0
 39 42  1  0
 42 43  1  0
 43 44  2  0
 43 45  1  0
 45 46  1  0
 45 47  1  0
 45 48  1  0
 48 49  1  0
 49 50  1  0
 50 51  2  3
 51 52  1  0
 52 53  2  0
 52 54  1  0
 54 55  2  0
 55 56  1  0
 55 57  1  0
 57 58  1  0
 57 59  2  0
 59 60  1  0
 60 61  1  0
 61 62  1  0
 61 63  1  0
 61 64  1  0
 59 65  1  0
 65 66  1  0
 65 67  2  0
 67 68  1  0
 50 69  1  0
 69 70  1  0
 70 71  1  0
 35  3  1  0
 70 48  2  0
 23 14  1  0
 67 54  1  0
M  CHG  2   7  -1  49  -1
M  END
>  <UniqueID>  (53) 
50

>  <SMILES>  (53) 
COc1ccc(C(=O)N=c2[n-]c(CC(=O)OCC(=O)/N=c3/cc(C(O)O)oc(C(=O)[N-]CCc4ccccc4)c3O)cs2)cc1

>  <Energy>  (53) 
115.93353411226329

>  <Genealogy>  (53) 
COc1ccc(C(=O)N=c2[n-]c(CC(=O)OCC(=O)N=c3cc(C(O)O)oc(C(=O)[N-]CCc4ccccc4)c3O)cs2)cc1 (protonated)
COc1ccc(C(=O)N=c2[n-]c(CC(=O)OCC(=O)/N=c3/cc(C(O)O)oc(C(=O)[N-]CCc4ccccc4)c3O)cs2)cc1 (cis-trans isomerization)
COc1ccc(C(=O)N=c2[n-]c(CC(=O)OCC(=O)/N=c3/cc(C(O)O)oc(C(=O)[N-]CCc4ccccc4)c3O)cs2)cc1 (3D coordinates assigned)
COc1ccc(C(=O)N=c2[n-]c(CC(=O)OCC(=O)/N=c3/cc(C(O)O)oc(C(=O)[N-]CCc4ccccc4)c3O)cs2)cc1 (optimized conformer: 115.93353411226329 kcal/mol)

>  <smiles>  (53) 
COc1ccc(C(=O)N=c2[nH]c(CC(=O)OCC(=O)N=c3cc(C(O)O)oc(C(=O)NCCc4ccccc4)c3O)cs2)cc1

>  <score_type>  (53) 
oracle

>  <origin>  (53) 
adg

>  <m_score__min__energy>  (53) 
-12.31

>  <m_primary>  (53) 
energy

$$$$
53:0
     RDKit          3D

 37 39  0  0  0  0  0  0  0  0999 V2000
   57.3810   32.4910   41.6920 C   0  0  0  0  0  0  0  0  0  0  0  0
   57.7210   31.6110   42.8460 C   0  0  0  0  0  0  0  0  0  0  0  0
   58.4100   32.0340   43.9280 N   0  0  0  0  0  0  0  0  0  0  0  0
   58.5300   31.0650   44.8770 C   0  0  0  0  0  0  0  0  0  0  0  0
   59.2100   31.3480   46.1610 C   0  0  0  0  0  0  0  0  0  0  0  0
   60.4930   30.8440   46.4350 C   0  0  0  0  0  0  0  0  0  0  0  0
   61.1000   31.1320   47.6580 C   0  0  0  0  0  0  0  0  0  0  0  0
   60.4480   31.8840   48.5840 N   0  0  0  0  0  0  0  0  0  0  0  0
   59.2000   32.3710   48.3560 C   0  0  0  0  0  0  0  0  0  0  0  0
   58.6270   33.0610   49.2380 O   0  0  0  0  0  0  0  0  0  0  0  0
   58.5560   32.1060   47.1430 C   0  0  0  0  0  0  0  0  0  0  0  0
   57.9200   29.8440   44.5370 C   0  0  0  0  0  0  0  0  0  0  0  0
   57.9310   28.5780   45.2970 C   0  0  0  0  0  0  0  0  0  0  0  0
   59.1610   28.0380   45.6980 C   0  0  0  0  0  0  0  0  0  0  0  0
   59.2050   26.8240   46.3840 C   0  0  0  0  0  0  0  0  0  0  0  0
   58.0230   26.1530   46.6960 C   0  0  0  0  0  0  0  0  0  0  0  0
   56.7790   26.6960   46.3510 C   0  0  0  0  0  0  0  0  0  0  0  0
   55.6060   25.9550   46.7230 N   0  0  0  0  0  0  0  0  0  0  0  0
   54.9870   24.5200   45.9700 S   0  0  0  0  0  0  0  0  0  0  0  0
   55.9560   24.1030   44.5330 C   0  0  0  0  0  0  0  0  0  0  0  0
   53.5800   24.7890   45.5180 O   0  0  0  0  0  0  0  0  0  0  0  0
   54.9700   23.3800   46.9490 O   0  0  0  0  0  0  0  0  0  0  0  0
   56.7340   27.9130   45.6320 C   0  0  0  0  0  0  0  0  0  0  0  0
   55.5190   28.4610   45.2380 O   0  0  0  0  0  0  0  0  0  0  0  0
   57.2000   30.0250   43.0250 S   0  0  0  0  0  0  0  0  0  0  0  0
   57.0080   33.4564   42.0645 H   0  0  0  0  0  0  0  0  0  0  0  0
   58.2798   32.6567   41.0799 H   0  0  0  0  0  0  0  0  0  0  0  0
   56.6043   32.0093   41.0799 H   0  0  0  0  0  0  0  0  0  0  0  0
   61.0155   30.2262   45.6898 H   0  0  0  0  0  0  0  0  0  0  0  0
   62.1086   30.7496   47.8734 H   0  0  0  0  0  0  0  0  0  0  0  0
   57.5416   32.4902   46.9602 H   0  0  0  0  0  0  0  0  0  0  0  0
   60.0947   28.5734   45.4710 H   0  0  0  0  0  0  0  0  0  0  0  0
   60.1740   26.3952   46.6794 H   0  0  0  0  0  0  0  0  0  0  0  0
   58.0682   25.1863   47.2190 H   0  0  0  0  0  0  0  0  0  0  0  0
   56.9232   23.6868   44.8512 H   0  0  0  0  0  0  0  0  0  0  0  0
   55.4163   23.3575   43.9306 H   0  0  0  0  0  0  0  0  0  0  0  0
   56.1264   25.0075   43.9306 H   0  0  0  0  0  0  0  0  0  0  0  0
  1  2  1  0
  2  3  2  0
  3  4  1  0
  4  5  1  0
  5  6  1  0
  6  7  2  0
  7  8  1  0
  8  9  1  0
  9 10  2  0
  9 11  1  0
  4 12  2  0
 12 13  1  0
 13 14  2  0
 14 15  1  0
 15 16  2  0
 16 17  1  0
 17 18  1  0
 18 19  1  0
 19 20  1  0
 19 21  2  0
 19 22  2  0
 17 23  2  0
 23 24  1  0
 12 25  1  0
 25  2  1  0
 11  5  2  0
 23 13  1  0
  1 26  1  0
  1 27  1  0
  1 28  1  0
  6 29  1  0
  7 30  1  0
 11 31  1  0
 14 32  1  0
 15 33  1  0
 16 34  1  0
 20 35  1  0
 20 36  1  0
 20 37  1  0
M  CHG  3   8  -1  18  -1  24  -1
M  END
>  <UniqueID>  (54) 
51

>  <SMILES>  (54) 
Cc1nc(-c2cc[n-]c(=O)c2)c(-c2cccc([N-]S(C)(=O)=O)c2[O-])s1

>  <Energy>  (54) 
81.52055625216613

>  <Genealogy>  (54) 
Cc1nc(-c2cc[n-]c(=O)c2)c(-c2cccc([N-]S(C)(=O)=O)c2[O-])s1 (protonated)
Cc1nc(-c2cc[n-]c(=O)c2)c(-c2cccc([N-]S(C)(=O)=O)c2[O-])s1 (3D coordinates assigned)
Cc1nc(-c2cc[n-]c(=O)c2)c(-c2cccc([N-]S(C)(=O)=O)c2[O-])s1 (optimized conformer: 81.52055625216613 kcal/mol)

>  <smiles>  (54) 
Cc1nc(-c2cc[nH]c(=O)c2)c(-c2cccc(NS(C)(=O)=O)c2O)s1

>  <score_type>  (54) 
oracle

>  <origin>  (54) 
adg

>  <m_score__min__energy>  (54) 
-14.65

>  <m_primary>  (54) 
energy

$$$$
54:0
     RDKit          3D

 67 71  0  0  1  0  0  0  0  0999 V2000
   55.7210   29.7220   43.4440 C   0  0  0  0  0  0  0  0  0  0  0  0
   55.9050   29.2850   44.7640 O   0  0  0  0  0  0  0  0  0  0  0  0
   57.1130   29.3570   45.4430 C   0  0  0  0  0  0  0  0  0  0  0  0
   57.6170   28.3010   46.1850 C   0  0  0  0  0  0  0  0  0  0  0  0
   58.8370   28.4350   46.8470 C   0  0  0  0  0  0  0  0  0  0  0  0
   59.5410   29.6180   46.7620 C   0  0  0  0  0  0  0  0  0  0  0  0
   60.7930   29.8250   47.4110 N   0  0  0  0  0  0  0  0  0  0  0  0
   61.1780   30.9470   47.8780 C   0  0  0  0  0  0  0  0  0  0  0  0
   62.0520   31.7050   47.1240 C   0  0  0  0  0  0  0  0  0  0  0  0
   62.4640   32.9190   47.6390 C   0  0  0  0  0  0  0  0  0  0  0  0
   63.4020   33.8260   46.9260 C   0  0  0  0  0  0  0  0  0  0  0  0
   61.9960   33.3040   48.8420 N   0  0  0  0  0  0  0  0  0  0  0  0
   61.1430   32.5500   49.5600 C   0  0  0  0  0  0  0  0  0  0  0  0
   60.6790   32.8900   50.7100 N   0  0  0  0  0  0  0  0  0  0  0  0
   59.6430   32.1210   51.3040 C   0  0  0  0  0  0  0  0  0  0  0  0
   58.3930   32.7350   51.4450 C   0  0  0  0  0  0  0  0  0  0  0  0
   57.3180   32.0810   52.0060 C   0  0  0  0  0  0  0  0  0  0  0  0
   57.5040   30.7910   52.4340 C   0  0  0  0  0  0  0  0  0  0  0  0
   58.7430   30.1890   52.2920 C   0  0  0  0  0  0  0  0  0  0  0  0
   59.8310   30.8160   51.7350 C   0  0  0  0  0  0  0  0  0  0  0  0
   61.0760   30.2420   51.5830 O   0  0  0  0  0  0  0  0  0  0  0  0
   61.2570   28.8870   51.5410 C   0  0  0  0  0  0  0  0  0  0  0  0
   62.1160   28.2510   52.4420 C   0  0  0  0  0  0  0  0  0  0  0  0
   62.2860   26.8640   52.3830 C   0  0  0  0  0  0  0  0  0  0  0  0
   61.6210   26.1000   51.4470 C   0  0  0  0  0  0  0  0  0  0  0  0
   60.7720   26.7220   50.5540 C   0  0  0  0  0  0  0  0  0  0  0  0
   60.5980   28.0980   50.6080 C   0  0  0  0  0  0  0  0  0  0  0  0
   59.7190   28.6340   49.6660 O   0  0  0  0  0  0  0  0  0  0  0  0
   60.7250   31.3530   49.0740 N   0  0  0  0  0  0  0  0  0  0  0  0
   59.0130   30.6680   46.0100 C   0  0  0  0  0  0  0  0  0  0  0  0
   57.8050   30.5500   45.3490 C   0  0  0  0  0  0  0  0  0  0  0  0
   57.3070   31.6360   44.5990 O   0  0  0  0  0  0  0  0  0  0  0  0
   56.7980   32.7280   45.3310 C   0  0  0  0  0  0  0  0  0  0  0  0
   57.8670   33.6580   45.7720 C   0  0  0  0  0  0  0  0  0  0  0  0
   58.5930   34.4520   44.9260 C   0  0  0  0  0  0  0  0  0  0  0  0
   59.5820   35.3050   45.3670 C   0  0  0  0  0  0  0  0  0  0  0  0
   59.8320   35.3460   46.7240 C   0  0  0  0  0  0  0  0  0  0  0  0
   59.1210   34.5650   47.5910 C   0  0  0  0  0  0  0  0  0  0  0  0
   59.3380   34.5760   48.9400 F   0  0  0  0  0  0  0  0  0  0  0  0
   58.1330   33.7110   47.1420 C   0  0  0  0  0  0  0  0  0  0  0  0
   55.2941   30.7358   43.4495 H   0  0  0  0  0  0  0  0  0  0  0  0
   56.6900   29.7350   42.9236 H   0  0  0  0  0  0  0  0  0  0  0  0
   55.0345   29.0379   42.9236 H   0  0  0  0  0  0  0  0  0  0  0  0
   57.0552   27.3576   46.2518 H   0  0  0  0  0  0  0  0  0  0  0  0
   59.2378   27.5975   47.4368 H   0  0  0  0  0  0  0  0  0  0  0  0
   62.4088   31.3535   46.1446 H   0  0  0  0  0  0  0  0  0  0  0  0
   63.9908   34.3954   47.6603 H   0  0  0  0  0  0  0  0  0  0  0  0
   64.0789   33.2312   46.2951 H   0  0  0  0  0  0  0  0  0  0  0  0
   62.8302   34.5225   46.2951 H   0  0  0  0  0  0  0  0  0  0  0  0
   62.3000   34.2200   49.2390 H   0  0  0  0  0  0  0  0  0  0  0  0
   58.2652   33.7708   51.0974 H   0  0  0  0  0  0  0  0  0  0  0  0
   56.3416   32.5774   52.1075 H   0  0  0  0  0  0  0  0  0  0  0  0
   56.6705   30.2358   52.8891 H   0  0  0  0  0  0  0  0  0  0  0  0
   58.8623   29.1537   52.6439 H   0  0  0  0  0  0  0  0  0  0  0  0
   62.6575   28.8406   53.1964 H   0  0  0  0  0  0  0  0  0  0  0  0
   62.9634   26.3729   53.0971 H   0  0  0  0  0  0  0  0  0  0  0  0
   61.7652   25.0100   51.4126 H   0  0  0  0  0  0  0  0  0  0  0  0
   60.2340   26.1280   49.8005 H   0  0  0  0  0  0  0  0  0  0  0  0
   59.9720   29.3000   48.9740 H   0  0  0  0  0  0  0  0  0  0  0  0
   60.0640   30.7640   49.6280 H   0  0  0  0  0  0  0  0  0  0  0  0
   59.5719   31.6129   45.9416 H   0  0  0  0  0  0  0  0  0  0  0  0
   56.0890   33.2796   44.6962 H   0  0  0  0  0  0  0  0  0  0  0  0
   56.3061   32.3299   46.2308 H   0  0  0  0  0  0  0  0  0  0  0  0
   58.3781   34.4076   43.8481 H   0  0  0  0  0  0  0  0  0  0  0  0
   60.1512   35.9302   44.6633 H   0  0  0  0  0  0  0  0  0  0  0  0
   60.6134   36.0158   47.1123 H   0  0  0  0  0  0  0  0  0  0  0  0
   57.5675   33.0857   47.8485 H   0  0  0  0  0  0  0  0  0  0  0  0
  1  2  1  0
  2  3  1  0
  3  4  2  0
  4  5  1  0
  5  6  2  0
  6  7  1  0
  7  8  2  0
  8  9  1  0
  9 10  2  0
 10 11  1  0
 10 12  1  0
 12 13  1  0
 13 14  2  0
 14 15  1  0
 15 16  2  0
 16 17  1  0
 17 18  2  0
 18 19  1  0
 19 20  2  0
 20 21  1  0
 21 22  1  0
 22 23  2  0
 23 24  1  0
 24 25  2  0
 25 26  1  0
 26 27  2  0
 27 28  1  0
 13 29  1  0
  6 30  1  0
 30 31  2  0
 31 32  1  0
 32 33  1  0
 33 34  1  0
 34 35  2  0
 35 36  1  0
 36 37  2  0
 37 38  1  0
 38 39  1  0
 38 40  2  0
 31  3  1  0
 40 34  1  0
 29  8  1  0
 20 15  1  0
 27 22  1  0
  1 41  1  0
  1 42  1  0
  1 43  1  0
  4 44  1  0
  5 45  1  0
  9 46  1  0
 11 47  1  0
 11 48  1  0
 11 49  1  0
 12 50  1  0
 16 51  1  0
 17 52  1  0
 18 53  1  0
 19 54  1  0
 23 55  1  0
 24 56  1  0
 25 57  1  0
 26 58  1  0
 28 59  1  0
 29 60  1  0
 30 61  1  0
 33 62  1  0
 33 63  1  0
 35 64  1  0
 36 65  1  0
 37 66  1  0
 40 67  1  0
M  END
>  <smiles>  (55) 
COc1ccc(N=c2cc(C)[nH]c(=Nc3ccccc3Oc3ccccc3O)[nH]2)cc1OCc1cccc(F)c1

>  <score_type>  (55) 
oracle

>  <origin>  (55) 
adg

>  <m_score__min__energy>  (55) 
-10.76

>  <m_primary>  (55) 
energy

$$$$
55:0
     RDKit          3D

 30 32  0  0  0  0  0  0  0  0999 V2000
   53.7110   26.2380   46.1100 H   0  0  0  0  0  0  0  0  0  0  0  0
   54.5700   25.6830   45.8970 N   0  0  0  0  0  0  0  0  0  0  0  0
   55.7320   26.2460   45.8360 C   0  0  0  0  0  0  0  0  0  0  0  0
   55.8980   27.5550   45.5790 N   0  0  0  0  0  0  0  0  0  0  0  0
   57.2130   27.9260   45.5640 C   0  0  0  0  0  0  0  0  0  0  0  0
   58.1030   26.8530   45.8160 C   0  0  0  0  0  0  0  0  0  0  0  0
   57.1880   25.4570   46.0580 S   0  0  0  0  0  0  0  0  0  0  0  0
   59.6070   26.7980   45.8940 C   0  0  0  0  0  0  0  0  0  0  0  0
   59.8776   26.4301   46.8947 H   0  0  0  0  0  0  0  0  0  0  0  0
   59.9200   26.1411   45.0690 H   0  0  0  0  0  0  0  0  0  0  0  0
   60.3430   28.1140   45.6680 C   0  0  0  0  0  0  0  0  0  0  0  0
   61.4054   27.9753   45.9173 H   0  0  0  0  0  0  0  0  0  0  0  0
   60.2187   28.3987   44.6128 H   0  0  0  0  0  0  0  0  0  0  0  0
   59.7740   29.2380   46.5340 C   0  0  0  0  0  0  0  0  0  0  0  0
   59.3215   28.8089   47.4402 H   0  0  0  0  0  0  0  0  0  0  0  0
   60.5835   29.9265   46.8179 H   0  0  0  0  0  0  0  0  0  0  0  0
   58.7280   29.9890   45.7600 C   0  0  0  0  0  0  0  0  0  0  0  0
   58.9480   31.3530   45.4780 C   0  0  0  0  0  0  0  0  0  0  0  0
   59.8579   31.8449   45.8524 H   0  0  0  0  0  0  0  0  0  0  0  0
   58.0200   32.0920   44.7250 C   0  0  0  0  0  0  0  0  0  0  0  0
   58.2030   33.4500   44.4250 O   0  0  0  0  0  0  0  0  0  0  0  0
   58.4280   34.4660   45.3960 C   0  0  0  0  0  0  0  0  0  0  0  0
   58.3330   34.0369   46.4044 H   0  0  0  0  0  0  0  0  0  0  0  0
   59.4394   34.8789   45.2670 H   0  0  0  0  0  0  0  0  0  0  0  0
   57.6856   35.2673   45.2670 H   0  0  0  0  0  0  0  0  0  0  0  0
   56.8720   31.4600   44.2540 C   0  0  0  0  0  0  0  0  0  0  0  0
   56.1400   32.0296   43.6627 H   0  0  0  0  0  0  0  0  0  0  0  0
   56.6420   30.1120   44.5250 C   0  0  0  0  0  0  0  0  0  0  0  0
   55.7265   29.6341   44.1462 H   0  0  0  0  0  0  0  0  0  0  0  0
   57.5600   29.3500   45.2750 C   0  0  0  0  0  0  0  0  0  0  0  0
  1  2  1  0
  2  3  2  0
  3  4  1  0
  4  5  1  0
  5  6  2  0
  6  7  1  0
  6  8  1  0
  8  9  1  0
  8 10  1  0
  8 11  1  0
 11 12  1  0
 11 13  1  0
 11 14  1  0
 14 15  1  0
 14 16  1  0
 14 17  1  0
 17 18  2  0
 18 19  1  0
 18 20  1  0
 20 21  1  0
 21 22  1  0
 22 23  1  0
 22 24  1  0
 22 25  1  0
 20 26  2  0
 26 27  1  0
 26 28  1  0
 28 29  1  0
 28 30  2  0
  7  3  1  0
 30 17  1  0
 30  5  1  0
M  CHG  1   4  -1
M  END
>  <UniqueID>  (56) 
52

>  <SMILES>  (56) 
[H]/N=c1/[n-]c2c(s1)CCCc1cc(OC)ccc1-2

>  <Energy>  (56) 
71.9165472189757

>  <Genealogy>  (56) 
COc1ccc2c(c1)CCCc1sc(=N)[n-]c1-2 (protonated)
[H]/N=c1/[n-]c2c(s1)CCCc1cc(OC)ccc1-2 (cis-trans isomerization)
[H]/N=c1/[n-]c2c(s1)CCCc1cc(OC)ccc1-2 (3D coordinates assigned)
[H]/N=c1/[n-]c2c(s1)CCCc1cc(OC)ccc1-2 (nonaromatic ring conformer: 71.9165472189757 kcal/mol)

>  <smiles>  (56) 
COc1ccc2c(c1)CCCc1sc(=N)[nH]c1-2

>  <score_type>  (56) 
oracle

>  <origin>  (56) 
adg

>  <m_score__min__energy>  (56) 
-7.7199999999999998

>  <m_primary>  (56) 
energy

$$$$
56:0
     RDKit          3D

 40 41  0  0  0  0  0  0  0  0999 V2000
   56.8320   21.7520   43.2680 C   0  0  0  0  0  0  0  0  0  0  0  0
   57.4260   21.6300   44.4590 C   0  0  0  0  0  0  0  0  0  0  0  0
   56.7490   22.0730   45.7240 C   0  0  0  0  0  0  0  0  0  0  0  0
   56.6770   23.5320   45.7810 N   0  0  0  0  0  0  0  0  0  0  0  0
   55.5590   24.2780   45.8860 C   0  0  0  0  0  0  0  0  0  0  0  0
   55.9340   25.6050   45.8850 C   0  0  0  0  0  0  0  0  0  0  0  0
   55.0550   26.6780   46.0140 O   0  0  0  0  0  0  0  0  0  0  0  0
   57.2770   25.6980   45.7560 N   0  0  0  0  0  0  0  0  0  0  0  0
   58.1140   26.9000   45.7490 C   0  0  0  0  0  0  0  0  0  0  0  0
   57.7960   27.7900   44.5430 C   0  0  0  0  0  0  0  0  0  0  0  0
   57.3660   29.1600   44.9680 C   0  0  0  0  0  0  0  0  0  0  0  0
   56.1550   29.3780   45.2360 O   0  0  0  0  0  0  0  0  0  0  0  0
   58.3560   30.1780   45.1600 N   0  0  0  0  0  0  0  0  0  0  0  0
   58.1170   31.5680   45.4300 C   0  0  0  0  0  0  0  0  0  0  0  0
   58.1380   32.0690   46.7460 C   0  0  0  0  0  0  0  0  0  0  0  0
   57.8930   33.4220   46.9920 C   0  0  0  0  0  0  0  0  0  0  0  0
   57.6150   34.2870   45.9350 C   0  0  0  0  0  0  0  0  0  0  0  0
   57.5660   33.7990   44.6270 C   0  0  0  0  0  0  0  0  0  0  0  0
   57.7930   32.4380   44.3650 C   0  0  0  0  0  0  0  0  0  0  0  0
   57.7730   31.9470   42.9440 C   0  0  0  0  0  0  0  0  0  0  0  0
   57.6950   24.4150   45.7000 C   0  0  0  0  0  0  0  0  0  0  0  0
   58.9060   24.0800   45.5910 O   0  0  0  0  0  0  0  0  0  0  0  0
   57.3517   21.4190   42.3575 H   0  0  0  0  0  0  0  0  0  0  0  0
   55.8234   22.1855   43.1982 H   0  0  0  0  0  0  0  0  0  0  0  0
   58.4347   21.1947   44.5139 H   0  0  0  0  0  0  0  0  0  0  0  0
   55.7305   21.6587   45.7539 H   0  0  0  0  0  0  0  0  0  0  0  0
   57.3305   21.7111   46.5848 H   0  0  0  0  0  0  0  0  0  0  0  0
   54.5301   23.8959   45.9595 H   0  0  0  0  0  0  0  0  0  0  0  0
   55.1440   27.5150   45.4530 H   0  0  0  0  0  0  0  0  0  0  0  0
   57.9323   27.4691   46.6727 H   0  0  0  0  0  0  0  0  0  0  0  0
   59.1676   26.5903   45.6850 H   0  0  0  0  0  0  0  0  0  0  0  0
   58.6956   27.8765   43.9159 H   0  0  0  0  0  0  0  0  0  0  0  0
   56.9699   27.3282   43.9825 H   0  0  0  0  0  0  0  0  0  0  0  0
   58.3487   31.3904   47.5857 H   0  0  0  0  0  0  0  0  0  0  0  0
   57.9195   33.8058   48.0225 H   0  0  0  0  0  0  0  0  0  0  0  0
   57.4341   35.3542   46.1309 H   0  0  0  0  0  0  0  0  0  0  0  0
   57.3480   34.4859   43.7959 H   0  0  0  0  0  0  0  0  0  0  0  0
   57.7282   30.8479   42.9364 H   0  0  0  0  0  0  0  0  0  0  0  0
   56.8907   32.3535   42.4280 H   0  0  0  0  0  0  0  0  0  0  0  0
   58.6855   32.2804   42.4280 H   0  0  0  0  0  0  0  0  0  0  0  0
  1  2  2  0
  2  3  1  0
  3  4  1  0
  4  5  1  0
  5  6  2  0
  6  7  1  0
  6  8  1  0
  8  9  1  0
  9 10  1  0
 10 11  1  0
 11 12  2  0
 11 13  1  0
 13 14  1  0
 14 15  2  0
 15 16  1  0
 16 17  2  0
 17 18  1  0
 18 19  2  0
 19 20  1  0
  8 21  1  0
 21 22  2  0
 21  4  1  0
 19 14  1  0
  1 23  1  0
  1 24  1  0
  2 25  1  0
  3 26  1  0
  3 27  1  0
  5 28  1  0
  7 29  1  0
  9 30  1  0
  9 31  1  0
 10 32  1  0
 10 33  1  0
 15 34  1  0
 16 35  1  0
 17 36  1  0
 18 37  1  0
 20 38  1  0
 20 39  1  0
 20 40  1  0
M  CHG  1  13  -1
M  END
>  <UniqueID>  (57) 
53

>  <SMILES>  (57) 
C=CCn1cc(O)n(CCC(=O)[N-]c2ccccc2C)c1=O

>  <Energy>  (57) 
67.57320293058149

>  <Genealogy>  (57) 
C=CCn1cc(O)n(CCC(=O)[N-]c2ccccc2C)c1=O (protonated)
C=CCn1cc(O)n(CCC(=O)[N-]c2ccccc2C)c1=O (3D coordinates assigned)
C=CCn1cc(O)n(CCC(=O)[N-]c2ccccc2C)c1=O (optimized conformer: 67.57320293058149 kcal/mol)

>  <smiles>  (57) 
C=CCn1cc(O)n(CCC(=O)Nc2ccccc2C)c1=O

>  <score_type>  (57) 
oracle

>  <origin>  (57) 
adg

>  <m_score__min__energy>  (57) 
-9.5299999999999994

>  <m_primary>  (57) 
energy

$$$$
57:0
     RDKit          3D

 47 50  0  0  0  0  0  0  0  0999 V2000
   56.3170   29.3390   42.9240 O   0  0  0  0  0  0  0  0  0  0  0  0
   56.1710   29.6420   44.1370 C   0  0  0  0  0  0  0  0  0  0  0  0
   55.1470   29.0450   44.8620 O   0  0  0  0  0  0  0  0  0  0  0  0
   57.1180   30.5530   44.8130 C   0  0  0  0  0  0  0  0  0  0  0  0
   57.0190   31.9190   44.5060 C   0  0  0  0  0  0  0  0  0  0  0  0
   57.8440   32.8400   45.1460 C   0  0  0  0  0  0  0  0  0  0  0  0
   57.7520   34.0660   44.8770 O   0  0  0  0  0  0  0  0  0  0  0  0
   58.7430   32.4190   46.0660 N   0  0  0  0  0  0  0  0  0  0  0  0
   58.8890   31.1070   46.3930 C   0  0  0  0  0  0  0  0  0  0  0  0
   59.8670   30.7510   47.3820 N   0  0  0  0  0  0  0  0  0  0  0  0
   59.5340   30.8680   48.8010 C   0  0  0  0  0  0  0  0  0  0  0  0
   59.9970   32.2330   49.3130 C   0  0  0  0  0  0  0  0  0  0  0  0
   61.3940   32.5770   48.8450 C   0  0  0  0  0  0  0  0  0  0  0  0
   62.0870   33.6190   49.4810 C   0  0  0  0  0  0  0  0  0  0  0  0
   63.3550   34.0010   49.0360 C   0  0  0  0  0  0  0  0  0  0  0  0
   63.9400   33.3550   47.9450 C   0  0  0  0  0  0  0  0  0  0  0  0
   63.2570   32.3250   47.2930 C   0  0  0  0  0  0  0  0  0  0  0  0
   61.9780   31.9390   47.7210 C   0  0  0  0  0  0  0  0  0  0  0  0
   61.2890   30.7840   47.0360 C   0  0  0  0  0  0  0  0  0  0  0  0
   58.0970   30.1230   45.7540 C   0  0  0  0  0  0  0  0  0  0  0  0
   58.4240   28.3990   46.0730 S   0  0  0  0  0  0  0  0  0  0  0  0
   58.0950   28.1080   47.5100 O   0  0  0  0  0  0  0  0  0  0  0  0
   59.8780   28.0720   45.8790 O   0  0  0  0  0  0  0  0  0  0  0  0
   57.4600   27.3610   45.0700 N   0  0  0  0  0  0  0  0  0  0  0  0
   57.2220   25.9870   45.3960 C   0  0  0  0  0  0  0  0  0  0  0  0
   58.2270   25.0200   45.2250 C   0  0  0  0  0  0  0  0  0  0  0  0
   57.9750   23.6800   45.5330 C   0  0  0  0  0  0  0  0  0  0  0  0
   56.7160   23.2930   45.9960 C   0  0  0  0  0  0  0  0  0  0  0  0
   55.7020   24.2440   46.1450 C   0  0  0  0  0  0  0  0  0  0  0  0
   55.9500   25.5870   45.8390 C   0  0  0  0  0  0  0  0  0  0  0  0
   54.9590   26.5000   45.9930 F   0  0  0  0  0  0  0  0  0  0  0  0
   56.2885   32.2624   43.7587 H   0  0  0  0  0  0  0  0  0  0  0  0
   58.4459   30.7749   48.9329 H   0  0  0  0  0  0  0  0  0  0  0  0
   60.0371   30.0699   49.3667 H   0  0  0  0  0  0  0  0  0  0  0  0
   59.3016   33.0027   48.9471 H   0  0  0  0  0  0  0  0  0  0  0  0
   60.0100   32.1939   50.4122 H   0  0  0  0  0  0  0  0  0  0  0  0
   61.6286   34.1383   50.3355 H   0  0  0  0  0  0  0  0  0  0  0  0
   63.8940   34.8128   49.5464 H   0  0  0  0  0  0  0  0  0  0  0  0
   64.9393   33.6572   47.5985 H   0  0  0  0  0  0  0  0  0  0  0  0
   63.7251   31.8137   46.4389 H   0  0  0  0  0  0  0  0  0  0  0  0
   61.3931   30.8961   45.9467 H   0  0  0  0  0  0  0  0  0  0  0  0
   61.7560   29.8455   47.3694 H   0  0  0  0  0  0  0  0  0  0  0  0
   56.8020   27.8330   44.4100 H   0  0  0  0  0  0  0  0  0  0  0  0
   59.2160   25.3186   44.8473 H   0  0  0  0  0  0  0  0  0  0  0  0
   58.7697   22.9294   45.4104 H   0  0  0  0  0  0  0  0  0  0  0  0
   56.5217   22.2390   46.2438 H   0  0  0  0  0  0  0  0  0  0  0  0
   54.7084   23.9364   46.5030 H   0  0  0  0  0  0  0  0  0  0  0  0
  1  2  2  0
  2  3  1  0
  2  4  1  0
  4  5  2  0
  5  6  1  0
  6  7  2  0
  6  8  1  0
  8  9  1  0
  9 10  1  0
 10 11  1  0
 11 12  1  0
 12 13  1  0
 13 14  2  0
 14 15  1  0
 15 16  2  0
 16 17  1  0
 17 18  2  0
 18 19  1  0
  9 20  2  0
 20 21  1  0
 21 22  2  0
 21 23  2  0
 21 24  1  0
 24 25  1  0
 25 26  2  0
 26 27  1  0
 27 28  2  0
 28 29  1  0
 29 30  2  0
 30 31  1  0
 20  4  1  0
 30 25  1  0
 19 10  1  0
 18 13  1  0
  5 32  1  0
 11 33  1  0
 11 34  1  0
 12 35  1  0
 12 36  1  0
 14 37  1  0
 15 38  1  0
 16 39  1  0
 17 40  1  0
 19 41  1  0
 19 42  1  0
 24 43  1  0
 26 44  1  0
 27 45  1  0
 28 46  1  0
 29 47  1  0
M  CHG  2   3  -1   8  -1
M  END
>  <UniqueID>  (58) 
54

>  <SMILES>  (58) 
O=C([O-])c1cc(=O)[n-]c(N2CCc3ccccc3C2)c1S(=O)(=O)Nc1ccccc1F

>  <Energy>  (58) 
74.1982760803913

>  <Genealogy>  (58) 
O=C([O-])c1cc(=O)[n-]c(N2CCc3ccccc3C2)c1S(=O)(=O)Nc1ccccc1F (protonated)
O=C([O-])c1cc(=O)[n-]c(N2CCc3ccccc3C2)c1S(=O)(=O)Nc1ccccc1F (3D coordinates assigned)
O=C([O-])c1cc(=O)[n-]c(N2CCc3ccccc3C2)c1S(=O)(=O)Nc1ccccc1F (nonaromatic ring conformer: 74.1982760803913 kcal/mol)

>  <smiles>  (58) 
O=C(O)c1cc(=O)[nH]c(N2CCc3ccccc3C2)c1S(=O)(=O)Nc1ccccc1F

>  <score_type>  (58) 
oracle

>  <origin>  (58) 
adg

>  <m_score__min__energy>  (58) 
-12.44

>  <m_primary>  (58) 
energy

$$$$
58:0
     RDKit          3D

 48 50  0  0  0  0  0  0  0  0999 V2000
   55.8600   25.4140   45.9720 C   0  0  0  0  0  0  0  0  0  0  0  0
   56.3350   26.7420   46.1620 O   0  0  0  0  0  0  0  0  0  0  0  0
   57.6880   27.1180   46.1310 C   0  0  0  0  0  0  0  0  0  0  0  0
   58.5800   26.7510   47.1600 C   0  0  0  0  0  0  0  0  0  0  0  0
   59.9180   27.1440   47.1090 C   0  0  0  0  0  0  0  0  0  0  0  0
   60.3840   27.8990   46.0350 C   0  0  0  0  0  0  0  0  0  0  0  0
   59.5150   28.2670   45.0080 C   0  0  0  0  0  0  0  0  0  0  0  0
   58.1580   27.8890   45.0460 C   0  0  0  0  0  0  0  0  0  0  0  0
   57.2510   28.2670   43.9930 N   0  0  0  0  0  0  0  0  0  0  0  0
   56.3730   29.7640   43.9730 S   0  0  0  0  0  0  0  0  0  0  0  0
   55.1580   29.6390   44.8490 O   0  0  0  0  0  0  0  0  0  0  0  0
   55.9350   30.0590   42.5660 O   0  0  0  0  0  0  0  0  0  0  0  0
   57.3830   31.0630   44.5980 C   0  0  0  0  0  0  0  0  0  0  0  0
   57.8410   31.0160   45.9210 C   0  0  0  0  0  0  0  0  0  0  0  0
   58.6240   32.0540   46.4320 C   0  0  0  0  0  0  0  0  0  0  0  0
   58.9490   33.1530   45.6240 C   0  0  0  0  0  0  0  0  0  0  0  0
   59.8430   34.5220   46.2790 S   0  0  0  0  0  0  0  0  0  0  0  0
   61.3170   34.2280   46.2950 O   0  0  0  0  0  0  0  0  0  0  0  0
   59.6020   35.7180   45.4030 O   0  0  0  0  0  0  0  0  0  0  0  0
   59.2970   34.8810   47.8940 N   0  0  0  0  0  0  0  0  0  0  0  0
   60.2350   34.3780   48.9020 C   0  0  0  0  0  0  0  0  0  0  0  0
   60.1450   32.8790   49.0270 C   0  0  0  0  0  0  0  0  0  0  0  0
   59.0330   32.2870   49.6490 C   0  0  0  0  0  0  0  0  0  0  0  0
   58.9280   30.8950   49.7280 C   0  0  0  0  0  0  0  0  0  0  0  0
   59.9350   30.0850   49.1950 C   0  0  0  0  0  0  0  0  0  0  0  0
   61.0530   30.6660   48.5930 C   0  0  0  0  0  0  0  0  0  0  0  0
   61.1630   32.0580   48.5130 C   0  0  0  0  0  0  0  0  0  0  0  0
   58.5060   33.1910   44.2950 C   0  0  0  0  0  0  0  0  0  0  0  0
   57.7230   32.1520   43.7850 C   0  0  0  0  0  0  0  0  0  0  0  0
   55.6910   24.9415   46.9509 H   0  0  0  0  0  0  0  0  0  0  0  0
   54.9153   25.4395   45.4091 H   0  0  0  0  0  0  0  0  0  0  0  0
   56.6066   24.8345   45.4091 H   0  0  0  0  0  0  0  0  0  0  0  0
   58.2186   26.1511   48.0082 H   0  0  0  0  0  0  0  0  0  0  0  0
   60.6058   26.8572   47.9181 H   0  0  0  0  0  0  0  0  0  0  0  0
   61.4397   28.2056   45.9968 H   0  0  0  0  0  0  0  0  0  0  0  0
   59.8925   28.8579   44.1604 H   0  0  0  0  0  0  0  0  0  0  0  0
   57.0150   27.5790   43.2430 H   0  0  0  0  0  0  0  0  0  0  0  0
   57.5831   30.1585   46.5600 H   0  0  0  0  0  0  0  0  0  0  0  0
   58.9861   32.0091   47.4697 H   0  0  0  0  0  0  0  0  0  0  0  0
   61.2589   34.6532   48.6089 H   0  0  0  0  0  0  0  0  0  0  0  0
   59.9772   34.8256   49.8732 H   0  0  0  0  0  0  0  0  0  0  0  0
   58.2418   32.9211   50.0755 H   0  0  0  0  0  0  0  0  0  0  0  0
   58.0519   30.4367   50.2101 H   0  0  0  0  0  0  0  0  0  0  0  0
   59.8467   28.9899   49.2498 H   0  0  0  0  0  0  0  0  0  0  0  0
   61.8486   30.0278   48.1810 H   0  0  0  0  0  0  0  0  0  0  0  0
   62.0496   32.5117   48.0460 H   0  0  0  0  0  0  0  0  0  0  0  0
   58.7755   34.0413   43.6513 H   0  0  0  0  0  0  0  0  0  0  0  0
   57.3728   32.1893   42.7429 H   0  0  0  0  0  0  0  0  0  0  0  0
  1  2  1  0
  2  3  1  0
  3  4  2  0
  4  5  1  0
  5  6  2  0
  6  7  1  0
  7  8  2  0
  8  9  1  0
  9 10  1  0
 10 11  2  0
 10 12  2  0
 10 13  1  0
 13 14  2  0
 14 15  1  0
 15 16  2  0
 16 17  1  0
 17 18  2  0
 17 19  2  0
 17 20  1  0
 20 21  1  0
 21 22  1  0
 22 23  2  0
 23 24  1  0
 24 25  2  0
 25 26  1  0
 26 27  2  0
 16 28  1  0
 28 29  2  0
  8  3  1  0
 29 13  1  0
 27 22  1  0
  1 30  1  0
  1 31  1  0
  1 32  1  0
  4 33  1  0
  5 34  1  0
  6 35  1  0
  7 36  1  0
  9 37  1  0
 14 38  1  0
 15 39  1  0
 21 40  1  0
 21 41  1  0
 23 42  1  0
 24 43  1  0
 25 44  1  0
 26 45  1  0
 27 46  1  0
 28 47  1  0
 29 48  1  0
M  CHG  1  20  -1
M  END
>  <UniqueID>  (59) 
55

>  <SMILES>  (59) 
COc1ccccc1NS(=O)(=O)c1ccc(S(=O)(=O)[N-]Cc2ccccc2)cc1

>  <Energy>  (59) 
48.459662672841304

>  <Genealogy>  (59) 
COc1ccccc1NS(=O)(=O)c1ccc(S(=O)(=O)[N-]Cc2ccccc2)cc1 (protonated)
COc1ccccc1NS(=O)(=O)c1ccc(S(=O)(=O)[N-]Cc2ccccc2)cc1 (3D coordinates assigned)
COc1ccccc1NS(=O)(=O)c1ccc(S(=O)(=O)[N-]Cc2ccccc2)cc1 (optimized conformer: 48.459662672841304 kcal/mol)

>  <smiles>  (59) 
COc1ccccc1NS(=O)(=O)c1ccc(S(=O)(=O)NCc2ccccc2)cc1

>  <score_type>  (59) 
oracle

>  <origin>  (59) 
adg

>  <m_score__min__energy>  (59) 
-10.85

>  <m_primary>  (59) 
energy

$$$$
59:0
     RDKit          3D

 45 47  0  0  0  0  0  0  0  0999 V2000
   61.4380   27.1610   50.5660 H   0  0  0  0  0  0  0  0  0  0  0  0
   61.2370   27.5340   51.4850 O   0  0  0  0  0  0  0  0  0  0  0  0
   60.0890   28.2740   51.7730 C   0  0  0  0  0  0  0  0  0  0  0  0
   59.5180   28.1300   52.9920 N   0  0  0  0  0  0  0  0  0  0  0  0
   58.3740   28.7740   53.3290 C   0  0  0  0  0  0  0  0  0  0  0  0
   57.8920   28.5930   54.4800 O   0  0  0  0  0  0  0  0  0  0  0  0
   57.7480   29.5960   52.4280 N   0  0  0  0  0  0  0  0  0  0  0  0
   56.4680   30.2430   52.7850 C   0  0  0  0  0  0  0  0  0  0  0  0
   56.4854   30.5071   53.8527 H   0  0  0  0  0  0  0  0  0  0  0  0
   56.3483   31.1429   52.1638 H   0  0  0  0  0  0  0  0  0  0  0  0
   55.2790   29.3090   52.5200 C   0  0  0  0  0  0  0  0  0  0  0  0
   55.5246   28.6504   51.6738 H   0  0  0  0  0  0  0  0  0  0  0  0
   55.0918   28.7244   53.4328 H   0  0  0  0  0  0  0  0  0  0  0  0
   54.0270   30.0810   52.1910 C   0  0  0  0  0  0  0  0  0  0  0  0
   53.5680   30.1580   50.8660 C   0  0  0  0  0  0  0  0  0  0  0  0
   54.0988   29.6150   50.0701 H   0  0  0  0  0  0  0  0  0  0  0  0
   52.4390   30.9220   50.5540 C   0  0  0  0  0  0  0  0  0  0  0  0
   52.0823   30.9764   49.5149 H   0  0  0  0  0  0  0  0  0  0  0  0
   51.7630   31.6170   51.5620 C   0  0  0  0  0  0  0  0  0  0  0  0
   50.6430   32.3770   51.2510 O   0  0  0  0  0  0  0  0  0  0  0  0
   52.2190   31.5500   52.8830 C   0  0  0  0  0  0  0  0  0  0  0  0
   51.6883   32.0978   53.6757 H   0  0  0  0  0  0  0  0  0  0  0  0
   53.3480   30.7880   53.1970 C   0  0  0  0  0  0  0  0  0  0  0  0
   53.7061   30.7418   54.2360 H   0  0  0  0  0  0  0  0  0  0  0  0
   58.2990   29.7780   51.1810 C   0  0  0  0  0  0  0  0  0  0  0  0
   57.7340   30.5300   50.3380 O   0  0  0  0  0  0  0  0  0  0  0  0
   59.4990   29.1370   50.8310 C   0  0  0  0  0  0  0  0  0  0  0  0
   60.0900   29.3650   49.4930 C   0  0  0  0  0  0  0  0  0  0  0  0
   60.6741   30.2845   49.3400 H   0  0  0  0  0  0  0  0  0  0  0  0
   59.9610   28.5250   48.4540 C   0  0  0  0  0  0  0  0  0  0  0  0
   60.7513   27.7748   48.3034 H   0  0  0  0  0  0  0  0  0  0  0  0
   58.8310   28.5350   47.4950 C   0  0  0  0  0  0  0  0  0  0  0  0
   58.4330   29.7230   46.8590 C   0  0  0  0  0  0  0  0  0  0  0  0
   58.9800   30.6571   47.0547 H   0  0  0  0  0  0  0  0  0  0  0  0
   57.3500   29.7260   45.9820 C   0  0  0  0  0  0  0  0  0  0  0  0
   57.0529   30.6602   45.4831 H   0  0  0  0  0  0  0  0  0  0  0  0
   56.6400   28.5500   45.7330 C   0  0  0  0  0  0  0  0  0  0  0  0
   55.5520   28.5870   44.8660 O   0  0  0  0  0  0  0  0  0  0  0  0
   57.0200   27.3480   46.3600 C   0  0  0  0  0  0  0  0  0  0  0  0
   56.2310   26.0860   46.1270 C   0  0  0  0  0  0  0  0  0  0  0  0
   55.9539   25.6428   47.0949 H   0  0  0  0  0  0  0  0  0  0  0  0
   55.3199   26.3230   45.5580 H   0  0  0  0  0  0  0  0  0  0  0  0
   56.8430   25.3707   45.5580 H   0  0  0  0  0  0  0  0  0  0  0  0
   58.1030   27.3530   47.2630 C   0  0  0  0  0  0  0  0  0  0  0  0
   58.4610   26.1800   47.9250 O   0  0  0  0  0  0  0  0  0  0  0  0
  1  2  1  0
  2  3  1  0
  3  4  1  0
  4  5  1  0
  5  6  2  0
  5  7  1  0
  7  8  1  0
  8  9  1  0
  8 10  1  0
  8 11  1  0
 11 12  1  0
 11 13  1  0
 11 14  1  0
 14 15  2  0
 15 16  1  0
 15 17  1  0
 17 18  1  0
 17 19  2  0
 19 20  1  0
 19 21  1  0
 21 22  1  0
 21 23  2  0
 23 24  1  0
  7 25  1  0
 25 26  2  0
 25 27  1  0
 27 28  1  0
 28 29  1  0
 28 30  2  0
 30 31  1  0
 30 32  1  0
 32 33  2  0
 33 34  1  0
 33 35  1  0
 35 36  1  0
 35 37  2  0
 37 38  1  0
 37 39  1  0
 39 40  1  0
 40 41  1  0
 40 42  1  0
 40 43  1  0
 39 44  2  0
 44 45  1  0
 27  3  2  0
 44 32  1  0
 23 14  1  0
M  CHG  4   4  -1  20  -1  38  -1  45  -1
M  END
>  <UniqueID>  (60) 
56

>  <SMILES>  (60) 
Cc1c([O-])ccc(/C=C\c2c(O)[n-]c(=O)n(CCc3ccc([O-])cc3)c2=O)c1[O-]

>  <Energy>  (60) 
62.415500844791346

>  <Genealogy>  (60) 
Cc1c([O-])ccc(C=Cc2c(O)[n-]c(=O)n(CCc3ccc([O-])cc3)c2=O)c1[O-] (protonated)
Cc1c([O-])ccc(/C=C\c2c(O)[n-]c(=O)n(CCc3ccc([O-])cc3)c2=O)c1[O-] (cis-trans isomerization)
Cc1c([O-])ccc(/C=C\c2c(O)[n-]c(=O)n(CCc3ccc([O-])cc3)c2=O)c1[O-] (3D coordinates assigned)
Cc1c([O-])ccc(/C=C\c2c(O)[n-]c(=O)n(CCc3ccc([O-])cc3)c2=O)c1[O-] (optimized conformer: 62.415500844791346 kcal/mol)

>  <smiles>  (60) 
Cc1c(O)ccc(C=Cc2c(O)[nH]c(=O)n(CCc3ccc(O)cc3)c2=O)c1O

>  <score_type>  (60) 
oracle

>  <origin>  (60) 
adg

>  <m_score__min__energy>  (60) 
-16.620000000000001

>  <m_primary>  (60) 
energy

$$$$
60:0
     RDKit          3D

 50 53  0  0  0  0  0  0  0  0999 V2000
   54.0490   24.0700   44.9600 C   0  0  0  0  0  0  0  0  0  0  0  0
   54.6310   24.4560   46.1990 O   0  0  0  0  0  0  0  0  0  0  0  0
   55.8430   25.1500   46.2800 C   0  0  0  0  0  0  0  0  0  0  0  0
   56.9610   24.5190   46.8240 C   0  0  0  0  0  0  0  0  0  0  0  0
   58.1710   25.2100   46.8990 C   0  0  0  0  0  0  0  0  0  0  0  0
   58.2610   26.5310   46.4280 C   0  0  0  0  0  0  0  0  0  0  0  0
   59.4620   27.2580   46.4760 C   0  0  0  0  0  0  0  0  0  0  0  0
   60.4940   26.7440   46.9900 O   0  0  0  0  0  0  0  0  0  0  0  0
   59.5040   28.5660   45.9650 C   0  0  0  0  0  0  0  0  0  0  0  0
   60.7480   29.3700   45.9760 C   0  0  0  0  0  0  0  0  0  0  0  0
   61.5030   29.3420   44.9660 O   0  0  0  0  0  0  0  0  0  0  0  0
   61.1450   30.1770   47.1470 C   0  0  0  0  0  0  0  0  0  0  0  0
   60.5060   30.1700   48.3720 C   0  0  0  0  0  0  0  0  0  0  0  0
   61.1690   31.0910   49.1590 C   0  0  0  0  0  0  0  0  0  0  0  0
   62.1740   31.6250   48.3790 C   0  0  0  0  0  0  0  0  0  0  0  0
   62.1550   31.0700   47.1540 N   0  0  0  0  0  0  0  0  0  0  0  0
   58.3250   29.1390   45.4640 C   0  0  0  0  0  0  0  0  0  0  0  0
   57.1510   28.4380   45.4390 N   0  0  0  0  0  0  0  0  0  0  0  0
   55.9590   29.0900   44.8670 C   0  0  0  0  0  0  0  0  0  0  0  0
   56.3660   30.1980   43.9480 C   0  0  0  0  0  0  0  0  0  0  0  0
   56.5170   29.9710   42.7170 O   0  0  0  0  0  0  0  0  0  0  0  0
   56.5840   31.5100   44.4740 N   0  0  0  0  0  0  0  0  0  0  0  0
   57.7400   32.3220   44.1160 C   0  0  0  0  0  0  0  0  0  0  0  0
   58.3510   32.8950   45.3610 C   0  0  0  0  0  0  0  0  0  0  0  0
   59.3310   33.8980   45.2740 C   0  0  0  0  0  0  0  0  0  0  0  0
   59.9250   34.4040   46.4350 C   0  0  0  0  0  0  0  0  0  0  0  0
   59.5520   33.9070   47.6880 C   0  0  0  0  0  0  0  0  0  0  0  0
   60.3020   34.5410   49.1420 Cl  0  0  0  0  0  0  0  0  0  0  0  0
   58.5840   32.9000   47.7810 C   0  0  0  0  0  0  0  0  0  0  0  0
   57.9900   32.3910   46.6220 C   0  0  0  0  0  0  0  0  0  0  0  0
   57.1030   27.1430   45.8910 C   0  0  0  0  0  0  0  0  0  0  0  0
   55.9400   26.4320   45.8340 N   0  0  0  0  0  0  0  0  0  0  0  0
   53.1460   23.4711   45.1498 H   0  0  0  0  0  0  0  0  0  0  0  0
   53.7790   24.9687   44.3860 H   0  0  0  0  0  0  0  0  0  0  0  0
   54.7718   23.4717   44.3860 H   0  0  0  0  0  0  0  0  0  0  0  0
   56.8898   23.4845   47.1912 H   0  0  0  0  0  0  0  0  0  0  0  0
   59.0570   24.7193   47.3281 H   0  0  0  0  0  0  0  0  0  0  0  0
   59.6421   29.5541   48.6623 H   0  0  0  0  0  0  0  0  0  0  0  0
   60.9405   31.3486   50.2037 H   0  0  0  0  0  0  0  0  0  0  0  0
   62.8876   32.3935   48.7110 H   0  0  0  0  0  0  0  0  0  0  0  0
   62.7900   31.3130   46.3620 H   0  0  0  0  0  0  0  0  0  0  0  0
   58.3455   30.1712   45.0843 H   0  0  0  0  0  0  0  0  0  0  0  0
   55.3739   28.3478   44.3042 H   0  0  0  0  0  0  0  0  0  0  0  0
   55.3515   29.5067   45.6839 H   0  0  0  0  0  0  0  0  0  0  0  0
   58.4816   31.6965   43.5976 H   0  0  0  0  0  0  0  0  0  0  0  0
   57.4233   33.1398   43.4520 H   0  0  0  0  0  0  0  0  0  0  0  0
   59.6321   34.2866   44.2899 H   0  0  0  0  0  0  0  0  0  0  0  0
   60.6868   35.1942   46.3624 H   0  0  0  0  0  0  0  0  0  0  0  0
   58.2905   32.5089   48.7664 H   0  0  0  0  0  0  0  0  0  0  0  0
   57.2370   31.5927   46.6977 H   0  0  0  0  0  0  0  0  0  0  0  0
  1  2  1  0
  2  3  1  0
  3  4  2  0
  4  5  1  0
  5  6  2  0
  6  7  1  0
  7  8  2  0
  7  9  1  0
  9 10  1  0
 10 11  2  0
 10 12  1  0
 12 13  2  0
 13 14  1  0
 14 15  2  0
 15 16  1  0
  9 17  2  0
 17 18  1  0
 18 19  1  0
 19 20  1  0
 20 21  2  0
 20 22  1  0
 22 23  1  0
 23 24  1  0
 24 25  2  0
 25 26  1  0
 26 27  2  0
 27 28  1  0
 27 29  1  0
 29 30  2  0
 18 31  1  0
 31 32  2  0
 32  3  1  0
 31  6  1  0
 16 12  1  0
 30 24  1  0
  1 33  1  0
  1 34  1  0
  1 35  1  0
  4 36  1  0
  5 37  1  0
 13 38  1  0
 14 39  1  0
 15 40  1  0
 16 41  1  0
 17 42  1  0
 19 43  1  0
 19 44  1  0
 23 45  1  0
 23 46  1  0
 25 47  1  0
 26 48  1  0
 29 49  1  0
 30 50  1  0
M  CHG  1  22  -1
M  END
>  <UniqueID>  (61) 
57

>  <SMILES>  (61) 
COc1ccc2c(=O)c(C(=O)c3ccc[nH]3)cn(CC(=O)[N-]Cc3ccc(Cl)cc3)c2n1

>  <Energy>  (61) 
85.50550636110415

>  <Genealogy>  (61) 
COc1ccc2c(=O)c(C(=O)c3ccc[nH]3)cn(CC(=O)[N-]Cc3ccc(Cl)cc3)c2n1 (protonated)
COc1ccc2c(=O)c(C(=O)c3ccc[nH]3)cn(CC(=O)[N-]Cc3ccc(Cl)cc3)c2n1 (3D coordinates assigned)
COc1ccc2c(=O)c(C(=O)c3ccc[nH]3)cn(CC(=O)[N-]Cc3ccc(Cl)cc3)c2n1 (optimized conformer: 85.50550636110415 kcal/mol)

>  <smiles>  (61) 
COc1ccc2c(=O)c(C(=O)c3ccc[nH]3)cn(CC(=O)NCc3ccc(Cl)cc3)c2n1

>  <score_type>  (61) 
oracle

>  <origin>  (61) 
adg

>  <m_score__min__energy>  (61) 
-10.59

>  <m_primary>  (61) 
energy

$$$$
61:0
     RDKit          3D

 43 45  0  0  0  0  0  0  0  0999 V2000
   57.3920   26.5350   46.4560 C   0  0  0  0  0  0  0  0  0  0  0  0
   58.2200   27.7680   46.6310 C   0  0  0  0  0  0  0  0  0  0  0  0
   59.0320   27.9290   47.7100 N   0  0  0  0  0  0  0  0  0  0  0  0
   59.6850   29.1130   47.6830 C   0  0  0  0  0  0  0  0  0  0  0  0
   60.6770   29.5280   48.7180 C   0  0  0  0  0  0  0  0  0  0  0  0
   61.1720   30.9180   48.4300 C   0  0  0  0  0  0  0  0  0  0  0  0
   60.7700   31.9930   49.2410 C   0  0  0  0  0  0  0  0  0  0  0  0
   61.2520   33.2810   48.9920 C   0  0  0  0  0  0  0  0  0  0  0  0
   62.1440   33.5060   47.9400 C   0  0  0  0  0  0  0  0  0  0  0  0
   62.5580   32.4390   47.1360 C   0  0  0  0  0  0  0  0  0  0  0  0
   62.0840   31.1460   47.3860 C   0  0  0  0  0  0  0  0  0  0  0  0
   59.2970   30.0030   46.3080 S   0  0  0  0  0  0  0  0  0  0  0  0
   58.2210   28.8410   45.7340 C   0  0  0  0  0  0  0  0  0  0  0  0
   57.4830   28.9350   44.4330 C   0  0  0  0  0  0  0  0  0  0  0  0
   56.2580   29.7730   44.6030 C   0  0  0  0  0  0  0  0  0  0  0  0
   55.1500   29.2230   44.8490 O   0  0  0  0  0  0  0  0  0  0  0  0
   56.3560   31.1950   44.5160 N   0  0  0  0  0  0  0  0  0  0  0  0
   57.7560   31.9860   43.8760 S   0  0  0  0  0  0  0  0  0  0  0  0
   58.8120   30.9630   43.5790 O   0  0  0  0  0  0  0  0  0  0  0  0
   57.3870   32.6930   42.6030 O   0  0  0  0  0  0  0  0  0  0  0  0
   58.3740   33.1240   45.0680 C   0  0  0  0  0  0  0  0  0  0  0  0
   58.0060   32.9850   46.4150 C   0  0  0  0  0  0  0  0  0  0  0  0
   58.4630   33.9050   47.3650 C   0  0  0  0  0  0  0  0  0  0  0  0
   59.2780   34.9700   46.9720 C   0  0  0  0  0  0  0  0  0  0  0  0
   59.6440   35.1130   45.6300 C   0  0  0  0  0  0  0  0  0  0  0  0
   59.1960   34.1910   44.6810 C   0  0  0  0  0  0  0  0  0  0  0  0
   57.1213   26.1319   47.4431 H   0  0  0  0  0  0  0  0  0  0  0  0
   56.4772   26.7838   45.8981 H   0  0  0  0  0  0  0  0  0  0  0  0
   57.9684   25.7824   45.8981 H   0  0  0  0  0  0  0  0  0  0  0  0
   60.1988   29.5099   49.7085 H   0  0  0  0  0  0  0  0  0  0  0  0
   61.5283   28.8316   48.7010 H   0  0  0  0  0  0  0  0  0  0  0  0
   60.0735   31.8201   50.0747 H   0  0  0  0  0  0  0  0  0  0  0  0
   60.9284   34.1198   49.6257 H   0  0  0  0  0  0  0  0  0  0  0  0
   62.5201   34.5211   47.7445 H   0  0  0  0  0  0  0  0  0  0  0  0
   63.2574   32.6164   46.3057 H   0  0  0  0  0  0  0  0  0  0  0  0
   62.4264   30.3062   46.7635 H   0  0  0  0  0  0  0  0  0  0  0  0
   58.1360   29.3930   43.6755 H   0  0  0  0  0  0  0  0  0  0  0  0
   57.1893   27.9255   44.1094 H   0  0  0  0  0  0  0  0  0  0  0  0
   57.3576   32.1520   46.7243 H   0  0  0  0  0  0  0  0  0  0  0  0
   58.1806   33.7899   48.4219 H   0  0  0  0  0  0  0  0  0  0  0  0
   59.6318   35.6962   47.7187 H   0  0  0  0  0  0  0  0  0  0  0  0
   60.2850   35.9520   45.3214 H   0  0  0  0  0  0  0  0  0  0  0  0
   59.4893   34.3028   43.6267 H   0  0  0  0  0  0  0  0  0  0  0  0
  1  2  1  0
  2  3  1  0
  3  4  2  0
  4  5  1  0
  5  6  1  0
  6  7  2  0
  7  8  1  0
  8  9  2  0
  9 10  1  0
 10 11  2  0
  4 12  1  0
 12 13  1  0
 13 14  1  0
 14 15  1  0
 15 16  2  0
 15 17  1  0
 17 18  1  0
 18 19  2  0
 18 20  2  0
 18 21  1  0
 21 22  2  0
 22 23  1  0
 23 24  2  0
 24 25  1  0
 25 26  2  0
 13  2  2  0
 26 21  1  0
 11  6  1  0
  1 27  1  0
  1 28  1  0
  1 29  1  0
  5 30  1  0
  5 31  1  0
  7 32  1  0
  8 33  1  0
  9 34  1  0
 10 35  1  0
 11 36  1  0
 14 37  1  0
 14 38  1  0
 22 39  1  0
 23 40  1  0
 24 41  1  0
 25 42  1  0
 26 43  1  0
M  CHG  1  17  -1
M  END
>  <UniqueID>  (62) 
58

>  <SMILES>  (62) 
Cc1nc(Cc2ccccc2)sc1CC(=O)[N-]S(=O)(=O)c1ccccc1

>  <Energy>  (62) 
68.79017329508541

>  <Genealogy>  (62) 
Cc1nc(Cc2ccccc2)sc1CC(=O)[N-]S(=O)(=O)c1ccccc1 (protonated)
Cc1nc(Cc2ccccc2)sc1CC(=O)[N-]S(=O)(=O)c1ccccc1 (3D coordinates assigned)
Cc1nc(Cc2ccccc2)sc1CC(=O)[N-]S(=O)(=O)c1ccccc1 (optimized conformer: 68.79017329508541 kcal/mol)

>  <smiles>  (62) 
Cc1nc(Cc2ccccc2)sc1CC(=O)NS(=O)(=O)c1ccccc1

>  <score_type>  (62) 
oracle

>  <origin>  (62) 
adg

>  <m_score__min__energy>  (62) 
-11.33

>  <m_primary>  (62) 
energy

$$$$
62:0
     RDKit          3D

 57 59  0  0  0  0  0  0  0  0999 V2000
   55.5891   22.6023   43.4015 H   0  0  0  0  0  0  0  0  0  0  0  0
   55.4980   22.6430   44.4970 C   0  0  0  0  0  0  0  0  0  0  0  0
   54.5020   23.5870   45.0450 C   0  0  0  0  0  0  0  0  0  0  0  0
   53.2800   23.3320   44.8760 O   0  0  0  0  0  0  0  0  0  0  0  0
   54.8950   24.7160   45.8350 N   0  0  0  0  0  0  0  0  0  0  0  0
   56.1290   25.4410   45.7410 C   0  0  0  0  0  0  0  0  0  0  0  0
   56.9130   25.2850   44.5920 C   0  0  0  0  0  0  0  0  0  0  0  0
   56.5764   24.6134   43.7885 H   0  0  0  0  0  0  0  0  0  0  0  0
   58.1200   25.9760   44.4580 C   0  0  0  0  0  0  0  0  0  0  0  0
   58.7399   25.8269   43.5616 H   0  0  0  0  0  0  0  0  0  0  0  0
   58.5450   26.8600   45.4630 C   0  0  0  0  0  0  0  0  0  0  0  0
   59.8730   27.5630   45.3540 C   0  0  0  0  0  0  0  0  0  0  0  0
   60.2207   27.8381   46.3607 H   0  0  0  0  0  0  0  0  0  0  0  0
   60.5957   26.8860   44.8750 H   0  0  0  0  0  0  0  0  0  0  0  0
   59.7470   28.7740   44.5400 N   0  0  0  0  0  0  0  0  0  0  0  0
   60.5700   29.0880   43.9740 H   0  0  0  0  0  0  0  0  0  0  0  0
   58.5570   29.5840   44.5050 C   0  0  0  0  0  0  0  0  0  0  0  0
   57.4170   29.2000   43.7770 C   0  0  0  0  0  0  0  0  0  0  0  0
   57.4120   28.2556   43.2131 H   0  0  0  0  0  0  0  0  0  0  0  0
   56.2900   30.0270   43.7750 C   0  0  0  0  0  0  0  0  0  0  0  0
   55.3945   29.7328   43.2079 H   0  0  0  0  0  0  0  0  0  0  0  0
   56.2980   31.1920   44.4710 N   0  0  0  0  0  0  0  0  0  0  0  0
   57.3870   31.6000   45.1840 C   0  0  0  0  0  0  0  0  0  0  0  0
   57.3700   32.7100   45.8620 N   0  0  0  0  0  0  0  0  0  0  0  0
   58.3270   33.7750   45.7480 C   0  0  0  0  0  0  0  0  0  0  0  0
   58.1370   34.6600   44.8720 O   0  0  0  0  0  0  0  0  0  0  0  0
   59.4880   33.8930   46.6640 C   0  0  0  0  0  0  0  0  0  0  0  0
   59.2850   34.1210   48.0380 C   0  0  0  0  0  0  0  0  0  0  0  0
   58.2624   34.2251   48.4298 H   0  0  0  0  0  0  0  0  0  0  0  0
   60.3760   34.2160   48.9080 C   0  0  0  0  0  0  0  0  0  0  0  0
   60.2090   34.4005   49.9795 H   0  0  0  0  0  0  0  0  0  0  0  0
   61.6780   34.0770   48.4190 C   0  0  0  0  0  0  0  0  0  0  0  0
   62.5346   34.1574   49.1044 H   0  0  0  0  0  0  0  0  0  0  0  0
   61.8910   33.8360   47.0600 C   0  0  0  0  0  0  0  0  0  0  0  0
   62.9158   33.7238   46.6764 H   0  0  0  0  0  0  0  0  0  0  0  0
   60.8040   33.7370   46.1860 C   0  0  0  0  0  0  0  0  0  0  0  0
   60.9775   33.5361   45.1185 H   0  0  0  0  0  0  0  0  0  0  0  0
   58.5320   30.7950   45.2130 C   0  0  0  0  0  0  0  0  0  0  0  0
   59.4125   31.1121   45.7911 H   0  0  0  0  0  0  0  0  0  0  0  0
   57.7480   27.0370   46.6030 C   0  0  0  0  0  0  0  0  0  0  0  0
   58.0722   27.7287   47.3945 H   0  0  0  0  0  0  0  0  0  0  0  0
   56.5440   26.3400   46.7400 C   0  0  0  0  0  0  0  0  0  0  0  0
   55.9191   26.4951   47.6319 H   0  0  0  0  0  0  0  0  0  0  0  0
   56.3040   21.8290   45.2000 C   0  0  0  0  0  0  0  0  0  0  0  0
   56.0707   20.7542   45.1803 H   0  0  0  0  0  0  0  0  0  0  0  0
   57.4990   22.2570   46.0130 C   0  0  0  0  0  0  0  0  0  0  0  0
   57.6459   23.3403   45.8913 H   0  0  0  0  0  0  0  0  0  0  0  0
   58.3792   21.7026   45.6554 H   0  0  0  0  0  0  0  0  0  0  0  0
   57.3080   21.9550   47.4470 N   0  0  0  0  0  0  0  0  0  0  0  0
   56.5930   20.6770   47.5970 C   0  0  0  0  0  0  0  0  0  0  0  0
   56.4665   20.4509   48.6661 H   0  0  0  0  0  0  0  0  0  0  0  0
   55.6053   20.7511   47.1185 H   0  0  0  0  0  0  0  0  0  0  0  0
   57.1729   19.8740   47.1185 H   0  0  0  0  0  0  0  0  0  0  0  0
   56.5490   23.0260   48.1180 C   0  0  0  0  0  0  0  0  0  0  0  0
   56.6332   22.9072   49.2083 H   0  0  0  0  0  0  0  0  0  0  0  0
   56.9565   24.0043   47.8232 H   0  0  0  0  0  0  0  0  0  0  0  0
   55.4910   22.9656   47.8232 H   0  0  0  0  0  0  0  0  0  0  0  0
  1  2  1  0
  2  3  1  0
  3  4  2  0
  3  5  1  0
  5  6  1  0
  6  7  2  0
  7  8  1  0
  7  9  1  0
  9 10  1  0
  9 11  2  0
 11 12  1  0
 12 13  1  0
 12 14  1  0
 12 15  1  0
 15 16  1  0
 15 17  1  0
 17 18  1  0
 18 19  1  0
 18 20  2  0
 20 21  1  0
 20 22  1  0
 22 23  1  0
 23 24  2  0
 24 25  1  0
 25 26  2  0
 25 27  1  0
 27 28  2  0
 28 29  1  0
 28 30  1  0
 30 31  1  0
 30 32  2  0
 32 33  1  0
 32 34  1  0
 34 35  1  0
 34 36  2  0
 36 37  1  0
 23 38  1  0
 38 39  1  0
 11 40  1  0
 40 41  1  0
 40 42  2  0
 42 43  1  0
  2 44  2  3
 44 45  1  0
 44 46  1  0
 46 47  1  0
 46 48  1  0
 46 49  1  0
 49 50  1  0
 50 51  1  0
 50 52  1  0
 50 53  1  0
 49 54  1  0
 54 55  1  0
 54 56  1  0
 54 57  1  0
 42  6  1  0
 38 17  2  0
 36 27  1  0
M  CHG  2   5  -1  22  -1
M  END
>  <UniqueID>  (63) 
59

>  <SMILES>  (63) 
CN(C)CC=CC(=O)[N-]c1ccc(CNc2cc[n-]/c(=N\C(=O)c3ccccc3)c2)cc1

>  <Energy>  (63) 
70.98977042541604

>  <Genealogy>  (63) 
CN(C)CC=CC(=O)[N-]c1ccc(CNc2cc[n-]c(=NC(=O)c3ccccc3)c2)cc1 (protonated)
CN(C)CC=CC(=O)[N-]c1ccc(CNc2cc[n-]/c(=N\C(=O)c3ccccc3)c2)cc1 (cis-trans isomerization)
CN(C)CC=CC(=O)[N-]c1ccc(CNc2cc[n-]/c(=N\C(=O)c3ccccc3)c2)cc1 (3D coordinates assigned)
CN(C)CC=CC(=O)[N-]c1ccc(CNc2cc[n-]/c(=N\C(=O)c3ccccc3)c2)cc1 (optimized conformer: 70.98977042541604 kcal/mol)

>  <smiles>  (63) 
CN(C)CC=CC(=O)Nc1ccc(CNc2cc[nH]c(=NC(=O)c3ccccc3)c2)cc1

>  <score_type>  (63) 
oracle

>  <origin>  (63) 
adg

>  <m_score__min__energy>  (63) 
-11.380000000000001

>  <m_primary>  (63) 
energy

$$$$
63:0
     RDKit          3D

 43 45  0  0  0  0  0  0  0  0999 V2000
   55.6050   28.9780   44.9200 O   0  0  0  0  0  0  0  0  0  0  0  0
   56.7050   28.4920   45.2960 C   0  0  0  0  0  0  0  0  0  0  0  0
   57.9220   29.2270   45.1040 N   0  0  0  0  0  0  0  0  0  0  0  0
   58.0450   30.5990   44.6980 C   0  0  0  0  0  0  0  0  0  0  0  0
   57.6240   31.0470   43.4330 C   0  0  0  0  0  0  0  0  0  0  0  0
   57.7430   32.3970   43.0900 C   0  0  0  0  0  0  0  0  0  0  0  0
   58.2700   33.3100   44.0060 C   0  0  0  0  0  0  0  0  0  0  0  0
   58.6690   32.8800   45.2790 C   0  0  0  0  0  0  0  0  0  0  0  0
   59.3070   34.0360   46.4520 S   0  0  0  0  0  0  0  0  0  0  0  0
   59.5860   35.3370   45.7540 O   0  0  0  0  0  0  0  0  0  0  0  0
   58.2720   34.2900   47.5130 O   0  0  0  0  0  0  0  0  0  0  0  0
   60.7770   33.4500   47.1970 N   0  0  0  0  0  0  0  0  0  0  0  0
   61.9520   33.8010   46.3630 C   0  0  0  0  0  0  0  0  0  0  0  0
   63.2890   33.7340   47.1370 C   0  0  0  0  0  0  0  0  0  0  0  0
   63.1880   32.8360   48.3710 C   0  0  0  0  0  0  0  0  0  0  0  0
   62.0720   33.3120   49.3180 C   0  0  0  0  0  0  0  0  0  0  0  0
   60.9020   33.9800   48.5680 C   0  0  0  0  0  0  0  0  0  0  0  0
   58.5490   31.5260   45.6210 C   0  0  0  0  0  0  0  0  0  0  0  0
   56.7440   27.1340   45.8890 C   0  0  0  0  0  0  0  0  0  0  0  0
   57.9500   26.5920   46.3640 C   0  0  0  0  0  0  0  0  0  0  0  0
   57.9750   25.3120   46.9220 C   0  0  0  0  0  0  0  0  0  0  0  0
   56.7900   24.5780   47.0010 C   0  0  0  0  0  0  0  0  0  0  0  0
   56.7930   23.4220   47.5010 O   0  0  0  0  0  0  0  0  0  0  0  0
   55.6300   25.1110   46.5390 N   0  0  0  0  0  0  0  0  0  0  0  0
   55.5790   26.3540   45.9880 C   0  0  0  0  0  0  0  0  0  0  0  0
   57.1999   30.3331   42.7115 H   0  0  0  0  0  0  0  0  0  0  0  0
   57.4207   32.7410   42.0961 H   0  0  0  0  0  0  0  0  0  0  0  0
   58.3722   34.3693   43.7277 H   0  0  0  0  0  0  0  0  0  0  0  0
   60.6940   32.4070   47.2440 H   0  0  0  0  0  0  0  0  0  0  0  0
   62.0022   33.1000   45.5168 H   0  0  0  0  0  0  0  0  0  0  0  0
   61.8182   34.8409   46.0302 H   0  0  0  0  0  0  0  0  0  0  0  0
   64.0670   33.3352   46.4694 H   0  0  0  0  0  0  0  0  0  0  0  0
   63.5396   34.7506   47.4742 H   0  0  0  0  0  0  0  0  0  0  0  0
   62.9701   31.8071   48.0487 H   0  0  0  0  0  0  0  0  0  0  0  0
   64.1449   32.8795   48.9118 H   0  0  0  0  0  0  0  0  0  0  0  0
   61.6855   32.4435   49.8715 H   0  0  0  0  0  0  0  0  0  0  0  0
   62.5067   34.0634   49.9937 H   0  0  0  0  0  0  0  0  0  0  0  0
   59.9674   33.7857   49.1147 H   0  0  0  0  0  0  0  0  0  0  0  0
   61.0978   35.0608   48.5078 H   0  0  0  0  0  0  0  0  0  0  0  0
   58.8530   31.1878   46.6226 H   0  0  0  0  0  0  0  0  0  0  0  0
   58.8783   27.1782   46.2961 H   0  0  0  0  0  0  0  0  0  0  0  0
   58.9183   24.8867   47.2953 H   0  0  0  0  0  0  0  0  0  0  0  0
   54.6217   26.7502   45.6184 H   0  0  0  0  0  0  0  0  0  0  0  0
  1  2  2  0
  2  3  1  0
  3  4  1  0
  4  5  2  0
  5  6  1  0
  6  7  2  0
  7  8  1  0
  8  9  1  0
  9 10  2  0
  9 11  2  0
  9 12  1  0
 12 13  1  0
 13 14  1  0
 14 15  1  0
 15 16  1  0
 16 17  1  0
  8 18  2  0
  2 19  1  0
 19 20  1  0
 20 21  2  0
 21 22  1  0
 22 23  2  0
 22 24  1  0
 24 25  1  0
 18  4  1  0
 25 19  2  0
 17 12  1  0
  5 26  1  0
  6 27  1  0
  7 28  1  0
 12 29  1  0
 13 30  1  0
 13 31  1  0
 14 32  1  0
 14 33  1  0
 15 34  1  0
 15 35  1  0
 16 36  1  0
 16 37  1  0
 17 38  1  0
 17 39  1  0
 18 40  1  0
 20 41  1  0
 21 42  1  0
 25 43  1  0
M  CHG  3   3  -1  12   1  24  -1
M  END
>  <UniqueID>  (64) 
60

>  <SMILES>  (64) 
O=C([N-]c1cccc(S(=O)(=O)[NH+]2CCCCC2)c1)c1ccc(=O)[n-]c1

>  <Energy>  (64) 
52.53226478753841

>  <Genealogy>  (64) 
O=C([N-]c1cccc(S(=O)(=O)[NH+]2CCCCC2)c1)c1ccc(=O)[n-]c1 (protonated)
O=C([N-]c1cccc(S(=O)(=O)[NH+]2CCCCC2)c1)c1ccc(=O)[n-]c1 (3D coordinates assigned)
O=C([N-]c1cccc(S(=O)(=O)[NH+]2CCCCC2)c1)c1ccc(=O)[n-]c1 (nonaromatic ring conformer: 52.53226478753841 kcal/mol)

>  <smiles>  (64) 
O=C(Nc1cccc(S(=O)(=O)N2CCCCC2)c1)c1ccc(=O)[nH]c1

>  <score_type>  (64) 
oracle

>  <origin>  (64) 
adg

>  <m_score__min__energy>  (64) 
-11.6

>  <m_primary>  (64) 
energy

$$$$
64:0
     RDKit          3D

 44 47  0  0  1  0  0  0  0  0999 V2000
   56.3890   29.5230   42.8300 N   0  0  0  0  0  0  0  0  0  0  0  0
   56.2780   29.2020   44.2110 C   0  0  0  0  0  0  0  0  0  0  0  0
   55.2000   29.4210   44.8610 O   0  0  0  0  0  0  0  0  0  0  0  0
   57.4280   28.6080   44.9050 C   0  0  0  0  0  0  0  0  0  0  0  0
   57.3070   27.4010   45.5870 C   0  0  0  0  0  0  0  0  0  0  0  0
   58.3920   26.8330   46.2460 C   0  0  0  0  0  0  0  0  0  0  0  0
   59.6150   27.4750   46.2250 C   0  0  0  0  0  0  0  0  0  0  0  0
   59.7220   28.6800   45.5400 C   0  0  0  0  0  0  0  0  0  0  0  0
   58.6470   29.2530   44.8810 C   0  0  0  0  0  0  0  0  0  0  0  0
   58.7460   30.4870   44.1760 N   0  0  0  0  0  0  0  0  0  0  0  0
   58.3660   31.6050   44.7000 C   0  0  0  0  0  0  0  0  0  0  0  0
   58.4370   31.8170   46.0260 N   0  0  0  0  0  0  0  0  0  0  0  0
   58.0510   32.9680   46.6000 C   0  0  0  0  0  0  0  0  0  0  0  0
   58.1050   33.2040   47.8600 N   0  0  0  0  0  0  0  0  0  0  0  0
   59.3890   33.3020   48.4660 C   0  0  0  0  0  0  0  0  0  0  0  0
   59.4700   33.5440   49.8390 C   0  0  0  0  0  0  0  0  0  0  0  0
   60.6860   33.6500   50.4900 C   0  0  0  0  0  0  0  0  0  0  0  0
   61.8640   33.5140   49.7570 C   0  0  0  0  0  0  0  0  0  0  0  0
   63.0970   33.6110   50.3550 C   0  0  0  0  0  0  0  0  0  0  0  0
   64.2480   33.4690   49.5910 C   0  0  0  0  0  0  0  0  0  0  0  0
   64.1860   33.2300   48.2310 C   0  0  0  0  0  0  0  0  0  0  0  0
   62.9460   33.1300   47.6200 C   0  0  0  0  0  0  0  0  0  0  0  0
   61.8090   33.2740   48.3930 C   0  0  0  0  0  0  0  0  0  0  0  0
   60.5680   33.1690   47.7540 C   0  0  0  0  0  0  0  0  0  0  0  0
   57.5760   33.9350   45.7960 N   0  0  0  0  0  0  0  0  0  0  0  0
   57.4770   33.7890   44.4600 C   0  0  0  0  0  0  0  0  0  0  0  0
   57.8770   32.6030   43.8770 C   0  0  0  0  0  0  0  0  0  0  0  0
   57.7790   32.3360   42.1410 Cl  0  0  0  0  0  0  0  0  0  0  0  0
   57.1650   30.1420   42.4630 H   0  0  0  0  0  0  0  0  0  0  0  0
   55.6800   29.1340   42.1580 H   0  0  0  0  0  0  0  0  0  0  0  0
   56.3349   26.8865   45.6052 H   0  0  0  0  0  0  0  0  0  0  0  0
   58.2771   25.8785   46.7806 H   0  0  0  0  0  0  0  0  0  0  0  0
   60.4856   27.0420   46.7393 H   0  0  0  0  0  0  0  0  0  0  0  0
   60.6934   29.1958   45.5207 H   0  0  0  0  0  0  0  0  0  0  0  0
   58.8090   31.0530   46.6300 H   0  0  0  0  0  0  0  0  0  0  0  0
   58.5415   33.6533   50.4187 H   0  0  0  0  0  0  0  0  0  0  0  0
   60.7230   33.8393   51.5730 H   0  0  0  0  0  0  0  0  0  0  0  0
   63.1724   33.8006   51.4359 H   0  0  0  0  0  0  0  0  0  0  0  0
   65.2307   33.5485   50.0789 H   0  0  0  0  0  0  0  0  0  0  0  0
   65.1083   33.1206   47.6416 H   0  0  0  0  0  0  0  0  0  0  0  0
   62.8680   32.9395   46.5394 H   0  0  0  0  0  0  0  0  0  0  0  0
   60.5295   32.9782   46.6714 H   0  0  0  0  0  0  0  0  0  0  0  0
   57.2570   34.8580   46.1870 H   0  0  0  0  0  0  0  0  0  0  0  0
   57.0813   34.6068   43.8399 H   0  0  0  0  0  0  0  0  0  0  0  0
  1  2  1  0
  2  3  2  0
  2  4  1  0
  4  5  2  0
  5  6  1  0
  6  7  2  0
  7  8  1  0
  8  9  2  0
  9 10  1  0
 10 11  2  0
 11 12  1  0
 12 13  1  0
 13 14  2  0
 14 15  1  0
 15 16  2  0
 16 17  1  0
 17 18  2  0
 18 19  1  0
 19 20  2  0
 20 21  1  0
 21 22  2  0
 22 23  1  0
 23 24  2  0
 13 25  1  0
 25 26  1  0
 26 27  2  0
 27 28  1  0
  9  4  1  0
 27 11  1  0
 24 15  1  0
 23 18  1  0
  1 29  1  0
  1 30  1  0
  5 31  1  0
  6 32  1  0
  7 33  1  0
  8 34  1  0
 12 35  1  0
 16 36  1  0
 17 37  1  0
 19 38  1  0
 20 39  1  0
 21 40  1  0
 22 41  1  0
 24 42  1  0
 25 43  1  0
 26 44  1  0
M  END
>  <smiles>  (65) 
NC(=O)c1ccccc1N=c1[nH]c(=Nc2ccc3ccccc3c2)[nH]cc1Cl

>  <score_type>  (65) 
oracle

>  <origin>  (65) 
adg

>  <m_score__min__energy>  (65) 
-10.279999999999999

>  <m_primary>  (65) 
energy

$$$$
65:0
     RDKit          3D

 36 38  0  0  0  0  0  0  0  0999 V2000
   60.8780   32.4800   47.6740 C   0  0  0  0  0  0  0  0  0  0  0  0
   59.8180   31.7860   46.8870 C   0  0  0  0  0  0  0  0  0  0  0  0
   58.7650   32.4010   46.2330 C   0  0  0  0  0  0  0  0  0  0  0  0
   58.0510   31.3450   45.7170 C   0  0  0  0  0  0  0  0  0  0  0  0
   57.0230   31.4520   44.9960 O   0  0  0  0  0  0  0  0  0  0  0  0
   58.6330   30.1780   46.0640 N   0  0  0  0  0  0  0  0  0  0  0  0
   58.2170   28.8410   45.7260 C   0  0  0  0  0  0  0  0  0  0  0  0
   59.1480   27.9330   45.1950 C   0  0  0  0  0  0  0  0  0  0  0  0
   58.7640   26.6310   44.8680 C   0  0  0  0  0  0  0  0  0  0  0  0
   57.4420   26.2120   45.0660 C   0  0  0  0  0  0  0  0  0  0  0  0
   57.0480   24.8300   44.7220 C   0  0  0  0  0  0  0  0  0  0  0  0
   56.8650   24.5040   43.3680 C   0  0  0  0  0  0  0  0  0  0  0  0
   56.4700   23.2180   42.9960 C   0  0  0  0  0  0  0  0  0  0  0  0
   56.2550   22.2440   43.9710 C   0  0  0  0  0  0  0  0  0  0  0  0
   56.4430   22.5500   45.3210 C   0  0  0  0  0  0  0  0  0  0  0  0
   56.8470   23.8370   45.7120 C   0  0  0  0  0  0  0  0  0  0  0  0
   57.1130   24.1630   47.4340 S   0  0  0  0  0  0  0  0  0  0  0  0
   57.3800   22.6840   48.2890 N   0  0  0  0  0  0  0  0  0  0  0  0
   58.3040   25.0630   47.6000 O   0  0  0  0  0  0  0  0  0  0  0  0
   55.9060   24.8380   48.0230 O   0  0  0  0  0  0  0  0  0  0  0  0
   56.5110   27.1050   45.6240 C   0  0  0  0  0  0  0  0  0  0  0  0
   55.1970   26.7040   45.8500 O   0  0  0  0  0  0  0  0  0  0  0  0
   56.8970   28.4080   45.9510 C   0  0  0  0  0  0  0  0  0  0  0  0
   59.7160   30.4440   46.7800 N   0  0  0  0  0  0  0  0  0  0  0  0
   60.6808   32.3509   48.7484 H   0  0  0  0  0  0  0  0  0  0  0  0
   61.8595   32.0491   47.4270 H   0  0  0  0  0  0  0  0  0  0  0  0
   60.8755   33.5519   47.4270 H   0  0  0  0  0  0  0  0  0  0  0  0
   58.5505   33.4764   46.1466 H   0  0  0  0  0  0  0  0  0  0  0  0
   60.1890   28.2506   45.0353 H   0  0  0  0  0  0  0  0  0  0  0  0
   59.5035   25.9305   44.4527 H   0  0  0  0  0  0  0  0  0  0  0  0
   57.0343   25.2680   42.5949 H   0  0  0  0  0  0  0  0  0  0  0  0
   56.3282   22.9725   41.9332 H   0  0  0  0  0  0  0  0  0  0  0  0
   55.9368   21.2331   43.6764 H   0  0  0  0  0  0  0  0  0  0  0  0
   56.2732   21.7763   46.0843 H   0  0  0  0  0  0  0  0  0  0  0  0
   57.3900   21.9180   47.5790 H   0  0  0  0  0  0  0  0  0  0  0  0
   56.1628   29.1009   46.3879 H   0  0  0  0  0  0  0  0  0  0  0  0
  1  2  1  0
  2  3  2  0
  3  4  1  0
  4  5  2  0
  4  6  1  0
  6  7  1  0
  7  8  2  0
  8  9  1  0
  9 10  2  0
 10 11  1  0
 11 12  2  0
 12 13  1  0
 13 14  2  0
 14 15  1  0
 15 16  2  0
 16 17  1  0
 17 18  1  0
 17 19  2  0
 17 20  2  0
 10 21  1  0
 21 22  1  0
 21 23  2  0
  6 24  1  0
 24  2  1  0
 23  7  1  0
 16 11  1  0
  1 25  1  0
  1 26  1  0
  1 27  1  0
  3 28  1  0
  8 29  1  0
  9 30  1  0
 12 31  1  0
 13 32  1  0
 14 33  1  0
 15 34  1  0
 18 35  1  0
 23 36  1  0
M  CHG  3  18  -1  22  -1  24  -1
M  END
>  <UniqueID>  (66) 
61

>  <SMILES>  (66) 
Cc1cc(=O)n(-c2ccc(-c3ccccc3S([NH-])(=O)=O)c([O-])c2)[n-]1

>  <Energy>  (66) 
81.82540184342916

>  <Genealogy>  (66) 
Cc1cc(=O)n(-c2ccc(-c3ccccc3S([NH-])(=O)=O)c([O-])c2)[n-]1 (protonated)
Cc1cc(=O)n(-c2ccc(-c3ccccc3S([NH-])(=O)=O)c([O-])c2)[n-]1 (3D coordinates assigned)
Cc1cc(=O)n(-c2ccc(-c3ccccc3S([NH-])(=O)=O)c([O-])c2)[n-]1 (optimized conformer: 81.82540184342916 kcal/mol)

>  <smiles>  (66) 
Cc1cc(=O)n(-c2ccc(-c3ccccc3S(N)(=O)=O)c(O)c2)[nH]1

>  <score_type>  (66) 
oracle

>  <origin>  (66) 
adg

>  <m_score__min__energy>  (66) 
-12.93

>  <m_primary>  (66) 
energy

$$$$
66:0
     RDKit          3D

 45 47  0  0  0  0  0  0  0  0999 V2000
   58.2490   20.6580   46.3400 N   0  0  0  0  0  0  0  0  0  0  0  0
   57.2620   20.4900   47.4070 C   0  0  0  0  0  0  0  0  0  0  0  0
   55.8420   20.3340   46.8530 C   0  0  0  0  0  0  0  0  0  0  0  0
   55.8850   20.0770   45.4190 N   0  0  0  0  0  0  0  0  0  0  0  0
   56.0430   21.1150   44.4470 C   0  0  0  0  0  0  0  0  0  0  0  0
   56.2800   20.8140   43.2440 O   0  0  0  0  0  0  0  0  0  0  0  0
   55.9340   22.5370   44.8490 C   0  0  0  0  0  0  0  0  0  0  0  0
   54.7410   23.0330   45.4040 C   0  0  0  0  0  0  0  0  0  0  0  0
   54.6370   24.3750   45.7810 C   0  0  0  0  0  0  0  0  0  0  0  0
   55.7120   25.2510   45.5930 C   0  0  0  0  0  0  0  0  0  0  0  0
   55.5720   26.6160   46.0250 N   0  0  0  0  0  0  0  0  0  0  0  0
   56.2740   27.6380   45.6270 C   0  0  0  0  0  0  0  0  0  0  0  0
   57.6340   27.6030   45.6180 N   0  0  0  0  0  0  0  0  0  0  0  0
   58.3640   28.6610   45.1840 C   0  0  0  0  0  0  0  0  0  0  0  0
   57.7180   29.8210   44.7340 C   0  0  0  0  0  0  0  0  0  0  0  0
   58.4390   30.9610   44.2370 N   0  0  0  0  0  0  0  0  0  0  0  0
   58.1250   32.3410   44.4710 C   0  0  0  0  0  0  0  0  0  0  0  0
   57.5420   33.0170   43.5800 O   0  0  0  0  0  0  0  0  0  0  0  0
   58.5340   32.9880   45.7400 C   0  0  0  0  0  0  0  0  0  0  0  0
   58.5540   32.2590   46.9450 C   0  0  0  0  0  0  0  0  0  0  0  0
   58.9370   32.8750   48.1400 C   0  0  0  0  0  0  0  0  0  0  0  0
   59.3040   34.2220   48.1470 C   0  0  0  0  0  0  0  0  0  0  0  0
   59.2880   34.9570   46.9600 C   0  0  0  0  0  0  0  0  0  0  0  0
   58.9050   34.3460   45.7610 C   0  0  0  0  0  0  0  0  0  0  0  0
   56.3180   29.8230   44.7160 C   0  0  0  0  0  0  0  0  0  0  0  0
   55.6880   30.8280   44.2920 O   0  0  0  0  0  0  0  0  0  0  0  0
   55.6310   28.7400   45.1620 N   0  0  0  0  0  0  0  0  0  0  0  0
   56.9180   24.7540   45.0700 C   0  0  0  0  0  0  0  0  0  0  0  0
   57.0240   23.4120   44.6920 C   0  0  0  0  0  0  0  0  0  0  0  0
   58.1100   19.9070   45.6260 H   0  0  0  0  0  0  0  0  0  0  0  0
   58.0910   21.5790   45.8710 H   0  0  0  0  0  0  0  0  0  0  0  0
   57.5171   19.5922   47.9892 H   0  0  0  0  0  0  0  0  0  0  0  0
   57.2848   21.3913   48.0372 H   0  0  0  0  0  0  0  0  0  0  0  0
   55.3457   19.4922   47.3580 H   0  0  0  0  0  0  0  0  0  0  0  0
   55.2828   21.2638   47.0337 H   0  0  0  0  0  0  0  0  0  0  0  0
   53.8825   22.3594   45.5426 H   0  0  0  0  0  0  0  0  0  0  0  0
   53.7030   24.7453   46.2289 H   0  0  0  0  0  0  0  0  0  0  0  0
   59.4628   28.6086   45.1852 H   0  0  0  0  0  0  0  0  0  0  0  0
   58.2662   31.1973   46.9458 H   0  0  0  0  0  0  0  0  0  0  0  0
   58.9492   32.2976   49.0762 H   0  0  0  0  0  0  0  0  0  0  0  0
   59.6060   34.7045   49.0883 H   0  0  0  0  0  0  0  0  0  0  0  0
   59.5770   36.0183   46.9675 H   0  0  0  0  0  0  0  0  0  0  0  0
   58.8937   34.9302   44.8290 H   0  0  0  0  0  0  0  0  0  0  0  0
   57.7830   25.4242   44.9574 H   0  0  0  0  0  0  0  0  0  0  0  0
   57.9675   23.0375   44.2684 H   0  0  0  0  0  0  0  0  0  0  0  0
  1  2  1  0
  2  3  1  0
  3  4  1  0
  4  5  1  0
  5  6  2  0
  5  7  1  0
  7  8  2  0
  8  9  1  0
  9 10  2  0
 10 11  1  0
 11 12  2  3
 12 13  1  0
 13 14  1  0
 14 15  2  0
 15 16  1  0
 16 17  1  0
 17 18  2  0
 17 19  1  0
 19 20  2  0
 20 21  1  0
 21 22  2  0
 22 23  1  0
 23 24  2  0
 15 25  1  0
 25 26  2  0
 25 27  1  0
 10 28  1  0
 28 29  2  0
 29  7  1  0
 27 12  1  0
 24 19  1  0
  1 30  1  0
  1 31  1  0
  2 32  1  0
  2 33  1  0
  3 34  1  0
  3 35  1  0
  8 36  1  0
  9 37  1  0
 14 38  1  0
 20 39  1  0
 21 40  1  0
 22 41  1  0
 23 42  1  0
 24 43  1  0
 28 44  1  0
 29 45  1  0
M  CHG  4   4  -1  13  -1  16  -1  27  -1
M  END
>  <UniqueID>  (67) 
62

>  <SMILES>  (67) 
NCC[N-]C(=O)c1ccc(N=c2[n-]cc([N-]C(=O)c3ccccc3)c(=O)[n-]2)cc1

>  <Energy>  (67) 
55.59719180948592

>  <Genealogy>  (67) 
NCC[N-]C(=O)c1ccc(N=c2[n-]cc([N-]C(=O)c3ccccc3)c(=O)[n-]2)cc1 (protonated)
NCC[N-]C(=O)c1ccc(N=c2[n-]cc([N-]C(=O)c3ccccc3)c(=O)[n-]2)cc1 (3D coordinates assigned)
NCC[N-]C(=O)c1ccc(N=c2[n-]cc([N-]C(=O)c3ccccc3)c(=O)[n-]2)cc1 (optimized conformer: 55.59719180948592 kcal/mol)

>  <smiles>  (67) 
NCCNC(=O)c1ccc(N=c2[nH]cc(NC(=O)c3ccccc3)c(=O)[nH]2)cc1

>  <score_type>  (67) 
oracle

>  <origin>  (67) 
adg

>  <m_score__min__energy>  (67) 
-13.67

>  <m_primary>  (67) 
energy

$$$$
67:0
     RDKit          3D

 48 51  0  0  1  0  0  0  0  0999 V2000
   57.3990   29.8020   51.4500 O   0  0  0  0  0  0  0  0  0  0  0  0
   58.3960   30.5420   51.2950 C   0  0  0  0  0  0  0  0  0  0  0  0
   59.0150   31.3040   52.3180 N   0  0  0  0  0  0  0  0  0  0  0  0
   58.8770   32.5500   52.5230 C   0  0  0  0  0  0  0  0  0  0  0  0
   59.6500   33.3180   53.3610 C   0  0  0  0  0  0  0  0  0  0  0  0
   59.1490   34.5950   53.2670 C   0  0  0  0  0  0  0  0  0  0  0  0
   58.1130   34.5800   52.4010 N   0  0  0  0  0  0  0  0  0  0  0  0
   57.9410   33.3560   51.9490 N   0  0  0  0  0  0  0  0  0  0  0  0
   58.9970   30.6450   49.9560 C   0  0  0  0  0  0  0  0  0  0  0  0
   59.8390   31.7020   49.6820 C   0  0  0  0  0  0  0  0  0  0  0  0
   60.3750   31.7450   48.4040 C   0  0  0  0  0  0  0  0  0  0  0  0
   61.2140   32.7790   48.1000 O   0  0  0  0  0  0  0  0  0  0  0  0
   60.8460   34.1130   47.8370 C   0  0  0  0  0  0  0  0  0  0  0  0
   59.6680   34.0540   46.9150 C   0  0  0  0  0  0  0  0  0  0  0  0
   58.3930   33.8330   47.3130 C   0  0  0  0  0  0  0  0  0  0  0  0
   57.3870   33.7990   46.3530 C   0  0  0  0  0  0  0  0  0  0  0  0
   57.6850   33.9900   45.0220 C   0  0  0  0  0  0  0  0  0  0  0  0
   58.9860   34.2200   44.5870 C   0  0  0  0  0  0  0  0  0  0  0  0
   59.9570   34.2450   45.5670 C   0  0  0  0  0  0  0  0  0  0  0  0
   60.0580   30.7630   47.4830 C   0  0  0  0  0  0  0  0  0  0  0  0
   59.2100   29.7240   47.8010 C   0  0  0  0  0  0  0  0  0  0  0  0
   58.8530   28.6900   46.8680 C   0  0  0  0  0  0  0  0  0  0  0  0
   59.5610   28.4390   45.6870 C   0  0  0  0  0  0  0  0  0  0  0  0
   59.1930   27.4390   44.8090 C   0  0  0  0  0  0  0  0  0  0  0  0
   58.1030   26.6450   45.0700 C   0  0  0  0  0  0  0  0  0  0  0  0
   57.6300   25.3770   43.9570 Cl  0  0  0  0  0  0  0  0  0  0  0  0
   57.3910   26.8750   46.2300 C   0  0  0  0  0  0  0  0  0  0  0  0
   56.2390   26.0720   46.5520 N   0  0  0  0  0  0  0  0  0  0  0  0
   56.4220   25.1340   47.3440 O   0  0  0  0  0  0  0  0  0  0  0  0
   55.0250   26.3590   45.9980 O   0  0  0  0  0  0  0  0  0  0  0  0
   57.7690   27.8790   47.0990 C   0  0  0  0  0  0  0  0  0  0  0  0
   58.7050   29.7020   49.0400 N   0  0  0  0  0  0  0  0  0  0  0  0
   60.4950   32.9806   53.9792 H   0  0  0  0  0  0  0  0  0  0  0  0
   59.5270   35.4770   53.8047 H   0  0  0  0  0  0  0  0  0  0  0  0
   57.5330   35.4030   52.1260 H   0  0  0  0  0  0  0  0  0  0  0  0
   57.2360   32.9710   51.2670 H   0  0  0  0  0  0  0  0  0  0  0  0
   60.0725   32.4686   50.4355 H   0  0  0  0  0  0  0  0  0  0  0  0
   60.5717   34.6231   48.7722 H   0  0  0  0  0  0  0  0  0  0  0  0
   61.6775   34.6738   47.3853 H   0  0  0  0  0  0  0  0  0  0  0  0
   58.1568   33.6830   48.3768 H   0  0  0  0  0  0  0  0  0  0  0  0
   56.3460   33.6183   46.6591 H   0  0  0  0  0  0  0  0  0  0  0  0
   56.8714   33.9598   44.2823 H   0  0  0  0  0  0  0  0  0  0  0  0
   59.2265   34.3729   43.5246 H   0  0  0  0  0  0  0  0  0  0  0  0
   61.0014   34.4230   45.2710 H   0  0  0  0  0  0  0  0  0  0  0  0
   60.4926   30.8123   46.4737 H   0  0  0  0  0  0  0  0  0  0  0  0
   60.4388   29.0583   45.4508 H   0  0  0  0  0  0  0  0  0  0  0  0
   59.7782   27.2766   43.8919 H   0  0  0  0  0  0  0  0  0  0  0  0
   57.1780   28.0357   48.0134 H   0  0  0  0  0  0  0  0  0  0  0  0
  1  2  2  0
  2  3  1  0
  3  4  2  0
  4  5  1  0
  5  6  2  0
  6  7  1  0
  7  8  1  0
  2  9  1  0
  9 10  2  0
 10 11  1  0
 11 12  1  0
 12 13  1  0
 13 14  1  0
 14 15  2  0
 15 16  1  0
 16 17  2  0
 17 18  1  0
 18 19  2  0
 11 20  2  0
 20 21  1  0
 21 22  1  0
 22 23  2  0
 23 24  1  0
 24 25  2  0
 25 26  1  0
 25 27  1  0
 27 28  1  0
 28 29  2  0
 28 30  1  0
 27 31  2  0
 21 32  2  0
  8  4  1  0
 32  9  1  0
 19 14  1  0
 31 22  1  0
  5 33  1  0
  6 34  1  0
  7 35  1  0
  8 36  1  0
 10 37  1  0
 13 38  1  0
 13 39  1  0
 15 40  1  0
 16 41  1  0
 17 42  1  0
 18 43  1  0
 19 44  1  0
 20 45  1  0
 23 46  1  0
 24 47  1  0
 31 48  1  0
M  CHG  2  28   1  30  -1
M  END
>  <smiles>  (68) 
O=C(N=c1cc[nH][nH]1)c1cc(OCc2ccccc2)cc(-c2ccc(Cl)c([N+](=O)[O-])c2)n1

>  <score_type>  (68) 
oracle

>  <origin>  (68) 
adg

>  <m_score__min__energy>  (68) 
-10.130000000000001

>  <m_primary>  (68) 
energy

$$$$
68:0
     RDKit          3D

 35 37  0  0  0  0  0  0  0  0999 V2000
   56.6839   26.6129   46.6716 H   0  0  0  0  0  0  0  0  0  0  0  0
   57.3810   27.3360   46.2230 C   0  0  0  0  0  0  0  0  0  0  0  0
   58.6550   27.2480   46.4560 N   0  0  0  0  0  0  0  0  0  0  0  0
   59.3500   27.6440   47.6540 C   0  0  0  0  0  0  0  0  0  0  0  0
   60.1770   26.7370   48.3500 C   0  0  0  0  0  0  0  0  0  0  0  0
   60.3514   25.7318   47.9388 H   0  0  0  0  0  0  0  0  0  0  0  0
   60.7740   27.1040   49.5530 C   0  0  0  0  0  0  0  0  0  0  0  0
   61.4163   26.3931   50.0934 H   0  0  0  0  0  0  0  0  0  0  0  0
   60.5510   28.3770   50.0650 C   0  0  0  0  0  0  0  0  0  0  0  0
   60.9975   28.6697   51.0268 H   0  0  0  0  0  0  0  0  0  0  0  0
   59.7820   29.2580   49.3770 N   0  0  0  0  0  0  0  0  0  0  0  0
   59.1960   28.9580   48.1860 C   0  0  0  0  0  0  0  0  0  0  0  0
   58.4950   29.9010   47.6120 N   0  0  0  0  0  0  0  0  0  0  0  0
   58.9240   31.1880   47.1500 C   0  0  0  0  0  0  0  0  0  0  0  0
   60.2330   31.6140   47.4070 C   0  0  0  0  0  0  0  0  0  0  0  0
   60.9125   30.9772   47.9925 H   0  0  0  0  0  0  0  0  0  0  0  0
   60.6780   32.8470   46.9210 C   0  0  0  0  0  0  0  0  0  0  0  0
   61.7006   33.1872   47.1412 H   0  0  0  0  0  0  0  0  0  0  0  0
   59.8260   33.6480   46.1560 C   0  0  0  0  0  0  0  0  0  0  0  0
   60.1764   34.6205   45.7801 H   0  0  0  0  0  0  0  0  0  0  0  0
   58.5280   33.2140   45.8680 C   0  0  0  0  0  0  0  0  0  0  0  0
   57.4580   34.2190   44.9080 Cl  0  0  0  0  0  0  0  0  0  0  0  0
   58.0800   31.9800   46.3550 C   0  0  0  0  0  0  0  0  0  0  0  0
   57.0652   31.6304   46.1144 H   0  0  0  0  0  0  0  0  0  0  0  0
   56.8790   28.4070   45.3570 C   0  0  0  0  0  0  0  0  0  0  0  0
   55.6080   28.7290   45.2330 O   0  0  0  0  0  0  0  0  0  0  0  0
   55.4650   29.7250   44.4090 N   0  0  0  0  0  0  0  0  0  0  0  0
   54.5540   30.1660   44.1500 H   0  0  0  0  0  0  0  0  0  0  0  0
   56.6880   30.0690   43.9750 C   0  0  0  0  0  0  0  0  0  0  0  0
   56.9140   31.0120   43.1710 O   0  0  0  0  0  0  0  0  0  0  0  0
   57.6320   29.2440   44.5470 C   0  0  0  0  0  0  0  0  0  0  0  0
   59.1190   29.2940   44.3950 C   0  0  0  0  0  0  0  0  0  0  0  0
   59.5889   29.3098   45.3895 H   0  0  0  0  0  0  0  0  0  0  0  0
   59.4611   28.4069   43.8419 H   0  0  0  0  0  0  0  0  0  0  0  0
   59.4007   30.2021   43.8419 H   0  0  0  0  0  0  0  0  0  0  0  0
  1  2  1  0
  2  3  2  3
  3  4  1  0
  4  5  2  0
  5  6  1  0
  5  7  1  0
  7  8  1  0
  7  9  2  0
  9 10  1  0
  9 11  1  0
 11 12  1  0
 12 13  2  0
 13 14  1  0
 14 15  2  0
 15 16  1  0
 15 17  1  0
 17 18  1  0
 17 19  2  0
 19 20  1  0
 19 21  1  0
 21 22  1  0
 21 23  2  0
 23 24  1  0
  2 25  1  0
 25 26  1  0
 26 27  1  0
 27 28  1  0
 27 29  1  0
 29 30  2  0
 29 31  1  0
 31 32  1  0
 32 33  1  0
 32 34  1  0
 32 35  1  0
 12  4  1  0
 23 14  1  0
 31 25  2  0
M  CHG  1  11  -1
M  END
>  <UniqueID>  (69) 
63

>  <SMILES>  (69) 
Cc1c(C=Nc2ccc[n-]/c2=N/c2cccc(Cl)c2)o[nH]c1=O

>  <Energy>  (69) 
84.49018599940797

>  <Genealogy>  (69) 
Cc1c(C=Nc2ccc[n-]c2=Nc2cccc(Cl)c2)o[nH]c1=O (protonated)
Cc1c(C=Nc2ccc[n-]/c2=N/c2cccc(Cl)c2)o[nH]c1=O (cis-trans isomerization)
Cc1c(C=Nc2ccc[n-]/c2=N/c2cccc(Cl)c2)o[nH]c1=O (3D coordinates assigned)
Cc1c(C=Nc2ccc[n-]/c2=N/c2cccc(Cl)c2)o[nH]c1=O (optimized conformer: 84.49018599940797 kcal/mol)

>  <smiles>  (69) 
Cc1c(C=Nc2ccc[nH]c2=Nc2cccc(Cl)c2)o[nH]c1=O

>  <score_type>  (69) 
oracle

>  <origin>  (69) 
adg

>  <m_score__min__energy>  (69) 
-9.1699999999999999

>  <m_primary>  (69) 
energy

$$$$
69:0
     RDKit          3D

 42 44  0  0  0  0  0  0  0  0999 V2000
   60.7411   29.6732   48.9412 H   0  0  0  0  0  0  0  0  0  0  0  0
   59.9990   30.3590   49.3760 C   0  0  0  0  0  0  0  0  0  0  0  0
   58.9490   29.8600   50.0820 N   0  0  0  0  0  0  0  0  0  0  0  0
   58.0040   30.6670   50.6420 C   0  0  0  0  0  0  0  0  0  0  0  0
   57.0070   30.1750   51.3190 N   0  0  0  0  0  0  0  0  0  0  0  0
   56.6080   30.5270   52.6570 C   0  0  0  0  0  0  0  0  0  0  0  0
   57.1010   31.5390   53.2280 O   0  0  0  0  0  0  0  0  0  0  0  0
   55.6400   29.7140   53.3500 N   0  0  0  0  0  0  0  0  0  0  0  0
   55.9310   28.2980   53.5910 C   0  0  0  0  0  0  0  0  0  0  0  0
   55.9695   28.1108   54.6743 H   0  0  0  0  0  0  0  0  0  0  0  0
   55.1412   27.6794   53.1398 H   0  0  0  0  0  0  0  0  0  0  0  0
   56.9007   28.0410   53.1398 H   0  0  0  0  0  0  0  0  0  0  0  0
   54.3600   30.2900   53.7860 C   0  0  0  0  0  0  0  0  0  0  0  0
   53.8636   29.5913   54.4755 H   0  0  0  0  0  0  0  0  0  0  0  0
   54.5521   31.2468   54.2935 H   0  0  0  0  0  0  0  0  0  0  0  0
   53.4680   30.5350   52.6000 C   0  0  0  0  0  0  0  0  0  0  0  0
   53.6000   29.7630   51.4330 C   0  0  0  0  0  0  0  0  0  0  0  0
   54.3748   28.9843   51.3752 H   0  0  0  0  0  0  0  0  0  0  0  0
   52.7490   29.9820   50.3450 C   0  0  0  0  0  0  0  0  0  0  0  0
   52.8565   29.3752   49.4338 H   0  0  0  0  0  0  0  0  0  0  0  0
   51.7630   30.9690   50.4120 C   0  0  0  0  0  0  0  0  0  0  0  0
   51.0975   31.1410   49.5532 H   0  0  0  0  0  0  0  0  0  0  0  0
   51.6220   31.7390   51.5720 C   0  0  0  0  0  0  0  0  0  0  0  0
   50.6390   32.7190   51.6390 O   0  0  0  0  0  0  0  0  0  0  0  0
   52.4710   31.5230   52.6630 C   0  0  0  0  0  0  0  0  0  0  0  0
   52.3574   32.1292   53.5738 H   0  0  0  0  0  0  0  0  0  0  0  0
   58.1080   32.0530   50.4910 C   0  0  0  0  0  0  0  0  0  0  0  0
   57.3533   32.7164   50.9386 H   0  0  0  0  0  0  0  0  0  0  0  0
   59.1750   32.5900   49.7690 C   0  0  0  0  0  0  0  0  0  0  0  0
   59.2596   33.6798   49.6459 H   0  0  0  0  0  0  0  0  0  0  0  0
   60.1410   31.7450   49.1990 C   0  0  0  0  0  0  0  0  0  0  0  0
   61.2840   32.3020   48.4290 C   0  0  0  0  0  0  0  0  0  0  0  0
   61.0770   33.3000   47.4580 C   0  0  0  0  0  0  0  0  0  0  0  0
   60.0599   33.6725   47.2662 H   0  0  0  0  0  0  0  0  0  0  0  0
   62.1540   33.8210   46.7360 C   0  0  0  0  0  0  0  0  0  0  0  0
   61.9819   34.6014   45.9802 H   0  0  0  0  0  0  0  0  0  0  0  0
   63.4480   33.3530   46.9720 C   0  0  0  0  0  0  0  0  0  0  0  0
   64.2941   33.7636   46.4015 H   0  0  0  0  0  0  0  0  0  0  0  0
   63.6680   32.3630   47.9330 C   0  0  0  0  0  0  0  0  0  0  0  0
   64.6880   31.9962   48.1201 H   0  0  0  0  0  0  0  0  0  0  0  0
   62.5940   31.8380   48.6570 C   0  0  0  0  0  0  0  0  0  0  0  0
   62.7732   31.0567   49.4104 H   0  0  0  0  0  0  0  0  0  0  0  0
  1  2  1  0
  2  3  1  0
  3  4  1  0
  4  5  2  0
  5  6  1  0
  6  7  2  0
  6  8  1  0
  8  9  1  0
  9 10  1  0
  9 11  1  0
  9 12  1  0
  8 13  1  0
 13 14  1  0
 13 15  1  0
 13 16  1  0
 16 17  2  0
 17 18  1  0
 17 19  1  0
 19 20  1  0
 19 21  2  0
 21 22  1  0
 21 23  1  0
 23 24  1  0
 23 25  2  0
 25 26  1  0
  4 27  1  0
 27 28  1  0
 27 29  2  0
 29 30  1  0
 29 31  1  0
 31 32  1  0
 32 33  2  0
 33 34  1  0
 33 35  1  0
 35 36  1  0
 35 37  2  0
 37 38  1  0
 37 39  1  0
 39 40  1  0
 39 41  2  0
 41 42  1  0
 31  2  2  0
 41 32  1  0
 25 16  1  0
M  CHG  2   3  -1  24  -1
M  END
>  <UniqueID>  (70) 
64

>  <SMILES>  (70) 
CN(Cc1cccc([O-])c1)C(=O)/N=c1/ccc(-c2ccccc2)c[n-]1

>  <Energy>  (70) 
50.06199044836316

>  <Genealogy>  (70) 
CN(Cc1cccc([O-])c1)C(=O)N=c1ccc(-c2ccccc2)c[n-]1 (protonated)
CN(Cc1cccc([O-])c1)C(=O)/N=c1/ccc(-c2ccccc2)c[n-]1 (cis-trans isomerization)
CN(Cc1cccc([O-])c1)C(=O)/N=c1/ccc(-c2ccccc2)c[n-]1 (3D coordinates assigned)
CN(Cc1cccc([O-])c1)C(=O)/N=c1/ccc(-c2ccccc2)c[n-]1 (optimized conformer: 50.06199044836316 kcal/mol)

>  <smiles>  (70) 
CN(Cc1cccc(O)c1)C(=O)N=c1ccc(-c2ccccc2)c[nH]1

>  <score_type>  (70) 
oracle

>  <origin>  (70) 
adg

>  <m_score__min__energy>  (70) 
-13.01

>  <m_primary>  (70) 
energy

$$$$
70:0
     RDKit          3D

 53 56  0  0  0  0  0  0  0  0999 V2000
   55.0799   28.6485   44.2500 H   0  0  0  0  0  0  0  0  0  0  0  0
   55.9470   29.0830   44.7690 C   0  0  0  0  0  0  0  0  0  0  0  0
   56.2640   30.3890   44.5780 N   0  0  0  0  0  0  0  0  0  0  0  0
   57.3330   30.9500   45.1970 C   0  0  0  0  0  0  0  0  0  0  0  0
   57.6130   32.2000   44.9790 N   0  0  0  0  0  0  0  0  0  0  0  0
   58.2100   33.1070   45.9630 C   0  0  1  0  0  0  0  0  0  0  0  0
   57.6617   32.9390   46.9017 H   0  0  0  0  0  0  0  0  0  0  0  0
   59.7050   32.8430   46.1340 C   0  0  0  0  0  0  0  0  0  0  0  0
   60.0919   32.2997   45.2593 H   0  0  0  0  0  0  0  0  0  0  0  0
   59.8881   32.2313   47.0297 H   0  0  0  0  0  0  0  0  0  0  0  0
   60.3780   34.1440   46.2530 N   0  0  0  0  0  0  0  0  0  0  0  0
   60.4620   34.5740   47.6660 C   0  0  0  0  0  0  0  0  0  0  0  0
   60.6309   35.6603   47.7045 H   0  0  0  0  0  0  0  0  0  0  0  0
   59.5194   34.3189   48.1724 H   0  0  0  0  0  0  0  0  0  0  0  0
   61.5960   33.8710   48.3640 C   0  0  0  0  0  0  0  0  0  0  0  0
   62.7010   33.4210   47.6250 C   0  0  0  0  0  0  0  0  0  0  0  0
   62.7304   33.5730   46.5359 H   0  0  0  0  0  0  0  0  0  0  0  0
   63.7650   32.7800   48.2680 C   0  0  0  0  0  0  0  0  0  0  0  0
   64.6267   32.4263   47.6829 H   0  0  0  0  0  0  0  0  0  0  0  0
   63.7360   32.5880   49.6510 C   0  0  0  0  0  0  0  0  0  0  0  0
   64.5732   32.0825   50.1546 H   0  0  0  0  0  0  0  0  0  0  0  0
   62.6420   33.0390   50.3940 C   0  0  0  0  0  0  0  0  0  0  0  0
   62.6204   32.8904   51.4837 H   0  0  0  0  0  0  0  0  0  0  0  0
   61.5740   33.6790   49.7560 C   0  0  0  0  0  0  0  0  0  0  0  0
   60.7151   34.0327   50.3452 H   0  0  0  0  0  0  0  0  0  0  0  0
   59.5500   35.0620   45.4580 C   0  0  0  0  0  0  0  0  0  0  0  0
   59.9151   35.0902   44.4207 H   0  0  0  0  0  0  0  0  0  0  0  0
   59.6004   36.0788   45.8745 H   0  0  0  0  0  0  0  0  0  0  0  0
   58.1160   34.5500   45.4870 C   0  0  0  0  0  0  0  0  0  0  0  0
   57.6710   34.5953   44.4820 H   0  0  0  0  0  0  0  0  0  0  0  0
   57.4787   35.1571   46.1468 H   0  0  0  0  0  0  0  0  0  0  0  0
   58.1060   30.1930   46.0230 N   0  0  0  0  0  0  0  0  0  0  0  0
   57.8260   28.8860   46.2620 C   0  0  0  0  0  0  0  0  0  0  0  0
   58.6650   28.1700   47.1230 O   0  0  0  0  0  0  0  0  0  0  0  0
   59.3190   28.7190   48.2360 C   0  0  0  0  0  0  0  0  0  0  0  0
   58.9060   29.9730   48.7030 C   0  0  0  0  0  0  0  0  0  0  0  0
   58.0759   30.4954   48.2050 H   0  0  0  0  0  0  0  0  0  0  0  0
   59.5420   30.5650   49.7980 C   0  0  0  0  0  0  0  0  0  0  0  0
   59.2171   31.5541   50.1532 H   0  0  0  0  0  0  0  0  0  0  0  0
   60.5900   29.9020   50.4420 C   0  0  0  0  0  0  0  0  0  0  0  0
   61.2060   30.4770   51.5030 F   0  0  0  0  0  0  0  0  0  0  0  0
   60.9910   28.6380   50.0010 C   0  0  0  0  0  0  0  0  0  0  0  0
   61.8090   28.1122   50.5153 H   0  0  0  0  0  0  0  0  0  0  0  0
   60.3560   28.0390   48.9080 C   0  0  0  0  0  0  0  0  0  0  0  0
   60.7250   26.7870   48.5370 F   0  0  0  0  0  0  0  0  0  0  0  0
   56.7190   28.2860   45.6240 C   0  0  0  0  0  0  0  0  0  0  0  0
   56.4490   26.8360   45.7360 C   0  0  0  0  0  0  0  0  0  0  0  0
   57.3990   26.0250   45.5760 O   0  0  0  0  0  0  0  0  0  0  0  0
   55.1460   26.3180   46.0290 N   0  0  0  0  0  0  0  0  0  0  0  0
   54.6490   25.0130   45.6150 C   0  0  0  0  0  0  0  0  0  0  0  0
   54.4190   24.4090   46.5051 H   0  0  0  0  0  0  0  0  0  0  0  0
   53.7370   25.1419   45.0136 H   0  0  0  0  0  0  0  0  0  0  0  0
   55.4157   24.5026   45.0136 H   0  0  0  0  0  0  0  0  0  0  0  0
  1  2  1  0
  2  3  1  0
  3  4  1  0
  4  5  2  0
  5  6  1  0
  6  7  1  1
  6  8  1  0
  8  9  1  0
  8 10  1  0
  8 11  1  0
 11 12  1  0
 12 13  1  0
 12 14  1  0
 12 15  1  0
 15 16  2  0
 16 17  1  0
 16 18  1  0
 18 19  1  0
 18 20  2  0
 20 21  1  0
 20 22  1  0
 22 23  1  0
 22 24  2  0
 24 25  1  0
 11 26  1  0
 26 27  1  0
 26 28  1  0
 26 29  1  0
 29 30  1  0
 29 31  1  0
  4 32  1  0
 32 33  2  0
 33 34  1  0
 34 35  1  0
 35 36  2  0
 36 37  1  0
 36 38  1  0
 38 39  1  0
 38 40  2  0
 40 41  1  0
 40 42  1  0
 42 43  1  0
 42 44  2  0
 44 45  1  0
 33 46  1  0
 46 47  1  0
 47 48  2  0
 47 49  1  0
 49 50  1  0
 50 51  1  0
 50 52  1  0
 50 53  1  0
 46  2  2  0
 29  6  1  0
 44 35  1  0
 24 15  1  0
M  CHG  2   3  -1  49  -1
M  END
>  <UniqueID>  (71) 
65

>  <SMILES>  (71) 
C[N-]C(=O)c1c[n-]/c(=N/[C@@H]2CCN(Cc3ccccc3)C2)nc1Oc1ccc(F)cc1F

>  <Energy>  (71) 
73.58593253629198

>  <Genealogy>  (71) 
C[N-]C(=O)c1c[n-]c(=NC2CCN(Cc3ccccc3)C2)nc1Oc1ccc(F)cc1F (protonated)
C[N-]C(=O)c1c[n-]c(=N[C@@H]2CCN(Cc3ccccc3)C2)nc1Oc1ccc(F)cc1F (chirality)
C[N-]C(=O)c1c[n-]/c(=N/[C@@H]2CCN(Cc3ccccc3)C2)nc1Oc1ccc(F)cc1F (cis-trans isomerization)
C[N-]C(=O)c1c[n-]/c(=N/[C@@H]2CCN(Cc3ccccc3)C2)nc1Oc1ccc(F)cc1F (3D coordinates assigned)
C[N-]C(=O)c1c[n-]/c(=N/[C@@H]2CCN(Cc3ccccc3)C2)nc1Oc1ccc(F)cc1F (nonaromatic ring conformer: 73.58593253629198 kcal/mol)

>  <smiles>  (71) 
CNC(=O)c1c[nH]c(=NC2CCN(Cc3ccccc3)C2)nc1Oc1ccc(F)cc1F

>  <score_type>  (71) 
oracle

>  <origin>  (71) 
adg

>  <m_score__min__energy>  (71) 
-11.76

>  <m_primary>  (71) 
energy

$$$$
71:0
     RDKit          3D

 64 68  0  0  0  0  0  0  0  0999 V2000
   56.5502   32.8377   44.1400 H   0  0  0  0  0  0  0  0  0  0  0  0
   57.1090   32.2800   44.9060 C   0  0  0  0  0  0  0  0  0  0  0  0
   57.1160   30.9250   44.8820 N   0  0  0  0  0  0  0  0  0  0  0  0
   57.7960   30.1950   45.8050 C   0  0  0  0  0  0  0  0  0  0  0  0
   57.7650   28.8020   45.7380 C   0  0  0  0  0  0  0  0  0  0  0  0
   57.1901   28.3118   44.9385 H   0  0  0  0  0  0  0  0  0  0  0  0
   58.4560   28.0140   46.6750 C   0  0  0  0  0  0  0  0  0  0  0  0
   58.3310   26.5370   46.5770 C   0  0  0  0  0  0  0  0  0  0  0  0
   59.5040   25.5080   45.9450 S   0  0  0  0  0  0  0  0  0  0  0  0
   58.6060   24.0890   46.0340 C   0  0  0  0  0  0  0  0  0  0  0  0
   59.0740   22.7540   45.6050 C   0  0  0  0  0  0  0  0  0  0  0  0
   60.2710   22.5910   45.2480 O   0  0  0  0  0  0  0  0  0  0  0  0
   58.1850   21.6360   45.5860 N   0  0  0  0  0  0  0  0  0  0  0  0
   57.1990   21.7150   45.9180 H   0  0  0  0  0  0  0  0  0  0  0  0
   58.5260   20.7030   45.2630 H   0  0  0  0  0  0  0  0  0  0  0  0
   57.3580   24.4070   46.5700 C   0  0  0  0  0  0  0  0  0  0  0  0
   56.3140   23.4340   46.7180 N   0  0  0  0  0  0  0  0  0  0  0  0
   56.3090   22.3580   47.6610 C   0  0  0  0  0  0  0  0  0  0  0  0
   57.3450   22.0790   48.3230 O   0  0  0  0  0  0  0  0  0  0  0  0
   55.1330   21.6210   47.8350 O   0  0  0  0  0  0  0  0  0  0  0  0
   53.8630   22.0250   47.3990 C   0  0  0  0  0  0  0  0  0  0  0  0
   52.8390   22.1450   48.3460 C   0  0  0  0  0  0  0  0  0  0  0  0
   53.0406   21.9062   49.4007 H   0  0  0  0  0  0  0  0  0  0  0  0
   51.5650   22.5650   47.9630 C   0  0  0  0  0  0  0  0  0  0  0  0
   50.7646   22.6436   48.7135 H   0  0  0  0  0  0  0  0  0  0  0  0
   51.3030   22.8860   46.6290 C   0  0  0  0  0  0  0  0  0  0  0  0
   50.2954   23.2117   46.3311 H   0  0  0  0  0  0  0  0  0  0  0  0
   52.3240   22.7940   45.6650 C   0  0  0  0  0  0  0  0  0  0  0  0
   52.1140   23.1300   44.3190 O   0  0  0  0  0  0  0  0  0  0  0  0
   51.1970   24.1220   43.8690 C   0  0  0  0  0  0  0  0  0  0  0  0
   50.7384   24.6181   44.7371 H   0  0  0  0  0  0  0  0  0  0  0  0
   51.7316   24.8668   43.2612 H   0  0  0  0  0  0  0  0  0  0  0  0
   50.4126   23.6474   43.2612 H   0  0  0  0  0  0  0  0  0  0  0  0
   53.6020   22.3640   46.0540 C   0  0  0  0  0  0  0  0  0  0  0  0
   54.5980   22.3430   45.1330 F   0  0  0  0  0  0  0  0  0  0  0  0
   57.1950   25.7770   46.8470 C   0  0  0  0  0  0  0  0  0  0  0  0
   56.2611   26.2063   47.2388 H   0  0  0  0  0  0  0  0  0  0  0  0
   59.2400   28.6570   47.6700 C   0  0  0  0  0  0  0  0  0  0  0  0
   60.0950   27.8920   48.6490 C   0  0  0  0  0  0  0  0  0  0  0  0
   59.8012   28.1549   49.6759 H   0  0  0  0  0  0  0  0  0  0  0  0
   59.9548   26.8122   48.4926 H   0  0  0  0  0  0  0  0  0  0  0  0
   61.1526   28.1509   48.4926 H   0  0  0  0  0  0  0  0  0  0  0  0
   59.2340   30.0600   47.7590 C   0  0  0  0  0  0  0  0  0  0  0  0
   59.7951   30.5540   48.5659 H   0  0  0  0  0  0  0  0  0  0  0  0
   58.5200   30.8430   46.8300 C   0  0  0  0  0  0  0  0  0  0  0  0
   58.5170   32.2580   46.8840 C   0  0  0  0  0  0  0  0  0  0  0  0
   59.1760   32.8650   47.8360 N   0  0  0  0  0  0  0  0  0  0  0  0
   60.5900   33.2520   47.8530 C   0  0  0  0  0  0  0  0  0  0  0  0
   60.7090   34.1541   48.4711 H   0  0  0  0  0  0  0  0  0  0  0  0
   61.4580   32.1310   48.4650 C   0  0  0  0  0  0  0  0  0  0  0  0
   61.4334   32.2190   49.5612 H   0  0  0  0  0  0  0  0  0  0  0  0
   61.0494   31.1632   48.1387 H   0  0  0  0  0  0  0  0  0  0  0  0
   62.9210   32.2210   47.9890 C   0  0  0  0  0  0  0  0  0  0  0  0
   63.5870   31.9374   48.8172 H   0  0  0  0  0  0  0  0  0  0  0  0
   63.0552   31.5390   47.1364 H   0  0  0  0  0  0  0  0  0  0  0  0
   63.2370   33.5350   47.5700 O   0  0  0  0  0  0  0  0  0  0  0  0
   62.5600   33.8350   46.3580 C   0  0  0  0  0  0  0  0  0  0  0  0
   62.6953   34.9042   46.1376 H   0  0  0  0  0  0  0  0  0  0  0  0
   62.9915   33.1935   45.5755 H   0  0  0  0  0  0  0  0  0  0  0  0
   61.0440   33.5330   46.4150 C   0  0  0  0  0  0  0  0  0  0  0  0
   60.4901   34.4004   46.0265 H   0  0  0  0  0  0  0  0  0  0  0  0
   60.8426   32.6403   45.8046 H   0  0  0  0  0  0  0  0  0  0  0  0
   57.8060   32.9710   45.8960 C   0  0  0  0  0  0  0  0  0  0  0  0
   57.8016   34.0709   45.9068 H   0  0  0  0  0  0  0  0  0  0  0  0
  1  2  1  0
  2  3  1  0
  3  4  1  0
  4  5  2  0
  5  6  1  0
  5  7  1  0
  7  8  1  0
  8  9  1  0
  9 10  1  0
 10 11  1  0
 11 12  2  0
 11 13  1  0
 13 14  1  0
 13 15  1  0
 10 16  2  0
 16 17  1  0
 17 18  1  0
 18 19  2  0
 18 20  1  0
 20 21  1  0
 21 22  2  0
 22 23  1  0
 22 24  1  0
 24 25  1  0
 24 26  2  0
 26 27  1  0
 26 28  1  0
 28 29  1  0
 29 30  1  0
 30 31  1  0
 30 32  1  0
 30 33  1  0
 28 34  2  0
 34 35  1  0
 16 36  1  0
 36 37  1  0
  7 38  2  0
 38 39  1  0
 39 40  1  0
 39 41  1  0
 39 42  1  0
 38 43  1  0
 43 44  1  0
 43 45  2  0
 45 46  1  0
 46 47  2  0
 47 48  1  0
 48 49  1  0
 48 50  1  0
 50 51  1  0
 50 52  1  0
 50 53  1  0
 53 54  1  0
 53 55  1  0
 53 56  1  0
 56 57  1  0
 57 58  1  0
 57 59  1  0
 57 60  1  0
 60 61  1  0
 60 62  1  0
 46 63  1  0
 63 64  1  0
 63  2  2  0
 45  4  1  0
 60 48  1  0
 36  8  2  0
 34 21  1  0
M  CHG  2   3  -1  17  -1
M  END
>  <UniqueID>  (72) 
66

>  <SMILES>  (72) 
COc1cccc(OC(=O)[N-]c2cc(-c3cc4[n-]cc/c(=N\C5CCOCC5)c4cc3C)sc2C(N)=O)c1F

>  <Energy>  (72) 
122.49250098688528

>  <Genealogy>  (72) 
COc1cccc(OC(=O)[N-]c2cc(-c3cc4[n-]ccc(=NC5CCOCC5)c4cc3C)sc2C(N)=O)c1F (protonated)
COc1cccc(OC(=O)[N-]c2cc(-c3cc4[n-]cc/c(=N\C5CCOCC5)c4cc3C)sc2C(N)=O)c1F (cis-trans isomerization)
COc1cccc(OC(=O)[N-]c2cc(-c3cc4[n-]cc/c(=N\C5CCOCC5)c4cc3C)sc2C(N)=O)c1F (3D coordinates assigned)
COc1cccc(OC(=O)[N-]c2cc(-c3cc4[n-]cc/c(=N\C5CCOCC5)c4cc3C)sc2C(N)=O)c1F (nonaromatic ring conformer: 122.49250098688528 kcal/mol)

>  <smiles>  (72) 
COc1cccc(OC(=O)Nc2cc(-c3cc4[nH]ccc(=NC5CCOCC5)c4cc3C)sc2C(N)=O)c1F

>  <score_type>  (72) 
oracle

>  <origin>  (72) 
adg

>  <m_score__min__energy>  (72) 
-12.75

>  <m_primary>  (72) 
energy

$$$$
72:0
     RDKit          3D

 42 44  0  0  1  0  0  0  0  0999 V2000
   61.1740   33.9430   46.9730 C   0  0  0  0  0  0  0  0  0  0  0  0
   60.0600   34.9320   46.8000 C   0  0  0  0  0  0  0  0  0  0  0  0
   59.3430   34.7880   45.1380 S   0  0  0  0  0  0  0  0  0  0  0  0
   58.5000   33.2290   44.9520 C   0  0  0  0  0  0  0  0  0  0  0  0
   57.9450   32.7910   43.7890 C   0  0  0  0  0  0  0  0  0  0  0  0
   57.3000   31.5630   43.7000 C   0  0  0  0  0  0  0  0  0  0  0  0
   57.2030   30.7440   44.8080 C   0  0  0  0  0  0  0  0  0  0  0  0
   56.5540   29.4780   44.7740 N   0  0  0  0  0  0  0  0  0  0  0  0
   57.0140   28.4220   45.3640 C   0  0  0  0  0  0  0  0  0  0  0  0
   58.3100   28.3580   45.7030 N   0  0  0  0  0  0  0  0  0  0  0  0
   58.7270   27.2350   46.3110 C   0  0  0  0  0  0  0  0  0  0  0  0
   57.8960   26.1800   46.5910 C   0  0  0  0  0  0  0  0  0  0  0  0
   58.2850   25.0420   47.2000 F   0  0  0  0  0  0  0  0  0  0  0  0
   56.5750   26.2970   46.2210 C   0  0  0  0  0  0  0  0  0  0  0  0
   55.6880   25.3850   46.4210 N   0  0  0  0  0  0  0  0  0  0  0  0
   55.9260   24.0750   45.9230 C   0  0  0  0  0  0  0  0  0  0  0  0
   56.3050   23.0180   46.7260 C   0  0  0  0  0  0  0  0  0  0  0  0
   56.5190   21.7530   46.1680 C   0  0  0  0  0  0  0  0  0  0  0  0
   56.3500   21.5590   44.7920 C   0  0  0  0  0  0  0  0  0  0  0  0
   55.9680   22.6220   43.9890 C   0  0  0  0  0  0  0  0  0  0  0  0
   55.8100   22.3830   42.6200 O   0  0  0  0  0  0  0  0  0  0  0  0
   55.7600   23.8620   44.5550 C   0  0  0  0  0  0  0  0  0  0  0  0
   56.1410   27.4290   45.6040 N   0  0  0  0  0  0  0  0  0  0  0  0
   57.7690   31.1980   45.9810 C   0  0  0  0  0  0  0  0  0  0  0  0
   58.4060   32.4080   46.0710 C   0  0  0  0  0  0  0  0  0  0  0  0
   61.3569   33.7806   48.0455 H   0  0  0  0  0  0  0  0  0  0  0  0
   60.8948   32.9898   46.5002 H   0  0  0  0  0  0  0  0  0  0  0  0
   62.0874   34.3331   46.5002 H   0  0  0  0  0  0  0  0  0  0  0  0
   59.2800   34.7350   47.5502 H   0  0  0  0  0  0  0  0  0  0  0  0
   60.4599   35.9484   46.9306 H   0  0  0  0  0  0  0  0  0  0  0  0
   58.0087   33.4271   42.8938 H   0  0  0  0  0  0  0  0  0  0  0  0
   56.8646   31.2418   42.7423 H   0  0  0  0  0  0  0  0  0  0  0  0
   58.9290   29.1680   45.4840 H   0  0  0  0  0  0  0  0  0  0  0  0
   59.7860   27.1577   46.5982 H   0  0  0  0  0  0  0  0  0  0  0  0
   56.4391   23.1707   47.8071 H   0  0  0  0  0  0  0  0  0  0  0  0
   56.8197   20.9118   46.8098 H   0  0  0  0  0  0  0  0  0  0  0  0
   56.5198   20.5663   44.3496 H   0  0  0  0  0  0  0  0  0  0  0  0
   56.3230   22.9090   41.9310 H   0  0  0  0  0  0  0  0  0  0  0  0
   55.4563   24.7020   43.9130 H   0  0  0  0  0  0  0  0  0  0  0  0
   55.1440   27.5340   45.3160 H   0  0  0  0  0  0  0  0  0  0  0  0
   57.7067   30.5648   46.8783 H   0  0  0  0  0  0  0  0  0  0  0  0
   58.8428   32.7299   47.0278 H   0  0  0  0  0  0  0  0  0  0  0  0
  1  2  1  0
  2  3  1  0
  3  4  1  0
  4  5  2  0
  5  6  1  0
  6  7  2  0
  7  8  1  0
  8  9  2  0
  9 10  1  0
 10 11  1  0
 11 12  2  0
 12 13  1  0
 12 14  1  0
 14 15  2  0
 15 16  1  0
 16 17  2  0
 17 18  1  0
 18 19  2  0
 19 20  1  0
 20 21  1  0
 20 22  2  0
 14 23  1  0
  7 24  1  0
 24 25  2  0
 25  4  1  0
 23  9  1  0
 22 16  1  0
  1 26  1  0
  1 27  1  0
  1 28  1  0
  2 29  1  0
  2 30  1  0
  5 31  1  0
  6 32  1  0
 10 33  1  0
 11 34  1  0
 17 35  1  0
 18 36  1  0
 19 37  1  0
 21 38  1  0
 22 39  1  0
 23 40  1  0
 24 41  1  0
 25 42  1  0
M  END
>  <smiles>  (73) 
CCSc1ccc(N=c2[nH]cc(F)c(=Nc3cccc(O)c3)[nH]2)cc1

>  <score_type>  (73) 
oracle

>  <origin>  (73) 
adg

>  <m_score__min__energy>  (73) 
-8.5199999999999996

>  <m_primary>  (73) 
energy

$$$$
73:0
     RDKit          3D

 50 51  0  0  0  0  0  0  0  0999 V2000
   67.7160   33.7590   50.7850 C   0  0  0  0  0  0  0  0  0  0  0  0
   66.7860   32.7330   50.1370 C   0  0  0  0  0  0  0  0  0  0  0  0
   65.3050   32.9700   50.4780 C   0  0  0  0  0  0  0  0  0  0  0  0
   64.4850   31.6750   50.5790 C   0  0  0  0  0  0  0  0  0  0  0  0
   63.7390   31.4300   49.3850 O   0  0  0  0  0  0  0  0  0  0  0  0
   62.8390   32.3280   48.7860 C   0  0  0  0  0  0  0  0  0  0  0  0
   61.6350   32.6000   49.4480 C   0  0  0  0  0  0  0  0  0  0  0  0
   60.7020   33.4840   48.8950 C   0  0  0  0  0  0  0  0  0  0  0  0
   60.9550   34.0960   47.6620 C   0  0  0  0  0  0  0  0  0  0  0  0
   59.9980   35.0240   47.1280 N   0  0  0  0  0  0  0  0  0  0  0  0
   59.1570   34.7910   45.9910 C   0  0  0  0  0  0  0  0  0  0  0  0
   59.4280   35.3650   44.9020 O   0  0  0  0  0  0  0  0  0  0  0  0
   57.9820   33.9730   46.1000 N   0  0  0  0  0  0  0  0  0  0  0  0
   57.1440   33.6280   44.9510 C   0  0  0  0  0  0  0  0  0  0  0  0
   57.7900   32.5350   44.0850 C   0  0  0  0  0  0  0  0  0  0  0  0
   57.5340   31.1410   44.6120 C   0  0  0  0  0  0  0  0  0  0  0  0
   56.3330   30.4790   44.3040 C   0  0  0  0  0  0  0  0  0  0  0  0
   56.1190   29.1670   44.7340 C   0  0  0  0  0  0  0  0  0  0  0  0
   57.0990   28.5000   45.4800 C   0  0  0  0  0  0  0  0  0  0  0  0
   56.8530   26.8290   45.9740 S   0  0  0  0  0  0  0  0  0  0  0  0
   55.1600   26.4840   46.0060 N   0  0  0  0  0  0  0  0  0  0  0  0
   57.4370   26.6090   47.3410 O   0  0  0  0  0  0  0  0  0  0  0  0
   57.5360   25.9080   45.0040 O   0  0  0  0  0  0  0  0  0  0  0  0
   58.2760   29.1740   45.8330 C   0  0  0  0  0  0  0  0  0  0  0  0
   58.4890   30.4890   45.4110 C   0  0  0  0  0  0  0  0  0  0  0  0
   62.1720   33.8450   47.0100 C   0  0  0  0  0  0  0  0  0  0  0  0
   63.1060   32.9690   47.5630 C   0  0  0  0  0  0  0  0  0  0  0  0
   67.6438   33.6794   51.8797 H   0  0  0  0  0  0  0  0  0  0  0  0
   68.7521   33.5647   50.4707 H   0  0  0  0  0  0  0  0  0  0  0  0
   67.4212   34.7711   50.4707 H   0  0  0  0  0  0  0  0  0  0  0  0
   66.9082   32.7884   49.0452 H   0  0  0  0  0  0  0  0  0  0  0  0
   67.0613   31.7429   50.5294 H   0  0  0  0  0  0  0  0  0  0  0  0
   65.2495   33.4935   51.4438 H   0  0  0  0  0  0  0  0  0  0  0  0
   64.8746   33.5625   49.6572 H   0  0  0  0  0  0  0  0  0  0  0  0
   65.1697   30.8315   50.7515 H   0  0  0  0  0  0  0  0  0  0  0  0
   63.7750   31.7816   51.4124 H   0  0  0  0  0  0  0  0  0  0  0  0
   61.4210   32.1142   50.4114 H   0  0  0  0  0  0  0  0  0  0  0  0
   59.7660   33.6988   49.4314 H   0  0  0  0  0  0  0  0  0  0  0  0
   57.6550   33.6840   47.0490 H   0  0  0  0  0  0  0  0  0  0  0  0
   56.1712   33.2660   45.3150 H   0  0  0  0  0  0  0  0  0  0  0  0
   57.0224   34.5291   44.3320 H   0  0  0  0  0  0  0  0  0  0  0  0
   57.3807   32.6062   43.0665 H   0  0  0  0  0  0  0  0  0  0  0  0
   58.8774   32.7001   44.1008 H   0  0  0  0  0  0  0  0  0  0  0  0
   55.5571   30.9968   43.7211 H   0  0  0  0  0  0  0  0  0  0  0  0
   55.1772   28.6559   44.4857 H   0  0  0  0  0  0  0  0  0  0  0  0
   54.7410   27.0840   46.7510 H   0  0  0  0  0  0  0  0  0  0  0  0
   59.0356   28.6656   46.4450 H   0  0  0  0  0  0  0  0  0  0  0  0
   59.4083   31.0163   45.7055 H   0  0  0  0  0  0  0  0  0  0  0  0
   62.3914   34.3435   46.0543 H   0  0  0  0  0  0  0  0  0  0  0  0
   64.0551   32.7788   47.0405 H   0  0  0  0  0  0  0  0  0  0  0  0
  1  2  1  0
  2  3  1  0
  3  4  1  0
  4  5  1  0
  5  6  1  0
  6  7  2  0
  7  8  1  0
  8  9  2  0
  9 10  1  0
 10 11  1  0
 11 12  2  0
 11 13  1  0
 13 14  1  0
 14 15  1  0
 15 16  1  0
 16 17  2  0
 17 18  1  0
 18 19  2  0
 19 20  1  0
 20 21  1  0
 20 22  2  0
 20 23  2  0
 19 24  1  0
 24 25  2  0
  9 26  1  0
 26 27  2  0
 27  6  1  0
 25 16  1  0
  1 28  1  0
  1 29  1  0
  1 30  1  0
  2 31  1  0
  2 32  1  0
  3 33  1  0
  3 34  1  0
  4 35  1  0
  4 36  1  0
  7 37  1  0
  8 38  1  0
 13 39  1  0
 14 40  1  0
 14 41  1  0
 15 42  1  0
 15 43  1  0
 17 44  1  0
 18 45  1  0
 21 46  1  0
 24 47  1  0
 25 48  1  0
 26 49  1  0
 27 50  1  0
M  CHG  2  10  -1  21  -1
M  END
>  <UniqueID>  (74) 
67

>  <SMILES>  (74) 
CCCCOc1ccc([N-]C(=O)NCCc2ccc(S([NH-])(=O)=O)cc2)cc1

>  <Energy>  (74) 
40.91241911080299

>  <Genealogy>  (74) 
CCCCOc1ccc([N-]C(=O)NCCc2ccc(S([NH-])(=O)=O)cc2)cc1 (protonated)
CCCCOc1ccc([N-]C(=O)NCCc2ccc(S([NH-])(=O)=O)cc2)cc1 (3D coordinates assigned)
CCCCOc1ccc([N-]C(=O)NCCc2ccc(S([NH-])(=O)=O)cc2)cc1 (optimized conformer: 40.91241911080299 kcal/mol)

>  <smiles>  (74) 
CCCCOc1ccc(NC(=O)NCCc2ccc(S(N)(=O)=O)cc2)cc1

>  <score_type>  (74) 
oracle

>  <origin>  (74) 
adg

>  <m_score__min__energy>  (74) 
-12.24

>  <m_primary>  (74) 
energy

$$$$
74:0
     RDKit          3D

 28 29  0  0  0  0  0  0  0  0999 V2000
   55.1320   28.9360   45.4630 H   0  0  0  0  0  0  0  0  0  0  0  0
   55.0850   29.4870   44.5770 N   0  0  0  0  0  0  0  0  0  0  0  0
   56.5540   30.3930   44.4630 S   0  0  0  0  0  0  0  0  0  0  0  0
   57.0370   30.3470   43.0400 O   0  0  0  0  0  0  0  0  0  0  0  0
   56.2780   31.8160   44.8550 O   0  0  0  0  0  0  0  0  0  0  0  0
   57.7960   29.7230   45.5300 C   0  0  0  0  0  0  0  0  0  0  0  0
   57.7680   28.3570   45.8580 C   0  0  0  0  0  0  0  0  0  0  0  0
   56.9768   27.7154   45.4429 H   0  0  0  0  0  0  0  0  0  0  0  0
   58.7380   27.7990   46.7100 C   0  0  0  0  0  0  0  0  0  0  0  0
   58.6930   26.3530   47.0520 C   0  0  0  0  0  0  0  0  0  0  0  0
   59.7610   25.6850   47.0950 O   0  0  0  0  0  0  0  0  0  0  0  0
   57.4640   25.7110   47.4140 N   0  0  0  0  0  0  0  0  0  0  0  0
   56.7080   24.9460   46.6740 C   0  0  0  0  0  0  0  0  0  0  0  0
   57.0730   23.6410   46.5320 N   0  0  0  0  0  0  0  0  0  0  0  0
   56.3530   22.7560   45.7940 C   0  0  0  0  0  0  0  0  0  0  0  0
   56.6877   21.7116   45.7090 H   0  0  0  0  0  0  0  0  0  0  0  0
   55.1920   23.1690   45.1450 C   0  0  0  0  0  0  0  0  0  0  0  0
   54.5980   22.4534   44.5575 H   0  0  0  0  0  0  0  0  0  0  0  0
   54.7920   24.5000   45.2490 C   0  0  0  0  0  0  0  0  0  0  0  0
   53.8789   24.8389   44.7378 H   0  0  0  0  0  0  0  0  0  0  0  0
   55.5460   25.4060   46.0000 C   0  0  0  0  0  0  0  0  0  0  0  0
   55.1440   26.7360   46.0320 O   0  0  0  0  0  0  0  0  0  0  0  0
   59.7470   28.6280   47.2280 C   0  0  0  0  0  0  0  0  0  0  0  0
   60.5180   28.2038   47.8881 H   0  0  0  0  0  0  0  0  0  0  0  0
   59.7770   29.9870   46.9100 C   0  0  0  0  0  0  0  0  0  0  0  0
   60.5692   30.6271   47.3257 H   0  0  0  0  0  0  0  0  0  0  0  0
   58.8090   30.5410   46.0680 C   0  0  0  0  0  0  0  0  0  0  0  0
   58.8990   32.2650   45.7190 Cl  0  0  0  0  0  0  0  0  0  0  0  0
  1  2  1  0
  2  3  1  0
  3  4  2  0
  3  5  2  0
  3  6  1  0
  6  7  2  0
  7  8  1  0
  7  9  1  0
  9 10  1  0
 10 11  2  0
 10 12  1  0
 12 13  2  0
 13 14  1  0
 14 15  1  0
 15 16  1  0
 15 17  2  0
 17 18  1  0
 17 19  1  0
 19 20  1  0
 19 21  2  0
 21 22  1  0
  9 23  2  0
 23 24  1  0
 23 25  1  0
 25 26  1  0
 25 27  2  0
 27 28  1  0
 27  6  1  0
 21 13  1  0
M  CHG  3   2  -1  14  -1  22  -1
M  END
>  <UniqueID>  (75) 
68

>  <SMILES>  (75) 
[NH-]S(=O)(=O)c1cc(C(=O)/N=c2/[n-]cccc2[O-])ccc1Cl

>  <Energy>  (75) 
45.14363959261914

>  <Genealogy>  (75) 
[NH-]S(=O)(=O)c1cc(C(=O)N=c2[n-]cccc2[O-])ccc1Cl (protonated)
[NH-]S(=O)(=O)c1cc(C(=O)/N=c2/[n-]cccc2[O-])ccc1Cl (cis-trans isomerization)
[NH-]S(=O)(=O)c1cc(C(=O)/N=c2/[n-]cccc2[O-])ccc1Cl (3D coordinates assigned)
[NH-]S(=O)(=O)c1cc(C(=O)/N=c2/[n-]cccc2[O-])ccc1Cl (optimized conformer: 45.14363959261914 kcal/mol)

>  <smiles>  (75) 
NS(=O)(=O)c1cc(C(=O)N=c2[nH]cccc2O)ccc1Cl

>  <score_type>  (75) 
oracle

>  <origin>  (75) 
adg

>  <m_score__min__energy>  (75) 
-14.83

>  <m_primary>  (75) 
energy

$$$$
75:0
     RDKit          3D

 44 46  0  0  0  0  0  0  0  0999 V2000
   55.7160   27.9850   45.9870 H   0  0  0  0  0  0  0  0  0  0  0  0
   55.5200   27.0090   45.6750 N   0  0  0  0  0  0  0  0  0  0  0  0
   56.0950   25.8920   46.3530 C   0  0  0  0  0  0  0  0  0  0  0  0
   55.4580   24.8070   46.4020 O   0  0  0  0  0  0  0  0  0  0  0  0
   57.3830   25.9730   46.9860 N   0  0  0  0  0  0  0  0  0  0  0  0
   58.1920   26.9930   46.9980 C   0  0  0  0  0  0  0  0  0  0  0  0
   57.7770   28.2340   46.6140 N   0  0  0  0  0  0  0  0  0  0  0  0
   58.6100   29.3080   46.6290 C   0  0  0  0  0  0  0  0  0  0  0  0
   58.2419   30.2923   46.3040 H   0  0  0  0  0  0  0  0  0  0  0  0
   59.9320   29.1650   47.0560 C   0  0  0  0  0  0  0  0  0  0  0  0
   61.0270   30.5860   47.0790 S   0  0  0  0  0  0  0  0  0  0  0  0
   60.3510   31.2580   48.6100 C   0  0  0  0  0  0  0  0  0  0  0  0
   60.9110   30.8110   49.8160 C   0  0  0  0  0  0  0  0  0  0  0  0
   61.7124   30.0577   49.7986 H   0  0  0  0  0  0  0  0  0  0  0  0
   60.4610   31.3130   51.0370 C   0  0  0  0  0  0  0  0  0  0  0  0
   60.9058   30.9527   51.9763 H   0  0  0  0  0  0  0  0  0  0  0  0
   59.4480   32.2710   51.0690 C   0  0  0  0  0  0  0  0  0  0  0  0
   59.0946   32.6660   52.0329 H   0  0  0  0  0  0  0  0  0  0  0  0
   58.8820   32.7290   49.8760 C   0  0  0  0  0  0  0  0  0  0  0  0
   58.0794   33.4805   49.9077 H   0  0  0  0  0  0  0  0  0  0  0  0
   59.3280   32.2390   48.6350 C   0  0  0  0  0  0  0  0  0  0  0  0
   58.6270   32.7130   47.3910 C   0  0  0  0  0  0  0  0  0  0  0  0
   58.5588   31.8865   46.6684 H   0  0  0  0  0  0  0  0  0  0  0  0
   57.6128   33.0561   47.6434 H   0  0  0  0  0  0  0  0  0  0  0  0
   59.3870   33.8100   46.8080 N   0  0  0  0  0  0  0  0  0  0  0  0
   58.9510   34.5470   45.6660 C   0  0  0  0  0  0  0  0  0  0  0  0
   59.6440   35.5180   45.2610 O   0  0  0  0  0  0  0  0  0  0  0  0
   57.7480   34.1750   44.9820 N   0  0  0  0  0  0  0  0  0  0  0  0
   57.5310   32.9480   44.2720 C   0  0  0  0  0  0  0  0  0  0  0  0
   57.9710   32.7680   42.9480 C   0  0  0  0  0  0  0  0  0  0  0  0
   58.5174   33.5747   42.4374 H   0  0  0  0  0  0  0  0  0  0  0  0
   57.7160   31.5670   42.2790 C   0  0  0  0  0  0  0  0  0  0  0  0
   58.0709   31.4271   41.2473 H   0  0  0  0  0  0  0  0  0  0  0  0
   57.0110   30.5440   42.9190 C   0  0  0  0  0  0  0  0  0  0  0  0
   56.8194   29.5970   42.3931 H   0  0  0  0  0  0  0  0  0  0  0  0
   56.5490   30.7220   44.2260 C   0  0  0  0  0  0  0  0  0  0  0  0
   55.8380   29.6990   44.8490 O   0  0  0  0  0  0  0  0  0  0  0  0
   56.2930   29.0380   45.4690 H   0  0  0  0  0  0  0  0  0  0  0  0
   56.8030   31.9270   44.8980 C   0  0  0  0  0  0  0  0  0  0  0  0
   56.4286   32.0713   45.9222 H   0  0  0  0  0  0  0  0  0  0  0  0
   60.3910   27.9000   47.4290 C   0  0  0  0  0  0  0  0  0  0  0  0
   61.4373   27.7632   47.7397 H   0  0  0  0  0  0  0  0  0  0  0  0
   59.5190   26.8080   47.4070 C   0  0  0  0  0  0  0  0  0  0  0  0
   59.8720   25.8108   47.7086 H   0  0  0  0  0  0  0  0  0  0  0  0
  1  2  1  0
  2  3  1  0
  3  4  2  0
  3  5  1  0
  5  6  2  0
  6  7  1  0
  7  8  1  0
  8  9  1  0
  8 10  2  0
 10 11  1  0
 11 12  1  0
 12 13  2  0
 13 14  1  0
 13 15  1  0
 15 16  1  0
 15 17  2  0
 17 18  1  0
 17 19  1  0
 19 20  1  0
 19 21  2  0
 21 22  1  0
 22 23  1  0
 22 24  1  0
 22 25  1  0
 25 26  1  0
 26 27  2  0
 26 28  1  0
 28 29  1  0
 29 30  2  0
 30 31  1  0
 30 32  1  0
 32 33  1  0
 32 34  2  0
 34 35  1  0
 34 36  1  0
 36 37  1  0
 37 38  1  0
 36 39  2  0
 39 40  1  0
 10 41  1  0
 41 42  1  0
 41 43  2  0
 43 44  1  0
 43  6  1  0
 21 12  1  0
 39 29  1  0
M  CHG  4   2  -1   7  -1  25  -1  28  -1
M  END
>  <UniqueID>  (76) 
69

>  <SMILES>  (76) 
[NH-]C(=O)/N=c1/ccc(Sc2ccccc2C[N-]C(=O)[N-]c2cccc(O)c2)c[n-]1

>  <Energy>  (76) 
45.737610785937235

>  <Genealogy>  (76) 
[NH-]C(=O)N=c1ccc(Sc2ccccc2C[N-]C(=O)[N-]c2cccc(O)c2)c[n-]1 (protonated)
[NH-]C(=O)/N=c1/ccc(Sc2ccccc2C[N-]C(=O)[N-]c2cccc(O)c2)c[n-]1 (cis-trans isomerization)
[NH-]C(=O)/N=c1/ccc(Sc2ccccc2C[N-]C(=O)[N-]c2cccc(O)c2)c[n-]1 (3D coordinates assigned)
[NH-]C(=O)/N=c1/ccc(Sc2ccccc2C[N-]C(=O)[N-]c2cccc(O)c2)c[n-]1 (optimized conformer: 45.737610785937235 kcal/mol)

>  <smiles>  (76) 
NC(=O)N=c1ccc(Sc2ccccc2CNC(=O)Nc2cccc(O)c2)c[nH]1

>  <score_type>  (76) 
oracle

>  <origin>  (76) 
adg

>  <m_score__min__energy>  (76) 
-13.66

>  <m_primary>  (76) 
energy

$$$$
76:0
     RDKit          3D

 36 37  0  0  0  0  0  0  0  0999 V2000
   56.2840   29.3020   52.0150 O   0  0  0  0  0  0  0  0  0  0  0  0
   55.4400   30.2000   52.2730 C   0  0  0  0  0  0  0  0  0  0  0  0
   55.8850   31.6340   52.3190 C   0  0  0  0  0  0  0  0  0  0  0  0
   57.0690   31.8280   51.4850 N   0  0  0  0  0  0  0  0  0  0  0  0
   57.9250   32.9720   51.6260 C   0  0  0  0  0  0  0  0  0  0  0  0
   57.6150   33.9060   52.4150 O   0  0  0  0  0  0  0  0  0  0  0  0
   59.2180   33.0410   50.8750 C   0  0  0  0  0  0  0  0  0  0  0  0
   59.3320   31.6830   49.6580 S   0  0  0  0  0  0  0  0  0  0  0  0
   59.1840   32.7470   48.2120 C   0  0  0  0  0  0  0  0  0  0  0  0
   59.4290   34.1190   48.3510 C   0  0  0  0  0  0  0  0  0  0  0  0
   59.3370   34.9680   47.2440 C   0  0  0  0  0  0  0  0  0  0  0  0
   58.9880   34.4500   45.9950 C   0  0  0  0  0  0  0  0  0  0  0  0
   58.7270   33.0840   45.8510 C   0  0  0  0  0  0  0  0  0  0  0  0
   58.8190   32.2280   46.9550 C   0  0  0  0  0  0  0  0  0  0  0  0
   58.4790   30.5170   46.7300 Cl  0  0  0  0  0  0  0  0  0  0  0  0
   54.0690   29.8240   52.4690 N   0  0  0  0  0  0  0  0  0  0  0  0
   52.9370   30.7050   52.4720 C   0  0  0  0  0  0  0  0  0  0  0  0
   52.1860   30.9350   53.6380 C   0  0  0  0  0  0  0  0  0  0  0  0
   51.0690   31.7760   53.5980 C   0  0  0  0  0  0  0  0  0  0  0  0
   50.6850   32.3760   52.3960 C   0  0  0  0  0  0  0  0  0  0  0  0
   51.4110   32.1280   51.2280 C   0  0  0  0  0  0  0  0  0  0  0  0
   51.0210   32.7140   50.0300 O   0  0  0  0  0  0  0  0  0  0  0  0
   52.5290   31.2870   51.2650 C   0  0  0  0  0  0  0  0  0  0  0  0
   55.0726   32.2774   51.9501 H   0  0  0  0  0  0  0  0  0  0  0  0
   56.1339   31.8967   53.3578 H   0  0  0  0  0  0  0  0  0  0  0  0
   57.3380   31.0680   50.8210 H   0  0  0  0  0  0  0  0  0  0  0  0
   59.2781   34.0044   50.3475 H   0  0  0  0  0  0  0  0  0  0  0  0
   60.0479   32.9449   51.5906 H   0  0  0  0  0  0  0  0  0  0  0  0
   59.6951   34.5305   49.3358 H   0  0  0  0  0  0  0  0  0  0  0  0
   59.5394   36.0433   47.3568 H   0  0  0  0  0  0  0  0  0  0  0  0
   58.9183   35.1175   45.1234 H   0  0  0  0  0  0  0  0  0  0  0  0
   58.4483   32.6803   44.8665 H   0  0  0  0  0  0  0  0  0  0  0  0
   52.4772   30.4530   54.5829 H   0  0  0  0  0  0  0  0  0  0  0  0
   50.4916   31.9654   54.5149 H   0  0  0  0  0  0  0  0  0  0  0  0
   49.8112   33.0436   52.3691 H   0  0  0  0  0  0  0  0  0  0  0  0
   53.0902   31.0820   50.3414 H   0  0  0  0  0  0  0  0  0  0  0  0
  1  2  2  0
  2  3  1  0
  3  4  1  0
  4  5  1  0
  5  6  2  0
  5  7  1  0
  7  8  1  0
  8  9  1  0
  9 10  2  0
 10 11  1  0
 11 12  2  0
 12 13  1  0
 13 14  2  0
 14 15  1  0
  2 16  1  0
 16 17  1  0
 17 18  2  0
 18 19  1  0
 19 20  2  0
 20 21  1  0
 21 22  1  0
 21 23  2  0
 14  9  1  0
 23 17  1  0
  3 24  1  0
  3 25  1  0
  4 26  1  0
  7 27  1  0
  7 28  1  0
 10 29  1  0
 11 30  1  0
 12 31  1  0
 13 32  1  0
 18 33  1  0
 19 34  1  0
 20 35  1  0
 23 36  1  0
M  CHG  2  16  -1  22  -1
M  END
>  <UniqueID>  (77) 
70

>  <SMILES>  (77) 
O=C(CNC(=O)CSc1ccccc1Cl)[N-]c1cccc([O-])c1

>  <Energy>  (77) 
33.270820828148615

>  <Genealogy>  (77) 
O=C(CNC(=O)CSc1ccccc1Cl)[N-]c1cccc([O-])c1 (protonated)
O=C(CNC(=O)CSc1ccccc1Cl)[N-]c1cccc([O-])c1 (3D coordinates assigned)
O=C(CNC(=O)CSc1ccccc1Cl)[N-]c1cccc([O-])c1 (optimized conformer: 33.270820828148615 kcal/mol)

>  <smiles>  (77) 
O=C(CSc1ccccc1Cl)NCC(=O)Nc1cccc(O)c1

>  <score_type>  (77) 
oracle

>  <origin>  (77) 
adg

>  <m_score__min__energy>  (77) 
-12.93

>  <m_primary>  (77) 
energy

$$$$
77:0
     RDKit          3D

 56 59  0  0  0  0  0  0  0  0999 V2000
   57.0350   20.9780   42.9500 C   0  0  0  0  0  0  0  0  0  0  0  0
   56.3160   22.1260   43.3840 O   0  0  0  0  0  0  0  0  0  0  0  0
   56.8530   23.1400   44.1930 C   0  0  0  0  0  0  0  0  0  0  0  0
   58.1580   22.9850   44.6750 C   0  0  0  0  0  0  0  0  0  0  0  0
   58.7330   23.9600   45.4920 C   0  0  0  0  0  0  0  0  0  0  0  0
   58.0110   25.1070   45.8290 C   0  0  0  0  0  0  0  0  0  0  0  0
   56.7110   25.2950   45.3350 C   0  0  0  0  0  0  0  0  0  0  0  0
   55.9340   26.4970   45.7000 C   0  0  0  0  0  0  0  0  0  0  0  0
   54.8510   26.3580   46.3300 O   0  0  0  0  0  0  0  0  0  0  0  0
   56.3600   27.8190   45.3450 N   0  0  0  0  0  0  0  0  0  0  0  0
   57.6520   28.1400   44.7500 C   0  0  0  0  0  0  0  0  0  0  0  0
   58.5440   28.7460   45.7940 C   0  0  0  0  0  0  0  0  0  0  0  0
   58.1410   28.7720   47.1370 C   0  0  0  0  0  0  0  0  0  0  0  0
   58.9800   29.3130   48.1160 C   0  0  0  0  0  0  0  0  0  0  0  0
   60.2430   29.8230   47.7690 C   0  0  0  0  0  0  0  0  0  0  0  0
   61.1260   30.4140   48.8000 C   0  0  0  0  0  0  0  0  0  0  0  0
   61.6760   29.6630   49.6540 O   0  0  0  0  0  0  0  0  0  0  0  0
   61.3870   31.8280   48.8390 N   0  0  0  0  0  0  0  0  0  0  0  0
   62.5820   32.3220   49.5290 C   0  0  0  0  0  0  0  0  0  0  0  0
   63.7990   32.2830   48.5980 C   0  0  0  0  0  0  0  0  0  0  0  0
   63.4310   32.4060   47.1110 C   0  0  0  0  0  0  0  0  0  0  0  0
   62.6600   33.6990   46.8040 C   0  0  0  0  0  0  0  0  0  0  0  0
   61.1660   33.6020   47.0690 C   0  0  0  0  0  0  0  0  0  0  0  0
   60.3200   34.4680   46.3490 C   0  0  0  0  0  0  0  0  0  0  0  0
   58.9380   34.4450   46.5400 C   0  0  0  0  0  0  0  0  0  0  0  0
   58.3760   33.5660   47.4610 C   0  0  0  0  0  0  0  0  0  0  0  0
   59.1930   32.7100   48.2000 C   0  0  0  0  0  0  0  0  0  0  0  0
   60.5890   32.7180   48.0290 C   0  0  0  0  0  0  0  0  0  0  0  0
   60.6460   29.7910   46.4230 C   0  0  0  0  0  0  0  0  0  0  0  0
   59.8080   29.2470   45.4450 C   0  0  0  0  0  0  0  0  0  0  0  0
   56.1270   24.3000   44.5330 C   0  0  0  0  0  0  0  0  0  0  0  0
   57.3883   20.4139   43.8258 H   0  0  0  0  0  0  0  0  0  0  0  0
   56.3752   20.3394   42.3443 H   0  0  0  0  0  0  0  0  0  0  0  0
   57.8975   21.2929   42.3443 H   0  0  0  0  0  0  0  0  0  0  0  0
   58.7352   22.0875   44.4078 H   0  0  0  0  0  0  0  0  0  0  0  0
   59.7567   23.8246   45.8711 H   0  0  0  0  0  0  0  0  0  0  0  0
   58.4631   25.8661   46.4843 H   0  0  0  0  0  0  0  0  0  0  0  0
   58.1149   27.2216   44.3598 H   0  0  0  0  0  0  0  0  0  0  0  0
   57.5102   28.8558   43.9269 H   0  0  0  0  0  0  0  0  0  0  0  0
   57.1597   28.3646   47.4217 H   0  0  0  0  0  0  0  0  0  0  0  0
   58.6494   29.3397   49.1648 H   0  0  0  0  0  0  0  0  0  0  0  0
   62.4089   33.3585   49.8541 H   0  0  0  0  0  0  0  0  0  0  0  0
   62.7805   31.6780   50.3984 H   0  0  0  0  0  0  0  0  0  0  0  0
   64.4676   33.1156   48.8622 H   0  0  0  0  0  0  0  0  0  0  0  0
   64.2821   31.3042   48.7342 H   0  0  0  0  0  0  0  0  0  0  0  0
   64.3562   32.3965   46.5161 H   0  0  0  0  0  0  0  0  0  0  0  0
   62.7790   31.5577   46.8553 H   0  0  0  0  0  0  0  0  0  0  0  0
   63.0714   34.5046   47.4299 H   0  0  0  0  0  0  0  0  0  0  0  0
   62.7818   33.8962   45.7287 H   0  0  0  0  0  0  0  0  0  0  0  0
   60.7553   35.1729   45.6254 H   0  0  0  0  0  0  0  0  0  0  0  0
   58.2921   35.1223   45.9620 H   0  0  0  0  0  0  0  0  0  0  0  0
   57.2859   33.5461   47.6065 H   0  0  0  0  0  0  0  0  0  0  0  0
   58.7392   32.0195   48.9262 H   0  0  0  0  0  0  0  0  0  0  0  0
   61.6276   30.1968   46.1370 H   0  0  0  0  0  0  0  0  0  0  0  0
   60.1407   29.2114   44.3971 H   0  0  0  0  0  0  0  0  0  0  0  0
   55.0971   24.4268   44.1681 H   0  0  0  0  0  0  0  0  0  0  0  0
  1  2  1  0
  2  3  1  0
  3  4  2  0
  4  5  1  0
  5  6  2  0
  6  7  1  0
  7  8  1  0
  8  9  2  0
  8 10  1  0
 10 11  1  0
 11 12  1  0
 12 13  2  0
 13 14  1  0
 14 15  2  0
 15 16  1  0
 16 17  2  0
 16 18  1  0
 18 19  1  0
 19 20  1  0
 20 21  1  0
 21 22  1  0
 22 23  1  0
 23 24  2  0
 24 25  1  0
 25 26  2  0
 26 27  1  0
 27 28  2  0
 15 29  1  0
 29 30  2  0
  7 31  2  0
 31  3  1  0
 30 12  1  0
 28 18  1  0
 28 23  1  0
  1 32  1  0
  1 33  1  0
  1 34  1  0
  4 35  1  0
  5 36  1  0
  6 37  1  0
 11 38  1  0
 11 39  1  0
 13 40  1  0
 14 41  1  0
 19 42  1  0
 19 43  1  0
 20 44  1  0
 20 45  1  0
 21 46  1  0
 21 47  1  0
 22 48  1  0
 22 49  1  0
 24 50  1  0
 25 51  1  0
 26 52  1  0
 27 53  1  0
 29 54  1  0
 30 55  1  0
 31 56  1  0
M  CHG  1  10  -1
M  END
>  <UniqueID>  (78) 
71

>  <SMILES>  (78) 
COc1cccc(C(=O)[N-]Cc2ccc(C(=O)N3CCCCc4ccccc43)cc2)c1

>  <Energy>  (78) 
76.01852052802533

>  <Genealogy>  (78) 
COc1cccc(C(=O)[N-]Cc2ccc(C(=O)N3CCCCc4ccccc43)cc2)c1 (protonated)
COc1cccc(C(=O)[N-]Cc2ccc(C(=O)N3CCCCc4ccccc43)cc2)c1 (3D coordinates assigned)
COc1cccc(C(=O)[N-]Cc2ccc(C(=O)N3CCCCc4ccccc43)cc2)c1 (nonaromatic ring conformer: 76.01852052802533 kcal/mol)

>  <smiles>  (78) 
COc1cccc(C(=O)NCc2ccc(C(=O)N3CCCCc4ccccc43)cc2)c1

>  <score_type>  (78) 
oracle

>  <origin>  (78) 
adg

>  <m_score__min__energy>  (78) 
-9.5999999999999996

>  <m_primary>  (78) 
energy

$$$$
78:0
     RDKit          3D

 32 33  0  0  0  0  0  0  0  0999 V2000
   55.9660   27.4540   46.1830 H   0  0  0  0  0  0  0  0  0  0  0  0
   55.2770   26.7130   46.1570 O   0  0  0  0  0  0  0  0  0  0  0  0
   55.6070   25.4450   45.6820 C   0  0  0  0  0  0  0  0  0  0  0  0
   54.7650   24.4010   45.9140 N   0  0  0  0  0  0  0  0  0  0  0  0
   55.0370   23.1440   45.4780 C   0  0  0  0  0  0  0  0  0  0  0  0
   54.2230   22.2140   45.7160 O   0  0  0  0  0  0  0  0  0  0  0  0
   56.2190   22.8920   44.7720 C   0  0  0  0  0  0  0  0  0  0  0  0
   56.6110   21.2740   44.2080 Cl  0  0  0  0  0  0  0  0  0  0  0  0
   57.1020   23.9440   44.5230 C   0  0  0  0  0  0  0  0  0  0  0  0
   58.0423   23.7539   43.9847 H   0  0  0  0  0  0  0  0  0  0  0  0
   56.7950   25.2450   44.9570 C   0  0  0  0  0  0  0  0  0  0  0  0
   57.7320   26.3760   44.7500 C   0  0  0  0  0  0  0  0  0  0  0  0
   57.7982   26.7924   43.7340 H   0  0  0  0  0  0  0  0  0  0  0  0
   58.5110   26.9400   45.6980 C   0  0  0  0  0  0  0  0  0  0  0  0
   57.9630   27.7410   46.8260 C   0  0  0  0  0  0  0  0  0  0  0  0
   58.0410   27.2920   48.0010 O   0  0  0  0  0  0  0  0  0  0  0  0
   57.4470   29.0680   46.6410 N   0  0  0  0  0  0  0  0  0  0  0  0
   57.3750   29.8100   45.4150 C   0  0  0  0  0  0  0  0  0  0  0  0
   58.4350   30.6700   45.0930 C   0  0  0  0  0  0  0  0  0  0  0  0
   59.2937   30.7576   45.7749 H   0  0  0  0  0  0  0  0  0  0  0  0
   58.4080   31.4170   43.9110 C   0  0  0  0  0  0  0  0  0  0  0  0
   59.2503   32.0781   43.6591 H   0  0  0  0  0  0  0  0  0  0  0  0
   57.3130   31.3240   43.0510 C   0  0  0  0  0  0  0  0  0  0  0  0
   57.2971   31.9036   42.1162 H   0  0  0  0  0  0  0  0  0  0  0  0
   56.2370   30.4950   43.3770 C   0  0  0  0  0  0  0  0  0  0  0  0
   55.3722   30.4283   42.7005 H   0  0  0  0  0  0  0  0  0  0  0  0
   56.2550   29.7490   44.5610 C   0  0  0  0  0  0  0  0  0  0  0  0
   55.1480   28.9760   44.8870 O   0  0  0  0  0  0  0  0  0  0  0  0
   59.9920   26.6680   45.6480 C   0  0  0  0  0  0  0  0  0  0  0  0
   60.3863   26.5956   46.6723 H   0  0  0  0  0  0  0  0  0  0  0  0
   60.1733   25.7215   45.1176 H   0  0  0  0  0  0  0  0  0  0  0  0
   60.4978   27.4883   45.1176 H   0  0  0  0  0  0  0  0  0  0  0  0
  1  2  1  0
  2  3  1  0
  3  4  1  0
  4  5  1  0
  5  6  2  0
  5  7  1  0
  7  8  1  0
  7  9  2  0
  9 10  1  0
  9 11  1  0
 11 12  1  0
 12 13  1  0
 12 14  2  0
 14 15  1  0
 15 16  2  0
 15 17  1  0
 17 18  1  0
 18 19  2  0
 19 20  1  0
 19 21  1  0
 21 22  1  0
 21 23  2  0
 23 24  1  0
 23 25  1  0
 25 26  1  0
 25 27  2  0
 27 28  1  0
 14 29  1  0
 29 30  1  0
 29 31  1  0
 29 32  1  0
 11  3  2  0
 27 18  1  0
M  CHG  3   4  -1  17  -1  28  -1
M  END
>  <UniqueID>  (79) 
72

>  <SMILES>  (79) 
C/C(=C/c1cc(Cl)c(=O)[n-]c1O)C(=O)[N-]c1ccccc1[O-]

>  <Energy>  (79) 
48.606751163098025

>  <Genealogy>  (79) 
CC(=Cc1cc(Cl)c(=O)[n-]c1O)C(=O)[N-]c1ccccc1[O-] (protonated)
C/C(=C/c1cc(Cl)c(=O)[n-]c1O)C(=O)[N-]c1ccccc1[O-] (cis-trans isomerization)
C/C(=C/c1cc(Cl)c(=O)[n-]c1O)C(=O)[N-]c1ccccc1[O-] (3D coordinates assigned)
C/C(=C/c1cc(Cl)c(=O)[n-]c1O)C(=O)[N-]c1ccccc1[O-] (optimized conformer: 48.606751163098025 kcal/mol)

>  <smiles>  (79) 
CC(=Cc1cc(Cl)c(=O)[nH]c1O)C(=O)Nc1ccccc1O

>  <score_type>  (79) 
oracle

>  <origin>  (79) 
adg

>  <m_score__min__energy>  (79) 
-14.23

>  <m_primary>  (79) 
energy

$$$$
79:0
     RDKit          3D

 41 43  0  0  0  0  0  0  0  0999 V2000
   59.7140   33.7100   50.5400 C   0  0  0  0  0  0  0  0  0  0  0  0
   59.8800   32.9770   49.3310 O   0  0  0  0  0  0  0  0  0  0  0  0
   61.0040   33.0590   48.4910 C   0  0  0  0  0  0  0  0  0  0  0  0
   62.2210   32.4380   48.8410 C   0  0  0  0  0  0  0  0  0  0  0  0
   63.3280   32.5200   47.9970 C   0  0  0  0  0  0  0  0  0  0  0  0
   63.2420   33.2200   46.7970 C   0  0  0  0  0  0  0  0  0  0  0  0
   62.0480   33.8440   46.4340 C   0  0  0  0  0  0  0  0  0  0  0  0
   60.9160   33.7770   47.2710 C   0  0  0  0  0  0  0  0  0  0  0  0
   59.6660   34.4680   46.8570 C   0  0  0  0  0  0  0  0  0  0  0  0
   59.6630   35.7210   46.7090 O   0  0  0  0  0  0  0  0  0  0  0  0
   58.4780   33.7410   46.7000 O   0  0  0  0  0  0  0  0  0  0  0  0
   58.2340   32.7680   45.7180 C   0  0  0  0  0  0  0  0  0  0  0  0
   57.7440   33.1170   44.4450 C   0  0  0  0  0  0  0  0  0  0  0  0
   57.5680   32.1380   43.4630 C   0  0  0  0  0  0  0  0  0  0  0  0
   57.8940   30.8080   43.7340 C   0  0  0  0  0  0  0  0  0  0  0  0
   58.3940   30.4530   44.9890 C   0  0  0  0  0  0  0  0  0  0  0  0
   58.5510   31.4200   45.9930 C   0  0  0  0  0  0  0  0  0  0  0  0
   59.0820   31.0210   47.2690 N   0  0  0  0  0  0  0  0  0  0  0  0
   60.0550   29.9750   47.4220 C   0  0  0  0  0  0  0  0  0  0  0  0
   60.7490   29.6120   46.4350 O   0  0  0  0  0  0  0  0  0  0  0  0
   60.2690   29.3260   48.7290 C   0  0  0  0  0  0  0  0  0  0  0  0
   60.6280   28.0060   48.9390 C   0  0  0  0  0  0  0  0  0  0  0  0
   60.7540   27.8530   50.3050 C   0  0  0  0  0  0  0  0  0  0  0  0
   60.4700   29.0800   50.8690 C   0  0  0  0  0  0  0  0  0  0  0  0
   60.1770   29.9730   49.9070 N   0  0  0  0  0  0  0  0  0  0  0  0
   59.8658   33.0398   51.3989 H   0  0  0  0  0  0  0  0  0  0  0  0
   60.4499   34.5267   50.5776 H   0  0  0  0  0  0  0  0  0  0  0  0
   58.6980   34.1299   50.5776 H   0  0  0  0  0  0  0  0  0  0  0  0
   62.2976   31.8840   49.7882 H   0  0  0  0  0  0  0  0  0  0  0  0
   64.2714   32.0303   48.2802 H   0  0  0  0  0  0  0  0  0  0  0  0
   64.1172   33.2814   46.1335 H   0  0  0  0  0  0  0  0  0  0  0  0
   61.9895   34.3946   45.4835 H   0  0  0  0  0  0  0  0  0  0  0  0
   57.4984   34.1658   44.2221 H   0  0  0  0  0  0  0  0  0  0  0  0
   57.1720   32.4160   42.4751 H   0  0  0  0  0  0  0  0  0  0  0  0
   57.7571   30.0394   42.9591 H   0  0  0  0  0  0  0  0  0  0  0  0
   58.6668   29.4068   45.1916 H   0  0  0  0  0  0  0  0  0  0  0  0
   58.8470   31.6090   48.1000 H   0  0  0  0  0  0  0  0  0  0  0  0
   60.7821   27.2335   48.1712 H   0  0  0  0  0  0  0  0  0  0  0  0
   61.0277   26.9318   50.8402 H   0  0  0  0  0  0  0  0  0  0  0  0
   60.4816   29.2961   51.9475 H   0  0  0  0  0  0  0  0  0  0  0  0
   59.9360   30.9780   50.0550 H   0  0  0  0  0  0  0  0  0  0  0  0
  1  2  1  0
  2  3  1  0
  3  4  2  0
  4  5  1  0
  5  6  2  0
  6  7  1  0
  7  8  2  0
  8  9  1  0
  9 10  2  0
  9 11  1  0
 11 12  1  0
 12 13  2  0
 13 14  1  0
 14 15  2  0
 15 16  1  0
 16 17  2  0
 17 18  1  0
 18 19  1  0
 19 20  2  0
 19 21  1  0
 21 22  2  0
 22 23  1  0
 23 24  2  0
 24 25  1  0
  8  3  1  0
 17 12  1  0
 25 21  1  0
  1 26  1  0
  1 27  1  0
  1 28  1  0
  4 29  1  0
  5 30  1  0
  6 31  1  0
  7 32  1  0
 13 33  1  0
 14 34  1  0
 15 35  1  0
 16 36  1  0
 18 37  1  0
 22 38  1  0
 23 39  1  0
 24 40  1  0
 25 41  1  0
M  END
>  <UniqueID>  (80) 
73

>  <SMILES>  (80) 
COc1ccccc1C(=O)Oc1ccccc1NC(=O)c1ccc[nH]1

>  <Energy>  (80) 
76.8917122963904

>  <Genealogy>  (80) 
COc1ccccc1C(=O)Oc1ccccc1NC(=O)c1ccc[nH]1 (3D coordinates assigned)
COc1ccccc1C(=O)Oc1ccccc1NC(=O)c1ccc[nH]1 (optimized conformer: 76.8917122963904 kcal/mol)

>  <smiles>  (80) 
COc1ccccc1C(=O)Oc1ccccc1NC(=O)c1ccc[nH]1

>  <score_type>  (80) 
oracle

>  <origin>  (80) 
adg

>  <m_score__min__energy>  (80) 
-7.5700000000000003

>  <m_primary>  (80) 
energy

$$$$
80:0
     RDKit          3D

 50 52  0  0  0  0  0  0  0  0999 V2000
   55.6820   29.8890   44.5900 O   0  0  0  0  0  0  0  0  0  0  0  0
   56.4460   28.9400   44.9090 C   0  0  0  0  0  0  0  0  0  0  0  0
   57.9280   29.0800   44.6730 C   0  0  0  0  0  0  0  0  0  0  0  0
   58.4670   30.2120   45.4280 N   0  0  0  0  0  0  0  0  0  0  0  0
   58.2390   31.5730   45.0270 C   0  0  0  0  0  0  0  0  0  0  0  0
   57.4830   31.8150   44.0450 O   0  0  0  0  0  0  0  0  0  0  0  0
   58.8620   32.7030   45.7590 C   0  0  0  0  0  0  0  0  0  0  0  0
   58.2570   33.9720   45.7840 C   0  0  0  0  0  0  0  0  0  0  0  0
   58.8460   35.0210   46.4940 C   0  0  0  0  0  0  0  0  0  0  0  0
   60.0390   34.8190   47.1880 C   0  0  0  0  0  0  0  0  0  0  0  0
   60.6660   33.5620   47.1770 C   0  0  0  0  0  0  0  0  0  0  0  0
   61.8900   33.3540   47.9100 N   0  0  0  0  0  0  0  0  0  0  0  0
   61.9580   32.9960   49.3180 C   0  0  0  0  0  0  0  0  0  0  0  0
   63.4320   32.6460   49.5980 C   0  0  0  0  0  0  0  0  0  0  0  0
   64.2450   33.0980   48.3780 C   0  0  0  0  0  0  0  0  0  0  0  0
   63.2060   33.4560   47.3920 C   0  0  0  0  0  0  0  0  0  0  0  0
   63.4670   33.8800   46.2340 O   0  0  0  0  0  0  0  0  0  0  0  0
   60.0620   32.5060   46.4720 C   0  0  0  0  0  0  0  0  0  0  0  0
   55.8820   27.8070   45.5820 N   0  0  0  0  0  0  0  0  0  0  0  0
   56.5900   26.5830   45.9510 C   0  0  0  0  0  0  0  0  0  0  0  0
   55.6130   25.4050   46.0630 C   0  0  1  0  0  0  0  0  0  0  0  0
   54.3150   25.8160   45.7160 O   0  0  0  0  0  0  0  0  0  0  0  0
   56.0660   24.2720   45.1650 C   0  0  0  0  0  0  0  0  0  0  0  0
   55.4260   24.0450   43.9330 C   0  0  0  0  0  0  0  0  0  0  0  0
   55.8600   23.0190   43.0880 C   0  0  0  0  0  0  0  0  0  0  0  0
   56.9440   22.2200   43.4560 C   0  0  0  0  0  0  0  0  0  0  0  0
   57.6010   22.4490   44.6670 C   0  0  0  0  0  0  0  0  0  0  0  0
   57.1720   23.4730   45.5180 C   0  0  0  0  0  0  0  0  0  0  0  0
   57.8380   23.6840   46.6820 F   0  0  0  0  0  0  0  0  0  0  0  0
   58.4337   28.1576   44.9948 H   0  0  0  0  0  0  0  0  0  0  0  0
   58.1005   29.2555   43.6009 H   0  0  0  0  0  0  0  0  0  0  0  0
   58.8330   30.0240   46.3880 H   0  0  0  0  0  0  0  0  0  0  0  0
   57.3148   34.1396   45.2416 H   0  0  0  0  0  0  0  0  0  0  0  0
   58.3667   36.0110   46.5058 H   0  0  0  0  0  0  0  0  0  0  0  0
   60.4922   35.6502   47.7481 H   0  0  0  0  0  0  0  0  0  0  0  0
   61.6413   33.8437   49.9434 H   0  0  0  0  0  0  0  0  0  0  0  0
   61.2927   32.1515   49.5510 H   0  0  0  0  0  0  0  0  0  0  0  0
   63.7799   33.1726   50.4989 H   0  0  0  0  0  0  0  0  0  0  0  0
   63.5514   31.5659   49.7685 H   0  0  0  0  0  0  0  0  0  0  0  0
   64.8725   33.9677   48.6227 H   0  0  0  0  0  0  0  0  0  0  0  0
   64.9382   32.3261   48.0123 H   0  0  0  0  0  0  0  0  0  0  0  0
   60.5327   31.5118   46.4769 H   0  0  0  0  0  0  0  0  0  0  0  0
   57.3433   26.3557   45.1823 H   0  0  0  0  0  0  0  0  0  0  0  0
   57.0747   26.7349   46.9267 H   0  0  0  0  0  0  0  0  0  0  0  0
   55.5995   25.0489   47.1037 H   0  0  0  0  0  0  0  0  0  0  0  0
   54.4030   26.7080   45.2890 H   0  0  0  0  0  0  0  0  0  0  0  0
   54.5786   24.6788   43.6325 H   0  0  0  0  0  0  0  0  0  0  0  0
   55.3464   22.8411   42.1317 H   0  0  0  0  0  0  0  0  0  0  0  0
   57.2807   21.4101   42.7922 H   0  0  0  0  0  0  0  0  0  0  0  0
   58.4586   21.8221   44.9525 H   0  0  0  0  0  0  0  0  0  0  0  0
  1  2  2  0
  2  3  1  0
  3  4  1  0
  4  5  1  0
  5  6  2  0
  5  7  1  0
  7  8  2  0
  8  9  1  0
  9 10  2  0
 10 11  1  0
 11 12  1  0
 12 13  1  0
 13 14  1  0
 14 15  1  0
 15 16  1  0
 16 17  2  0
 11 18  2  0
  2 19  1  0
 19 20  1  0
 20 21  1  0
 21 22  1  0
 21 23  1  0
 23 24  2  0
 24 25  1  0
 25 26  2  0
 26 27  1  0
 27 28  2  0
 28 29  1  0
 18  7  1  0
 28 23  1  0
 16 12  1  0
  3 30  1  0
  3 31  1  0
  4 32  1  0
  8 33  1  0
  9 34  1  0
 10 35  1  0
 13 36  1  0
 13 37  1  0
 14 38  1  0
 14 39  1  0
 15 40  1  0
 15 41  1  0
 18 42  1  0
 20 43  1  0
 20 44  1  0
 21 45  1  1
 22 46  1  0
 24 47  1  0
 25 48  1  0
 26 49  1  0
 27 50  1  0
M  CHG  1  19  -1
M  END
>  <UniqueID>  (81) 
74

>  <SMILES>  (81) 
O=C(CNC(=O)c1cccc(N2CCCC2=O)c1)[N-]C[C@@H](O)c1ccccc1F

>  <Energy>  (81) 
62.28822589507086

>  <Genealogy>  (81) 
O=C(CNC(=O)c1cccc(N2CCCC2=O)c1)[N-]CC(O)c1ccccc1F (protonated)
O=C(CNC(=O)c1cccc(N2CCCC2=O)c1)[N-]C[C@@H](O)c1ccccc1F (chirality)
O=C(CNC(=O)c1cccc(N2CCCC2=O)c1)[N-]C[C@@H](O)c1ccccc1F (3D coordinates assigned)
O=C(CNC(=O)c1cccc(N2CCCC2=O)c1)[N-]C[C@@H](O)c1ccccc1F (nonaromatic ring conformer: 62.28822589507086 kcal/mol)

>  <smiles>  (81) 
O=C(CNC(=O)c1cccc(N2CCCC2=O)c1)NCC(O)c1ccccc1F

>  <score_type>  (81) 
oracle

>  <origin>  (81) 
adg

>  <m_score__min__energy>  (81) 
-11.699999999999999

>  <m_primary>  (81) 
energy

$$$$
81:0
     RDKit          3D

 38 41  0  0  0  0  0  0  0  0999 V2000
   64.8570   32.9510   49.7260 C   0  0  0  0  0  0  0  0  0  0  0  0
   64.3910   33.2620   48.4480 O   0  0  0  0  0  0  0  0  0  0  0  0
   63.1850   32.9180   47.8970 C   0  0  0  0  0  0  0  0  0  0  0  0
   62.8890   31.5560   47.7760 C   0  0  0  0  0  0  0  0  0  0  0  0
   61.7360   31.1690   47.2510 N   0  0  0  0  0  0  0  0  0  0  0  0
   60.8000   32.0180   46.8110 C   0  0  0  0  0  0  0  0  0  0  0  0
   59.5950   31.8310   46.2590 N   0  0  0  0  0  0  0  0  0  0  0  0
   59.0660   33.0510   46.0040 C   0  0  0  0  0  0  0  0  0  0  0  0
   57.4550   33.2660   45.2620 S   0  0  0  0  0  0  0  0  0  0  0  0
   57.2590   32.0800   43.8910 C   0  0  0  0  0  0  0  0  0  0  0  0
   56.8040   30.7610   44.4160 C   0  0  0  0  0  0  0  0  0  0  0  0
   55.5560   30.2630   44.4700 N   0  0  0  0  0  0  0  0  0  0  0  0
   55.6280   29.0620   45.0130 O   0  0  0  0  0  0  0  0  0  0  0  0
   56.8710   28.7830   45.3030 C   0  0  0  0  0  0  0  0  0  0  0  0
   57.3590   27.5510   45.9170 C   0  0  0  0  0  0  0  0  0  0  0  0
   58.6970   27.3680   46.2030 C   0  0  0  0  0  0  0  0  0  0  0  0
   59.1320   26.1940   46.7830 C   0  0  0  0  0  0  0  0  0  0  0  0
   58.2260   25.1930   47.0830 C   0  0  0  0  0  0  0  0  0  0  0  0
   56.8830   25.3540   46.8050 C   0  0  0  0  0  0  0  0  0  0  0  0
   56.4830   26.5330   46.2290 C   0  0  0  0  0  0  0  0  0  0  0  0
   55.1250   26.6920   45.9500 O   0  0  0  0  0  0  0  0  0  0  0  0
   57.6150   29.8240   44.9410 N   0  0  0  0  0  0  0  0  0  0  0  0
   59.9460   34.0050   46.3980 N   0  0  0  0  0  0  0  0  0  0  0  0
   61.0380   33.3920   46.9070 C   0  0  0  0  0  0  0  0  0  0  0  0
   62.2360   33.8120   47.4520 C   0  0  0  0  0  0  0  0  0  0  0  0
   64.1894   33.3965   50.4782 H   0  0  0  0  0  0  0  0  0  0  0  0
   64.8759   31.8586   49.8536 H   0  0  0  0  0  0  0  0  0  0  0  0
   65.8730   33.3527   49.8536 H   0  0  0  0  0  0  0  0  0  0  0  0
   63.6158   30.8043   48.1178 H   0  0  0  0  0  0  0  0  0  0  0  0
   59.1650   30.8860   46.0730 H   0  0  0  0  0  0  0  0  0  0  0  0
   56.5133   32.4656   43.1802 H   0  0  0  0  0  0  0  0  0  0  0  0
   58.2271   31.9516   43.3848 H   0  0  0  0  0  0  0  0  0  0  0  0
   59.4204   28.1624   45.9672 H   0  0  0  0  0  0  0  0  0  0  0  0
   60.1999   26.0542   47.0069 H   0  0  0  0  0  0  0  0  0  0  0  0
   58.5784   24.2601   47.5473 H   0  0  0  0  0  0  0  0  0  0  0  0
   56.1566   24.5616   47.0382 H   0  0  0  0  0  0  0  0  0  0  0  0
   54.7660   27.1010   45.1150 H   0  0  0  0  0  0  0  0  0  0  0  0
   62.4377   34.8903   47.5329 H   0  0  0  0  0  0  0  0  0  0  0  0
  1  2  1  0
  2  3  1  0
  3  4  2  0
  4  5  1  0
  5  6  2  0
  6  7  1  0
  7  8  1  0
  8  9  1  0
  9 10  1  0
 10 11  1  0
 11 12  2  0
 12 13  1  0
 13 14  1  0
 14 15  1  0
 15 16  2  0
 16 17  1  0
 17 18  2  0
 18 19  1  0
 19 20  2  0
 20 21  1  0
 14 22  2  0
  8 23  2  0
 23 24  1  0
 24 25  2  0
 25  3  1  0
 24  6  1  0
 22 11  1  0
 20 15  1  0
  1 26  1  0
  1 27  1  0
  1 28  1  0
  4 29  1  0
  7 30  1  0
 10 31  1  0
 10 32  1  0
 16 33  1  0
 17 34  1  0
 18 35  1  0
 19 36  1  0
 21 37  1  0
 25 38  1  0
M  END
>  <smiles>  (82) 
COc1cnc2[nH]c(SCc3noc(-c4ccccc4O)n3)nc2c1

>  <score_type>  (82) 
oracle

>  <origin>  (82) 
adg

>  <m_score__min__energy>  (82) 
-9.7799999999999994

>  <m_primary>  (82) 
energy

$$$$
82:0
     RDKit          3D

 52 54  0  0  0  0  0  0  0  0999 V2000
   50.8730   32.6880   51.6900 O   0  0  0  0  0  0  0  0  0  0  0  0
   51.3720   32.1670   50.6560 C   0  0  0  0  0  0  0  0  0  0  0  0
   51.0170   32.6530   49.4040 O   0  0  0  0  0  0  0  0  0  0  0  0
   52.3250   31.0130   50.7740 C   0  0  0  0  0  0  0  0  0  0  0  0
   53.3310   31.2130   51.9200 C   0  0  0  0  0  0  0  0  0  0  0  0
   53.4720   29.9540   52.7910 C   0  0  0  0  0  0  0  0  0  0  0  0
   54.8530   29.3010   52.6560 C   0  0  0  0  0  0  0  0  0  0  0  0
   55.9790   30.2870   52.6420 C   0  0  0  0  0  0  0  0  0  0  0  0
   56.3010   30.8690   53.7140 O   0  0  0  0  0  0  0  0  0  0  0  0
   56.6160   30.6120   51.4340 O   0  0  0  0  0  0  0  0  0  0  0  0
   57.5420   31.6580   51.3010 C   0  0  0  0  0  0  0  0  0  0  0  0
   57.7270   32.6130   52.3130 C   0  0  0  0  0  0  0  0  0  0  0  0
   58.5740   33.7000   52.1030 C   0  0  0  0  0  0  0  0  0  0  0  0
   59.2790   33.8200   50.9020 C   0  0  0  0  0  0  0  0  0  0  0  0
   59.1810   32.8210   49.9180 C   0  0  0  0  0  0  0  0  0  0  0  0
   59.8570   32.9420   48.6040 C   0  0  0  0  0  0  0  0  0  0  0  0
   59.2280   33.0220   47.4190 C   0  0  0  0  0  0  0  0  0  0  0  0
   59.0800   34.4870   46.4220 S   0  0  0  0  0  0  0  0  0  0  0  0
   57.7280   33.6430   45.5900 C   0  0  0  0  0  0  0  0  0  0  0  0
   56.8730   34.2820   44.9950 O   0  0  0  0  0  0  0  0  0  0  0  0
   57.6130   32.2120   45.7490 N   0  0  1  0  0  0  0  0  0  0  0  0
   57.9470   31.5050   44.4900 C   0  0  0  0  0  0  0  0  0  0  0  0
   58.0400   30.0110   44.7150 C   0  0  0  0  0  0  0  0  0  0  0  0
   59.2460   29.3210   44.5070 C   0  0  0  0  0  0  0  0  0  0  0  0
   59.2970   27.9300   44.6490 C   0  0  0  0  0  0  0  0  0  0  0  0
   58.1550   27.2220   45.0290 C   0  0  0  0  0  0  0  0  0  0  0  0
   56.9540   27.9020   45.2400 C   0  0  0  0  0  0  0  0  0  0  0  0
   56.8910   29.2900   45.0740 C   0  0  0  0  0  0  0  0  0  0  0  0
   58.5330   31.8930   46.8040 C   0  0  0  0  0  0  0  0  0  0  0  0
   58.6600   30.7130   47.2320 O   0  0  0  0  0  0  0  0  0  0  0  0
   58.2880   31.7520   50.1210 C   0  0  0  0  0  0  0  0  0  0  0  0
   51.7495   30.0947   50.9626 H   0  0  0  0  0  0  0  0  0  0  0  0
   52.8906   30.9412   49.8333 H   0  0  0  0  0  0  0  0  0  0  0  0
   54.3134   31.4594   51.4908 H   0  0  0  0  0  0  0  0  0  0  0  0
   52.9594   32.0276   52.5591 H   0  0  0  0  0  0  0  0  0  0  0  0
   53.3146   30.2331   53.8433 H   0  0  0  0  0  0  0  0  0  0  0  0
   52.7218   29.2251   52.4506 H   0  0  0  0  0  0  0  0  0  0  0  0
   54.9994   28.6168   53.5048 H   0  0  0  0  0  0  0  0  0  0  0  0
   54.8702   28.7754   51.6898 H   0  0  0  0  0  0  0  0  0  0  0  0
   57.2025   32.5034   53.2737 H   0  0  0  0  0  0  0  0  0  0  0  0
   58.6879   34.4655   52.8847 H   0  0  0  0  0  0  0  0  0  0  0  0
   59.9139   34.7009   50.7260 H   0  0  0  0  0  0  0  0  0  0  0  0
   60.9567   32.9683   48.5986 H   0  0  0  0  0  0  0  0  0  0  0  0
   56.6510   31.9740   46.0920 H   0  0  0  0  0  0  0  0  0  0  0  0
   57.1641   31.7085   43.7446 H   0  0  0  0  0  0  0  0  0  0  0  0
   58.9224   31.8670   44.1330 H   0  0  0  0  0  0  0  0  0  0  0  0
   60.1543   29.8769   44.2313 H   0  0  0  0  0  0  0  0  0  0  0  0
   60.2385   27.3931   44.4609 H   0  0  0  0  0  0  0  0  0  0  0  0
   58.2015   26.1310   45.1618 H   0  0  0  0  0  0  0  0  0  0  0  0
   56.0538   27.3445   45.5379 H   0  0  0  0  0  0  0  0  0  0  0  0
   55.9377   29.8176   45.2254 H   0  0  0  0  0  0  0  0  0  0  0  0
   58.1754   30.9821   49.3435 H   0  0  0  0  0  0  0  0  0  0  0  0
  1  2  2  0
  2  3  1  0
  2  4  1  0
  4  5  1  0
  5  6  1  0
  6  7  1  0
  7  8  1  0
  8  9  2  0
  8 10  1  0
 10 11  1  0
 11 12  2  0
 12 13  1  0
 13 14  2  0
 14 15  1  0
 15 16  1  0
 16 17  2  3
 17 18  1  0
 18 19  1  0
 19 20  2  0
 19 21  1  0
 21 22  1  0
 22 23  1  0
 23 24  2  0
 24 25  1  0
 25 26  2  0
 26 27  1  0
 27 28  2  0
 21 29  1  0
 29 30  2  0
 15 31  2  0
 31 11  1  0
 29 17  1  0
 28 23  1  0
  4 32  1  0
  4 33  1  0
  5 34  1  0
  5 35  1  0
  6 36  1  0
  6 37  1  0
  7 38  1  0
  7 39  1  0
 12 40  1  0
 13 41  1  0
 14 42  1  0
 16 43  1  0
 21 44  1  1
 22 45  1  0
 22 46  1  0
 24 47  1  0
 25 48  1  0
 26 49  1  0
 27 50  1  0
 28 51  1  0
 31 52  1  0
M  CHG  2   3  -1  21   1
M  END
>  <UniqueID>  (83) 
75

>  <SMILES>  (83) 
O=C([O-])CCCCC(=O)Oc1cccc(C=C2SC(=O)[N@@H+](Cc3ccccc3)C2=O)c1

>  <Energy>  (83) 
77.00292966992002

>  <Genealogy>  (83) 
O=C([O-])CCCCC(=O)Oc1cccc(C=C2SC(=O)[NH+](Cc3ccccc3)C2=O)c1 (protonated)
O=C([O-])CCCCC(=O)Oc1cccc(C=C2SC(=O)[N@@H+](Cc3ccccc3)C2=O)c1 (chirality)
O=C([O-])CCCCC(=O)Oc1cccc(C=C2SC(=O)[N@@H+](Cc3ccccc3)C2=O)c1 (3D coordinates assigned)
O=C([O-])CCCCC(=O)Oc1cccc(C=C2SC(=O)[N@@H+](Cc3ccccc3)C2=O)c1 (nonaromatic ring conformer: 77.00292966992002 kcal/mol)

>  <smiles>  (83) 
O=C(O)CCCCC(=O)Oc1cccc(C=C2SC(=O)N(Cc3ccccc3)C2=O)c1

>  <score_type>  (83) 
oracle

>  <origin>  (83) 
adg

>  <m_score__min__energy>  (83) 
-12.470000000000001

>  <m_primary>  (83) 
energy

$$$$
83:0
     RDKit          3D

 37 39  0  0  0  0  0  0  0  0999 V2000
   59.5700   34.4990   49.7610 N   0  0  0  0  0  0  0  0  0  0  0  0
   59.7160   33.8550   48.6390 C   0  0  0  0  0  0  0  0  0  0  0  0
   58.5650   33.2340   48.0430 N   0  0  0  0  0  0  0  0  0  0  0  0
   58.3710   33.1000   46.6020 C   0  0  2  0  0  0  0  0  0  0  0  0
   58.9170   31.7430   46.1080 C   0  0  0  0  0  0  0  0  0  0  0  0
   58.1510   31.2200   44.9190 C   0  0  0  0  0  0  0  0  0  0  0  0
   57.4380   30.0120   45.0120 C   0  0  0  0  0  0  0  0  0  0  0  0
   56.7100   29.5390   43.9170 C   0  0  0  0  0  0  0  0  0  0  0  0
   56.6870   30.2650   42.7230 C   0  0  0  0  0  0  0  0  0  0  0  0
   57.3920   31.4660   42.6220 C   0  0  0  0  0  0  0  0  0  0  0  0
   58.1230   31.9440   43.7140 C   0  0  0  0  0  0  0  0  0  0  0  0
   58.9340   34.3350   45.8790 C   0  0  0  0  0  0  0  0  0  0  0  0
   60.3780   34.2580   45.6780 N   0  0  0  0  0  0  0  0  0  0  0  0
   61.3690   33.9180   46.6700 C   0  0  0  0  0  0  0  0  0  0  0  0
   62.6970   33.7700   46.2290 C   0  0  0  0  0  0  0  0  0  0  0  0
   63.7150   33.4140   47.1110 C   0  0  0  0  0  0  0  0  0  0  0  0
   63.4270   33.1950   48.4540 C   0  0  0  0  0  0  0  0  0  0  0  0
   62.1200   33.3370   48.9180 C   0  0  0  0  0  0  0  0  0  0  0  0
   61.0740   33.7050   48.0490 C   0  0  0  0  0  0  0  0  0  0  0  0
   59.7390   34.0390   50.6830 H   0  0  0  0  0  0  0  0  0  0  0  0
   59.3120   35.5110   49.7670 H   0  0  0  0  0  0  0  0  0  0  0  0
   57.7220   33.0910   48.6450 H   0  0  0  0  0  0  0  0  0  0  0  0
   57.2993   33.0800   46.3547 H   0  0  0  0  0  0  0  0  0  0  0  0
   59.9719   31.8682   45.8227 H   0  0  0  0  0  0  0  0  0  0  0  0
   58.8074   31.0165   46.9267 H   0  0  0  0  0  0  0  0  0  0  0  0
   57.4532   29.4372   45.9498 H   0  0  0  0  0  0  0  0  0  0  0  0
   56.1538   28.5932   43.9950 H   0  0  0  0  0  0  0  0  0  0  0  0
   56.1133   29.8902   41.8625 H   0  0  0  0  0  0  0  0  0  0  0  0
   57.3723   32.0370   41.6820 H   0  0  0  0  0  0  0  0  0  0  0  0
   58.6782   32.8899   43.6300 H   0  0  0  0  0  0  0  0  0  0  0  0
   58.4457   34.4215   44.8971 H   0  0  0  0  0  0  0  0  0  0  0  0
   58.7319   35.2122   46.5112 H   0  0  0  0  0  0  0  0  0  0  0  0
   60.7060   34.4140   44.6980 H   0  0  0  0  0  0  0  0  0  0  0  0
   62.9357   33.9385   45.1685 H   0  0  0  0  0  0  0  0  0  0  0  0
   64.7468   33.3061   46.7452 H   0  0  0  0  0  0  0  0  0  0  0  0
   64.2300   32.9099   49.1496 H   0  0  0  0  0  0  0  0  0  0  0  0
   61.9017   33.1586   49.9812 H   0  0  0  0  0  0  0  0  0  0  0  0
  1  2  2  0
  2  3  1  0
  3  4  1  0
  4  5  1  0
  5  6  1  0
  6  7  2  0
  7  8  1  0
  8  9  2  0
  9 10  1  0
 10 11  2  0
  4 12  1  0
 12 13  1  0
 13 14  1  0
 14 15  2  0
 15 16  1  0
 16 17  2  0
 17 18  1  0
 18 19  2  0
 19  2  1  0
 11  6  1  0
 19 14  1  0
  1 20  1  0
  1 21  1  0
  3 22  1  0
  4 23  1  1
  5 24  1  0
  5 25  1  0
  7 26  1  0
  8 27  1  0
  9 28  1  0
 10 29  1  0
 11 30  1  0
 12 31  1  0
 12 32  1  0
 13 33  1  0
 15 34  1  0
 16 35  1  0
 17 36  1  0
 18 37  1  0
M  CHG  1   1   1
M  END
>  <UniqueID>  (84) 
76

>  <SMILES>  (84) 
[NH2+]=C1N[C@H](Cc2ccccc2)CNc2ccccc21

>  <Energy>  (84) 
48.56017494798312

>  <Genealogy>  (84) 
[NH2+]=C1NC(Cc2ccccc2)CNc2ccccc21 (protonated)
[NH2+]=C1N[C@H](Cc2ccccc2)CNc2ccccc21 (chirality)
[NH2+]=C1N[C@H](Cc2ccccc2)CNc2ccccc21 (3D coordinates assigned)
[NH2+]=C1N[C@H](Cc2ccccc2)CNc2ccccc21 (nonaromatic ring conformer: 48.56017494798312 kcal/mol)

>  <smiles>  (84) 
N=C1NC(Cc2ccccc2)CNc2ccccc21

>  <score_type>  (84) 
oracle

>  <origin>  (84) 
adg

>  <m_score__min__energy>  (84) 
-4.0499999999999998

>  <m_primary>  (84) 
energy

$$$$
84:0
     RDKit          3D

 50 53  0  0  0  0  0  0  0  0999 V2000
   55.6655   22.2882   45.1313 H   0  0  0  0  0  0  0  0  0  0  0  0
   56.0490   23.2910   45.3710 C   0  0  0  0  0  0  0  0  0  0  0  0
   57.4270   23.4980   45.4950 C   0  0  0  0  0  0  0  0  0  0  0  0
   58.1211   22.6547   45.3645 H   0  0  0  0  0  0  0  0  0  0  0  0
   57.9280   24.7760   45.7850 C   0  0  0  0  0  0  0  0  0  0  0  0
   59.4030   24.9870   45.9650 C   0  0  0  0  0  0  0  0  0  0  0  0
   59.8752   24.0417   46.2707 H   0  0  0  0  0  0  0  0  0  0  0  0
   59.8463   25.3248   45.0166 H   0  0  0  0  0  0  0  0  0  0  0  0
   59.6210   25.9950   46.9930 N   0  0  0  0  0  0  0  0  0  0  0  0
   59.5310   27.4010   46.7410 C   0  0  0  0  0  0  0  0  0  0  0  0
   59.3060   27.8140   45.5730 O   0  0  0  0  0  0  0  0  0  0  0  0
   59.6970   28.3610   47.7960 N   0  0  0  0  0  0  0  0  0  0  0  0
   59.6590   29.6590   47.6940 C   0  0  0  0  0  0  0  0  0  0  0  0
   59.8330   30.2880   46.4830 N   0  0  0  0  0  0  0  0  0  0  0  0
   59.8010   31.6470   46.3510 C   0  0  0  0  0  0  0  0  0  0  0  0
   59.9424   32.1276   45.3717 H   0  0  0  0  0  0  0  0  0  0  0  0
   59.5840   32.3990   47.4950 C   0  0  0  0  0  0  0  0  0  0  0  0
   59.4840   33.7430   47.7400 C   0  0  0  0  0  0  0  0  0  0  0  0
   59.6000   34.7580   46.7860 O   0  0  0  0  0  0  0  0  0  0  0  0
   58.9920   34.6860   45.4980 C   0  0  0  0  0  0  0  0  0  0  0  0
   58.9421   35.6962   45.0655 H   0  0  0  0  0  0  0  0  0  0  0  0
   59.5964   34.0260   44.8584 H   0  0  0  0  0  0  0  0  0  0  0  0
   57.5790   34.1130   45.5980 C   0  0  0  0  0  0  0  0  0  0  0  0
   57.3574   33.8715   46.6480 H   0  0  0  0  0  0  0  0  0  0  0  0
   56.8602   34.8583   45.2267 H   0  0  0  0  0  0  0  0  0  0  0  0
   57.4730   32.9020   44.7910 N   0  0  0  0  0  0  0  0  0  0  0  0
   56.9030   31.7840   45.2120 N   0  0  0  0  0  0  0  0  0  0  0  0
   57.0570   30.8670   44.2360 C   0  0  0  0  0  0  0  0  0  0  0  0
   56.5000   29.4800   44.2950 C   0  0  0  0  0  0  0  0  0  0  0  0
   55.1240   29.5300   44.1700 F   0  0  0  0  0  0  0  0  0  0  0  0
   57.0250   28.7180   43.2670 F   0  0  0  0  0  0  0  0  0  0  0  0
   56.8270   28.8900   45.5010 F   0  0  0  0  0  0  0  0  0  0  0  0
   57.7320   31.4270   43.1660 C   0  0  0  0  0  0  0  0  0  0  0  0
   58.0008   30.9471   42.2134 H   0  0  0  0  0  0  0  0  0  0  0  0
   57.9920   32.7220   43.5620 C   0  0  0  0  0  0  0  0  0  0  0  0
   58.5316   33.4790   42.9739 H   0  0  0  0  0  0  0  0  0  0  0  0
   59.2520   33.9340   49.0600 N   0  0  0  0  0  0  0  0  0  0  0  0
   59.2030   32.7440   49.6580 N   0  0  0  0  0  0  0  0  0  0  0  0
   59.4060   31.8110   48.7080 C   0  0  0  0  0  0  0  0  0  0  0  0
   59.4380   30.4280   48.8560 C   0  0  0  0  0  0  0  0  0  0  0  0
   59.2968   29.9537   49.8384 H   0  0  0  0  0  0  0  0  0  0  0  0
   57.0320   25.8390   45.9760 C   0  0  0  0  0  0  0  0  0  0  0  0
   57.4164   26.8391   46.2251 H   0  0  0  0  0  0  0  0  0  0  0  0
   55.6540   25.6360   45.8520 C   0  0  0  0  0  0  0  0  0  0  0  0
   54.7870   26.7090   46.0310 O   0  0  0  0  0  0  0  0  0  0  0  0
   55.1530   24.3570   45.5510 C   0  0  0  0  0  0  0  0  0  0  0  0
   53.6740   24.1350   45.4070 C   0  0  0  0  0  0  0  0  0  0  0  0
   53.2148   24.0661   46.4042 H   0  0  0  0  0  0  0  0  0  0  0  0
   53.2289   24.9764   44.8557 H   0  0  0  0  0  0  0  0  0  0  0  0
   53.4955   23.2000   44.8557 H   0  0  0  0  0  0  0  0  0  0  0  0
  1  2  1  0
  2  3  2  0
  3  4  1  0
  3  5  1  0
  5  6  1  0
  6  7  1  0
  6  8  1  0
  6  9  1  0
  9 10  1  0
 10 11  2  0
 10 12  1  0
 12 13  2  0
 13 14  1  0
 14 15  1  0
 15 16  1  0
 15 17  2  0
 17 18  1  0
 18 19  1  0
 19 20  1  0
 20 21  1  0
 20 22  1  0
 20 23  1  0
 23 24  1  0
 23 25  1  0
 23 26  1  0
 26 27  1  0
 27 28  2  0
 28 29  1  0
 29 30  1  0
 29 31  1  0
 29 32  1  0
 28 33  1  0
 33 34  1  0
 33 35  2  0
 35 36  1  0
 18 37  2  0
 37 38  1  0
 38 39  1  0
 39 40  2  0
 40 41  1  0
  5 42  2  0
 42 43  1  0
 42 44  1  0
 44 45  1  0
 44 46  2  0
 46 47  1  0
 47 48  1  0
 47 49  1  0
 47 50  1  0
 46  2  1  0
 40 13  1  0
 39 17  1  0
 35 26  1  0
M  CHG  4   9  -1  14  -1  38  -1  45  -1
M  END
>  <UniqueID>  (85) 
77

>  <SMILES>  (85) 
Cc1ccc(C[N-]C(=O)/N=c2/cc3[n-]nc(OCCn4ccc(C(F)(F)F)n4)c3c[n-]2)cc1[O-]

>  <Energy>  (85) 
118.08213110005384

>  <Genealogy>  (85) 
Cc1ccc(C[N-]C(=O)N=c2cc3[n-]nc(OCCn4ccc(C(F)(F)F)n4)c3c[n-]2)cc1[O-] (protonated)
Cc1ccc(C[N-]C(=O)/N=c2/cc3[n-]nc(OCCn4ccc(C(F)(F)F)n4)c3c[n-]2)cc1[O-] (cis-trans isomerization)
Cc1ccc(C[N-]C(=O)/N=c2/cc3[n-]nc(OCCn4ccc(C(F)(F)F)n4)c3c[n-]2)cc1[O-] (3D coordinates assigned)
Cc1ccc(C[N-]C(=O)/N=c2/cc3[n-]nc(OCCn4ccc(C(F)(F)F)n4)c3c[n-]2)cc1[O-] (optimized conformer: 118.08213110005384 kcal/mol)

>  <smiles>  (85) 
Cc1ccc(CNC(=O)N=c2cc3[nH]nc(OCCn4ccc(C(F)(F)F)n4)c3c[nH]2)cc1O

>  <score_type>  (85) 
oracle

>  <origin>  (85) 
adg

>  <m_score__min__energy>  (85) 
-15.279999999999999

>  <m_primary>  (85) 
energy

$$$$
85:0
     RDKit          3D

 44 47  0  0  0  0  0  0  0  0999 V2000
   57.4320   25.3280   43.6440 C   0  0  0  0  0  0  0  0  0  0  0  0
   56.8390   23.9960   43.9750 C   0  0  0  0  0  0  0  0  0  0  0  0
   56.9080   22.9550   43.1020 N   0  0  0  0  0  0  0  0  0  0  0  0
   56.3290   21.8460   43.6120 C   0  0  0  0  0  0  0  0  0  0  0  0
   56.2630   20.7240   42.9760 N   0  0  0  0  0  0  0  0  0  0  0  0
   55.7140   22.0880   45.1550 S   0  0  0  0  0  0  0  0  0  0  0  0
   56.2130   23.6960   45.1870 C   0  0  0  0  0  0  0  0  0  0  0  0
   55.9760   24.7820   46.5520 S   0  0  0  0  0  0  0  0  0  0  0  0
   55.2690   26.0370   46.1200 O   0  0  0  0  0  0  0  0  0  0  0  0
   55.1470   24.0820   47.5900 O   0  0  0  0  0  0  0  0  0  0  0  0
   57.5100   25.2080   47.2500 N   0  0  0  0  0  0  0  0  0  0  0  0
   58.2750   26.1990   46.8890 C   0  0  0  0  0  0  0  0  0  0  0  0
   57.7720   27.4900   46.6300 C   0  0  0  0  0  0  0  0  0  0  0  0
   58.6460   28.5090   46.2260 C   0  0  0  0  0  0  0  0  0  0  0  0
   58.1260   29.8710   45.9400 C   0  0  0  0  0  0  0  0  0  0  0  0
   58.7360   31.0310   46.4730 C   0  0  0  0  0  0  0  0  0  0  0  0
   59.8720   30.9630   47.4170 C   0  0  0  0  0  0  0  0  0  0  0  0
   61.1000   31.5410   47.0540 C   0  0  0  0  0  0  0  0  0  0  0  0
   62.1930   31.4750   47.9220 C   0  0  0  0  0  0  0  0  0  0  0  0
   62.0660   30.8450   49.1620 C   0  0  0  0  0  0  0  0  0  0  0  0
   60.8410   30.2860   49.5460 C   0  0  0  0  0  0  0  0  0  0  0  0
   60.7060   29.6670   50.7880 O   0  0  0  0  0  0  0  0  0  0  0  0
   59.7410   30.3520   48.6790 C   0  0  0  0  0  0  0  0  0  0  0  0
   58.5180   29.8250   49.0850 O   0  0  0  0  0  0  0  0  0  0  0  0
   58.2640   32.2560   46.1230 N   0  0  0  0  0  0  0  0  0  0  0  0
   57.2030   32.3960   45.2900 C   0  0  0  0  0  0  0  0  0  0  0  0
   56.7880   33.5440   44.9880 O   0  0  0  0  0  0  0  0  0  0  0  0
   56.5900   31.2980   44.7820 N   0  0  0  0  0  0  0  0  0  0  0  0
   57.0230   30.0470   45.0830 C   0  0  0  0  0  0  0  0  0  0  0  0
   56.4370   29.0550   44.5720 O   0  0  0  0  0  0  0  0  0  0  0  0
   60.0120   28.2260   46.0900 C   0  0  0  0  0  0  0  0  0  0  0  0
   60.4770   26.9410   46.3650 C   0  0  0  0  0  0  0  0  0  0  0  0
   59.6090   25.9690   46.7520 N   0  0  0  0  0  0  0  0  0  0  0  0
   57.6708   25.8644   44.5742 H   0  0  0  0  0  0  0  0  0  0  0  0
   58.3512   25.1845   43.0571 H   0  0  0  0  0  0  0  0  0  0  0  0
   56.7102   25.9151   43.0571 H   0  0  0  0  0  0  0  0  0  0  0  0
   56.7180   19.8610   43.3520 H   0  0  0  0  0  0  0  0  0  0  0  0
   56.6978   27.6972   46.7444 H   0  0  0  0  0  0  0  0  0  0  0  0
   61.2014   32.0474   46.0828 H   0  0  0  0  0  0  0  0  0  0  0  0
   63.1551   31.9200   47.6282 H   0  0  0  0  0  0  0  0  0  0  0  0
   62.9310   30.7878   49.8391 H   0  0  0  0  0  0  0  0  0  0  0  0
   59.8280   29.2570   51.0820 H   0  0  0  0  0  0  0  0  0  0  0  0
   60.7116   29.0117   45.7688 H   0  0  0  0  0  0  0  0  0  0  0  0
   61.5488   26.7130   46.2686 H   0  0  0  0  0  0  0  0  0  0  0  0
  1  2  1  0
  2  3  1  0
  3  4  1  0
  4  5  2  3
  4  6  1  0
  6  7  1  0
  7  8  1  0
  8  9  2  0
  8 10  2  0
  8 11  1  0
 11 12  2  3
 12 13  1  0
 13 14  2  0
 14 15  1  0
 15 16  2  0
 16 17  1  0
 17 18  2  0
 18 19  1  0
 19 20  2  0
 20 21  1  0
 21 22  1  0
 21 23  2  0
 23 24  1  0
 16 25  1  0
 25 26  1  0
 26 27  2  0
 26 28  1  0
 28 29  1  0
 29 30  2  0
 14 31  1  0
 31 32  2  0
 32 33  1  0
  7  2  2  0
 33 12  1  0
 29 15  1  0
 23 17  1  0
  1 34  1  0
  1 35  1  0
  1 36  1  0
  5 37  1  0
 13 38  1  0
 18 39  1  0
 19 40  1  0
 20 41  1  0
 22 42  1  0
 31 43  1  0
 32 44  1  0
M  CHG  5   3  -1  24  -1  25  -1  28  -1  33  -1
M  END
>  <UniqueID>  (86) 
78

>  <SMILES>  (86) 
Cc1[n-]c(=N)sc1S(=O)(=O)N=c1cc(-c2c(-c3cccc(O)c3[O-])[n-]c(=O)[n-]c2=O)cc[n-]1

>  <Energy>  (86) 
98.51917968885525

>  <Genealogy>  (86) 
Cc1[n-]c(=N)sc1S(=O)(=O)N=c1cc(-c2c(-c3cccc(O)c3[O-])[n-]c(=O)[n-]c2=O)cc[n-]1 (protonated)
Cc1[n-]c(=N)sc1S(=O)(=O)N=c1cc(-c2c(-c3cccc(O)c3[O-])[n-]c(=O)[n-]c2=O)cc[n-]1 (3D coordinates assigned)
Cc1[n-]c(=N)sc1S(=O)(=O)N=c1cc(-c2c(-c3cccc(O)c3[O-])[n-]c(=O)[n-]c2=O)cc[n-]1 (optimized conformer: 98.51917968885525 kcal/mol)

>  <smiles>  (86) 
Cc1[nH]c(=N)sc1S(=O)(=O)N=c1cc(-c2c(-c3cccc(O)c3O)[nH]c(=O)[nH]c2=O)cc[nH]1

>  <score_type>  (86) 
oracle

>  <origin>  (86) 
adg

>  <m_score__min__energy>  (86) 
-17.52

>  <m_primary>  (86) 
energy

$$$$
86:0
     RDKit          3D

 55 59  0  0  0  0  0  0  0  0999 V2000
   54.8250   28.4010   44.3860 H   0  0  0  0  0  0  0  0  0  0  0  0
   55.4590   29.2290   44.4500 N   0  0  0  0  0  0  0  0  0  0  0  0
   56.4840   29.2790   45.2380 C   0  0  0  0  0  0  0  0  0  0  0  0
   57.1030   30.4740   45.4400 N   0  0  0  0  0  0  0  0  0  0  0  0
   58.1660   30.6070   46.2730 C   0  0  0  0  0  0  0  0  0  0  0  0
   58.6508   31.5874   46.3904 H   0  0  0  0  0  0  0  0  0  0  0  0
   58.6490   29.4990   46.9850 C   0  0  0  0  0  0  0  0  0  0  0  0
   59.7360   29.6750   47.9760 C   0  0  0  0  0  0  0  0  0  0  0  0
   59.9290   28.7320   48.9340 N   0  0  0  0  0  0  0  0  0  0  0  0
   60.9590   28.8130   49.8190 C   0  0  0  0  0  0  0  0  0  0  0  0
   61.1080   27.8020   50.8320 N   0  0  0  0  0  0  0  0  0  0  0  0
   61.3740   28.2100   52.2190 C   0  0  0  0  0  0  0  0  0  0  0  0
   62.0171   29.1024   52.2142 H   0  0  0  0  0  0  0  0  0  0  0  0
   60.4142   28.4288   52.7098 H   0  0  0  0  0  0  0  0  0  0  0  0
   62.0750   27.0920   52.9960 C   0  0  0  0  0  0  0  0  0  0  0  0
   63.0695   26.9242   52.5568 H   0  0  0  0  0  0  0  0  0  0  0  0
   62.1514   27.4061   54.0474 H   0  0  0  0  0  0  0  0  0  0  0  0
   61.2800   25.7670   52.9510 C   0  0  0  0  0  0  0  0  0  0  0  0
   60.5067   25.8422   53.7297 H   0  0  0  0  0  0  0  0  0  0  0  0
   62.1280   24.6810   53.2270 O   0  0  0  0  0  0  0  0  0  0  0  0
   62.1930   24.5970   54.2200 H   0  0  0  0  0  0  0  0  0  0  0  0
   60.5270   25.5410   51.6150 C   0  0  0  0  0  0  0  0  0  0  0  0
   60.5970   24.4767   51.3461 H   0  0  0  0  0  0  0  0  0  0  0  0
   59.4825   25.8526   51.7629 H   0  0  0  0  0  0  0  0  0  0  0  0
   61.1040   26.3760   50.4690 C   0  0  0  0  0  0  0  0  0  0  0  0
   62.1346   26.0500   50.2649 H   0  0  0  0  0  0  0  0  0  0  0  0
   60.4814   26.2352   49.5731 H   0  0  0  0  0  0  0  0  0  0  0  0
   61.8300   29.8620   49.7460 N   0  0  0  0  0  0  0  0  0  0  0  0
   62.6040   29.9370   50.4430 H   0  0  0  0  0  0  0  0  0  0  0  0
   61.6800   30.8410   48.8070 C   0  0  0  0  0  0  0  0  0  0  0  0
   62.6330   31.9170   48.7320 N   0  0  0  0  0  0  0  0  0  0  0  0
   63.4180   32.2760   47.5570 C   0  0  0  0  0  0  0  0  0  0  0  0
   64.1275   31.4808   47.2845 H   0  0  0  0  0  0  0  0  0  0  0  0
   62.8275   32.4331   46.6424 H   0  0  0  0  0  0  0  0  0  0  0  0
   64.1430   33.5310   48.0750 C   0  0  2  0  0  0  0  0  0  0  0  0
   64.5726   34.1564   47.2785 H   0  0  0  0  0  0  0  0  0  0  0  0
   65.1350   33.1040   48.9960 O   0  0  0  0  0  0  0  0  0  0  0  0
   64.3910   32.7340   50.1480 C   0  0  0  0  0  0  0  0  0  0  0  0
   64.6488   33.3814   50.9991 H   0  0  0  0  0  0  0  0  0  0  0  0
   64.6025   31.7013   50.4624 H   0  0  0  0  0  0  0  0  0  0  0  0
   62.9280   32.9250   49.7520 C   0  0  1  0  0  0  0  0  0  0  0  0
   62.2049   32.9086   50.5808 H   0  0  0  0  0  0  0  0  0  0  0  0
   63.0780   34.1710   48.9380 C   0  0  0  0  0  0  0  0  0  0  0  0
   63.4367   35.0361   49.5150 H   0  0  0  0  0  0  0  0  0  0  0  0
   62.1922   34.6183   48.4634 H   0  0  0  0  0  0  0  0  0  0  0  0
   60.6180   30.7590   47.8950 C   0  0  0  0  0  0  0  0  0  0  0  0
   60.4801   31.5348   47.1275 H   0  0  0  0  0  0  0  0  0  0  0  0
   58.0580   28.2430   46.7590 C   0  0  0  0  0  0  0  0  0  0  0  0
   58.4514   27.3524   47.2710 H   0  0  0  0  0  0  0  0  0  0  0  0
   56.9660   28.1210   45.8810 C   0  0  0  0  0  0  0  0  0  0  0  0
   56.3230   26.8950   45.6570 O   0  0  0  0  0  0  0  0  0  0  0  0
   56.9310   25.6140   45.8170 C   0  0  0  0  0  0  0  0  0  0  0  0
   56.3381   24.8534   45.2879 H   0  0  0  0  0  0  0  0  0  0  0  0
   58.2120   25.6730   45.3100 F   0  0  0  0  0  0  0  0  0  0  0  0
   56.9970   25.2890   47.1640 F   0  0  0  0  0  0  0  0  0  0  0  0
  1  2  1  0
  2  3  2  0
  3  4  1  0
  4  5  1  0
  5  6  1  0
  5  7  2  0
  7  8  1  0
  8  9  2  0
  9 10  1  0
 10 11  1  0
 11 12  1  0
 12 13  1  0
 12 14  1  0
 12 15  1  0
 15 16  1  0
 15 17  1  0
 15 18  1  0
 18 19  1  0
 18 20  1  0
 20 21  1  0
 18 22  1  0
 22 23  1  0
 22 24  1  0
 22 25  1  0
 25 26  1  0
 25 27  1  0
 10 28  2  0
 28 29  1  0
 28 30  1  0
 30 31  1  0
 31 32  1  0
 32 33  1  0
 32 34  1  0
 32 35  1  0
 35 36  1  6
 35 37  1  0
 37 38  1  0
 38 39  1  0
 38 40  1  0
 38 41  1  0
 41 42  1  1
 41 43  1  0
 43 44  1  0
 43 45  1  0
 30 46  2  0
 46 47  1  0
  7 48  1  0
 48 49  1  0
 48 50  2  0
 50 51  1  0
 51 52  1  0
 52 53  1  0
 52 54  1  0
 52 55  1  0
 50  3  1  0
 46  8  1  0
 25 11  1  0
 41 31  1  0
 43 35  1  0
M  CHG  2   4  -1  28   1
M  END
>  <UniqueID>  (87) 
79

>  <SMILES>  (87) 
[H]/N=c1/[n-]cc(-c2cc(N3C[C@H]4C[C@@H]3CO4)[nH+]c(N3CCC(O)CC3)n2)cc1OC(F)F

>  <Energy>  (87) 
105.76441824844078

>  <Genealogy>  (87) 
N=c1[n-]cc(-c2cc(N3CC4CC3CO4)[nH+]c(N3CCC(O)CC3)n2)cc1OC(F)F (protonated)
N=c1[n-]cc(-c2cc(N3C[C@H]4C[C@@H]3CO4)[nH+]c(N3CCC(O)CC3)n2)cc1OC(F)F (chirality)
[H]/N=c1/[n-]cc(-c2cc(N3C[C@H]4C[C@@H]3CO4)[nH+]c(N3CCC(O)CC3)n2)cc1OC(F)F (cis-trans isomerization)
[H]/N=c1/[n-]cc(-c2cc(N3C[C@H]4C[C@@H]3CO4)[nH+]c(N3CCC(O)CC3)n2)cc1OC(F)F (3D coordinates assigned)
[H]/N=c1/[n-]cc(-c2cc(N3C[C@H]4C[C@@H]3CO4)[nH+]c(N3CCC(O)CC3)n2)cc1OC(F)F (nonaromatic ring conformer: 105.76441824844078 kcal/mol)

>  <smiles>  (87) 
N=c1[nH]cc(-c2cc(N3CC4CC3CO4)nc(N3CCC(O)CC3)n2)cc1OC(F)F

>  <score_type>  (87) 
oracle

>  <origin>  (87) 
adg

>  <m_score__min__energy>  (87) 
-6.8899999999999997

>  <m_primary>  (87) 
energy

$$$$
87:0
     RDKit          3D

 48 49  0  0  0  0  0  0  0  0999 V2000
   58.1260   22.0550   44.1920 C   0  0  0  0  0  0  0  0  0  0  0  0
   57.3780   22.3690   45.4830 C   0  0  0  0  0  0  0  0  0  0  0  0
   58.1590   23.2150   46.3230 O   0  0  0  0  0  0  0  0  0  0  0  0
   59.1190   24.1120   45.8400 C   0  0  0  0  0  0  0  0  0  0  0  0
   60.3000   23.7230   45.6280 O   0  0  0  0  0  0  0  0  0  0  0  0
   58.7740   25.5280   45.6170 C   0  0  0  0  0  0  0  0  0  0  0  0
   57.6990   26.0360   44.4270 S   0  0  0  0  0  0  0  0  0  0  0  0
   57.8950   27.6750   44.6980 C   0  0  0  0  0  0  0  0  0  0  0  0
   57.2970   28.6840   43.8790 N   0  0  0  0  0  0  0  0  0  0  0  0
   56.3920   29.6890   44.3590 C   0  0  0  0  0  0  0  0  0  0  0  0
   55.3070   29.3280   44.8850 O   0  0  0  0  0  0  0  0  0  0  0  0
   56.6950   31.1550   44.2360 C   0  0  0  0  0  0  0  0  0  0  0  0
   57.3650   31.6290   45.4500 N   0  0  0  0  0  0  0  0  0  0  0  0
   57.9620   33.2430   45.2140 S   0  0  0  0  0  0  0  0  0  0  0  0
   58.5100   33.3780   43.8200 O   0  0  0  0  0  0  0  0  0  0  0  0
   56.8310   34.2180   45.3740 O   0  0  0  0  0  0  0  0  0  0  0  0
   59.2180   33.6130   46.3930 C   0  0  0  0  0  0  0  0  0  0  0  0
   58.8670   33.9240   47.7140 C   0  0  0  0  0  0  0  0  0  0  0  0
   59.8600   34.2040   48.6580 C   0  0  0  0  0  0  0  0  0  0  0  0
   61.2080   34.1710   48.2870 C   0  0  0  0  0  0  0  0  0  0  0  0
   61.5640   33.8560   46.9720 C   0  0  0  0  0  0  0  0  0  0  0  0
   62.8710   33.8180   46.6150 F   0  0  0  0  0  0  0  0  0  0  0  0
   60.5720   33.5740   46.0270 C   0  0  0  0  0  0  0  0  0  0  0  0
   58.8050   27.8780   45.7380 C   0  0  0  0  0  0  0  0  0  0  0  0
   59.1950   29.2250   46.2090 C   0  0  0  0  0  0  0  0  0  0  0  0
   60.0380   29.9050   45.5620 O   0  0  0  0  0  0  0  0  0  0  0  0
   58.5920   29.7590   47.3510 O   0  0  0  0  0  0  0  0  0  0  0  0
   59.3350   30.1360   48.5040 C   0  0  0  0  0  0  0  0  0  0  0  0
   59.2830   26.6570   46.2810 C   0  0  0  0  0  0  0  0  0  0  0  0
   60.2130   26.5740   47.4630 C   0  0  0  0  0  0  0  0  0  0  0  0
   59.1155   21.6396   44.4333 H   0  0  0  0  0  0  0  0  0  0  0  0
   57.5534   21.3213   43.6056 H   0  0  0  0  0  0  0  0  0  0  0  0
   58.2487   22.9776   43.6056 H   0  0  0  0  0  0  0  0  0  0  0  0
   56.4325   22.8755   45.2388 H   0  0  0  0  0  0  0  0  0  0  0  0
   57.1791   21.4271   46.0153 H   0  0  0  0  0  0  0  0  0  0  0  0
   57.3513   31.3204   43.3689 H   0  0  0  0  0  0  0  0  0  0  0  0
   55.7545   31.7093   44.1013 H   0  0  0  0  0  0  0  0  0  0  0  0
   58.1910   31.0140   45.6320 H   0  0  0  0  0  0  0  0  0  0  0  0
   57.8075   33.9479   48.0089 H   0  0  0  0  0  0  0  0  0  0  0  0
   59.5806   34.4504   49.6930 H   0  0  0  0  0  0  0  0  0  0  0  0
   61.9884   34.3929   49.0298 H   0  0  0  0  0  0  0  0  0  0  0  0
   60.8541   33.3210   44.9943 H   0  0  0  0  0  0  0  0  0  0  0  0
   58.7769   29.8528   49.4086 H   0  0  0  0  0  0  0  0  0  0  0  0
   60.3077   29.6224   48.4975 H   0  0  0  0  0  0  0  0  0  0  0  0
   59.4949   31.2243   48.4975 H   0  0  0  0  0  0  0  0  0  0  0  0
   59.6288   26.6261   48.3936 H   0  0  0  0  0  0  0  0  0  0  0  0
   60.7648   25.6230   47.4293 H   0  0  0  0  0  0  0  0  0  0  0  0
   60.9245   27.4122   47.4293 H   0  0  0  0  0  0  0  0  0  0  0  0
  1  2  1  0
  2  3  1  0
  3  4  1  0
  4  5  2  0
  4  6  1  0
  6  7  1  0
  7  8  1  0
  8  9  1  0
  9 10  1  0
 10 11  2  0
 10 12  1  0
 12 13  1  0
 13 14  1  0
 14 15  2  0
 14 16  2  0
 14 17  1  0
 17 18  2  0
 18 19  1  0
 19 20  2  0
 20 21  1  0
 21 22  1  0
 21 23  2  0
  8 24  2  0
 24 25  1  0
 25 26  2  0
 25 27  1  0
 27 28  1  0
 24 29  1  0
 29 30  1  0
 29  6  2  0
 23 17  1  0
  1 31  1  0
  1 32  1  0
  1 33  1  0
  2 34  1  0
  2 35  1  0
 12 36  1  0
 12 37  1  0
 13 38  1  0
 18 39  1  0
 19 40  1  0
 20 41  1  0
 23 42  1  0
 28 43  1  0
 28 44  1  0
 28 45  1  0
 30 46  1  0
 30 47  1  0
 30 48  1  0
M  CHG  1   9  -1
M  END
>  <UniqueID>  (88) 
80

>  <SMILES>  (88) 
CCOC(=O)c1sc([N-]C(=O)CNS(=O)(=O)c2cccc(F)c2)c(C(=O)OC)c1C

>  <Energy>  (88) 
73.8701919837615

>  <Genealogy>  (88) 
CCOC(=O)c1sc([N-]C(=O)CNS(=O)(=O)c2cccc(F)c2)c(C(=O)OC)c1C (protonated)
CCOC(=O)c1sc([N-]C(=O)CNS(=O)(=O)c2cccc(F)c2)c(C(=O)OC)c1C (3D coordinates assigned)
CCOC(=O)c1sc([N-]C(=O)CNS(=O)(=O)c2cccc(F)c2)c(C(=O)OC)c1C (optimized conformer: 73.8701919837615 kcal/mol)

>  <smiles>  (88) 
CCOC(=O)c1sc(NC(=O)CNS(=O)(=O)c2cccc(F)c2)c(C(=O)OC)c1C

>  <score_type>  (88) 
oracle

>  <origin>  (88) 
adg

>  <m_score__min__energy>  (88) 
-9.5099999999999998

>  <m_primary>  (88) 
energy

$$$$
88:0
     RDKit          3D

 40 42  0  0  1  0  0  0  0  0999 V2000
   56.5090   29.4330   42.7180 N   0  0  0  0  0  0  0  0  0  0  0  0
   56.5260   29.8980   44.4000 S   0  0  0  0  0  0  0  0  0  0  0  0
   55.2310   29.3480   44.9760 O   0  0  0  0  0  0  0  0  0  0  0  0
   56.6240   31.3700   44.4960 O   0  0  0  0  0  0  0  0  0  0  0  0
   57.9050   29.0660   45.1260 C   0  0  0  0  0  0  0  0  0  0  0  0
   58.8710   28.5030   44.3020 C   0  0  0  0  0  0  0  0  0  0  0  0
   59.9610   27.8560   44.8450 C   0  0  0  0  0  0  0  0  0  0  0  0
   60.0330   27.8030   46.2200 C   0  0  0  0  0  0  0  0  0  0  0  0
   59.0850   28.3540   47.0490 C   0  0  0  0  0  0  0  0  0  0  0  0
   59.2710   28.2470   48.4510 N   0  0  0  0  0  0  0  0  0  0  0  0
   59.6990   29.2480   49.1180 C   0  0  0  0  0  0  0  0  0  0  0  0
   59.7120   30.5350   48.6240 C   0  0  0  0  0  0  0  0  0  0  0  0
   60.1880   31.6110   49.3890 C   0  0  0  0  0  0  0  0  0  0  0  0
   60.1710   32.9280   48.8770 N   0  0  0  0  0  0  0  0  0  0  0  0
   59.4600   33.3860   47.7600 C   0  0  0  0  0  0  0  0  0  0  0  0
   58.1370   32.9930   47.6220 C   0  0  0  0  0  0  0  0  0  0  0  0
   57.3580   33.3760   46.5460 C   0  0  0  0  0  0  0  0  0  0  0  0
   57.9160   34.1870   45.5560 C   0  0  0  0  0  0  0  0  0  0  0  0
   57.0930   34.5470   44.4910 O   0  0  0  0  0  0  0  0  0  0  0  0
   59.2190   34.5900   45.6650 C   0  0  0  0  0  0  0  0  0  0  0  0
   59.9670   34.1840   46.7620 C   0  0  0  0  0  0  0  0  0  0  0  0
   60.6200   31.2850   50.6190 N   0  0  0  0  0  0  0  0  0  0  0  0
   60.6000   30.0080   51.0870 C   0  0  0  0  0  0  0  0  0  0  0  0
   60.1540   28.9760   50.3770 N   0  0  0  0  0  0  0  0  0  0  0  0
   57.9970   29.0000   46.5010 C   0  0  0  0  0  0  0  0  0  0  0  0
   56.2690   28.4200   42.6100 H   0  0  0  0  0  0  0  0  0  0  0  0
   57.4440   29.5860   42.2740 H   0  0  0  0  0  0  0  0  0  0  0  0
   58.7659   28.5737   43.2093 H   0  0  0  0  0  0  0  0  0  0  0  0
   60.7368   27.4033   44.2101 H   0  0  0  0  0  0  0  0  0  0  0  0
   60.8936   27.2934   46.6780 H   0  0  0  0  0  0  0  0  0  0  0  0
   59.3404   30.7230   47.6059 H   0  0  0  0  0  0  0  0  0  0  0  0
   60.7590   33.6480   49.3930 H   0  0  0  0  0  0  0  0  0  0  0  0
   57.6911   32.3528   48.3975 H   0  0  0  0  0  0  0  0  0  0  0  0
   56.3114   33.0458   46.4708 H   0  0  0  0  0  0  0  0  0  0  0  0
   56.6490   33.8730   43.9150 H   0  0  0  0  0  0  0  0  0  0  0  0
   59.6694   35.2292   44.8913 H   0  0  0  0  0  0  0  0  0  0  0  0
   61.0131   34.5160   46.8359 H   0  0  0  0  0  0  0  0  0  0  0  0
   60.9800   32.0030   51.2710 H   0  0  0  0  0  0  0  0  0  0  0  0
   60.9718   29.8194   52.1049 H   0  0  0  0  0  0  0  0  0  0  0  0
   57.2244   29.4499   47.1419 H   0  0  0  0  0  0  0  0  0  0  0  0
  1  2  1  0
  2  3  2  0
  2  4  2  0
  2  5  1  0
  5  6  2  0
  6  7  1  0
  7  8  2  0
  8  9  1  0
  9 10  1  0
 10 11  2  0
 11 12  1  0
 12 13  2  0
 13 14  1  0
 14 15  1  0
 15 16  2  0
 16 17  1  0
 17 18  2  0
 18 19  1  0
 18 20  1  0
 20 21  2  0
 13 22  1  0
 22 23  1  0
 23 24  2  0
  9 25  2  0
 25  5  1  0
 24 11  1  0
 21 15  1  0
  1 26  1  0
  1 27  1  0
  6 28  1  0
  7 29  1  0
  8 30  1  0
 12 31  1  0
 14 32  1  0
 16 33  1  0
 17 34  1  0
 19 35  1  0
 20 36  1  0
 21 37  1  0
 22 38  1  0
 23 39  1  0
 25 40  1  0
M  END
>  <smiles>  (89) 
NS(=O)(=O)c1cccc(N=c2cc(Nc3ccc(O)cc3)[nH]cn2)c1

>  <score_type>  (89) 
oracle

>  <origin>  (89) 
adg

>  <m_score__min__energy>  (89) 
-8.7599999999999998

>  <m_primary>  (89) 
energy

$$$$
89:0
     RDKit          3D

 44 47  0  0  0  0  0  0  0  0999 V2000
   58.7072   34.2115   47.3987 H   0  0  0  0  0  0  0  0  0  0  0  0
   58.8090   33.1670   47.0690 C   0  0  0  0  0  0  0  0  0  0  0  0
   57.7830   32.4810   46.4940 N   0  0  0  0  0  0  0  0  0  0  0  0
   58.1340   31.2160   46.1810 C   0  0  0  0  0  0  0  0  0  0  0  0
   57.3170   30.3940   45.5890 N   0  0  0  0  0  0  0  0  0  0  0  0
   57.5040   29.8250   44.2840 C   0  0  0  0  0  0  0  0  0  0  0  0
   57.5070   30.5830   43.2780 O   0  0  0  0  0  0  0  0  0  0  0  0
   57.6590   28.3710   44.0940 C   0  0  0  0  0  0  0  0  0  0  0  0
   57.7590   27.8320   42.8080 C   0  0  0  0  0  0  0  0  0  0  0  0
   57.7901   28.4969   41.9322 H   0  0  0  0  0  0  0  0  0  0  0  0
   57.8190   26.4530   42.6390 C   0  0  0  0  0  0  0  0  0  0  0  0
   57.9297   26.0240   41.6321 H   0  0  0  0  0  0  0  0  0  0  0  0
   57.7380   25.6140   43.7550 C   0  0  0  0  0  0  0  0  0  0  0  0
   57.7670   24.3660   43.5820 O   0  0  0  0  0  0  0  0  0  0  0  0
   57.6180   26.1470   45.0150 N   0  0  0  0  0  0  0  0  0  0  0  0
   57.3880   25.2760   46.1800 C   0  0  0  0  0  0  0  0  0  0  0  0
   58.2288   24.5740   46.2810 H   0  0  0  0  0  0  0  0  0  0  0  0
   57.3086   25.8975   47.0841 H   0  0  0  0  0  0  0  0  0  0  0  0
   56.1050   24.4970   46.0010 C   0  0  0  0  0  0  0  0  0  0  0  0
   56.1490   23.0960   45.8820 C   0  0  0  0  0  0  0  0  0  0  0  0
   57.1116   22.5704   45.9665 H   0  0  0  0  0  0  0  0  0  0  0  0
   54.9770   22.3670   45.6570 C   0  0  0  0  0  0  0  0  0  0  0  0
   55.0206   21.2713   45.5696 H   0  0  0  0  0  0  0  0  0  0  0  0
   53.7510   23.0270   45.5430 C   0  0  0  0  0  0  0  0  0  0  0  0
   52.5890   22.3010   45.3210 O   0  0  0  0  0  0  0  0  0  0  0  0
   53.6960   24.4190   45.6560 C   0  0  0  0  0  0  0  0  0  0  0  0
   52.7305   24.9380   45.5644 H   0  0  0  0  0  0  0  0  0  0  0  0
   54.8630   25.1550   45.8850 C   0  0  0  0  0  0  0  0  0  0  0  0
   54.7780   26.5380   46.0000 O   0  0  0  0  0  0  0  0  0  0  0  0
   57.6160   27.5050   45.1920 C   0  0  0  0  0  0  0  0  0  0  0  0
   57.5801   27.9200   46.2101 H   0  0  0  0  0  0  0  0  0  0  0  0
   59.7400   30.9050   46.5860 S   0  0  0  0  0  0  0  0  0  0  0  0
   60.0030   32.4490   47.2110 C   0  0  0  0  0  0  0  0  0  0  0  0
   61.2790   32.9310   47.7970 C   0  0  0  0  0  0  0  0  0  0  0  0
   62.5200   32.5830   47.2270 C   0  0  0  0  0  0  0  0  0  0  0  0
   62.5498   31.9442   46.3320 H   0  0  0  0  0  0  0  0  0  0  0  0
   63.7140   33.0440   47.7910 C   0  0  0  0  0  0  0  0  0  0  0  0
   64.6772   32.7681   47.3371 H   0  0  0  0  0  0  0  0  0  0  0  0
   63.6870   33.8530   48.9280 C   0  0  0  0  0  0  0  0  0  0  0  0
   64.6278   34.2144   49.3688 H   0  0  0  0  0  0  0  0  0  0  0  0
   62.4660   34.2030   49.5050 C   0  0  0  0  0  0  0  0  0  0  0  0
   62.4454   34.8407   50.4010 H   0  0  0  0  0  0  0  0  0  0  0  0
   61.2680   33.7450   48.9470 C   0  0  0  0  0  0  0  0  0  0  0  0
   60.3094   34.0226   49.4097 H   0  0  0  0  0  0  0  0  0  0  0  0
  1  2  1  0
  2  3  1  0
  3  4  1  0
  4  5  2  0
  5  6  1  0
  6  7  2  0
  6  8  1  0
  8  9  1  0
  9 10  1  0
  9 11  2  0
 11 12  1  0
 11 13  1  0
 13 14  2  0
 13 15  1  0
 15 16  1  0
 16 17  1  0
 16 18  1  0
 16 19  1  0
 19 20  2  0
 20 21  1  0
 20 22  1  0
 22 23  1  0
 22 24  2  0
 24 25  1  0
 24 26  1  0
 26 27  1  0
 26 28  2  0
 28 29  1  0
 15 30  1  0
 30 31  1  0
  4 32  1  0
 32 33  1  0
 33 34  1  0
 34 35  2  0
 35 36  1  0
 35 37  1  0
 37 38  1  0
 37 39  2  0
 39 40  1  0
 39 41  1  0
 41 42  1  0
 41 43  2  0
 43 44  1  0
 33  2  2  0
 43 34  1  0
 30  8  2  0
 28 19  1  0
M  CHG  3   3  -1  25  -1  29  -1
M  END
>  <UniqueID>  (90) 
81

>  <SMILES>  (90) 
O=C(/N=c1/[n-]cc(-c2ccccc2)s1)c1ccc(=O)n(Cc2ccc([O-])cc2[O-])c1

>  <Energy>  (90) 
92.10049109392652

>  <Genealogy>  (90) 
O=C(N=c1[n-]cc(-c2ccccc2)s1)c1ccc(=O)n(Cc2ccc([O-])cc2[O-])c1 (protonated)
O=C(/N=c1/[n-]cc(-c2ccccc2)s1)c1ccc(=O)n(Cc2ccc([O-])cc2[O-])c1 (cis-trans isomerization)
O=C(/N=c1/[n-]cc(-c2ccccc2)s1)c1ccc(=O)n(Cc2ccc([O-])cc2[O-])c1 (3D coordinates assigned)
O=C(/N=c1/[n-]cc(-c2ccccc2)s1)c1ccc(=O)n(Cc2ccc([O-])cc2[O-])c1 (optimized conformer: 92.10049109392652 kcal/mol)

>  <smiles>  (90) 
O=C(N=c1[nH]cc(-c2ccccc2)s1)c1ccc(=O)n(Cc2ccc(O)cc2O)c1

>  <score_type>  (90) 
oracle

>  <origin>  (90) 
adg

>  <m_score__min__energy>  (90) 
-16.43

>  <m_primary>  (90) 
energy

$$$$
90:0
     RDKit          3D

 47 50  0  0  0  0  0  0  0  0999 V2000
   55.2879   24.5592   47.4201 H   0  0  0  0  0  0  0  0  0  0  0  0
   56.2910   24.6720   46.9830 C   0  0  0  0  0  0  0  0  0  0  0  0
   57.0860   25.5960   47.4330 N   0  0  0  0  0  0  0  0  0  0  0  0
   57.4630   26.7820   46.7140 C   0  0  0  0  0  0  0  0  0  0  0  0
   58.7960   27.2380   46.6720 C   0  0  0  0  0  0  0  0  0  0  0  0
   59.8040   26.4780   47.2590 O   0  0  0  0  0  0  0  0  0  0  0  0
   59.1250   28.4240   45.9800 C   0  0  0  0  0  0  0  0  0  0  0  0
   60.4770   28.9160   45.9510 N   0  0  0  0  0  0  0  0  0  0  0  0
   60.8560   30.0720   46.4080 C   0  0  0  0  0  0  0  0  0  0  0  0
   61.7468   30.5636   45.9899 H   0  0  0  0  0  0  0  0  0  0  0  0
   60.0820   30.7330   47.5010 C   0  0  0  0  0  0  0  0  0  0  0  0
   59.2420   30.0857   47.7931 H   0  0  0  0  0  0  0  0  0  0  0  0
   60.7479   30.8983   48.3608 H   0  0  0  0  0  0  0  0  0  0  0  0
   59.5470   32.0600   47.0350 C   0  0  0  0  0  0  0  0  0  0  0  0
   58.1630   32.3020   47.0190 C   0  0  0  0  0  0  0  0  0  0  0  0
   57.4673   31.5287   47.3768 H   0  0  0  0  0  0  0  0  0  0  0  0
   57.6670   33.5220   46.5500 C   0  0  0  0  0  0  0  0  0  0  0  0
   56.5831   33.7094   46.5461 H   0  0  0  0  0  0  0  0  0  0  0  0
   58.5470   34.5040   46.0860 C   0  0  0  0  0  0  0  0  0  0  0  0
   58.1553   35.4648   45.7207 H   0  0  0  0  0  0  0  0  0  0  0  0
   59.9230   34.2660   46.0860 C   0  0  0  0  0  0  0  0  0  0  0  0
   60.6136   35.0387   45.7172 H   0  0  0  0  0  0  0  0  0  0  0  0
   60.4250   33.0470   46.5540 C   0  0  0  0  0  0  0  0  0  0  0  0
   61.5090   32.8604   46.5456 H   0  0  0  0  0  0  0  0  0  0  0  0
   58.1280   29.0950   45.2390 C   0  0  0  0  0  0  0  0  0  0  0  0
   58.4300   30.2560   44.4970 C   0  0  0  0  0  0  0  0  0  0  0  0
   59.4577   30.6482   44.4925 H   0  0  0  0  0  0  0  0  0  0  0  0
   57.4370   30.9110   43.7690 C   0  0  0  0  0  0  0  0  0  0  0  0
   57.6857   31.8148   43.1934 H   0  0  0  0  0  0  0  0  0  0  0  0
   56.1310   30.4250   43.7680 C   0  0  0  0  0  0  0  0  0  0  0  0
   55.3520   30.9463   43.1923 H   0  0  0  0  0  0  0  0  0  0  0  0
   55.8090   29.2780   44.4960 C   0  0  0  0  0  0  0  0  0  0  0  0
   54.7764   28.8989   44.4902 H   0  0  0  0  0  0  0  0  0  0  0  0
   56.7970   28.6040   45.2370 C   0  0  0  0  0  0  0  0  0  0  0  0
   56.4770   27.4520   45.9780 C   0  0  0  0  0  0  0  0  0  0  0  0
   55.1720   26.9640   45.9920 O   0  0  0  0  0  0  0  0  0  0  0  0
   56.7170   23.7690   45.8900 C   0  0  0  0  0  0  0  0  0  0  0  0
   56.5990   24.1620   44.5430 C   0  0  0  0  0  0  0  0  0  0  0  0
   56.1846   25.1507   44.2966 H   0  0  0  0  0  0  0  0  0  0  0  0
   57.0050   23.3040   43.5170 C   0  0  0  0  0  0  0  0  0  0  0  0
   56.9088   23.6198   42.4677 H   0  0  0  0  0  0  0  0  0  0  0  0
   57.5320   22.0480   43.8200 C   0  0  0  0  0  0  0  0  0  0  0  0
   57.8488   21.3741   43.0104 H   0  0  0  0  0  0  0  0  0  0  0  0
   57.6570   21.6470   45.1530 C   0  0  0  0  0  0  0  0  0  0  0  0
   58.0747   20.6575   45.3904 H   0  0  0  0  0  0  0  0  0  0  0  0
   57.2530   22.4990   46.1870 C   0  0  0  0  0  0  0  0  0  0  0  0
   57.3890   22.0730   47.5040 O   0  0  0  0  0  0  0  0  0  0  0  0
  1  2  1  0
  2  3  2  0
  3  4  1  0
  4  5  2  0
  5  6  1  0
  5  7  1  0
  7  8  1  0
  8  9  2  0
  9 10  1  0
  9 11  1  0
 11 12  1  0
 11 13  1  0
 11 14  1  0
 14 15  2  0
 15 16  1  0
 15 17  1  0
 17 18  1  0
 17 19  2  0
 19 20  1  0
 19 21  1  0
 21 22  1  0
 21 23  2  0
 23 24  1  0
  7 25  2  0
 25 26  1  0
 26 27  1  0
 26 28  2  0
 28 29  1  0
 28 30  1  0
 30 31  1  0
 30 32  2  0
 32 33  1  0
 32 34  1  0
 34 35  2  0
 35 36  1  0
  2 37  1  0
 37 38  2  0
 38 39  1  0
 38 40  1  0
 40 41  1  0
 40 42  2  0
 42 43  1  0
 42 44  1  0
 44 45  1  0
 44 46  2  0
 46 47  1  0
 35  4  1  0
 46 37  1  0
 23 14  1  0
 34 25  1  0
M  CHG  3   6  -1  36  -1  47  -1
M  END
>  <UniqueID>  (91) 
82

>  <SMILES>  (91) 
[O-]c1ccccc1/C=N/c1c([O-])c(/N=C/Cc2ccccc2)c2ccccc2c1[O-]

>  <Energy>  (91) 
66.55503988849568

>  <Genealogy>  (91) 
[O-]c1ccccc1C=Nc1c([O-])c(N=CCc2ccccc2)c2ccccc2c1[O-] (protonated)
[O-]c1ccccc1/C=N/c1c([O-])c(/N=C/Cc2ccccc2)c2ccccc2c1[O-] (cis-trans isomerization)
[O-]c1ccccc1/C=N/c1c([O-])c(/N=C/Cc2ccccc2)c2ccccc2c1[O-] (3D coordinates assigned)
[O-]c1ccccc1/C=N/c1c([O-])c(/N=C/Cc2ccccc2)c2ccccc2c1[O-] (optimized conformer: 66.55503988849568 kcal/mol)

>  <smiles>  (91) 
Oc1ccccc1C=Nc1c(O)c(N=CCc2ccccc2)c2ccccc2c1O

>  <score_type>  (91) 
oracle

>  <origin>  (91) 
adg

>  <m_score__min__energy>  (91) 
-15.93

>  <m_primary>  (91) 
energy

$$$$
