0:0
     RDKit          3D

 43 46  0  0  0  0  0  0  0  0999 V2000
   64.2910   34.7430   51.8180 N   0  0  0  0  0  0  0  0  0  0  0  0
   63.8940   34.2200   50.8660 C   0  0  0  0  0  0  0  0  0  0  0  0
   63.3990   33.5700   49.6850 C   0  0  0  0  0  0  0  0  0  0  0  0
   64.1360   33.3090   48.5390 C   0  0  0  0  0  0  0  0  0  0  0  0
   63.3910   32.6620   47.5470 C   0  0  0  0  0  0  0  0  0  0  0  0
   62.0720   32.4240   47.9180 C   0  0  0  0  0  0  0  0  0  0  0  0
   61.0290   31.7410   47.0720 C   0  0  0  0  0  0  0  0  0  0  0  0
   59.9330   32.6360   46.6420 N   0  0  0  0  0  0  0  0  0  0  0  0
   58.9240   32.8790   47.6820 C   0  0  0  0  0  0  0  0  0  0  0  0
   57.6500   33.4490   47.0380 C   0  0  0  0  0  0  0  0  0  0  0  0
   57.9130   34.2090   45.7920 N   0  0  0  0  0  0  0  0  0  0  0  0
   57.4810   33.5370   44.5450 C   0  0  0  0  0  0  0  0  0  0  0  0
   57.4290   32.0430   44.6670 C   0  0  0  0  0  0  0  0  0  0  0  0
   58.5050   31.2490   44.8010 N   0  0  0  0  0  0  0  0  0  0  0  0
   57.9550   30.0240   44.9270 C   0  0  0  0  0  0  0  0  0  0  0  0
   58.7030   28.7400   45.1660 C   0  0  0  0  0  0  0  0  0  0  0  0
   60.2220   28.8120   45.1080 C   0  0  0  0  0  0  0  0  0  0  0  0
   59.5150   28.6890   46.4510 C   0  0  0  0  0  0  0  0  0  0  0  0
   56.6090   30.0790   44.8650 N   0  0  0  0  0  0  0  0  0  0  0  0
   56.3240   31.3380   44.7030 O   0  0  0  0  0  0  0  0  0  0  0  0
   59.2420   34.8550   45.7220 C   0  0  0  0  0  0  0  0  0  0  0  0
   60.4110   33.9050   46.0650 C   0  0  0  0  0  0  0  0  0  0  0  0
   61.8300   33.0050   49.4800 S   0  0  0  0  0  0  0  0  0  0  0  0
   65.1952   33.5821   48.4224 H   0  0  0  0  0  0  0  0  0  0  0  0
   63.8070   32.3707   46.5712 H   0  0  0  0  0  0  0  0  0  0  0  0
   61.5200   31.3371   46.1743 H   0  0  0  0  0  0  0  0  0  0  0  0
   60.5764   30.9539   47.6929 H   0  0  0  0  0  0  0  0  0  0  0  0
   58.6861   31.9328   48.1900 H   0  0  0  0  0  0  0  0  0  0  0  0
   59.3184   33.5995   48.4137 H   0  0  0  0  0  0  0  0  0  0  0  0
   56.9744   32.6137   46.8016 H   0  0  0  0  0  0  0  0  0  0  0  0
   57.2052   34.1499   47.7598 H   0  0  0  0  0  0  0  0  0  0  0  0
   56.4773   33.9015   44.2810 H   0  0  0  0  0  0  0  0  0  0  0  0
   58.2242   33.7762   43.7701 H   0  0  0  0  0  0  0  0  0  0  0  0
   59.5090   31.5340   44.8300 H   0  0  0  0  0  0  0  0  0  0  0  0
   57.9427   28.1033   44.6900 H   0  0  0  0  0  0  0  0  0  0  0  0
   60.7982   27.9638   44.7099 H   0  0  0  0  0  0  0  0  0  0  0  0
   60.9519   29.5112   44.6740 H   0  0  0  0  0  0  0  0  0  0  0  0
   59.5806   27.7519   47.0233 H   0  0  0  0  0  0  0  0  0  0  0  0
   59.5227   29.2627   47.3895 H   0  0  0  0  0  0  0  0  0  0  0  0
   59.3907   35.2344   44.7003 H   0  0  0  0  0  0  0  0  0  0  0  0
   59.2494   35.6592   46.4725 H   0  0  0  0  0  0  0  0  0  0  0  0
   60.9752   33.6882   45.1459 H   0  0  0  0  0  0  0  0  0  0  0  0
   61.0479   34.4019   46.8116 H   0  0  0  0  0  0  0  0  0  0  0  0
  1  2  3  0
  2  3  1  0
  3  4  2  0
  4  5  1  0
  5  6  2  0
  6  7  1  0
  7  8  1  0
  8  9  1  0
  9 10  1  0
 10 11  1  0
 11 12  1  0
 12 13  1  0
 13 14  2  0
 14 15  1  0
 15 16  1  0
 16 17  1  0
 17 18  1  0
 15 19  2  0
 19 20  1  0
 11 21  1  0
 21 22  1  0
  6 23  1  0
 23  3  1  0
 22  8  1  0
 20 13  1  0
 18 16  1  0
  4 24  1  0
  5 25  1  0
  7 26  1  0
  7 27  1  0
  9 28  1  0
  9 29  1  0
 10 30  1  0
 10 31  1  0
 12 32  1  0
 12 33  1  0
 14 34  1  0
 16 35  1  0
 17 36  1  0
 17 37  1  0
 18 38  1  0
 18 39  1  0
 21 40  1  0
 21 41  1  0
 22 42  1  0
 22 43  1  0
M  CHG  1  14   1
M  END
>  <UniqueID>  (1) 
1

>  <SMILES>  (1) 
N#Cc1ccc(CN2CCN(Cc3[nH+]c(C4CC4)no3)CC2)s1

>  <Energy>  (1) 
382.9184109623583

>  <Genealogy>  (1) 
N#Cc1ccc(CN2CCN(Cc3[nH+]c(C4CC4)no3)CC2)s1 (protonated)
N#Cc1ccc(CN2CCN(Cc3[nH+]c(C4CC4)no3)CC2)s1 (3D coordinates assigned)
N#Cc1ccc(CN2CCN(Cc3[nH+]c(C4CC4)no3)CC2)s1 (nonaromatic ring conformer: 382.9184109623583 kcal/mol)

>  <smiles>  (1) 
N#Cc1ccc(CN2CCN(Cc3nc(C4CC4)no3)CC2)s1

>  <score_type>  (1) 
oracle

>  <origin>  (1) 
adg

>  <m_score__min__energy>  (1) 
-6.5199999999999996

>  <m_primary>  (1) 
energy

$$$$
1:0
     RDKit          3D

 47 51  0  0  0  0  0  0  0  0999 V2000
   57.8811   33.5019   45.3422 H   0  0  0  0  0  0  0  0  0  0  0  0
   57.5970   32.7060   44.6380 C   0  0  0  0  0  0  0  0  0  0  0  0
   56.7190   31.7590   44.8810 O   0  0  0  0  0  0  0  0  0  0  0  0
   56.6360   30.9870   43.8210 C   0  0  0  0  0  0  0  0  0  0  0  0
   55.7230   29.8050   43.7150 C   0  0  0  0  0  0  0  0  0  0  0  0
   56.1022   29.1237   42.9391 H   0  0  0  0  0  0  0  0  0  0  0  0
   54.7150   30.1579   43.4517 H   0  0  0  0  0  0  0  0  0  0  0  0
   55.6550   29.0920   44.9890 N   0  0  0  0  0  0  0  0  0  0  0  0
   56.6740   28.5600   45.5990 C   0  0  0  0  0  0  0  0  0  0  0  0
   56.7640   27.2120   45.7550 N   0  0  0  0  0  0  0  0  0  0  0  0
   57.8280   26.6610   46.3900 C   0  0  0  0  0  0  0  0  0  0  0  0
   57.9080   25.3690   46.4990 N   0  0  0  0  0  0  0  0  0  0  0  0
   57.2670   24.4460   45.6090 C   0  0  0  0  0  0  0  0  0  0  0  0
   58.0360   23.5470   44.8440 C   0  0  0  0  0  0  0  0  0  0  0  0
   59.1330   23.5615   44.9239 H   0  0  0  0  0  0  0  0  0  0  0  0
   57.4080   22.6270   43.9750 C   0  0  0  0  0  0  0  0  0  0  0  0
   58.0191   21.9200   43.3947 H   0  0  0  0  0  0  0  0  0  0  0  0
   56.0070   22.6080   43.8460 C   0  0  0  0  0  0  0  0  0  0  0  0
   55.5076   21.8924   43.1763 H   0  0  0  0  0  0  0  0  0  0  0  0
   55.2730   23.5260   44.5950 C   0  0  0  0  0  0  0  0  0  0  0  0
   53.9180   23.7650   44.6370 C   0  0  0  0  0  0  0  0  0  0  0  0
   53.1279   23.2316   44.0881 H   0  0  0  0  0  0  0  0  0  0  0  0
   53.7630   24.8250   45.5220 C   0  0  0  0  0  0  0  0  0  0  0  0
   52.7972   25.2776   45.7910 H   0  0  0  0  0  0  0  0  0  0  0  0
   54.9600   25.2250   46.0080 N   0  0  0  0  0  0  0  0  0  0  0  0
   55.1290   26.0060   46.6800 H   0  0  0  0  0  0  0  0  0  0  0  0
   55.8760   24.4190   45.4420 C   0  0  0  0  0  0  0  0  0  0  0  0
   58.8120   27.4680   46.8670 N   0  0  0  0  0  0  0  0  0  0  0  0
   58.7350   28.8180   46.7200 C   0  0  0  0  0  0  0  0  0  0  0  0
   59.6970   29.5940   47.1320 N   0  0  0  0  0  0  0  0  0  0  0  0
   59.6450   31.0250   47.2430 C   0  0  0  0  0  0  0  0  0  0  0  0
   58.5210   31.6840   47.7720 C   0  0  0  0  0  0  0  0  0  0  0  0
   57.6572   31.0989   48.1206 H   0  0  0  0  0  0  0  0  0  0  0  0
   58.4960   33.0790   47.8570 C   0  0  0  0  0  0  0  0  0  0  0  0
   57.6223   33.5879   48.2903 H   0  0  0  0  0  0  0  0  0  0  0  0
   59.5800   33.8270   47.3920 C   0  0  0  0  0  0  0  0  0  0  0  0
   59.5645   34.9242   47.4687 H   0  0  0  0  0  0  0  0  0  0  0  0
   60.6850   33.1810   46.8290 C   0  0  0  0  0  0  0  0  0  0  0  0
   61.5329   33.7711   46.4511 H   0  0  0  0  0  0  0  0  0  0  0  0
   60.7130   31.7850   46.7460 C   0  0  0  0  0  0  0  0  0  0  0  0
   61.5772   31.2811   46.2886 H   0  0  0  0  0  0  0  0  0  0  0  0
   57.6630   29.3610   46.0810 N   0  0  0  0  0  0  0  0  0  0  0  0
   57.6030   30.3970   45.9550 H   0  0  0  0  0  0  0  0  0  0  0  0
   57.4880   31.4400   42.8340 C   0  0  0  0  0  0  0  0  0  0  0  0
   57.6397   31.0063   41.8346 H   0  0  0  0  0  0  0  0  0  0  0  0
   58.1090   32.5510   43.3650 C   0  0  0  0  0  0  0  0  0  0  0  0
   58.8608   33.1859   42.8734 H   0  0  0  0  0  0  0  0  0  0  0  0
  1  2  1  0
  2  3  1  0
  3  4  1  0
  4  5  1  0
  5  6  1  0
  5  7  1  0
  5  8  1  0
  8  9  2  0
  9 10  1  0
 10 11  1  0
 11 12  2  3
 12 13  1  0
 13 14  2  0
 14 15  1  0
 14 16  1  0
 16 17  1  0
 16 18  2  0
 18 19  1  0
 18 20  1  0
 20 21  1  0
 21 22  1  0
 21 23  2  0
 23 24  1  0
 23 25  1  0
 25 26  1  0
 25 27  1  0
 11 28  1  0
 28 29  1  0
 29 30  2  0
 30 31  1  0
 31 32  2  0
 32 33  1  0
 32 34  1  0
 34 35  1  0
 34 36  2  0
 36 37  1  0
 36 38  1  0
 38 39  1  0
 38 40  2  0
 40 41  1  0
 29 42  1  0
 42 43  1  0
  4 44  2  0
 44 45  1  0
 44 46  1  0
 46 47  1  0
 46  2  2  0
 42  9  1  0
 27 13  1  0
 40 31  1  0
 27 20  2  0
M  CHG  2  10  -1  28  -1
M  END
>  <UniqueID>  (2) 
2

>  <SMILES>  (2) 
c1ccc(/N=c2\[n-]c(=Nc3cccc4cc[nH]c34)[n-]/c(=N\Cc3ccco3)[nH]2)cc1

>  <Energy>  (2) 
122.55958309123034

>  <Genealogy>  (2) 
c1ccc(N=c2[n-]c(=Nc3cccc4cc[nH]c34)[n-]c(=NCc3ccco3)[nH]2)cc1 (protonated)
c1ccc(/N=c2\[n-]c(=Nc3cccc4cc[nH]c34)[n-]/c(=N\Cc3ccco3)[nH]2)cc1 (cis-trans isomerization)
c1ccc(/N=c2\[n-]c(=Nc3cccc4cc[nH]c34)[n-]/c(=N\Cc3ccco3)[nH]2)cc1 (3D coordinates assigned)
c1ccc(/N=c2\[n-]c(=Nc3cccc4cc[nH]c34)[n-]/c(=N\Cc3ccco3)[nH]2)cc1 (optimized conformer: 122.55958309123034 kcal/mol)

>  <smiles>  (2) 
c1ccc(N=c2[nH]c(=NCc3ccco3)[nH]c(=Nc3cccc4cc[nH]c34)[nH]2)cc1

>  <score_type>  (2) 
oracle

>  <origin>  (2) 
adg

>  <m_score__min__energy>  (2) 
-11.84

>  <m_primary>  (2) 
energy

$$$$
2:0
     RDKit          3D

 39 41  0  0  0  0  0  0  0  0999 V2000
   56.6840   32.1240   45.2160 O   0  0  0  0  0  0  0  0  0  0  0  0
   57.8520   31.7800   45.5420 C   0  0  0  0  0  0  0  0  0  0  0  0
   58.8230   32.7790   45.8950 N   0  0  0  0  0  0  0  0  0  0  0  0
   58.5360   34.2120   45.8390 C   0  0  0  0  0  0  0  0  0  0  0  0
   59.2210   34.9480   46.9950 C   0  0  0  0  0  0  0  0  0  0  0  0
   60.5260   34.2960   47.3720 C   0  0  0  0  0  0  0  0  0  0  0  0
   61.5010   34.0460   46.3920 C   0  0  0  0  0  0  0  0  0  0  0  0
   62.7310   33.4860   46.7490 C   0  0  0  0  0  0  0  0  0  0  0  0
   63.0000   33.1790   48.0860 C   0  0  0  0  0  0  0  0  0  0  0  0
   64.1960   32.6400   48.4310 F   0  0  0  0  0  0  0  0  0  0  0  0
   62.0380   33.4320   49.0680 C   0  0  0  0  0  0  0  0  0  0  0  0
   60.8060   33.9900   48.7150 C   0  0  0  0  0  0  0  0  0  0  0  0
   58.1680   30.3440   45.6190 C   0  0  0  0  0  0  0  0  0  0  0  0
   59.1680   29.8830   46.3500 O   0  0  0  0  0  0  0  0  0  0  0  0
   59.2020   28.5810   46.2110 C   0  0  0  0  0  0  0  0  0  0  0  0
   60.0970   27.6880   46.7980 C   0  0  0  0  0  0  0  0  0  0  0  0
   59.9440   26.3190   46.5080 C   0  0  0  0  0  0  0  0  0  0  0  0
   58.9110   25.8800   45.6510 C   0  0  0  0  0  0  0  0  0  0  0  0
   58.0220   26.8060   45.0740 C   0  0  0  0  0  0  0  0  0  0  0  0
   58.2020   28.1560   45.3780 C   0  0  0  0  0  0  0  0  0  0  0  0
   57.5050   29.2820   44.9890 C   0  0  0  0  0  0  0  0  0  0  0  0
   56.2830   29.3160   44.1150 C   0  0  0  0  0  0  0  0  0  0  0  0
   55.1420   29.5630   44.8880 O   0  0  0  0  0  0  0  0  0  0  0  0
   59.6960   32.4850   46.3850 H   0  0  0  0  0  0  0  0  0  0  0  0
   58.9042   34.6168   44.8848 H   0  0  0  0  0  0  0  0  0  0  0  0
   57.4489   34.3581   45.9220 H   0  0  0  0  0  0  0  0  0  0  0  0
   59.4158   35.9871   46.6911 H   0  0  0  0  0  0  0  0  0  0  0  0
   58.5537   34.9127   47.8688 H   0  0  0  0  0  0  0  0  0  0  0  0
   61.2957   34.2919   45.3397 H   0  0  0  0  0  0  0  0  0  0  0  0
   63.4884   33.2866   45.9767 H   0  0  0  0  0  0  0  0  0  0  0  0
   62.2508   33.1916   50.1201 H   0  0  0  0  0  0  0  0  0  0  0  0
   60.0527   34.1904   49.4912 H   0  0  0  0  0  0  0  0  0  0  0  0
   60.8965   28.0414   47.4658 H   0  0  0  0  0  0  0  0  0  0  0  0
   60.6338   25.5862   46.9520 H   0  0  0  0  0  0  0  0  0  0  0  0
   58.8005   24.8075   45.4330 H   0  0  0  0  0  0  0  0  0  0  0  0
   57.2126   26.4767   44.4059 H   0  0  0  0  0  0  0  0  0  0  0  0
   56.3941   30.1139   43.3660 H   0  0  0  0  0  0  0  0  0  0  0  0
   56.1731   28.3430   43.6139 H   0  0  0  0  0  0  0  0  0  0  0  0
   55.2320   30.4870   45.2430 H   0  0  0  0  0  0  0  0  0  0  0  0
  1  2  2  0
  2  3  1  0
  3  4  1  0
  4  5  1  0
  5  6  1  0
  6  7  2  0
  7  8  1  0
  8  9  2  0
  9 10  1  0
  9 11  1  0
 11 12  2  0
  2 13  1  0
 13 14  1  0
 14 15  1  0
 15 16  2  0
 16 17  1  0
 17 18  2  0
 18 19  1  0
 19 20  2  0
 20 21  1  0
 21 22  1  0
 22 23  1  0
 12  6  1  0
 21 13  2  0
 20 15  1  0
  3 24  1  0
  4 25  1  0
  4 26  1  0
  5 27  1  0
  5 28  1  0
  7 29  1  0
  8 30  1  0
 11 31  1  0
 12 32  1  0
 16 33  1  0
 17 34  1  0
 18 35  1  0
 19 36  1  0
 22 37  1  0
 22 38  1  0
 23 39  1  0
M  END
>  <UniqueID>  (3) 
3

>  <SMILES>  (3) 
O=C(NCCc1ccc(F)cc1)c1oc2ccccc2c1CO

>  <Energy>  (3) 
72.40141044691653

>  <Genealogy>  (3) 
O=C(NCCc1ccc(F)cc1)c1oc2ccccc2c1CO (3D coordinates assigned)
O=C(NCCc1ccc(F)cc1)c1oc2ccccc2c1CO (optimized conformer: 72.40141044691653 kcal/mol)

>  <smiles>  (3) 
O=C(NCCc1ccc(F)cc1)c1oc2ccccc2c1CO

>  <score_type>  (3) 
oracle

>  <origin>  (3) 
adg

>  <m_score__min__energy>  (3) 
-7.7400000000000002

>  <m_primary>  (3) 
energy

$$$$
3:0
     RDKit          3D

 24 25  0  0  0  0  0  0  0  0999 V2000
   57.4030   31.9670   41.3520 C   0  0  0  0  0  0  0  0  0  0  0  0
   57.3930   31.8490   42.8400 C   0  0  0  0  0  0  0  0  0  0  0  0
   56.8460   30.8290   43.5920 C   0  0  0  0  0  0  0  0  0  0  0  0
   56.9850   31.1250   44.9000 N   0  0  0  0  0  0  0  0  0  0  0  0
   57.5790   32.3070   44.9880 N   0  0  0  0  0  0  0  0  0  0  0  0
   57.9270   32.9210   46.2380 C   0  0  0  0  0  0  0  0  0  0  0  0
   57.0190   33.4470   46.9360 O   0  0  0  0  0  0  0  0  0  0  0  0
   59.3230   32.9550   46.7320 C   0  0  0  0  0  0  0  0  0  0  0  0
   59.8800   34.1650   47.1800 C   0  0  0  0  0  0  0  0  0  0  0  0
   61.2040   34.2110   47.6310 C   0  0  0  0  0  0  0  0  0  0  0  0
   61.9860   33.0510   47.6290 C   0  0  0  0  0  0  0  0  0  0  0  0
   63.6460   33.1110   48.1930 Cl  0  0  0  0  0  0  0  0  0  0  0  0
   61.4450   31.8480   47.1670 C   0  0  0  0  0  0  0  0  0  0  0  0
   60.1230   31.7990   46.7160 C   0  0  0  0  0  0  0  0  0  0  0  0
   57.8440   32.7770   43.7520 C   0  0  0  0  0  0  0  0  0  0  0  0
   57.4927   33.0261   41.0688 H   0  0  0  0  0  0  0  0  0  0  0  0
   58.2568   31.4051   40.9454 H   0  0  0  0  0  0  0  0  0  0  0  0
   56.4669   31.5567   40.9454 H   0  0  0  0  0  0  0  0  0  0  0  0
   56.3730   29.9212   43.1892 H   0  0  0  0  0  0  0  0  0  0  0  0
   59.2716   35.0814   47.1761 H   0  0  0  0  0  0  0  0  0  0  0  0
   61.6303   35.1603   47.9875 H   0  0  0  0  0  0  0  0  0  0  0  0
   62.0615   30.9370   47.1583 H   0  0  0  0  0  0  0  0  0  0  0  0
   59.7061   30.8505   46.3464 H   0  0  0  0  0  0  0  0  0  0  0  0
   58.3339   33.7328   43.5144 H   0  0  0  0  0  0  0  0  0  0  0  0
  1  2  1  0
  2  3  1  0
  3  4  2  0
  4  5  1  0
  5  6  1  0
  6  7  2  0
  6  8  1  0
  8  9  2  0
  9 10  1  0
 10 11  2  0
 11 12  1  0
 11 13  1  0
 13 14  2  0
  5 15  1  0
 15  2  2  0
 14  8  1  0
  1 16  1  0
  1 17  1  0
  1 18  1  0
  3 19  1  0
  9 20  1  0
 10 21  1  0
 13 22  1  0
 14 23  1  0
 15 24  1  0
M  END
>  <UniqueID>  (4) 
4

>  <SMILES>  (4) 
Cc1cnn(C(=O)c2ccc(Cl)cc2)c1

>  <Energy>  (4) 
57.805979146771065

>  <Genealogy>  (4) 
Cc1cnn(C(=O)c2ccc(Cl)cc2)c1 (3D coordinates assigned)
Cc1cnn(C(=O)c2ccc(Cl)cc2)c1 (optimized conformer: 57.805979146771065 kcal/mol)

>  <smiles>  (4) 
Cc1cnn(C(=O)c2ccc(Cl)cc2)c1

>  <score_type>  (4) 
oracle

>  <origin>  (4) 
adg

>  <m_score__min__energy>  (4) 
-6.3399999999999999

>  <m_primary>  (4) 
energy

$$$$
4:0
     RDKit          3D

 41 44  0  0  0  0  0  0  0  0999 V2000
   64.1845   32.8890   48.3545 H   0  0  0  0  0  0  0  0  0  0  0  0
   63.1900   33.2830   48.0980 C   0  0  0  0  0  0  0  0  0  0  0  0
   62.8020   33.3810   46.7590 C   0  0  0  0  0  0  0  0  0  0  0  0
   63.4922   33.0662   45.9624 H   0  0  0  0  0  0  0  0  0  0  0  0
   61.5370   33.8790   46.4310 C   0  0  0  0  0  0  0  0  0  0  0  0
   61.2379   33.9620   45.3757 H   0  0  0  0  0  0  0  0  0  0  0  0
   60.6460   34.2740   47.4440 C   0  0  0  0  0  0  0  0  0  0  0  0
   59.2870   34.8210   47.0870 C   0  0  0  0  0  0  0  0  0  0  0  0
   59.3336   35.9199   47.0719 H   0  0  0  0  0  0  0  0  0  0  0  0
   58.5612   34.4777   47.8389 H   0  0  0  0  0  0  0  0  0  0  0  0
   58.8600   34.3410   45.7710 N   0  0  0  0  0  0  0  0  0  0  0  0
   58.4710   33.1360   45.4630 C   0  0  0  0  0  0  0  0  0  0  0  0
   58.8250   32.1110   46.2840 N   0  0  0  0  0  0  0  0  0  0  0  0
   58.4480   30.8330   46.0240 C   0  0  0  0  0  0  0  0  0  0  0  0
   58.8230   29.7990   46.8850 C   0  0  0  0  0  0  0  0  0  0  0  0
   59.4279   30.0189   47.7770 H   0  0  0  0  0  0  0  0  0  0  0  0
   58.4300   28.4840   46.6140 C   0  0  0  0  0  0  0  0  0  0  0  0
   58.7270   27.6747   47.2972 H   0  0  0  0  0  0  0  0  0  0  0  0
   57.6580   28.1870   45.4750 C   0  0  0  0  0  0  0  0  0  0  0  0
   57.2440   26.7900   45.1890 C   0  0  0  0  0  0  0  0  0  0  0  0
   57.7670   26.1000   44.0790 C   0  0  0  0  0  0  0  0  0  0  0  0
   58.4884   26.6002   43.4162 H   0  0  0  0  0  0  0  0  0  0  0  0
   57.3770   24.7840   43.8120 C   0  0  0  0  0  0  0  0  0  0  0  0
   57.7932   24.2530   42.9432 H   0  0  0  0  0  0  0  0  0  0  0  0
   56.4590   24.1430   44.6480 C   0  0  0  0  0  0  0  0  0  0  0  0
   56.0800   22.8670   44.3880 F   0  0  0  0  0  0  0  0  0  0  0  0
   55.9320   24.8170   45.7530 C   0  0  0  0  0  0  0  0  0  0  0  0
   55.2096   24.3117   46.4109 H   0  0  0  0  0  0  0  0  0  0  0  0
   56.3210   26.1320   46.0240 C   0  0  0  0  0  0  0  0  0  0  0  0
   55.9030   26.6564   46.8959 H   0  0  0  0  0  0  0  0  0  0  0  0
   57.2840   29.2340   44.6100 C   0  0  0  0  0  0  0  0  0  0  0  0
   56.6808   29.0166   43.7162 H   0  0  0  0  0  0  0  0  0  0  0  0
   57.6770   30.5520   44.8830 C   0  0  0  0  0  0  0  0  0  0  0  0
   57.3230   31.6130   44.0480 C   0  0  0  0  0  0  0  0  0  0  0  0
   56.7197   31.4254   43.1476 H   0  0  0  0  0  0  0  0  0  0  0  0
   57.7230   32.8790   44.3460 N   0  0  0  0  0  0  0  0  0  0  0  0
   57.4430   33.6380   43.6880 H   0  0  0  0  0  0  0  0  0  0  0  0
   61.0490   34.1840   48.7870 C   0  0  0  0  0  0  0  0  0  0  0  0
   60.3663   34.5069   49.5868 H   0  0  0  0  0  0  0  0  0  0  0  0
   62.3160   33.6850   49.1110 C   0  0  0  0  0  0  0  0  0  0  0  0
   62.6238   33.6093   50.1643 H   0  0  0  0  0  0  0  0  0  0  0  0
  1  2  1  0
  2  3  2  0
  3  4  1  0
  3  5  1  0
  5  6  1  0
  5  7  2  0
  7  8  1  0
  8  9  1  0
  8 10  1  0
  8 11  1  0
 11 12  2  0
 12 13  1  0
 13 14  2  0
 14 15  1  0
 15 16  1  0
 15 17  2  0
 17 18  1  0
 17 19  1  0
 19 20  1  0
 20 21  2  0
 21 22  1  0
 21 23  1  0
 23 24  1  0
 23 25  2  0
 25 26  1  0
 25 27  1  0
 27 28  1  0
 27 29  2  0
 29 30  1  0
 19 31  2  0
 31 32  1  0
 31 33  1  0
 33 34  2  0
 34 35  1  0
 34 36  1  0
 36 37  1  0
  7 38  1  0
 38 39  1  0
 38 40  2  0
 40 41  1  0
 40  2  1  0
 36 12  1  0
 33 14  1  0
 29 20  1  0
M  END
>  <UniqueID>  (5) 
5

>  <SMILES>  (5) 
Fc1ccc(-c2ccc3n/c(=N/Cc4ccccc4)[nH]cc3c2)cc1

>  <Energy>  (5) 
55.369028333859546

>  <Genealogy>  (5) 
Fc1ccc(-c2ccc3n/c(=N/Cc4ccccc4)[nH]cc3c2)cc1 (cis-trans isomerization)
Fc1ccc(-c2ccc3n/c(=N/Cc4ccccc4)[nH]cc3c2)cc1 (3D coordinates assigned)
Fc1ccc(-c2ccc3n/c(=N/Cc4ccccc4)[nH]cc3c2)cc1 (optimized conformer: 55.369028333859546 kcal/mol)

>  <smiles>  (5) 
Fc1ccc(-c2ccc3nc(=NCc4ccccc4)[nH]cc3c2)cc1

>  <score_type>  (5) 
oracle

>  <origin>  (5) 
adg

>  <m_score__min__energy>  (5) 
-7.8899999999999997

>  <m_primary>  (5) 
energy

$$$$
5:0
     RDKit          3D

 23 25  0  0  0  0  0  0  0  0999 V2000
   55.5340   26.7350   45.9950 N   0  0  0  0  0  0  0  0  0  0  0  0
   56.7090   27.5100   45.7640 C   0  0  0  0  0  0  0  0  0  0  0  0
   57.8410   27.0180   46.0150 O   0  0  0  0  0  0  0  0  0  0  0  0
   56.6050   28.8750   45.2360 C   0  0  0  0  0  0  0  0  0  0  0  0
   55.6560   29.2870   44.3500 N   0  0  0  0  0  0  0  0  0  0  0  0
   55.9260   30.6020   44.1330 C   0  0  0  0  0  0  0  0  0  0  0  0
   56.9890   30.9860   44.8500 N   0  0  0  0  0  0  0  0  0  0  0  0
   57.4190   29.9460   45.5300 C   0  0  0  0  0  0  0  0  0  0  0  0
   58.6200   30.2440   46.3830 C   0  0  0  0  0  0  0  0  0  0  0  0
   58.7800   31.7110   46.0310 C   0  0  0  0  0  0  0  0  0  0  0  0
   59.7290   32.6280   46.4820 C   0  0  0  0  0  0  0  0  0  0  0  0
   59.6640   33.9490   45.9980 C   0  0  0  0  0  0  0  0  0  0  0  0
   58.6610   34.3290   45.0790 C   0  0  0  0  0  0  0  0  0  0  0  0
   57.7110   33.3940   44.6330 C   0  0  0  0  0  0  0  0  0  0  0  0
   57.8020   32.0980   45.1290 C   0  0  0  0  0  0  0  0  0  0  0  0
   54.7590   26.7140   45.2950 H   0  0  0  0  0  0  0  0  0  0  0  0
   55.3515   31.2580   43.4624 H   0  0  0  0  0  0  0  0  0  0  0  0
   58.4169   30.0934   47.4535 H   0  0  0  0  0  0  0  0  0  0  0  0
   59.5017   29.6098   46.2087 H   0  0  0  0  0  0  0  0  0  0  0  0
   60.5084   32.3272   47.1975 H   0  0  0  0  0  0  0  0  0  0  0  0
   60.4008   34.6913   46.3387 H   0  0  0  0  0  0  0  0  0  0  0  0
   58.6231   35.3644   44.7096 H   0  0  0  0  0  0  0  0  0  0  0  0
   56.9245   33.6770   43.9179 H   0  0  0  0  0  0  0  0  0  0  0  0
  1  2  1  0
  2  3  2  0
  2  4  1  0
  4  5  1  0
  5  6  2  0
  6  7  1  0
  7  8  1  0
  8  9  1  0
  9 10  1  0
 10 11  2  0
 11 12  1  0
 12 13  2  0
 13 14  1  0
 14 15  2  0
  8  4  2  0
 15 10  1  0
 15  7  1  0
  1 16  1  0
  6 17  1  0
  9 18  1  0
  9 19  1  0
 11 20  1  0
 12 21  1  0
 13 22  1  0
 14 23  1  0
M  CHG  1   1  -1
M  END
>  <UniqueID>  (6) 
6

>  <SMILES>  (6) 
[NH-]C(=O)c1ncn2c1Cc1ccccc1-2

>  <Energy>  (6) 
96.58901495493528

>  <Genealogy>  (6) 
[NH-]C(=O)c1ncn2c1Cc1ccccc1-2 (protonated)
[NH-]C(=O)c1ncn2c1Cc1ccccc1-2 (3D coordinates assigned)
[NH-]C(=O)c1ncn2c1Cc1ccccc1-2 (nonaromatic ring conformer: 96.58901495493528 kcal/mol)

>  <smiles>  (6) 
NC(=O)c1ncn2c1Cc1ccccc1-2

>  <score_type>  (6) 
oracle

>  <origin>  (6) 
adg

>  <m_score__min__energy>  (6) 
-9.3300000000000001

>  <m_primary>  (6) 
energy

$$$$
6:0
     RDKit          3D

 36 36  0  0  0  0  0  0  0  0999 V2000
   60.4820   27.1140   46.0170 C   0  0  0  0  0  0  0  0  0  0  0  0
   59.3470   27.5880   46.8290 N   0  0  0  0  0  0  0  0  0  0  0  0
   59.7590   27.8100   48.2270 C   0  0  0  0  0  0  0  0  0  0  0  0
   58.1580   26.7070   46.7200 C   0  0  0  0  0  0  0  0  0  0  0  0
   56.9750   27.3210   45.9440 C   0  0  0  0  0  0  0  0  0  0  0  0
   57.2510   28.7190   45.6330 N   0  0  0  0  0  0  0  0  0  0  0  0
   56.3830   29.5450   44.8460 C   0  0  0  0  0  0  0  0  0  0  0  0
   55.1390   29.3490   44.8780 O   0  0  0  0  0  0  0  0  0  0  0  0
   56.9560   30.6420   44.0240 C   0  0  0  0  0  0  0  0  0  0  0  0
   56.7720   30.6000   42.6280 C   0  0  0  0  0  0  0  0  0  0  0  0
   57.3040   31.5960   41.8070 C   0  0  0  0  0  0  0  0  0  0  0  0
   58.0240   32.6520   42.3630 C   0  0  0  0  0  0  0  0  0  0  0  0
   58.2090   32.7190   43.7440 C   0  0  0  0  0  0  0  0  0  0  0  0
   57.6800   31.7280   44.5840 C   0  0  0  0  0  0  0  0  0  0  0  0
   57.8990   31.9260   46.3200 S   0  0  0  0  0  0  0  0  0  0  0  0
   58.9400   33.3150   46.7020 C   0  0  0  0  0  0  0  0  0  0  0  0
   58.4790   30.5120   47.0160 O   0  0  0  0  0  0  0  0  0  0  0  0
   61.2916   26.7759   46.6805 H   0  0  0  0  0  0  0  0  0  0  0  0
   60.1546   26.2774   45.3822 H   0  0  0  0  0  0  0  0  0  0  0  0
   60.8469   27.9349   45.3822 H   0  0  0  0  0  0  0  0  0  0  0  0
   59.0640   28.5200   46.4430 H   0  0  0  0  0  0  0  0  0  0  0  0
   58.9957   27.3987   48.9039 H   0  0  0  0  0  0  0  0  0  0  0  0
   60.7204   27.3078   48.4101 H   0  0  0  0  0  0  0  0  0  0  0  0
   59.8683   28.8891   48.4101 H   0  0  0  0  0  0  0  0  0  0  0  0
   58.4617   25.7821   46.2078 H   0  0  0  0  0  0  0  0  0  0  0  0
   57.8022   26.5339   47.7464 H   0  0  0  0  0  0  0  0  0  0  0  0
   56.8250   26.7629   45.0081 H   0  0  0  0  0  0  0  0  0  0  0  0
   56.0684   27.2624   46.5642 H   0  0  0  0  0  0  0  0  0  0  0  0
   56.2024   29.7727   42.1795 H   0  0  0  0  0  0  0  0  0  0  0  0
   57.1545   31.5472   40.7183 H   0  0  0  0  0  0  0  0  0  0  0  0
   58.4463   33.4324   41.7129 H   0  0  0  0  0  0  0  0  0  0  0  0
   58.7748   33.5565   44.1782 H   0  0  0  0  0  0  0  0  0  0  0  0
   59.0211   33.4232   47.7937 H   0  0  0  0  0  0  0  0  0  0  0  0
   59.9403   33.1521   46.2744 H   0  0  0  0  0  0  0  0  0  0  0  0
   58.5029   34.2294   46.2744 H   0  0  0  0  0  0  0  0  0  0  0  0
   57.8570   29.8090   46.7000 H   0  0  0  0  0  0  0  0  0  0  0  0
  1  2  1  0
  2  3  1  0
  2  4  1  0
  4  5  1  0
  5  6  1  0
  6  7  1  0
  7  8  2  0
  7  9  1  0
  9 10  2  0
 10 11  1  0
 11 12  2  0
 12 13  1  0
 13 14  2  0
 14 15  1  0
 15 16  1  0
 15 17  1  6
 14  9  1  0
  1 18  1  0
  1 19  1  0
  1 20  1  0
  2 21  1  0
  3 22  1  0
  3 23  1  0
  3 24  1  0
  4 25  1  0
  4 26  1  0
  5 27  1  0
  5 28  1  0
 10 29  1  0
 11 30  1  0
 12 31  1  0
 13 32  1  0
 16 33  1  0
 16 34  1  0
 16 35  1  0
 17 36  1  0
M  CHG  3   2   1   6  -1  15   1
M  END
>  <UniqueID>  (7) 
7

>  <SMILES>  (7) 
C[NH+](C)CC[N-]C(=O)c1ccccc1[S@+](C)O

>  <Energy>  (7) 
33.558621659323116

>  <Genealogy>  (7) 
C[NH+](C)CC[N-]C(=O)c1ccccc1[S+](C)O (protonated)
C[NH+](C)CC[N-]C(=O)c1ccccc1[S@+](C)O (chirality)
C[NH+](C)CC[N-]C(=O)c1ccccc1[S@+](C)O (3D coordinates assigned)
C[NH+](C)CC[N-]C(=O)c1ccccc1[S@+](C)O (optimized conformer: 33.558621659323116 kcal/mol)

>  <smiles>  (7) 
CN(C)CCNC(=O)c1ccccc1[S+](C)[O-]

>  <score_type>  (7) 
oracle

>  <origin>  (7) 
adg

>  <m_score__min__energy>  (7) 
-4.1799999999999997

>  <m_primary>  (7) 
energy

$$$$
7:0
     RDKit          3D

 23 23  0  0  0  0  0  0  0  0999 V2000
   58.3250   31.5460   45.2640 C   0  0  0  0  0  0  0  0  0  0  0  0
   58.3920   30.3150   44.5500 O   0  0  0  0  0  0  0  0  0  0  0  0
   58.2730   29.0400   45.1260 C   0  0  0  0  0  0  0  0  0  0  0  0
   59.4180   28.2860   45.4540 C   0  0  0  0  0  0  0  0  0  0  0  0
   59.3040   27.0130   46.0300 C   0  0  0  0  0  0  0  0  0  0  0  0
   60.4980   26.2200   46.3750 C   0  0  0  0  0  0  0  0  0  0  0  0
   61.1010   26.3920   47.4680 O   0  0  0  0  0  0  0  0  0  0  0  0
   58.0330   26.4880   46.2800 C   0  0  0  0  0  0  0  0  0  0  0  0
   56.8850   27.2150   45.9630 C   0  0  0  0  0  0  0  0  0  0  0  0
   55.6410   26.6440   46.2330 O   0  0  0  0  0  0  0  0  0  0  0  0
   56.9870   28.4960   45.3840 C   0  0  0  0  0  0  0  0  0  0  0  0
   55.7840   29.1680   45.0940 O   0  0  0  0  0  0  0  0  0  0  0  0
   55.5080   29.9620   43.9450 C   0  0  0  0  0  0  0  0  0  0  0  0
   58.3360   31.3438   46.3452 H   0  0  0  0  0  0  0  0  0  0  0  0
   59.1905   32.1711   44.9990 H   0  0  0  0  0  0  0  0  0  0  0  0
   57.3968   32.0735   44.9990 H   0  0  0  0  0  0  0  0  0  0  0  0
   60.4163   28.7029   45.2549 H   0  0  0  0  0  0  0  0  0  0  0  0
   60.8689   25.4651   45.6660 H   0  0  0  0  0  0  0  0  0  0  0  0
   57.9366   25.4898   46.7320 H   0  0  0  0  0  0  0  0  0  0  0  0
   54.7700   27.0930   45.9770 H   0  0  0  0  0  0  0  0  0  0  0  0
   55.1621   30.9571   44.2614 H   0  0  0  0  0  0  0  0  0  0  0  0
   56.4227   30.0661   43.3429 H   0  0  0  0  0  0  0  0  0  0  0  0
   54.7260   29.4763   43.3429 H   0  0  0  0  0  0  0  0  0  0  0  0
  1  2  1  0
  2  3  1  0
  3  4  2  0
  4  5  1  0
  5  6  1  0
  6  7  2  0
  5  8  2  0
  8  9  1  0
  9 10  1  0
  9 11  2  0
 11 12  1  0
 12 13  1  0
 11  3  1  0
  1 14  1  0
  1 15  1  0
  1 16  1  0
  4 17  1  0
  6 18  1  0
  8 19  1  0
 10 20  1  0
 13 21  1  0
 13 22  1  0
 13 23  1  0
M  END
>  <UniqueID>  (8) 
8

>  <SMILES>  (8) 
COc1cc(C=O)cc(O)c1OC

>  <Energy>  (8) 
23.487528446012092

>  <Genealogy>  (8) 
COc1cc(C=O)cc(O)c1OC (3D coordinates assigned)
COc1cc(C=O)cc(O)c1OC (optimized conformer: 23.487528446012092 kcal/mol)

>  <smiles>  (8) 
COc1cc(C=O)cc(O)c1OC

>  <score_type>  (8) 
oracle

>  <origin>  (8) 
adg

>  <m_score__min__energy>  (8) 
-5.3200000000000003

>  <m_primary>  (8) 
energy

$$$$
8:0
     RDKit          3D

 39 40  0  0  0  0  0  0  0  0999 V2000
   63.3190   33.8540   46.3650 C   0  0  0  0  0  0  0  0  0  0  0  0
   63.5720   33.4960   47.8300 C   0  0  0  0  0  0  0  0  0  0  0  0
   62.2830   33.1110   48.5690 C   0  0  0  0  0  0  0  0  0  0  0  0
   61.3940   32.2520   47.7160 C   0  0  0  0  0  0  0  0  0  0  0  0
   60.4600   32.7900   47.0630 O   0  0  0  0  0  0  0  0  0  0  0  0
   61.6100   30.8330   47.6520 N   0  0  0  0  0  0  0  0  0  0  0  0
   60.6460   29.8940   47.1480 C   0  0  0  0  0  0  0  0  0  0  0  0
   59.5090   29.5990   47.9140 C   0  0  0  0  0  0  0  0  0  0  0  0
   58.5390   28.7160   47.4330 C   0  0  0  0  0  0  0  0  0  0  0  0
   58.6760   28.1400   46.1590 C   0  0  0  0  0  0  0  0  0  0  0  0
   57.6900   27.2440   45.6260 N   0  0  0  0  0  0  0  0  0  0  0  0
   56.2740   27.4680   45.6150 C   0  0  0  0  0  0  0  0  0  0  0  0
   55.5080   26.5470   46.0010 O   0  0  0  0  0  0  0  0  0  0  0  0
   55.7030   28.7080   45.1750 N   0  0  0  0  0  0  0  0  0  0  0  0
   56.3770   29.7220   44.4160 C   0  0  0  0  0  0  0  0  0  0  0  0
   56.1940   29.8470   43.0260 C   0  0  0  0  0  0  0  0  0  0  0  0
   56.8750   30.8400   42.3150 C   0  0  0  0  0  0  0  0  0  0  0  0
   57.7240   31.7240   42.9850 C   0  0  0  0  0  0  0  0  0  0  0  0
   57.8880   31.6230   44.3690 C   0  0  0  0  0  0  0  0  0  0  0  0
   58.7060   32.4860   45.0200 F   0  0  0  0  0  0  0  0  0  0  0  0
   57.2100   30.6290   45.0840 C   0  0  0  0  0  0  0  0  0  0  0  0
   59.8130   28.4280   45.3960 C   0  0  0  0  0  0  0  0  0  0  0  0
   60.7850   29.3100   45.8760 C   0  0  0  0  0  0  0  0  0  0  0  0
   62.6849   34.7512   46.3110 H   0  0  0  0  0  0  0  0  0  0  0  0
   64.2785   34.0525   45.8651 H   0  0  0  0  0  0  0  0  0  0  0  0
   62.8116   33.0158   45.8651 H   0  0  0  0  0  0  0  0  0  0  0  0
   64.2697   32.6466   47.8707 H   0  0  0  0  0  0  0  0  0  0  0  0
   63.9899   34.3849   48.3252 H   0  0  0  0  0  0  0  0  0  0  0  0
   62.5465   32.5566   49.4818 H   0  0  0  0  0  0  0  0  0  0  0  0
   61.7376   34.0342   48.8147 H   0  0  0  0  0  0  0  0  0  0  0  0
   62.5440   30.4670   47.9470 H   0  0  0  0  0  0  0  0  0  0  0  0
   59.3798   30.0665   48.9013 H   0  0  0  0  0  0  0  0  0  0  0  0
   57.6648   28.4709   48.0541 H   0  0  0  0  0  0  0  0  0  0  0  0
   55.5140   29.1623   42.4980 H   0  0  0  0  0  0  0  0  0  0  0  0
   56.7419   30.9251   41.2264 H   0  0  0  0  0  0  0  0  0  0  0  0
   58.2638   32.5002   42.4227 H   0  0  0  0  0  0  0  0  0  0  0  0
   57.3317   30.5596   46.1750 H   0  0  0  0  0  0  0  0  0  0  0  0
   59.9428   27.9565   44.4107 H   0  0  0  0  0  0  0  0  0  0  0  0
   61.6622   29.5484   45.2566 H   0  0  0  0  0  0  0  0  0  0  0  0
  1  2  1  0
  2  3  1  0
  3  4  1  0
  4  5  2  0
  4  6  1  0
  6  7  1  0
  7  8  2  0
  8  9  1  0
  9 10  2  0
 10 11  1  0
 11 12  1  0
 12 13  2  0
 12 14  1  0
 14 15  1  0
 15 16  2  0
 16 17  1  0
 17 18  2  0
 18 19  1  0
 19 20  1  0
 19 21  2  0
 10 22  1  0
 22 23  2  0
 23  7  1  0
 21 15  1  0
  1 24  1  0
  1 25  1  0
  1 26  1  0
  2 27  1  0
  2 28  1  0
  3 29  1  0
  3 30  1  0
  6 31  1  0
  8 32  1  0
  9 33  1  0
 16 34  1  0
 17 35  1  0
 18 36  1  0
 21 37  1  0
 22 38  1  0
 23 39  1  0
M  CHG  2  11  -1  14  -1
M  END
>  <UniqueID>  (9) 
9

>  <SMILES>  (9) 
CCCC(=O)Nc1ccc([N-]C(=O)[N-]c2cccc(F)c2)cc1

>  <Energy>  (9) 
43.80038188726877

>  <Genealogy>  (9) 
CCCC(=O)Nc1ccc([N-]C(=O)[N-]c2cccc(F)c2)cc1 (protonated)
CCCC(=O)Nc1ccc([N-]C(=O)[N-]c2cccc(F)c2)cc1 (3D coordinates assigned)
CCCC(=O)Nc1ccc([N-]C(=O)[N-]c2cccc(F)c2)cc1 (optimized conformer: 43.80038188726877 kcal/mol)

>  <smiles>  (9) 
CCCC(=O)Nc1ccc(NC(=O)Nc2cccc(F)c2)cc1

>  <score_type>  (9) 
oracle

>  <origin>  (9) 
adg

>  <m_score__min__energy>  (9) 
-10.779999999999999

>  <m_primary>  (9) 
energy

$$$$
9:0
     RDKit          3D

 42 45  0  0  0  0  0  0  0  0999 V2000
   55.5680   29.3210   45.0790 O   0  0  0  0  0  0  0  0  0  0  0  0
   56.8210   29.3610   45.2120 C   0  0  0  0  0  0  0  0  0  0  0  0
   57.5340   30.5700   44.9290 N   0  0  0  0  0  0  0  0  0  0  0  0
   56.9000   31.8830   44.8670 C   0  0  0  0  0  0  0  0  0  0  0  0
   57.7900   32.9190   45.4990 C   0  0  0  0  0  0  0  0  0  0  0  0
   58.4240   33.8940   44.7110 C   0  0  0  0  0  0  0  0  0  0  0  0
   59.2730   34.8350   45.3040 C   0  0  0  0  0  0  0  0  0  0  0  0
   59.4960   34.8060   46.6840 C   0  0  0  0  0  0  0  0  0  0  0  0
   58.8730   33.8350   47.4730 C   0  0  0  0  0  0  0  0  0  0  0  0
   58.0240   32.8930   46.8840 C   0  0  0  0  0  0  0  0  0  0  0  0
   57.5560   28.1780   45.7140 C   0  0  0  0  0  0  0  0  0  0  0  0
   57.3060   26.9390   45.1030 C   0  0  0  0  0  0  0  0  0  0  0  0
   58.0210   25.7960   45.4960 C   0  0  0  0  0  0  0  0  0  0  0  0
   57.7990   24.4680   44.8750 C   0  0  0  0  0  0  0  0  0  0  0  0
   56.8080   24.2460   43.9000 C   0  0  0  0  0  0  0  0  0  0  0  0
   56.6590   22.9720   43.3470 C   0  0  0  0  0  0  0  0  0  0  0  0
   57.4940   21.9330   43.7570 C   0  0  0  0  0  0  0  0  0  0  0  0
   58.4760   22.1860   44.7140 C   0  0  0  0  0  0  0  0  0  0  0  0
   58.6070   23.4330   45.2420 N   0  0  0  0  0  0  0  0  0  0  0  0
   58.9340   25.8980   46.4960 N   0  0  0  0  0  0  0  0  0  0  0  0
   59.1940   27.0680   47.1340 C   0  0  0  0  0  0  0  0  0  0  0  0
   60.1400   27.0940   48.1650 C   0  0  0  0  0  0  0  0  0  0  0  0
   60.3960   28.2790   48.8550 C   0  0  0  0  0  0  0  0  0  0  0  0
   59.6990   29.4430   48.5260 C   0  0  0  0  0  0  0  0  0  0  0  0
   58.7540   29.4330   47.4960 C   0  0  0  0  0  0  0  0  0  0  0  0
   58.5020   28.2490   46.7670 C   0  0  0  0  0  0  0  0  0  0  0  0
   56.7204   32.1507   43.8153 H   0  0  0  0  0  0  0  0  0  0  0  0
   55.9458   31.8475   45.4131 H   0  0  0  0  0  0  0  0  0  0  0  0
   58.2525   33.9178   43.6247 H   0  0  0  0  0  0  0  0  0  0  0  0
   59.7655   35.5984   44.6838 H   0  0  0  0  0  0  0  0  0  0  0  0
   60.1621   35.5477   47.1489 H   0  0  0  0  0  0  0  0  0  0  0  0
   59.0508   33.8118   48.5583 H   0  0  0  0  0  0  0  0  0  0  0  0
   57.5374   32.1285   47.5075 H   0  0  0  0  0  0  0  0  0  0  0  0
   56.5456   26.8631   44.3118 H   0  0  0  0  0  0  0  0  0  0  0  0
   56.1555   25.0702   43.5759 H   0  0  0  0  0  0  0  0  0  0  0  0
   55.8836   22.7884   42.5887 H   0  0  0  0  0  0  0  0  0  0  0  0
   57.3793   20.9256   43.3304 H   0  0  0  0  0  0  0  0  0  0  0  0
   59.1451   21.3770   45.0422 H   0  0  0  0  0  0  0  0  0  0  0  0
   60.6840   26.1761   48.4324 H   0  0  0  0  0  0  0  0  0  0  0  0
   61.1471   28.2963   49.6584 H   0  0  0  0  0  0  0  0  0  0  0  0
   59.8945   30.3729   49.0802 H   0  0  0  0  0  0  0  0  0  0  0  0
   58.2028   30.3530   47.2513 H   0  0  0  0  0  0  0  0  0  0  0  0
  1  2  2  0
  2  3  1  0
  3  4  1  0
  4  5  1  0
  5  6  2  0
  6  7  1  0
  7  8  2  0
  8  9  1  0
  9 10  2  0
  2 11  1  0
 11 12  2  0
 12 13  1  0
 13 14  1  0
 14 15  2  0
 15 16  1  0
 16 17  2  0
 17 18  1  0
 18 19  2  0
 13 20  2  0
 20 21  1  0
 21 22  2  0
 22 23  1  0
 23 24  2  0
 24 25  1  0
 25 26  2  0
 10  5  1  0
 26 11  1  0
 19 14  1  0
 26 21  1  0
  4 27  1  0
  4 28  1  0
  6 29  1  0
  7 30  1  0
  8 31  1  0
  9 32  1  0
 10 33  1  0
 12 34  1  0
 15 35  1  0
 16 36  1  0
 17 37  1  0
 18 38  1  0
 22 39  1  0
 23 40  1  0
 24 41  1  0
 25 42  1  0
M  CHG  1   3  -1
M  END
>  <UniqueID>  (10) 
10

>  <SMILES>  (10) 
O=C([N-]Cc1ccccc1)c1cc(-c2ccccn2)nc2ccccc12

>  <Energy>  (10) 
58.19878752606351

>  <Genealogy>  (10) 
O=C([N-]Cc1ccccc1)c1cc(-c2ccccn2)nc2ccccc12 (protonated)
O=C([N-]Cc1ccccc1)c1cc(-c2ccccn2)nc2ccccc12 (3D coordinates assigned)
O=C([N-]Cc1ccccc1)c1cc(-c2ccccn2)nc2ccccc12 (optimized conformer: 58.19878752606351 kcal/mol)

>  <smiles>  (10) 
O=C(NCc1ccccc1)c1cc(-c2ccccn2)nc2ccccc12

>  <score_type>  (10) 
oracle

>  <origin>  (10) 
adg

>  <m_score__min__energy>  (10) 
-10.17

>  <m_primary>  (10) 
energy

$$$$
10:0
     RDKit          3D

 46 48  0  0  0  0  0  0  0  0999 V2000
   59.4750   32.0170   48.5780 C   0  0  0  0  0  0  0  0  0  0  0  0
   60.0190   30.9480   47.6770 C   0  0  0  0  0  0  0  0  0  0  0  0
   61.4540   30.9720   47.2350 C   0  0  0  0  0  0  0  0  0  0  0  0
   59.2090   29.9720   47.2540 C   0  0  0  0  0  0  0  0  0  0  0  0
   58.8050   28.5970   47.7160 C   0  0  0  0  0  0  0  0  0  0  0  0
   59.1270   27.8720   48.6940 O   0  0  0  0  0  0  0  0  0  0  0  0
   57.9430   28.4110   46.5510 N   0  0  0  0  0  0  0  0  0  0  0  0
   57.5570   27.2830   45.7740 C   0  0  0  0  0  0  0  0  0  0  0  0
   56.4810   26.4200   46.3110 C   0  0  0  0  0  0  0  0  0  0  0  0
   56.7200   25.4870   47.1180 O   0  0  0  0  0  0  0  0  0  0  0  0
   55.1620   26.7000   45.9790 O   0  0  0  0  0  0  0  0  0  0  0  0
   58.1850   27.1270   44.5850 C   0  0  0  0  0  0  0  0  0  0  0  0
   57.7700   26.1360   43.5160 C   0  0  0  0  0  0  0  0  0  0  0  0
   57.5130   24.8130   44.1050 N   0  0  0  0  0  0  0  0  0  0  0  0
   56.3740   24.1340   43.7800 C   0  0  0  0  0  0  0  0  0  0  0  0
   56.1040   22.8810   44.3350 C   0  0  0  0  0  0  0  0  0  0  0  0
   57.0070   22.3010   45.2450 C   0  0  0  0  0  0  0  0  0  0  0  0
   56.7430   21.0010   45.8350 N   0  0  0  0  0  0  0  0  0  0  0  0
   56.9650   20.7730   47.2690 C   0  0  0  0  0  0  0  0  0  0  0  0
   56.2490   19.8910   45.0100 C   0  0  0  0  0  0  0  0  0  0  0  0
   58.1720   23.0210   45.5640 C   0  0  0  0  0  0  0  0  0  0  0  0
   58.4060   24.2710   44.9860 C   0  0  0  0  0  0  0  0  0  0  0  0
   59.3930   28.0000   44.3030 C   0  0  0  0  0  0  0  0  0  0  0  0
   59.0400   29.7910   44.5060 S   0  0  0  0  0  0  0  0  0  0  0  0
   58.2850   29.7370   46.1830 C   0  0  2  0  0  0  0  0  0  0  0  0
   59.6245   31.7231   49.6274 H   0  0  0  0  0  0  0  0  0  0  0  0
   60.0012   32.9632   48.3836 H   0  0  0  0  0  0  0  0  0  0  0  0
   58.4003   32.1485   48.3836 H   0  0  0  0  0  0  0  0  0  0  0  0
   62.1096   30.9830   48.1182 H   0  0  0  0  0  0  0  0  0  0  0  0
   61.6668   30.0773   46.6315 H   0  0  0  0  0  0  0  0  0  0  0  0
   61.6368   31.8733   46.6315 H   0  0  0  0  0  0  0  0  0  0  0  0
   56.8541   26.4968   43.0252 H   0  0  0  0  0  0  0  0  0  0  0  0
   58.5851   26.0445   42.7831 H   0  0  0  0  0  0  0  0  0  0  0  0
   55.6597   24.5795   43.0719 H   0  0  0  0  0  0  0  0  0  0  0  0
   55.1830   22.3462   44.0599 H   0  0  0  0  0  0  0  0  0  0  0  0
   56.3141   21.4415   47.8516 H   0  0  0  0  0  0  0  0  0  0  0  0
   56.7301   19.7268   47.5146 H   0  0  0  0  0  0  0  0  0  0  0  0
   58.0171   20.9800   47.5146 H   0  0  0  0  0  0  0  0  0  0  0  0
   55.8888   19.0816   45.6620 H   0  0  0  0  0  0  0  0  0  0  0  0
   55.4236   20.2452   44.3750 H   0  0  0  0  0  0  0  0  0  0  0  0
   57.0647   19.5148   44.3750 H   0  0  0  0  0  0  0  0  0  0  0  0
   58.9013   22.5986   46.2709 H   0  0  0  0  0  0  0  0  0  0  0  0
   59.3203   24.8258   45.2432 H   0  0  0  0  0  0  0  0  0  0  0  0
   60.1989   27.7198   44.9973 H   0  0  0  0  0  0  0  0  0  0  0  0
   59.6823   27.8363   43.2544 H   0  0  0  0  0  0  0  0  0  0  0  0
   57.4752   30.4755   46.0885 H   0  0  0  0  0  0  0  0  0  0  0  0
  1  2  1  0
  2  3  1  0
  2  4  2  3
  4  5  1  0
  5  6  2  0
  5  7  1  0
  7  8  1  0
  8  9  1  0
  9 10  2  0
  9 11  1  0
  8 12  2  0
 12 13  1  0
 13 14  1  0
 14 15  2  0
 15 16  1  0
 16 17  2  0
 17 18  1  0
 18 19  1  0
 18 20  1  0
 17 21  1  0
 21 22  2  0
 12 23  1  0
 23 24  1  0
 24 25  1  0
 25  4  1  0
 25  7  1  0
 22 14  1  0
  1 26  1  0
  1 27  1  0
  1 28  1  0
  3 29  1  0
  3 30  1  0
  3 31  1  0
 13 32  1  0
 13 33  1  0
 15 34  1  0
 16 35  1  0
 19 36  1  0
 19 37  1  0
 19 38  1  0
 20 39  1  0
 20 40  1  0
 20 41  1  0
 21 42  1  0
 22 43  1  0
 23 44  1  0
 23 45  1  0
 25 46  1  6
M  CHG  2  11  -1  14   1
M  END
>  <UniqueID>  (11) 
11

>  <SMILES>  (11) 
CC(C)=C1C(=O)N2C(C(=O)[O-])=C(C[n+]3ccc(N(C)C)cc3)CS[C@H]12

>  <Energy>  (11) 
68.89764762055815

>  <Genealogy>  (11) 
CC(C)=C1C(=O)N2C(C(=O)[O-])=C(C[n+]3ccc(N(C)C)cc3)CSC12 (protonated)
CC(C)=C1C(=O)N2C(C(=O)[O-])=C(C[n+]3ccc(N(C)C)cc3)CS[C@H]12 (chirality)
CC(C)=C1C(=O)N2C(C(=O)[O-])=C(C[n+]3ccc(N(C)C)cc3)CS[C@H]12 (3D coordinates assigned)
CC(C)=C1C(=O)N2C(C(=O)[O-])=C(C[n+]3ccc(N(C)C)cc3)CS[C@H]12 (nonaromatic ring conformer: 68.89764762055815 kcal/mol)

>  <smiles>  (11) 
CC(C)=C1C(=O)N2C(C(=O)O)=C(C[n+]3ccc(N(C)C)cc3)CSC12

>  <score_type>  (11) 
oracle

>  <origin>  (11) 
adg

>  <m_score__min__energy>  (11) 
-7.9800000000000004

>  <m_primary>  (11) 
energy

$$$$
11:0
     RDKit          3D

 83 88  0  0  0  0  0  0  0  0999 V2000
   60.2012   25.6878   48.1330 H   0  0  0  0  0  0  0  0  0  0  0  0
   60.3750   26.7550   48.3350 C   0  0  0  0  0  0  0  0  0  0  0  0
   60.8150   27.1480   49.5590 N   0  0  0  0  0  0  0  0  0  0  0  0
   61.0320   28.4570   49.8620 C   0  0  0  0  0  0  0  0  0  0  0  0
   61.5430   28.8360   51.1480 N   0  0  0  0  0  0  0  0  0  0  0  0
   62.7310   29.3240   51.3540 C   0  0  0  0  0  0  0  0  0  0  0  0
   63.1830   30.3980   50.6330 N   0  0  0  0  0  0  0  0  0  0  0  0
   64.4040   30.9170   50.9080 C   0  0  0  0  0  0  0  0  0  0  0  0
   65.1760   30.4090   51.9080 C   0  0  0  0  0  0  0  0  0  0  0  0
   64.7330   29.3250   52.6540 C   0  0  0  0  0  0  0  0  0  0  0  0
   65.3500   28.9015   53.4602 H   0  0  0  0  0  0  0  0  0  0  0  0
   63.5080   28.8010   52.3560 N   0  0  0  0  0  0  0  0  0  0  0  0
   66.2790   31.2150   52.0340 C   0  0  0  0  0  0  0  0  0  0  0  0
   67.1204   31.0958   52.7325 H   0  0  0  0  0  0  0  0  0  0  0  0
   66.1000   32.2170   51.0840 C   0  0  0  0  0  0  0  0  0  0  0  0
   66.9550   33.4170   51.0220 C   0  0  0  0  0  0  0  0  0  0  0  0
   67.8510   33.4680   50.1360 O   0  0  0  0  0  0  0  0  0  0  0  0
   66.8110   34.5060   51.9590 N   0  0  0  0  0  0  0  0  0  0  0  0
   67.4380   35.7960   51.6620 C   0  0  0  0  0  0  0  0  0  0  0  0
   67.6869   36.3081   52.6032 H   0  0  0  0  0  0  0  0  0  0  0  0
   68.3568   35.6317   51.0799 H   0  0  0  0  0  0  0  0  0  0  0  0
   66.7412   36.4170   51.0799 H   0  0  0  0  0  0  0  0  0  0  0  0
   66.1560   34.3320   53.2600 C   0  0  0  0  0  0  0  0  0  0  0  0
   66.8812   34.5247   54.0643 H   0  0  0  0  0  0  0  0  0  0  0  0
   65.3172   35.0385   53.3456 H   0  0  0  0  0  0  0  0  0  0  0  0
   65.7784   33.3024   53.3456 H   0  0  0  0  0  0  0  0  0  0  0  0
   64.9660   32.0140   50.3470 N   0  0  0  0  0  0  0  0  0  0  0  0
   64.4140   32.8960   49.2900 C   0  0  0  0  0  0  0  0  0  0  0  0
   65.2981   33.4615   48.9605 H   0  0  0  0  0  0  0  0  0  0  0  0
   63.3070   33.8280   49.7770 C   0  0  0  0  0  0  0  0  0  0  0  0
   62.6712   33.3188   50.5162 H   0  0  0  0  0  0  0  0  0  0  0  0
   63.7110   34.7242   50.2706 H   0  0  0  0  0  0  0  0  0  0  0  0
   62.5080   34.1750   48.5380 C   0  0  0  0  0  0  0  0  0  0  0  0
   61.4630   34.3932   48.8033 H   0  0  0  0  0  0  0  0  0  0  0  0
   62.9047   35.0688   48.0343 H   0  0  0  0  0  0  0  0  0  0  0  0
   62.5840   32.9450   47.6460 C   0  0  0  0  0  0  0  0  0  0  0  0
   61.6475   32.3716   47.7106 H   0  0  0  0  0  0  0  0  0  0  0  0
   62.7307   33.2286   46.5934 H   0  0  0  0  0  0  0  0  0  0  0  0
   63.7530   32.1030   48.1560 C   0  0  0  0  0  0  0  0  0  0  0  0
   63.3866   31.1371   48.5339 H   0  0  0  0  0  0  0  0  0  0  0  0
   64.4716   31.8983   47.3487 H   0  0  0  0  0  0  0  0  0  0  0  0
   60.7740   29.4400   48.9050 C   0  0  0  0  0  0  0  0  0  0  0  0
   60.9047   30.5036   49.1532 H   0  0  0  0  0  0  0  0  0  0  0  0
   60.3490   29.0620   47.6310 C   0  0  0  0  0  0  0  0  0  0  0  0
   60.1758   29.8285   46.8612 H   0  0  0  0  0  0  0  0  0  0  0  0
   60.1410   27.7030   47.3270 C   0  0  0  0  0  0  0  0  0  0  0  0
   59.7620   27.2790   45.9990 N   0  0  0  0  0  0  0  0  0  0  0  0
   59.3540   25.9020   45.7090 C   0  0  0  0  0  0  0  0  0  0  0  0
   59.4738   25.2880   46.6138 H   0  0  0  0  0  0  0  0  0  0  0  0
   59.9833   25.5007   44.9009 H   0  0  0  0  0  0  0  0  0  0  0  0
   57.8780   25.8740   45.2640 C   0  0  0  0  0  0  0  0  0  0  0  0
   57.2481   25.7528   46.1576 H   0  0  0  0  0  0  0  0  0  0  0  0
   57.7709   25.0370   44.5583 H   0  0  0  0  0  0  0  0  0  0  0  0
   57.4450   27.1060   44.5470 N   0  0  0  0  0  0  0  0  0  0  0  0
   56.6660   28.0210   45.4110 C   0  0  0  0  0  0  0  0  0  0  0  0
   56.8637   27.7782   46.4655 H   0  0  0  0  0  0  0  0  0  0  0  0
   55.5965   27.8966   45.1857 H   0  0  0  0  0  0  0  0  0  0  0  0
   57.0530   29.4530   45.1520 C   0  0  0  0  0  0  0  0  0  0  0  0
   56.7000   30.0820   43.9490 C   0  0  0  0  0  0  0  0  0  0  0  0
   56.1379   29.5254   43.1847 H   0  0  0  0  0  0  0  0  0  0  0  0
   57.0590   31.4120   43.7170 C   0  0  0  0  0  0  0  0  0  0  0  0
   56.7777   31.8952   42.7697 H   0  0  0  0  0  0  0  0  0  0  0  0
   57.7770   32.1390   44.6840 C   0  0  0  0  0  0  0  0  0  0  0  0
   58.1740   33.5840   44.4440 C   0  0  0  0  0  0  0  0  0  0  0  0
   58.3373   33.7121   43.3638 H   0  0  0  0  0  0  0  0  0  0  0  0
   57.0540   34.5380   44.8700 C   0  0  0  0  0  0  0  0  0  0  0  0
   57.0055   34.5793   45.9682 H   0  0  0  0  0  0  0  0  0  0  0  0
   57.2585   35.5436   44.4739 H   0  0  0  0  0  0  0  0  0  0  0  0
   56.0937   34.1762   44.4739 H   0  0  0  0  0  0  0  0  0  0  0  0
   59.4880   33.9250   45.1590 C   0  0  0  0  0  0  0  0  0  0  0  0
   59.3342   33.8851   46.2475 H   0  0  0  0  0  0  0  0  0  0  0  0
   60.2615   33.1978   44.8711 H   0  0  0  0  0  0  0  0  0  0  0  0
   59.8103   34.9365   44.8711 H   0  0  0  0  0  0  0  0  0  0  0  0
   58.1370   31.5010   45.8830 C   0  0  0  0  0  0  0  0  0  0  0  0
   58.7076   32.0528   46.6445 H   0  0  0  0  0  0  0  0  0  0  0  0
   57.7760   30.1710   46.1160 C   0  0  0  0  0  0  0  0  0  0  0  0
   58.0605   29.6846   47.0607 H   0  0  0  0  0  0  0  0  0  0  0  0
   58.5730   27.8040   43.8920 C   0  0  0  0  0  0  0  0  0  0  0  0
   58.1864   28.6833   43.3560 H   0  0  0  0  0  0  0  0  0  0  0  0
   59.0558   27.1021   43.1961 H   0  0  0  0  0  0  0  0  0  0  0  0
   59.6240   28.2660   44.9190 C   0  0  0  0  0  0  0  0  0  0  0  0
   59.3111   29.2294   45.3478 H   0  0  0  0  0  0  0  0  0  0  0  0
   60.5935   28.3723   44.4103 H   0  0  0  0  0  0  0  0  0  0  0  0
  1  2  1  0
  2  3  2  0
  3  4  1  0
  4  5  1  0
  5  6  2  0
  6  7  1  0
  7  8  2  0
  8  9  1  0
  9 10  2  0
 10 11  1  0
 10 12  1  0
  9 13  1  0
 13 14  1  0
 13 15  2  0
 15 16  1  0
 16 17  2  0
 16 18  1  0
 18 19  1  0
 19 20  1  0
 19 21  1  0
 19 22  1  0
 18 23  1  0
 23 24  1  0
 23 25  1  0
 23 26  1  0
 15 27  1  0
 27 28  1  0
 28 29  1  0
 28 30  1  0
 30 31  1  0
 30 32  1  0
 30 33  1  0
 33 34  1  0
 33 35  1  0
 33 36  1  0
 36 37  1  0
 36 38  1  0
 36 39  1  0
 39 40  1  0
 39 41  1  0
  4 42  2  0
 42 43  1  0
 42 44  1  0
 44 45  1  0
 44 46  2  0
 46 47  1  0
 47 48  1  0
 48 49  1  0
 48 50  1  0
 48 51  1  0
 51 52  1  0
 51 53  1  0
 51 54  1  0
 54 55  1  0
 55 56  1  0
 55 57  1  0
 55 58  1  0
 58 59  2  0
 59 60  1  0
 59 61  1  0
 61 62  1  0
 61 63  2  0
 63 64  1  0
 64 65  1  0
 64 66  1  0
 66 67  1  0
 66 68  1  0
 66 69  1  0
 64 70  1  0
 70 71  1  0
 70 72  1  0
 70 73  1  0
 63 74  1  0
 74 75  1  0
 74 76  2  0
 76 77  1  0
 54 78  1  0
 78 79  1  0
 78 80  1  0
 78 81  1  0
 81 82  1  0
 81 83  1  0
 46  2  1  0
 81 47  1  0
 12  6  1  0
 39 28  1  0
 76 58  1  0
 27  8  1  0
M  CHG  1  12  -1
M  END
>  <UniqueID>  (12) 
12

>  <SMILES>  (12) 
CC(C)c1ccc(CN2CCN(c3ccc(/N=c4\nc5c(c[n-]4)cc(C(=O)N(C)C)n5C4CCCC4)nc3)CC2)cc1

>  <Energy>  (12) 
145.60109486268482

>  <Genealogy>  (12) 
CC(C)c1ccc(CN2CCN(c3ccc(N=c4nc5c(c[n-]4)cc(C(=O)N(C)C)n5C4CCCC4)nc3)CC2)cc1 (protonated)
CC(C)c1ccc(CN2CCN(c3ccc(/N=c4\nc5c(c[n-]4)cc(C(=O)N(C)C)n5C4CCCC4)nc3)CC2)cc1 (cis-trans isomerization)
CC(C)c1ccc(CN2CCN(c3ccc(/N=c4\nc5c(c[n-]4)cc(C(=O)N(C)C)n5C4CCCC4)nc3)CC2)cc1 (3D coordinates assigned)
CC(C)c1ccc(CN2CCN(c3ccc(/N=c4\nc5c(c[n-]4)cc(C(=O)N(C)C)n5C4CCCC4)nc3)CC2)cc1 (nonaromatic ring conformer: 145.60109486268482 kcal/mol)

>  <smiles>  (12) 
CC(C)c1ccc(CN2CCN(c3ccc(N=c4nc5c(c[nH]4)cc(C(=O)N(C)C)n5C4CCCC4)nc3)CC2)cc1

>  <score_type>  (12) 
oracle

>  <origin>  (12) 
adg

>  <m_score__min__energy>  (12) 
-10.539999999999999

>  <m_primary>  (12) 
energy

$$$$
12:0
     RDKit          3D

 32 33  0  0  1  0  0  0  0  0999 V2000
   55.6470   24.5770   45.2870 C   0  0  0  0  0  0  0  0  0  0  0  0
   55.4340   25.8350   46.0150 N   0  0  0  0  0  0  0  0  0  0  0  0
   56.4070   26.6900   46.0130 C   0  0  0  0  0  0  0  0  0  0  0  0
   57.6310   26.2410   46.5000 C   0  0  0  0  0  0  0  0  0  0  0  0
   58.8730   26.8180   46.2700 C   0  0  0  0  0  0  0  0  0  0  0  0
   59.1660   27.9040   45.4390 C   0  0  0  0  0  0  0  0  0  0  0  0
   60.5950   28.2180   45.3490 C   0  0  0  0  0  0  0  0  0  0  0  0
   58.2780   28.6650   44.7340 N   0  0  0  0  0  0  0  0  0  0  0  0
   56.9600   28.8380   44.9510 C   0  0  0  0  0  0  0  0  0  0  0  0
   56.4560   29.9390   44.5660 N   0  0  0  0  0  0  0  0  0  0  0  0
   57.2090   31.1340   44.7610 C   0  0  0  0  0  0  0  0  0  0  0  0
   57.3860   32.0840   43.7820 C   0  0  0  0  0  0  0  0  0  0  0  0
   58.1440   33.2030   44.1050 C   0  0  0  0  0  0  0  0  0  0  0  0
   58.7070   33.3690   45.3650 C   0  0  0  0  0  0  0  0  0  0  0  0
   59.4960   34.5380   45.6960 C   0  0  0  0  0  0  0  0  0  0  0  0
   60.1200   35.4770   45.9590 N   0  0  0  0  0  0  0  0  0  0  0  0
   58.5170   32.4030   46.3330 C   0  0  0  0  0  0  0  0  0  0  0  0
   57.7710   31.2900   46.0330 C   0  0  0  0  0  0  0  0  0  0  0  0
   56.1550   27.9240   45.5450 N   0  0  0  0  0  0  0  0  0  0  0  0
   55.7860   23.7562   46.0061 H   0  0  0  0  0  0  0  0  0  0  0  0
   54.7717   24.3664   44.6549 H   0  0  0  0  0  0  0  0  0  0  0  0
   56.5428   24.6663   44.6549 H   0  0  0  0  0  0  0  0  0  0  0  0
   57.6128   25.3393   47.1298 H   0  0  0  0  0  0  0  0  0  0  0  0
   59.7243   26.3692   46.8028 H   0  0  0  0  0  0  0  0  0  0  0  0
   61.0146   28.3102   46.3616 H   0  0  0  0  0  0  0  0  0  0  0  0
   61.1141   27.4125   44.8089 H   0  0  0  0  0  0  0  0  0  0  0  0
   60.7286   29.1669   44.8089 H   0  0  0  0  0  0  0  0  0  0  0  0
   56.9445   31.9626   42.7819 H   0  0  0  0  0  0  0  0  0  0  0  0
   58.3030   33.9793   43.3421 H   0  0  0  0  0  0  0  0  0  0  0  0
   58.9583   32.5237   47.3333 H   0  0  0  0  0  0  0  0  0  0  0  0
   57.6140   30.5154   46.7981 H   0  0  0  0  0  0  0  0  0  0  0  0
   55.1490   28.2170   45.6700 H   0  0  0  0  0  0  0  0  0  0  0  0
  1  2  1  0
  2  3  2  0
  3  4  1  0
  4  5  2  0
  5  6  1  0
  6  7  1  0
  6  8  2  0
  8  9  1  0
  9 10  2  0
 10 11  1  0
 11 12  2  0
 12 13  1  0
 13 14  2  0
 14 15  1  0
 15 16  3  0
 14 17  1  0
 17 18  2  0
  9 19  1  0
 19  3  1  0
 18 11  1  0
  1 20  1  0
  1 21  1  0
  1 22  1  0
  4 23  1  0
  5 24  1  0
  7 25  1  0
  7 26  1  0
  7 27  1  0
 12 28  1  0
 13 29  1  0
 17 30  1  0
 18 31  1  0
 19 32  1  0
M  END
>  <smiles>  (13) 
CN=c1ccc(C)nc(=Nc2ccc(C#N)cc2)[nH]1

>  <score_type>  (13) 
oracle

>  <origin>  (13) 
adg

>  <m_score__min__energy>  (13) 
-7.2999999999999998

>  <m_primary>  (13) 
energy

$$$$
13:0
     RDKit          3D

 41 43  0  0  0  0  0  0  0  0999 V2000
   60.2800   21.9740   45.2460 N   0  0  0  0  0  0  0  0  0  0  0  0
   59.2000   22.3830   45.1690 C   0  0  0  0  0  0  0  0  0  0  0  0
   57.8570   22.8920   45.0750 C   0  0  0  0  0  0  0  0  0  0  0  0
   56.8710   22.1530   44.4100 C   0  0  0  0  0  0  0  0  0  0  0  0
   55.5720   22.6560   44.3040 C   0  0  0  0  0  0  0  0  0  0  0  0
   55.2510   23.8940   44.8690 C   0  0  0  0  0  0  0  0  0  0  0  0
   56.2210   24.6290   45.5610 C   0  0  0  0  0  0  0  0  0  0  0  0
   55.8670   25.9090   46.1020 N   0  0  0  0  0  0  0  0  0  0  0  0
   56.6340   27.1130   45.9740 C   0  0  0  0  0  0  0  0  0  0  0  0
   57.7820   27.1550   46.4910 O   0  0  0  0  0  0  0  0  0  0  0  0
   56.1210   28.2400   45.2420 N   0  0  0  0  0  0  0  0  0  0  0  0
   56.8080   29.4950   45.1090 C   0  0  0  0  0  0  0  0  0  0  0  0
   57.8920   29.7750   45.9540 C   0  0  0  0  0  0  0  0  0  0  0  0
   58.5650   30.9970   45.8640 C   0  0  0  0  0  0  0  0  0  0  0  0
   58.1570   31.9620   44.9300 C   0  0  0  0  0  0  0  0  0  0  0  0
   58.8550   33.2930   44.8610 C   0  0  0  0  0  0  0  0  0  0  0  0
   59.5050   33.6100   46.1800 C   0  0  0  0  0  0  0  0  0  0  0  0
   58.7210   33.9700   47.2890 C   0  0  0  0  0  0  0  0  0  0  0  0
   59.3240   34.2290   48.5230 C   0  0  0  0  0  0  0  0  0  0  0  0
   60.7110   34.1220   48.6620 C   0  0  0  0  0  0  0  0  0  0  0  0
   61.4970   33.7530   47.5670 C   0  0  0  0  0  0  0  0  0  0  0  0
   60.8980   33.4930   46.3300 C   0  0  0  0  0  0  0  0  0  0  0  0
   57.0500   31.7000   44.1100 C   0  0  0  0  0  0  0  0  0  0  0  0
   56.3780   30.4760   44.1990 C   0  0  0  0  0  0  0  0  0  0  0  0
   57.5360   24.1340   45.6420 C   0  0  0  0  0  0  0  0  0  0  0  0
   57.1194   21.1756   43.9707 H   0  0  0  0  0  0  0  0  0  0  0  0
   54.8005   22.0771   43.7752 H   0  0  0  0  0  0  0  0  0  0  0  0
   54.2307   24.2927   44.7692 H   0  0  0  0  0  0  0  0  0  0  0  0
   55.1590   28.1780   44.8410 H   0  0  0  0  0  0  0  0  0  0  0  0
   58.2151   29.0272   46.6932 H   0  0  0  0  0  0  0  0  0  0  0  0
   59.4176   31.2031   46.5277 H   0  0  0  0  0  0  0  0  0  0  0  0
   59.6247   33.2589   44.0759 H   0  0  0  0  0  0  0  0  0  0  0  0
   58.1153   34.0736   44.6296 H   0  0  0  0  0  0  0  0  0  0  0  0
   57.6287   34.0483   47.1857 H   0  0  0  0  0  0  0  0  0  0  0  0
   58.7063   34.5175   49.3862 H   0  0  0  0  0  0  0  0  0  0  0  0
   61.1838   34.3283   49.6336 H   0  0  0  0  0  0  0  0  0  0  0  0
   62.5880   33.6669   47.6780 H   0  0  0  0  0  0  0  0  0  0  0  0
   61.5188   33.1960   45.4719 H   0  0  0  0  0  0  0  0  0  0  0  0
   56.7081   32.4609   43.3929 H   0  0  0  0  0  0  0  0  0  0  0  0
   55.5089   30.2806   43.5536 H   0  0  0  0  0  0  0  0  0  0  0  0
   58.3136   24.7224   46.1510 H   0  0  0  0  0  0  0  0  0  0  0  0
  1  2  3  0
  2  3  1  0
  3  4  2  0
  4  5  1  0
  5  6  2  0
  6  7  1  0
  7  8  1  0
  8  9  1  0
  9 10  2  0
  9 11  1  0
 11 12  1  0
 12 13  2  0
 13 14  1  0
 14 15  2  0
 15 16  1  0
 16 17  1  0
 17 18  2  0
 18 19  1  0
 19 20  2  0
 20 21  1  0
 21 22  2  0
 15 23  1  0
 23 24  2  0
  7 25  2  0
 25  3  1  0
 24 12  1  0
 22 17  1  0
  4 26  1  0
  5 27  1  0
  6 28  1  0
 11 29  1  0
 13 30  1  0
 14 31  1  0
 16 32  1  0
 16 33  1  0
 18 34  1  0
 19 35  1  0
 20 36  1  0
 21 37  1  0
 22 38  1  0
 23 39  1  0
 24 40  1  0
 25 41  1  0
M  CHG  1   8  -1
M  END
>  <UniqueID>  (14) 
13

>  <SMILES>  (14) 
N#Cc1cccc([N-]C(=O)Nc2ccc(Cc3ccccc3)cc2)c1

>  <Energy>  (14) 
49.664735207713996

>  <Genealogy>  (14) 
N#Cc1cccc([N-]C(=O)Nc2ccc(Cc3ccccc3)cc2)c1 (protonated)
N#Cc1cccc([N-]C(=O)Nc2ccc(Cc3ccccc3)cc2)c1 (3D coordinates assigned)
N#Cc1cccc([N-]C(=O)Nc2ccc(Cc3ccccc3)cc2)c1 (optimized conformer: 49.664735207713996 kcal/mol)

>  <smiles>  (14) 
N#Cc1cccc(NC(=O)Nc2ccc(Cc3ccccc3)cc2)c1

>  <score_type>  (14) 
oracle

>  <origin>  (14) 
adg

>  <m_score__min__energy>  (14) 
-10.539999999999999

>  <m_primary>  (14) 
energy

$$$$
14:0
     RDKit          3D

 25 27  0  0  1  0  0  0  0  0999 V2000
   58.6970   34.2590   44.9840 Cl  0  0  0  0  0  0  0  0  0  0  0  0
   57.9850   32.8200   44.2760 C   0  0  0  0  0  0  0  0  0  0  0  0
   57.9360   32.7170   42.8950 C   0  0  0  0  0  0  0  0  0  0  0  0
   57.3860   31.6080   42.2880 C   0  0  0  0  0  0  0  0  0  0  0  0
   56.8650   30.5640   43.0360 C   0  0  0  0  0  0  0  0  0  0  0  0
   56.9130   30.6660   44.4360 C   0  0  0  0  0  0  0  0  0  0  0  0
   56.4470   29.6180   45.2450 N   0  0  0  0  0  0  0  0  0  0  0  0
   56.9590   28.4980   45.4870 C   0  0  0  0  0  0  0  0  0  0  0  0
   56.1780   27.4180   45.6210 N   0  0  0  0  0  0  0  0  0  0  0  0
   56.6720   26.1930   45.8790 C   0  0  0  0  0  0  0  0  0  0  0  0
   58.0070   26.0800   46.0030 N   0  0  0  0  0  0  0  0  0  0  0  0
   58.8280   27.1380   45.8750 C   0  0  0  0  0  0  0  0  0  0  0  0
   60.1530   27.2490   45.9580 N   0  0  0  0  0  0  0  0  0  0  0  0
   60.4650   28.5150   45.7540 N   0  0  0  0  0  0  0  0  0  0  0  0
   59.3480   29.2650   45.5320 C   0  0  0  0  0  0  0  0  0  0  0  0
   58.3140   28.3870   45.6110 C   0  0  0  0  0  0  0  0  0  0  0  0
   57.4740   31.7970   45.0440 C   0  0  0  0  0  0  0  0  0  0  0  0
   58.3411   33.5304   42.2751 H   0  0  0  0  0  0  0  0  0  0  0  0
   57.3602   31.5507   41.1898 H   0  0  0  0  0  0  0  0  0  0  0  0
   56.4267   29.6813   42.5475 H   0  0  0  0  0  0  0  0  0  0  0  0
   55.1430   27.5420   45.5180 H   0  0  0  0  0  0  0  0  0  0  0  0
   56.0113   25.3198   45.9842 H   0  0  0  0  0  0  0  0  0  0  0  0
   60.8880   26.5200   46.1450 H   0  0  0  0  0  0  0  0  0  0  0  0
   59.2955   30.3455   45.3324 H   0  0  0  0  0  0  0  0  0  0  0  0
   57.5065   31.8684   46.1412 H   0  0  0  0  0  0  0  0  0  0  0  0
  1  2  1  0
  2  3  2  0
  3  4  1  0
  4  5  2  0
  5  6  1  0
  6  7  1  0
  7  8  2  0
  8  9  1  0
  9 10  1  0
 10 11  2  0
 11 12  1  0
 12 13  1  0
 13 14  1  0
 14 15  2  0
 15 16  1  0
  6 17  2  0
 17  2  1  0
 16  8  1  0
 16 12  2  0
  3 18  1  0
  4 19  1  0
  5 20  1  0
  9 21  1  0
 10 22  1  0
 13 23  1  0
 15 24  1  0
 17 25  1  0
M  END
>  <smiles>  (15) 
Clc1cccc(N=c2[nH]cnc3[nH]ncc23)c1

>  <score_type>  (15) 
oracle

>  <origin>  (15) 
adg

>  <m_score__min__energy>  (15) 
-6.75

>  <m_primary>  (15) 
energy

$$$$
15:0
     RDKit          3D

 35 38  0  0  0  0  0  0  0  0999 V2000
   55.1790   29.3700   44.5940 N   0  0  0  0  0  0  0  0  0  0  0  0
   56.6460   29.9020   43.8530 S   0  0  0  0  0  0  0  0  0  0  0  0
   57.3970   28.7140   43.3210 O   0  0  0  0  0  0  0  0  0  0  0  0
   56.3260   30.8220   42.7080 O   0  0  0  0  0  0  0  0  0  0  0  0
   57.6310   30.7500   45.0410 C   0  0  0  0  0  0  0  0  0  0  0  0
   57.4750   32.1290   45.2290 C   0  0  0  0  0  0  0  0  0  0  0  0
   58.2480   32.8020   46.1790 C   0  0  0  0  0  0  0  0  0  0  0  0
   59.1760   32.0990   46.9660 C   0  0  0  0  0  0  0  0  0  0  0  0
   60.0120   32.8030   47.9600 C   0  0  0  0  0  0  0  0  0  0  0  0
   59.5690   33.8140   48.7390 N   0  0  0  0  0  0  0  0  0  0  0  0
   60.5600   34.2080   49.5290 N   0  0  0  0  0  0  0  0  0  0  0  0
   61.6100   33.4240   49.2100 C   0  0  0  0  0  0  0  0  0  0  0  0
   62.8950   33.4770   49.7580 C   0  0  0  0  0  0  0  0  0  0  0  0
   63.2430   34.3750   50.7780 C   0  0  0  0  0  0  0  0  0  0  0  0
   64.5470   34.3800   51.2840 C   0  0  0  0  0  0  0  0  0  0  0  0
   65.5040   33.4970   50.7770 C   0  0  0  0  0  0  0  0  0  0  0  0
   65.1690   32.6010   49.7570 C   0  0  0  0  0  0  0  0  0  0  0  0
   63.8660   32.5800   49.2370 C   0  0  0  0  0  0  0  0  0  0  0  0
   63.5170   31.6890   48.1980 C   0  0  0  0  0  0  0  0  0  0  0  0
   62.2080   31.6890   47.6920 C   0  0  0  0  0  0  0  0  0  0  0  0
   61.3060   32.5460   48.2390 N   0  0  0  0  0  0  0  0  0  0  0  0
   59.3390   30.7200   46.7650 C   0  0  0  0  0  0  0  0  0  0  0  0
   58.5640   30.0470   45.8150 C   0  0  0  0  0  0  0  0  0  0  0  0
   55.1440   28.3310   44.4880 H   0  0  0  0  0  0  0  0  0  0  0  0
   56.7412   32.6845   44.6266 H   0  0  0  0  0  0  0  0  0  0  0  0
   58.1294   33.8875   46.3114 H   0  0  0  0  0  0  0  0  0  0  0  0
   58.6090   34.2240   48.7490 H   0  0  0  0  0  0  0  0  0  0  0  0
   62.4929   35.0728   51.1785 H   0  0  0  0  0  0  0  0  0  0  0  0
   64.8205   35.0825   52.0850 H   0  0  0  0  0  0  0  0  0  0  0  0
   66.5265   33.5068   51.1825 H   0  0  0  0  0  0  0  0  0  0  0  0
   65.9288   31.9110   49.3614 H   0  0  0  0  0  0  0  0  0  0  0  0
   64.2680   30.9981   47.7873 H   0  0  0  0  0  0  0  0  0  0  0  0
   61.9194   31.0128   46.8738 H   0  0  0  0  0  0  0  0  0  0  0  0
   60.0807   30.1649   47.3581 H   0  0  0  0  0  0  0  0  0  0  0  0
   58.6872   28.9629   45.6750 H   0  0  0  0  0  0  0  0  0  0  0  0
  1  2  1  0
  2  3  2  0
  2  4  2  0
  2  5  1  0
  5  6  2  0
  6  7  1  0
  7  8  2  0
  8  9  1  0
  9 10  2  0
 10 11  1  0
 11 12  2  0
 12 13  1  0
 13 14  2  0
 14 15  1  0
 15 16  2  0
 16 17  1  0
 17 18  2  0
 18 19  1  0
 19 20  2  0
 20 21  1  0
  8 22  1  0
 22 23  2  0
 23  5  1  0
 21  9  1  0
 21 12  1  0
 18 13  1  0
  1 24  1  0
  6 25  1  0
  7 26  1  0
 10 27  1  0
 14 28  1  0
 15 29  1  0
 16 30  1  0
 17 31  1  0
 19 32  1  0
 20 33  1  0
 22 34  1  0
 23 35  1  0
M  CHG  2   1  -1  10   1
M  END
>  <UniqueID>  (16) 
14

>  <SMILES>  (16) 
[NH-]S(=O)(=O)c1ccc(-c2[nH+]nc3c4ccccc4ccn23)cc1

>  <Energy>  (16) 
89.02508315008451

>  <Genealogy>  (16) 
[NH-]S(=O)(=O)c1ccc(-c2[nH+]nc3c4ccccc4ccn23)cc1 (protonated)
[NH-]S(=O)(=O)c1ccc(-c2[nH+]nc3c4ccccc4ccn23)cc1 (3D coordinates assigned)
[NH-]S(=O)(=O)c1ccc(-c2[nH+]nc3c4ccccc4ccn23)cc1 (optimized conformer: 89.02508315008451 kcal/mol)

>  <smiles>  (16) 
NS(=O)(=O)c1ccc(-c2nnc3c4ccccc4ccn23)cc1

>  <score_type>  (16) 
oracle

>  <origin>  (16) 
adg

>  <m_score__min__energy>  (16) 
-9.1600000000000001

>  <m_primary>  (16) 
energy

$$$$
16:0
     RDKit          3D

 37 39  0  0  0  0  0  0  0  0999 V2000
   58.0250   25.6690   45.5270 C   0  0  0  0  0  0  0  0  0  0  0  0
   58.6110   26.3450   46.6340 O   0  0  0  0  0  0  0  0  0  0  0  0
   59.7260   27.1770   46.5060 C   0  0  0  0  0  0  0  0  0  0  0  0
   60.8790   26.6790   46.3850 O   0  0  0  0  0  0  0  0  0  0  0  0
   59.5420   28.6380   46.5140 C   0  0  0  0  0  0  0  0  0  0  0  0
   60.3430   29.5450   47.1950 C   0  0  0  0  0  0  0  0  0  0  0  0
   59.9000   30.8070   46.9970 N   0  0  0  0  0  0  0  0  0  0  0  0
   60.4850   31.9700   47.5900 C   0  0  0  0  0  0  0  0  0  0  0  0
   61.7260   32.4400   47.1370 C   0  0  0  0  0  0  0  0  0  0  0  0
   62.3080   33.5650   47.7300 C   0  0  0  0  0  0  0  0  0  0  0  0
   61.6580   34.2160   48.7820 C   0  0  0  0  0  0  0  0  0  0  0  0
   60.4280   33.7410   49.2480 C   0  0  0  0  0  0  0  0  0  0  0  0
   59.8450   32.6150   48.6570 C   0  0  0  0  0  0  0  0  0  0  0  0
   58.8190   30.7170   46.1860 C   0  0  0  0  0  0  0  0  0  0  0  0
   58.0070   31.7330   45.6490 C   0  0  0  0  0  0  0  0  0  0  0  0
   58.2290   33.1920   45.9090 C   0  0  0  0  0  0  0  0  0  0  0  0
   56.9670   31.3600   44.8440 N   0  0  0  0  0  0  0  0  0  0  0  0
   56.6970   30.0530   44.5410 C   0  0  0  0  0  0  0  0  0  0  0  0
   55.5500   29.7240   43.6390 C   0  0  0  0  0  0  0  0  0  0  0  0
   57.5130   29.0280   45.0490 C   0  0  0  0  0  0  0  0  0  0  0  0
   58.5740   29.3980   45.8760 C   0  0  0  0  0  0  0  0  0  0  0  0
   57.3457   24.8854   45.8937 H   0  0  0  0  0  0  0  0  0  0  0  0
   57.4596   26.3879   44.9159 H   0  0  0  0  0  0  0  0  0  0  0  0
   58.8169   25.2113   44.9159 H   0  0  0  0  0  0  0  0  0  0  0  0
   61.2149   29.2749   47.8089 H   0  0  0  0  0  0  0  0  0  0  0  0
   62.2423   31.9234   46.3145 H   0  0  0  0  0  0  0  0  0  0  0  0
   63.2777   33.9375   47.3682 H   0  0  0  0  0  0  0  0  0  0  0  0
   62.1147   35.1036   49.2443 H   0  0  0  0  0  0  0  0  0  0  0  0
   59.9194   34.2523   50.0786 H   0  0  0  0  0  0  0  0  0  0  0  0
   58.8826   32.2352   49.0304 H   0  0  0  0  0  0  0  0  0  0  0  0
   58.2563   33.3711   46.9940 H   0  0  0  0  0  0  0  0  0  0  0  0
   59.1848   33.5028   45.4619 H   0  0  0  0  0  0  0  0  0  0  0  0
   57.4089   33.7731   45.4619 H   0  0  0  0  0  0  0  0  0  0  0  0
   54.6677   29.4709   44.2452 H   0  0  0  0  0  0  0  0  0  0  0  0
   55.3218   30.5929   43.0042 H   0  0  0  0  0  0  0  0  0  0  0  0
   55.8170   28.8662   43.0042 H   0  0  0  0  0  0  0  0  0  0  0  0
   57.3223   27.9728   44.8037 H   0  0  0  0  0  0  0  0  0  0  0  0
  1  2  1  0
  2  3  1  0
  3  4  2  0
  3  5  1  0
  5  6  2  0
  6  7  1  0
  7  8  1  0
  8  9  2  0
  9 10  1  0
 10 11  2  0
 11 12  1  0
 12 13  2  0
  7 14  1  0
 14 15  2  0
 15 16  1  0
 15 17  1  0
 17 18  2  0
 18 19  1  0
 18 20  1  0
 20 21  2  0
 21  5  1  0
 13  8  1  0
 21 14  1  0
  1 22  1  0
  1 23  1  0
  1 24  1  0
  6 25  1  0
  9 26  1  0
 10 27  1  0
 11 28  1  0
 12 29  1  0
 13 30  1  0
 16 31  1  0
 16 32  1  0
 16 33  1  0
 19 34  1  0
 19 35  1  0
 19 36  1  0
 20 37  1  0
M  END
>  <UniqueID>  (17) 
15

>  <SMILES>  (17) 
COC(=O)c1cn(-c2ccccc2)c2c(C)nc(C)cc12

>  <Energy>  (17) 
79.09955771572142

>  <Genealogy>  (17) 
COC(=O)c1cn(-c2ccccc2)c2c(C)nc(C)cc12 (3D coordinates assigned)
COC(=O)c1cn(-c2ccccc2)c2c(C)nc(C)cc12 (optimized conformer: 79.09955771572142 kcal/mol)

>  <smiles>  (17) 
COC(=O)c1cn(-c2ccccc2)c2c(C)nc(C)cc12

>  <score_type>  (17) 
oracle

>  <origin>  (17) 
adg

>  <m_score__min__energy>  (17) 
-6.5300000000000002

>  <m_primary>  (17) 
energy

$$$$
17:0
     RDKit          3D

 33 34  0  0  0  0  0  0  0  0999 V2000
   57.5860   22.3330   45.3410 C   0  0  0  0  0  0  0  0  0  0  0  0
   57.5250   23.8240   45.5390 C   0  0  0  0  0  0  0  0  0  0  0  0
   56.3170   24.4430   45.6870 N   0  0  0  0  0  0  0  0  0  0  0  0
   56.2830   25.7610   45.8610 C   0  0  0  0  0  0  0  0  0  0  0  0
   55.1560   26.3500   46.0000 O   0  0  0  0  0  0  0  0  0  0  0  0
   57.4650   26.4720   45.8870 C   0  0  0  0  0  0  0  0  0  0  0  0
   57.3580   27.9410   46.0780 C   0  0  0  0  0  0  0  0  0  0  0  0
   56.4350   28.5480   45.1420 N   0  0  0  0  0  0  0  0  0  0  0  0
   57.3820   29.3460   43.9380 S   0  0  0  0  0  0  0  0  0  0  0  0
   58.6050   28.4590   43.7340 O   0  0  0  0  0  0  0  0  0  0  0  0
   56.6450   29.3980   42.6220 O   0  0  0  0  0  0  0  0  0  0  0  0
   57.9060   30.9360   44.4330 C   0  0  0  0  0  0  0  0  0  0  0  0
   58.5290   31.0390   45.6620 C   0  0  0  0  0  0  0  0  0  0  0  0
   58.9810   32.2390   46.1620 C   0  0  0  0  0  0  0  0  0  0  0  0
   58.8000   33.3710   45.3980 C   0  0  0  0  0  0  0  0  0  0  0  0
   59.2620   34.6500   45.9010 C   0  0  0  0  0  0  0  0  0  0  0  0
   59.6400   35.6670   46.3210 N   0  0  0  0  0  0  0  0  0  0  0  0
   58.1750   33.3070   44.1490 C   0  0  0  0  0  0  0  0  0  0  0  0
   57.7240   32.0700   43.6650 C   0  0  0  0  0  0  0  0  0  0  0  0
   58.7080   25.8710   45.7400 C   0  0  0  0  0  0  0  0  0  0  0  0
   58.6650   24.5180   45.5660 N   0  0  0  0  0  0  0  0  0  0  0  0
   57.6064   21.8335   46.3209 H   0  0  0  0  0  0  0  0  0  0  0  0
   56.7007   22.0013   44.7787 H   0  0  0  0  0  0  0  0  0  0  0  0
   58.4955   22.0747   44.7787 H   0  0  0  0  0  0  0  0  0  0  0  0
   57.0074   28.1407   47.1013 H   0  0  0  0  0  0  0  0  0  0  0  0
   58.3524   28.3778   45.9034 H   0  0  0  0  0  0  0  0  0  0  0  0
   55.8540   27.8440   44.6570 H   0  0  0  0  0  0  0  0  0  0  0  0
   58.6689   30.1284   46.2630 H   0  0  0  0  0  0  0  0  0  0  0  0
   59.4731   32.2927   47.1443 H   0  0  0  0  0  0  0  0  0  0  0  0
   58.0380   34.2197   43.5504 H   0  0  0  0  0  0  0  0  0  0  0  0
   57.2305   32.0035   42.6841 H   0  0  0  0  0  0  0  0  0  0  0  0
   59.6500   26.4387   45.7620 H   0  0  0  0  0  0  0  0  0  0  0  0
   59.6220   24.0770   45.4550 H   0  0  0  0  0  0  0  0  0  0  0  0
  1  2  1  0
  2  3  2  0
  3  4  1  0
  4  5  2  0
  4  6  1  0
  6  7  1  0
  7  8  1  0
  8  9  1  0
  9 10  2  0
  9 11  2  0
  9 12  1  0
 12 13  2  0
 13 14  1  0
 14 15  2  0
 15 16  1  0
 16 17  3  0
 15 18  1  0
 18 19  2  0
  6 20  2  0
 20 21  1  0
 21  2  1  0
 19 12  1  0
  1 22  1  0
  1 23  1  0
  1 24  1  0
  7 25  1  0
  7 26  1  0
  8 27  1  0
 13 28  1  0
 14 29  1  0
 18 30  1  0
 19 31  1  0
 20 32  1  0
 21 33  1  0
M  END
>  <smiles>  (18) 
Cc1nc(=O)c(CNS(=O)(=O)c2ccc(C#N)cc2)c[nH]1

>  <score_type>  (18) 
oracle

>  <origin>  (18) 
adg

>  <m_score__min__energy>  (18) 
-7.8799999999999999

>  <m_primary>  (18) 
energy

$$$$
18:0
     RDKit          3D

 53 55  0  0  0  0  0  0  0  0999 V2000
   58.4270   31.3020   49.8120 C   0  0  0  0  0  0  0  0  0  0  0  0
   59.6460   32.1680   49.6470 C   0  0  0  0  0  0  0  0  0  0  0  0
   59.8020   33.3160   50.4350 C   0  0  0  0  0  0  0  0  0  0  0  0
   60.8920   34.1110   50.2830 N   0  0  0  0  0  0  0  0  0  0  0  0
   61.8580   33.8410   49.3680 C   0  0  0  0  0  0  0  0  0  0  0  0
   62.8470   34.6160   49.2680 O   0  0  0  0  0  0  0  0  0  0  0  0
   61.7470   32.7110   48.5420 C   0  0  0  0  0  0  0  0  0  0  0  0
   62.7580   32.4330   47.5460 C   0  0  0  0  0  0  0  0  0  0  0  0
   63.5670   32.2140   46.7480 N   0  0  0  0  0  0  0  0  0  0  0  0
   60.6310   31.8640   48.6840 C   0  0  0  0  0  0  0  0  0  0  0  0
   60.4980   30.7030   47.8490 N   0  0  0  0  0  0  0  0  0  0  0  0
   60.3680   29.3750   48.4590 C   0  0  0  0  0  0  0  0  0  0  0  0
   59.2170   28.6070   47.7970 C   0  0  0  0  0  0  0  0  0  0  0  0
   59.2080   28.7820   46.3350 N   0  0  0  0  0  0  0  0  0  0  0  0
   58.1410   28.1840   45.5730 C   0  0  0  0  0  0  0  0  0  0  0  0
   57.5860   27.1360   46.0060 O   0  0  0  0  0  0  0  0  0  0  0  0
   57.6880   28.7760   44.2630 C   0  0  0  0  0  0  0  0  0  0  0  0
   56.8470   30.0480   44.4600 C   0  0  0  0  0  0  0  0  0  0  0  0
   57.7000   31.3290   44.4910 C   0  0  0  0  0  0  0  0  0  0  0  0
   57.0510   32.5030   45.2440 C   0  0  0  0  0  0  0  0  0  0  0  0
   58.0720   33.4890   45.7520 C   0  0  0  0  0  0  0  0  0  0  0  0
   58.7000   34.3860   44.8750 C   0  0  0  0  0  0  0  0  0  0  0  0
   59.6230   35.3100   45.3670 C   0  0  0  0  0  0  0  0  0  0  0  0
   59.9090   35.3320   46.7330 C   0  0  0  0  0  0  0  0  0  0  0  0
   59.2910   34.4590   47.5750 N   0  0  0  0  0  0  0  0  0  0  0  0
   58.3870   33.5500   47.1180 C   0  0  0  0  0  0  0  0  0  0  0  0
   60.3060   29.5170   45.6870 C   0  0  0  0  0  0  0  0  0  0  0  0
   60.5090   30.8610   46.3890 C   0  0  0  0  0  0  0  0  0  0  0  0
   58.2226   31.1568   50.8831 H   0  0  0  0  0  0  0  0  0  0  0  0
   57.5634   31.7902   49.3368 H   0  0  0  0  0  0  0  0  0  0  0  0
   58.6037   30.3258   49.3368 H   0  0  0  0  0  0  0  0  0  0  0  0
   59.0366   33.5748   51.1814 H   0  0  0  0  0  0  0  0  0  0  0  0
   61.3058   28.8169   48.3211 H   0  0  0  0  0  0  0  0  0  0  0  0
   60.1574   29.4886   49.5327 H   0  0  0  0  0  0  0  0  0  0  0  0
   59.3257   27.5366   48.0262 H   0  0  0  0  0  0  0  0  0  0  0  0
   58.2707   29.0038   48.1932 H   0  0  0  0  0  0  0  0  0  0  0  0
   58.5747   29.0271   43.6624 H   0  0  0  0  0  0  0  0  0  0  0  0
   57.0584   28.0304   43.7554 H   0  0  0  0  0  0  0  0  0  0  0  0
   56.1273   30.1251   43.6317 H   0  0  0  0  0  0  0  0  0  0  0  0
   56.3418   29.9632   45.4334 H   0  0  0  0  0  0  0  0  0  0  0  0
   58.6574   31.0938   44.9789 H   0  0  0  0  0  0  0  0  0  0  0  0
   57.8209   31.6526   43.4466 H   0  0  0  0  0  0  0  0  0  0  0  0
   56.3638   33.0247   44.5616 H   0  0  0  0  0  0  0  0  0  0  0  0
   56.5171   32.0921   46.1136 H   0  0  0  0  0  0  0  0  0  0  0  0
   58.4652   34.3611   43.8006 H   0  0  0  0  0  0  0  0  0  0  0  0
   60.1206   36.0146   44.6844 H   0  0  0  0  0  0  0  0  0  0  0  0
   60.6354   36.0564   47.1300 H   0  0  0  0  0  0  0  0  0  0  0  0
   59.5130   34.4900   48.5950 H   0  0  0  0  0  0  0  0  0  0  0  0
   57.9009   32.8597   47.8231 H   0  0  0  0  0  0  0  0  0  0  0  0
   61.2314   28.9260   45.7533 H   0  0  0  0  0  0  0  0  0  0  0  0
   60.0551   29.6912   44.6303 H   0  0  0  0  0  0  0  0  0  0  0  0
   61.4763   31.2845   46.0809 H   0  0  0  0  0  0  0  0  0  0  0  0
   59.6846   31.5314   46.1044 H   0  0  0  0  0  0  0  0  0  0  0  0
  1  2  1  0
  2  3  2  0
  3  4  1  0
  4  5  1  0
  5  6  2  0
  5  7  1  0
  7  8  1  0
  8  9  3  0
  7 10  2  0
 10 11  1  0
 11 12  1  0
 12 13  1  0
 13 14  1  0
 14 15  1  0
 15 16  2  0
 15 17  1  0
 17 18  1  0
 18 19  1  0
 19 20  1  0
 20 21  1  0
 21 22  2  0
 22 23  1  0
 23 24  2  0
 24 25  1  0
 25 26  2  0
 14 27  1  0
 27 28  1  0
 10  2  1  0
 28 11  1  0
 26 21  1  0
  1 29  1  0
  1 30  1  0
  1 31  1  0
  3 32  1  0
 12 33  1  0
 12 34  1  0
 13 35  1  0
 13 36  1  0
 17 37  1  0
 17 38  1  0
 18 39  1  0
 18 40  1  0
 19 41  1  0
 19 42  1  0
 20 43  1  0
 20 44  1  0
 22 45  1  0
 23 46  1  0
 24 47  1  0
 25 48  1  0
 26 49  1  0
 27 50  1  0
 27 51  1  0
 28 52  1  0
 28 53  1  0
M  CHG  2   4  -1  25   1
M  END
>  <UniqueID>  (19) 
16

>  <SMILES>  (19) 
Cc1c[n-]c(=O)c(C#N)c1N1CCN(C(=O)CCCCc2ccc[nH+]c2)CC1

>  <Energy>  (19) 
56.70720055485785

>  <Genealogy>  (19) 
Cc1c[n-]c(=O)c(C#N)c1N1CCN(C(=O)CCCCc2ccc[nH+]c2)CC1 (protonated)
Cc1c[n-]c(=O)c(C#N)c1N1CCN(C(=O)CCCCc2ccc[nH+]c2)CC1 (3D coordinates assigned)
Cc1c[n-]c(=O)c(C#N)c1N1CCN(C(=O)CCCCc2ccc[nH+]c2)CC1 (nonaromatic ring conformer: 56.70720055485785 kcal/mol)

>  <smiles>  (19) 
Cc1c[nH]c(=O)c(C#N)c1N1CCN(C(=O)CCCCc2cccnc2)CC1

>  <score_type>  (19) 
oracle

>  <origin>  (19) 
adg

>  <m_score__min__energy>  (19) 
-8.8200000000000003

>  <m_primary>  (19) 
energy

$$$$
19:0
     RDKit          3D

 70 73  0  0  0  0  0  0  0  0999 V2000
   57.0610   34.5730   44.9330 C   0  0  0  0  0  0  0  0  0  0  0  0
   57.7020   33.7100   45.7390 C   0  0  0  0  0  0  0  0  0  0  0  0
   57.1150   33.4080   47.1020 C   0  0  0  0  0  0  0  0  0  0  0  0
   58.1200   32.7230   48.0390 C   0  0  0  0  0  0  0  0  0  0  0  0
   59.5470   33.2450   47.7600 C   0  0  1  0  0  0  0  0  0  0  0  0
   60.5650   33.1060   48.9570 C   0  0  0  0  0  0  0  0  0  0  0  0
   60.4160   31.7530   49.7060 C   0  0  0  0  0  0  0  0  0  0  0  0
   60.2930   34.2330   49.9870 C   0  0  0  0  0  0  0  0  0  0  0  0
   62.0120   33.2770   48.4840 C   0  0  0  0  0  0  0  0  0  0  0  0
   62.9080   33.2100   49.3140 O   0  0  0  0  0  0  0  0  0  0  0  0
   62.4280   33.5210   47.0470 C   0  0  0  0  0  0  0  0  0  0  0  0
   61.2820   33.6260   46.0240 C   0  0  0  0  0  0  0  0  0  0  0  0
   60.0550   32.7400   46.3600 C   0  0  1  0  0  0  0  0  0  0  0  0
   60.5270   31.2520   46.3930 C   0  0  0  0  0  0  0  0  0  0  0  0
   58.9290   32.9530   45.2370 C   0  0  1  0  0  0  0  0  0  0  0  0
   58.4010   31.6660   44.6130 C   0  0  0  0  0  0  0  0  0  0  0  0
   57.1190   31.4400   44.2630 C   0  0  0  0  0  0  0  0  0  0  0  0
   56.4870   30.0750   44.1440 C   0  0  0  0  0  0  0  0  0  0  0  0
   57.3740   28.9860   44.6910 C   0  0  0  0  0  0  0  0  0  0  0  0
   58.3130   28.5220   43.9910 O   0  0  0  0  0  0  0  0  0  0  0  0
   57.1560   28.4390   45.9980 N   0  0  0  0  0  0  0  0  0  0  0  0
   58.1840   28.1080   46.9410 C   0  0  0  0  0  0  0  0  0  0  0  0
   58.9470   29.1200   47.5470 C   0  0  0  0  0  0  0  0  0  0  0  0
   59.9900   28.7950   48.4170 C   0  0  0  0  0  0  0  0  0  0  0  0
   60.2900   27.4580   48.6780 C   0  0  0  0  0  0  0  0  0  0  0  0
   59.5530   26.4440   48.0640 C   0  0  0  0  0  0  0  0  0  0  0  0
   58.5000   26.7570   47.1900 C   0  0  0  0  0  0  0  0  0  0  0  0
   57.7330   25.6960   46.5980 N   0  0  0  0  0  0  0  0  0  0  0  0
   57.3420   25.7740   45.1850 C   0  0  0  0  0  0  0  0  0  0  0  0
   56.1580   24.8450   44.9120 C   0  0  0  0  0  0  0  0  0  0  0  0
   55.2670   24.8900   46.0070 O   0  0  0  0  0  0  0  0  0  0  0  0
   55.8160   24.1920   47.1130 C   0  0  0  0  0  0  0  0  0  0  0  0
   57.2900   24.5600   47.4150 C   0  0  0  0  0  0  0  0  0  0  0  0
   57.4710   34.8057   43.9391 H   0  0  0  0  0  0  0  0  0  0  0  0
   56.1262   35.0469   45.2670 H   0  0  0  0  0  0  0  0  0  0  0  0
   56.7907   34.3526   47.5631 H   0  0  0  0  0  0  0  0  0  0  0  0
   56.2715   32.7173   46.9559 H   0  0  0  0  0  0  0  0  0  0  0  0
   57.8507   32.9406   49.0831 H   0  0  0  0  0  0  0  0  0  0  0  0
   58.0932   31.6373   47.8640 H   0  0  0  0  0  0  0  0  0  0  0  0
   59.4815   34.3407   47.6879 H   0  0  0  0  0  0  0  0  0  0  0  0
   60.4356   31.9307   50.7914 H   0  0  0  0  0  0  0  0  0  0  0  0
   59.4607   31.2835   49.4285 H   0  0  0  0  0  0  0  0  0  0  0  0
   61.2462   31.0869   49.4285 H   0  0  0  0  0  0  0  0  0  0  0  0
   60.3903   33.8299   51.0058 H   0  0  0  0  0  0  0  0  0  0  0  0
   61.0210   35.0450   49.8429 H   0  0  0  0  0  0  0  0  0  0  0  0
   59.2748   34.6235   49.8429 H   0  0  0  0  0  0  0  0  0  0  0  0
   62.9952   34.4629   47.0156 H   0  0  0  0  0  0  0  0  0  0  0  0
   63.0109   32.6362   46.7514 H   0  0  0  0  0  0  0  0  0  0  0  0
   60.9508   34.6741   45.9816 H   0  0  0  0  0  0  0  0  0  0  0  0
   61.6794   33.2687   45.0625 H   0  0  0  0  0  0  0  0  0  0  0  0
   60.6312   30.9235   47.4376 H   0  0  0  0  0  0  0  0  0  0  0  0
   59.7850   30.6206   45.8823 H   0  0  0  0  0  0  0  0  0  0  0  0
   61.4973   31.1637   45.8823 H   0  0  0  0  0  0  0  0  0  0  0  0
   59.4748   33.5387   44.4827 H   0  0  0  0  0  0  0  0  0  0  0  0
   59.1243   30.8568   44.4340 H   0  0  0  0  0  0  0  0  0  0  0  0
   56.4874   32.3147   44.0484 H   0  0  0  0  0  0  0  0  0  0  0  0
   55.5394   30.0737   44.7025 H   0  0  0  0  0  0  0  0  0  0  0  0
   56.3229   29.8714   43.0755 H   0  0  0  0  0  0  0  0  0  0  0  0
   58.7214   30.1755   47.3348 H   0  0  0  0  0  0  0  0  0  0  0  0
   60.5751   29.5936   48.8965 H   0  0  0  0  0  0  0  0  0  0  0  0
   61.1077   27.2026   49.3680 H   0  0  0  0  0  0  0  0  0  0  0  0
   59.7993   25.3912   48.2666 H   0  0  0  0  0  0  0  0  0  0  0  0
   57.0553   26.8083   44.9440 H   0  0  0  0  0  0  0  0  0  0  0  0
   58.1925   25.4644   44.5598 H   0  0  0  0  0  0  0  0  0  0  0  0
   55.6367   25.1724   44.0004 H   0  0  0  0  0  0  0  0  0  0  0  0
   56.5213   23.8158   44.7747 H   0  0  0  0  0  0  0  0  0  0  0  0
   55.2117   24.4220   48.0029 H   0  0  0  0  0  0  0  0  0  0  0  0
   55.7987   23.1222   46.8575 H   0  0  0  0  0  0  0  0  0  0  0  0
   57.3826   24.8255   48.4785 H   0  0  0  0  0  0  0  0  0  0  0  0
   57.9213   23.6918   47.1748 H   0  0  0  0  0  0  0  0  0  0  0  0
  1  2  2  0
  2  3  1  0
  3  4  1  0
  4  5  1  0
  5  6  1  0
  6  7  1  0
  6  8  1  0
  6  9  1  0
  9 10  2  0
  9 11  1  0
 11 12  1  0
 12 13  1  0
 13 14  1  1
 13 15  1  0
 15 16  1  0
 16 17  2  3
 17 18  1  0
 18 19  1  0
 19 20  2  0
 19 21  1  0
 21 22  1  0
 22 23  2  0
 23 24  1  0
 24 25  2  0
 25 26  1  0
 26 27  2  0
 27 28  1  0
 28 29  1  0
 29 30  1  0
 30 31  1  0
 31 32  1  0
 32 33  1  0
 15  2  1  0
 27 22  1  0
 33 28  1  0
 13  5  1  0
  1 34  1  0
  1 35  1  0
  3 36  1  0
  3 37  1  0
  4 38  1  0
  4 39  1  0
  5 40  1  6
  7 41  1  0
  7 42  1  0
  7 43  1  0
  8 44  1  0
  8 45  1  0
  8 46  1  0
 11 47  1  0
 11 48  1  0
 12 49  1  0
 12 50  1  0
 14 51  1  0
 14 52  1  0
 14 53  1  0
 15 54  1  6
 16 55  1  0
 17 56  1  0
 18 57  1  0
 18 58  1  0
 23 59  1  0
 24 60  1  0
 25 61  1  0
 26 62  1  0
 29 63  1  0
 29 64  1  0
 30 65  1  0
 30 66  1  0
 32 67  1  0
 32 68  1  0
 33 69  1  0
 33 70  1  0
M  CHG  1  21  -1
M  END
>  <UniqueID>  (20) 
17

>  <SMILES>  (20) 
C=C1CC[C@H]2C(C)(C)C(=O)CC[C@]2(C)C1C=CCC(=O)[N-]c1ccccc1N1CCOCC1

>  <Energy>  (20) 
107.78562613709107

>  <Genealogy>  (20) 
C=C1CCC2C(C)(C)C(=O)CCC2(C)C1C=CCC(=O)[N-]c1ccccc1N1CCOCC1 (protonated)
C=C1CC[C@H]2C(C)(C)C(=O)CC[C@]2(C)C1C=CCC(=O)[N-]c1ccccc1N1CCOCC1 (chirality)
C=C1CC[C@H]2C(C)(C)C(=O)CC[C@]2(C)C1C=CCC(=O)[N-]c1ccccc1N1CCOCC1 (3D coordinates assigned)
C=C1CC[C@H]2C(C)(C)C(=O)CC[C@]2(C)C1C=CCC(=O)[N-]c1ccccc1N1CCOCC1 (nonaromatic ring conformer: 107.78562613709107 kcal/mol)

>  <smiles>  (20) 
C=C1CCC2C(C)(C)C(=O)CCC2(C)C1C=CCC(=O)Nc1ccccc1N1CCOCC1

>  <score_type>  (20) 
oracle

>  <origin>  (20) 
adg

>  <m_score__min__energy>  (20) 
-12.16

>  <m_primary>  (20) 
energy

$$$$
20:0
     RDKit          3D

 51 54  0  0  0  0  0  0  0  0999 V2000
   56.7580   31.3565   51.8003 H   0  0  0  0  0  0  0  0  0  0  0  0
   57.4840   31.1710   50.9950 C   0  0  0  0  0  0  0  0  0  0  0  0
   58.1030   29.9610   50.8990 N   0  0  0  0  0  0  0  0  0  0  0  0
   58.9780   29.7680   49.9140 N   0  0  0  0  0  0  0  0  0  0  0  0
   59.6930   28.6610   49.6620 C   0  0  0  0  0  0  0  0  0  0  0  0
   59.6545   27.7254   50.2393 H   0  0  0  0  0  0  0  0  0  0  0  0
   60.4900   28.8960   48.5490 C   0  0  0  0  0  0  0  0  0  0  0  0
   61.1938   28.1876   48.0877 H   0  0  0  0  0  0  0  0  0  0  0  0
   60.2300   30.1980   48.1270 C   0  0  0  0  0  0  0  0  0  0  0  0
   60.8700   30.8960   46.9700 C   0  0  0  0  0  0  0  0  0  0  0  0
   61.5693   31.6587   47.3431 H   0  0  0  0  0  0  0  0  0  0  0  0
   61.4178   30.1644   46.3578 H   0  0  0  0  0  0  0  0  0  0  0  0
   60.0938   31.3784   46.3578 H   0  0  0  0  0  0  0  0  0  0  0  0
   59.2830   30.7030   49.0060 C   0  0  0  0  0  0  0  0  0  0  0  0
   58.6570   31.9490   49.0730 C   0  0  0  0  0  0  0  0  0  0  0  0
   58.9520   32.8890   48.2220 N   0  0  0  0  0  0  0  0  0  0  0  0
   58.5270   32.9800   46.8510 C   0  0  0  0  0  0  0  0  0  0  0  0
   57.8650   31.9100   46.2190 C   0  0  0  0  0  0  0  0  0  0  0  0
   57.6555   30.9903   46.7849 H   0  0  0  0  0  0  0  0  0  0  0  0
   57.4690   32.0030   44.8750 C   0  0  0  0  0  0  0  0  0  0  0  0
   56.7590   30.8740   44.2290 C   0  0  0  0  0  0  0  0  0  0  0  0
   56.5180   30.9210   42.9940 O   0  0  0  0  0  0  0  0  0  0  0  0
   56.2880   29.7450   44.9770 N   0  0  0  0  0  0  0  0  0  0  0  0
   57.0690   28.6090   45.3760 C   0  0  0  0  0  0  0  0  0  0  0  0
   58.4650   28.6750   45.4750 C   0  0  0  0  0  0  0  0  0  0  0  0
   58.9853   29.6180   45.2512 H   0  0  0  0  0  0  0  0  0  0  0  0
   59.1990   27.5510   45.8560 C   0  0  0  0  0  0  0  0  0  0  0  0
   60.2935   27.6177   45.9437 H   0  0  0  0  0  0  0  0  0  0  0  0
   58.5490   26.3320   46.1290 C   0  0  0  0  0  0  0  0  0  0  0  0
   59.2650   25.1870   46.5170 O   0  0  0  0  0  0  0  0  0  0  0  0
   59.6290   24.1240   45.6430 C   0  0  0  0  0  0  0  0  0  0  0  0
   59.9290   23.2478   46.2365 H   0  0  0  0  0  0  0  0  0  0  0  0
   58.7699   23.8604   45.0086 H   0  0  0  0  0  0  0  0  0  0  0  0
   60.4693   24.4424   45.0086 H   0  0  0  0  0  0  0  0  0  0  0  0
   57.1450   26.2510   46.0060 C   0  0  0  0  0  0  0  0  0  0  0  0
   56.4380   24.9440   46.2880 C   0  0  0  0  0  0  0  0  0  0  0  0
   56.9010   23.9220   45.4790 F   0  0  0  0  0  0  0  0  0  0  0  0
   55.0810   25.0980   46.0660 F   0  0  0  0  0  0  0  0  0  0  0  0
   56.6420   24.5830   47.6080 F   0  0  0  0  0  0  0  0  0  0  0  0
   56.4190   27.3950   45.6210 C   0  0  0  0  0  0  0  0  0  0  0  0
   55.3262   27.3328   45.5116 H   0  0  0  0  0  0  0  0  0  0  0  0
   57.7840   33.1610   44.1490 C   0  0  0  0  0  0  0  0  0  0  0  0
   57.4861   33.2416   43.0932 H   0  0  0  0  0  0  0  0  0  0  0  0
   58.4730   34.2120   44.7570 C   0  0  0  0  0  0  0  0  0  0  0  0
   58.7198   35.1120   44.1748 H   0  0  0  0  0  0  0  0  0  0  0  0
   58.8530   34.1290   46.1050 C   0  0  0  0  0  0  0  0  0  0  0  0
   59.6050   35.2660   46.7440 C   0  0  0  0  0  0  0  0  0  0  0  0
   59.5453   35.1758   47.8387 H   0  0  0  0  0  0  0  0  0  0  0  0
   60.6587   35.2310   46.4301 H   0  0  0  0  0  0  0  0  0  0  0  0
   59.1604   36.2219   46.4301 H   0  0  0  0  0  0  0  0  0  0  0  0
   57.7670   32.1530   50.0890 N   0  0  0  0  0  0  0  0  0  0  0  0
  1  2  1  0
  2  3  2  0
  3  4  1  0
  4  5  1  0
  5  6  1  0
  5  7  2  0
  7  8  1  0
  7  9  1  0
  9 10  1  0
 10 11  1  0
 10 12  1  0
 10 13  1  0
  9 14  2  0
 14 15  1  0
 15 16  2  0
 16 17  1  0
 17 18  2  0
 18 19  1  0
 18 20  1  0
 20 21  1  0
 21 22  2  0
 21 23  1  0
 23 24  1  0
 24 25  2  0
 25 26  1  0
 25 27  1  0
 27 28  1  0
 27 29  2  0
 29 30  1  0
 30 31  1  0
 31 32  1  0
 31 33  1  0
 31 34  1  0
 29 35  1  0
 35 36  1  0
 36 37  1  0
 36 38  1  0
 36 39  1  0
 35 40  2  0
 40 41  1  0
 20 42  2  0
 42 43  1  0
 42 44  1  0
 44 45  1  0
 44 46  2  0
 46 47  1  0
 47 48  1  0
 47 49  1  0
 47 50  1  0
 15 51  1  0
 51  2  1  0
 14  4  1  0
 46 17  1  0
 40 24  1  0
M  CHG  2  23  -1  51  -1
M  END
>  <UniqueID>  (21) 
18

>  <SMILES>  (21) 
COc1ccc([N-]C(=O)c2ccc(C)c(/N=c3\[n-]cnn4ccc(C)c34)c2)cc1C(F)(F)F

>  <Energy>  (21) 
102.72801067101007

>  <Genealogy>  (21) 
COc1ccc([N-]C(=O)c2ccc(C)c(N=c3[n-]cnn4ccc(C)c34)c2)cc1C(F)(F)F (protonated)
COc1ccc([N-]C(=O)c2ccc(C)c(/N=c3\[n-]cnn4ccc(C)c34)c2)cc1C(F)(F)F (cis-trans isomerization)
COc1ccc([N-]C(=O)c2ccc(C)c(/N=c3\[n-]cnn4ccc(C)c34)c2)cc1C(F)(F)F (3D coordinates assigned)
COc1ccc([N-]C(=O)c2ccc(C)c(/N=c3\[n-]cnn4ccc(C)c34)c2)cc1C(F)(F)F (optimized conformer: 102.72801067101007 kcal/mol)

>  <smiles>  (21) 
COc1ccc(NC(=O)c2ccc(C)c(N=c3[nH]cnn4ccc(C)c34)c2)cc1C(F)(F)F

>  <score_type>  (21) 
oracle

>  <origin>  (21) 
adg

>  <m_score__min__energy>  (21) 
-11.609999999999999

>  <m_primary>  (21) 
energy

$$$$
21:0
     RDKit          3D

 47 51  0  0  0  0  0  0  0  0999 V2000
   57.3830   25.5090   43.0940 O   0  0  0  0  0  0  0  0  0  0  0  0
   57.1960   25.4330   44.3390 C   0  0  0  0  0  0  0  0  0  0  0  0
   56.0150   24.7120   44.8440 C   0  0  0  0  0  0  0  0  0  0  0  0
   55.3220   23.7270   44.1700 C   0  0  0  0  0  0  0  0  0  0  0  0
   54.3060   23.3400   45.0170 C   0  0  0  0  0  0  0  0  0  0  0  0
   54.4450   24.1070   46.1560 C   0  0  0  0  0  0  0  0  0  0  0  0
   55.4740   24.9100   46.0250 O   0  0  0  0  0  0  0  0  0  0  0  0
   58.1850   26.0420   45.2510 C   0  0  0  0  0  0  0  0  0  0  0  0
   59.1040   25.3460   46.0140 C   0  0  0  0  0  0  0  0  0  0  0  0
   59.2700   23.9640   46.0470 O   0  0  0  0  0  0  0  0  0  0  0  0
   59.8130   26.2720   46.7430 C   0  0  0  0  0  0  0  0  0  0  0  0
   60.8450   25.9770   47.6260 O   0  0  0  0  0  0  0  0  0  0  0  0
   59.3860   27.5200   46.4620 N   0  0  0  0  0  0  0  0  0  0  0  0
   59.9370   28.7370   46.9960 C   0  0  0  0  0  0  0  0  0  0  0  0
   59.6040   29.1520   48.2920 C   0  0  0  0  0  0  0  0  0  0  0  0
   60.1270   30.3400   48.8110 C   0  0  0  0  0  0  0  0  0  0  0  0
   60.9990   31.1340   48.0430 C   0  0  0  0  0  0  0  0  0  0  0  0
   61.5530   32.3980   48.5920 C   0  0  0  0  0  0  0  0  0  0  0  0
   62.7330   33.0030   48.1190 C   0  0  0  0  0  0  0  0  0  0  0  0
   63.0630   34.1780   48.7770 C   0  0  0  0  0  0  0  0  0  0  0  0
   61.8970   34.4680   49.9470 S   0  0  0  0  0  0  0  0  0  0  0  0
   60.9570   33.1120   49.6320 C   0  0  0  0  0  0  0  0  0  0  0  0
   61.3380   30.7060   46.7460 C   0  0  0  0  0  0  0  0  0  0  0  0
   60.8150   29.5190   46.2300 C   0  0  0  0  0  0  0  0  0  0  0  0
   58.3950   27.3930   45.5400 C   0  0  0  0  0  0  0  0  0  0  0  0
   57.6650   28.5340   44.9440 C   0  0  0  0  0  0  0  0  0  0  0  0
   58.3840   29.5550   44.2990 C   0  0  0  0  0  0  0  0  0  0  0  0
   57.7120   30.6490   43.7460 C   0  0  0  0  0  0  0  0  0  0  0  0
   56.3200   30.7320   43.8310 C   0  0  0  0  0  0  0  0  0  0  0  0
   55.5970   29.7170   44.4620 C   0  0  0  0  0  0  0  0  0  0  0  0
   56.2610   28.6160   45.0130 C   0  0  0  0  0  0  0  0  0  0  0  0
   55.5190   27.6040   45.6120 O   0  0  0  0  0  0  0  0  0  0  0  0
   55.5361   23.3328   43.1656 H   0  0  0  0  0  0  0  0  0  0  0  0
   53.5396   22.5748   44.8243 H   0  0  0  0  0  0  0  0  0  0  0  0
   53.7920   24.0531   47.0396 H   0  0  0  0  0  0  0  0  0  0  0  0
   60.1080   23.5300   45.6790 H   0  0  0  0  0  0  0  0  0  0  0  0
   58.9268   28.5392   48.9050 H   0  0  0  0  0  0  0  0  0  0  0  0
   59.8546   30.6570   49.8285 H   0  0  0  0  0  0  0  0  0  0  0  0
   63.3378   32.5821   47.3022 H   0  0  0  0  0  0  0  0  0  0  0  0
   63.9382   34.8106   48.5678 H   0  0  0  0  0  0  0  0  0  0  0  0
   60.0304   32.8345   50.1559 H   0  0  0  0  0  0  0  0  0  0  0  0
   62.0213   31.3123   46.1332 H   0  0  0  0  0  0  0  0  0  0  0  0
   61.0929   29.1946   45.2164 H   0  0  0  0  0  0  0  0  0  0  0  0
   59.4800   29.4930   44.2290 H   0  0  0  0  0  0  0  0  0  0  0  0
   58.2800   31.4456   43.2432 H   0  0  0  0  0  0  0  0  0  0  0  0
   55.7933   31.5967   43.4010 H   0  0  0  0  0  0  0  0  0  0  0  0
   54.5009   29.7838   44.5259 H   0  0  0  0  0  0  0  0  0  0  0  0
  1  2  2  0
  2  3  1  0
  3  4  2  0
  4  5  1  0
  5  6  2  0
  6  7  1  0
  2  8  1  0
  8  9  1  0
  9 10  1  0
  9 11  2  0
 11 12  1  0
 11 13  1  0
 13 14  1  0
 14 15  2  0
 15 16  1  0
 16 17  2  0
 17 18  1  0
 18 19  1  0
 19 20  2  0
 20 21  1  0
 21 22  1  0
 17 23  1  0
 23 24  2  0
 13 25  1  0
 25 26  1  0
 26 27  2  0
 27 28  1  0
 28 29  2  0
 29 30  1  0
 30 31  2  0
 31 32  1  0
  7  3  1  0
 25  8  2  0
 31 26  1  0
 24 14  1  0
 22 18  2  0
  4 33  1  0
  5 34  1  0
  6 35  1  0
 10 36  1  0
 15 37  1  0
 16 38  1  0
 19 39  1  0
 20 40  1  0
 22 41  1  0
 23 42  1  0
 24 43  1  0
 27 44  1  0
 28 45  1  0
 29 46  1  0
 30 47  1  0
M  CHG  2  12  -1  32  -1
M  END
>  <UniqueID>  (22) 
19

>  <SMILES>  (22) 
O=C(c1ccco1)c1c(O)c([O-])n(-c2ccc(-c3ccsc3)cc2)c1-c1ccccc1[O-]

>  <Energy>  (22) 
150.78506252939917

>  <Genealogy>  (22) 
O=C(c1ccco1)c1c(O)c([O-])n(-c2ccc(-c3ccsc3)cc2)c1-c1ccccc1[O-] (protonated)
O=C(c1ccco1)c1c(O)c([O-])n(-c2ccc(-c3ccsc3)cc2)c1-c1ccccc1[O-] (3D coordinates assigned)
O=C(c1ccco1)c1c(O)c([O-])n(-c2ccc(-c3ccsc3)cc2)c1-c1ccccc1[O-] (optimized conformer: 150.78506252939917 kcal/mol)

>  <smiles>  (22) 
O=C(c1ccco1)c1c(O)c(O)n(-c2ccc(-c3ccsc3)cc2)c1-c1ccccc1O

>  <score_type>  (22) 
oracle

>  <origin>  (22) 
adg

>  <m_score__min__energy>  (22) 
-12.220000000000001

>  <m_primary>  (22) 
energy

$$$$
22:0
     RDKit          3D

 50 52  0  0  0  0  0  0  0  0999 V2000
   56.6490   29.2040   43.1470 O   0  0  0  0  0  0  0  0  0  0  0  0
   56.2250   29.5930   44.2660 C   0  0  0  0  0  0  0  0  0  0  0  0
   56.1460   31.0010   44.5270 N   0  0  0  0  0  0  0  0  0  0  0  0
   57.1910   31.8180   45.0710 C   0  0  0  0  0  0  0  0  0  0  0  0
   58.2340   31.2060   45.7740 C   0  0  0  0  0  0  0  0  0  0  0  0
   59.2550   31.9760   46.3380 C   0  0  0  0  0  0  0  0  0  0  0  0
   59.2580   33.3750   46.1930 C   0  0  0  0  0  0  0  0  0  0  0  0
   60.3030   34.1730   46.7770 N   0  0  0  0  0  0  0  0  0  0  0  0
   61.4610   34.1490   46.3090 O   0  0  0  0  0  0  0  0  0  0  0  0
   60.0460   34.9730   47.8670 O   0  0  0  0  0  0  0  0  0  0  0  0
   58.2230   33.9830   45.4610 C   0  0  0  0  0  0  0  0  0  0  0  0
   57.2030   33.2120   44.8970 C   0  0  0  0  0  0  0  0  0  0  0  0
   55.8370   28.6140   45.2410 N   0  0  0  0  0  0  0  0  0  0  0  0
   56.6780   27.5880   45.7910 C   0  0  0  0  0  0  0  0  0  0  0  0
   56.1510   26.3030   45.9620 C   0  0  0  0  0  0  0  0  0  0  0  0
   56.9330   25.2900   46.5240 C   0  0  0  0  0  0  0  0  0  0  0  0
   58.2520   25.5500   46.9020 C   0  0  0  0  0  0  0  0  0  0  0  0
   58.8070   26.8210   46.6950 C   0  0  0  0  0  0  0  0  0  0  0  0
   60.1940   27.1150   47.1010 C   0  0  0  0  0  0  0  0  0  0  0  0
   61.1400   26.7050   46.3790 O   0  0  0  0  0  0  0  0  0  0  0  0
   60.5040   27.8240   48.3080 N   0  0  0  0  0  0  0  0  0  0  0  0
   59.9830   29.1340   48.6930 C   0  0  0  0  0  0  0  0  0  0  0  0
   61.0850   30.0610   49.2430 C   0  0  0  0  0  0  0  0  0  0  0  0
   61.2230   31.3540   48.5340 N   0  0  0  0  0  0  0  0  0  0  0  0
   61.1500   32.5660   49.3770 C   0  0  0  0  0  0  0  0  0  0  0  0
   62.4810   33.3280   49.4280 C   0  0  0  0  0  0  0  0  0  0  0  0
   63.5620   32.4400   49.2610 O   0  0  0  0  0  0  0  0  0  0  0  0
   63.5900   31.9750   47.9260 C   0  0  0  0  0  0  0  0  0  0  0  0
   62.2350   31.3910   47.4590 C   0  0  0  0  0  0  0  0  0  0  0  0
   58.0170   27.8380   46.1380 C   0  0  0  0  0  0  0  0  0  0  0  0
   58.2508   30.1116   45.8837 H   0  0  0  0  0  0  0  0  0  0  0  0
   60.0627   31.4840   46.8998 H   0  0  0  0  0  0  0  0  0  0  0  0
   58.2160   35.0753   45.3311 H   0  0  0  0  0  0  0  0  0  0  0  0
   56.4066   33.6984   44.3147 H   0  0  0  0  0  0  0  0  0  0  0  0
   55.1172   26.0893   45.6529 H   0  0  0  0  0  0  0  0  0  0  0  0
   56.5085   24.2856   46.6689 H   0  0  0  0  0  0  0  0  0  0  0  0
   58.8572   24.7557   47.3633 H   0  0  0  0  0  0  0  0  0  0  0  0
   59.5294   29.6081   47.8101 H   0  0  0  0  0  0  0  0  0  0  0  0
   59.2415   28.9810   49.4910 H   0  0  0  0  0  0  0  0  0  0  0  0
   60.8584   30.2724   50.2984 H   0  0  0  0  0  0  0  0  0  0  0  0
   62.0365   29.5277   49.1005 H   0  0  0  0  0  0  0  0  0  0  0  0
   60.3769   33.2335   48.9687 H   0  0  0  0  0  0  0  0  0  0  0  0
   60.9087   32.2463   50.4015 H   0  0  0  0  0  0  0  0  0  0  0  0
   62.5004   34.0779   48.6235 H   0  0  0  0  0  0  0  0  0  0  0  0
   62.5724   33.8214   50.4069 H   0  0  0  0  0  0  0  0  0  0  0  0
   63.8546   32.8157   47.2678 H   0  0  0  0  0  0  0  0  0  0  0  0
   64.3317   31.1642   47.8761 H   0  0  0  0  0  0  0  0  0  0  0  0
   61.8504   32.0117   46.6363 H   0  0  0  0  0  0  0  0  0  0  0  0
   62.4154   30.3538   47.1402 H   0  0  0  0  0  0  0  0  0  0  0  0
   58.4478   28.8364   45.9720 H   0  0  0  0  0  0  0  0  0  0  0  0
  1  2  2  0
  2  3  1  0
  3  4  1  0
  4  5  2  0
  5  6  1  0
  6  7  2  0
  7  8  1  0
  8  9  2  0
  8 10  1  0
  7 11  1  0
 11 12  2  0
  2 13  1  0
 13 14  1  0
 14 15  2  0
 15 16  1  0
 16 17  2  0
 17 18  1  0
 18 19  1  0
 19 20  2  0
 19 21  1  0
 21 22  1  0
 22 23  1  0
 23 24  1  0
 24 25  1  0
 25 26  1  0
 26 27  1  0
 27 28  1  0
 28 29  1  0
 18 30  2  0
 12  4  1  0
 30 14  1  0
 29 24  1  0
  5 31  1  0
  6 32  1  0
 11 33  1  0
 12 34  1  0
 15 35  1  0
 16 36  1  0
 17 37  1  0
 22 38  1  0
 22 39  1  0
 23 40  1  0
 23 41  1  0
 25 42  1  0
 25 43  1  0
 26 44  1  0
 26 45  1  0
 28 46  1  0
 28 47  1  0
 29 48  1  0
 29 49  1  0
 30 50  1  0
M  CHG  5   3  -1   8   1  10  -1  13  -1  21  -1
M  END
>  <UniqueID>  (23) 
20

>  <SMILES>  (23) 
O=C([N-]c1ccc([N+](=O)[O-])cc1)[N-]c1cccc(C(=O)[N-]CCN2CCOCC2)c1

>  <Energy>  (23) 
78.50923798873444

>  <Genealogy>  (23) 
O=C([N-]c1ccc([N+](=O)[O-])cc1)[N-]c1cccc(C(=O)[N-]CCN2CCOCC2)c1 (protonated)
O=C([N-]c1ccc([N+](=O)[O-])cc1)[N-]c1cccc(C(=O)[N-]CCN2CCOCC2)c1 (3D coordinates assigned)
O=C([N-]c1ccc([N+](=O)[O-])cc1)[N-]c1cccc(C(=O)[N-]CCN2CCOCC2)c1 (nonaromatic ring conformer: 78.50923798873444 kcal/mol)

>  <smiles>  (23) 
O=C(Nc1ccc([N+](=O)[O-])cc1)Nc1cccc(C(=O)NCCN2CCOCC2)c1

>  <score_type>  (23) 
oracle

>  <origin>  (23) 
adg

>  <m_score__min__energy>  (23) 
-13.25

>  <m_primary>  (23) 
energy

$$$$
23:0
     RDKit          3D

 35 38  0  0  0  0  0  0  0  0999 V2000
   55.5530   25.5890   46.0000 O   0  0  0  0  0  0  0  0  0  0  0  0
   56.3720   26.5260   46.1870 C   0  0  0  0  0  0  0  0  0  0  0  0
   56.2380   27.7430   45.6090 N   0  0  0  0  0  0  0  0  0  0  0  0
   57.2570   28.5570   45.9820 C   0  0  0  0  0  0  0  0  0  0  0  0
   57.4050   29.8770   45.5600 C   0  0  0  0  0  0  0  0  0  0  0  0
   58.5060   30.6170   46.0230 C   0  0  0  0  0  0  0  0  0  0  0  0
   59.4550   30.0380   46.9030 C   0  0  0  0  0  0  0  0  0  0  0  0
   60.5810   30.8040   47.3730 N   0  0  0  0  0  0  0  0  0  0  0  0
   61.1070   31.8990   46.7830 C   0  0  0  0  0  0  0  0  0  0  0  0
   62.1760   32.3380   47.5410 C   0  0  0  0  0  0  0  0  0  0  0  0
   63.0550   33.5100   47.2180 C   0  0  0  0  0  0  0  0  0  0  0  0
   64.1410   33.0990   46.4350 O   0  0  0  0  0  0  0  0  0  0  0  0
   62.2460   31.4570   48.6150 C   0  0  0  0  0  0  0  0  0  0  0  0
   63.2160   31.4590   49.7300 C   0  0  0  0  0  0  0  0  0  0  0  0
   64.4660   32.0860   49.6130 C   0  0  0  0  0  0  0  0  0  0  0  0
   65.3560   32.0840   50.6880 C   0  0  0  0  0  0  0  0  0  0  0  0
   64.9860   31.4600   51.8810 C   0  0  0  0  0  0  0  0  0  0  0  0
   63.7680   30.8670   51.9880 N   0  0  0  0  0  0  0  0  0  0  0  0
   62.8830   30.8570   50.9560 C   0  0  0  0  0  0  0  0  0  0  0  0
   61.2710   30.5360   48.4730 N   0  0  0  0  0  0  0  0  0  0  0  0
   59.2830   28.6980   47.3170 C   0  0  0  0  0  0  0  0  0  0  0  0
   58.1830   27.9910   46.8430 C   0  0  0  0  0  0  0  0  0  0  0  0
   57.7400   26.4050   47.1750 S   0  0  0  0  0  0  0  0  0  0  0  0
   56.6727   30.3315   44.8765 H   0  0  0  0  0  0  0  0  0  0  0  0
   58.6335   31.6602   45.6982 H   0  0  0  0  0  0  0  0  0  0  0  0
   60.7450   32.3639   45.8541 H   0  0  0  0  0  0  0  0  0  0  0  0
   62.4713   34.2603   46.6645 H   0  0  0  0  0  0  0  0  0  0  0  0
   63.4325   33.9445   48.1554 H   0  0  0  0  0  0  0  0  0  0  0  0
   64.5470   32.3210   46.8980 H   0  0  0  0  0  0  0  0  0  0  0  0
   64.7452   32.5806   48.6710 H   0  0  0  0  0  0  0  0  0  0  0  0
   66.3390   32.5691   50.5964 H   0  0  0  0  0  0  0  0  0  0  0  0
   65.6803   31.4484   52.7341 H   0  0  0  0  0  0  0  0  0  0  0  0
   61.9018   30.3756   51.0809 H   0  0  0  0  0  0  0  0  0  0  0  0
   61.0890   29.7340   49.1160 H   0  0  0  0  0  0  0  0  0  0  0  0
   60.0037   28.2241   47.9996 H   0  0  0  0  0  0  0  0  0  0  0  0
  1  2  2  0
  2  3  1  0
  3  4  1  0
  4  5  2  0
  5  6  1  0
  6  7  2  0
  7  8  1  0
  8  9  1  0
  9 10  2  0
 10 11  1  0
 11 12  1  0
 10 13  1  0
 13 14  1  0
 14 15  2  0
 15 16  1  0
 16 17  2  0
 17 18  1  0
 18 19  2  0
 13 20  2  0
  7 21  1  0
 21 22  2  0
 22 23  1  0
 23  2  1  0
 22  4  1  0
 20  8  1  0
 19 14  1  0
  5 24  1  0
  6 25  1  0
  9 26  1  0
 11 27  1  0
 11 28  1  0
 12 29  1  0
 15 30  1  0
 16 31  1  0
 17 32  1  0
 19 33  1  0
 20 34  1  0
 21 35  1  0
M  CHG  2   3  -1  20   1
M  END
>  <UniqueID>  (24) 
21

>  <SMILES>  (24) 
O=c1[n-]c2ccc(-n3cc(CO)c(-c4cccnc4)[nH+]3)cc2s1

>  <Energy>  (24) 
113.44320665631345

>  <Genealogy>  (24) 
O=c1[n-]c2ccc(-n3cc(CO)c(-c4cccnc4)[nH+]3)cc2s1 (protonated)
O=c1[n-]c2ccc(-n3cc(CO)c(-c4cccnc4)[nH+]3)cc2s1 (3D coordinates assigned)
O=c1[n-]c2ccc(-n3cc(CO)c(-c4cccnc4)[nH+]3)cc2s1 (optimized conformer: 113.44320665631345 kcal/mol)

>  <smiles>  (24) 
O=c1[nH]c2ccc(-n3cc(CO)c(-c4cccnc4)n3)cc2s1

>  <score_type>  (24) 
oracle

>  <origin>  (24) 
adg

>  <m_score__min__energy>  (24) 
-7.1900000000000004

>  <m_primary>  (24) 
energy

$$$$
24:0
     RDKit          3D

 34 36  0  0  0  0  0  0  0  0999 V2000
   58.6880   34.6050   45.0490 C   0  0  0  0  0  0  0  0  0  0  0  0
   58.4670   33.4220   45.8900 N   0  0  0  0  0  0  0  0  0  0  0  0
   58.4320   33.5860   47.3480 C   0  0  0  0  0  0  0  0  0  0  0  0
   58.2890   32.1130   45.2890 C   0  0  0  0  0  0  0  0  0  0  0  0
   57.2480   31.8790   44.3630 C   0  0  0  0  0  0  0  0  0  0  0  0
   57.0750   30.6190   43.7830 C   0  0  0  0  0  0  0  0  0  0  0  0
   57.9450   29.5790   44.1070 C   0  0  0  0  0  0  0  0  0  0  0  0
   58.9670   29.7750   45.0410 C   0  0  0  0  0  0  0  0  0  0  0  0
   59.1420   31.0380   45.6250 C   0  0  0  0  0  0  0  0  0  0  0  0
   59.7860   28.5790   45.4660 C   0  0  0  0  0  0  0  0  0  0  0  0
   58.8630   27.4260   45.8540 C   0  0  0  0  0  0  0  0  0  0  0  0
   59.1810   26.7590   47.0380 C   0  0  0  0  0  0  0  0  0  0  0  0
   58.4850   25.7540   47.6830 C   0  0  0  0  0  0  0  0  0  0  0  0
   57.2450   25.2300   47.3720 C   0  0  0  0  0  0  0  0  0  0  0  0
   56.4180   25.5140   46.2910 C   0  0  0  0  0  0  0  0  0  0  0  0
   55.3040   24.9200   46.2710 O   0  0  0  0  0  0  0  0  0  0  0  0
   56.7120   26.3330   45.2460 N   0  0  0  0  0  0  0  0  0  0  0  0
   57.7830   27.1310   44.9820 C   0  0  0  0  0  0  0  0  0  0  0  0
   57.7740   27.9580   43.3680 S   0  0  0  0  0  0  0  0  0  0  0  0
   58.8523   35.4844   45.6891 H   0  0  0  0  0  0  0  0  0  0  0  0
   59.5715   34.4435   44.4139 H   0  0  0  0  0  0  0  0  0  0  0  0
   57.8058   34.7734   44.4139 H   0  0  0  0  0  0  0  0  0  0  0  0
   58.6383   32.6194   47.8308 H   0  0  0  0  0  0  0  0  0  0  0  0
   59.1941   34.3182   47.6530 H   0  0  0  0  0  0  0  0  0  0  0  0
   57.4374   33.9433   47.6530 H   0  0  0  0  0  0  0  0  0  0  0  0
   56.5650   32.6986   44.0951 H   0  0  0  0  0  0  0  0  0  0  0  0
   56.2534   30.4483   43.0718 H   0  0  0  0  0  0  0  0  0  0  0  0
   59.9522   31.1934   46.3526 H   0  0  0  0  0  0  0  0  0  0  0  0
   60.4313   28.2645   44.6326 H   0  0  0  0  0  0  0  0  0  0  0  0
   60.4045   28.8542   46.3330 H   0  0  0  0  0  0  0  0  0  0  0  0
   60.1145   27.0771   47.5252 H   0  0  0  0  0  0  0  0  0  0  0  0
   58.9838   25.3136   48.5589 H   0  0  0  0  0  0  0  0  0  0  0  0
   56.8572   24.4824   48.0797 H   0  0  0  0  0  0  0  0  0  0  0  0
   55.9800   26.3410   44.4970 H   0  0  0  0  0  0  0  0  0  0  0  0
  1  2  1  0
  2  3  1  0
  2  4  1  0
  4  5  2  0
  5  6  1  0
  6  7  2  0
  7  8  1  0
  8  9  2  0
  8 10  1  0
 10 11  1  0
 11 12  2  0
 12 13  1  0
 13 14  2  0
 14 15  1  0
 15 16  2  0
 15 17  1  0
 17 18  2  0
 18 19  1  0
  9  4  1  0
 18 11  1  0
 19  7  1  0
  1 20  1  0
  1 21  1  0
  1 22  1  0
  3 23  1  0
  3 24  1  0
  3 25  1  0
  5 26  1  0
  6 27  1  0
  9 28  1  0
 10 29  1  0
 10 30  1  0
 12 31  1  0
 13 32  1  0
 14 33  1  0
 17 34  1  0
M  CHG  1  17   1
M  END
>  <UniqueID>  (25) 
22

>  <SMILES>  (25) 
CN(C)c1ccc2c(c1)Cc1cccc(=O)[nH+]c1S2

>  <Energy>  (25) 
70.45630774381804

>  <Genealogy>  (25) 
CN(C)c1ccc2c(c1)Cc1cccc(=O)[nH+]c1S2 (protonated)
CN(C)c1ccc2c(c1)Cc1cccc(=O)[nH+]c1S2 (3D coordinates assigned)
CN(C)c1ccc2c(c1)Cc1cccc(=O)[nH+]c1S2 (nonaromatic ring conformer: 70.45630774381804 kcal/mol)

>  <smiles>  (25) 
CN(C)c1ccc2c(c1)Cc1cccc(=O)nc1S2

>  <score_type>  (25) 
oracle

>  <origin>  (25) 
adg

>  <m_score__min__energy>  (25) 
-5.8499999999999996

>  <m_primary>  (25) 
energy

$$$$
25:0
     RDKit          3D

 38 41  0  0  0  0  0  0  0  0999 V2000
   63.7070   32.5870   47.4830 C   0  0  0  0  0  0  0  0  0  0  0  0
   62.8320   32.0380   48.9800 S   0  0  0  0  0  0  0  0  0  0  0  0
   61.5180   31.2430   48.0500 C   0  0  0  0  0  0  0  0  0  0  0  0
   61.3340   29.9090   48.0070 N   0  0  0  0  0  0  0  0  0  0  0  0
   60.2700   29.6730   47.2510 N   0  0  0  0  0  0  0  0  0  0  0  0
   59.7090   28.3670   47.0630 C   0  0  0  0  0  0  0  0  0  0  0  0
   60.3420   27.4370   46.2240 C   0  0  0  0  0  0  0  0  0  0  0  0
   59.7720   26.1780   46.0140 C   0  0  0  0  0  0  0  0  0  0  0  0
   58.5580   25.8480   46.6270 C   0  0  0  0  0  0  0  0  0  0  0  0
   57.8430   24.2680   46.3630 Cl  0  0  0  0  0  0  0  0  0  0  0  0
   57.9120   26.7820   47.4450 C   0  0  0  0  0  0  0  0  0  0  0  0
   58.4810   28.0410   47.6550 C   0  0  0  0  0  0  0  0  0  0  0  0
   59.8120   30.8740   46.8200 C   0  0  0  0  0  0  0  0  0  0  0  0
   58.7430   31.1550   45.9400 C   0  0  0  0  0  0  0  0  0  0  0  0
   57.9690   30.1300   45.2850 C   0  0  0  0  0  0  0  0  0  0  0  0
   57.3430   29.3130   44.7570 N   0  0  0  0  0  0  0  0  0  0  0  0
   58.5030   32.5150   45.6650 C   0  0  0  0  0  0  0  0  0  0  0  0
   59.2870   33.5130   46.2100 C   0  0  0  0  0  0  0  0  0  0  0  0
   60.3610   33.1930   47.0500 C   0  0  0  0  0  0  0  0  0  0  0  0
   61.0970   34.0930   47.5360 O   0  0  0  0  0  0  0  0  0  0  0  0
   60.5780   31.8740   47.3140 N   0  0  0  0  0  0  0  0  0  0  0  0
   58.8700   34.8640   45.7660 C   0  0  0  0  0  0  0  0  0  0  0  0
   57.6430   34.6010   44.8720 C   0  0  0  0  0  0  0  0  0  0  0  0
   57.4570   33.0750   44.7710 C   0  0  0  0  0  0  0  0  0  0  0  0
   64.6065   33.1513   47.7702 H   0  0  0  0  0  0  0  0  0  0  0  0
   63.9992   31.7101   46.8867 H   0  0  0  0  0  0  0  0  0  0  0  0
   63.0445   33.2316   46.8867 H   0  0  0  0  0  0  0  0  0  0  0  0
   61.8970   29.1820   48.5050 H   0  0  0  0  0  0  0  0  0  0  0  0
   61.2893   27.6995   45.7303 H   0  0  0  0  0  0  0  0  0  0  0  0
   60.2778   25.4465   45.3667 H   0  0  0  0  0  0  0  0  0  0  0  0
   56.9553   26.5248   47.9231 H   0  0  0  0  0  0  0  0  0  0  0  0
   57.9637   28.7782   48.2866 H   0  0  0  0  0  0  0  0  0  0  0  0
   58.5987   35.4921   46.6273 H   0  0  0  0  0  0  0  0  0  0  0  0
   59.6710   35.4018   45.2376 H   0  0  0  0  0  0  0  0  0  0  0  0
   56.7484   35.0589   45.3192 H   0  0  0  0  0  0  0  0  0  0  0  0
   57.7922   35.0383   43.8738 H   0  0  0  0  0  0  0  0  0  0  0  0
   56.4539   32.7816   45.1141 H   0  0  0  0  0  0  0  0  0  0  0  0
   57.5489   32.7090   43.7377 H   0  0  0  0  0  0  0  0  0  0  0  0
  1  2  1  0
  2  3  1  0
  3  4  2  0
  4  5  1  0
  5  6  1  0
  6  7  2  0
  7  8  1  0
  8  9  2  0
  9 10  1  0
  9 11  1  0
 11 12  2  0
  5 13  1  0
 13 14  2  0
 14 15  1  0
 15 16  3  0
 14 17  1  0
 17 18  2  0
 18 19  1  0
 19 20  2  0
 19 21  1  0
 18 22  1  0
 22 23  1  0
 23 24  1  0
 21  3  1  0
 12  6  1  0
 21 13  1  0
 24 17  1  0
  1 25  1  0
  1 26  1  0
  1 27  1  0
  4 28  1  0
  7 29  1  0
  8 30  1  0
 11 31  1  0
 12 32  1  0
 22 33  1  0
 22 34  1  0
 23 35  1  0
 23 36  1  0
 24 37  1  0
 24 38  1  0
M  CHG  1   4   1
M  END
>  <UniqueID>  (26) 
23

>  <SMILES>  (26) 
CSc1[nH+]n(-c2ccc(Cl)cc2)c2c(C#N)c3c(c(=O)n12)CCC3

>  <Energy>  (26) 
97.49180399386097

>  <Genealogy>  (26) 
CSc1[nH+]n(-c2ccc(Cl)cc2)c2c(C#N)c3c(c(=O)n12)CCC3 (protonated)
CSc1[nH+]n(-c2ccc(Cl)cc2)c2c(C#N)c3c(c(=O)n12)CCC3 (3D coordinates assigned)
CSc1[nH+]n(-c2ccc(Cl)cc2)c2c(C#N)c3c(c(=O)n12)CCC3 (nonaromatic ring conformer: 97.49180399386097 kcal/mol)

>  <smiles>  (26) 
CSc1nn(-c2ccc(Cl)cc2)c2c(C#N)c3c(c(=O)n12)CCC3

>  <score_type>  (26) 
oracle

>  <origin>  (26) 
adg

>  <m_score__min__energy>  (26) 
-6.0700000000000003

>  <m_primary>  (26) 
energy

$$$$
26:0
     RDKit          3D

 55 59  0  0  0  0  0  0  0  0999 V2000
   61.2120   32.0100   46.5180 O   0  0  0  0  0  0  0  0  0  0  0  0
   61.2750   31.3250   47.5790 C   0  0  0  0  0  0  0  0  0  0  0  0
   60.4630   30.1850   47.6960 C   0  0  0  0  0  0  0  0  0  0  0  0
   59.5130   29.8220   46.6130 C   0  0  0  0  0  0  0  0  0  0  0  0
   59.0650   28.5990   46.5410 N   0  0  0  0  0  0  0  0  0  0  0  0
   57.9560   28.0770   45.3270 S   0  0  0  0  0  0  0  0  0  0  0  0
   56.6620   27.6660   45.9700 O   0  0  0  0  0  0  0  0  0  0  0  0
   58.5520   26.9260   44.5670 O   0  0  0  0  0  0  0  0  0  0  0  0
   57.6800   29.4130   44.2460 C   0  0  0  0  0  0  0  0  0  0  0  0
   56.8600   29.2510   43.1210 C   0  0  0  0  0  0  0  0  0  0  0  0
   56.6360   30.3280   42.2600 C   0  0  0  0  0  0  0  0  0  0  0  0
   57.2290   31.5650   42.5210 C   0  0  0  0  0  0  0  0  0  0  0  0
   58.0460   31.7270   43.6440 C   0  0  0  0  0  0  0  0  0  0  0  0
   58.2800   30.6490   44.5170 C   0  0  0  0  0  0  0  0  0  0  0  0
   59.1230   30.8410   45.6680 N   0  0  0  0  0  0  0  0  0  0  0  0
   60.5500   29.3970   48.8470 C   0  0  0  0  0  0  0  0  0  0  0  0
   59.7200   28.2860   48.9900 O   0  0  0  0  0  0  0  0  0  0  0  0
   61.4640   29.7290   49.8550 C   0  0  0  0  0  0  0  0  0  0  0  0
   61.5800   28.9230   51.0040 C   0  0  0  0  0  0  0  0  0  0  0  0
   62.5030   29.2360   51.9970 C   0  0  0  0  0  0  0  0  0  0  0  0
   63.3260   30.3490   51.8570 C   0  0  0  0  0  0  0  0  0  0  0  0
   63.2220   31.1650   50.7290 C   0  0  0  0  0  0  0  0  0  0  0  0
   62.2790   30.8840   49.7080 C   0  0  0  0  0  0  0  0  0  0  0  0
   62.1410   31.6870   48.5870 N   0  0  0  0  0  0  0  0  0  0  0  0
   62.9340   32.9280   48.4190 C   0  0  0  0  0  0  0  0  0  0  0  0
   62.2300   34.1120   49.0900 C   0  0  0  0  0  0  0  0  0  0  0  0
   60.7730   34.1680   48.6990 C   0  0  0  0  0  0  0  0  0  0  0  0
   60.4080   34.5880   47.4740 C   0  0  0  0  0  0  0  0  0  0  0  0
   58.9550   34.5730   47.0900 C   0  0  0  0  0  0  0  0  0  0  0  0
   58.3000   33.2420   47.5030 C   0  0  0  0  0  0  0  0  0  0  0  0
   58.7220   32.7430   48.9140 C   0  0  0  0  0  0  0  0  0  0  0  0
   59.6930   33.6890   49.6430 C   0  0  0  0  0  0  0  0  0  0  0  0
   59.3870   27.8790   47.2260 H   0  0  0  0  0  0  0  0  0  0  0  0
   56.3931   28.2763   42.9161 H   0  0  0  0  0  0  0  0  0  0  0  0
   55.9927   30.2017   41.3767 H   0  0  0  0  0  0  0  0  0  0  0  0
   57.0532   32.4128   41.8425 H   0  0  0  0  0  0  0  0  0  0  0  0
   58.5090   32.7041   43.8463 H   0  0  0  0  0  0  0  0  0  0  0  0
   59.4880   31.8060   45.8370 H   0  0  0  0  0  0  0  0  0  0  0  0
   60.9356   28.0387   51.1174 H   0  0  0  0  0  0  0  0  0  0  0  0
   62.5821   28.6031   52.8932 H   0  0  0  0  0  0  0  0  0  0  0  0
   64.0622   30.5872   52.6389 H   0  0  0  0  0  0  0  0  0  0  0  0
   63.8819   32.0396   50.6307 H   0  0  0  0  0  0  0  0  0  0  0  0
   63.9243   32.7892   48.8772 H   0  0  0  0  0  0  0  0  0  0  0  0
   63.0385   33.1397   47.3446 H   0  0  0  0  0  0  0  0  0  0  0  0
   62.3054   34.0033   50.1820 H   0  0  0  0  0  0  0  0  0  0  0  0
   62.7170   35.0416   48.7604 H   0  0  0  0  0  0  0  0  0  0  0  0
   61.1668   34.9395   46.7594 H   0  0  0  0  0  0  0  0  0  0  0  0
   58.4387   35.4024   47.5955 H   0  0  0  0  0  0  0  0  0  0  0  0
   58.8750   34.6844   45.9986 H   0  0  0  0  0  0  0  0  0  0  0  0
   57.2082   33.3762   47.4953 H   0  0  0  0  0  0  0  0  0  0  0  0
   58.6373   32.4829   46.7819 H   0  0  0  0  0  0  0  0  0  0  0  0
   57.8163   32.6347   49.5288 H   0  0  0  0  0  0  0  0  0  0  0  0
   59.2508   31.7890   48.7714 H   0  0  0  0  0  0  0  0  0  0  0  0
   59.1350   34.5566   50.0251 H   0  0  0  0  0  0  0  0  0  0  0  0
   60.1631   33.1447   50.4753 H   0  0  0  0  0  0  0  0  0  0  0  0
  1  2  2  0
  2  3  1  0
  3  4  1  0
  4  5  2  0
  5  6  1  0
  6  7  2  0
  6  8  2  0
  6  9  1  0
  9 10  2  0
 10 11  1  0
 11 12  2  0
 12 13  1  0
 13 14  2  0
 14 15  1  0
  3 16  2  0
 16 17  1  0
 16 18  1  0
 18 19  2  0
 19 20  1  0
 20 21  2  0
 21 22  1  0
 22 23  2  0
 23 24  1  0
 24 25  1  0
 25 26  1  0
 26 27  1  0
 27 28  2  0
 28 29  1  0
 29 30  1  0
 30 31  1  0
 31 32  1  0
 24  2  1  0
 32 27  1  0
 15  4  1  0
 23 18  1  0
 14  9  1  0
  5 33  1  0
 10 34  1  0
 11 35  1  0
 12 36  1  0
 13 37  1  0
 15 38  1  0
 19 39  1  0
 20 40  1  0
 21 41  1  0
 22 42  1  0
 25 43  1  0
 25 44  1  0
 26 45  1  0
 26 46  1  0
 28 47  1  0
 29 48  1  0
 29 49  1  0
 30 50  1  0
 30 51  1  0
 31 52  1  0
 31 53  1  0
 32 54  1  0
 32 55  1  0
M  CHG  2   5   1  17  -1
M  END
>  <UniqueID>  (27) 
24

>  <SMILES>  (27) 
O=c1c(C2=[NH+]S(=O)(=O)c3ccccc3N2)c([O-])c2ccccc2n1CCC1=CCCCC1

>  <Energy>  (27) 
81.65259938789053

>  <Genealogy>  (27) 
O=c1c(C2=[NH+]S(=O)(=O)c3ccccc3N2)c([O-])c2ccccc2n1CCC1=CCCCC1 (protonated)
O=c1c(C2=[NH+]S(=O)(=O)c3ccccc3N2)c([O-])c2ccccc2n1CCC1=CCCCC1 (3D coordinates assigned)
O=c1c(C2=[NH+]S(=O)(=O)c3ccccc3N2)c([O-])c2ccccc2n1CCC1=CCCCC1 (nonaromatic ring conformer: 81.65259938789053 kcal/mol)

>  <smiles>  (27) 
O=c1c(C2=NS(=O)(=O)c3ccccc3N2)c(O)c2ccccc2n1CCC1=CCCCC1

>  <score_type>  (27) 
oracle

>  <origin>  (27) 
adg

>  <m_score__min__energy>  (27) 
-10.02

>  <m_primary>  (27) 
energy

$$$$
27:0
     RDKit          3D

 67 72  0  0  0  0  0  0  0  0999 V2000
   62.5065   28.0483   50.2530 H   0  0  0  0  0  0  0  0  0  0  0  0
   61.6850   28.7250   50.5310 C   0  0  0  0  0  0  0  0  0  0  0  0
   61.9540   29.8640   51.2980 C   0  0  0  0  0  0  0  0  0  0  0  0
   62.9846   30.0750   51.6193 H   0  0  0  0  0  0  0  0  0  0  0  0
   60.9220   30.7360   51.6590 C   0  0  0  0  0  0  0  0  0  0  0  0
   61.2340   31.8730   52.4170 O   0  0  0  0  0  0  0  0  0  0  0  0
   62.1110   32.8930   52.0190 C   0  0  0  0  0  0  0  0  0  0  0  0
   61.9550   33.4750   50.7500 C   0  0  0  0  0  0  0  0  0  0  0  0
   60.9580   32.9970   49.8290 N   0  0  0  0  0  0  0  0  0  0  0  0
   59.5730   33.3160   50.0460 C   0  0  0  0  0  0  0  0  0  0  0  0
   59.1720   33.6830   51.1830 O   0  0  0  0  0  0  0  0  0  0  0  0
   58.6520   33.1870   49.0060 O   0  0  0  0  0  0  0  0  0  0  0  0
   59.0390   32.9180   47.6590 C   0  0  2  0  0  0  0  0  0  0  0  0
   60.2350   31.9280   47.6770 C   0  0  0  0  0  0  0  0  0  0  0  0
   59.8847   30.9608   48.0667 H   0  0  0  0  0  0  0  0  0  0  0  0
   60.6087   31.8416   46.6460 H   0  0  0  0  0  0  0  0  0  0  0  0
   61.4030   32.4180   48.5540 C   0  0  0  0  0  0  0  0  0  0  0  0
   62.0633   31.5646   48.7677 H   0  0  0  0  0  0  0  0  0  0  0  0
   61.9244   33.2100   47.9964 H   0  0  0  0  0  0  0  0  0  0  0  0
   59.4050   34.2730   46.9590 C   0  0  0  0  0  0  0  0  0  0  0  0
   60.4993   34.3244   46.8598 H   0  0  0  0  0  0  0  0  0  0  0  0
   58.9937   35.0740   47.5909 H   0  0  0  0  0  0  0  0  0  0  0  0
   58.7860   34.4540   45.5620 C   0  0  0  0  0  0  0  0  0  0  0  0
   59.3450   35.2302   45.0188 H   0  0  0  0  0  0  0  0  0  0  0  0
   57.7330   34.7490   45.6811 H   0  0  0  0  0  0  0  0  0  0  0  0
   58.8390   33.1510   44.7660 C   0  0  0  0  0  0  0  0  0  0  0  0
   59.8886   32.8356   44.6723 H   0  0  0  0  0  0  0  0  0  0  0  0
   58.3878   33.3388   43.7805 H   0  0  0  0  0  0  0  0  0  0  0  0
   58.0370   32.0170   45.4470 C   0  0  2  0  0  0  0  0  0  0  0  0
   58.6233   31.0916   45.3481 H   0  0  0  0  0  0  0  0  0  0  0  0
   56.7690   31.8910   44.8000 O   0  0  0  0  0  0  0  0  0  0  0  0
   56.3260   30.7130   44.1880 C   0  0  0  0  0  0  0  0  0  0  0  0
   55.7160   29.8290   44.8500 O   0  0  0  0  0  0  0  0  0  0  0  0
   56.6440   30.4730   42.7520 C   0  0  0  0  0  0  0  0  0  0  0  0
   57.5199   29.8119   42.6759 H   0  0  0  0  0  0  0  0  0  0  0  0
   55.7824   29.9981   42.2600 H   0  0  0  0  0  0  0  0  0  0  0  0
   56.8645   31.4318   42.2600 H   0  0  0  0  0  0  0  0  0  0  0  0
   57.8240   32.2560   46.9620 C   0  0  0  0  0  0  0  0  0  0  0  0
   57.6317   31.2861   47.4440 H   0  0  0  0  0  0  0  0  0  0  0  0
   56.9750   32.9479   47.0646 H   0  0  0  0  0  0  0  0  0  0  0  0
   62.8080   34.5210   50.3760 C   0  0  0  0  0  0  0  0  0  0  0  0
   62.6856   35.0047   49.3956 H   0  0  0  0  0  0  0  0  0  0  0  0
   63.8120   34.9510   51.2430 C   0  0  0  0  0  0  0  0  0  0  0  0
   64.4751   35.7810   50.9578 H   0  0  0  0  0  0  0  0  0  0  0  0
   63.9660   34.3180   52.4740 C   0  0  0  0  0  0  0  0  0  0  0  0
   64.7695   34.6333   53.1559 H   0  0  0  0  0  0  0  0  0  0  0  0
   63.1250   33.3100   52.8360 N   0  0  0  0  0  0  0  0  0  0  0  0
   63.2860   32.8380   53.7540 H   0  0  0  0  0  0  0  0  0  0  0  0
   59.6150   30.4790   51.2050 C   0  0  0  0  0  0  0  0  0  0  0  0
   58.8016   31.1758   51.4557 H   0  0  0  0  0  0  0  0  0  0  0  0
   59.3450   29.3410   50.4360 C   0  0  0  0  0  0  0  0  0  0  0  0
   58.3213   29.1501   50.0814 H   0  0  0  0  0  0  0  0  0  0  0  0
   60.3780   28.4390   50.1140 C   0  0  0  0  0  0  0  0  0  0  0  0
   60.1590   27.2910   49.2780 N   0  0  0  0  0  0  0  0  0  0  0  0
   59.7130   27.2960   48.0580 C   0  0  0  0  0  0  0  0  0  0  0  0
   58.9520   26.2850   47.5660 N   0  0  0  0  0  0  0  0  0  0  0  0
   58.7140   26.7080   46.3130 C   0  0  0  0  0  0  0  0  0  0  0  0
   57.9730   26.0690   45.3190 C   0  0  0  0  0  0  0  0  0  0  0  0
   57.4933   25.0962   45.5024 H   0  0  0  0  0  0  0  0  0  0  0  0
   57.8610   26.7140   44.0720 C   0  0  0  0  0  0  0  0  0  0  0  0
   57.2867   26.2412   43.2617 H   0  0  0  0  0  0  0  0  0  0  0  0
   58.4830   27.9670   43.8550 C   0  0  0  0  0  0  0  0  0  0  0  0
   58.3909   28.4605   42.8762 H   0  0  0  0  0  0  0  0  0  0  0  0
   59.2190   28.5860   44.8840 C   0  0  0  0  0  0  0  0  0  0  0  0
   59.7039   29.5616   44.7323 H   0  0  0  0  0  0  0  0  0  0  0  0
   59.3090   27.9150   46.1010 C   0  0  0  0  0  0  0  0  0  0  0  0
   59.9280   28.2760   47.1920 O   0  0  0  0  0  0  0  0  0  0  0  0
  1  2  1  0
  2  3  2  0
  3  4  1  0
  3  5  1  0
  5  6  1  0
  6  7  1  0
  7  8  1  0
  8  9  1  0
  9 10  1  0
 10 11  2  0
 10 12  1  0
 13 12  1  1
 13 14  1  0
 14 15  1  0
 14 16  1  0
 14 17  1  0
 17 18  1  0
 17 19  1  0
 13 20  1  0
 20 21  1  0
 20 22  1  0
 20 23  1  0
 23 24  1  0
 23 25  1  0
 23 26  1  0
 26 27  1  0
 26 28  1  0
 26 29  1  0
 29 30  1  1
 29 31  1  0
 31 32  1  0
 32 33  2  0
 32 34  1  0
 34 35  1  0
 34 36  1  0
 34 37  1  0
 29 38  1  0
 38 39  1  0
 38 40  1  0
  8 41  2  0
 41 42  1  0
 41 43  1  0
 43 44  1  0
 43 45  2  0
 45 46  1  0
 45 47  1  0
 47 48  1  0
  5 49  2  0
 49 50  1  0
 49 51  1  0
 51 52  1  0
 51 53  2  0
 53 54  1  0
 54 55  2  0
 55 56  1  0
 56 57  1  0
 57 58  2  0
 58 59  1  0
 58 60  1  0
 60 61  1  0
 60 62  2  0
 62 63  1  0
 62 64  1  0
 64 65  1  0
 64 66  2  0
 66 67  1  0
 53  2  1  0
 67 55  1  0
 47  7  2  0
 66 57  1  0
 17  9  1  0
 38 13  1  0
M  CHG  2  47   1  56  -1
M  END
>  <UniqueID>  (28) 
25

>  <SMILES>  (28) 
CC(=O)O[C@H]1CCC[C@]2(CCN(c3ccc[nH+]c3Oc3ccc(/N=c4/[n-]c5ccccc5o4)cc3)C(=O)O2)C1

>  <Energy>  (28) 
131.51300443751708

>  <Genealogy>  (28) 
CC(=O)OC1CCCC2(CCN(c3ccc[nH+]c3Oc3ccc(N=c4[n-]c5ccccc5o4)cc3)C(=O)O2)C1 (protonated)
CC(=O)O[C@H]1CCC[C@]2(CCN(c3ccc[nH+]c3Oc3ccc(N=c4[n-]c5ccccc5o4)cc3)C(=O)O2)C1 (chirality)
CC(=O)O[C@H]1CCC[C@]2(CCN(c3ccc[nH+]c3Oc3ccc(/N=c4/[n-]c5ccccc5o4)cc3)C(=O)O2)C1 (cis-trans isomerization)
CC(=O)O[C@H]1CCC[C@]2(CCN(c3ccc[nH+]c3Oc3ccc(/N=c4/[n-]c5ccccc5o4)cc3)C(=O)O2)C1 (3D coordinates assigned)
CC(=O)O[C@H]1CCC[C@]2(CCN(c3ccc[nH+]c3Oc3ccc(/N=c4/[n-]c5ccccc5o4)cc3)C(=O)O2)C1 (nonaromatic ring conformer: 131.51300443751708 kcal/mol)

>  <smiles>  (28) 
CC(=O)OC1CCCC2(CCN(c3cccnc3Oc3ccc(N=c4[nH]c5ccccc5o4)cc3)C(=O)O2)C1

>  <score_type>  (28) 
oracle

>  <origin>  (28) 
adg

>  <m_score__min__energy>  (28) 
-9.3800000000000008

>  <m_primary>  (28) 
energy

$$$$
28:0
     RDKit          3D

 43 45  0  0  0  0  0  0  0  0999 V2000
   63.3850   33.9210   46.7330 C   0  0  0  0  0  0  0  0  0  0  0  0
   62.2900   33.2020   47.4620 C   0  0  0  0  0  0  0  0  0  0  0  0
   61.5470   33.8480   48.4630 C   0  0  0  0  0  0  0  0  0  0  0  0
   60.5270   33.1670   49.1330 C   0  0  0  0  0  0  0  0  0  0  0  0
   60.2360   31.8410   48.8040 C   0  0  0  0  0  0  0  0  0  0  0  0
   60.9570   31.1890   47.7920 C   0  0  0  0  0  0  0  0  0  0  0  0
   60.6800   29.7440   47.4760 C   0  0  0  0  0  0  0  0  0  0  0  0
   59.1270   29.1680   48.2540 S   0  0  0  0  0  0  0  0  0  0  0  0
   58.7330   27.9480   46.9870 C   0  0  0  0  0  0  0  0  0  0  0  0
   59.4150   26.7230   46.9940 C   0  0  0  0  0  0  0  0  0  0  0  0
   59.1670   25.7750   46.0010 C   0  0  0  0  0  0  0  0  0  0  0  0
   58.2270   26.0380   45.0050 C   0  0  0  0  0  0  0  0  0  0  0  0
   57.5310   27.2500   44.9970 C   0  0  0  0  0  0  0  0  0  0  0  0
   57.7800   28.2190   45.9870 C   0  0  0  0  0  0  0  0  0  0  0  0
   57.1010   29.4840   45.9900 N   0  0  0  0  0  0  0  0  0  0  0  0
   57.0520   30.5930   44.6580 S   0  0  0  0  0  0  0  0  0  0  0  0
   57.7700   29.9850   43.4850 O   0  0  0  0  0  0  0  0  0  0  0  0
   55.6200   30.8460   44.2800 O   0  0  0  0  0  0  0  0  0  0  0  0
   57.7940   32.1220   45.1240 C   0  0  0  0  0  0  0  0  0  0  0  0
   57.7370   32.5660   46.4530 C   0  0  0  0  0  0  0  0  0  0  0  0
   58.3130   33.7920   46.8070 C   0  0  0  0  0  0  0  0  0  0  0  0
   58.9440   34.5760   45.8360 C   0  0  0  0  0  0  0  0  0  0  0  0
   58.9980   34.1370   44.5100 C   0  0  0  0  0  0  0  0  0  0  0  0
   58.4290   32.9100   44.1550 C   0  0  0  0  0  0  0  0  0  0  0  0
   61.9790   31.8790   47.1170 C   0  0  0  0  0  0  0  0  0  0  0  0
   64.0744   34.3737   47.4609 H   0  0  0  0  0  0  0  0  0  0  0  0
   63.9350   33.2077   46.1016 H   0  0  0  0  0  0  0  0  0  0  0  0
   62.9491   34.7092   46.1016 H   0  0  0  0  0  0  0  0  0  0  0  0
   61.7686   34.8941   48.7209 H   0  0  0  0  0  0  0  0  0  0  0  0
   59.9523   33.6761   49.9208 H   0  0  0  0  0  0  0  0  0  0  0  0
   59.4385   31.3058   49.3403 H   0  0  0  0  0  0  0  0  0  0  0  0
   60.5974   29.6269   46.3854 H   0  0  0  0  0  0  0  0  0  0  0  0
   61.5084   29.1403   47.8751 H   0  0  0  0  0  0  0  0  0  0  0  0
   60.1483   26.5086   47.7854 H   0  0  0  0  0  0  0  0  0  0  0  0
   59.7129   24.8200   46.0037 H   0  0  0  0  0  0  0  0  0  0  0  0
   58.0327   25.2891   44.2231 H   0  0  0  0  0  0  0  0  0  0  0  0
   56.7850   27.4476   44.2132 H   0  0  0  0  0  0  0  0  0  0  0  0
   57.2397   31.9509   47.2174 H   0  0  0  0  0  0  0  0  0  0  0  0
   58.2692   34.1389   47.8499 H   0  0  0  0  0  0  0  0  0  0  0  0
   59.3979   35.5382   46.1157 H   0  0  0  0  0  0  0  0  0  0  0  0
   59.4884   34.7572   43.7453 H   0  0  0  0  0  0  0  0  0  0  0  0
   58.4800   32.5626   43.1125 H   0  0  0  0  0  0  0  0  0  0  0  0
   62.5382   31.3779   46.3132 H   0  0  0  0  0  0  0  0  0  0  0  0
  1  2  1  0
  2  3  2  0
  3  4  1  0
  4  5  2  0
  5  6  1  0
  6  7  1  0
  7  8  1  0
  8  9  1  0
  9 10  2  0
 10 11  1  0
 11 12  2  0
 12 13  1  0
 13 14  2  0
 14 15  1  0
 15 16  1  0
 16 17  2  0
 16 18  2  0
 16 19  1  0
 19 20  2  0
 20 21  1  0
 21 22  2  0
 22 23  1  0
 23 24  2  0
  6 25  2  0
 25  2  1  0
 14  9  1  0
 24 19  1  0
  1 26  1  0
  1 27  1  0
  1 28  1  0
  3 29  1  0
  4 30  1  0
  5 31  1  0
  7 32  1  0
  7 33  1  0
 10 34  1  0
 11 35  1  0
 12 36  1  0
 13 37  1  0
 20 38  1  0
 21 39  1  0
 22 40  1  0
 23 41  1  0
 24 42  1  0
 25 43  1  0
M  CHG  1  15  -1
M  END
>  <UniqueID>  (29) 
26

>  <SMILES>  (29) 
Cc1cccc(CSc2ccccc2[N-]S(=O)(=O)c2ccccc2)c1

>  <Energy>  (29) 
41.08960084801138

>  <Genealogy>  (29) 
Cc1cccc(CSc2ccccc2[N-]S(=O)(=O)c2ccccc2)c1 (protonated)
Cc1cccc(CSc2ccccc2[N-]S(=O)(=O)c2ccccc2)c1 (3D coordinates assigned)
Cc1cccc(CSc2ccccc2[N-]S(=O)(=O)c2ccccc2)c1 (optimized conformer: 41.08960084801138 kcal/mol)

>  <smiles>  (29) 
Cc1cccc(CSc2ccccc2NS(=O)(=O)c2ccccc2)c1

>  <score_type>  (29) 
oracle

>  <origin>  (29) 
adg

>  <m_score__min__energy>  (29) 
-10.699999999999999

>  <m_primary>  (29) 
energy

$$$$
29:0
     RDKit          3D

 32 33  0  0  0  0  0  0  0  0999 V2000
   60.8190   28.9820   45.1730 C   0  0  0  0  0  0  0  0  0  0  0  0
   59.9380   28.8350   46.2820 O   0  0  0  0  0  0  0  0  0  0  0  0
   58.9370   27.8560   46.3790 C   0  0  0  0  0  0  0  0  0  0  0  0
   59.0410   26.7660   47.2630 C   0  0  0  0  0  0  0  0  0  0  0  0
   58.0250   25.8090   47.3280 C   0  0  0  0  0  0  0  0  0  0  0  0
   56.8870   25.9290   46.5260 C   0  0  0  0  0  0  0  0  0  0  0  0
   55.8870   24.9020   46.5860 N   0  0  0  0  0  0  0  0  0  0  0  0
   54.6710   24.8500   45.8270 C   0  0  0  0  0  0  0  0  0  0  0  0
   54.1630   23.5740   45.2280 C   0  0  0  0  0  0  0  0  0  0  0  0
   54.0320   25.9150   45.6260 O   0  0  0  0  0  0  0  0  0  0  0  0
   56.7920   26.9970   45.6220 C   0  0  0  0  0  0  0  0  0  0  0  0
   57.7990   27.9770   45.5650 C   0  0  0  0  0  0  0  0  0  0  0  0
   57.7210   29.0650   44.6320 N   0  0  0  0  0  0  0  0  0  0  0  0
   56.8680   30.2120   44.7470 C   0  0  0  0  0  0  0  0  0  0  0  0
   55.6380   30.0790   44.5200 O   0  0  0  0  0  0  0  0  0  0  0  0
   57.3950   31.5500   45.0660 C   0  0  0  0  0  0  0  0  0  0  0  0
   58.7230   31.8920   45.2500 C   0  0  0  0  0  0  0  0  0  0  0  0
   58.7250   33.2460   45.5040 C   0  0  0  0  0  0  0  0  0  0  0  0
   57.4060   33.6480   45.4570 C   0  0  0  0  0  0  0  0  0  0  0  0
   56.6390   32.6170   45.1890 O   0  0  0  0  0  0  0  0  0  0  0  0
   61.8425   29.1528   45.5380 H   0  0  0  0  0  0  0  0  0  0  0  0
   60.7953   28.0675   44.5622 H   0  0  0  0  0  0  0  0  0  0  0  0
   60.4997   29.8393   44.5622 H   0  0  0  0  0  0  0  0  0  0  0  0
   59.9275   26.6668   47.9067 H   0  0  0  0  0  0  0  0  0  0  0  0
   58.1216   24.9554   48.0151 H   0  0  0  0  0  0  0  0  0  0  0  0
   53.8853   22.8766   46.0320 H   0  0  0  0  0  0  0  0  0  0  0  0
   53.2809   23.7866   44.6061 H   0  0  0  0  0  0  0  0  0  0  0  0
   54.9498   23.1221   44.6061 H   0  0  0  0  0  0  0  0  0  0  0  0
   55.9226   27.0687   44.9520 H   0  0  0  0  0  0  0  0  0  0  0  0
   59.5948   31.2228   45.2032 H   0  0  0  0  0  0  0  0  0  0  0  0
   59.6019   33.8793   45.7041 H   0  0  0  0  0  0  0  0  0  0  0  0
   57.0510   34.6764   45.6195 H   0  0  0  0  0  0  0  0  0  0  0  0
  1  2  1  0
  2  3  1  0
  3  4  2  0
  4  5  1  0
  5  6  2  0
  6  7  1  0
  7  8  1  0
  8  9  1  0
  8 10  2  0
  6 11  1  0
 11 12  2  0
 12 13  1  0
 13 14  1  0
 14 15  2  0
 14 16  1  0
 16 17  2  0
 17 18  1  0
 18 19  2  0
 19 20  1  0
 12  3  1  0
 20 16  1  0
  1 21  1  0
  1 22  1  0
  1 23  1  0
  4 24  1  0
  5 25  1  0
  9 26  1  0
  9 27  1  0
  9 28  1  0
 11 29  1  0
 17 30  1  0
 18 31  1  0
 19 32  1  0
M  CHG  2   7  -1  13  -1
M  END
>  <UniqueID>  (30) 
27

>  <SMILES>  (30) 
COc1ccc([N-]C(C)=O)cc1[N-]C(=O)c1ccco1

>  <Energy>  (30) 
64.35921654231636

>  <Genealogy>  (30) 
COc1ccc([N-]C(C)=O)cc1[N-]C(=O)c1ccco1 (protonated)
COc1ccc([N-]C(C)=O)cc1[N-]C(=O)c1ccco1 (3D coordinates assigned)
COc1ccc([N-]C(C)=O)cc1[N-]C(=O)c1ccco1 (optimized conformer: 64.35921654231636 kcal/mol)

>  <smiles>  (30) 
COc1ccc(NC(C)=O)cc1NC(=O)c1ccco1

>  <score_type>  (30) 
oracle

>  <origin>  (30) 
adg

>  <m_score__min__energy>  (30) 
-9.6600000000000001

>  <m_primary>  (30) 
energy

$$$$
30:0
     RDKit          3D

 31 33  0  0  0  0  0  0  0  0999 V2000
   59.6450   35.3070   45.9090 C   0  0  0  0  0  0  0  0  0  0  0  0
   58.9850   34.1230   46.5340 C   0  0  0  0  0  0  0  0  0  0  0  0
   59.2770   33.6520   47.7240 O   0  0  0  0  0  0  0  0  0  0  0  0
   58.5150   32.5950   47.9270 C   0  0  0  0  0  0  0  0  0  0  0  0
   58.5590   31.7770   49.1650 C   0  0  0  0  0  0  0  0  0  0  0  0
   58.2640   32.3470   50.4190 C   0  0  0  0  0  0  0  0  0  0  0  0
   58.3120   31.5700   51.5800 C   0  0  0  0  0  0  0  0  0  0  0  0
   58.6540   30.2190   51.5080 C   0  0  0  0  0  0  0  0  0  0  0  0
   58.6990   29.4690   52.6360 F   0  0  0  0  0  0  0  0  0  0  0  0
   58.9530   29.6420   50.2720 C   0  0  0  0  0  0  0  0  0  0  0  0
   58.9090   30.4120   49.1050 C   0  0  0  0  0  0  0  0  0  0  0  0
   59.1980   29.8140   47.9210 F   0  0  0  0  0  0  0  0  0  0  0  0
   57.7080   32.3550   46.8690 N   0  0  0  0  0  0  0  0  0  0  0  0
   57.9960   33.3300   45.9890 C   0  0  0  0  0  0  0  0  0  0  0  0
   57.4120   33.4250   44.6130 C   0  0  0  0  0  0  0  0  0  0  0  0
   57.1120   32.0900   44.1090 N   0  0  0  0  0  0  0  0  0  0  0  0
   57.4600   31.5830   42.9160 C   0  0  0  0  0  0  0  0  0  0  0  0
   56.9600   30.3430   42.7510 N   0  0  0  0  0  0  0  0  0  0  0  0
   56.2870   30.1440   43.9070 C   0  0  0  0  0  0  0  0  0  0  0  0
   56.3660   31.2010   44.7390 N   0  0  0  0  0  0  0  0  0  0  0  0
   60.0186   35.9771   46.6973 H   0  0  0  0  0  0  0  0  0  0  0  0
   60.4859   34.9709   45.2846 H   0  0  0  0  0  0  0  0  0  0  0  0
   58.9169   35.8455   45.2846 H   0  0  0  0  0  0  0  0  0  0  0  0
   57.9939   33.4113   50.4851 H   0  0  0  0  0  0  0  0  0  0  0  0
   58.0793   32.0252   52.5540 H   0  0  0  0  0  0  0  0  0  0  0  0
   59.2243   28.5775   50.2158 H   0  0  0  0  0  0  0  0  0  0  0  0
   57.0290   31.5750   46.7290 H   0  0  0  0  0  0  0  0  0  0  0  0
   56.4861   34.0178   44.6497 H   0  0  0  0  0  0  0  0  0  0  0  0
   58.1376   33.9106   43.9439 H   0  0  0  0  0  0  0  0  0  0  0  0
   58.0731   32.1108   42.1707 H   0  0  0  0  0  0  0  0  0  0  0  0
   55.7361   29.2214   44.1421 H   0  0  0  0  0  0  0  0  0  0  0  0
  1  2  1  0
  2  3  1  0
  3  4  1  0
  4  5  1  0
  5  6  2  0
  6  7  1  0
  7  8  2  0
  8  9  1  0
  8 10  1  0
 10 11  2  0
 11 12  1  0
  4 13  2  0
 13 14  1  0
 14 15  1  0
 15 16  1  0
 16 17  1  0
 17 18  2  0
 18 19  1  0
 19 20  2  0
 14  2  2  0
 20 16  1  0
 11  5  1  0
  1 21  1  0
  1 22  1  0
  1 23  1  0
  6 24  1  0
  7 25  1  0
 10 26  1  0
 13 27  1  0
 15 28  1  0
 15 29  1  0
 17 30  1  0
 19 31  1  0
M  CHG  1  13   1
M  END
>  <UniqueID>  (31) 
28

>  <SMILES>  (31) 
Cc1oc(-c2ccc(F)cc2F)[nH+]c1Cn1cncn1

>  <Energy>  (31) 
95.52072369066049

>  <Genealogy>  (31) 
Cc1oc(-c2ccc(F)cc2F)[nH+]c1Cn1cncn1 (protonated)
Cc1oc(-c2ccc(F)cc2F)[nH+]c1Cn1cncn1 (3D coordinates assigned)
Cc1oc(-c2ccc(F)cc2F)[nH+]c1Cn1cncn1 (optimized conformer: 95.52072369066049 kcal/mol)

>  <smiles>  (31) 
Cc1oc(-c2ccc(F)cc2F)nc1Cn1cncn1

>  <score_type>  (31) 
oracle

>  <origin>  (31) 
adg

>  <m_score__min__energy>  (31) 
-4.3200000000000003

>  <m_primary>  (31) 
energy

$$$$
31:0
     RDKit          3D

 30 33  0  0  0  0  0  0  0  0999 V2000
   56.8250   30.5660   44.9000 O   0  0  0  0  0  0  0  0  0  0  0  0
   57.9400   30.8650   45.4090 C   0  0  0  0  0  0  0  0  0  0  0  0
   58.7670   29.8600   45.9500 C   0  0  0  0  0  0  0  0  0  0  0  0
   58.3850   28.4260   45.9160 C   0  0  0  0  0  0  0  0  0  0  0  0
   59.3790   27.4170   45.8160 C   0  0  0  0  0  0  0  0  0  0  0  0
   59.0180   26.0570   45.7920 C   0  0  0  0  0  0  0  0  0  0  0  0
   57.6670   25.7410   45.8750 C   0  0  0  0  0  0  0  0  0  0  0  0
   56.7110   26.6980   45.9780 C   0  0  0  0  0  0  0  0  0  0  0  0
   57.0230   28.0540   46.0050 C   0  0  0  0  0  0  0  0  0  0  0  0
   55.4670   26.1000   46.0450 O   0  0  0  0  0  0  0  0  0  0  0  0
   55.6540   24.6800   45.9800 C   0  0  0  0  0  0  0  0  0  0  0  0
   57.0720   24.4940   45.8730 O   0  0  0  0  0  0  0  0  0  0  0  0
   59.9810   30.2470   46.5400 C   0  0  0  0  0  0  0  0  0  0  0  0
   60.3470   31.5230   46.5770 O   0  0  0  0  0  0  0  0  0  0  0  0
   59.6020   32.4990   46.0690 C   0  0  0  0  0  0  0  0  0  0  0  0
   60.0500   33.8220   46.1390 C   0  0  0  0  0  0  0  0  0  0  0  0
   59.2730   34.8570   45.6100 C   0  0  0  0  0  0  0  0  0  0  0  0
   58.0440   34.5740   45.0080 C   0  0  0  0  0  0  0  0  0  0  0  0
   57.5850   33.2550   44.9300 C   0  0  0  0  0  0  0  0  0  0  0  0
   58.3600   32.2060   45.4580 C   0  0  0  0  0  0  0  0  0  0  0  0
   60.4401   27.7007   45.7568 H   0  0  0  0  0  0  0  0  0  0  0  0
   59.7810   25.2689   45.7101 H   0  0  0  0  0  0  0  0  0  0  0  0
   56.2333   28.8147   46.0930 H   0  0  0  0  0  0  0  0  0  0  0  0
   55.2690   24.1978   46.8906 H   0  0  0  0  0  0  0  0  0  0  0  0
   55.1146   24.2318   45.1326 H   0  0  0  0  0  0  0  0  0  0  0  0
   60.6387   29.4818   46.9781 H   0  0  0  0  0  0  0  0  0  0  0  0
   61.0169   34.0490   46.6118 H   0  0  0  0  0  0  0  0  0  0  0  0
   59.6297   35.8959   45.6678 H   0  0  0  0  0  0  0  0  0  0  0  0
   57.4354   35.3914   44.5940 H   0  0  0  0  0  0  0  0  0  0  0  0
   56.6169   33.0375   44.4552 H   0  0  0  0  0  0  0  0  0  0  0  0
  1  2  2  0
  2  3  1  0
  3  4  1  0
  4  5  2  0
  5  6  1  0
  6  7  2  0
  7  8  1  0
  8  9  2  0
  8 10  1  0
 10 11  1  0
 11 12  1  0
  3 13  2  0
 13 14  1  0
 14 15  1  0
 15 16  2  0
 16 17  1  0
 17 18  2  0
 18 19  1  0
 19 20  2  0
 20  2  1  0
  9  4  1  0
 20 15  1  0
 12  7  1  0
  5 21  1  0
  6 22  1  0
  9 23  1  0
 11 24  1  0
 11 25  1  0
 13 26  1  0
 16 27  1  0
 17 28  1  0
 18 29  1  0
 19 30  1  0
M  END
>  <UniqueID>  (32) 
29

>  <SMILES>  (32) 
O=c1c(-c2ccc3c(c2)OCO3)coc2ccccc12

>  <Energy>  (32) 
74.39841184993668

>  <Genealogy>  (32) 
O=c1c(-c2ccc3c(c2)OCO3)coc2ccccc12 (3D coordinates assigned)
O=c1c(-c2ccc3c(c2)OCO3)coc2ccccc12 (nonaromatic ring conformer: 74.39841184993668 kcal/mol)

>  <smiles>  (32) 
O=c1c(-c2ccc3c(c2)OCO3)coc2ccccc12

>  <score_type>  (32) 
oracle

>  <origin>  (32) 
adg

>  <m_score__min__energy>  (32) 
-7.2400000000000002

>  <m_primary>  (32) 
energy

$$$$
32:0
     RDKit          3D

 43 44  0  0  0  0  0  0  0  0999 V2000
   57.3380   27.0380   46.1190 C   0  0  0  0  0  0  0  0  0  0  0  0
   56.8080   28.3310   45.9360 O   0  0  0  0  0  0  0  0  0  0  0  0
   57.7400   29.2960   46.3920 C   0  0  0  0  0  0  0  0  0  0  0  0
   58.2940   30.1330   45.1950 C   0  0  1  0  0  0  0  0  0  0  0  0
   59.3800   29.2620   44.4940 C   0  0  0  0  0  0  0  0  0  0  0  0
   57.1240   30.3310   44.1620 C   0  0  1  0  0  0  0  0  0  0  0  0
   55.9160   30.6540   44.8090 O   0  0  0  0  0  0  0  0  0  0  0  0
   57.4360   31.3710   43.0760 C   0  0  0  0  0  0  0  0  0  0  0  0
   58.0100   32.7040   43.5870 C   0  0  0  0  0  0  0  0  0  0  0  0
   58.2240   32.8170   45.1270 C   0  0  2  0  0  0  0  0  0  0  0  0
   56.8750   33.0770   45.8640 C   0  0  0  0  0  0  0  0  0  0  0  0
   59.1300   34.0150   45.3870 C   0  0  0  0  0  0  0  0  0  0  0  0
   59.1940   34.9840   44.5790 O   0  0  0  0  0  0  0  0  0  0  0  0
   59.8820   34.0710   46.6390 C   0  0  0  0  0  0  0  0  0  0  0  0
   60.7450   34.9680   46.8370 O   0  0  0  0  0  0  0  0  0  0  0  0
   59.5420   33.0900   47.7100 C   0  0  0  0  0  0  0  0  0  0  0  0
   59.4250   31.6370   47.1690 C   0  0  2  0  0  0  0  0  0  0  0  0
   60.7620   30.9090   47.4120 C   0  0  0  0  0  0  0  0  0  0  0  0
   58.9660   31.5260   45.6460 C   0  0  1  0  0  0  0  0  0  0  0  0
   57.4248   26.8262   47.1949 H   0  0  0  0  0  0  0  0  0  0  0  0
   56.6704   26.2987   45.6525 H   0  0  0  0  0  0  0  0  0  0  0  0
   58.3325   26.9799   45.6525 H   0  0  0  0  0  0  0  0  0  0  0  0
   57.2430   29.9700   47.1052 H   0  0  0  0  0  0  0  0  0  0  0  0
   58.5781   28.7770   46.8801 H   0  0  0  0  0  0  0  0  0  0  0  0
   59.9993   28.7653   45.2554 H   0  0  0  0  0  0  0  0  0  0  0  0
   58.8916   28.5024   43.8659 H   0  0  0  0  0  0  0  0  0  0  0  0
   60.0155   29.9037   43.8659 H   0  0  0  0  0  0  0  0  0  0  0  0
   57.0137   29.3615   43.6542 H   0  0  0  0  0  0  0  0  0  0  0  0
   55.8580   30.0920   45.6260 H   0  0  0  0  0  0  0  0  0  0  0  0
   58.1673   30.9296   42.3830 H   0  0  0  0  0  0  0  0  0  0  0  0
   56.4731   31.6158   42.6039 H   0  0  0  0  0  0  0  0  0  0  0  0
   58.9846   32.8579   43.1007 H   0  0  0  0  0  0  0  0  0  0  0  0
   57.2544   33.4639   43.3387 H   0  0  0  0  0  0  0  0  0  0  0  0
   57.0391   33.0454   46.9512 H   0  0  0  0  0  0  0  0  0  0  0  0
   56.4870   34.0665   45.5804 H   0  0  0  0  0  0  0  0  0  0  0  0
   56.1471   32.3026   45.5804 H   0  0  0  0  0  0  0  0  0  0  0  0
   60.3292   33.1185   48.4778 H   0  0  0  0  0  0  0  0  0  0  0  0
   58.5632   33.3728   48.1248 H   0  0  0  0  0  0  0  0  0  0  0  0
   58.6122   31.1495   47.7272 H   0  0  0  0  0  0  0  0  0  0  0  0
   60.9364   30.8140   48.4939 H   0  0  0  0  0  0  0  0  0  0  0  0
   60.7223   29.9080   46.9577 H   0  0  0  0  0  0  0  0  0  0  0  0
   61.5813   31.4856   46.9577 H   0  0  0  0  0  0  0  0  0  0  0  0
   59.9182   31.4885   45.0966 H   0  0  0  0  0  0  0  0  0  0  0  0
  1  2  1  0
  2  3  1  0
  4  3  1  1
  4  5  1  0
  4  6  1  0
  6  7  1  0
  6  8  1  0
  8  9  1  0
  9 10  1  0
 10 11  1  1
 10 12  1  0
 12 13  2  0
 12 14  1  0
 14 15  2  0
 14 16  1  0
 16 17  1  0
 17 18  1  0
 17 19  1  0
 19  4  1  0
 19 10  1  0
  1 20  1  0
  1 21  1  0
  1 22  1  0
  3 23  1  0
  3 24  1  0
  5 25  1  0
  5 26  1  0
  5 27  1  0
  6 28  1  6
  7 29  1  0
  8 30  1  0
  8 31  1  0
  9 32  1  0
  9 33  1  0
 11 34  1  0
 11 35  1  0
 11 36  1  0
 16 37  1  0
 16 38  1  0
 17 39  1  1
 18 40  1  0
 18 41  1  0
 18 42  1  0
 19 43  1  6
M  END
>  <UniqueID>  (33) 
30

>  <SMILES>  (33) 
COC[C@]1(C)C2C(C)CC(=O)C(=O)C2(C)CC[C@@H]1O

>  <Energy>  (33) 
74.95079739209665

>  <Genealogy>  (33) 
COC[C@]1(C)C2C(C)CC(=O)C(=O)C2(C)CC[C@@H]1O (chirality)
COC[C@]1(C)C2C(C)CC(=O)C(=O)C2(C)CC[C@@H]1O (3D coordinates assigned)
COC[C@]1(C)C2C(C)CC(=O)C(=O)C2(C)CC[C@@H]1O (nonaromatic ring conformer: 74.95079739209665 kcal/mol)

>  <smiles>  (33) 
COCC1(C)C(O)CCC2(C)C(=O)C(=O)CC(C)C21

>  <score_type>  (33) 
oracle

>  <origin>  (33) 
adg

>  <m_score__min__energy>  (33) 
-7.6799999999999997

>  <m_primary>  (33) 
energy

$$$$
33:0
     RDKit          3D

 37 37  0  0  0  0  0  0  0  0999 V2000
   59.4210   34.4010   45.4930 C   0  0  0  0  0  0  0  0  0  0  0  0
   58.4420   33.4910   45.9850 O   0  0  0  0  0  0  0  0  0  0  0  0
   58.4740   32.1000   45.7890 C   0  0  0  0  0  0  0  0  0  0  0  0
   57.4030   31.4040   45.2010 C   0  0  0  0  0  0  0  0  0  0  0  0
   57.4620   30.0090   45.0190 C   0  0  0  0  0  0  0  0  0  0  0  0
   56.3800   29.2910   44.4820 O   0  0  0  0  0  0  0  0  0  0  0  0
   55.5290   29.7600   43.4420 C   0  0  0  0  0  0  0  0  0  0  0  0
   58.6230   29.3110   45.4090 C   0  0  0  0  0  0  0  0  0  0  0  0
   58.7450   27.8490   45.2170 C   0  0  0  0  0  0  0  0  0  0  0  0
   59.8730   27.3010   45.3530 O   0  0  0  0  0  0  0  0  0  0  0  0
   57.6050   27.0560   44.8470 N   0  0  0  0  0  0  0  0  0  0  0  0
   57.6600   25.5990   44.7490 C   0  0  0  0  0  0  0  0  0  0  0  0
   56.9560   24.9550   45.9450 C   0  0  0  0  0  0  0  0  0  0  0  0
   55.5130   25.3500   45.9800 C   0  0  0  0  0  0  0  0  0  0  0  0
   55.1510   26.7280   45.9880 N   0  0  0  0  0  0  0  0  0  0  0  0
   54.6190   24.4640   46.0440 O   0  0  0  0  0  0  0  0  0  0  0  0
   59.6810   30.0080   46.0120 C   0  0  0  0  0  0  0  0  0  0  0  0
   59.6150   31.4000   46.2000 C   0  0  0  0  0  0  0  0  0  0  0  0
   60.6640   32.1230   46.7910 O   0  0  0  0  0  0  0  0  0  0  0  0
   61.7440   31.5390   47.5090 C   0  0  0  0  0  0  0  0  0  0  0  0
   59.9354   34.8792   46.3396 H   0  0  0  0  0  0  0  0  0  0  0  0
   60.1533   33.8555   44.8797 H   0  0  0  0  0  0  0  0  0  0  0  0
   58.9304   35.1712   44.8797 H   0  0  0  0  0  0  0  0  0  0  0  0
   56.5078   31.9563   44.8791 H   0  0  0  0  0  0  0  0  0  0  0  0
   54.6461   30.2466   43.8821 H   0  0  0  0  0  0  0  0  0  0  0  0
   56.0751   30.4845   42.8201 H   0  0  0  0  0  0  0  0  0  0  0  0
   55.2081   28.9113   42.8201 H   0  0  0  0  0  0  0  0  0  0  0  0
   56.7000   27.5290   44.6230 H   0  0  0  0  0  0  0  0  0  0  0  0
   57.1629   25.2795   43.8212 H   0  0  0  0  0  0  0  0  0  0  0  0
   58.7134   25.2822   44.7431 H   0  0  0  0  0  0  0  0  0  0  0  0
   57.0296   23.8606   45.8619 H   0  0  0  0  0  0  0  0  0  0  0  0
   57.4411   25.2990   46.8704 H   0  0  0  0  0  0  0  0  0  0  0  0
   55.5150   27.3820   45.2600 H   0  0  0  0  0  0  0  0  0  0  0  0
   60.5745   29.4579   46.3423 H   0  0  0  0  0  0  0  0  0  0  0  0
   61.5619   31.6375   48.5893 H   0  0  0  0  0  0  0  0  0  0  0  0
   61.8255   30.4739   47.2465 H   0  0  0  0  0  0  0  0  0  0  0  0
   62.6799   32.0540   47.2465 H   0  0  0  0  0  0  0  0  0  0  0  0
  1  2  1  0
  2  3  1  0
  3  4  2  0
  4  5  1  0
  5  6  1  0
  6  7  1  0
  5  8  2  0
  8  9  1  0
  9 10  2  0
  9 11  1  0
 11 12  1  0
 12 13  1  0
 13 14  1  0
 14 15  1  0
 14 16  2  0
  8 17  1  0
 17 18  2  0
 18 19  1  0
 19 20  1  0
 18  3  1  0
  1 21  1  0
  1 22  1  0
  1 23  1  0
  4 24  1  0
  7 25  1  0
  7 26  1  0
  7 27  1  0
 11 28  1  0
 12 29  1  0
 12 30  1  0
 13 31  1  0
 13 32  1  0
 15 33  1  0
 17 34  1  0
 20 35  1  0
 20 36  1  0
 20 37  1  0
M  CHG  1  15  -1
M  END
>  <UniqueID>  (34) 
31

>  <SMILES>  (34) 
COc1cc(OC)c(C(=O)NCCC([NH-])=O)cc1OC

>  <Energy>  (34) 
31.89111370612164

>  <Genealogy>  (34) 
COc1cc(OC)c(C(=O)NCCC([NH-])=O)cc1OC (protonated)
COc1cc(OC)c(C(=O)NCCC([NH-])=O)cc1OC (3D coordinates assigned)
COc1cc(OC)c(C(=O)NCCC([NH-])=O)cc1OC (optimized conformer: 31.89111370612164 kcal/mol)

>  <smiles>  (34) 
COc1cc(OC)c(C(=O)NCCC(N)=O)cc1OC

>  <score_type>  (34) 
oracle

>  <origin>  (34) 
adg

>  <m_score__min__energy>  (34) 
-8.7100000000000009

>  <m_primary>  (34) 
energy

$$$$
34:0
     RDKit          3D

 41 44  0  0  0  0  0  0  0  0999 V2000
   62.8890   33.7630   46.0190 N   0  0  0  0  0  0  0  0  0  0  0  0
   61.8460   33.6410   47.0400 C   0  0  0  0  0  0  0  0  0  0  0  0
   61.6270   32.1450   47.3970 C   0  0  0  0  0  0  0  0  0  0  0  0
   60.1500   31.7780   47.5610 C   0  0  0  0  0  0  0  0  0  0  0  0
   59.4100   32.1590   46.3530 N   0  0  0  0  0  0  0  0  0  0  0  0
   58.3350   31.3330   45.8820 C   0  0  0  0  0  0  0  0  0  0  0  0
   57.2210   31.8910   45.2220 C   0  0  0  0  0  0  0  0  0  0  0  0
   56.1950   31.0930   44.7900 N   0  0  0  0  0  0  0  0  0  0  0  0
   56.2020   29.7400   44.9710 C   0  0  0  0  0  0  0  0  0  0  0  0
   55.1410   28.9690   44.5140 O   0  0  0  0  0  0  0  0  0  0  0  0
   57.2950   29.1670   45.6180 C   0  0  0  0  0  0  0  0  0  0  0  0
   58.3410   29.9460   46.0630 C   0  0  0  0  0  0  0  0  0  0  0  0
   59.3060   29.1940   46.6400 N   0  0  0  0  0  0  0  0  0  0  0  0
   58.8500   27.9260   46.5590 C   0  0  0  0  0  0  0  0  0  0  0  0
   59.4840   26.7770   47.0260 C   0  0  0  0  0  0  0  0  0  0  0  0
   58.8350   25.5430   46.8440 C   0  0  0  0  0  0  0  0  0  0  0  0
   57.5790   25.4690   46.1840 C   0  0  0  0  0  0  0  0  0  0  0  0
   56.8760   24.1430   46.0420 C   0  0  0  0  0  0  0  0  0  0  0  0
   57.5440   23.1580   46.7480 F   0  0  0  0  0  0  0  0  0  0  0  0
   56.8370   23.7910   44.7060 F   0  0  0  0  0  0  0  0  0  0  0  0
   55.5830   24.2220   46.5260 F   0  0  0  0  0  0  0  0  0  0  0  0
   56.9520   26.6580   45.7420 C   0  0  0  0  0  0  0  0  0  0  0  0
   57.6200   27.8660   45.9390 C   0  0  0  0  0  0  0  0  0  0  0  0
   59.6840   33.4400   45.6850 C   0  0  0  0  0  0  0  0  0  0  0  0
   60.5530   34.3470   46.5640 C   0  0  0  0  0  0  0  0  0  0  0  0
   63.6440   33.0720   46.2360 H   0  0  0  0  0  0  0  0  0  0  0  0
   63.3350   34.7050   46.1090 H   0  0  0  0  0  0  0  0  0  0  0  0
   62.1611   34.1466   47.9647 H   0  0  0  0  0  0  0  0  0  0  0  0
   62.0544   31.5270   46.5937 H   0  0  0  0  0  0  0  0  0  0  0  0
   62.1201   31.9622   48.3631 H   0  0  0  0  0  0  0  0  0  0  0  0
   60.0579   30.6934   47.7196 H   0  0  0  0  0  0  0  0  0  0  0  0
   59.7350   32.3140   48.4273 H   0  0  0  0  0  0  0  0  0  0  0  0
   57.1755   32.9769   45.0525 H   0  0  0  0  0  0  0  0  0  0  0  0
   60.2100   29.5150   47.0500 H   0  0  0  0  0  0  0  0  0  0  0  0
   60.4639   26.8334   47.5227 H   0  0  0  0  0  0  0  0  0  0  0  0
   59.3063   24.6221   47.2178 H   0  0  0  0  0  0  0  0  0  0  0  0
   55.9653   26.6301   45.2566 H   0  0  0  0  0  0  0  0  0  0  0  0
   60.2101   33.2462   44.7386 H   0  0  0  0  0  0  0  0  0  0  0  0
   58.7264   33.9482   45.4985 H   0  0  0  0  0  0  0  0  0  0  0  0
   60.8304   35.2401   45.9849 H   0  0  0  0  0  0  0  0  0  0  0  0
   59.9668   34.6124   47.4562 H   0  0  0  0  0  0  0  0  0  0  0  0
  1  2  1  0
  2  3  1  0
  3  4  1  0
  4  5  1  0
  5  6  1  0
  6  7  2  0
  7  8  1  0
  8  9  2  0
  9 10  1  0
  9 11  1  0
 11 12  2  0
 12 13  1  0
 13 14  1  0
 14 15  2  0
 15 16  1  0
 16 17  2  0
 17 18  1  0
 18 19  1  0
 18 20  1  0
 18 21  1  0
 17 22  1  0
 22 23  2  0
  5 24  1  0
 24 25  1  0
 25  2  1  0
 12  6  1  0
 23 14  1  0
 23 11  1  0
  1 26  1  0
  1 27  1  0
  2 28  1  0
  3 29  1  0
  3 30  1  0
  4 31  1  0
  4 32  1  0
  7 33  1  0
 13 34  1  0
 15 35  1  0
 16 36  1  0
 22 37  1  0
 24 38  1  0
 24 39  1  0
 25 40  1  0
 25 41  1  0
M  CHG  1  10  -1
M  END
>  <UniqueID>  (35) 
32

>  <SMILES>  (35) 
NC1CCN(c2cnc([O-])c3c2[nH]c2ccc(C(F)(F)F)cc23)CC1

>  <Energy>  (35) 
93.57396396438463

>  <Genealogy>  (35) 
NC1CCN(c2cnc([O-])c3c2[nH]c2ccc(C(F)(F)F)cc23)CC1 (protonated)
NC1CCN(c2cnc([O-])c3c2[nH]c2ccc(C(F)(F)F)cc23)CC1 (3D coordinates assigned)
NC1CCN(c2cnc([O-])c3c2[nH]c2ccc(C(F)(F)F)cc23)CC1 (nonaromatic ring conformer: 93.57396396438463 kcal/mol)

>  <smiles>  (35) 
NC1CCN(c2cnc(O)c3c2[nH]c2ccc(C(F)(F)F)cc23)CC1

>  <score_type>  (35) 
oracle

>  <origin>  (35) 
adg

>  <m_score__min__energy>  (35) 
-10.01

>  <m_primary>  (35) 
energy

$$$$
35:0
     RDKit          3D

 41 43  0  0  1  0  0  0  0  0999 V2000
   57.9800   25.8960   45.2460 C   0  0  0  0  0  0  0  0  0  0  0  0
   57.7830   27.3020   44.8490 C   0  0  0  0  0  0  0  0  0  0  0  0
   57.3540   28.3370   45.6610 C   0  0  0  0  0  0  0  0  0  0  0  0
   57.3400   29.4550   44.8200 C   0  0  0  0  0  0  0  0  0  0  0  0
   57.0130   30.6660   45.1160 N   0  0  0  0  0  0  0  0  0  0  0  0
   57.5700   31.7450   44.3430 C   0  0  0  0  0  0  0  0  0  0  0  0
   57.4500   31.8060   43.0890 O   0  0  0  0  0  0  0  0  0  0  0  0
   58.2870   32.7660   45.1190 C   0  0  0  0  0  0  0  0  0  0  0  0
   58.4590   33.9870   44.4890 C   0  0  0  0  0  0  0  0  0  0  0  0
   59.1190   35.0030   45.1660 C   0  0  0  0  0  0  0  0  0  0  0  0
   59.5940   34.7790   46.4520 C   0  0  0  0  0  0  0  0  0  0  0  0
   59.4160   33.5390   47.0830 C   0  0  0  0  0  0  0  0  0  0  0  0
   60.0360   33.3500   48.6940 S   0  0  0  0  0  0  0  0  0  0  0  0
   59.2810   32.1800   49.3330 O   0  0  0  0  0  0  0  0  0  0  0  0
   59.7170   34.5350   49.5660 O   0  0  0  0  0  0  0  0  0  0  0  0
   61.6780   32.9270   48.6640 N   0  0  0  0  0  0  0  0  0  0  0  0
   62.6240   33.9360   49.0230 C   0  0  0  0  0  0  0  0  0  0  0  0
   63.9370   33.4560   48.4100 C   0  0  0  0  0  0  0  0  0  0  0  0
   63.4200   32.8660   47.0890 C   0  0  0  0  0  0  0  0  0  0  0  0
   62.1080   32.2590   47.4870 C   0  0  0  0  0  0  0  0  0  0  0  0
   58.7510   32.5230   46.4010 C   0  0  0  0  0  0  0  0  0  0  0  0
   57.7440   29.0710   43.5830 N   0  0  0  0  0  0  0  0  0  0  0  0
   58.0060   27.7800   43.6120 N   0  0  0  0  0  0  0  0  0  0  0  0
   57.9902   25.8229   46.3435 H   0  0  0  0  0  0  0  0  0  0  0  0
   57.1589   25.2834   44.8454 H   0  0  0  0  0  0  0  0  0  0  0  0
   58.9378   25.5326   44.8454 H   0  0  0  0  0  0  0  0  0  0  0  0
   57.0849   28.2912   46.7266 H   0  0  0  0  0  0  0  0  0  0  0  0
   58.0791   34.1489   43.4695 H   0  0  0  0  0  0  0  0  0  0  0  0
   59.2654   35.9819   44.6861 H   0  0  0  0  0  0  0  0  0  0  0  0
   60.1180   35.5868   46.9839 H   0  0  0  0  0  0  0  0  0  0  0  0
   62.3319   34.9106   48.6049 H   0  0  0  0  0  0  0  0  0  0  0  0
   62.6950   34.0778   50.1115 H   0  0  0  0  0  0  0  0  0  0  0  0
   64.6352   34.2886   48.2388 H   0  0  0  0  0  0  0  0  0  0  0  0
   64.5097   32.7555   49.0356 H   0  0  0  0  0  0  0  0  0  0  0  0
   63.2796   33.6518   46.3322 H   0  0  0  0  0  0  0  0  0  0  0  0
   64.1136   32.1438   46.6337 H   0  0  0  0  0  0  0  0  0  0  0  0
   61.3693   32.3971   46.6837 H   0  0  0  0  0  0  0  0  0  0  0  0
   62.2151   31.1791   47.6670 H   0  0  0  0  0  0  0  0  0  0  0  0
   58.5966   31.5418   46.8737 H   0  0  0  0  0  0  0  0  0  0  0  0
   57.8320   29.7010   42.7390 H   0  0  0  0  0  0  0  0  0  0  0  0
   58.3360   27.2770   42.7420 H   0  0  0  0  0  0  0  0  0  0  0  0
  1  2  1  0
  2  3  2  0
  3  4  1  0
  4  5  2  0
  5  6  1  0
  6  7  2  0
  6  8  1  0
  8  9  2  0
  9 10  1  0
 10 11  2  0
 11 12  1  0
 12 13  1  0
 13 14  2  0
 13 15  2  0
 13 16  1  0
 16 17  1  0
 17 18  1  0
 18 19  1  0
 19 20  1  0
 12 21  2  0
  4 22  1  0
 22 23  1  0
 23  2  1  0
 21  8  1  0
 20 16  1  0
  1 24  1  0
  1 25  1  0
  1 26  1  0
  3 27  1  0
  9 28  1  0
 10 29  1  0
 11 30  1  0
 17 31  1  0
 17 32  1  0
 18 33  1  0
 18 34  1  0
 19 35  1  0
 19 36  1  0
 20 37  1  0
 20 38  1  0
 21 39  1  0
 22 40  1  0
 23 41  1  0
M  END
>  <smiles>  (36) 
Cc1cc(=NC(=O)c2cccc(S(=O)(=O)N3CCCC3)c2)[nH][nH]1

>  <score_type>  (36) 
oracle

>  <origin>  (36) 
adg

>  <m_score__min__energy>  (36) 
-9.4000000000000004

>  <m_primary>  (36) 
energy

$$$$
36:0
     RDKit          3D

 51 54  0  0  1  0  0  0  0  0999 V2000
   65.0020   33.0730   49.4380 C   0  0  0  0  0  0  0  0  0  0  0  0
   63.9620   33.3160   48.5290 O   0  0  0  0  0  0  0  0  0  0  0  0
   62.9130   32.4620   48.2940 C   0  0  0  0  0  0  0  0  0  0  0  0
   62.1070   32.5010   47.1760 C   0  0  0  0  0  0  0  0  0  0  0  0
   61.0500   31.5950   46.9980 C   0  0  0  0  0  0  0  0  0  0  0  0
   60.7670   30.6280   47.9270 C   0  0  0  0  0  0  0  0  0  0  0  0
   59.6880   29.7380   47.7350 N   0  0  0  0  0  0  0  0  0  0  0  0
   59.7200   28.3390   48.1730 C   0  0  0  0  0  0  0  0  0  0  0  0
   60.2150   27.6790   46.8760 C   0  0  0  0  0  0  0  0  0  0  0  0
   59.1900   28.0460   45.8670 C   0  0  0  0  0  0  0  0  0  0  0  0
   59.0980   27.1910   44.8040 N   0  0  0  0  0  0  0  0  0  0  0  0
   58.2200   27.3730   43.8100 C   0  0  0  0  0  0  0  0  0  0  0  0
   57.4150   28.4390   43.8840 N   0  0  0  0  0  0  0  0  0  0  0  0
   57.4650   29.3280   44.9290 C   0  0  0  0  0  0  0  0  0  0  0  0
   56.6250   30.2850   44.8500 N   0  0  0  0  0  0  0  0  0  0  0  0
   56.6920   31.2110   43.7800 C   0  0  0  0  0  0  0  0  0  0  0  0
   57.4910   32.3020   44.5030 C   0  0  0  0  0  0  0  0  0  0  0  0
   57.1710   32.6760   45.7900 C   0  0  0  0  0  0  0  0  0  0  0  0
   57.8560   33.6610   46.4860 C   0  0  0  0  0  0  0  0  0  0  0  0
   58.8990   34.2630   45.8160 C   0  0  0  0  0  0  0  0  0  0  0  0
   59.6480   35.3190   46.5410 C   0  0  0  0  0  0  0  0  0  0  0  0
   59.2490   33.9150   44.5300 C   0  0  0  0  0  0  0  0  0  0  0  0
   58.5340   32.9360   43.8950 C   0  0  0  0  0  0  0  0  0  0  0  0
   58.3660   29.1590   45.9690 C   0  0  0  0  0  0  0  0  0  0  0  0
   58.4070   30.1170   47.0830 C   0  0  0  0  0  0  0  0  0  0  0  0
   61.5740   30.5850   49.0480 C   0  0  0  0  0  0  0  0  0  0  0  0
   62.6300   31.4880   49.2280 C   0  0  0  0  0  0  0  0  0  0  0  0
   64.6193   33.1624   50.4654 H   0  0  0  0  0  0  0  0  0  0  0  0
   65.3968   32.0584   49.2808 H   0  0  0  0  0  0  0  0  0  0  0  0
   65.8055   33.8076   49.2808 H   0  0  0  0  0  0  0  0  0  0  0  0
   62.2972   33.2613   46.4042 H   0  0  0  0  0  0  0  0  0  0  0  0
   60.4331   31.6628   46.0898 H   0  0  0  0  0  0  0  0  0  0  0  0
   60.4223   28.1855   49.0056 H   0  0  0  0  0  0  0  0  0  0  0  0
   58.7687   27.9486   48.5638 H   0  0  0  0  0  0  0  0  0  0  0  0
   61.2019   28.0718   46.5903 H   0  0  0  0  0  0  0  0  0  0  0  0
   60.3364   26.5904   46.9768 H   0  0  0  0  0  0  0  0  0  0  0  0
   58.1626   26.6723   42.9640 H   0  0  0  0  0  0  0  0  0  0  0  0
   56.7340   28.5630   43.0970 H   0  0  0  0  0  0  0  0  0  0  0  0
   57.2298   30.8062   42.9100 H   0  0  0  0  0  0  0  0  0  0  0  0
   55.7305   31.5208   43.3447 H   0  0  0  0  0  0  0  0  0  0  0  0
   56.3321   32.1691   46.2894 H   0  0  0  0  0  0  0  0  0  0  0  0
   57.5826   33.9451   47.5129 H   0  0  0  0  0  0  0  0  0  0  0  0
   59.5399   35.1666   47.6250 H   0  0  0  0  0  0  0  0  0  0  0  0
   60.7122   35.2670   46.2677 H   0  0  0  0  0  0  0  0  0  0  0  0
   59.2471   36.3062   46.2677 H   0  0  0  0  0  0  0  0  0  0  0  0
   60.0876   34.4147   44.0229 H   0  0  0  0  0  0  0  0  0  0  0  0
   58.8077   32.6533   42.8678 H   0  0  0  0  0  0  0  0  0  0  0  0
   58.4292   31.1558   46.7220 H   0  0  0  0  0  0  0  0  0  0  0  0
   57.5310   30.0784   47.7472 H   0  0  0  0  0  0  0  0  0  0  0  0
   61.3826   29.8231   49.8179 H   0  0  0  0  0  0  0  0  0  0  0  0
   63.2477   31.4183   50.1355 H   0  0  0  0  0  0  0  0  0  0  0  0
  1  2  1  0
  2  3  1  0
  3  4  2  0
  4  5  1  0
  5  6  2  0
  6  7  1  0
  7  8  1  0
  8  9  1  0
  9 10  1  0
 10 11  1  0
 11 12  2  0
 12 13  1  0
 13 14  1  0
 14 15  2  0
 15 16  1  0
 16 17  1  0
 17 18  2  0
 18 19  1  0
 19 20  2  0
 20 21  1  0
 20 22  1  0
 22 23  2  0
 14 24  1  0
 24 25  1  0
  6 26  1  0
 26 27  2  0
 27  3  1  0
 25  7  1  0
 24 10  2  0
 23 17  1  0
  1 28  1  0
  1 29  1  0
  1 30  1  0
  4 31  1  0
  5 32  1  0
  8 33  1  0
  8 34  1  0
  9 35  1  0
  9 36  1  0
 12 37  1  0
 13 38  1  0
 16 39  1  0
 16 40  1  0
 18 41  1  0
 19 42  1  0
 21 43  1  0
 21 44  1  0
 21 45  1  0
 22 46  1  0
 23 47  1  0
 25 48  1  0
 25 49  1  0
 26 50  1  0
 27 51  1  0
M  END
>  <smiles>  (37) 
COc1ccc(N2CCc3nc[nH]c(=NCc4ccc(C)cc4)c3C2)cc1

>  <score_type>  (37) 
oracle

>  <origin>  (37) 
adg

>  <m_score__min__energy>  (37) 
-8.1500000000000004

>  <m_primary>  (37) 
energy

$$$$
37:0
     RDKit          3D

 24 25  0  0  0  0  0  0  0  0999 V2000
   59.1479   34.2795   48.2843 H   0  0  0  0  0  0  0  0  0  0  0  0
   58.8940   34.1200   47.2260 C   0  0  0  0  0  0  0  0  0  0  0  0
   57.9110   33.2420   46.8870 N   0  0  0  0  0  0  0  0  0  0  0  0
   57.5640   33.0160   45.5880 C   0  0  0  0  0  0  0  0  0  0  0  0
   56.5500   32.1100   45.2460 O   0  0  0  0  0  0  0  0  0  0  0  0
   56.7170   30.9490   44.4740 C   0  0  0  0  0  0  0  0  0  0  0  0
   57.4420   30.9580   43.4450 O   0  0  0  0  0  0  0  0  0  0  0  0
   56.0630   29.7250   44.8420 N   0  0  0  0  0  0  0  0  0  0  0  0
   56.6350   28.6270   45.2440 C   0  0  0  0  0  0  0  0  0  0  0  0
   55.9030   27.5450   45.6330 N   0  0  0  0  0  0  0  0  0  0  0  0
   56.4890   26.3920   46.0550 C   0  0  0  0  0  0  0  0  0  0  0  0
   55.8658   25.5387   46.3610 H   0  0  0  0  0  0  0  0  0  0  0  0
   57.8810   26.2910   46.1000 C   0  0  0  0  0  0  0  0  0  0  0  0
   58.3613   25.3617   46.4401 H   0  0  0  0  0  0  0  0  0  0  0  0
   58.6550   27.3840   45.7080 C   0  0  0  0  0  0  0  0  0  0  0  0
   59.7527   27.3202   45.7384 H   0  0  0  0  0  0  0  0  0  0  0  0
   58.0350   28.5590   45.2770 C   0  0  0  0  0  0  0  0  0  0  0  0
   58.6399   29.4236   44.9661 H   0  0  0  0  0  0  0  0  0  0  0  0
   58.2330   33.7000   44.5660 C   0  0  0  0  0  0  0  0  0  0  0  0
   57.9633   33.5264   43.5138 H   0  0  0  0  0  0  0  0  0  0  0  0
   59.2450   34.6040   44.8930 C   0  0  0  0  0  0  0  0  0  0  0  0
   59.7774   35.1466   44.0979 H   0  0  0  0  0  0  0  0  0  0  0  0
   59.5800   34.8180   46.2310 C   0  0  0  0  0  0  0  0  0  0  0  0
   60.3758   35.5288   46.4982 H   0  0  0  0  0  0  0  0  0  0  0  0
  1  2  1  0
  2  3  2  0
  3  4  1  0
  4  5  1  0
  5  6  1  0
  6  7  2  0
  6  8  1  0
  8  9  2  0
  9 10  1  0
 10 11  1  0
 11 12  1  0
 11 13  2  0
 13 14  1  0
 13 15  1  0
 15 16  1  0
 15 17  2  0
 17 18  1  0
  4 19  2  0
 19 20  1  0
 19 21  1  0
 21 22  1  0
 21 23  2  0
 23 24  1  0
 23  2  1  0
 17  9  1  0
M  CHG  1  10  -1
M  END
>  <UniqueID>  (38) 
33

>  <SMILES>  (38) 
O=C(/N=c1/cccc[n-]1)Oc1ccccn1

>  <Energy>  (38) 
29.55435066331078

>  <Genealogy>  (38) 
O=C(N=c1cccc[n-]1)Oc1ccccn1 (protonated)
O=C(/N=c1/cccc[n-]1)Oc1ccccn1 (cis-trans isomerization)
O=C(/N=c1/cccc[n-]1)Oc1ccccn1 (3D coordinates assigned)
O=C(/N=c1/cccc[n-]1)Oc1ccccn1 (optimized conformer: 29.55435066331078 kcal/mol)

>  <smiles>  (38) 
O=C(N=c1cccc[nH]1)Oc1ccccn1

>  <score_type>  (38) 
oracle

>  <origin>  (38) 
adg

>  <m_score__min__energy>  (38) 
-7.8899999999999997

>  <m_primary>  (38) 
energy

$$$$
38:0
     RDKit          3D

 39 41  0  0  0  0  0  0  0  0999 V2000
   55.6340   30.4620   44.4140 O   0  0  0  0  0  0  0  0  0  0  0  0
   56.7760   30.1040   44.8030 C   0  0  0  0  0  0  0  0  0  0  0  0
   57.4750   28.9830   44.0780 C   0  0  0  0  0  0  0  0  0  0  0  0
   57.9770   27.9270   45.0330 C   0  0  0  0  0  0  0  0  0  0  0  0
   59.3600   27.7130   45.1740 C   0  0  0  0  0  0  0  0  0  0  0  0
   59.8380   26.7140   46.0260 C   0  0  0  0  0  0  0  0  0  0  0  0
   58.9430   25.9100   46.7340 C   0  0  0  0  0  0  0  0  0  0  0  0
   57.5680   26.1110   46.6000 C   0  0  0  0  0  0  0  0  0  0  0  0
   57.0800   27.1130   45.7550 C   0  0  0  0  0  0  0  0  0  0  0  0
   55.7390   27.2760   45.6330 F   0  0  0  0  0  0  0  0  0  0  0  0
   57.3970   30.8270   45.8740 N   0  0  0  0  0  0  0  0  0  0  0  0
   57.9870   32.1300   45.7880 C   0  0  0  0  0  0  0  0  0  0  0  0
   57.2750   33.2130   45.2500 C   0  0  0  0  0  0  0  0  0  0  0  0
   57.8760   34.4690   45.1470 C   0  0  0  0  0  0  0  0  0  0  0  0
   59.2020   34.6450   45.5450 C   0  0  0  0  0  0  0  0  0  0  0  0
   59.9360   33.5650   46.0490 C   0  0  0  0  0  0  0  0  0  0  0  0
   61.6330   33.8040   46.4400 Cl  0  0  0  0  0  0  0  0  0  0  0  0
   59.3230   32.3040   46.1830 C   0  0  0  0  0  0  0  0  0  0  0  0
   60.0290   31.2010   46.6830 O   0  0  0  0  0  0  0  0  0  0  0  0
   59.7720   30.5800   47.9150 C   0  0  0  0  0  0  0  0  0  0  0  0
   60.2430   29.2870   48.2180 C   0  0  0  0  0  0  0  0  0  0  0  0
   59.9740   28.7150   49.4650 C   0  0  0  0  0  0  0  0  0  0  0  0
   59.2430   29.4270   50.4190 C   0  0  0  0  0  0  0  0  0  0  0  0
   58.7790   30.7110   50.1280 C   0  0  0  0  0  0  0  0  0  0  0  0
   59.0450   31.2860   48.8810 C   0  0  0  0  0  0  0  0  0  0  0  0
   56.7690   28.5195   43.3732 H   0  0  0  0  0  0  0  0  0  0  0  0
   58.3414   29.4054   43.5480 H   0  0  0  0  0  0  0  0  0  0  0  0
   60.0697   28.3360   44.6100 H   0  0  0  0  0  0  0  0  0  0  0  0
   60.9214   26.5608   46.1390 H   0  0  0  0  0  0  0  0  0  0  0  0
   59.3211   25.1182   47.3974 H   0  0  0  0  0  0  0  0  0  0  0  0
   56.8650   25.4783   47.1617 H   0  0  0  0  0  0  0  0  0  0  0  0
   56.2391   33.0718   44.9080 H   0  0  0  0  0  0  0  0  0  0  0  0
   57.3035   35.3210   44.7516 H   0  0  0  0  0  0  0  0  0  0  0  0
   59.6720   35.6361   45.4623 H   0  0  0  0  0  0  0  0  0  0  0  0
   60.8240   28.7260   47.4712 H   0  0  0  0  0  0  0  0  0  0  0  0
   60.3384   27.7030   49.6952 H   0  0  0  0  0  0  0  0  0  0  0  0
   59.0329   28.9757   51.3999 H   0  0  0  0  0  0  0  0  0  0  0  0
   58.2037   31.2710   50.8800 H   0  0  0  0  0  0  0  0  0  0  0  0
   58.6806   32.2996   48.6578 H   0  0  0  0  0  0  0  0  0  0  0  0
  1  2  2  0
  2  3  1  0
  3  4  1  0
  4  5  2  0
  5  6  1  0
  6  7  2  0
  7  8  1  0
  8  9  2  0
  9 10  1  0
  2 11  1  0
 11 12  1  0
 12 13  2  0
 13 14  1  0
 14 15  2  0
 15 16  1  0
 16 17  1  0
 16 18  2  0
 18 19  1  0
 19 20  1  0
 20 21  2  0
 21 22  1  0
 22 23  2  0
 23 24  1  0
 24 25  2  0
  9  4  1  0
 18 12  1  0
 25 20  1  0
  3 26  1  0
  3 27  1  0
  5 28  1  0
  6 29  1  0
  7 30  1  0
  8 31  1  0
 13 32  1  0
 14 33  1  0
 15 34  1  0
 21 35  1  0
 22 36  1  0
 23 37  1  0
 24 38  1  0
 25 39  1  0
M  CHG  1  11  -1
M  END
>  <UniqueID>  (39) 
34

>  <SMILES>  (39) 
O=C(Cc1ccccc1F)[N-]c1cccc(Cl)c1Oc1ccccc1

>  <Energy>  (39) 
51.65831805565942

>  <Genealogy>  (39) 
O=C(Cc1ccccc1F)[N-]c1cccc(Cl)c1Oc1ccccc1 (protonated)
O=C(Cc1ccccc1F)[N-]c1cccc(Cl)c1Oc1ccccc1 (3D coordinates assigned)
O=C(Cc1ccccc1F)[N-]c1cccc(Cl)c1Oc1ccccc1 (optimized conformer: 51.65831805565942 kcal/mol)

>  <smiles>  (39) 
O=C(Cc1ccccc1F)Nc1cccc(Cl)c1Oc1ccccc1

>  <score_type>  (39) 
oracle

>  <origin>  (39) 
adg

>  <m_score__min__energy>  (39) 
-10.09

>  <m_primary>  (39) 
energy

$$$$
39:0
     RDKit          3D

 36 37  0  0  0  0  0  0  0  0999 V2000
   58.2824   32.4071   48.5489 H   0  0  0  0  0  0  0  0  0  0  0  0
   58.4300   32.8100   47.5360 C   0  0  0  0  0  0  0  0  0  0  0  0
   57.8300   32.1760   46.4440 C   0  0  0  0  0  0  0  0  0  0  0  0
   57.2116   31.2802   46.6028 H   0  0  0  0  0  0  0  0  0  0  0  0
   58.0130   32.6770   45.1470 C   0  0  0  0  0  0  0  0  0  0  0  0
   57.3530   32.0150   43.9680 C   0  0  0  0  0  0  0  0  0  0  0  0
   57.1293   32.7744   43.2042 H   0  0  0  0  0  0  0  0  0  0  0  0
   58.0346   31.2554   43.5575 H   0  0  0  0  0  0  0  0  0  0  0  0
   56.1130   31.3660   44.3780 N   0  0  0  0  0  0  0  0  0  0  0  0
   55.9580   29.9490   44.4870 C   0  0  0  0  0  0  0  0  0  0  0  0
   54.8330   29.4180   44.2780 O   0  0  0  0  0  0  0  0  0  0  0  0
   57.1180   29.1440   44.7460 N   0  0  0  0  0  0  0  0  0  0  0  0
   57.2000   28.0040   45.3750 C   0  0  0  0  0  0  0  0  0  0  0  0
   58.4530   27.6040   45.8590 C   0  0  0  0  0  0  0  0  0  0  0  0
   59.3309   28.2502   45.7118 H   0  0  0  0  0  0  0  0  0  0  0  0
   58.5880   26.3820   46.5300 C   0  0  0  0  0  0  0  0  0  0  0  0
   59.9200   25.9590   47.0730 C   0  0  0  0  0  0  0  0  0  0  0  0
   59.8878   25.9692   48.1725 H   0  0  0  0  0  0  0  0  0  0  0  0
   60.1529   24.9427   46.7225 H   0  0  0  0  0  0  0  0  0  0  0  0
   60.6966   26.6547   46.7225 H   0  0  0  0  0  0  0  0  0  0  0  0
   57.4540   25.5950   46.7480 C   0  0  0  0  0  0  0  0  0  0  0  0
   57.5377   24.6397   47.2869 H   0  0  0  0  0  0  0  0  0  0  0  0
   56.2150   26.0300   46.2770 C   0  0  0  0  0  0  0  0  0  0  0  0
   55.3197   25.4136   46.4457 H   0  0  0  0  0  0  0  0  0  0  0  0
   56.1060   27.2120   45.6100 N   0  0  0  0  0  0  0  0  0  0  0  0
   55.1450   27.5040   45.3330 H   0  0  0  0  0  0  0  0  0  0  0  0
   58.7980   33.8250   44.9580 C   0  0  0  0  0  0  0  0  0  0  0  0
   58.9428   34.2275   43.9446 H   0  0  0  0  0  0  0  0  0  0  0  0
   59.3970   34.4600   46.0500 C   0  0  0  0  0  0  0  0  0  0  0  0
   60.0111   35.3588   45.8920 H   0  0  0  0  0  0  0  0  0  0  0  0
   59.2170   33.9530   47.3520 C   0  0  0  0  0  0  0  0  0  0  0  0
   59.7960   34.5520   48.4790 O   0  0  0  0  0  0  0  0  0  0  0  0
   61.0830   34.2210   48.9940 C   0  0  0  0  0  0  0  0  0  0  0  0
   61.0512   34.2292   50.0935 H   0  0  0  0  0  0  0  0  0  0  0  0
   61.3719   33.2193   48.6430 H   0  0  0  0  0  0  0  0  0  0  0  0
   61.8193   34.9590   48.6430 H   0  0  0  0  0  0  0  0  0  0  0  0
  1  2  1  0
  2  3  2  0
  3  4  1  0
  3  5  1  0
  5  6  1  0
  6  7  1  0
  6  8  1  0
  6  9  1  0
  9 10  1  0
 10 11  2  0
 10 12  1  0
 12 13  2  0
 13 14  1  0
 14 15  1  0
 14 16  2  0
 16 17  1  0
 17 18  1  0
 17 19  1  0
 17 20  1  0
 16 21  1  0
 21 22  1  0
 21 23  2  0
 23 24  1  0
 23 25  1  0
 25 26  1  0
  5 27  2  0
 27 28  1  0
 27 29  1  0
 29 30  1  0
 29 31  2  0
 31 32  1  0
 32 33  1  0
 33 34  1  0
 33 35  1  0
 33 36  1  0
 31  2  1  0
 25 13  1  0
M  CHG  1   9  -1
M  END
>  <UniqueID>  (40) 
35

>  <SMILES>  (40) 
COc1ccc(C[N-]C(=O)/N=c2/cc(C)cc[nH]2)cc1

>  <Energy>  (40) 
39.79751594436724

>  <Genealogy>  (40) 
COc1ccc(C[N-]C(=O)N=c2cc(C)cc[nH]2)cc1 (protonated)
COc1ccc(C[N-]C(=O)/N=c2/cc(C)cc[nH]2)cc1 (cis-trans isomerization)
COc1ccc(C[N-]C(=O)/N=c2/cc(C)cc[nH]2)cc1 (3D coordinates assigned)
COc1ccc(C[N-]C(=O)/N=c2/cc(C)cc[nH]2)cc1 (optimized conformer: 39.79751594436724 kcal/mol)

>  <smiles>  (40) 
COc1ccc(CNC(=O)N=c2cc(C)cc[nH]2)cc1

>  <score_type>  (40) 
oracle

>  <origin>  (40) 
adg

>  <m_score__min__energy>  (40) 
-8.4299999999999997

>  <m_primary>  (40) 
energy

$$$$
40:0
     RDKit          3D

 33 35  0  0  0  0  0  0  0  0999 V2000
   54.9930   29.3380   44.0010 O   0  0  0  0  0  0  0  0  0  0  0  0
   56.0140   29.8360   44.5440 C   0  0  0  0  0  0  0  0  0  0  0  0
   56.2080   31.2550   44.4920 N   0  0  0  0  0  0  0  0  0  0  0  0
   57.3940   31.9210   43.9540 C   0  0  0  0  0  0  0  0  0  0  0  0
   57.9940   32.8680   44.9560 C   0  0  0  0  0  0  0  0  0  0  0  0
   58.8000   33.9370   44.5280 C   0  0  0  0  0  0  0  0  0  0  0  0
   59.3530   34.8200   45.4610 C   0  0  0  0  0  0  0  0  0  0  0  0
   59.1160   34.6360   46.8260 C   0  0  0  0  0  0  0  0  0  0  0  0
   58.3320   33.5650   47.2610 C   0  0  0  0  0  0  0  0  0  0  0  0
   57.7790   32.6780   46.3330 C   0  0  0  0  0  0  0  0  0  0  0  0
   56.9830   28.9450   45.1930 C   0  0  0  0  0  0  0  0  0  0  0  0
   57.8580   29.3230   46.2070 C   0  0  0  0  0  0  0  0  0  0  0  0
   58.5740   28.1820   46.4970 C   0  0  0  0  0  0  0  0  0  0  0  0
   59.5780   27.9540   47.4360 C   0  0  0  0  0  0  0  0  0  0  0  0
   60.1330   26.6600   47.5060 C   0  0  0  0  0  0  0  0  0  0  0  0
   61.1390   26.3720   48.4260 O   0  0  0  0  0  0  0  0  0  0  0  0
   59.6720   25.6400   46.6410 C   0  0  0  0  0  0  0  0  0  0  0  0
   58.6570   25.9040   45.7020 C   0  0  0  0  0  0  0  0  0  0  0  0
   58.1300   27.1920   45.6590 C   0  0  0  0  0  0  0  0  0  0  0  0
   57.1630   27.6500   44.8480 N   0  0  0  0  0  0  0  0  0  0  0  0
   58.1423   31.1597   43.6885 H   0  0  0  0  0  0  0  0  0  0  0  0
   57.0939   32.4995   43.0678 H   0  0  0  0  0  0  0  0  0  0  0  0
   58.9966   34.0797   43.4552 H   0  0  0  0  0  0  0  0  0  0  0  0
   59.9753   35.6605   45.1200 H   0  0  0  0  0  0  0  0  0  0  0  0
   59.5470   35.3349   47.5580 H   0  0  0  0  0  0  0  0  0  0  0  0
   58.1494   33.4193   48.3359 H   0  0  0  0  0  0  0  0  0  0  0  0
   57.1734   31.8282   46.6809 H   0  0  0  0  0  0  0  0  0  0  0  0
   57.9563   30.3141   46.6740 H   0  0  0  0  0  0  0  0  0  0  0  0
   59.9263   28.7578   48.1012 H   0  0  0  0  0  0  0  0  0  0  0  0
   61.2850   26.9500   49.2460 H   0  0  0  0  0  0  0  0  0  0  0  0
   60.1100   24.6329   46.7026 H   0  0  0  0  0  0  0  0  0  0  0  0
   58.2921   25.1182   45.0242 H   0  0  0  0  0  0  0  0  0  0  0  0
   56.6690   27.1190   44.0960 H   0  0  0  0  0  0  0  0  0  0  0  0
  1  2  2  0
  2  3  1  0
  3  4  1  0
  4  5  1  0
  5  6  2  0
  6  7  1  0
  7  8  2  0
  8  9  1  0
  9 10  2  0
  2 11  1  0
 11 12  2  0
 12 13  1  0
 13 14  2  0
 14 15  1  0
 15 16  1  0
 15 17  2  0
 17 18  1  0
 18 19  2  0
 19 20  1  0
 10  5  1  0
 20 11  1  0
 19 13  1  0
  4 21  1  0
  4 22  1  0
  6 23  1  0
  7 24  1  0
  8 25  1  0
  9 26  1  0
 10 27  1  0
 12 28  1  0
 14 29  1  0
 16 30  1  0
 17 31  1  0
 18 32  1  0
 20 33  1  0
M  CHG  1   3  -1
M  END
>  <UniqueID>  (41) 
36

>  <SMILES>  (41) 
O=C([N-]Cc1ccccc1)c1cc2cc(O)ccc2[nH]1

>  <Energy>  (41) 
70.9515758461079

>  <Genealogy>  (41) 
O=C([N-]Cc1ccccc1)c1cc2cc(O)ccc2[nH]1 (protonated)
O=C([N-]Cc1ccccc1)c1cc2cc(O)ccc2[nH]1 (3D coordinates assigned)
O=C([N-]Cc1ccccc1)c1cc2cc(O)ccc2[nH]1 (optimized conformer: 70.9515758461079 kcal/mol)

>  <smiles>  (41) 
O=C(NCc1ccccc1)c1cc2cc(O)ccc2[nH]1

>  <score_type>  (41) 
oracle

>  <origin>  (41) 
adg

>  <m_score__min__energy>  (41) 
-9.0500000000000007

>  <m_primary>  (41) 
energy

$$$$
41:0
     RDKit          3D

 52 55  0  0  0  0  0  0  0  0999 V2000
   58.4310   28.2170   43.6770 C   0  0  0  0  0  0  0  0  0  0  0  0
   57.3550   28.0830   44.6780 N   0  0  1  0  0  0  0  0  0  0  0  0
   57.8520   27.5600   45.9740 C   0  0  0  0  0  0  0  0  0  0  0  0
   58.8040   28.4980   46.6910 C   0  0  0  0  0  0  0  0  0  0  0  0
   59.9670   28.9600   46.0500 C   0  0  0  0  0  0  0  0  0  0  0  0
   60.8480   29.8170   46.7170 C   0  0  0  0  0  0  0  0  0  0  0  0
   60.5750   30.2210   48.0270 C   0  0  0  0  0  0  0  0  0  0  0  0
   59.4160   29.7760   48.6690 C   0  0  0  0  0  0  0  0  0  0  0  0
   58.5320   28.9210   48.0040 C   0  0  0  0  0  0  0  0  0  0  0  0
   56.6240   29.3270   44.8580 C   0  0  0  0  0  0  0  0  0  0  0  0
   55.3640   29.3080   44.9630 O   0  0  0  0  0  0  0  0  0  0  0  0
   57.3050   30.6470   44.7940 C   0  0  0  0  0  0  0  0  0  0  0  0
   57.7720   31.3000   45.9520 C   0  0  0  0  0  0  0  0  0  0  0  0
   58.4130   32.5390   45.8570 C   0  0  0  0  0  0  0  0  0  0  0  0
   58.6140   33.1430   44.6110 C   0  0  0  0  0  0  0  0  0  0  0  0
   59.2630   34.4220   44.5630 N   0  0  0  0  0  0  0  0  0  0  0  0
   59.8140   35.1390   45.6750 C   0  0  0  0  0  0  0  0  0  0  0  0
   59.6420   36.3850   45.7820 O   0  0  0  0  0  0  0  0  0  0  0  0
   60.6150   34.4470   46.6400 N   0  0  0  0  0  0  0  0  0  0  0  0
   61.9010   33.8180   46.3320 C   0  0  0  0  0  0  0  0  0  0  0  0
   62.3020   33.2300   47.6330 C   0  0  0  0  0  0  0  0  0  0  0  0
   63.4580   32.5040   47.9260 C   0  0  0  0  0  0  0  0  0  0  0  0
   63.6410   32.0350   49.2380 C   0  0  0  0  0  0  0  0  0  0  0  0
   62.6740   32.2980   50.2270 C   0  0  0  0  0  0  0  0  0  0  0  0
   62.8570   31.8410   51.4910 F   0  0  0  0  0  0  0  0  0  0  0  0
   61.5180   33.0330   49.9100 C   0  0  0  0  0  0  0  0  0  0  0  0
   61.3560   33.4880   48.6000 C   0  0  0  0  0  0  0  0  0  0  0  0
   60.2290   34.2730   48.0420 C   0  0  0  0  0  0  0  0  0  0  0  0
   58.1200   32.5140   43.4550 C   0  0  0  0  0  0  0  0  0  0  0  0
   57.4720   31.2780   43.5480 C   0  0  0  0  0  0  0  0  0  0  0  0
   59.3964   28.3372   44.1903 H   0  0  0  0  0  0  0  0  0  0  0  0
   58.4603   27.3156   43.0473 H   0  0  0  0  0  0  0  0  0  0  0  0
   58.2383   29.0981   43.0473 H   0  0  0  0  0  0  0  0  0  0  0  0
   56.7070   27.3600   44.2930 H   0  0  0  0  0  0  0  0  0  0  0  0
   56.9869   27.3777   46.6285 H   0  0  0  0  0  0  0  0  0  0  0  0
   58.4152   26.6414   45.7527 H   0  0  0  0  0  0  0  0  0  0  0  0
   60.1850   28.6457   45.0186 H   0  0  0  0  0  0  0  0  0  0  0  0
   61.7568   30.1736   46.2102 H   0  0  0  0  0  0  0  0  0  0  0  0
   61.2726   30.8894   48.5529 H   0  0  0  0  0  0  0  0  0  0  0  0
   59.1992   30.0986   49.6980 H   0  0  0  0  0  0  0  0  0  0  0  0
   57.6183   28.5772   48.5110 H   0  0  0  0  0  0  0  0  0  0  0  0
   57.6313   30.8319   46.9374 H   0  0  0  0  0  0  0  0  0  0  0  0
   58.7624   33.0434   46.7700 H   0  0  0  0  0  0  0  0  0  0  0  0
   61.7866   33.0389   45.5640 H   0  0  0  0  0  0  0  0  0  0  0  0
   62.6427   34.5217   45.9262 H   0  0  0  0  0  0  0  0  0  0  0  0
   64.2087   32.3036   47.1473 H   0  0  0  0  0  0  0  0  0  0  0  0
   64.5434   31.4601   49.4933 H   0  0  0  0  0  0  0  0  0  0  0  0
   60.7583   33.2448   50.6769 H   0  0  0  0  0  0  0  0  0  0  0  0
   59.2816   33.7203   48.1261 H   0  0  0  0  0  0  0  0  0  0  0  0
   60.0596   35.2244   48.5675 H   0  0  0  0  0  0  0  0  0  0  0  0
   58.2435   32.9956   42.4738 H   0  0  0  0  0  0  0  0  0  0  0  0
   57.0890   30.7944   42.6373 H   0  0  0  0  0  0  0  0  0  0  0  0
  1  2  1  0
  2  3  1  0
  3  4  1  0
  4  5  2  0
  5  6  1  0
  6  7  2  0
  7  8  1  0
  8  9  2  0
  2 10  1  0
 10 11  2  0
 10 12  1  0
 12 13  2  0
 13 14  1  0
 14 15  2  0
 15 16  1  0
 16 17  1  0
 17 18  2  0
 17 19  1  0
 19 20  1  0
 20 21  1  0
 21 22  2  0
 22 23  1  0
 23 24  2  0
 24 25  1  0
 24 26  1  0
 26 27  2  0
 27 28  1  0
 15 29  1  0
 29 30  2  0
  9  4  1  0
 30 12  1  0
 28 19  1  0
 27 21  1  0
  1 31  1  0
  1 32  1  0
  1 33  1  0
  2 34  1  6
  3 35  1  0
  3 36  1  0
  5 37  1  0
  6 38  1  0
  7 39  1  0
  8 40  1  0
  9 41  1  0
 13 42  1  0
 14 43  1  0
 20 44  1  0
 20 45  1  0
 22 46  1  0
 23 47  1  0
 26 48  1  0
 28 49  1  0
 28 50  1  0
 29 51  1  0
 30 52  1  0
M  CHG  2   2   1  16  -1
M  END
>  <UniqueID>  (42) 
37

>  <SMILES>  (42) 
C[N@@H+](Cc1ccccc1)C(=O)c1ccc([N-]C(=O)N2Cc3ccc(F)cc3C2)cc1

>  <Energy>  (42) 
76.53253159422908

>  <Genealogy>  (42) 
C[NH+](Cc1ccccc1)C(=O)c1ccc([N-]C(=O)N2Cc3ccc(F)cc3C2)cc1 (protonated)
C[N@@H+](Cc1ccccc1)C(=O)c1ccc([N-]C(=O)N2Cc3ccc(F)cc3C2)cc1 (chirality)
C[N@@H+](Cc1ccccc1)C(=O)c1ccc([N-]C(=O)N2Cc3ccc(F)cc3C2)cc1 (3D coordinates assigned)
C[N@@H+](Cc1ccccc1)C(=O)c1ccc([N-]C(=O)N2Cc3ccc(F)cc3C2)cc1 (nonaromatic ring conformer: 76.53253159422908 kcal/mol)

>  <smiles>  (42) 
CN(Cc1ccccc1)C(=O)c1ccc(NC(=O)N2Cc3ccc(F)cc3C2)cc1

>  <score_type>  (42) 
oracle

>  <origin>  (42) 
adg

>  <m_score__min__energy>  (42) 
-8.3800000000000008

>  <m_primary>  (42) 
energy

$$$$
42:0
     RDKit          3D

 37 38  0  0  0  0  0  0  0  0999 V2000
   63.2940   33.8620   46.6190 C   0  0  0  0  0  0  0  0  0  0  0  0
   62.4480   33.2470   47.7270 C   0  0  0  0  0  0  0  0  0  0  0  0
   61.7170   34.2580   48.4160 O   0  0  0  0  0  0  0  0  0  0  0  0
   60.3170   34.3030   48.4690 C   0  0  0  0  0  0  0  0  0  0  0  0
   59.7330   34.6090   49.5450 O   0  0  0  0  0  0  0  0  0  0  0  0
   59.5280   33.9990   47.2560 C   0  0  0  0  0  0  0  0  0  0  0  0
   59.3740   34.9540   46.2370 C   0  0  0  0  0  0  0  0  0  0  0  0
   58.6510   34.6450   45.0840 C   0  0  0  0  0  0  0  0  0  0  0  0
   58.0880   33.3770   44.9260 C   0  0  0  0  0  0  0  0  0  0  0  0
   58.2370   32.4030   45.9240 C   0  0  0  0  0  0  0  0  0  0  0  0
   57.6800   31.0940   45.7170 N   0  0  0  0  0  0  0  0  0  0  0  0
   58.6410   29.6640   45.4930 S   0  0  0  0  0  0  0  0  0  0  0  0
   59.2470   29.7090   44.1180 O   0  0  0  0  0  0  0  0  0  0  0  0
   59.7540   29.6490   46.5010 O   0  0  0  0  0  0  0  0  0  0  0  0
   57.6420   28.2070   45.7220 C   0  0  0  0  0  0  0  0  0  0  0  0
   58.1900   27.0130   46.2490 C   0  0  0  0  0  0  0  0  0  0  0  0
   59.6360   26.8910   46.6340 C   0  0  0  0  0  0  0  0  0  0  0  0
   57.3820   25.9390   46.4530 N   0  0  0  0  0  0  0  0  0  0  0  0
   56.0630   25.9740   46.1480 C   0  0  0  0  0  0  0  0  0  0  0  0
   55.3430   24.9620   46.3490 O   0  0  0  0  0  0  0  0  0  0  0  0
   55.5180   27.0990   45.6240 N   0  0  0  0  0  0  0  0  0  0  0  0
   56.2690   28.2070   45.4040 C   0  0  0  0  0  0  0  0  0  0  0  0
   55.7170   29.2280   44.9160 O   0  0  0  0  0  0  0  0  0  0  0  0
   58.9400   32.7310   47.0980 C   0  0  0  0  0  0  0  0  0  0  0  0
   64.1076   34.4534   47.0643 H   0  0  0  0  0  0  0  0  0  0  0  0
   63.7207   33.0618   45.9964 H   0  0  0  0  0  0  0  0  0  0  0  0
   62.6645   34.5147   45.9964 H   0  0  0  0  0  0  0  0  0  0  0  0
   61.7427   32.5268   47.2866 H   0  0  0  0  0  0  0  0  0  0  0  0
   63.1122   32.7387   48.4414 H   0  0  0  0  0  0  0  0  0  0  0  0
   59.8258   35.9507   46.3486 H   0  0  0  0  0  0  0  0  0  0  0  0
   58.5242   35.4030   44.2970 H   0  0  0  0  0  0  0  0  0  0  0  0
   57.5235   33.1403   44.0121 H   0  0  0  0  0  0  0  0  0  0  0  0
   56.6490   30.9950   45.5830 H   0  0  0  0  0  0  0  0  0  0  0  0
   59.7241   26.8836   47.7304 H   0  0  0  0  0  0  0  0  0  0  0  0
   60.0461   25.9551   46.2268 H   0  0  0  0  0  0  0  0  0  0  0  0
   60.1972   27.7450   46.2268 H   0  0  0  0  0  0  0  0  0  0  0  0
   59.0309   31.9863   47.9025 H   0  0  0  0  0  0  0  0  0  0  0  0
  1  2  1  0
  2  3  1  0
  3  4  1  0
  4  5  2  0
  4  6  1  0
  6  7  2  0
  7  8  1  0
  8  9  2  0
  9 10  1  0
 10 11  1  0
 11 12  1  0
 12 13  2  0
 12 14  2  0
 12 15  1  0
 15 16  2  0
 16 17  1  0
 16 18  1  0
 18 19  1  0
 19 20  2  0
 19 21  1  0
 21 22  1  0
 22 23  2  0
 10 24  2  0
 24  6  1  0
 22 15  1  0
  1 25  1  0
  1 26  1  0
  1 27  1  0
  2 28  1  0
  2 29  1  0
  7 30  1  0
  8 31  1  0
  9 32  1  0
 11 33  1  0
 17 34  1  0
 17 35  1  0
 17 36  1  0
 24 37  1  0
M  CHG  2  18  -1  21  -1
M  END
>  <UniqueID>  (43) 
38

>  <SMILES>  (43) 
CCOC(=O)c1cccc(NS(=O)(=O)c2c(C)[n-]c(=O)[n-]c2=O)c1

>  <Energy>  (43) 
38.84419692288651

>  <Genealogy>  (43) 
CCOC(=O)c1cccc(NS(=O)(=O)c2c(C)[n-]c(=O)[n-]c2=O)c1 (protonated)
CCOC(=O)c1cccc(NS(=O)(=O)c2c(C)[n-]c(=O)[n-]c2=O)c1 (3D coordinates assigned)
CCOC(=O)c1cccc(NS(=O)(=O)c2c(C)[n-]c(=O)[n-]c2=O)c1 (optimized conformer: 38.84419692288651 kcal/mol)

>  <smiles>  (43) 
CCOC(=O)c1cccc(NS(=O)(=O)c2c(C)[nH]c(=O)[nH]c2=O)c1

>  <score_type>  (43) 
oracle

>  <origin>  (43) 
adg

>  <m_score__min__energy>  (43) 
-11.359999999999999

>  <m_primary>  (43) 
energy

$$$$
43:0
     RDKit          3D

 28 30  0  0  0  0  0  0  0  0999 V2000
   57.7180   32.1970   44.3160 C   0  0  0  0  0  0  0  0  0  0  0  0
   57.0010   31.1050   44.8790 O   0  0  0  0  0  0  0  0  0  0  0  0
   57.4980   29.7960   44.9770 C   0  0  0  0  0  0  0  0  0  0  0  0
   58.8510   29.4850   44.7480 C   0  0  0  0  0  0  0  0  0  0  0  0
   59.3010   28.1690   44.8570 C   0  0  0  0  0  0  0  0  0  0  0  0
   58.4090   27.1400   45.1960 C   0  0  0  0  0  0  0  0  0  0  0  0
   58.8640   25.8220   45.3040 C   0  0  0  0  0  0  0  0  0  0  0  0
   57.9830   24.7870   45.6420 C   0  0  0  0  0  0  0  0  0  0  0  0
   58.4460   23.5070   45.7430 N   0  0  0  0  0  0  0  0  0  0  0  0
   57.6260   22.4740   46.0680 C   0  0  0  0  0  0  0  0  0  0  0  0
   56.2740   22.6990   46.3100 C   0  0  0  0  0  0  0  0  0  0  0  0
   55.7590   23.9930   46.2180 C   0  0  0  0  0  0  0  0  0  0  0  0
   54.5310   24.1730   46.4420 O   0  0  0  0  0  0  0  0  0  0  0  0
   56.6120   25.0700   45.8790 C   0  0  0  0  0  0  0  0  0  0  0  0
   56.1500   26.4050   45.7700 C   0  0  0  0  0  0  0  0  0  0  0  0
   54.8100   26.7090   45.9970 O   0  0  0  0  0  0  0  0  0  0  0  0
   57.0460   27.4390   45.4290 C   0  0  0  0  0  0  0  0  0  0  0  0
   56.6070   28.7710   45.3160 C   0  0  0  0  0  0  0  0  0  0  0  0
   58.1281   32.8216   45.1233 H   0  0  0  0  0  0  0  0  0  0  0  0
   58.5409   31.8140   43.6947 H   0  0  0  0  0  0  0  0  0  0  0  0
   57.0394   32.7999   43.6947 H   0  0  0  0  0  0  0  0  0  0  0  0
   59.5582   30.2843   44.4814 H   0  0  0  0  0  0  0  0  0  0  0  0
   60.3609   27.9366   44.6762 H   0  0  0  0  0  0  0  0  0  0  0  0
   59.9249   25.5958   45.1216 H   0  0  0  0  0  0  0  0  0  0  0  0
   59.4560   23.2980   45.5690 H   0  0  0  0  0  0  0  0  0  0  0  0
   58.0326   21.4545   46.1403 H   0  0  0  0  0  0  0  0  0  0  0  0
   55.6134   21.8597   46.5729 H   0  0  0  0  0  0  0  0  0  0  0  0
   55.5486   29.0103   45.4966 H   0  0  0  0  0  0  0  0  0  0  0  0
  1  2  1  0
  2  3  1  0
  3  4  2  0
  4  5  1  0
  5  6  2  0
  6  7  1  0
  7  8  2  0
  8  9  1  0
  9 10  1  0
 10 11  2  0
 11 12  1  0
 12 13  2  0
 12 14  1  0
 14 15  2  0
 15 16  1  0
 15 17  1  0
 17 18  2  0
 18  3  1  0
 17  6  1  0
 14  8  1  0
  1 19  1  0
  1 20  1  0
  1 21  1  0
  4 22  1  0
  5 23  1  0
  7 24  1  0
  9 25  1  0
 10 26  1  0
 11 27  1  0
 18 28  1  0
M  CHG  1  16  -1
M  END
>  <UniqueID>  (44) 
39

>  <SMILES>  (44) 
COc1ccc2cc3[nH]ccc(=O)c3c([O-])c2c1

>  <Energy>  (44) 
40.76339831130147

>  <Genealogy>  (44) 
COc1ccc2cc3[nH]ccc(=O)c3c([O-])c2c1 (protonated)
COc1ccc2cc3[nH]ccc(=O)c3c([O-])c2c1 (3D coordinates assigned)
COc1ccc2cc3[nH]ccc(=O)c3c([O-])c2c1 (optimized conformer: 40.76339831130147 kcal/mol)

>  <smiles>  (44) 
COc1ccc2cc3[nH]ccc(=O)c3c(O)c2c1

>  <score_type>  (44) 
oracle

>  <origin>  (44) 
adg

>  <m_score__min__energy>  (44) 
-10.220000000000001

>  <m_primary>  (44) 
energy

$$$$
44:0
     RDKit          3D

 34 35  0  0  0  0  0  0  0  0999 V2000
   56.7130   34.5920   44.8700 S   0  0  0  0  0  0  0  0  0  0  0  0
   57.9460   33.7740   45.5830 C   0  0  0  0  0  0  0  0  0  0  0  0
   58.3720   32.4920   45.0830 N   0  0  0  0  0  0  0  0  0  0  0  0
   57.9480   31.9310   43.8010 C   0  0  0  0  0  0  0  0  0  0  0  0
   56.9960   30.7550   44.0250 C   0  0  0  0  0  0  0  0  0  0  0  0
   57.7710   29.5020   44.3300 C   0  0  0  0  0  0  0  0  0  0  0  0
   58.8190   29.5310   45.2630 C   0  0  0  0  0  0  0  0  0  0  0  0
   59.5070   28.3540   45.5590 C   0  0  0  0  0  0  0  0  0  0  0  0
   59.1410   27.1610   44.9350 C   0  0  0  0  0  0  0  0  0  0  0  0
   58.0850   27.1630   44.0230 C   0  0  0  0  0  0  0  0  0  0  0  0
   57.4230   28.3190   43.7430 N   0  0  0  0  0  0  0  0  0  0  0  0
   58.5000   34.2960   46.8000 N   0  0  0  0  0  0  0  0  0  0  0  0
   59.8390   34.0320   47.2510 C   0  0  0  0  0  0  0  0  0  0  0  0
   60.8590   33.8410   46.3080 C   0  0  0  0  0  0  0  0  0  0  0  0
   62.1620   33.5600   46.7250 C   0  0  0  0  0  0  0  0  0  0  0  0
   62.4610   33.4500   48.0870 C   0  0  0  0  0  0  0  0  0  0  0  0
   64.1130   33.0940   48.5710 Cl  0  0  0  0  0  0  0  0  0  0  0  0
   61.4420   33.6150   49.0380 C   0  0  0  0  0  0  0  0  0  0  0  0
   61.7690   33.4650   50.7600 Cl  0  0  0  0  0  0  0  0  0  0  0  0
   60.1350   33.8970   48.6190 C   0  0  0  0  0  0  0  0  0  0  0  0
   59.0100   31.9120   45.6710 H   0  0  0  0  0  0  0  0  0  0  0  0
   57.4334   32.7084   43.2172 H   0  0  0  0  0  0  0  0  0  0  0  0
   58.8344   31.5749   43.2556 H   0  0  0  0  0  0  0  0  0  0  0  0
   56.3302   30.9839   44.8702 H   0  0  0  0  0  0  0  0  0  0  0  0
   56.4058   30.5952   43.1106 H   0  0  0  0  0  0  0  0  0  0  0  0
   59.0957   30.4741   45.7569 H   0  0  0  0  0  0  0  0  0  0  0  0
   60.3357   28.3665   46.2823 H   0  0  0  0  0  0  0  0  0  0  0  0
   59.6794   26.2285   45.1597 H   0  0  0  0  0  0  0  0  0  0  0  0
   57.7863   26.2269   43.5284 H   0  0  0  0  0  0  0  0  0  0  0  0
   56.6300   28.2890   43.0630 H   0  0  0  0  0  0  0  0  0  0  0  0
   57.8930   34.9040   47.3950 H   0  0  0  0  0  0  0  0  0  0  0  0
   60.6317   33.9129   45.2341 H   0  0  0  0  0  0  0  0  0  0  0  0
   62.9579   33.4244   45.9779 H   0  0  0  0  0  0  0  0  0  0  0  0
   59.3352   34.0135   49.3652 H   0  0  0  0  0  0  0  0  0  0  0  0
  1  2  2  0
  2  3  1  0
  3  4  1  0
  4  5  1  0
  5  6  1  0
  6  7  2  0
  7  8  1  0
  8  9  2  0
  9 10  1  0
 10 11  2  0
  2 12  1  0
 12 13  1  0
 13 14  2  0
 14 15  1  0
 15 16  2  0
 16 17  1  0
 16 18  1  0
 18 19  1  0
 18 20  2  0
 11  6  1  0
 20 13  1  0
  3 21  1  0
  4 22  1  0
  4 23  1  0
  5 24  1  0
  5 25  1  0
  7 26  1  0
  8 27  1  0
  9 28  1  0
 10 29  1  0
 11 30  1  0
 12 31  1  0
 14 32  1  0
 15 33  1  0
 20 34  1  0
M  CHG  1  11   1
M  END
>  <UniqueID>  (45) 
40

>  <SMILES>  (45) 
S=C(NCCc1cccc[nH+]1)Nc1ccc(Cl)c(Cl)c1

>  <Energy>  (45) 
35.46726247454921

>  <Genealogy>  (45) 
S=C(NCCc1cccc[nH+]1)Nc1ccc(Cl)c(Cl)c1 (protonated)
S=C(NCCc1cccc[nH+]1)Nc1ccc(Cl)c(Cl)c1 (3D coordinates assigned)
S=C(NCCc1cccc[nH+]1)Nc1ccc(Cl)c(Cl)c1 (optimized conformer: 35.46726247454921 kcal/mol)

>  <smiles>  (45) 
S=C(NCCc1ccccn1)Nc1ccc(Cl)c(Cl)c1

>  <score_type>  (45) 
oracle

>  <origin>  (45) 
adg

>  <m_score__min__energy>  (45) 
-5.6900000000000004

>  <m_primary>  (45) 
energy

$$$$
45:0
     RDKit          3D

 46 50  0  0  0  0  0  0  0  0999 V2000
   55.1460   27.3660   46.0110 H   0  0  0  0  0  0  0  0  0  0  0  0
   54.9170   26.3470   46.0060 N   0  0  0  0  0  0  0  0  0  0  0  0
   55.9160   25.3720   46.2940 C   0  0  0  0  0  0  0  0  0  0  0  0
   55.7820   24.1920   45.8720 O   0  0  0  0  0  0  0  0  0  0  0  0
   57.1050   25.7420   47.1230 C   0  0  0  0  0  0  0  0  0  0  0  0
   56.7870   26.4217   47.9273 H   0  0  0  0  0  0  0  0  0  0  0  0
   57.5392   24.8249   47.5477 H   0  0  0  0  0  0  0  0  0  0  0  0
   58.0940   26.3910   46.3250 O   0  0  0  0  0  0  0  0  0  0  0  0
   58.4420   27.7490   46.4130 C   0  0  0  0  0  0  0  0  0  0  0  0
   59.4940   28.2260   47.2280 C   0  0  0  0  0  0  0  0  0  0  0  0
   60.1068   27.5115   47.7971 H   0  0  0  0  0  0  0  0  0  0  0  0
   59.7690   29.6130   47.3210 C   0  0  0  0  0  0  0  0  0  0  0  0
   60.8530   30.1310   48.1950 C   0  0  0  0  0  0  0  0  0  0  0  0
   61.6560   31.1320   47.7370 N   0  0  0  0  0  0  0  0  0  0  0  0
   62.6570   31.6470   48.4950 C   0  0  0  0  0  0  0  0  0  0  0  0
   63.4710   32.6730   48.0000 C   0  0  0  0  0  0  0  0  0  0  0  0
   63.3031   33.0719   46.9887 H   0  0  0  0  0  0  0  0  0  0  0  0
   64.4990   33.1890   48.7970 C   0  0  0  0  0  0  0  0  0  0  0  0
   65.1406   33.9944   48.4101 H   0  0  0  0  0  0  0  0  0  0  0  0
   64.7140   32.6840   50.0850 C   0  0  0  0  0  0  0  0  0  0  0  0
   65.5244   33.0928   50.7064 H   0  0  0  0  0  0  0  0  0  0  0  0
   63.9000   31.6600   50.5840 C   0  0  0  0  0  0  0  0  0  0  0  0
   64.0680   31.2664   51.5973 H   0  0  0  0  0  0  0  0  0  0  0  0
   62.8730   31.1390   49.7910 C   0  0  0  0  0  0  0  0  0  0  0  0
   62.0680   30.1500   50.2580 N   0  0  0  0  0  0  0  0  0  0  0  0
   61.0660   29.6350   49.4960 C   0  0  0  0  0  0  0  0  0  0  0  0
   60.4248   28.8347   49.8940 H   0  0  0  0  0  0  0  0  0  0  0  0
   59.0070   30.5210   46.5560 C   0  0  0  0  0  0  0  0  0  0  0  0
   59.1848   31.6035   46.6373 H   0  0  0  0  0  0  0  0  0  0  0  0
   58.0240   30.0290   45.6940 C   0  0  0  0  0  0  0  0  0  0  0  0
   57.7180   28.6800   45.6680 C   0  0  0  0  0  0  0  0  0  0  0  0
   56.5690   28.3810   44.8770 N   0  0  0  0  0  0  0  0  0  0  0  0
   56.1570   29.6590   44.3980 C   0  0  0  0  0  0  0  0  0  0  0  0
   55.1500   29.8200   43.6590 O   0  0  0  0  0  0  0  0  0  0  0  0
   57.0540   30.7270   44.8400 C   0  0  0  0  0  0  0  0  0  0  0  0
   56.9720   32.0140   44.4700 C   0  0  0  0  0  0  0  0  0  0  0  0
   56.2906   32.2647   43.6437 H   0  0  0  0  0  0  0  0  0  0  0  0
   57.7270   33.1140   45.0890 C   0  0  0  0  0  0  0  0  0  0  0  0
   57.6490   33.5080   46.4150 C   0  0  0  0  0  0  0  0  0  0  0  0
   56.9584   33.1221   47.1793 H   0  0  0  0  0  0  0  0  0  0  0  0
   58.6120   34.4820   46.5840 C   0  0  0  0  0  0  0  0  0  0  0  0
   58.8274   35.0403   47.5070 H   0  0  0  0  0  0  0  0  0  0  0  0
   59.2530   34.6190   45.3670 C   0  0  0  0  0  0  0  0  0  0  0  0
   60.0782   35.3175   45.1641 H   0  0  0  0  0  0  0  0  0  0  0  0
   58.7200   33.7730   44.4670 N   0  0  0  0  0  0  0  0  0  0  0  0
   59.0290   33.6490   43.4770 H   0  0  0  0  0  0  0  0  0  0  0  0
  1  2  1  0
  2  3  1  0
  3  4  2  0
  3  5  1  0
  5  6  1  0
  5  7  1  0
  5  8  1  0
  8  9  1  0
  9 10  2  0
 10 11  1  0
 10 12  1  0
 12 13  1  0
 13 14  2  0
 14 15  1  0
 15 16  2  0
 16 17  1  0
 16 18  1  0
 18 19  1  0
 18 20  2  0
 20 21  1  0
 20 22  1  0
 22 23  1  0
 22 24  2  0
 24 25  1  0
 25 26  2  0
 26 27  1  0
 12 28  2  0
 28 29  1  0
 28 30  1  0
 30 31  2  0
 31 32  1  0
 32 33  1  0
 33 34  2  0
 33 35  1  0
 35 36  2  0
 36 37  1  0
 36 38  1  0
 38 39  2  0
 39 40  1  0
 39 41  1  0
 41 42  1  0
 41 43  2  0
 43 44  1  0
 43 45  1  0
 45 46  1  0
 31  9  1  0
 45 38  1  0
 26 13  1  0
 35 30  1  0
 24 15  1  0
M  CHG  2   2  -1  32  -1
M  END
>  <UniqueID>  (46) 
41

>  <SMILES>  (46) 
[NH-]C(=O)COc1cc(-c2cnc3ccccc3n2)cc2c1[N-]C(=O)/C2=C/c1ccc[nH]1

>  <Energy>  (46) 
119.5341175873087

>  <Genealogy>  (46) 
[NH-]C(=O)COc1cc(-c2cnc3ccccc3n2)cc2c1[N-]C(=O)C2=Cc1ccc[nH]1 (protonated)
[NH-]C(=O)COc1cc(-c2cnc3ccccc3n2)cc2c1[N-]C(=O)/C2=C/c1ccc[nH]1 (cis-trans isomerization)
[NH-]C(=O)COc1cc(-c2cnc3ccccc3n2)cc2c1[N-]C(=O)/C2=C/c1ccc[nH]1 (3D coordinates assigned)
[NH-]C(=O)COc1cc(-c2cnc3ccccc3n2)cc2c1[N-]C(=O)/C2=C/c1ccc[nH]1 (nonaromatic ring conformer: 119.5341175873087 kcal/mol)

>  <smiles>  (46) 
NC(=O)COc1cc(-c2cnc3ccccc3n2)cc2c1NC(=O)C2=Cc1ccc[nH]1

>  <score_type>  (46) 
oracle

>  <origin>  (46) 
adg

>  <m_score__min__energy>  (46) 
-14.76

>  <m_primary>  (46) 
energy

$$$$
46:0
     RDKit          3D

 19 20  0  0  0  0  0  0  0  0999 V2000
   60.3400   34.4900   47.7130 C   0  0  0  0  0  0  0  0  0  0  0  0
   59.5550   34.3570   46.4610 C   0  0  0  0  0  0  0  0  0  0  0  0
   59.4510   35.2470   45.4970 O   0  0  0  0  0  0  0  0  0  0  0  0
   58.6840   34.8010   44.5490 N   0  0  0  0  0  0  0  0  0  0  0  0
   58.2380   33.5620   44.8610 C   0  0  0  0  0  0  0  0  0  0  0  0
   57.4490   32.6460   44.2870 N   0  0  0  0  0  0  0  0  0  0  0  0
   57.1970   31.4610   44.8880 C   0  0  0  0  0  0  0  0  0  0  0  0
   56.3210   30.4720   44.2280 C   0  0  0  0  0  0  0  0  0  0  0  0
   56.2830   30.3890   42.9730 O   0  0  0  0  0  0  0  0  0  0  0  0
   55.5410   29.6370   45.0070 O   0  0  0  0  0  0  0  0  0  0  0  0
   57.7290   31.1430   46.0960 N   0  0  0  0  0  0  0  0  0  0  0  0
   58.5310   32.0680   46.6830 C   0  0  0  0  0  0  0  0  0  0  0  0
   59.0140   31.7480   47.8060 O   0  0  0  0  0  0  0  0  0  0  0  0
   58.8010   33.2830   46.0880 C   0  0  0  0  0  0  0  0  0  0  0  0
   59.6712   34.3767   48.5789 H   0  0  0  0  0  0  0  0  0  0  0  0
   61.1154   33.7104   47.7441 H   0  0  0  0  0  0  0  0  0  0  0  0
   60.8154   35.4815   47.7441 H   0  0  0  0  0  0  0  0  0  0  0  0
   57.0360   32.8830   43.3590 H   0  0  0  0  0  0  0  0  0  0  0  0
   55.5550   29.7140   45.9970 H   0  0  0  0  0  0  0  0  0  0  0  0
  1  2  1  0
  2  3  1  0
  3  4  1  0
  4  5  2  0
  5  6  1  0
  6  7  1  0
  7  8  1  0
  8  9  2  0
  8 10  1  0
  7 11  2  0
 11 12  1  0
 12 13  2  0
 12 14  1  0
 14  2  2  0
 14  5  1  0
  1 15  1  0
  1 16  1  0
  1 17  1  0
  6 18  1  0
 10 19  1  0
M  END
>  <smiles>  (47) 
Cc1onc2[nH]c(C(=O)O)nc(=O)c12

>  <score_type>  (47) 
oracle

>  <origin>  (47) 
adg

>  <m_score__min__energy>  (47) 
-6.4100000000000001

>  <m_primary>  (47) 
energy

$$$$
47:0
     RDKit          3D

 52 54  0  0  0  0  0  0  0  0999 V2000
   59.7630   29.0120   48.6850 C   0  0  0  0  0  0  0  0  0  0  0  0
   58.5220   28.4580   48.2600 O   0  0  0  0  0  0  0  0  0  0  0  0
   58.3740   27.5320   47.2120 C   0  0  0  0  0  0  0  0  0  0  0  0
   58.2020   26.1590   47.4670 C   0  0  0  0  0  0  0  0  0  0  0  0
   58.0470   25.2610   46.4160 C   0  0  0  0  0  0  0  0  0  0  0  0
   58.0700   25.7110   45.0990 C   0  0  0  0  0  0  0  0  0  0  0  0
   58.2580   27.0720   44.8060 C   0  0  0  0  0  0  0  0  0  0  0  0
   58.2390   27.4880   43.3480 C   0  0  0  0  0  0  0  0  0  0  0  0
   57.3080   28.5950   43.1340 N   0  0  0  0  0  0  0  0  0  0  0  0
   58.4000   28.0010   45.8770 C   0  0  0  0  0  0  0  0  0  0  0  0
   58.5800   29.4900   45.6470 C   0  0  0  0  0  0  0  0  0  0  0  0
   57.3000   30.1350   45.3730 N   0  0  0  0  0  0  0  0  0  0  0  0
   57.1350   31.2780   44.5270 C   0  0  0  0  0  0  0  0  0  0  0  0
   57.3040   31.1880   43.2820 O   0  0  0  0  0  0  0  0  0  0  0  0
   56.6750   32.5720   45.1230 C   0  0  0  0  0  0  0  0  0  0  0  0
   57.8660   33.3820   45.5620 C   0  0  0  0  0  0  0  0  0  0  0  0
   58.2890   34.4980   44.8230 C   0  0  0  0  0  0  0  0  0  0  0  0
   59.3710   35.2660   45.2660 C   0  0  0  0  0  0  0  0  0  0  0  0
   60.0200   34.9420   46.4610 C   0  0  0  0  0  0  0  0  0  0  0  0
   59.5900   33.8500   47.2240 C   0  0  0  0  0  0  0  0  0  0  0  0
   60.2350   33.5720   48.4380 O   0  0  0  0  0  0  0  0  0  0  0  0
   61.6210   33.4080   48.5920 C   0  0  0  0  0  0  0  0  0  0  0  0
   62.3570   32.8650   47.5300 C   0  0  0  0  0  0  0  0  0  0  0  0
   63.7400   32.6920   47.6450 C   0  0  0  0  0  0  0  0  0  0  0  0
   64.3990   33.0700   48.8190 C   0  0  0  0  0  0  0  0  0  0  0  0
   63.6770   33.6300   49.8760 C   0  0  0  0  0  0  0  0  0  0  0  0
   62.2950   33.8080   49.7630 C   0  0  0  0  0  0  0  0  0  0  0  0
   58.5410   33.0470   46.7480 C   0  0  0  0  0  0  0  0  0  0  0  0
   59.7999   29.0285   49.7843 H   0  0  0  0  0  0  0  0  0  0  0  0
   60.5900   28.3976   48.2995 H   0  0  0  0  0  0  0  0  0  0  0  0
   59.8578   30.0379   48.2995 H   0  0  0  0  0  0  0  0  0  0  0  0
   58.1900   25.7933   48.5044 H   0  0  0  0  0  0  0  0  0  0  0  0
   57.9056   24.1906   46.6266 H   0  0  0  0  0  0  0  0  0  0  0  0
   57.9393   24.9917   44.2771 H   0  0  0  0  0  0  0  0  0  0  0  0
   59.2496   27.8045   43.0505 H   0  0  0  0  0  0  0  0  0  0  0  0
   57.9112   26.6306   42.7418 H   0  0  0  0  0  0  0  0  0  0  0  0
   57.7070   29.2450   42.4200 H   0  0  0  0  0  0  0  0  0  0  0  0
   56.3930   28.2260   42.7830 H   0  0  0  0  0  0  0  0  0  0  0  0
   57.1520   29.1230   44.0230 H   0  0  0  0  0  0  0  0  0  0  0  0
   59.0254   29.9416   46.5457 H   0  0  0  0  0  0  0  0  0  0  0  0
   59.2381   29.6334   44.7773 H   0  0  0  0  0  0  0  0  0  0  0  0
   56.1050   33.1381   44.3716 H   0  0  0  0  0  0  0  0  0  0  0  0
   56.0355   32.3644   45.9936 H   0  0  0  0  0  0  0  0  0  0  0  0
   57.7682   34.7694   43.8929 H   0  0  0  0  0  0  0  0  0  0  0  0
   59.7120   36.1271   44.6725 H   0  0  0  0  0  0  0  0  0  0  0  0
   60.8721   35.5477   46.8032 H   0  0  0  0  0  0  0  0  0  0  0  0
   61.8443   32.5735   46.6015 H   0  0  0  0  0  0  0  0  0  0  0  0
   64.3103   32.2579   46.8106 H   0  0  0  0  0  0  0  0  0  0  0  0
   65.4858   32.9265   48.9103 H   0  0  0  0  0  0  0  0  0  0  0  0
   64.1964   33.9310   50.7978 H   0  0  0  0  0  0  0  0  0  0  0  0
   61.7315   34.2621   50.5915 H   0  0  0  0  0  0  0  0  0  0  0  0
   58.2451   32.1479   47.3084 H   0  0  0  0  0  0  0  0  0  0  0  0
  1  2  1  0
  2  3  1  0
  3  4  2  0
  4  5  1  0
  5  6  2  0
  6  7  1  0
  7  8  1  0
  8  9  1  0
  7 10  2  0
 10 11  1  0
 11 12  1  0
 12 13  1  0
 13 14  2  0
 13 15  1  0
 15 16  1  0
 16 17  2  0
 17 18  1  0
 18 19  2  0
 19 20  1  0
 20 21  1  0
 21 22  1  0
 22 23  2  0
 23 24  1  0
 24 25  2  0
 25 26  1  0
 26 27  2  0
 20 28  2  0
 10  3  1  0
 28 16  1  0
 27 22  1  0
  1 29  1  0
  1 30  1  0
  1 31  1  0
  4 32  1  0
  5 33  1  0
  6 34  1  0
  8 35  1  0
  8 36  1  0
  9 37  1  0
  9 38  1  0
  9 39  1  0
 11 40  1  0
 11 41  1  0
 15 42  1  0
 15 43  1  0
 17 44  1  0
 18 45  1  0
 19 46  1  0
 23 47  1  0
 24 48  1  0
 25 49  1  0
 26 50  1  0
 27 51  1  0
 28 52  1  0
M  CHG  2   9   1  12  -1
M  END
>  <UniqueID>  (48) 
42

>  <SMILES>  (48) 
COc1cccc(C[NH3+])c1C[N-]C(=O)Cc1cccc(Oc2ccccc2)c1

>  <Energy>  (48) 
57.553154164246216

>  <Genealogy>  (48) 
COc1cccc(C[NH3+])c1C[N-]C(=O)Cc1cccc(Oc2ccccc2)c1 (protonated)
COc1cccc(C[NH3+])c1C[N-]C(=O)Cc1cccc(Oc2ccccc2)c1 (3D coordinates assigned)
COc1cccc(C[NH3+])c1C[N-]C(=O)Cc1cccc(Oc2ccccc2)c1 (optimized conformer: 57.553154164246216 kcal/mol)

>  <smiles>  (48) 
COc1cccc(CN)c1CNC(=O)Cc1cccc(Oc2ccccc2)c1

>  <score_type>  (48) 
oracle

>  <origin>  (48) 
adg

>  <m_score__min__energy>  (48) 
-8.7100000000000009

>  <m_primary>  (48) 
energy

$$$$
48:0
     RDKit          3D

 49 52  0  0  0  0  0  0  0  0999 V2000
   55.1230   23.9647   44.2684 H   0  0  0  0  0  0  0  0  0  0  0  0
   55.8440   24.5020   44.9020 C   0  0  0  0  0  0  0  0  0  0  0  0
   55.4090   25.2050   45.9810 N   0  0  0  0  0  0  0  0  0  0  0  0
   56.2690   25.8770   46.7920 C   0  0  0  0  0  0  0  0  0  0  0  0
   55.8826   26.4411   47.6537 H   0  0  0  0  0  0  0  0  0  0  0  0
   57.6480   25.8530   46.5330 C   0  0  0  0  0  0  0  0  0  0  0  0
   58.6080   26.6020   47.4210 C   0  0  0  0  0  0  0  0  0  0  0  0
   59.5983   26.6236   46.9426 H   0  0  0  0  0  0  0  0  0  0  0  0
   58.6602   26.0883   48.3923 H   0  0  0  0  0  0  0  0  0  0  0  0
   58.1540   27.9760   47.6440 N   0  0  0  0  0  0  0  0  0  0  0  0
   58.4760   29.0300   46.9450 C   0  0  0  0  0  0  0  0  0  0  0  0
   57.7650   29.3410   45.8320 N   0  0  0  0  0  0  0  0  0  0  0  0
   56.7230   28.6850   45.3420 N   0  0  0  0  0  0  0  0  0  0  0  0
   56.3270   29.3510   44.2330 C   0  0  0  0  0  0  0  0  0  0  0  0
   55.4792   29.0663   43.5926 H   0  0  0  0  0  0  0  0  0  0  0  0
   57.1530   30.4490   44.0250 C   0  0  0  0  0  0  0  0  0  0  0  0
   57.0400   31.4820   42.9520 C   0  0  0  0  0  0  0  0  0  0  0  0
   56.9313   32.4761   43.4101 H   0  0  0  0  0  0  0  0  0  0  0  0
   57.9456   31.4630   42.3279 H   0  0  0  0  0  0  0  0  0  0  0  0
   56.1599   31.2676   42.3279 H   0  0  0  0  0  0  0  0  0  0  0  0
   58.0460   30.4060   45.0720 C   0  0  0  0  0  0  0  0  0  0  0  0
   59.0940   31.2600   45.3900 C   0  0  0  0  0  0  0  0  0  0  0  0
   59.3260   32.1398   44.7719 H   0  0  0  0  0  0  0  0  0  0  0  0
   59.8470   30.9490   46.5400 C   0  0  0  0  0  0  0  0  0  0  0  0
   60.9920   31.8090   46.9300 C   0  0  0  0  0  0  0  0  0  0  0  0
   62.2150   31.2100   47.2810 C   0  0  0  0  0  0  0  0  0  0  0  0
   62.2993   30.1134   47.3020 H   0  0  0  0  0  0  0  0  0  0  0  0
   63.3230   31.9960   47.6030 C   0  0  0  0  0  0  0  0  0  0  0  0
   64.2748   31.5170   47.8763 H   0  0  0  0  0  0  0  0  0  0  0  0
   63.2260   33.3860   47.5790 C   0  0  0  0  0  0  0  0  0  0  0  0
   64.1030   34.0019   47.8269 H   0  0  0  0  0  0  0  0  0  0  0  0
   62.0180   33.9980   47.2410 C   0  0  0  0  0  0  0  0  0  0  0  0
   61.9478   35.0956   47.2242 H   0  0  0  0  0  0  0  0  0  0  0  0
   60.8910   33.2220   46.9220 C   0  0  0  0  0  0  0  0  0  0  0  0
   59.6440   33.8780   46.6250 N   0  0  0  0  0  0  0  0  0  0  0  0
   59.5690   34.8330   45.5200 C   0  0  0  0  0  0  0  0  0  0  0  0
   59.4888   35.8537   45.9223 H   0  0  0  0  0  0  0  0  0  0  0  0
   60.4763   34.7522   44.9033 H   0  0  0  0  0  0  0  0  0  0  0  0
   58.6855   34.6115   44.9033 H   0  0  0  0  0  0  0  0  0  0  0  0
   58.5580   33.8520   47.6040 C   0  0  0  0  0  0  0  0  0  0  0  0
   58.9798   33.8621   48.6199 H   0  0  0  0  0  0  0  0  0  0  0  0
   57.9172   34.7351   47.4643 H   0  0  0  0  0  0  0  0  0  0  0  0
   57.9601   32.9393   47.4643 H   0  0  0  0  0  0  0  0  0  0  0  0
   59.5200   29.8490   47.2950 N   0  0  0  0  0  0  0  0  0  0  0  0
   60.0760   29.6590   48.1550 H   0  0  0  0  0  0  0  0  0  0  0  0
   58.1090   25.1450   45.4130 C   0  0  0  0  0  0  0  0  0  0  0  0
   59.1833   25.1284   45.1773 H   0  0  0  0  0  0  0  0  0  0  0  0
   57.2060   24.4620   44.5980 C   0  0  0  0  0  0  0  0  0  0  0  0
   57.5636   23.8974   43.7243 H   0  0  0  0  0  0  0  0  0  0  0  0
  1  2  1  0
  2  3  2  0
  3  4  1  0
  4  5  1  0
  4  6  2  0
  6  7  1  0
  7  8  1  0
  7  9  1  0
  7 10  1  0
 10 11  2  0
 11 12  1  0
 12 13  1  0
 13 14  1  0
 14 15  1  0
 14 16  2  0
 16 17  1  0
 17 18  1  0
 17 19  1  0
 17 20  1  0
 16 21  1  0
 21 22  2  0
 22 23  1  0
 22 24  1  0
 24 25  1  0
 25 26  2  0
 26 27  1  0
 26 28  1  0
 28 29  1  0
 28 30  2  0
 30 31  1  0
 30 32  1  0
 32 33  1  0
 32 34  2  0
 34 35  1  0
 35 36  1  0
 36 37  1  0
 36 38  1  0
 36 39  1  0
 35 40  1  0
 40 41  1  0
 40 42  1  0
 40 43  1  0
 24 44  2  0
 44 45  1  0
  6 46  1  0
 46 47  1  0
 46 48  2  0
 48 49  1  0
 48  2  1  0
 44 11  1  0
 21 12  1  0
 34 25  1  0
M  CHG  2  13  -1  44   1
M  END
>  <UniqueID>  (49) 
43

>  <SMILES>  (49) 
Cc1c[n-]n2/c(=N/Cc3cccnc3)[nH+]c(-c3ccccc3N(C)C)cc12

>  <Energy>  (49) 
97.66322045607258

>  <Genealogy>  (49) 
Cc1c[n-]n2c(=NCc3cccnc3)[nH+]c(-c3ccccc3N(C)C)cc12 (protonated)
Cc1c[n-]n2/c(=N/Cc3cccnc3)[nH+]c(-c3ccccc3N(C)C)cc12 (cis-trans isomerization)
Cc1c[n-]n2/c(=N/Cc3cccnc3)[nH+]c(-c3ccccc3N(C)C)cc12 (3D coordinates assigned)
Cc1c[n-]n2/c(=N/Cc3cccnc3)[nH+]c(-c3ccccc3N(C)C)cc12 (optimized conformer: 97.66322045607258 kcal/mol)

>  <smiles>  (49) 
Cc1c[nH]n2c(=NCc3cccnc3)nc(-c3ccccc3N(C)C)cc12

>  <score_type>  (49) 
oracle

>  <origin>  (49) 
adg

>  <m_score__min__energy>  (49) 
-7.75

>  <m_primary>  (49) 
energy

$$$$
49:0
     RDKit          3D

 44 47  0  0  0  0  0  0  0  0999 V2000
   56.7390   21.2710   43.0050 C   0  0  0  0  0  0  0  0  0  0  0  0
   55.7720   22.2550   43.3620 O   0  0  0  0  0  0  0  0  0  0  0  0
   56.0440   23.3750   44.1600 C   0  0  0  0  0  0  0  0  0  0  0  0
   57.2210   24.0940   43.9300 C   0  0  0  0  0  0  0  0  0  0  0  0
   57.5370   25.1990   44.7210 C   0  0  0  0  0  0  0  0  0  0  0  0
   56.6660   25.5790   45.7510 C   0  0  0  0  0  0  0  0  0  0  0  0
   57.0090   26.7210   46.6690 C   0  0  0  0  0  0  0  0  0  0  0  0
   56.9540   27.9920   45.9450 N   0  0  0  0  0  0  0  0  0  0  0  0
   55.8940   28.4060   45.2580 N   0  0  0  0  0  0  0  0  0  0  0  0
   56.1730   29.6480   44.8000 C   0  0  0  0  0  0  0  0  0  0  0  0
   55.3750   30.3440   44.1190 O   0  0  0  0  0  0  0  0  0  0  0  0
   57.4300   30.0290   45.2120 C   0  0  0  0  0  0  0  0  0  0  0  0
   58.1520   31.2120   45.0830 C   0  0  0  0  0  0  0  0  0  0  0  0
   59.4010   31.2830   45.7290 C   0  0  0  0  0  0  0  0  0  0  0  0
   59.9040   30.1760   46.4680 C   0  0  0  0  0  0  0  0  0  0  0  0
   61.1410   30.2850   47.2000 N   0  0  0  0  0  0  0  0  0  0  0  0
   61.2740   31.6250   47.7160 C   0  0  0  0  0  0  0  0  0  0  0  0
   62.3860   32.4180   47.3690 C   0  0  0  0  0  0  0  0  0  0  0  0
   62.5410   33.6940   47.9180 C   0  0  0  0  0  0  0  0  0  0  0  0
   61.6010   34.1870   48.8240 C   0  0  0  0  0  0  0  0  0  0  0  0
   60.4960   33.4070   49.1800 C   0  0  0  0  0  0  0  0  0  0  0  0
   60.3330   32.1320   48.6300 C   0  0  0  0  0  0  0  0  0  0  0  0
   59.1420   28.9860   46.5480 C   0  0  0  0  0  0  0  0  0  0  0  0
   57.8980   28.9590   45.9200 C   0  0  0  0  0  0  0  0  0  0  0  0
   55.5120   24.8830   45.9460 N   0  0  0  0  0  0  0  0  0  0  0  0
   55.1820   23.8050   45.1860 C   0  0  0  0  0  0  0  0  0  0  0  0
   57.1699   20.8325   43.9172 H   0  0  0  0  0  0  0  0  0  0  0  0
   56.2562   20.4809   42.4111 H   0  0  0  0  0  0  0  0  0  0  0  0
   57.5374   21.7400   42.4111 H   0  0  0  0  0  0  0  0  0  0  0  0
   57.9009   23.7870   43.1217 H   0  0  0  0  0  0  0  0  0  0  0  0
   58.4612   25.7667   44.5379 H   0  0  0  0  0  0  0  0  0  0  0  0
   56.2895   26.7462   47.5006 H   0  0  0  0  0  0  0  0  0  0  0  0
   58.0284   26.5743   47.0554 H   0  0  0  0  0  0  0  0  0  0  0  0
   57.7619   32.0586   44.4990 H   0  0  0  0  0  0  0  0  0  0  0  0
   59.9955   32.2060   45.6615 H   0  0  0  0  0  0  0  0  0  0  0  0
   61.1470   29.5870   47.9800 H   0  0  0  0  0  0  0  0  0  0  0  0
   61.9580   30.0630   46.5830 H   0  0  0  0  0  0  0  0  0  0  0  0
   63.1354   32.0310   46.6629 H   0  0  0  0  0  0  0  0  0  0  0  0
   63.4064   34.3114   47.6351 H   0  0  0  0  0  0  0  0  0  0  0  0
   61.7292   35.1895   49.2583 H   0  0  0  0  0  0  0  0  0  0  0  0
   59.7548   33.7969   49.8931 H   0  0  0  0  0  0  0  0  0  0  0  0
   59.4632   31.5215   48.9140 H   0  0  0  0  0  0  0  0  0  0  0  0
   59.5208   28.1073   47.0905 H   0  0  0  0  0  0  0  0  0  0  0  0
   54.2402   23.2684   45.3733 H   0  0  0  0  0  0  0  0  0  0  0  0
  1  2  1  0
  2  3  1  0
  3  4  2  0
  4  5  1  0
  5  6  2  0
  6  7  1  0
  7  8  1  0
  8  9  1  0
  9 10  1  0
 10 11  2  0
 10 12  1  0
 12 13  2  0
 13 14  1  0
 14 15  2  0
 15 16  1  0
 16 17  1  0
 17 18  2  0
 18 19  1  0
 19 20  2  0
 20 21  1  0
 21 22  2  0
 15 23  1  0
 23 24  2  0
  6 25  1  0
 25 26  2  0
 26  3  1  0
 24  8  1  0
 24 12  1  0
 22 17  1  0
  1 27  1  0
  1 28  1  0
  1 29  1  0
  4 30  1  0
  5 31  1  0
  7 32  1  0
  7 33  1  0
 13 34  1  0
 14 35  1  0
 16 36  1  0
 16 37  1  0
 18 38  1  0
 19 39  1  0
 20 40  1  0
 21 41  1  0
 22 42  1  0
 23 43  1  0
 26 44  1  0
M  CHG  2   9  -1  16   1
M  END
>  <UniqueID>  (50) 
44

>  <SMILES>  (50) 
COc1ccc(Cn2[n-]c(=O)c3ccc([NH2+]c4ccccc4)cc32)nc1

>  <Energy>  (50) 
87.38844487457

>  <Genealogy>  (50) 
COc1ccc(Cn2[n-]c(=O)c3ccc([NH2+]c4ccccc4)cc32)nc1 (protonated)
COc1ccc(Cn2[n-]c(=O)c3ccc([NH2+]c4ccccc4)cc32)nc1 (3D coordinates assigned)
COc1ccc(Cn2[n-]c(=O)c3ccc([NH2+]c4ccccc4)cc32)nc1 (optimized conformer: 87.38844487457 kcal/mol)

>  <smiles>  (50) 
COc1ccc(Cn2[nH]c(=O)c3ccc(Nc4ccccc4)cc32)nc1

>  <score_type>  (50) 
oracle

>  <origin>  (50) 
adg

>  <m_score__min__energy>  (50) 
-8.9299999999999997

>  <m_primary>  (50) 
energy

$$$$
50:0
     RDKit          3D

 48 50  0  0  0  0  0  0  0  0999 V2000
   59.7400   34.2120   49.3280 C   0  0  0  0  0  0  0  0  0  0  0  0
   60.9580   33.6650   48.7040 N   0  0  0  0  0  0  0  0  0  0  0  0
   61.6940   32.8520   49.6930 C   0  0  0  0  0  0  0  0  0  0  0  0
   63.1460   32.6280   49.2400 C   0  0  0  0  0  0  0  0  0  0  0  0
   63.2920   32.5690   47.7650 N   0  0  2  0  0  0  0  0  0  0  0  0
   63.7660   33.8490   47.2080 C   0  0  0  0  0  0  0  0  0  0  0  0
   62.0620   32.0730   47.1080 C   0  0  0  0  0  0  0  0  0  0  0  0
   60.7810   32.9650   47.3820 C   0  0  0  0  0  0  0  0  0  0  0  0
   59.5540   31.9890   47.3520 C   0  0  0  0  0  0  0  0  0  0  0  0
   58.1950   32.6000   46.9760 C   0  0  0  0  0  0  0  0  0  0  0  0
   58.2630   33.4720   45.7970 N   0  0  0  0  0  0  0  0  0  0  0  0
   57.9680   32.8690   44.4790 C   0  0  0  0  0  0  0  0  0  0  0  0
   57.7490   31.3760   44.5240 C   0  0  0  0  0  0  0  0  0  0  0  0
   58.8450   30.4990   44.5900 C   0  0  0  0  0  0  0  0  0  0  0  0
   58.6420   29.1160   44.6290 C   0  0  0  0  0  0  0  0  0  0  0  0
   57.3450   28.5980   44.5770 C   0  0  0  0  0  0  0  0  0  0  0  0
   56.2510   29.4610   44.4770 C   0  0  0  0  0  0  0  0  0  0  0  0
   56.4520   30.8440   44.4380 C   0  0  0  0  0  0  0  0  0  0  0  0
   59.2800   34.5300   45.8480 C   0  0  0  0  0  0  0  0  0  0  0  0
   60.6820   34.0240   46.2280 C   0  0  0  0  0  0  0  0  0  0  0  0
   59.8375   34.1682   50.4228 H   0  0  0  0  0  0  0  0  0  0  0  0
   59.6046   35.2573   49.0135 H   0  0  0  0  0  0  0  0  0  0  0  0
   58.8687   33.6187   49.0135 H   0  0  0  0  0  0  0  0  0  0  0  0
   61.6943   33.3742   50.6612 H   0  0  0  0  0  0  0  0  0  0  0  0
   61.1980   31.8746   49.7866 H   0  0  0  0  0  0  0  0  0  0  0  0
   63.7631   33.4554   49.6202 H   0  0  0  0  0  0  0  0  0  0  0  0
   63.4688   31.6559   49.6411 H   0  0  0  0  0  0  0  0  0  0  0  0
   64.0440   31.8660   47.5560 H   0  0  0  0  0  0  0  0  0  0  0  0
   64.0200   34.5348   48.0297 H   0  0  0  0  0  0  0  0  0  0  0  0
   64.6581   33.6717   46.5894 H   0  0  0  0  0  0  0  0  0  0  0  0
   62.9736   34.2955   46.5894 H   0  0  0  0  0  0  0  0  0  0  0  0
   62.2374   32.0435   46.0225 H   0  0  0  0  0  0  0  0  0  0  0  0
   61.8541   31.0788   47.5303 H   0  0  0  0  0  0  0  0  0  0  0  0
   59.7764   31.1964   46.6224 H   0  0  0  0  0  0  0  0  0  0  0  0
   59.4370   31.6398   48.3885 H   0  0  0  0  0  0  0  0  0  0  0  0
   57.4893   31.7825   46.7668 H   0  0  0  0  0  0  0  0  0  0  0  0
   57.8675   33.2193   47.8240 H   0  0  0  0  0  0  0  0  0  0  0  0
   57.0585   33.3404   44.0783 H   0  0  0  0  0  0  0  0  0  0  0  0
   58.8492   33.0432   43.8440 H   0  0  0  0  0  0  0  0  0  0  0  0
   59.8681   30.9026   44.6111 H   0  0  0  0  0  0  0  0  0  0  0  0
   59.5034   28.4356   44.7006 H   0  0  0  0  0  0  0  0  0  0  0  0
   57.1855   27.5103   44.6148 H   0  0  0  0  0  0  0  0  0  0  0  0
   55.2309   29.0522   44.4289 H   0  0  0  0  0  0  0  0  0  0  0  0
   55.5894   31.5194   44.3394 H   0  0  0  0  0  0  0  0  0  0  0  0
   59.3387   35.0030   44.8566 H   0  0  0  0  0  0  0  0  0  0  0  0
   58.9699   35.2356   46.6328 H   0  0  0  0  0  0  0  0  0  0  0  0
   61.1249   33.5730   45.3278 H   0  0  0  0  0  0  0  0  0  0  0  0
   61.2050   34.9108   46.6153 H   0  0  0  0  0  0  0  0  0  0  0  0
  1  2  1  0
  2  3  1  0
  3  4  1  0
  4  5  1  0
  5  6  1  0
  5  7  1  0
  7  8  1  0
  8  9  1  0
  9 10  1  0
 10 11  1  0
 11 12  1  0
 12 13  1  0
 13 14  2  0
 14 15  1  0
 15 16  2  0
 16 17  1  0
 17 18  2  0
 11 19  1  0
 19 20  1  0
  8  2  1  0
 18 13  1  0
 20  8  1  0
  1 21  1  0
  1 22  1  0
  1 23  1  0
  3 24  1  0
  3 25  1  0
  4 26  1  0
  4 27  1  0
  5 28  1  1
  6 29  1  0
  6 30  1  0
  6 31  1  0
  7 32  1  0
  7 33  1  0
  9 34  1  0
  9 35  1  0
 10 36  1  0
 10 37  1  0
 12 38  1  0
 12 39  1  0
 14 40  1  0
 15 41  1  0
 16 42  1  0
 17 43  1  0
 18 44  1  0
 19 45  1  0
 19 46  1  0
 20 47  1  0
 20 48  1  0
M  CHG  1   5   1
M  END
>  <UniqueID>  (51) 
45

>  <SMILES>  (51) 
CN1CC[N@H+](C)CC12CCN(Cc1ccccc1)CC2

>  <Energy>  (51) 
84.88821609174572

>  <Genealogy>  (51) 
CN1CC[NH+](C)CC12CCN(Cc1ccccc1)CC2 (protonated)
CN1CC[N@H+](C)CC12CCN(Cc1ccccc1)CC2 (chirality)
CN1CC[N@H+](C)CC12CCN(Cc1ccccc1)CC2 (3D coordinates assigned)
CN1CC[N@H+](C)CC12CCN(Cc1ccccc1)CC2 (nonaromatic ring conformer: 84.88821609174572 kcal/mol)

>  <smiles>  (51) 
CN1CCN(C)C2(CCN(Cc3ccccc3)CC2)C1

>  <score_type>  (51) 
oracle

>  <origin>  (51) 
adg

>  <m_score__min__energy>  (51) 
-6.1500000000000004

>  <m_primary>  (51) 
energy

$$$$
51:0
     RDKit          3D

 44 48  0  0  0  0  0  0  0  0999 V2000
   58.3820   30.8660   42.0440 H   0  0  0  0  0  0  0  0  0  0  0  0
   57.4320   31.2380   42.2640 N   0  0  0  0  0  0  0  0  0  0  0  0
   56.6660   30.6730   43.1400 C   0  0  0  0  0  0  0  0  0  0  0  0
   55.6550   29.8430   42.8250 N   0  0  0  0  0  0  0  0  0  0  0  0
   55.1930   29.4250   43.9700 O   0  0  0  0  0  0  0  0  0  0  0  0
   55.8300   29.9190   44.9950 N   0  0  0  0  0  0  0  0  0  0  0  0
   55.6170   29.7160   45.9960 H   0  0  0  0  0  0  0  0  0  0  0  0
   56.7780   30.7350   44.5100 C   0  0  0  0  0  0  0  0  0  0  0  0
   57.7180   31.5140   45.3330 C   0  0  0  0  0  0  0  0  0  0  0  0
   57.4460   32.7860   45.6980 N   0  0  0  0  0  0  0  0  0  0  0  0
   58.5630   33.1680   46.3340 C   0  0  0  0  0  0  0  0  0  0  0  0
   58.8030   34.4270   46.8700 C   0  0  0  0  0  0  0  0  0  0  0  0
   58.0311   35.2100   46.8386 H   0  0  0  0  0  0  0  0  0  0  0  0
   60.0500   34.6730   47.4500 C   0  0  0  0  0  0  0  0  0  0  0  0
   60.2703   35.6665   47.8677 H   0  0  0  0  0  0  0  0  0  0  0  0
   61.0310   33.6570   47.5050 C   0  0  0  0  0  0  0  0  0  0  0  0
   62.2670   33.9260   48.1120 C   0  0  0  0  0  0  0  0  0  0  0  0
   62.4738   34.9305   48.5097 H   0  0  0  0  0  0  0  0  0  0  0  0
   63.2340   32.9280   48.2140 C   0  0  0  0  0  0  0  0  0  0  0  0
   64.2053   33.1504   48.6799 H   0  0  0  0  0  0  0  0  0  0  0  0
   62.9730   31.6490   47.7270 C   0  0  0  0  0  0  0  0  0  0  0  0
   63.7348   30.8616   47.8251 H   0  0  0  0  0  0  0  0  0  0  0  0
   61.7510   31.3590   47.1150 C   0  0  0  0  0  0  0  0  0  0  0  0
   61.5548   30.3414   46.7463 H   0  0  0  0  0  0  0  0  0  0  0  0
   60.7660   32.3580   46.9650 C   0  0  0  0  0  0  0  0  0  0  0  0
   59.4990   32.1600   46.3500 C   0  0  0  0  0  0  0  0  0  0  0  0
   58.9660   31.0970   45.6890 N   0  0  0  0  0  0  0  0  0  0  0  0
   59.6130   29.8660   45.2090 C   0  0  0  0  0  0  0  0  0  0  0  0
   59.2871   29.6784   44.1753 H   0  0  0  0  0  0  0  0  0  0  0  0
   60.7005   30.0178   45.2745 H   0  0  0  0  0  0  0  0  0  0  0  0
   59.2720   28.6530   46.0510 C   0  0  0  0  0  0  0  0  0  0  0  0
   58.2360   27.8060   45.6250 C   0  0  0  0  0  0  0  0  0  0  0  0
   57.6740   28.0492   44.7112 H   0  0  0  0  0  0  0  0  0  0  0  0
   57.9130   26.6580   46.3510 C   0  0  0  0  0  0  0  0  0  0  0  0
   57.0946   26.0064   46.0111 H   0  0  0  0  0  0  0  0  0  0  0  0
   58.6250   26.3350   47.5060 C   0  0  0  0  0  0  0  0  0  0  0  0
   58.3722   25.4247   48.0695 H   0  0  0  0  0  0  0  0  0  0  0  0
   59.6620   27.1670   47.9510 C   0  0  0  0  0  0  0  0  0  0  0  0
   60.4590   26.7980   49.1670 C   0  0  0  0  0  0  0  0  0  0  0  0
   59.8909   27.0610   50.0715 H   0  0  0  0  0  0  0  0  0  0  0  0
   60.6579   25.7162   49.1606 H   0  0  0  0  0  0  0  0  0  0  0  0
   61.4126   27.3462   49.1606 H   0  0  0  0  0  0  0  0  0  0  0  0
   59.9970   28.3100   47.2110 C   0  0  0  0  0  0  0  0  0  0  0  0
   60.8333   28.9452   47.5384 H   0  0  0  0  0  0  0  0  0  0  0  0
  1  2  1  0
  2  3  2  0
  3  4  1  0
  4  5  1  0
  5  6  1  0
  6  7  1  0
  6  8  2  0
  8  9  1  0
  9 10  2  0
 10 11  1  0
 11 12  2  0
 12 13  1  0
 12 14  1  0
 14 15  1  0
 14 16  2  0
 16 17  1  0
 17 18  1  0
 17 19  2  0
 19 20  1  0
 19 21  1  0
 21 22  1  0
 21 23  2  0
 23 24  1  0
 23 25  1  0
 25 26  2  0
 26 27  1  0
 27 28  1  0
 28 29  1  0
 28 30  1  0
 28 31  1  0
 31 32  2  0
 32 33  1  0
 32 34  1  0
 34 35  1  0
 34 36  2  0
 36 37  1  0
 36 38  1  0
 38 39  1  0
 39 40  1  0
 39 41  1  0
 39 42  1  0
 38 43  2  0
 43 44  1  0
  8  3  1  0
 27  9  1  0
 43 31  1  0
 26 11  1  0
 25 16  1  0
M  CHG  2   4  -1   6   1
M  END
>  <UniqueID>  (52) 
46

>  <SMILES>  (52) 
[H]/N=c1/[n-]o[nH+]c1-c1nc2ccc3ccccc3c2n1Cc1cccc(C)c1

>  <Energy>  (52) 
140.59378352707037

>  <Genealogy>  (52) 
Cc1cccc(Cn2c(-c3[nH+]o[n-]c3=N)nc3ccc4ccccc4c32)c1 (protonated)
[H]/N=c1/[n-]o[nH+]c1-c1nc2ccc3ccccc3c2n1Cc1cccc(C)c1 (cis-trans isomerization)
[H]/N=c1/[n-]o[nH+]c1-c1nc2ccc3ccccc3c2n1Cc1cccc(C)c1 (3D coordinates assigned)
[H]/N=c1/[n-]o[nH+]c1-c1nc2ccc3ccccc3c2n1Cc1cccc(C)c1 (optimized conformer: 140.59378352707037 kcal/mol)

>  <smiles>  (52) 
Cc1cccc(Cn2c(-c3no[nH]c3=N)nc3ccc4ccccc4c32)c1

>  <score_type>  (52) 
oracle

>  <origin>  (52) 
adg

>  <m_score__min__energy>  (52) 
-9.6999999999999993

>  <m_primary>  (52) 
energy

$$$$
52:0
     RDKit          3D

 35 37  0  0  0  0  0  0  0  0999 V2000
   56.7450   26.6400   45.9150 N   0  0  0  0  0  0  0  0  0  0  0  0
   56.9130   27.7770   45.7880 C   0  0  0  0  0  0  0  0  0  0  0  0
   57.1230   29.2000   45.6320 C   0  0  0  0  0  0  0  0  0  0  0  0
   58.0850   29.9000   46.3940 C   0  0  0  0  0  0  0  0  0  0  0  0
   58.8940   29.2510   47.4520 C   0  0  0  0  0  0  0  0  0  0  0  0
   59.5940   28.0570   47.2000 C   0  0  0  0  0  0  0  0  0  0  0  0
   60.3300   27.4440   48.2170 C   0  0  0  0  0  0  0  0  0  0  0  0
   60.3650   28.0060   49.4970 C   0  0  0  0  0  0  0  0  0  0  0  0
   61.2890   27.2330   50.7720 Cl  0  0  0  0  0  0  0  0  0  0  0  0
   59.6550   29.1820   49.7600 C   0  0  0  0  0  0  0  0  0  0  0  0
   58.9170   29.7970   48.7460 C   0  0  0  0  0  0  0  0  0  0  0  0
   58.2930   31.2210   46.1450 N   0  0  0  0  0  0  0  0  0  0  0  0
   57.5820   31.8870   45.2020 C   0  0  0  0  0  0  0  0  0  0  0  0
   57.8620   33.6350   44.9370 S   0  0  0  0  0  0  0  0  0  0  0  0
   57.9690   34.0420   46.7160 C   0  0  0  0  0  0  0  0  0  0  0  0
   59.3870   33.9470   47.2070 C   0  0  0  0  0  0  0  0  0  0  0  0
   60.4530   33.8480   46.2960 C   0  0  0  0  0  0  0  0  0  0  0  0
   61.7670   33.7250   46.7600 C   0  0  0  0  0  0  0  0  0  0  0  0
   62.0250   33.6990   48.1330 C   0  0  0  0  0  0  0  0  0  0  0  0
   60.9710   33.7940   49.0450 C   0  0  0  0  0  0  0  0  0  0  0  0
   59.6560   33.9160   48.5860 C   0  0  0  0  0  0  0  0  0  0  0  0
   56.6460   31.2320   44.4680 N   0  0  0  0  0  0  0  0  0  0  0  0
   56.4030   29.9120   44.6600 C   0  0  0  0  0  0  0  0  0  0  0  0
   55.5320   29.3370   43.9540 O   0  0  0  0  0  0  0  0  0  0  0  0
   59.5617   27.6042   46.1980 H   0  0  0  0  0  0  0  0  0  0  0  0
   60.8837   26.5163   48.0102 H   0  0  0  0  0  0  0  0  0  0  0  0
   59.6778   29.6234   50.7673 H   0  0  0  0  0  0  0  0  0  0  0  0
   58.3503   30.7147   48.9622 H   0  0  0  0  0  0  0  0  0  0  0  0
   57.6020   35.0670   46.8731 H   0  0  0  0  0  0  0  0  0  0  0  0
   57.3552   33.3222   47.2774 H   0  0  0  0  0  0  0  0  0  0  0  0
   60.2532   33.8673   45.2145 H   0  0  0  0  0  0  0  0  0  0  0  0
   62.5979   33.6487   46.0432 H   0  0  0  0  0  0  0  0  0  0  0  0
   63.0590   33.6036   48.4961 H   0  0  0  0  0  0  0  0  0  0  0  0
   61.1759   33.7728   50.1255 H   0  0  0  0  0  0  0  0  0  0  0  0
   58.8286   33.9880   49.3072 H   0  0  0  0  0  0  0  0  0  0  0  0
  1  2  3  0
  2  3  1  0
  3  4  2  0
  4  5  1  0
  5  6  2  0
  6  7  1  0
  7  8  2  0
  8  9  1  0
  8 10  1  0
 10 11  2  0
  4 12  1  0
 12 13  1  0
 13 14  1  0
 14 15  1  0
 15 16  1  0
 16 17  2  0
 17 18  1  0
 18 19  2  0
 19 20  1  0
 20 21  2  0
 13 22  2  0
 22 23  1  0
 23 24  2  0
 23  3  1  0
 11  5  1  0
 21 16  1  0
  6 25  1  0
  7 26  1  0
 10 27  1  0
 11 28  1  0
 15 29  1  0
 15 30  1  0
 17 31  1  0
 18 32  1  0
 19 33  1  0
 20 34  1  0
 21 35  1  0
M  CHG  1  12  -1
M  END
>  <UniqueID>  (53) 
47

>  <SMILES>  (53) 
N#Cc1c(-c2ccc(Cl)cc2)[n-]c(SCc2ccccc2)nc1=O

>  <Energy>  (53) 
40.867853841391764

>  <Genealogy>  (53) 
N#Cc1c(-c2ccc(Cl)cc2)[n-]c(SCc2ccccc2)nc1=O (protonated)
N#Cc1c(-c2ccc(Cl)cc2)[n-]c(SCc2ccccc2)nc1=O (3D coordinates assigned)
N#Cc1c(-c2ccc(Cl)cc2)[n-]c(SCc2ccccc2)nc1=O (optimized conformer: 40.867853841391764 kcal/mol)

>  <smiles>  (53) 
N#Cc1c(-c2ccc(Cl)cc2)[nH]c(SCc2ccccc2)nc1=O

>  <score_type>  (53) 
oracle

>  <origin>  (53) 
adg

>  <m_score__min__energy>  (53) 
-8.7699999999999996

>  <m_primary>  (53) 
energy

$$$$
53:0
     RDKit          3D

 40 41  0  0  0  0  0  0  0  0999 V2000
   61.2020   31.2870   47.0930 C   0  0  0  0  0  0  0  0  0  0  0  0
   61.0190   29.8780   47.1940 O   0  0  0  0  0  0  0  0  0  0  0  0
   59.8330   29.2080   46.8610 C   0  0  0  0  0  0  0  0  0  0  0  0
   59.5820   27.9710   47.4580 C   0  0  0  0  0  0  0  0  0  0  0  0
   58.4140   27.2650   47.1680 C   0  0  0  0  0  0  0  0  0  0  0  0
   57.4680   27.7890   46.2660 C   0  0  0  0  0  0  0  0  0  0  0  0
   56.2850   27.0970   45.9580 O   0  0  0  0  0  0  0  0  0  0  0  0
   56.2050   25.6940   45.7310 C   0  0  0  0  0  0  0  0  0  0  0  0
   57.7130   29.0380   45.6620 C   0  0  0  0  0  0  0  0  0  0  0  0
   56.5760   29.7360   44.5030 S   0  0  0  0  0  0  0  0  0  0  0  0
   56.8500   29.2150   43.1200 O   0  0  0  0  0  0  0  0  0  0  0  0
   55.1830   29.3330   44.8970 O   0  0  0  0  0  0  0  0  0  0  0  0
   56.6680   31.4690   44.4930 N   0  0  0  0  0  0  0  0  0  0  0  0
   57.6660   32.2600   43.8380 C   0  0  0  0  0  0  0  0  0  0  0  0
   57.9450   32.0010   42.6380 O   0  0  0  0  0  0  0  0  0  0  0  0
   58.4280   33.3530   44.5380 C   0  0  0  0  0  0  0  0  0  0  0  0
   57.8530   33.6760   45.8040 O   0  0  0  0  0  0  0  0  0  0  0  0
   58.5260   33.6530   47.0360 C   0  0  0  0  0  0  0  0  0  0  0  0
   58.2010   32.6410   47.9480 C   0  0  0  0  0  0  0  0  0  0  0  0
   58.8110   32.5920   49.2040 C   0  0  0  0  0  0  0  0  0  0  0  0
   59.7630   33.5520   49.5560 C   0  0  0  0  0  0  0  0  0  0  0  0
   60.1100   34.5560   48.6490 C   0  0  0  0  0  0  0  0  0  0  0  0
   59.5010   34.6080   47.3910 C   0  0  0  0  0  0  0  0  0  0  0  0
   58.8940   29.7360   45.9580 C   0  0  0  0  0  0  0  0  0  0  0  0
   61.2586   31.7226   48.1015 H   0  0  0  0  0  0  0  0  0  0  0  0
   62.1350   31.4976   46.5498 H   0  0  0  0  0  0  0  0  0  0  0  0
   60.3537   31.7289   46.5498 H   0  0  0  0  0  0  0  0  0  0  0  0
   60.3124   27.5489   48.1640 H   0  0  0  0  0  0  0  0  0  0  0  0
   58.2308   26.2921   47.6474 H   0  0  0  0  0  0  0  0  0  0  0  0
   56.1750   25.1675   46.6963 H   0  0  0  0  0  0  0  0  0  0  0  0
   55.2924   25.4663   45.1606 H   0  0  0  0  0  0  0  0  0  0  0  0
   57.0858   25.3640   45.1606 H   0  0  0  0  0  0  0  0  0  0  0  0
   59.4651   33.0205   44.6928 H   0  0  0  0  0  0  0  0  0  0  0  0
   58.3902   34.2531   43.9068 H   0  0  0  0  0  0  0  0  0  0  0  0
   57.4585   31.8775   47.6728 H   0  0  0  0  0  0  0  0  0  0  0  0
   58.5417   31.7976   49.9157 H   0  0  0  0  0  0  0  0  0  0  0  0
   60.2391   33.5172   50.5470 H   0  0  0  0  0  0  0  0  0  0  0  0
   60.8642   35.3077   48.9248 H   0  0  0  0  0  0  0  0  0  0  0  0
   59.7832   35.3956   46.6769 H   0  0  0  0  0  0  0  0  0  0  0  0
   59.0870   30.7068   45.4782 H   0  0  0  0  0  0  0  0  0  0  0  0
  1  2  1  0
  2  3  1  0
  3  4  2  0
  4  5  1  0
  5  6  2  0
  6  7  1  0
  7  8  1  0
  6  9  1  0
  9 10  1  0
 10 11  2  0
 10 12  2  0
 10 13  1  0
 13 14  1  0
 14 15  2  0
 14 16  1  0
 16 17  1  0
 17 18  1  0
 18 19  2  0
 19 20  1  0
 20 21  2  0
 21 22  1  0
 22 23  2  0
  9 24  2  0
 24  3  1  0
 23 18  1  0
  1 25  1  0
  1 26  1  0
  1 27  1  0
  4 28  1  0
  5 29  1  0
  8 30  1  0
  8 31  1  0
  8 32  1  0
 16 33  1  0
 16 34  1  0
 19 35  1  0
 20 36  1  0
 21 37  1  0
 22 38  1  0
 23 39  1  0
 24 40  1  0
M  CHG  1  13  -1
M  END
>  <UniqueID>  (54) 
48

>  <SMILES>  (54) 
COc1ccc(OC)c(S(=O)(=O)[N-]C(=O)COc2ccccc2)c1

>  <Energy>  (54) 
38.01527248133562

>  <Genealogy>  (54) 
COc1ccc(OC)c(S(=O)(=O)[N-]C(=O)COc2ccccc2)c1 (protonated)
COc1ccc(OC)c(S(=O)(=O)[N-]C(=O)COc2ccccc2)c1 (3D coordinates assigned)
COc1ccc(OC)c(S(=O)(=O)[N-]C(=O)COc2ccccc2)c1 (optimized conformer: 38.01527248133562 kcal/mol)

>  <smiles>  (54) 
COc1ccc(OC)c(S(=O)(=O)NC(=O)COc2ccccc2)c1

>  <score_type>  (54) 
oracle

>  <origin>  (54) 
adg

>  <m_score__min__energy>  (54) 
-10.1

>  <m_primary>  (54) 
energy

$$$$
54:0
     RDKit          3D

 48 50  0  0  0  0  0  0  0  0999 V2000
   59.9510   33.4950   49.4840 C   0  0  0  0  0  0  0  0  0  0  0  0
   61.1960   33.1950   48.6980 C   0  0  0  0  0  0  0  0  0  0  0  0
   61.6620   34.1120   47.7410 C   0  0  0  0  0  0  0  0  0  0  0  0
   62.8140   33.8380   47.0040 C   0  0  0  0  0  0  0  0  0  0  0  0
   63.5080   32.6460   47.2090 C   0  0  0  0  0  0  0  0  0  0  0  0
   63.0540   31.7230   48.1540 C   0  0  0  0  0  0  0  0  0  0  0  0
   61.8920   31.9860   48.9070 C   0  0  0  0  0  0  0  0  0  0  0  0
   61.4050   31.0850   49.8730 O   0  0  0  0  0  0  0  0  0  0  0  0
   61.5040   29.6630   49.8090 C   0  0  0  0  0  0  0  0  0  0  0  0
   60.6610   29.1330   48.6880 C   0  0  0  0  0  0  0  0  0  0  0  0
   60.6500   27.8930   48.4650 O   0  0  0  0  0  0  0  0  0  0  0  0
   59.8410   30.0210   47.9120 N   0  0  0  0  0  0  0  0  0  0  0  0
   58.9380   29.5610   46.8970 C   0  0  0  0  0  0  0  0  0  0  0  0
   58.8560   30.2590   45.6860 C   0  0  0  0  0  0  0  0  0  0  0  0
   57.9680   29.8400   44.6840 C   0  0  0  0  0  0  0  0  0  0  0  0
   57.8330   30.5660   43.4540 N   0  0  0  0  0  0  0  0  0  0  0  0
   57.7640   31.9940   43.3270 C   0  0  0  0  0  0  0  0  0  0  0  0
   57.4380   32.4840   42.2140 O   0  0  0  0  0  0  0  0  0  0  0  0
   58.0130   32.9010   44.4750 C   0  0  0  0  0  0  0  0  0  0  0  0
   57.1970   32.8320   45.6180 C   0  0  0  0  0  0  0  0  0  0  0  0
   57.4330   33.6770   46.7060 C   0  0  0  0  0  0  0  0  0  0  0  0
   58.4850   34.5950   46.6670 C   0  0  0  0  0  0  0  0  0  0  0  0
   59.3070   34.6660   45.5410 C   0  0  0  0  0  0  0  0  0  0  0  0
   59.0800   33.8180   44.4520 C   0  0  0  0  0  0  0  0  0  0  0  0
   57.2150   28.6750   44.8700 C   0  0  0  0  0  0  0  0  0  0  0  0
   57.3050   27.9480   46.0710 C   0  0  0  0  0  0  0  0  0  0  0  0
   56.5020   26.7210   46.2700 C   0  0  0  0  0  0  0  0  0  0  0  0
   57.0440   25.6620   46.6860 O   0  0  0  0  0  0  0  0  0  0  0  0
   55.1390   26.7190   46.0020 O   0  0  0  0  0  0  0  0  0  0  0  0
   58.1670   28.4030   47.0830 C   0  0  0  0  0  0  0  0  0  0  0  0
   60.1746   33.4411   50.5597 H   0  0  0  0  0  0  0  0  0  0  0  0
   59.5939   34.5049   49.2339 H   0  0  0  0  0  0  0  0  0  0  0  0
   59.1731   32.7586   49.2339 H   0  0  0  0  0  0  0  0  0  0  0  0
   61.1152   35.0514   47.5720 H   0  0  0  0  0  0  0  0  0  0  0  0
   63.1756   34.5631   46.2601 H   0  0  0  0  0  0  0  0  0  0  0  0
   64.4153   32.4320   46.6250 H   0  0  0  0  0  0  0  0  0  0  0  0
   63.6068   30.7851   48.3115 H   0  0  0  0  0  0  0  0  0  0  0  0
   62.5532   29.3795   49.6395 H   0  0  0  0  0  0  0  0  0  0  0  0
   61.1471   29.2362   50.7580 H   0  0  0  0  0  0  0  0  0  0  0  0
   59.7770   31.0230   48.2030 H   0  0  0  0  0  0  0  0  0  0  0  0
   59.4916   31.1411   45.5193 H   0  0  0  0  0  0  0  0  0  0  0  0
   56.3686   32.1093   45.6561 H   0  0  0  0  0  0  0  0  0  0  0  0
   56.7885   33.6189   47.5955 H   0  0  0  0  0  0  0  0  0  0  0  0
   58.6656   35.2617   47.5231 H   0  0  0  0  0  0  0  0  0  0  0  0
   60.1346   35.3900   45.5100 H   0  0  0  0  0  0  0  0  0  0  0  0
   59.7392   33.8683   43.5728 H   0  0  0  0  0  0  0  0  0  0  0  0
   56.5466   28.3246   44.0697 H   0  0  0  0  0  0  0  0  0  0  0  0
   58.2382   27.8468   48.0293 H   0  0  0  0  0  0  0  0  0  0  0  0
  1  2  1  0
  2  3  2  0
  3  4  1  0
  4  5  2  0
  5  6  1  0
  6  7  2  0
  7  8  1  0
  8  9  1  0
  9 10  1  0
 10 11  2  0
 10 12  1  0
 12 13  1  0
 13 14  2  0
 14 15  1  0
 15 16  1  0
 16 17  1  0
 17 18  2  0
 17 19  1  0
 19 20  2  0
 20 21  1  0
 21 22  2  0
 22 23  1  0
 23 24  2  0
 15 25  2  0
 25 26  1  0
 26 27  1  0
 27 28  2  0
 27 29  1  0
 26 30  2  0
  7  2  1  0
 30 13  1  0
 24 19  1  0
  1 31  1  0
  1 32  1  0
  1 33  1  0
  3 34  1  0
  4 35  1  0
  5 36  1  0
  6 37  1  0
  9 38  1  0
  9 39  1  0
 12 40  1  0
 14 41  1  0
 20 42  1  0
 21 43  1  0
 22 44  1  0
 23 45  1  0
 24 46  1  0
 25 47  1  0
 30 48  1  0
M  CHG  2  16  -1  29  -1
M  END
>  <UniqueID>  (55) 
49

>  <SMILES>  (55) 
Cc1ccccc1OCC(=O)Nc1cc([N-]C(=O)c2ccccc2)cc(C(=O)[O-])c1

>  <Energy>  (55) 
57.91890655387911

>  <Genealogy>  (55) 
Cc1ccccc1OCC(=O)Nc1cc([N-]C(=O)c2ccccc2)cc(C(=O)[O-])c1 (protonated)
Cc1ccccc1OCC(=O)Nc1cc([N-]C(=O)c2ccccc2)cc(C(=O)[O-])c1 (3D coordinates assigned)
Cc1ccccc1OCC(=O)Nc1cc([N-]C(=O)c2ccccc2)cc(C(=O)[O-])c1 (optimized conformer: 57.91890655387911 kcal/mol)

>  <smiles>  (55) 
Cc1ccccc1OCC(=O)Nc1cc(NC(=O)c2ccccc2)cc(C(=O)O)c1

>  <score_type>  (55) 
oracle

>  <origin>  (55) 
adg

>  <m_score__min__energy>  (55) 
-12.630000000000001

>  <m_primary>  (55) 
energy

$$$$
55:0
     RDKit          3D

 57 61  0  0  0  0  0  0  0  0999 V2000
   67.1670   33.1250   50.1030 C   0  0  0  0  0  0  0  0  0  0  0  0
   66.1320   32.3400   50.9140 C   0  0  0  0  0  0  0  0  0  0  0  0
   66.4370   30.8390   50.8760 C   0  0  0  0  0  0  0  0  0  0  0  0
   64.7450   32.6150   50.3830 C   0  0  0  0  0  0  0  0  0  0  0  0
   64.4710   32.6260   49.0510 N   0  0  0  0  0  0  0  0  0  0  0  0
   63.1770   32.9840   49.0060 C   0  0  0  0  0  0  0  0  0  0  0  0
   62.3920   33.1650   47.8700 C   0  0  0  0  0  0  0  0  0  0  0  0
   61.0510   33.5750   48.0460 C   0  0  0  0  0  0  0  0  0  0  0  0
   60.2000   33.7870   46.9010 N   0  0  0  0  0  0  0  0  0  0  0  0
   60.0670   35.0550   46.4100 C   0  0  0  0  0  0  0  0  0  0  0  0
   59.2700   35.3060   45.2950 C   0  0  0  0  0  0  0  0  0  0  0  0
   58.5970   34.2550   44.6820 C   0  0  0  0  0  0  0  0  0  0  0  0
   58.7140   32.9530   45.1870 C   0  0  0  0  0  0  0  0  0  0  0  0
   57.9750   31.8450   44.5330 C   0  0  0  0  0  0  0  0  0  0  0  0
   57.6020   30.7080   45.2730 C   0  0  0  0  0  0  0  0  0  0  0  0
   56.9140   29.6580   44.6570 C   0  0  0  0  0  0  0  0  0  0  0  0
   56.5960   29.7300   43.2980 C   0  0  0  0  0  0  0  0  0  0  0  0
   56.9690   30.8500   42.5530 C   0  0  0  0  0  0  0  0  0  0  0  0
   57.6570   31.9030   43.1640 C   0  0  0  0  0  0  0  0  0  0  0  0
   59.5380   32.7350   46.3130 C   0  0  0  0  0  0  0  0  0  0  0  0
   59.6690   31.5670   46.7750 O   0  0  0  0  0  0  0  0  0  0  0  0
   60.5530   33.8030   49.3550 C   0  0  0  0  0  0  0  0  0  0  0  0
   61.3770   33.6130   50.4800 C   0  0  0  0  0  0  0  0  0  0  0  0
   62.6910   33.1940   50.2620 C   0  0  0  0  0  0  0  0  0  0  0  0
   63.6730   32.9610   51.1540 N   0  0  0  0  0  0  0  0  0  0  0  0
   63.6200   33.1300   52.6120 C   0  0  0  0  0  0  0  0  0  0  0  0
   64.0740   34.5120   52.9990 C   0  0  0  0  0  0  0  0  0  0  0  0
   63.8090   35.0030   54.2870 C   0  0  0  0  0  0  0  0  0  0  0  0
   64.2160   36.2930   54.6270 C   0  0  0  0  0  0  0  0  0  0  0  0
   64.8850   37.0800   53.6900 C   0  0  0  0  0  0  0  0  0  0  0  0
   65.1400   36.5610   52.4200 C   0  0  0  0  0  0  0  0  0  0  0  0
   64.7370   35.3000   52.1010 N   0  0  0  0  0  0  0  0  0  0  0  0
   67.8524   33.6449   50.7885 H   0  0  0  0  0  0  0  0  0  0  0  0
   67.7388   32.4314   49.4690 H   0  0  0  0  0  0  0  0  0  0  0  0
   66.6533   33.8626   49.4690 H   0  0  0  0  0  0  0  0  0  0  0  0
   66.1822   32.6698   51.9622 H   0  0  0  0  0  0  0  0  0  0  0  0
   66.5151   30.4546   51.9037 H   0  0  0  0  0  0  0  0  0  0  0  0
   65.6273   30.3135   50.3485 H   0  0  0  0  0  0  0  0  0  0  0  0
   67.3876   30.6712   50.3485 H   0  0  0  0  0  0  0  0  0  0  0  0
   62.8039   32.9938   46.8645 H   0  0  0  0  0  0  0  0  0  0  0  0
   60.5947   35.8865   46.9001 H   0  0  0  0  0  0  0  0  0  0  0  0
   59.1738   36.3290   44.9023 H   0  0  0  0  0  0  0  0  0  0  0  0
   57.9709   34.4461   43.7980 H   0  0  0  0  0  0  0  0  0  0  0  0
   57.8530   30.6447   46.3421 H   0  0  0  0  0  0  0  0  0  0  0  0
   56.6226   28.7739   45.2430 H   0  0  0  0  0  0  0  0  0  0  0  0
   56.0520   28.9045   42.8157 H   0  0  0  0  0  0  0  0  0  0  0  0
   56.7211   30.9044   41.4827 H   0  0  0  0  0  0  0  0  0  0  0  0
   57.9511   32.7814   42.5708 H   0  0  0  0  0  0  0  0  0  0  0  0
   59.5122   34.1316   49.4919 H   0  0  0  0  0  0  0  0  0  0  0  0
   60.9983   33.7888   51.4977 H   0  0  0  0  0  0  0  0  0  0  0  0
   62.5864   32.9787   52.9567 H   0  0  0  0  0  0  0  0  0  0  0  0
   64.2877   32.3919   53.0804 H   0  0  0  0  0  0  0  0  0  0  0  0
   63.2845   34.3753   55.0224 H   0  0  0  0  0  0  0  0  0  0  0  0
   64.0097   36.6889   55.6323 H   0  0  0  0  0  0  0  0  0  0  0  0
   65.2082   38.0990   53.9493 H   0  0  0  0  0  0  0  0  0  0  0  0
   65.6684   37.1727   51.6739 H   0  0  0  0  0  0  0  0  0  0  0  0
   64.9440   34.9420   51.1420 H   0  0  0  0  0  0  0  0  0  0  0  0
  1  2  1  0
  2  3  1  0
  2  4  1  0
  4  5  2  0
  5  6  1  0
  6  7  2  0
  7  8  1  0
  8  9  1  0
  9 10  1  0
 10 11  2  0
 11 12  1  0
 12 13  2  0
 13 14  1  0
 14 15  2  0
 15 16  1  0
 16 17  2  0
 17 18  1  0
 18 19  2  0
 13 20  1  0
 20 21  2  0
  8 22  2  0
 22 23  1  0
 23 24  2  0
 24 25  1  0
 25 26  1  0
 26 27  1  0
 27 28  2  0
 28 29  1  0
 29 30  2  0
 30 31  1  0
 31 32  2  0
 25  4  1  0
 32 27  1  0
 24  6  1  0
 20  9  1  0
 19 14  1  0
  1 33  1  0
  1 34  1  0
  1 35  1  0
  2 36  1  0
  3 37  1  0
  3 38  1  0
  3 39  1  0
  7 40  1  0
 10 41  1  0
 11 42  1  0
 12 43  1  0
 15 44  1  0
 16 45  1  0
 17 46  1  0
 18 47  1  0
 19 48  1  0
 22 49  1  0
 23 50  1  0
 26 51  1  0
 26 52  1  0
 28 53  1  0
 29 54  1  0
 30 55  1  0
 31 56  1  0
 32 57  1  0
M  CHG  1  32   1
M  END
>  <UniqueID>  (56) 
50

>  <SMILES>  (56) 
CC(C)c1nc2cc(-n3cccc(-c4ccccc4)c3=O)ccc2n1Cc1cccc[nH+]1

>  <Energy>  (56) 
109.91722695638543

>  <Genealogy>  (56) 
CC(C)c1nc2cc(-n3cccc(-c4ccccc4)c3=O)ccc2n1Cc1cccc[nH+]1 (protonated)
CC(C)c1nc2cc(-n3cccc(-c4ccccc4)c3=O)ccc2n1Cc1cccc[nH+]1 (3D coordinates assigned)
CC(C)c1nc2cc(-n3cccc(-c4ccccc4)c3=O)ccc2n1Cc1cccc[nH+]1 (optimized conformer: 109.91722695638543 kcal/mol)

>  <smiles>  (56) 
CC(C)c1nc2cc(-n3cccc(-c4ccccc4)c3=O)ccc2n1Cc1ccccn1

>  <score_type>  (56) 
oracle

>  <origin>  (56) 
adg

>  <m_score__min__energy>  (56) 
-8.1699999999999999

>  <m_primary>  (56) 
energy

$$$$
56:0
     RDKit          3D

 26 28  0  0  0  0  0  0  0  0999 V2000
   58.7336   31.0720   43.0315 H   0  0  0  0  0  0  0  0  0  0  0  0
   58.1050   31.1680   43.9290 C   0  0  0  0  0  0  0  0  0  0  0  0
   57.5580   30.0490   44.4300 C   0  0  0  0  0  0  0  0  0  0  0  0
   56.1420   29.7050   44.6510 C   0  0  0  0  0  0  0  0  0  0  0  0
   55.1550   30.4590   44.4490 O   0  0  0  0  0  0  0  0  0  0  0  0
   56.0220   28.4150   45.2470 N   0  0  0  0  0  0  0  0  0  0  0  0
   55.1450   27.9350   45.5490 H   0  0  0  0  0  0  0  0  0  0  0  0
   57.3600   27.9730   45.4320 C   0  0  0  0  0  0  0  0  0  0  0  0
   57.7590   26.7690   46.0070 C   0  0  0  0  0  0  0  0  0  0  0  0
   57.0157   26.0435   46.3692 H   0  0  0  0  0  0  0  0  0  0  0  0
   59.1360   26.5040   46.1130 C   0  0  0  0  0  0  0  0  0  0  0  0
   59.5590   25.3420   46.6660 F   0  0  0  0  0  0  0  0  0  0  0  0
   60.0790   27.4430   45.6450 C   0  0  0  0  0  0  0  0  0  0  0  0
   61.1540   27.2263   45.7316 H   0  0  0  0  0  0  0  0  0  0  0  0
   59.6560   28.6530   45.0690 C   0  0  0  0  0  0  0  0  0  0  0  0
   60.3863   29.3887   44.7010 H   0  0  0  0  0  0  0  0  0  0  0  0
   58.2830   28.8970   44.9760 C   0  0  0  0  0  0  0  0  0  0  0  0
   57.9230   32.5150   44.4960 C   0  0  0  0  0  0  0  0  0  0  0  0
   58.8860   33.5030   44.5940 C   0  0  0  0  0  0  0  0  0  0  0  0
   59.9089   33.4698   44.1907 H   0  0  0  0  0  0  0  0  0  0  0  0
   58.3070   34.5390   45.2990 C   0  0  0  0  0  0  0  0  0  0  0  0
   58.7741   35.5013   45.5556 H   0  0  0  0  0  0  0  0  0  0  0  0
   57.0280   34.1320   45.6190 C   0  0  0  0  0  0  0  0  0  0  0  0
   56.2981   34.7310   46.1832 H   0  0  0  0  0  0  0  0  0  0  0  0
   56.8050   32.8960   45.1400 N   0  0  0  0  0  0  0  0  0  0  0  0
   55.9310   32.3350   45.2600 H   0  0  0  0  0  0  0  0  0  0  0  0
  1  2  1  0
  2  3  2  0
  3  4  1  0
  4  5  2  0
  4  6  1  0
  6  7  1  0
  6  8  1  0
  8  9  2  0
  9 10  1  0
  9 11  1  0
 11 12  1  0
 11 13  2  0
 13 14  1  0
 13 15  1  0
 15 16  1  0
 15 17  2  0
  2 18  1  0
 18 19  2  0
 19 20  1  0
 19 21  1  0
 21 22  1  0
 21 23  2  0
 23 24  1  0
 23 25  1  0
 25 26  1  0
 17  3  1  0
 25 18  1  0
 17  8  1  0
M  END
>  <UniqueID>  (57) 
51

>  <SMILES>  (57) 
O=C1Nc2cc(F)ccc2/C1=C/c1ccc[nH]1

>  <Energy>  (57) 
89.23074797383632

>  <Genealogy>  (57) 
O=C1Nc2cc(F)ccc2/C1=C/c1ccc[nH]1 (cis-trans isomerization)
O=C1Nc2cc(F)ccc2/C1=C/c1ccc[nH]1 (3D coordinates assigned)
O=C1Nc2cc(F)ccc2/C1=C/c1ccc[nH]1 (nonaromatic ring conformer: 89.23074797383632 kcal/mol)

>  <smiles>  (57) 
O=C1Nc2cc(F)ccc2C1=Cc1ccc[nH]1

>  <score_type>  (57) 
oracle

>  <origin>  (57) 
adg

>  <m_score__min__energy>  (57) 
-7.04

>  <m_primary>  (57) 
energy

$$$$
57:0
     RDKit          3D

 36 39  0  0  0  0  0  0  0  0999 V2000
   63.6680   33.1200   47.1890 C   0  0  0  0  0  0  0  0  0  0  0  0
   62.5730   32.5300   47.8800 O   0  0  0  0  0  0  0  0  0  0  0  0
   61.4700   31.9720   47.2220 C   0  0  0  0  0  0  0  0  0  0  0  0
   61.4400   30.6320   46.9580 N   0  0  0  0  0  0  0  0  0  0  0  0
   60.3750   30.0900   46.3230 C   0  0  0  0  0  0  0  0  0  0  0  0
   60.2320   28.7900   46.0300 N   0  0  0  0  0  0  0  0  0  0  0  0
   59.0320   28.6780   45.4150 C   0  0  0  0  0  0  0  0  0  0  0  0
   58.4820   27.3850   44.9460 C   0  0  0  0  0  0  0  0  0  0  0  0
   58.1070   26.3820   45.8600 C   0  0  0  0  0  0  0  0  0  0  0  0
   57.5790   25.1710   45.4030 C   0  0  0  0  0  0  0  0  0  0  0  0
   57.4140   24.9510   44.0330 C   0  0  0  0  0  0  0  0  0  0  0  0
   57.7710   25.9440   43.1190 C   0  0  0  0  0  0  0  0  0  0  0  0
   58.2980   27.1580   43.5710 C   0  0  0  0  0  0  0  0  0  0  0  0
   58.4140   29.9310   45.3330 C   0  0  0  0  0  0  0  0  0  0  0  0
   57.0800   30.1840   44.8520 C   0  0  0  0  0  0  0  0  0  0  0  0
   56.0060   30.3880   44.4720 N   0  0  0  0  0  0  0  0  0  0  0  0
   59.2950   30.8360   45.9220 C   0  0  0  0  0  0  0  0  0  0  0  0
   59.2620   32.2230   46.1610 C   0  0  0  0  0  0  0  0  0  0  0  0
   58.1960   33.0540   45.7680 C   0  0  0  0  0  0  0  0  0  0  0  0
   58.2320   34.4230   46.0390 C   0  0  0  0  0  0  0  0  0  0  0  0
   59.3250   34.9840   46.7010 C   0  0  0  0  0  0  0  0  0  0  0  0
   60.3970   34.1800   47.0950 C   0  0  0  0  0  0  0  0  0  0  0  0
   60.3830   32.7980   46.8320 C   0  0  0  0  0  0  0  0  0  0  0  0
   64.3936   33.5109   47.9175 H   0  0  0  0  0  0  0  0  0  0  0  0
   64.1545   32.3619   46.5576 H   0  0  0  0  0  0  0  0  0  0  0  0
   63.3025   33.9433   46.5576 H   0  0  0  0  0  0  0  0  0  0  0  0
   60.9150   28.0270   46.2310 H   0  0  0  0  0  0  0  0  0  0  0  0
   58.2302   26.5522   46.9398 H   0  0  0  0  0  0  0  0  0  0  0  0
   57.2930   24.3901   46.1230 H   0  0  0  0  0  0  0  0  0  0  0  0
   57.0029   23.9956   43.6748 H   0  0  0  0  0  0  0  0  0  0  0  0
   57.6375   25.7712   42.0409 H   0  0  0  0  0  0  0  0  0  0  0  0
   58.5701   27.9397   42.8464 H   0  0  0  0  0  0  0  0  0  0  0  0
   57.3301   32.6224   45.2446 H   0  0  0  0  0  0  0  0  0  0  0  0
   57.3934   35.0637   45.7287 H   0  0  0  0  0  0  0  0  0  0  0  0
   59.3423   36.0632   46.9132 H   0  0  0  0  0  0  0  0  0  0  0  0
   61.2566   34.6296   47.6136 H   0  0  0  0  0  0  0  0  0  0  0  0
  1  2  1  0
  2  3  1  0
  3  4  2  0
  4  5  1  0
  5  6  1  0
  6  7  1  0
  7  8  1  0
  8  9  2  0
  9 10  1  0
 10 11  2  0
 11 12  1  0
 12 13  2  0
  7 14  2  0
 14 15  1  0
 15 16  3  0
 14 17  1  0
 17 18  1  0
 18 19  2  0
 19 20  1  0
 20 21  2  0
 21 22  1  0
 22 23  2  0
 23  3  1  0
 17  5  2  0
 23 18  1  0
 13  8  1  0
  1 24  1  0
  1 25  1  0
  1 26  1  0
  6 27  1  0
  9 28  1  0
 10 29  1  0
 11 30  1  0
 12 31  1  0
 13 32  1  0
 19 33  1  0
 20 34  1  0
 21 35  1  0
 22 36  1  0
M  END
>  <UniqueID>  (58) 
52

>  <SMILES>  (58) 
COc1nc2[nH]c(-c3ccccc3)c(C#N)c2c2ccccc12

>  <Energy>  (58) 
83.97999332964979

>  <Genealogy>  (58) 
COc1nc2[nH]c(-c3ccccc3)c(C#N)c2c2ccccc12 (3D coordinates assigned)
COc1nc2[nH]c(-c3ccccc3)c(C#N)c2c2ccccc12 (optimized conformer: 83.97999332964979 kcal/mol)

>  <smiles>  (58) 
COc1nc2[nH]c(-c3ccccc3)c(C#N)c2c2ccccc12

>  <score_type>  (58) 
oracle

>  <origin>  (58) 
adg

>  <m_score__min__energy>  (58) 
-7.6500000000000004

>  <m_primary>  (58) 
energy

$$$$
58:0
     RDKit          3D

 45 47  0  0  0  0  0  0  0  0999 V2000
   58.3440   34.1020   46.8110 C   0  0  0  0  0  0  0  0  0  0  0  0
   58.5320   32.6420   46.8500 N   0  0  0  0  0  0  0  0  0  0  0  0
   58.7000   32.1840   48.2440 C   0  0  0  0  0  0  0  0  0  0  0  0
   58.6500   30.6520   48.2960 C   0  0  0  0  0  0  0  0  0  0  0  0
   59.3900   30.0730   47.1710 N   0  0  0  0  0  0  0  0  0  0  0  0
   59.1030   28.7320   46.7500 C   0  0  0  0  0  0  0  0  0  0  0  0
   59.9300   27.6980   47.2040 C   0  0  0  0  0  0  0  0  0  0  0  0
   59.7460   26.3900   46.7570 C   0  0  0  0  0  0  0  0  0  0  0  0
   58.7300   26.0890   45.8380 C   0  0  0  0  0  0  0  0  0  0  0  0
   58.5400   24.6970   45.3550 C   0  0  0  0  0  0  0  0  0  0  0  0
   59.5060   23.7120   45.6200 C   0  0  0  0  0  0  0  0  0  0  0  0
   59.3250   22.4040   45.1680 C   0  0  0  0  0  0  0  0  0  0  0  0
   58.1810   22.0620   44.4430 C   0  0  0  0  0  0  0  0  0  0  0  0
   57.2020   23.0290   44.1630 C   0  0  0  0  0  0  0  0  0  0  0  0
   55.9920   22.6640   43.3930 C   0  0  0  0  0  0  0  0  0  0  0  0
   55.9720   21.6200   42.6870 O   0  0  0  0  0  0  0  0  0  0  0  0
   54.8600   23.4690   43.4350 O   0  0  0  0  0  0  0  0  0  0  0  0
   57.3890   24.3460   44.6240 C   0  0  0  0  0  0  0  0  0  0  0  0
   57.8910   27.1230   45.3860 C   0  0  0  0  0  0  0  0  0  0  0  0
   58.0550   28.4450   45.8420 C   0  0  0  0  0  0  0  0  0  0  0  0
   57.1010   29.4830   45.3810 C   0  0  0  0  0  0  0  0  0  0  0  0
   55.7740   29.1360   44.9920 N   0  0  0  0  0  0  0  0  0  0  0  0
   57.4710   30.6850   45.2940 O   0  0  0  0  0  0  0  0  0  0  0  0
   60.3240   30.9000   46.4000 C   0  0  0  0  0  0  0  0  0  0  0  0
   59.6800   32.2440   45.9910 C   0  0  0  0  0  0  0  0  0  0  0  0
   58.2937   34.4928   47.8380 H   0  0  0  0  0  0  0  0  0  0  0  0
   59.1897   34.5666   46.2829 H   0  0  0  0  0  0  0  0  0  0  0  0
   57.4082   34.3372   46.2829 H   0  0  0  0  0  0  0  0  0  0  0  0
   57.6610   32.2080   46.4600 H   0  0  0  0  0  0  0  0  0  0  0  0
   59.6705   32.5311   48.6282 H   0  0  0  0  0  0  0  0  0  0  0  0
   57.8886   32.5955   48.8622 H   0  0  0  0  0  0  0  0  0  0  0  0
   59.0987   30.3075   49.2394 H   0  0  0  0  0  0  0  0  0  0  0  0
   57.6003   30.3292   48.2336 H   0  0  0  0  0  0  0  0  0  0  0  0
   60.7339   27.9196   47.9213 H   0  0  0  0  0  0  0  0  0  0  0  0
   60.4022   25.5887   47.1277 H   0  0  0  0  0  0  0  0  0  0  0  0
   60.4112   23.9734   46.1876 H   0  0  0  0  0  0  0  0  0  0  0  0
   60.0860   21.6396   45.3835 H   0  0  0  0  0  0  0  0  0  0  0  0
   58.0462   21.0292   44.0894 H   0  0  0  0  0  0  0  0  0  0  0  0
   56.6268   25.1099   44.4106 H   0  0  0  0  0  0  0  0  0  0  0  0
   57.0930   26.8952   44.6639 H   0  0  0  0  0  0  0  0  0  0  0  0
   55.1480   28.6000   45.6330 H   0  0  0  0  0  0  0  0  0  0  0  0
   61.2143   31.1016   47.0137 H   0  0  0  0  0  0  0  0  0  0  0  0
   60.5968   30.3537   45.4851 H   0  0  0  0  0  0  0  0  0  0  0  0
   60.4476   33.0296   46.0510 H   0  0  0  0  0  0  0  0  0  0  0  0
   59.2895   32.1165   44.9706 H   0  0  0  0  0  0  0  0  0  0  0  0
  1  2  1  0
  2  3  1  0
  3  4  1  0
  4  5  1  0
  5  6  1  0
  6  7  2  0
  7  8  1  0
  8  9  2  0
  9 10  1  0
 10 11  2  0
 11 12  1  0
 12 13  2  0
 13 14  1  0
 14 15  1  0
 15 16  2  0
 15 17  1  0
 14 18  2  0
  9 19  1  0
 19 20  2  0
 20 21  1  0
 21 22  1  0
 21 23  2  0
  5 24  1  0
 24 25  1  0
 25  2  1  0
 20  6  1  0
 18 10  1  0
  1 26  1  0
  1 27  1  0
  1 28  1  0
  2 29  1  0
  3 30  1  0
  3 31  1  0
  4 32  1  0
  4 33  1  0
  7 34  1  0
  8 35  1  0
 11 36  1  0
 12 37  1  0
 13 38  1  0
 18 39  1  0
 19 40  1  0
 22 41  1  0
 24 42  1  0
 24 43  1  0
 25 44  1  0
 25 45  1  0
M  CHG  3   2   1  17  -1  22  -1
M  END
>  <UniqueID>  (59) 
53

>  <SMILES>  (59) 
C[NH+]1CCN(c2ccc(-c3cccc(C(=O)[O-])c3)cc2C([NH-])=O)CC1

>  <Energy>  (59) 
66.53269323507683

>  <Genealogy>  (59) 
C[NH+]1CCN(c2ccc(-c3cccc(C(=O)[O-])c3)cc2C([NH-])=O)CC1 (protonated)
C[NH+]1CCN(c2ccc(-c3cccc(C(=O)[O-])c3)cc2C([NH-])=O)CC1 (3D coordinates assigned)
C[NH+]1CCN(c2ccc(-c3cccc(C(=O)[O-])c3)cc2C([NH-])=O)CC1 (nonaromatic ring conformer: 66.53269323507683 kcal/mol)

>  <smiles>  (59) 
CN1CCN(c2ccc(-c3cccc(C(=O)O)c3)cc2C(N)=O)CC1

>  <score_type>  (59) 
oracle

>  <origin>  (59) 
adg

>  <m_score__min__energy>  (59) 
-10.76

>  <m_primary>  (59) 
energy

$$$$
59:0
     RDKit          3D

 43 45  0  0  0  0  0  0  0  0999 V2000
   57.4580   32.3700   41.0400 C   0  0  0  0  0  0  0  0  0  0  0  0
   57.4110   31.6610   42.3610 C   0  0  0  0  0  0  0  0  0  0  0  0
   56.6360   30.5030   42.5120 C   0  0  0  0  0  0  0  0  0  0  0  0
   56.5740   29.8560   43.7470 C   0  0  0  0  0  0  0  0  0  0  0  0
   57.2680   30.3690   44.8440 C   0  0  0  0  0  0  0  0  0  0  0  0
   58.0250   31.5480   44.7250 C   0  0  0  0  0  0  0  0  0  0  0  0
   58.7530   32.0810   45.9040 C   0  0  0  0  0  0  0  0  0  0  0  0
   59.4370   31.2380   46.7970 C   0  0  0  0  0  0  0  0  0  0  0  0
   60.1110   31.7880   47.8880 C   0  0  0  0  0  0  0  0  0  0  0  0
   60.1130   33.1740   48.0890 C   0  0  0  0  0  0  0  0  0  0  0  0
   60.8580   33.7800   49.2570 C   0  0  0  0  0  0  0  0  0  0  0  0
   62.2270   34.2270   48.8880 N   0  0  0  0  0  0  0  0  0  0  0  0
   63.2590   33.7720   49.8510 C   0  0  0  0  0  0  0  0  0  0  0  0
   63.4680   32.2440   49.8290 C   0  0  0  0  0  0  0  0  0  0  0  0
   63.3450   31.6440   48.4190 C   0  0  0  0  0  0  0  0  0  0  0  0
   63.5680   32.7000   47.3400 C   0  0  0  0  0  0  0  0  0  0  0  0
   62.5610   33.8610   47.4770 C   0  0  0  0  0  0  0  0  0  0  0  0
   59.4290   33.9850   47.1730 C   0  0  0  0  0  0  0  0  0  0  0  0
   58.7780   33.4270   46.1180 N   0  0  0  0  0  0  0  0  0  0  0  0
   58.0920   32.1880   43.4700 C   0  0  0  0  0  0  0  0  0  0  0  0
   57.5299   33.4547   41.2084 H   0  0  0  0  0  0  0  0  0  0  0  0
   58.3355   32.0282   40.4714 H   0  0  0  0  0  0  0  0  0  0  0  0
   56.5431   32.1471   40.4714 H   0  0  0  0  0  0  0  0  0  0  0  0
   56.0750   30.1029   41.6546 H   0  0  0  0  0  0  0  0  0  0  0  0
   55.9764   28.9390   43.8562 H   0  0  0  0  0  0  0  0  0  0  0  0
   57.2223   29.8461   45.8107 H   0  0  0  0  0  0  0  0  0  0  0  0
   59.4409   30.1498   46.6365 H   0  0  0  0  0  0  0  0  0  0  0  0
   60.6423   31.1310   48.5923 H   0  0  0  0  0  0  0  0  0  0  0  0
   60.2909   34.6475   49.6255 H   0  0  0  0  0  0  0  0  0  0  0  0
   60.9566   33.0037   50.0300 H   0  0  0  0  0  0  0  0  0  0  0  0
   62.2230   35.2750   48.9300 H   0  0  0  0  0  0  0  0  0  0  0  0
   64.2123   34.2603   49.6007 H   0  0  0  0  0  0  0  0  0  0  0  0
   62.9125   34.0434   50.8591 H   0  0  0  0  0  0  0  0  0  0  0  0
   64.4722   32.0214   50.2189 H   0  0  0  0  0  0  0  0  0  0  0  0
   62.6791   31.7938   50.4495 H   0  0  0  0  0  0  0  0  0  0  0  0
   64.0965   30.8493   48.3020 H   0  0  0  0  0  0  0  0  0  0  0  0
   62.3279   31.2416   48.3029 H   0  0  0  0  0  0  0  0  0  0  0  0
   64.5891   33.0981   47.4336 H   0  0  0  0  0  0  0  0  0  0  0  0
   63.4234   32.2285   46.3568 H   0  0  0  0  0  0  0  0  0  0  0  0
   62.9882   34.7467   46.9839 H   0  0  0  0  0  0  0  0  0  0  0  0
   61.6244   33.5203   47.0114 H   0  0  0  0  0  0  0  0  0  0  0  0
   59.4189   35.0766   47.3082 H   0  0  0  0  0  0  0  0  0  0  0  0
   58.6834   33.1088   43.3590 H   0  0  0  0  0  0  0  0  0  0  0  0
  1  2  1  0
  2  3  2  0
  3  4  1  0
  4  5  2  0
  5  6  1  0
  6  7  1  0
  7  8  2  0
  8  9  1  0
  9 10  2  0
 10 11  1  0
 11 12  1  0
 12 13  1  0
 13 14  1  0
 14 15  1  0
 15 16  1  0
 16 17  1  0
 10 18  1  0
 18 19  2  0
  6 20  2  0
 20  2  1  0
 19  7  1  0
 17 12  1  0
  1 21  1  0
  1 22  1  0
  1 23  1  0
  3 24  1  0
  4 25  1  0
  5 26  1  0
  8 27  1  0
  9 28  1  0
 11 29  1  0
 11 30  1  0
 12 31  1  0
 13 32  1  0
 13 33  1  0
 14 34  1  0
 14 35  1  0
 15 36  1  0
 15 37  1  0
 16 38  1  0
 16 39  1  0
 17 40  1  0
 17 41  1  0
 18 42  1  0
 20 43  1  0
M  CHG  1  12   1
M  END
>  <UniqueID>  (60) 
54

>  <SMILES>  (60) 
Cc1cccc(-c2ccc(C[NH+]3CCCCC3)cn2)c1

>  <Energy>  (60) 
57.31341657068572

>  <Genealogy>  (60) 
Cc1cccc(-c2ccc(C[NH+]3CCCCC3)cn2)c1 (protonated)
Cc1cccc(-c2ccc(C[NH+]3CCCCC3)cn2)c1 (3D coordinates assigned)
Cc1cccc(-c2ccc(C[NH+]3CCCCC3)cn2)c1 (nonaromatic ring conformer: 57.31341657068572 kcal/mol)

>  <smiles>  (60) 
Cc1cccc(-c2ccc(CN3CCCCC3)cn2)c1

>  <score_type>  (60) 
oracle

>  <origin>  (60) 
adg

>  <m_score__min__energy>  (60) 
-6.1299999999999999

>  <m_primary>  (60) 
energy

$$$$
60:0
     RDKit          3D

 54 58  0  0  0  0  0  0  0  0999 V2000
   59.6430   33.5650   50.0610 C   0  0  0  0  0  0  0  0  0  0  0  0
   59.6820   33.6700   48.5610 C   0  0  0  0  0  0  0  0  0  0  0  0
   59.6380   34.9330   47.9470 C   0  0  0  0  0  0  0  0  0  0  0  0
   59.6770   35.0440   46.5540 C   0  0  0  0  0  0  0  0  0  0  0  0
   59.7560   33.8960   45.7620 C   0  0  0  0  0  0  0  0  0  0  0  0
   59.7920   32.6350   46.3600 C   0  0  0  0  0  0  0  0  0  0  0  0
   59.7490   32.5120   47.7560 C   0  0  0  0  0  0  0  0  0  0  0  0
   59.7760   31.2060   48.3470 N   0  0  0  0  0  0  0  0  0  0  0  0
   58.5660   30.3820   48.3350 C   0  0  0  0  0  0  0  0  0  0  0  0
   58.7230   29.1610   49.2550 C   0  0  0  0  0  0  0  0  0  0  0  0
   59.9950   28.4360   49.0320 N   0  0  0  0  0  0  0  0  0  0  0  0
   59.8930   27.2200   48.1910 C   0  0  0  0  0  0  0  0  0  0  0  0
   58.7780   27.2740   47.1650 C   0  0  0  0  0  0  0  0  0  0  0  0
   58.7260   28.2910   46.1870 C   0  0  0  0  0  0  0  0  0  0  0  0
   57.6490   28.3750   45.2690 C   0  0  0  0  0  0  0  0  0  0  0  0
   57.5700   29.4910   44.2940 C   0  0  0  0  0  0  0  0  0  0  0  0
   56.7190   29.4000   43.1770 C   0  0  0  0  0  0  0  0  0  0  0  0
   56.6280   30.4600   42.2680 C   0  0  0  0  0  0  0  0  0  0  0  0
   57.3840   31.6170   42.4630 C   0  0  0  0  0  0  0  0  0  0  0  0
   58.2330   31.7180   43.5680 C   0  0  0  0  0  0  0  0  0  0  0  0
   58.3260   30.6620   44.4810 C   0  0  0  0  0  0  0  0  0  0  0  0
   56.6430   27.3900   45.3170 C   0  0  0  0  0  0  0  0  0  0  0  0
   56.7610   26.4030   46.2370 N   0  0  0  0  0  0  0  0  0  0  0  0
   56.0070   25.3280   46.5010 C   0  0  0  0  0  0  0  0  0  0  0  0
   54.9500   25.0290   45.8840 O   0  0  0  0  0  0  0  0  0  0  0  0
   56.5240   24.5960   47.5090 N   0  0  0  0  0  0  0  0  0  0  0  0
   57.6330   25.2170   47.9020 N   0  0  0  0  0  0  0  0  0  0  0  0
   57.7590   26.3120   47.1230 C   0  0  0  0  0  0  0  0  0  0  0  0
   61.1950   29.2680   48.7690 C   0  0  0  0  0  0  0  0  0  0  0  0
   60.9670   30.7520   49.0660 C   0  0  0  0  0  0  0  0  0  0  0  0
   59.9936   34.5089   50.5039 H   0  0  0  0  0  0  0  0  0  0  0  0
   58.6115   33.3674   50.3880 H   0  0  0  0  0  0  0  0  0  0  0  0
   60.2954   32.7419   50.3880 H   0  0  0  0  0  0  0  0  0  0  0  0
   59.5725   35.8399   48.5661 H   0  0  0  0  0  0  0  0  0  0  0  0
   59.6454   36.0366   46.0810 H   0  0  0  0  0  0  0  0  0  0  0  0
   59.7899   33.9857   44.6662 H   0  0  0  0  0  0  0  0  0  0  0  0
   59.8544   31.7335   45.7328 H   0  0  0  0  0  0  0  0  0  0  0  0
   57.7152   30.9869   48.6818 H   0  0  0  0  0  0  0  0  0  0  0  0
   58.3931   30.0276   47.3081 H   0  0  0  0  0  0  0  0  0  0  0  0
   58.6910   29.5018   50.3004 H   0  0  0  0  0  0  0  0  0  0  0  0
   57.9009   28.4664   49.0278 H   0  0  0  0  0  0  0  0  0  0  0  0
   60.8466   27.0857   47.6594 H   0  0  0  0  0  0  0  0  0  0  0  0
   59.6645   26.3828   48.8669 H   0  0  0  0  0  0  0  0  0  0  0  0
   59.5369   29.0325   46.1364 H   0  0  0  0  0  0  0  0  0  0  0  0
   56.1217   28.4902   43.0174 H   0  0  0  0  0  0  0  0  0  0  0  0
   55.9594   30.3813   41.3981 H   0  0  0  0  0  0  0  0  0  0  0  0
   57.3114   32.4489   41.7470 H   0  0  0  0  0  0  0  0  0  0  0  0
   58.8295   32.6296   43.7204 H   0  0  0  0  0  0  0  0  0  0  0  0
   58.9945   30.7482   45.3503 H   0  0  0  0  0  0  0  0  0  0  0  0
   55.7866   27.4215   44.6274 H   0  0  0  0  0  0  0  0  0  0  0  0
   62.0188   28.9059   49.4016 H   0  0  0  0  0  0  0  0  0  0  0  0
   61.4312   29.1779   47.6985 H   0  0  0  0  0  0  0  0  0  0  0  0
   60.8210   30.8932   50.1471 H   0  0  0  0  0  0  0  0  0  0  0  0
   61.8415   31.3342   48.7399 H   0  0  0  0  0  0  0  0  0  0  0  0
  1  2  1  0
  2  3  2  0
  3  4  1  0
  4  5  2  0
  5  6  1  0
  6  7  2  0
  7  8  1  0
  8  9  1  0
  9 10  1  0
 10 11  1  0
 11 12  1  0
 12 13  1  0
 13 14  2  0
 14 15  1  0
 15 16  1  0
 16 17  2  0
 17 18  1  0
 18 19  2  0
 19 20  1  0
 20 21  2  0
 15 22  2  0
 22 23  1  0
 23 24  1  0
 24 25  2  0
 24 26  1  0
 26 27  1  0
 27 28  2  0
 11 29  1  0
 29 30  1  0
  7  2  1  0
 30  8  1  0
 28 13  1  0
 21 16  1  0
 28 23  1  0
  1 31  1  0
  1 32  1  0
  1 33  1  0
  3 34  1  0
  4 35  1  0
  5 36  1  0
  6 37  1  0
  9 38  1  0
  9 39  1  0
 10 40  1  0
 10 41  1  0
 12 42  1  0
 12 43  1  0
 14 44  1  0
 17 45  1  0
 18 46  1  0
 19 47  1  0
 20 48  1  0
 21 49  1  0
 22 50  1  0
 29 51  1  0
 29 52  1  0
 30 53  1  0
 30 54  1  0
M  CHG  1  26  -1
M  END
>  <UniqueID>  (61) 
55

>  <SMILES>  (61) 
Cc1ccccc1N1CCN(Cc2cc(-c3ccccc3)cn3c(=O)[n-]nc23)CC1

>  <Energy>  (61) 
119.80770495809114

>  <Genealogy>  (61) 
Cc1ccccc1N1CCN(Cc2cc(-c3ccccc3)cn3c(=O)[n-]nc23)CC1 (protonated)
Cc1ccccc1N1CCN(Cc2cc(-c3ccccc3)cn3c(=O)[n-]nc23)CC1 (3D coordinates assigned)
Cc1ccccc1N1CCN(Cc2cc(-c3ccccc3)cn3c(=O)[n-]nc23)CC1 (nonaromatic ring conformer: 119.80770495809114 kcal/mol)

>  <smiles>  (61) 
Cc1ccccc1N1CCN(Cc2cc(-c3ccccc3)cn3c(=O)[nH]nc23)CC1

>  <score_type>  (61) 
oracle

>  <origin>  (61) 
adg

>  <m_score__min__energy>  (61) 
-10.81

>  <m_primary>  (61) 
energy

$$$$
61:0
     RDKit          3D

 39 42  0  0  0  0  0  0  0  0999 V2000
   55.9020   24.4420   44.2900 C   0  0  0  0  0  0  0  0  0  0  0  0
   55.4800   24.9280   45.6950 C   0  0  1  0  0  0  0  0  0  0  0  0
   54.3530   25.7770   45.6200 O   0  0  0  0  0  0  0  0  0  0  0  0
   55.1340   23.7110   46.5560 C   0  0  0  0  0  0  0  0  0  0  0  0
   53.9840   22.9420   46.2770 C   0  0  0  0  0  0  0  0  0  0  0  0
   53.6990   21.7920   47.0190 C   0  0  0  0  0  0  0  0  0  0  0  0
   54.5570   21.3870   48.0410 C   0  0  0  0  0  0  0  0  0  0  0  0
   55.7030   22.1320   48.3240 C   0  0  0  0  0  0  0  0  0  0  0  0
   55.9920   23.2890   47.5930 C   0  0  0  0  0  0  0  0  0  0  0  0
   57.1350   24.0200   47.9160 O   0  0  0  0  0  0  0  0  0  0  0  0
   57.4290   25.2430   47.3170 C   0  0  0  0  0  0  0  0  0  0  0  0
   58.5270   25.9750   47.7780 C   0  0  0  0  0  0  0  0  0  0  0  0
   58.8290   27.2200   47.2260 C   0  0  0  0  0  0  0  0  0  0  0  0
   58.0240   27.7560   46.2090 C   0  0  0  0  0  0  0  0  0  0  0  0
   58.3260   29.0270   45.6050 N   0  0  0  0  0  0  0  0  0  0  0  0
   57.3290   29.9900   45.2240 C   0  0  0  0  0  0  0  0  0  0  0  0
   56.1180   29.6510   45.1410 O   0  0  0  0  0  0  0  0  0  0  0  0
   57.7140   31.3730   44.8890 C   0  0  0  0  0  0  0  0  0  0  0  0
   58.0830   31.8290   43.6280 C   0  0  0  0  0  0  0  0  0  0  0  0
   58.3880   33.1960   43.6000 C   0  0  0  0  0  0  0  0  0  0  0  0
   58.2570   33.8220   44.8320 C   0  0  0  0  0  0  0  0  0  0  0  0
   57.7620   32.6740   45.9560 S   0  0  0  0  0  0  0  0  0  0  0  0
   56.9410   27.0070   45.7260 C   0  0  0  0  0  0  0  0  0  0  0  0
   56.6280   25.7470   46.2760 C   0  0  0  0  0  0  0  0  0  0  0  0
   56.6203   23.6148   44.3886 H   0  0  0  0  0  0  0  0  0  0  0  0
   55.0149   24.0938   43.7407 H   0  0  0  0  0  0  0  0  0  0  0  0
   56.3712   25.2715   43.7407 H   0  0  0  0  0  0  0  0  0  0  0  0
   54.2960   26.3150   46.4520 H   0  0  0  0  0  0  0  0  0  0  0  0
   53.3055   23.2504   45.4680 H   0  0  0  0  0  0  0  0  0  0  0  0
   52.7957   21.2051   46.7961 H   0  0  0  0  0  0  0  0  0  0  0  0
   54.3310   20.4816   48.6234 H   0  0  0  0  0  0  0  0  0  0  0  0
   56.3823   21.8075   49.1260 H   0  0  0  0  0  0  0  0  0  0  0  0
   59.1573   25.5665   48.5816 H   0  0  0  0  0  0  0  0  0  0  0  0
   59.7011   27.7836   47.5891 H   0  0  0  0  0  0  0  0  0  0  0  0
   59.3200   29.2170   45.3470 H   0  0  0  0  0  0  0  0  0  0  0  0
   58.1306   31.1806   42.7407 H   0  0  0  0  0  0  0  0  0  0  0  0
   58.7019   33.7238   42.6874 H   0  0  0  0  0  0  0  0  0  0  0  0
   58.4448   34.8862   45.0375 H   0  0  0  0  0  0  0  0  0  0  0  0
   56.3270   27.4083   44.9063 H   0  0  0  0  0  0  0  0  0  0  0  0
  1  2  1  0
  2  3  1  6
  2  4  1  0
  4  5  2  0
  5  6  1  0
  6  7  2  0
  7  8  1  0
  8  9  2  0
  9 10  1  0
 10 11  1  0
 11 12  2  0
 12 13  1  0
 13 14  2  0
 14 15  1  0
 15 16  1  0
 16 17  2  0
 16 18  1  0
 18 19  2  0
 19 20  1  0
 20 21  2  0
 21 22  1  0
 14 23  1  0
 23 24  2  0
 24  2  1  0
  9  4  1  0
 24 11  1  0
 22 18  1  0
  1 25  1  0
  1 26  1  0
  1 27  1  0
  3 28  1  0
  5 29  1  0
  6 30  1  0
  7 31  1  0
  8 32  1  0
 12 33  1  0
 13 34  1  0
 15 35  1  0
 19 36  1  0
 20 37  1  0
 21 38  1  0
 23 39  1  0
M  END
>  <UniqueID>  (62) 
56

>  <SMILES>  (62) 
C[C@@]1(O)c2ccccc2Oc2ccc(NC(=O)c3cccs3)cc21

>  <Energy>  (62) 
78.02979406644303

>  <Genealogy>  (62) 
C[C@@]1(O)c2ccccc2Oc2ccc(NC(=O)c3cccs3)cc21 (chirality)
C[C@@]1(O)c2ccccc2Oc2ccc(NC(=O)c3cccs3)cc21 (3D coordinates assigned)
C[C@@]1(O)c2ccccc2Oc2ccc(NC(=O)c3cccs3)cc21 (nonaromatic ring conformer: 78.02979406644303 kcal/mol)

>  <smiles>  (62) 
CC1(O)c2ccccc2Oc2ccc(NC(=O)c3cccs3)cc21

>  <score_type>  (62) 
oracle

>  <origin>  (62) 
adg

>  <m_score__min__energy>  (62) 
-8.0099999999999998

>  <m_primary>  (62) 
energy

$$$$
62:0
     RDKit          3D

 49 51  0  0  0  0  0  0  0  0999 V2000
   55.7190   29.6630   45.1620 O   0  0  0  0  0  0  0  0  0  0  0  0
   56.6830   30.3160   44.6750 C   0  0  0  0  0  0  0  0  0  0  0  0
   57.1840   31.4760   45.3550 N   0  0  0  0  0  0  0  0  0  0  0  0
   58.1800   31.4990   46.3880 C   0  0  0  0  0  0  0  0  0  0  0  0
   58.6960   32.7020   46.9040 C   0  0  0  0  0  0  0  0  0  0  0  0
   59.6400   32.6800   47.9350 C   0  0  0  0  0  0  0  0  0  0  0  0
   60.0790   31.4550   48.4670 C   0  0  0  0  0  0  0  0  0  0  0  0
   61.0100   31.3940   49.5160 O   0  0  0  0  0  0  0  0  0  0  0  0
   62.3110   31.9140   49.4780 C   0  0  0  0  0  0  0  0  0  0  0  0
   62.7550   32.5360   48.3050 C   0  0  0  0  0  0  0  0  0  0  0  0
   64.0420   33.0790   48.2350 C   0  0  0  0  0  0  0  0  0  0  0  0
   64.8880   33.0170   49.3450 C   0  0  0  0  0  0  0  0  0  0  0  0
   64.4470   32.4160   50.5280 C   0  0  0  0  0  0  0  0  0  0  0  0
   63.1620   31.8700   50.5990 C   0  0  0  0  0  0  0  0  0  0  0  0
   59.5360   30.2630   47.9800 C   0  0  0  0  0  0  0  0  0  0  0  0
   58.5890   30.2840   46.9500 C   0  0  0  0  0  0  0  0  0  0  0  0
   57.3040   29.8990   43.4360 N   0  0  2  0  0  0  0  0  0  0  0  0
   56.6390   30.4730   42.2400 C   0  0  0  0  0  0  0  0  0  0  0  0
   57.2420   31.8230   41.8260 C   0  0  0  0  0  0  0  0  0  0  0  0
   58.1630   32.2540   42.7890 O   0  0  0  0  0  0  0  0  0  0  0  0
   57.4040   28.4210   43.3710 C   0  0  0  0  0  0  0  0  0  0  0  0
   58.2390   27.8110   44.4790 C   0  0  0  0  0  0  0  0  0  0  0  0
   59.5880   28.1730   44.6390 C   0  0  0  0  0  0  0  0  0  0  0  0
   60.3540   27.6030   45.6600 C   0  0  0  0  0  0  0  0  0  0  0  0
   59.7810   26.6730   46.5320 C   0  0  0  0  0  0  0  0  0  0  0  0
   58.4380   26.3160   46.3880 C   0  0  0  0  0  0  0  0  0  0  0  0
   57.6690   26.8830   45.3680 C   0  0  0  0  0  0  0  0  0  0  0  0
   58.3551   33.6643   46.4943 H   0  0  0  0  0  0  0  0  0  0  0  0
   60.0407   33.6246   48.3314 H   0  0  0  0  0  0  0  0  0  0  0  0
   62.0875   32.5980   47.4329 H   0  0  0  0  0  0  0  0  0  0  0  0
   64.3882   33.5550   47.3057 H   0  0  0  0  0  0  0  0  0  0  0  0
   65.9014   33.4411   49.2883 H   0  0  0  0  0  0  0  0  0  0  0  0
   65.1117   32.3728   51.4034 H   0  0  0  0  0  0  0  0  0  0  0  0
   62.8147   31.4047   51.5333 H   0  0  0  0  0  0  0  0  0  0  0  0
   59.8551   29.3018   48.4092 H   0  0  0  0  0  0  0  0  0  0  0  0
   58.1633   29.3397   46.5796 H   0  0  0  0  0  0  0  0  0  0  0  0
   58.2900   30.2530   43.4470 H   0  0  0  0  0  0  0  0  0  0  0  0
   56.7461   29.7669   41.4034 H   0  0  0  0  0  0  0  0  0  0  0  0
   55.5818   30.6414   42.4927 H   0  0  0  0  0  0  0  0  0  0  0  0
   57.7527   31.7119   40.8581 H   0  0  0  0  0  0  0  0  0  0  0  0
   56.4358   32.5665   41.7405 H   0  0  0  0  0  0  0  0  0  0  0  0
   57.6430   32.3870   43.6250 H   0  0  0  0  0  0  0  0  0  0  0  0
   56.3886   28.0024   43.4325 H   0  0  0  0  0  0  0  0  0  0  0  0
   57.9056   28.1770   42.4229 H   0  0  0  0  0  0  0  0  0  0  0  0
   60.0425   28.9077   43.9581 H   0  0  0  0  0  0  0  0  0  0  0  0
   61.4102   27.8870   45.7774 H   0  0  0  0  0  0  0  0  0  0  0  0
   60.3873   26.2223   47.3315 H   0  0  0  0  0  0  0  0  0  0  0  0
   57.9856   25.5883   47.0778 H   0  0  0  0  0  0  0  0  0  0  0  0
   56.6111   26.6014   45.2601 H   0  0  0  0  0  0  0  0  0  0  0  0
  1  2  2  0
  2  3  1  0
  3  4  1  0
  4  5  2  0
  5  6  1  0
  6  7  2  0
  7  8  1  0
  8  9  1  0
  9 10  2  0
 10 11  1  0
 11 12  2  0
 12 13  1  0
 13 14  2  0
  7 15  1  0
 15 16  2  0
  2 17  1  0
 17 18  1  0
 18 19  1  0
 19 20  1  0
 17 21  1  0
 21 22  1  0
 22 23  2  0
 23 24  1  0
 24 25  2  0
 25 26  1  0
 26 27  2  0
 16  4  1  0
 27 22  1  0
 14  9  1  0
  5 28  1  0
  6 29  1  0
 10 30  1  0
 11 31  1  0
 12 32  1  0
 13 33  1  0
 14 34  1  0
 15 35  1  0
 16 36  1  0
 17 37  1  1
 18 38  1  0
 18 39  1  0
 19 40  1  0
 19 41  1  0
 20 42  1  0
 21 43  1  0
 21 44  1  0
 23 45  1  0
 24 46  1  0
 25 47  1  0
 26 48  1  0
 27 49  1  0
M  CHG  2   3  -1  17   1
M  END
>  <UniqueID>  (63) 
57

>  <SMILES>  (63) 
O=C([N-]c1ccc(Oc2ccccc2)cc1)[N@H+](CCO)Cc1ccccc1

>  <Energy>  (63) 
64.00176743054378

>  <Genealogy>  (63) 
O=C([N-]c1ccc(Oc2ccccc2)cc1)[NH+](CCO)Cc1ccccc1 (protonated)
O=C([N-]c1ccc(Oc2ccccc2)cc1)[N@H+](CCO)Cc1ccccc1 (chirality)
O=C([N-]c1ccc(Oc2ccccc2)cc1)[N@H+](CCO)Cc1ccccc1 (3D coordinates assigned)
O=C([N-]c1ccc(Oc2ccccc2)cc1)[N@H+](CCO)Cc1ccccc1 (optimized conformer: 64.00176743054378 kcal/mol)

>  <smiles>  (63) 
O=C(Nc1ccc(Oc2ccccc2)cc1)N(CCO)Cc1ccccc1

>  <score_type>  (63) 
oracle

>  <origin>  (63) 
adg

>  <m_score__min__energy>  (63) 
-8.0399999999999991

>  <m_primary>  (63) 
energy

$$$$
63:0
     RDKit          3D

 59 62  0  0  0  0  0  0  0  0999 V2000
   57.4130   33.2240   46.0040 C   0  0  0  0  0  0  0  0  0  0  0  0
   58.1110   34.0640   45.2420 C   0  0  0  0  0  0  0  0  0  0  0  0
   59.1170   34.9890   45.7960 C   0  0  0  0  0  0  0  0  0  0  0  0
   59.6410   35.8460   45.0350 O   0  0  0  0  0  0  0  0  0  0  0  0
   59.4560   34.9460   47.1900 N   0  0  0  0  0  0  0  0  0  0  0  0
   60.3610   34.0310   47.8240 C   0  0  0  0  0  0  0  0  0  0  0  0
   60.3320   32.6500   47.5590 C   0  0  0  0  0  0  0  0  0  0  0  0
   61.1980   31.7730   48.2290 C   0  0  0  0  0  0  0  0  0  0  0  0
   61.1060   30.3610   47.9650 N   0  0  0  0  0  0  0  0  0  0  0  0
   60.0740   29.7360   47.1870 C   0  0  0  0  0  0  0  0  0  0  0  0
   59.0240   30.3650   46.8840 O   0  0  0  0  0  0  0  0  0  0  0  0
   60.2060   28.2930   46.7910 C   0  0  0  0  0  0  0  0  0  0  0  0
   58.8540   27.6650   46.5560 C   0  0  0  0  0  0  0  0  0  0  0  0
   57.9610   28.2170   45.6220 C   0  0  0  0  0  0  0  0  0  0  0  0
   56.7020   27.6420   45.4230 C   0  0  0  0  0  0  0  0  0  0  0  0
   56.2990   26.5370   46.1810 C   0  0  0  0  0  0  0  0  0  0  0  0
   54.9980   25.9770   45.9530 N   0  0  0  0  0  0  0  0  0  0  0  0
   54.7320   24.6040   45.6330 C   0  0  0  0  0  0  0  0  0  0  0  0
   53.6480   24.2790   45.0740 O   0  0  0  0  0  0  0  0  0  0  0  0
   55.7530   23.5690   45.9120 C   0  0  0  0  0  0  0  0  0  0  0  0
   56.8080   23.3370   45.0000 C   0  0  0  0  0  0  0  0  0  0  0  0
   57.0080   24.2810   43.5270 Cl  0  0  0  0  0  0  0  0  0  0  0  0
   57.7620   22.3590   45.2910 C   0  0  0  0  0  0  0  0  0  0  0  0
   57.6830   21.6420   46.4410 N   0  0  0  0  0  0  0  0  0  0  0  0
   56.6830   21.8390   47.3360 C   0  0  0  0  0  0  0  0  0  0  0  0
   55.6970   22.8010   47.0940 C   0  0  0  0  0  0  0  0  0  0  0  0
   54.3920   22.9650   48.2670 Cl  0  0  0  0  0  0  0  0  0  0  0  0
   57.1910   25.9800   47.1130 C   0  0  0  0  0  0  0  0  0  0  0  0
   58.4580   26.5410   47.2990 C   0  0  0  0  0  0  0  0  0  0  0  0
   62.0720   32.2870   49.2030 C   0  0  0  0  0  0  0  0  0  0  0  0
   62.1210   33.6660   49.4660 C   0  0  0  0  0  0  0  0  0  0  0  0
   63.0000   34.2010   50.4710 N   0  0  0  0  0  0  0  0  0  0  0  0
   64.3850   33.8380   50.6130 C   0  0  0  0  0  0  0  0  0  0  0  0
   65.1220   34.1730   51.7630 C   0  0  0  0  0  0  0  0  0  0  0  0
   66.4550   33.7790   51.8780 C   0  0  0  0  0  0  0  0  0  0  0  0
   67.0410   33.0380   50.8500 C   0  0  0  0  0  0  0  0  0  0  0  0
   66.3110   32.7020   49.7520 N   0  0  0  0  0  0  0  0  0  0  0  0
   65.0110   33.0750   49.6160 C   0  0  0  0  0  0  0  0  0  0  0  0
   61.2440   34.5240   48.7900 C   0  0  0  0  0  0  0  0  0  0  0  0
   56.6725   32.5518   45.5459 H   0  0  0  0  0  0  0  0  0  0  0  0
   57.5769   33.2023   47.0915 H   0  0  0  0  0  0  0  0  0  0  0  0
   57.9301   34.0680   44.1570 H   0  0  0  0  0  0  0  0  0  0  0  0
   59.6223   32.2532   46.8181 H   0  0  0  0  0  0  0  0  0  0  0  0
   61.8050   29.7340   48.4270 H   0  0  0  0  0  0  0  0  0  0  0  0
   60.7975   28.2276   45.8659 H   0  0  0  0  0  0  0  0  0  0  0  0
   60.7037   27.7517   47.6091 H   0  0  0  0  0  0  0  0  0  0  0  0
   58.2539   29.1061   45.0444 H   0  0  0  0  0  0  0  0  0  0  0  0
   56.0237   28.0613   44.6653 H   0  0  0  0  0  0  0  0  0  0  0  0
   58.5826   22.1686   44.5837 H   0  0  0  0  0  0  0  0  0  0  0  0
   56.6473   21.2389   48.2572 H   0  0  0  0  0  0  0  0  0  0  0  0
   56.8911   25.0986   47.6989 H   0  0  0  0  0  0  0  0  0  0  0  0
   59.1491   26.0992   48.0320 H   0  0  0  0  0  0  0  0  0  0  0  0
   62.7242   31.6022   49.7649 H   0  0  0  0  0  0  0  0  0  0  0  0
   62.6100   34.9050   51.1380 H   0  0  0  0  0  0  0  0  0  0  0  0
   64.6467   34.7463   52.5726 H   0  0  0  0  0  0  0  0  0  0  0  0
   67.0390   34.0495   52.7701 H   0  0  0  0  0  0  0  0  0  0  0  0
   68.0929   32.7258   50.9277 H   0  0  0  0  0  0  0  0  0  0  0  0
   64.4470   32.7771   48.7198 H   0  0  0  0  0  0  0  0  0  0  0  0
   61.2499   35.5993   49.0219 H   0  0  0  0  0  0  0  0  0  0  0  0
  1  2  2  0
  2  3  1  0
  3  4  2  0
  3  5  1  0
  5  6  1  0
  6  7  2  0
  7  8  1  0
  8  9  1  0
  9 10  1  0
 10 11  2  0
 10 12  1  0
 12 13  1  0
 13 14  2  0
 14 15  1  0
 15 16  2  0
 16 17  1  0
 17 18  1  0
 18 19  2  0
 18 20  1  0
 20 21  2  0
 21 22  1  0
 21 23  1  0
 23 24  2  0
 24 25  1  0
 25 26  2  0
 26 27  1  0
 16 28  1  0
 28 29  2  0
  8 30  2  0
 30 31  1  0
 31 32  1  0
 32 33  1  0
 33 34  2  0
 34 35  1  0
 35 36  2  0
 36 37  1  0
 37 38  2  0
 31 39  2  0
 39  6  1  0
 29 13  1  0
 38 33  1  0
 26 20  1  0
  1 40  1  0
  1 41  1  0
  2 42  1  0
  7 43  1  0
  9 44  1  0
 12 45  1  0
 12 46  1  0
 14 47  1  0
 15 48  1  0
 23 49  1  0
 25 50  1  0
 28 51  1  0
 29 52  1  0
 30 53  1  0
 32 54  1  0
 34 55  1  0
 35 56  1  0
 36 57  1  0
 38 58  1  0
 39 59  1  0
M  CHG  2   5  -1  17  -1
M  END
>  <UniqueID>  (64) 
58

>  <SMILES>  (64) 
C=CC(=O)[N-]c1cc(NC(=O)Cc2ccc([N-]C(=O)c3c(Cl)cncc3Cl)cc2)cc(Nc2cccnc2)c1

>  <Energy>  (64) 
85.11413568963135

>  <Genealogy>  (64) 
C=CC(=O)[N-]c1cc(NC(=O)Cc2ccc([N-]C(=O)c3c(Cl)cncc3Cl)cc2)cc(Nc2cccnc2)c1 (protonated)
C=CC(=O)[N-]c1cc(NC(=O)Cc2ccc([N-]C(=O)c3c(Cl)cncc3Cl)cc2)cc(Nc2cccnc2)c1 (3D coordinates assigned)
C=CC(=O)[N-]c1cc(NC(=O)Cc2ccc([N-]C(=O)c3c(Cl)cncc3Cl)cc2)cc(Nc2cccnc2)c1 (optimized conformer: 85.11413568963135 kcal/mol)

>  <smiles>  (64) 
C=CC(=O)Nc1cc(NC(=O)Cc2ccc(NC(=O)c3c(Cl)cncc3Cl)cc2)cc(Nc2cccnc2)c1

>  <score_type>  (64) 
oracle

>  <origin>  (64) 
adg

>  <m_score__min__energy>  (64) 
-11.99

>  <m_primary>  (64) 
energy

$$$$
64:0
     RDKit          3D

 31 33  0  0  0  0  0  0  0  0999 V2000
   56.1880   26.3300   46.7130 O   0  0  0  0  0  0  0  0  0  0  0  0
   56.8050   27.2880   46.1760 C   0  0  0  0  0  0  0  0  0  0  0  0
   58.2650   27.4900   46.4660 C   0  0  0  0  0  0  0  0  0  0  0  0
   58.6710   28.8860   46.2290 N   0  0  0  0  0  0  0  0  0  0  0  0
   59.6830   29.4820   47.0670 C   0  0  0  0  0  0  0  0  0  0  0  0
   60.8890   29.1400   46.9310 O   0  0  0  0  0  0  0  0  0  0  0  0
   59.3380   30.5210   48.0970 C   0  0  0  0  0  0  0  0  0  0  0  0
   58.9850   31.7830   47.4550 N   0  0  0  0  0  0  0  0  0  0  0  0
   59.8290   32.7970   47.1860 C   0  0  0  0  0  0  0  0  0  0  0  0
   59.1060   33.7910   46.5680 C   0  0  0  0  0  0  0  0  0  0  0  0
   59.7030   35.3360   45.9980 Cl  0  0  0  0  0  0  0  0  0  0  0  0
   57.8150   33.3150   46.4880 C   0  0  0  0  0  0  0  0  0  0  0  0
   57.7650   32.0840   47.0360 N   0  0  0  0  0  0  0  0  0  0  0  0
   58.0770   29.6270   45.1370 C   0  0  0  0  0  0  0  0  0  0  0  0
   58.7490   30.7050   44.5240 C   0  0  0  0  0  0  0  0  0  0  0  0
   58.1440   31.4130   43.4820 C   0  0  0  0  0  0  0  0  0  0  0  0
   56.8710   31.0530   43.0340 C   0  0  0  0  0  0  0  0  0  0  0  0
   56.2040   29.9750   43.6200 C   0  0  0  0  0  0  0  0  0  0  0  0
   56.8060   29.2530   44.6600 C   0  0  0  0  0  0  0  0  0  0  0  0
   56.1310   28.1340   45.2440 N   0  0  0  0  0  0  0  0  0  0  0  0
   58.4599   27.2341   47.5179 H   0  0  0  0  0  0  0  0  0  0  0  0
   58.8450   26.8414   45.7931 H   0  0  0  0  0  0  0  0  0  0  0  0
   58.4845   30.1682   48.6946 H   0  0  0  0  0  0  0  0  0  0  0  0
   60.2132   30.6843   48.7431 H   0  0  0  0  0  0  0  0  0  0  0  0
   60.9037   32.8255   47.4186 H   0  0  0  0  0  0  0  0  0  0  0  0
   56.9624   33.8529   46.0478 H   0  0  0  0  0  0  0  0  0  0  0  0
   59.7543   30.9899   44.8678 H   0  0  0  0  0  0  0  0  0  0  0  0
   58.6720   32.2564   43.0132 H   0  0  0  0  0  0  0  0  0  0  0  0
   56.3940   31.6184   42.2199 H   0  0  0  0  0  0  0  0  0  0  0  0
   55.2025   29.6914   43.2642 H   0  0  0  0  0  0  0  0  0  0  0  0
   55.1450   27.9170   44.9750 H   0  0  0  0  0  0  0  0  0  0  0  0
  1  2  2  0
  2  3  1  0
  3  4  1  0
  4  5  1  0
  5  6  2  0
  5  7  1  0
  7  8  1  0
  8  9  1  0
  9 10  2  0
 10 11  1  0
 10 12  1  0
 12 13  2  0
  4 14  1  0
 14 15  2  0
 15 16  1  0
 16 17  2  0
 17 18  1  0
 18 19  2  0
 19 20  1  0
 20  2  1  0
 13  8  1  0
 19 14  1  0
  3 21  1  0
  3 22  1  0
  7 23  1  0
  7 24  1  0
  9 25  1  0
 12 26  1  0
 15 27  1  0
 16 28  1  0
 17 29  1  0
 18 30  1  0
 20 31  1  0
M  END
>  <UniqueID>  (65) 
59

>  <SMILES>  (65) 
O=C1CN(C(=O)Cn2cc(Cl)cn2)c2ccccc2N1

>  <Energy>  (65) 
67.88698931914797

>  <Genealogy>  (65) 
O=C1CN(C(=O)Cn2cc(Cl)cn2)c2ccccc2N1 (3D coordinates assigned)
O=C1CN(C(=O)Cn2cc(Cl)cn2)c2ccccc2N1 (nonaromatic ring conformer: 67.88698931914797 kcal/mol)

>  <smiles>  (65) 
O=C1CN(C(=O)Cn2cc(Cl)cn2)c2ccccc2N1

>  <score_type>  (65) 
oracle

>  <origin>  (65) 
adg

>  <m_score__min__energy>  (65) 
-6.8499999999999996

>  <m_primary>  (65) 
energy

$$$$
65:0
     RDKit          3D

 53 55  0  0  0  0  0  0  0  0999 V2000
   57.7863   34.5437   44.7905 H   0  0  0  0  0  0  0  0  0  0  0  0
   58.4830   33.9970   45.4430 C   0  0  0  0  0  0  0  0  0  0  0  0
   59.3230   34.6270   46.3100 N   0  0  0  0  0  0  0  0  0  0  0  0
   60.0840   33.7550   47.0060 C   0  0  0  0  0  0  0  0  0  0  0  0
   60.9530   34.1510   47.8890 N   0  0  0  0  0  0  0  0  0  0  0  0
   62.2880   33.6050   48.1720 C   0  0  0  0  0  0  0  0  0  0  0  0
   62.1621   32.5250   48.3387 H   0  0  0  0  0  0  0  0  0  0  0  0
   62.8810   34.1890   49.4570 C   0  0  0  0  0  0  0  0  0  0  0  0
   62.4028   33.7181   50.3285 H   0  0  0  0  0  0  0  0  0  0  0  0
   63.9633   33.9943   49.4829 H   0  0  0  0  0  0  0  0  0  0  0  0
   62.7029   35.2742   49.4829 H   0  0  0  0  0  0  0  0  0  0  0  0
   63.2380   33.7560   46.9800 C   0  0  0  0  0  0  0  0  0  0  0  0
   64.2625   33.9188   47.3460 H   0  0  0  0  0  0  0  0  0  0  0  0
   63.2079   32.8418   46.3690 H   0  0  0  0  0  0  0  0  0  0  0  0
   62.9259   34.6158   46.3690 H   0  0  0  0  0  0  0  0  0  0  0  0
   59.7490   32.1610   46.5710 S   0  0  0  0  0  0  0  0  0  0  0  0
   58.5740   32.6040   45.4460 C   0  0  0  0  0  0  0  0  0  0  0  0
   57.7950   31.6430   44.6400 C   0  0  0  0  0  0  0  0  0  0  0  0
   57.1350   30.6450   45.2810 N   0  0  0  0  0  0  0  0  0  0  0  0
   56.3780   29.7310   44.6130 C   0  0  0  0  0  0  0  0  0  0  0  0
   55.7600   28.7780   45.2490 N   0  0  0  0  0  0  0  0  0  0  0  0
   56.3210   27.4970   45.5830 C   0  0  0  0  0  0  0  0  0  0  0  0
   55.5190   26.4200   45.9990 C   0  0  0  0  0  0  0  0  0  0  0  0
   54.4257   26.5337   46.0402 H   0  0  0  0  0  0  0  0  0  0  0  0
   56.0910   25.2400   46.3500 N   0  0  0  0  0  0  0  0  0  0  0  0
   57.4360   25.0390   46.2960 C   0  0  0  0  0  0  0  0  0  0  0  0
   57.9720   23.9100   46.6660 N   0  0  0  0  0  0  0  0  0  0  0  0
   57.5160   22.5610   46.4310 C   0  0  0  0  0  0  0  0  0  0  0  0
   57.0890   21.9040   47.4190 O   0  0  0  0  0  0  0  0  0  0  0  0
   57.5140   21.9110   45.0560 C   0  0  1  0  0  0  0  0  0  0  0  0
   57.4417   20.8200   45.1766 H   0  0  0  0  0  0  0  0  0  0  0  0
   56.3160   22.3430   44.2890 N   0  0  0  0  0  0  0  0  0  0  0  0
   55.1260   22.6080   45.1200 C   0  0  0  0  0  0  0  0  0  0  0  0
   55.4004   22.5469   46.1835 H   0  0  0  0  0  0  0  0  0  0  0  0
   54.7404   23.6140   44.8980 H   0  0  0  0  0  0  0  0  0  0  0  0
   54.3500   21.8607   44.8980 H   0  0  0  0  0  0  0  0  0  0  0  0
   56.5920   23.4830   43.3980 C   0  0  0  0  0  0  0  0  0  0  0  0
   56.8083   24.3765   44.0020 H   0  0  0  0  0  0  0  0  0  0  0  0
   57.4598   23.2506   42.7633 H   0  0  0  0  0  0  0  0  0  0  0  0
   55.7140   23.6733   42.7633 H   0  0  0  0  0  0  0  0  0  0  0  0
   58.8460   22.1430   44.3080 C   0  0  0  0  0  0  0  0  0  0  0  0
   59.6567   22.2842   45.0380 H   0  0  0  0  0  0  0  0  0  0  0  0
   59.0689   21.2702   43.6768 H   0  0  0  0  0  0  0  0  0  0  0  0
   58.7607   23.0398   43.6768 H   0  0  0  0  0  0  0  0  0  0  0  0
   58.2630   26.0650   45.8190 C   0  0  0  0  0  0  0  0  0  0  0  0
   59.3476   25.9050   45.7292 H   0  0  0  0  0  0  0  0  0  0  0  0
   57.7010   27.2930   45.4580 C   0  0  0  0  0  0  0  0  0  0  0  0
   58.3433   28.0999   45.0754 H   0  0  0  0  0  0  0  0  0  0  0  0
   56.2950   29.7950   43.2590 N   0  0  0  0  0  0  0  0  0  0  0  0
   56.9370   30.7710   42.5660 C   0  0  0  0  0  0  0  0  0  0  0  0
   56.8558   30.8096   41.4697 H   0  0  0  0  0  0  0  0  0  0  0  0
   57.7010   31.7270   43.2430 C   0  0  0  0  0  0  0  0  0  0  0  0
   58.2169   32.5272   42.6920 H   0  0  0  0  0  0  0  0  0  0  0  0
  1  2  1  0
  2  3  1  0
  3  4  1  0
  4  5  2  3
  5  6  1  0
  6  7  1  0
  6  8  1  0
  8  9  1  0
  8 10  1  0
  8 11  1  0
  6 12  1  0
 12 13  1  0
 12 14  1  0
 12 15  1  0
  4 16  1  0
 16 17  1  0
 17 18  1  0
 18 19  2  0
 19 20  1  0
 20 21  2  3
 21 22  1  0
 22 23  2  0
 23 24  1  0
 23 25  1  0
 25 26  1  0
 26 27  2  0
 27 28  1  0
 28 29  2  0
 28 30  1  0
 30 31  1  1
 30 32  1  0
 32 33  1  0
 33 34  1  0
 33 35  1  0
 33 36  1  0
 32 37  1  0
 37 38  1  0
 37 39  1  0
 37 40  1  0
 30 41  1  0
 41 42  1  0
 41 43  1  0
 41 44  1  0
 26 45  1  0
 45 46  1  0
 45 47  2  0
 47 48  1  0
 20 49  1  0
 49 50  1  0
 50 51  1  0
 50 52  2  0
 52 53  1  0
 17  2  2  0
 52 18  1  0
 47 22  1  0
M  CHG  3   3  -1  25  -1  49  -1
M  END
>  <UniqueID>  (66) 
60

>  <SMILES>  (66) 
CC(C)N=c1[n-]cc(-c2cc[n-]c(=Nc3cc/c(=N/C(=O)[C@H](C)N(C)C)[n-]c3)n2)s1

>  <Energy>  (66) 
97.89897467138542

>  <Genealogy>  (66) 
CC(C)N=c1[n-]cc(-c2cc[n-]c(=Nc3ccc(=NC(=O)C(C)N(C)C)[n-]c3)n2)s1 (protonated)
CC(C)N=c1[n-]cc(-c2cc[n-]c(=Nc3ccc(=NC(=O)[C@H](C)N(C)C)[n-]c3)n2)s1 (chirality)
CC(C)N=c1[n-]cc(-c2cc[n-]c(=Nc3cc/c(=N/C(=O)[C@H](C)N(C)C)[n-]c3)n2)s1 (cis-trans isomerization)
CC(C)N=c1[n-]cc(-c2cc[n-]c(=Nc3cc/c(=N/C(=O)[C@H](C)N(C)C)[n-]c3)n2)s1 (3D coordinates assigned)
CC(C)N=c1[n-]cc(-c2cc[n-]c(=Nc3cc/c(=N/C(=O)[C@H](C)N(C)C)[n-]c3)n2)s1 (optimized conformer: 97.89897467138542 kcal/mol)

>  <smiles>  (66) 
CC(C)N=c1[nH]cc(-c2cc[nH]c(=Nc3ccc(=NC(=O)C(C)N(C)C)[nH]c3)n2)s1

>  <score_type>  (66) 
oracle

>  <origin>  (66) 
adg

>  <m_score__min__energy>  (66) 
-12.890000000000001

>  <m_primary>  (66) 
energy

$$$$
66:0
     RDKit          3D

 43 46  0  0  0  0  0  0  0  0999 V2000
   56.6450   30.8890   45.2360 O   0  0  0  0  0  0  0  0  0  0  0  0
   57.8250   31.3940   44.4540 S   0  0  0  0  0  0  0  0  0  0  0  0
   57.3670   31.7810   43.0760 O   0  0  0  0  0  0  0  0  0  0  0  0
   59.0140   30.1370   44.3370 N   0  0  0  0  0  0  0  0  0  0  0  0
   59.4870   29.4320   45.4940 C   0  0  0  0  0  0  0  0  0  0  0  0
   59.1420   28.0890   45.7180 C   0  0  0  0  0  0  0  0  0  0  0  0
   59.6120   27.4220   46.8520 C   0  0  0  0  0  0  0  0  0  0  0  0
   60.4170   28.0910   47.7780 C   0  0  0  0  0  0  0  0  0  0  0  0
   60.7470   29.4360   47.5820 C   0  0  0  0  0  0  0  0  0  0  0  0
   61.5400   30.0860   48.5370 O   0  0  0  0  0  0  0  0  0  0  0  0
   62.1900   31.3130   48.3370 C   0  0  0  0  0  0  0  0  0  0  0  0
   62.1840   32.2560   49.3730 C   0  0  0  0  0  0  0  0  0  0  0  0
   62.8110   33.4950   49.2030 C   0  0  0  0  0  0  0  0  0  0  0  0
   63.4370   33.8040   47.9930 C   0  0  0  0  0  0  0  0  0  0  0  0
   63.4300   32.8770   46.9460 C   0  0  0  0  0  0  0  0  0  0  0  0
   62.8050   31.6370   47.1130 C   0  0  0  0  0  0  0  0  0  0  0  0
   60.3030   30.0950   46.4220 C   0  0  0  0  0  0  0  0  0  0  0  0
   58.5480   32.8050   45.2320 C   0  0  0  0  0  0  0  0  0  0  0  0
   58.9140   33.9200   44.4630 C   0  0  0  0  0  0  0  0  0  0  0  0
   59.4430   35.0590   45.0740 C   0  0  0  0  0  0  0  0  0  0  0  0
   59.6110   35.1040   46.4590 C   0  0  0  0  0  0  0  0  0  0  0  0
   59.2520   34.0000   47.2450 C   0  0  0  0  0  0  0  0  0  0  0  0
   59.4020   34.0230   48.6370 C   0  0  0  0  0  0  0  0  0  0  0  0
   59.0350   32.9080   49.3940 C   0  0  0  0  0  0  0  0  0  0  0  0
   58.5250   31.7790   48.7510 C   0  0  0  0  0  0  0  0  0  0  0  0
   58.3790   31.7710   47.4000 N   0  0  0  0  0  0  0  0  0  0  0  0
   58.7230   32.8410   46.6300 C   0  0  0  0  0  0  0  0  0  0  0  0
   59.5660   30.0850   43.4510 H   0  0  0  0  0  0  0  0  0  0  0  0
   58.4996   27.5607   44.9981 H   0  0  0  0  0  0  0  0  0  0  0  0
   59.3476   26.3670   47.0165 H   0  0  0  0  0  0  0  0  0  0  0  0
   60.7924   27.5580   48.6640 H   0  0  0  0  0  0  0  0  0  0  0  0
   61.6841   32.0212   50.3243 H   0  0  0  0  0  0  0  0  0  0  0  0
   62.8111   34.2274   50.0238 H   0  0  0  0  0  0  0  0  0  0  0  0
   63.9353   34.7761   47.8638 H   0  0  0  0  0  0  0  0  0  0  0  0
   63.9163   33.1232   45.9906 H   0  0  0  0  0  0  0  0  0  0  0  0
   62.7940   30.9127   46.2852 H   0  0  0  0  0  0  0  0  0  0  0  0
   60.5981   31.1391   46.2409 H   0  0  0  0  0  0  0  0  0  0  0  0
   58.7834   33.8969   43.3710 H   0  0  0  0  0  0  0  0  0  0  0  0
   59.7290   35.9258   44.4601 H   0  0  0  0  0  0  0  0  0  0  0  0
   60.0251   36.0057   46.9338 H   0  0  0  0  0  0  0  0  0  0  0  0
   59.8079   34.9169   49.1331 H   0  0  0  0  0  0  0  0  0  0  0  0
   59.1470   32.9196   50.4882 H   0  0  0  0  0  0  0  0  0  0  0  0
   58.2407   30.8939   49.3391 H   0  0  0  0  0  0  0  0  0  0  0  0
  1  2  2  0
  2  3  2  0
  2  4  1  0
  4  5  1  0
  5  6  2  0
  6  7  1  0
  7  8  2  0
  8  9  1  0
  9 10  1  0
 10 11  1  0
 11 12  2  0
 12 13  1  0
 13 14  2  0
 14 15  1  0
 15 16  2  0
  9 17  2  0
  2 18  1  0
 18 19  2  0
 19 20  1  0
 20 21  2  0
 21 22  1  0
 22 23  2  0
 23 24  1  0
 24 25  2  0
 25 26  1  0
 26 27  2  0
 17  5  1  0
 27 18  1  0
 16 11  1  0
 27 22  1  0
  4 28  1  0
  6 29  1  0
  7 30  1  0
  8 31  1  0
 12 32  1  0
 13 33  1  0
 14 34  1  0
 15 35  1  0
 16 36  1  0
 17 37  1  0
 19 38  1  0
 20 39  1  0
 21 40  1  0
 23 41  1  0
 24 42  1  0
 25 43  1  0
M  END
>  <UniqueID>  (67) 
61

>  <SMILES>  (67) 
O=S(=O)(Nc1cccc(Oc2ccccc2)c1)c1cccc2cccnc12

>  <Energy>  (67) 
59.27470527545426

>  <Genealogy>  (67) 
O=S(=O)(Nc1cccc(Oc2ccccc2)c1)c1cccc2cccnc12 (3D coordinates assigned)
O=S(=O)(Nc1cccc(Oc2ccccc2)c1)c1cccc2cccnc12 (optimized conformer: 59.27470527545426 kcal/mol)

>  <smiles>  (67) 
O=S(=O)(Nc1cccc(Oc2ccccc2)c1)c1cccc2cccnc12

>  <score_type>  (67) 
oracle

>  <origin>  (67) 
adg

>  <m_score__min__energy>  (67) 
-9.1899999999999995

>  <m_primary>  (67) 
energy

$$$$
67:0
     RDKit          3D

 50 53  0  0  0  0  0  0  0  0999 V2000
   56.2740   26.1900   46.7030 O   0  0  0  0  0  0  0  0  0  0  0  0
   57.6000   26.3580   46.0160 S   0  0  0  0  0  0  0  0  0  0  0  0
   58.1630   24.9970   45.7080 O   0  0  0  0  0  0  0  0  0  0  0  0
   57.3700   27.2300   44.5330 N   0  0  0  0  0  0  0  0  0  0  0  0
   57.4370   28.6650   44.4230 C   0  0  0  0  0  0  0  0  0  0  0  0
   56.2840   29.4540   44.2460 C   0  0  0  0  0  0  0  0  0  0  0  0
   56.3890   30.8450   44.1360 C   0  0  0  0  0  0  0  0  0  0  0  0
   57.6400   31.4640   44.2120 C   0  0  0  0  0  0  0  0  0  0  0  0
   57.7660   33.2470   44.1020 S   0  0  0  0  0  0  0  0  0  0  0  0
   58.4950   33.3820   45.7330 C   0  0  0  0  0  0  0  0  0  0  0  0
   59.6230   34.1890   45.9340 C   0  0  0  0  0  0  0  0  0  0  0  0
   60.2000   34.2790   47.2070 C   0  0  0  0  0  0  0  0  0  0  0  0
   59.6500   33.5670   48.2770 C   0  0  0  0  0  0  0  0  0  0  0  0
   58.5210   32.7660   48.0780 C   0  0  0  0  0  0  0  0  0  0  0  0
   57.9420   32.6760   46.8090 C   0  0  0  0  0  0  0  0  0  0  0  0
   58.7910   30.6890   44.3880 C   0  0  0  0  0  0  0  0  0  0  0  0
   58.6900   29.3000   44.4980 C   0  0  0  0  0  0  0  0  0  0  0  0
   58.6750   27.2610   47.0760 C   0  0  0  0  0  0  0  0  0  0  0  0
   59.9030   26.7170   47.4550 C   0  0  0  0  0  0  0  0  0  0  0  0
   60.7560   27.4290   48.3000 C   0  0  0  0  0  0  0  0  0  0  0  0
   60.3650   28.6940   48.7780 C   0  0  0  0  0  0  0  0  0  0  0  0
   61.2110   29.4700   49.6610 N   0  0  0  0  0  0  0  0  0  0  0  0
   61.4360   28.9890   51.0310 C   0  0  0  0  0  0  0  0  0  0  0  0
   62.7280   29.5790   51.6100 C   0  0  0  0  0  0  0  0  0  0  0  0
   62.7600   30.9810   51.4430 O   0  0  0  0  0  0  0  0  0  0  0  0
   62.8370   31.2820   50.0660 C   0  0  0  0  0  0  0  0  0  0  0  0
   61.5530   30.8640   49.3450 C   0  0  0  0  0  0  0  0  0  0  0  0
   59.1640   29.2000   48.3810 N   0  0  0  0  0  0  0  0  0  0  0  0
   58.3240   28.5270   47.5510 C   0  0  0  0  0  0  0  0  0  0  0  0
   57.1150   26.6670   43.6890 H   0  0  0  0  0  0  0  0  0  0  0  0
   55.2955   28.9742   44.1939 H   0  0  0  0  0  0  0  0  0  0  0  0
   55.4843   31.4533   43.9893 H   0  0  0  0  0  0  0  0  0  0  0  0
   60.0548   34.7511   45.0928 H   0  0  0  0  0  0  0  0  0  0  0  0
   61.0867   34.9105   47.3650 H   0  0  0  0  0  0  0  0  0  0  0  0
   60.1054   33.6368   49.2759 H   0  0  0  0  0  0  0  0  0  0  0  0
   58.0884   32.2065   48.9206 H   0  0  0  0  0  0  0  0  0  0  0  0
   57.0508   32.0498   46.6551 H   0  0  0  0  0  0  0  0  0  0  0  0
   59.7770   31.1738   44.4399 H   0  0  0  0  0  0  0  0  0  0  0  0
   59.5985   28.6974   44.6446 H   0  0  0  0  0  0  0  0  0  0  0  0
   60.1997   25.7239   47.0867 H   0  0  0  0  0  0  0  0  0  0  0  0
   61.7281   27.0040   48.5907 H   0  0  0  0  0  0  0  0  0  0  0  0
   60.5873   29.2899   51.6628 H   0  0  0  0  0  0  0  0  0  0  0  0
   61.5276   27.8930   51.0094 H   0  0  0  0  0  0  0  0  0  0  0  0
   62.7829   29.3426   52.6829 H   0  0  0  0  0  0  0  0  0  0  0  0
   63.5846   29.1415   51.0763 H   0  0  0  0  0  0  0  0  0  0  0  0
   62.9843   32.3650   49.9414 H   0  0  0  0  0  0  0  0  0  0  0  0
   63.6818   30.7279   49.6309 H   0  0  0  0  0  0  0  0  0  0  0  0
   60.7294   31.5194   49.6647 H   0  0  0  0  0  0  0  0  0  0  0  0
   61.7114   30.9524   48.2601 H   0  0  0  0  0  0  0  0  0  0  0  0
   57.3668   28.9797   47.2530 H   0  0  0  0  0  0  0  0  0  0  0  0
  1  2  2  0
  2  3  2  0
  2  4  1  0
  4  5  1  0
  5  6  2  0
  6  7  1  0
  7  8  2  0
  8  9  1  0
  9 10  1  0
 10 11  2  0
 11 12  1  0
 12 13  2  0
 13 14  1  0
 14 15  2  0
  8 16  1  0
 16 17  2  0
  2 18  1  0
 18 19  2  0
 19 20  1  0
 20 21  2  0
 21 22  1  0
 22 23  1  0
 23 24  1  0
 24 25  1  0
 25 26  1  0
 26 27  1  0
 21 28  1  0
 28 29  2  0
 17  5  1  0
 29 18  1  0
 15 10  1  0
 27 22  1  0
  4 30  1  0
  6 31  1  0
  7 32  1  0
 11 33  1  0
 12 34  1  0
 13 35  1  0
 14 36  1  0
 15 37  1  0
 16 38  1  0
 17 39  1  0
 19 40  1  0
 20 41  1  0
 23 42  1  0
 23 43  1  0
 24 44  1  0
 24 45  1  0
 26 46  1  0
 26 47  1  0
 27 48  1  0
 27 49  1  0
 29 50  1  0
M  END
>  <UniqueID>  (68) 
62

>  <SMILES>  (68) 
O=S(=O)(Nc1ccc(Sc2ccccc2)cc1)c1ccc(N2CCOCC2)nc1

>  <Energy>  (68) 
56.538148562343814

>  <Genealogy>  (68) 
O=S(=O)(Nc1ccc(Sc2ccccc2)cc1)c1ccc(N2CCOCC2)nc1 (3D coordinates assigned)
O=S(=O)(Nc1ccc(Sc2ccccc2)cc1)c1ccc(N2CCOCC2)nc1 (nonaromatic ring conformer: 56.538148562343814 kcal/mol)

>  <smiles>  (68) 
O=S(=O)(Nc1ccc(Sc2ccccc2)cc1)c1ccc(N2CCOCC2)nc1

>  <score_type>  (68) 
oracle

>  <origin>  (68) 
adg

>  <m_score__min__energy>  (68) 
-9.1699999999999999

>  <m_primary>  (68) 
energy

$$$$
68:0
     RDKit          3D

 41 44  0  0  0  0  0  0  0  0999 V2000
   58.5570   33.9300   52.7870 Cl  0  0  0  0  0  0  0  0  0  0  0  0
   59.1780   33.1270   51.3490 C   0  0  0  0  0  0  0  0  0  0  0  0
   60.0310   33.8370   50.5030 C   0  0  0  0  0  0  0  0  0  0  0  0
   60.5450   33.2350   49.3550 C   0  0  0  0  0  0  0  0  0  0  0  0
   60.2160   31.9080   49.0330 C   0  0  0  0  0  0  0  0  0  0  0  0
   60.8170   31.2800   47.7910 C   0  0  0  0  0  0  0  0  0  0  0  0
   59.8040   31.1330   46.7170 N   0  0  0  0  0  0  0  0  0  0  0  0
   59.5450   29.8460   46.3150 C   0  0  0  0  0  0  0  0  0  0  0  0
   58.5700   29.5520   45.3540 C   0  0  0  0  0  0  0  0  0  0  0  0
   58.2920   28.1470   44.9620 C   0  0  0  0  0  0  0  0  0  0  0  0
   58.1490   27.7960   43.6070 C   0  0  0  0  0  0  0  0  0  0  0  0
   57.8840   26.4730   43.2400 C   0  0  0  0  0  0  0  0  0  0  0  0
   57.7600   25.4870   44.2220 C   0  0  0  0  0  0  0  0  0  0  0  0
   57.9000   25.8210   45.5700 C   0  0  0  0  0  0  0  0  0  0  0  0
   58.1640   27.1430   45.9410 C   0  0  0  0  0  0  0  0  0  0  0  0
   57.8610   30.6040   44.7770 C   0  0  0  0  0  0  0  0  0  0  0  0
   58.1450   31.9220   45.1320 C   0  0  0  0  0  0  0  0  0  0  0  0
   57.4440   32.9700   44.5140 C   0  0  0  0  0  0  0  0  0  0  0  0
   57.7320   34.2930   44.8330 C   0  0  0  0  0  0  0  0  0  0  0  0
   58.7250   34.5840   45.7630 C   0  0  0  0  0  0  0  0  0  0  0  0
   59.4320   33.5550   46.3900 C   0  0  0  0  0  0  0  0  0  0  0  0
   59.1480   32.1930   46.1060 C   0  0  0  0  0  0  0  0  0  0  0  0
   59.3490   31.1860   49.8880 C   0  0  0  0  0  0  0  0  0  0  0  0
   58.8980   29.5220   49.5110 Cl  0  0  0  0  0  0  0  0  0  0  0  0
   58.8320   31.7990   51.0460 C   0  0  0  0  0  0  0  0  0  0  0  0
   57.7520   30.9070   52.1190 Cl  0  0  0  0  0  0  0  0  0  0  0  0
   60.2992   34.8765   50.7429 H   0  0  0  0  0  0  0  0  0  0  0  0
   61.2150   33.8052   48.6948 H   0  0  0  0  0  0  0  0  0  0  0  0
   61.6353   31.9186   47.4268 H   0  0  0  0  0  0  0  0  0  0  0  0
   61.1915   30.2798   48.0543 H   0  0  0  0  0  0  0  0  0  0  0  0
   60.1205   29.0215   46.7611 H   0  0  0  0  0  0  0  0  0  0  0  0
   58.2465   28.5686   42.8301 H   0  0  0  0  0  0  0  0  0  0  0  0
   57.7732   26.2085   42.1780 H   0  0  0  0  0  0  0  0  0  0  0  0
   57.5518   24.4464   43.9325 H   0  0  0  0  0  0  0  0  0  0  0  0
   57.8025   25.0431   46.3416 H   0  0  0  0  0  0  0  0  0  0  0  0
   58.2724   27.4005   47.0049 H   0  0  0  0  0  0  0  0  0  0  0  0
   57.0737   30.3935   44.0381 H   0  0  0  0  0  0  0  0  0  0  0  0
   56.6627   32.7436   43.7735 H   0  0  0  0  0  0  0  0  0  0  0  0
   57.1746   35.1091   44.3500 H   0  0  0  0  0  0  0  0  0  0  0  0
   58.9551   35.6318   46.0064 H   0  0  0  0  0  0  0  0  0  0  0  0
   60.2210   33.8038   47.1150 H   0  0  0  0  0  0  0  0  0  0  0  0
  1  2  1  0
  2  3  2  0
  3  4  1  0
  4  5  2  0
  5  6  1  0
  6  7  1  0
  7  8  2  0
  8  9  1  0
  9 10  1  0
 10 11  2  0
 11 12  1  0
 12 13  2  0
 13 14  1  0
 14 15  2  0
  9 16  2  0
 16 17  1  0
 17 18  2  0
 18 19  1  0
 19 20  2  0
 20 21  1  0
 21 22  2  0
  5 23  1  0
 23 24  1  0
 23 25  2  0
 25 26  1  0
 25  2  1  0
 22  7  1  0
 15 10  1  0
 22 17  1  0
  3 27  1  0
  4 28  1  0
  6 29  1  0
  6 30  1  0
  8 31  1  0
 11 32  1  0
 12 33  1  0
 13 34  1  0
 14 35  1  0
 15 36  1  0
 16 37  1  0
 18 38  1  0
 19 39  1  0
 20 40  1  0
 21 41  1  0
M  CHG  1   7   1
M  END
>  <UniqueID>  (69) 
63

>  <SMILES>  (69) 
Clc1ccc(C[n+]2cc(-c3ccccc3)cc3ccccc32)c(Cl)c1Cl

>  <Energy>  (69) 
66.04660664387245

>  <Genealogy>  (69) 
Clc1ccc(C[n+]2cc(-c3ccccc3)cc3ccccc32)c(Cl)c1Cl (3D coordinates assigned)
Clc1ccc(C[n+]2cc(-c3ccccc3)cc3ccccc32)c(Cl)c1Cl (optimized conformer: 66.04660664387245 kcal/mol)

>  <smiles>  (69) 
Clc1ccc(C[n+]2cc(-c3ccccc3)cc3ccccc32)c(Cl)c1Cl

>  <score_type>  (69) 
oracle

>  <origin>  (69) 
adg

>  <m_score__min__energy>  (69) 
-7.1100000000000003

>  <m_primary>  (69) 
energy

$$$$
69:0
     RDKit          3D

 18 18  0  0  0  0  0  0  0  0999 V2000
   56.2950   19.3790   45.8530 C   0  0  0  0  0  0  0  0  0  0  0  0
   57.3910   19.9840   45.0950 N   0  0  0  0  0  0  0  0  0  0  0  0
   57.2420   21.4200   45.0610 C   0  0  0  0  0  0  0  0  0  0  0  0
   57.2540   22.1680   46.2570 C   0  0  0  0  0  0  0  0  0  0  0  0
   57.3870   21.5440   47.4560 F   0  0  0  0  0  0  0  0  0  0  0  0
   57.1350   23.5610   46.2200 C   0  0  0  0  0  0  0  0  0  0  0  0
   57.1420   24.2730   47.3740 F   0  0  0  0  0  0  0  0  0  0  0  0
   57.0110   24.2220   44.9940 C   0  0  0  0  0  0  0  0  0  0  0  0
   56.8960   25.5730   44.9620 F   0  0  0  0  0  0  0  0  0  0  0  0
   57.0120   23.4930   43.8020 C   0  0  0  0  0  0  0  0  0  0  0  0
   56.9020   24.1380   42.6150 F   0  0  0  0  0  0  0  0  0  0  0  0
   57.1310   22.0990   43.8310 C   0  0  0  0  0  0  0  0  0  0  0  0
   57.1450   21.4100   42.6620 F   0  0  0  0  0  0  0  0  0  0  0  0
   56.4907   19.4870   46.9301 H   0  0  0  0  0  0  0  0  0  0  0  0
   55.3512   19.8839   45.5993 H   0  0  0  0  0  0  0  0  0  0  0  0
   56.2193   18.3113   45.5993 H   0  0  0  0  0  0  0  0  0  0  0  0
   58.3020   19.7220   45.5390 H   0  0  0  0  0  0  0  0  0  0  0  0
   57.3920   19.5950   44.1230 H   0  0  0  0  0  0  0  0  0  0  0  0
  1  2  1  0
  2  3  1  0
  3  4  2  0
  4  5  1  0
  4  6  1  0
  6  7  1  0
  6  8  2  0
  8  9  1  0
  8 10  1  0
 10 11  1  0
 10 12  2  0
 12 13  1  0
 12  3  1  0
  1 14  1  0
  1 15  1  0
  1 16  1  0
  2 17  1  0
  2 18  1  0
M  CHG  1   2   1
M  END
>  <UniqueID>  (70) 
64

>  <SMILES>  (70) 
C[NH2+]c1c(F)c(F)c(F)c(F)c1F

>  <Energy>  (70) 
17.53559095751484

>  <Genealogy>  (70) 
C[NH2+]c1c(F)c(F)c(F)c(F)c1F (protonated)
C[NH2+]c1c(F)c(F)c(F)c(F)c1F (3D coordinates assigned)
C[NH2+]c1c(F)c(F)c(F)c(F)c1F (optimized conformer: 17.53559095751484 kcal/mol)

>  <smiles>  (70) 
CNc1c(F)c(F)c(F)c(F)c1F

>  <score_type>  (70) 
oracle

>  <origin>  (70) 
adg

>  <m_score__min__energy>  (70) 
-2.29

>  <m_primary>  (70) 
energy

$$$$
70:0
     RDKit          3D

 44 46  0  0  0  0  0  0  0  0999 V2000
   59.9480   34.5830   48.4490 C   0  0  0  0  0  0  0  0  0  0  0  0
   59.2660   34.9750   47.1430 C   0  0  0  0  0  0  0  0  0  0  0  0
   58.8010   33.7530   46.3980 C   0  0  0  0  0  0  0  0  0  0  0  0
   57.7110   33.8360   45.5160 C   0  0  0  0  0  0  0  0  0  0  0  0
   57.2490   32.6930   44.8560 C   0  0  0  0  0  0  0  0  0  0  0  0
   57.8700   31.4550   45.0710 C   0  0  0  0  0  0  0  0  0  0  0  0
   57.2830   30.0020   44.2660 S   0  0  0  0  0  0  0  0  0  0  0  0
   56.9290   30.3580   42.8480 O   0  0  0  0  0  0  0  0  0  0  0  0
   56.0420   29.5010   44.9520 O   0  0  0  0  0  0  0  0  0  0  0  0
   58.5110   28.7510   44.2530 N   0  0  0  0  0  0  0  0  0  0  0  0
   58.1380   27.6370   43.3440 C   0  0  0  0  0  0  0  0  0  0  0  0
   57.8740   26.2950   44.0550 C   0  0  0  0  0  0  0  0  0  0  0  0
   57.2130   26.5130   45.3460 N   0  0  0  0  0  0  0  0  0  0  0  0
   56.0410   25.7670   45.7240 C   0  0  0  0  0  0  0  0  0  0  0  0
   55.1030   26.3520   46.3290 O   0  0  0  0  0  0  0  0  0  0  0  0
   55.9050   24.3290   45.4350 C   0  0  0  0  0  0  0  0  0  0  0  0
   56.2190   23.6870   44.2510 C   0  0  0  0  0  0  0  0  0  0  0  0
   55.9440   22.3550   44.4650 C   0  0  0  0  0  0  0  0  0  0  0  0
   55.4890   22.2600   45.7640 C   0  0  0  0  0  0  0  0  0  0  0  0
   55.4810   23.4510   46.3160 O   0  0  0  0  0  0  0  0  0  0  0  0
   57.7620   27.5020   46.2780 C   0  0  0  0  0  0  0  0  0  0  0  0
   58.8800   28.3190   45.6170 C   0  0  0  0  0  0  0  0  0  0  0  0
   58.9480   31.3670   45.9610 C   0  0  0  0  0  0  0  0  0  0  0  0
   59.4080   32.5090   46.6250 C   0  0  0  0  0  0  0  0  0  0  0  0
   59.3418   34.9314   49.2982 H   0  0  0  0  0  0  0  0  0  0  0  0
   60.0496   33.4887   48.4955 H   0  0  0  0  0  0  0  0  0  0  0  0
   60.9447   35.0461   48.4955 H   0  0  0  0  0  0  0  0  0  0  0  0
   58.3986   35.6137   47.3661 H   0  0  0  0  0  0  0  0  0  0  0  0
   59.9885   35.5179   46.5159 H   0  0  0  0  0  0  0  0  0  0  0  0
   57.2186   34.8044   45.3437 H   0  0  0  0  0  0  0  0  0  0  0  0
   56.3955   32.7657   44.1659 H   0  0  0  0  0  0  0  0  0  0  0  0
   57.2244   27.9254   42.8036 H   0  0  0  0  0  0  0  0  0  0  0  0
   58.9979   27.4749   42.6775 H   0  0  0  0  0  0  0  0  0  0  0  0
   57.2284   25.6708   43.4197 H   0  0  0  0  0  0  0  0  0  0  0  0
   58.8368   25.7930   44.2312 H   0  0  0  0  0  0  0  0  0  0  0  0
   56.6077   24.1453   43.3297 H   0  0  0  0  0  0  0  0  0  0  0  0
   56.0631   21.5320   43.7450 H   0  0  0  0  0  0  0  0  0  0  0  0
   55.1801   21.3286   46.2611 H   0  0  0  0  0  0  0  0  0  0  0  0
   56.9581   28.1828   46.5949 H   0  0  0  0  0  0  0  0  0  0  0  0
   58.1816   26.9712   47.1453 H   0  0  0  0  0  0  0  0  0  0  0  0
   59.0805   29.2097   46.2306 H   0  0  0  0  0  0  0  0  0  0  0  0
   59.7726   27.6803   45.5436 H   0  0  0  0  0  0  0  0  0  0  0  0
   59.4345   30.3965   46.1384 H   0  0  0  0  0  0  0  0  0  0  0  0
   60.2499   32.4311   47.3286 H   0  0  0  0  0  0  0  0  0  0  0  0
  1  2  1  0
  2  3  1  0
  3  4  2  0
  4  5  1  0
  5  6  2  0
  6  7  1  0
  7  8  2  0
  7  9  2  0
  7 10  1  0
 10 11  1  0
 11 12  1  0
 12 13  1  0
 13 14  1  0
 14 15  2  0
 14 16  1  0
 16 17  2  0
 17 18  1  0
 18 19  2  0
 19 20  1  0
 13 21  1  0
 21 22  1  0
  6 23  1  0
 23 24  2  0
 24  3  1  0
 22 10  1  0
 20 16  1  0
  1 25  1  0
  1 26  1  0
  1 27  1  0
  2 28  1  0
  2 29  1  0
  4 30  1  0
  5 31  1  0
 11 32  1  0
 11 33  1  0
 12 34  1  0
 12 35  1  0
 17 36  1  0
 18 37  1  0
 19 38  1  0
 21 39  1  0
 21 40  1  0
 22 41  1  0
 22 42  1  0
 23 43  1  0
 24 44  1  0
M  END
>  <UniqueID>  (71) 
65

>  <SMILES>  (71) 
CCc1ccc(S(=O)(=O)N2CCN(C(=O)c3ccco3)CC2)cc1

>  <Energy>  (71) 
77.12854530032732

>  <Genealogy>  (71) 
CCc1ccc(S(=O)(=O)N2CCN(C(=O)c3ccco3)CC2)cc1 (3D coordinates assigned)
CCc1ccc(S(=O)(=O)N2CCN(C(=O)c3ccco3)CC2)cc1 (nonaromatic ring conformer: 77.12854530032732 kcal/mol)

>  <smiles>  (71) 
CCc1ccc(S(=O)(=O)N2CCN(C(=O)c3ccco3)CC2)cc1

>  <score_type>  (71) 
oracle

>  <origin>  (71) 
adg

>  <m_score__min__energy>  (71) 
-8.8399999999999999

>  <m_primary>  (71) 
energy

$$$$
71:0
     RDKit          3D

 47 50  0  0  0  0  0  0  0  0999 V2000
   56.9413   23.1116   42.3484 H   0  0  0  0  0  0  0  0  0  0  0  0
   56.5910   23.6050   43.2670 C   0  0  0  0  0  0  0  0  0  0  0  0
   55.3570   23.2540   43.8170 C   0  0  0  0  0  0  0  0  0  0  0  0
   54.7348   22.4907   43.3269 H   0  0  0  0  0  0  0  0  0  0  0  0
   54.9070   23.8750   44.9980 C   0  0  0  0  0  0  0  0  0  0  0  0
   53.6780   23.5530   45.5950 O   0  0  0  0  0  0  0  0  0  0  0  0
   53.5270   22.6500   46.6860 C   0  0  0  0  0  0  0  0  0  0  0  0
   53.6192   23.2011   47.6335 H   0  0  0  0  0  0  0  0  0  0  0  0
   52.5368   22.1739   46.6335 H   0  0  0  0  0  0  0  0  0  0  0  0
   54.3085   21.8776   46.6335 H   0  0  0  0  0  0  0  0  0  0  0  0
   55.7080   24.8470   45.6080 C   0  0  0  0  0  0  0  0  0  0  0  0
   55.3673   25.3254   46.5381 H   0  0  0  0  0  0  0  0  0  0  0  0
   56.9420   25.2200   45.0480 C   0  0  0  0  0  0  0  0  0  0  0  0
   57.7510   26.2200   45.6950 N   0  0  0  0  0  0  0  0  0  0  0  0
   58.4060   25.9940   46.8300 N   0  0  0  0  0  0  0  0  0  0  0  0
   59.0090   27.1480   47.1640 C   0  0  0  0  0  0  0  0  0  0  0  0
   58.7240   28.1330   46.2680 C   0  0  0  0  0  0  0  0  0  0  0  0
   57.8970   27.5210   45.3360 C   0  0  0  0  0  0  0  0  0  0  0  0
   57.2210   28.0770   44.3690 N   0  0  0  0  0  0  0  0  0  0  0  0
   56.4900   29.3080   44.4010 C   0  0  0  0  0  0  0  0  0  0  0  0
   55.2790   29.3320   44.7430 O   0  0  0  0  0  0  0  0  0  0  0  0
   57.2000   30.5990   44.1380 C   0  0  0  0  0  0  0  0  0  0  0  0
   58.2858   30.4227   44.1420 H   0  0  0  0  0  0  0  0  0  0  0  0
   56.8832   30.9869   43.1586 H   0  0  0  0  0  0  0  0  0  0  0  0
   56.8760   31.5600   45.1430 O   0  0  0  0  0  0  0  0  0  0  0  0
   57.6280   32.7050   45.4500 C   0  0  0  0  0  0  0  0  0  0  0  0
   58.1720   32.8140   46.7360 C   0  0  0  0  0  0  0  0  0  0  0  0
   58.0031   32.0119   47.4696 H   0  0  0  0  0  0  0  0  0  0  0  0
   58.9280   33.9340   47.0950 C   0  0  0  0  0  0  0  0  0  0  0  0
   59.3539   34.0083   48.1065 H   0  0  0  0  0  0  0  0  0  0  0  0
   59.1430   34.9590   46.1700 C   0  0  0  0  0  0  0  0  0  0  0  0
   59.8740   36.0460   46.5190 F   0  0  0  0  0  0  0  0  0  0  0  0
   58.6010   34.8640   44.8860 C   0  0  0  0  0  0  0  0  0  0  0  0
   58.7674   35.6727   44.1591 H   0  0  0  0  0  0  0  0  0  0  0  0
   57.8470   33.7430   44.5220 C   0  0  0  0  0  0  0  0  0  0  0  0
   57.4241   33.6716   43.5091 H   0  0  0  0  0  0  0  0  0  0  0  0
   58.9980   29.5340   46.6920 C   0  0  0  0  0  0  0  0  0  0  0  0
   59.7187   30.0212   46.0188 H   0  0  0  0  0  0  0  0  0  0  0  0
   58.1102   30.1832   46.6749 H   0  0  0  0  0  0  0  0  0  0  0  0
   59.6890   29.3030   48.3250 S   0  0  0  0  0  0  0  0  0  0  0  0
   58.8450   29.9680   49.3750 O   0  0  0  0  0  0  0  0  0  0  0  0
   61.1060   29.7990   48.3950 O   0  0  0  0  0  0  0  0  0  0  0  0
   59.6160   27.5240   48.4630 C   0  0  0  0  0  0  0  0  0  0  0  0
   60.6198   27.0889   48.5777 H   0  0  0  0  0  0  0  0  0  0  0  0
   59.0551   27.1661   49.3389 H   0  0  0  0  0  0  0  0  0  0  0  0
   57.3830   24.5800   43.8780 C   0  0  0  0  0  0  0  0  0  0  0  0
   58.3563   24.8478   43.4410 H   0  0  0  0  0  0  0  0  0  0  0  0
  1  2  1  0
  2  3  2  0
  3  4  1  0
  3  5  1  0
  5  6  1  0
  6  7  1  0
  7  8  1  0
  7  9  1  0
  7 10  1  0
  5 11  2  0
 11 12  1  0
 11 13  1  0
 13 14  1  0
 14 15  1  0
 15 16  1  0
 16 17  2  0
 17 18  1  0
 18 19  2  0
 19 20  1  0
 20 21  2  0
 20 22  1  0
 22 23  1  0
 22 24  1  0
 22 25  1  0
 25 26  1  0
 26 27  2  0
 27 28  1  0
 27 29  1  0
 29 30  1  0
 29 31  2  0
 31 32  1  0
 31 33  1  0
 33 34  1  0
 33 35  2  0
 35 36  1  0
 17 37  1  0
 37 38  1  0
 37 39  1  0
 37 40  1  0
 40 41  2  0
 40 42  2  0
 40 43  1  0
 43 44  1  0
 43 45  1  0
 13 46  2  0
 46 47  1  0
 46  2  1  0
 18 14  1  0
 35 26  1  0
 43 16  1  0
M  CHG  1  15  -1
M  END
>  <UniqueID>  (72) 
66

>  <SMILES>  (72) 
COc1cccc(-n2[n-]c3c(/c2=N\C(=O)COc2ccc(F)cc2)CS(=O)(=O)C3)c1

>  <Energy>  (72) 
102.01768247070208

>  <Genealogy>  (72) 
COc1cccc(-n2[n-]c3c(c2=NC(=O)COc2ccc(F)cc2)CS(=O)(=O)C3)c1 (protonated)
COc1cccc(-n2[n-]c3c(/c2=N\C(=O)COc2ccc(F)cc2)CS(=O)(=O)C3)c1 (cis-trans isomerization)
COc1cccc(-n2[n-]c3c(/c2=N\C(=O)COc2ccc(F)cc2)CS(=O)(=O)C3)c1 (3D coordinates assigned)
COc1cccc(-n2[n-]c3c(/c2=N\C(=O)COc2ccc(F)cc2)CS(=O)(=O)C3)c1 (nonaromatic ring conformer: 102.01768247070208 kcal/mol)

>  <smiles>  (72) 
COc1cccc(-n2[nH]c3c(c2=NC(=O)COc2ccc(F)cc2)CS(=O)(=O)C3)c1

>  <score_type>  (72) 
oracle

>  <origin>  (72) 
adg

>  <m_score__min__energy>  (72) 
-9.7100000000000009

>  <m_primary>  (72) 
energy

$$$$
72:0
     RDKit          3D

 39 41  0  0  0  0  0  0  0  0999 V2000
   57.4720   21.1700   45.9300 C   0  0  0  0  0  0  0  0  0  0  0  0
   57.3970   22.1990   46.9120 O   0  0  0  0  0  0  0  0  0  0  0  0
   57.5240   23.5680   46.6360 C   0  0  0  0  0  0  0  0  0  0  0  0
   58.6580   24.0050   45.9420 C   0  0  0  0  0  0  0  0  0  0  0  0
   58.8330   25.3590   45.6460 C   0  0  0  0  0  0  0  0  0  0  0  0
   57.8710   26.3070   46.0390 C   0  0  0  0  0  0  0  0  0  0  0  0
   58.0480   27.7070   45.7290 N   0  0  0  0  0  0  0  0  0  0  0  0
   58.9980   28.5210   46.5020 C   0  0  0  0  0  0  0  0  0  0  0  0
   58.4960   29.9640   46.6330 C   0  0  0  0  0  0  0  0  0  0  0  0
   58.0380   30.4990   45.3430 N   0  0  0  0  0  0  0  0  0  0  0  0
   57.4700   31.8160   45.2860 C   0  0  0  0  0  0  0  0  0  0  0  0
   56.2960   31.9690   44.8520 O   0  0  0  0  0  0  0  0  0  0  0  0
   58.2350   32.9960   45.7220 C   0  0  0  0  0  0  0  0  0  0  0  0
   58.8030   33.9630   44.8980 C   0  0  0  0  0  0  0  0  0  0  0  0
   59.4300   34.9940   45.6070 C   0  0  0  0  0  0  0  0  0  0  0  0
   59.3520   34.8520   46.9870 C   0  0  0  0  0  0  0  0  0  0  0  0
   58.4950   33.4440   47.3230 S   0  0  0  0  0  0  0  0  0  0  0  0
   57.9840   29.6310   44.1610 C   0  0  0  0  0  0  0  0  0  0  0  0
   57.3860   28.2740   44.5410 C   0  0  0  0  0  0  0  0  0  0  0  0
   56.7280   25.8660   46.7290 C   0  0  0  0  0  0  0  0  0  0  0  0
   56.5560   24.5110   47.0280 C   0  0  0  0  0  0  0  0  0  0  0  0
   57.5433   20.1920   46.4284 H   0  0  0  0  0  0  0  0  0  0  0  0
   56.5696   21.1964   45.3016 H   0  0  0  0  0  0  0  0  0  0  0  0
   58.3611   21.3270   45.3016 H   0  0  0  0  0  0  0  0  0  0  0  0
   59.4186   23.2756   45.6267 H   0  0  0  0  0  0  0  0  0  0  0  0
   59.7306   25.6866   45.1010 H   0  0  0  0  0  0  0  0  0  0  0  0
   59.1123   28.0862   47.5059 H   0  0  0  0  0  0  0  0  0  0  0  0
   59.9645   28.5297   45.9768 H   0  0  0  0  0  0  0  0  0  0  0  0
   57.6587   29.9869   47.3460 H   0  0  0  0  0  0  0  0  0  0  0  0
   59.3310   30.5871   46.9858 H   0  0  0  0  0  0  0  0  0  0  0  0
   58.7632   33.9212   43.7995 H   0  0  0  0  0  0  0  0  0  0  0  0
   59.9374   35.8382   45.1173 H   0  0  0  0  0  0  0  0  0  0  0  0
   59.7773   35.5413   47.7313 H   0  0  0  0  0  0  0  0  0  0  0  0
   57.3577   30.1030   43.3897 H   0  0  0  0  0  0  0  0  0  0  0  0
   59.0023   29.4831   43.7722 H   0  0  0  0  0  0  0  0  0  0  0  0
   56.3149   28.4027   44.7557 H   0  0  0  0  0  0  0  0  0  0  0  0
   57.5356   27.5823   43.6988 H   0  0  0  0  0  0  0  0  0  0  0  0
   55.9623   26.5935   47.0363 H   0  0  0  0  0  0  0  0  0  0  0  0
   55.6592   24.1804   47.5725 H   0  0  0  0  0  0  0  0  0  0  0  0
  1  2  1  0
  2  3  1  0
  3  4  2  0
  4  5  1  0
  5  6  2  0
  6  7  1  0
  7  8  1  0
  8  9  1  0
  9 10  1  0
 10 11  1  0
 11 12  2  0
 11 13  1  0
 13 14  2  0
 14 15  1  0
 15 16  2  0
 16 17  1  0
 10 18  1  0
 18 19  1  0
  6 20  1  0
 20 21  2  0
 21  3  1  0
 19  7  1  0
 17 13  1  0
  1 22  1  0
  1 23  1  0
  1 24  1  0
  4 25  1  0
  5 26  1  0
  8 27  1  0
  8 28  1  0
  9 29  1  0
  9 30  1  0
 14 31  1  0
 15 32  1  0
 16 33  1  0
 18 34  1  0
 18 35  1  0
 19 36  1  0
 19 37  1  0
 20 38  1  0
 21 39  1  0
M  END
>  <UniqueID>  (73) 
67

>  <SMILES>  (73) 
COc1ccc(N2CCN(C(=O)c3cccs3)CC2)cc1

>  <Energy>  (73) 
73.4755307474947

>  <Genealogy>  (73) 
COc1ccc(N2CCN(C(=O)c3cccs3)CC2)cc1 (3D coordinates assigned)
COc1ccc(N2CCN(C(=O)c3cccs3)CC2)cc1 (nonaromatic ring conformer: 73.4755307474947 kcal/mol)

>  <smiles>  (73) 
COc1ccc(N2CCN(C(=O)c3cccs3)CC2)cc1

>  <score_type>  (73) 
oracle

>  <origin>  (73) 
adg

>  <m_score__min__energy>  (73) 
-6.6699999999999999

>  <m_primary>  (73) 
energy

$$$$
73:0
     RDKit          3D

 66 71  0  0  0  0  0  0  0  0999 V2000
   63.2960   29.7430   51.7920 O   0  0  0  0  0  0  0  0  0  0  0  0
   62.6720   30.3730   50.8970 C   0  0  0  0  0  0  0  0  0  0  0  0
   63.4370   31.2480   49.9460 C   0  0  0  0  0  0  0  0  0  0  0  0
   62.6410   32.4900   49.5020 C   0  0  1  0  0  0  0  0  0  0  0  0
   63.5210   33.5560   48.8210 C   0  0  0  0  0  0  0  0  0  0  0  0
   62.9370   33.7470   47.4290 C   0  0  0  0  0  0  0  0  0  0  0  0
   61.5780   33.1900   47.4280 N   0  0  0  0  0  0  0  0  0  0  0  0
   60.5710   34.2090   47.8030 C   0  0  0  0  0  0  0  0  0  0  0  0
   59.3920   34.1550   46.8660 C   0  0  0  0  0  0  0  0  0  0  0  0
   58.1660   33.6150   47.2910 C   0  0  0  0  0  0  0  0  0  0  0  0
   57.0680   33.5930   46.4230 C   0  0  0  0  0  0  0  0  0  0  0  0
   57.1860   34.1080   45.1300 C   0  0  0  0  0  0  0  0  0  0  0  0
   58.4030   34.6470   44.7000 C   0  0  0  0  0  0  0  0  0  0  0  0
   59.5040   34.6700   45.5640 C   0  0  0  0  0  0  0  0  0  0  0  0
   61.6270   32.1020   48.4120 C   0  0  0  0  0  0  0  0  0  0  0  0
   61.9000   33.0410   50.6000 O   0  0  0  0  0  0  0  0  0  0  0  0
   60.6630   32.5820   51.0690 C   0  0  0  0  0  0  0  0  0  0  0  0
   59.6980   33.5450   51.3880 C   0  0  0  0  0  0  0  0  0  0  0  0
   58.4460   33.1660   51.8710 C   0  0  0  0  0  0  0  0  0  0  0  0
   58.1410   31.8150   52.0280 C   0  0  0  0  0  0  0  0  0  0  0  0
   59.0820   30.8420   51.6900 C   0  0  0  0  0  0  0  0  0  0  0  0
   60.3490   31.2070   51.1940 C   0  0  0  0  0  0  0  0  0  0  0  0
   61.2640   30.1860   50.7510 N   0  0  0  0  0  0  0  0  0  0  0  0
   60.7750   28.9100   50.2100 C   0  0  0  0  0  0  0  0  0  0  0  0
   60.1020   29.1320   48.8830 C   0  0  0  0  0  0  0  0  0  0  0  0
   59.1990   30.1930   48.7260 C   0  0  0  0  0  0  0  0  0  0  0  0
   58.5290   30.3790   47.5130 C   0  0  0  0  0  0  0  0  0  0  0  0
   58.7540   29.5080   46.4310 C   0  0  0  0  0  0  0  0  0  0  0  0
   58.0300   29.6980   45.1470 C   0  0  0  0  0  0  0  0  0  0  0  0
   57.8140   30.9860   44.6270 C   0  0  0  0  0  0  0  0  0  0  0  0
   57.1500   31.1490   43.4100 C   0  0  0  0  0  0  0  0  0  0  0  0
   56.7070   30.0250   42.7160 C   0  0  0  0  0  0  0  0  0  0  0  0
   56.9180   28.7820   43.2260 N   0  0  0  0  0  0  0  0  0  0  0  0
   57.5580   28.5970   44.4130 C   0  0  0  0  0  0  0  0  0  0  0  0
   59.6670   28.4500   46.5920 C   0  0  0  0  0  0  0  0  0  0  0  0
   60.3280   28.2600   47.8100 C   0  0  0  0  0  0  0  0  0  0  0  0
   64.3606   31.5817   50.4417 H   0  0  0  0  0  0  0  0  0  0  0  0
   63.6480   30.6519   49.0459 H   0  0  0  0  0  0  0  0  0  0  0  0
   63.4847   34.4999   49.3846 H   0  0  0  0  0  0  0  0  0  0  0  0
   64.5751   33.2446   48.7789 H   0  0  0  0  0  0  0  0  0  0  0  0
   62.9017   34.8185   47.1825 H   0  0  0  0  0  0  0  0  0  0  0  0
   63.5600   33.2372   46.6794 H   0  0  0  0  0  0  0  0  0  0  0  0
   60.2265   34.0169   48.8299 H   0  0  0  0  0  0  0  0  0  0  0  0
   61.0319   35.2057   47.7381 H   0  0  0  0  0  0  0  0  0  0  0  0
   58.0690   33.2085   48.3085 H   0  0  0  0  0  0  0  0  0  0  0  0
   56.1104   33.1693   46.7598 H   0  0  0  0  0  0  0  0  0  0  0  0
   56.3217   34.0897   44.4498 H   0  0  0  0  0  0  0  0  0  0  0  0
   58.4949   35.0532   43.6819 H   0  0  0  0  0  0  0  0  0  0  0  0
   60.4602   35.0928   45.2222 H   0  0  0  0  0  0  0  0  0  0  0  0
   60.6329   31.9600   48.8609 H   0  0  0  0  0  0  0  0  0  0  0  0
   61.9293   31.1622   47.9269 H   0  0  0  0  0  0  0  0  0  0  0  0
   59.9300   34.6121   51.2562 H   0  0  0  0  0  0  0  0  0  0  0  0
   57.6999   33.9324   52.1278 H   0  0  0  0  0  0  0  0  0  0  0  0
   57.1573   31.5157   52.4188 H   0  0  0  0  0  0  0  0  0  0  0  0
   58.8318   29.7778   51.8122 H   0  0  0  0  0  0  0  0  0  0  0  0
   61.6236   28.2229   50.0766 H   0  0  0  0  0  0  0  0  0  0  0  0
   60.0481   28.4771   50.9131 H   0  0  0  0  0  0  0  0  0  0  0  0
   59.0165   30.8836   49.5626 H   0  0  0  0  0  0  0  0  0  0  0  0
   57.8202   31.2130   47.4036 H   0  0  0  0  0  0  0  0  0  0  0  0
   58.1691   31.8677   45.1805 H   0  0  0  0  0  0  0  0  0  0  0  0
   56.9780   32.1561   43.0024 H   0  0  0  0  0  0  0  0  0  0  0  0
   56.1860   30.1431   41.7544 H   0  0  0  0  0  0  0  0  0  0  0  0
   56.5810   27.9500   42.6930 H   0  0  0  0  0  0  0  0  0  0  0  0
   57.7067   27.5782   44.8003 H   0  0  0  0  0  0  0  0  0  0  0  0
   59.8628   27.7662   45.7529 H   0  0  0  0  0  0  0  0  0  0  0  0
   61.0296   27.4208   47.9261 H   0  0  0  0  0  0  0  0  0  0  0  0
  1  2  2  0
  2  3  1  0
  3  4  1  0
  4  5  1  0
  5  6  1  0
  6  7  1  0
  7  8  1  0
  8  9  1  0
  9 10  2  0
 10 11  1  0
 11 12  2  0
 12 13  1  0
 13 14  2  0
  7 15  1  0
  4 16  1  1
 16 17  1  0
 17 18  2  0
 18 19  1  0
 19 20  2  0
 20 21  1  0
 21 22  2  0
 22 23  1  0
 23 24  1  0
 24 25  1  0
 25 26  2  0
 26 27  1  0
 27 28  2  0
 28 29  1  0
 29 30  2  0
 30 31  1  0
 31 32  2  0
 32 33  1  0
 33 34  2  0
 28 35  1  0
 35 36  2  0
 23  2  1  0
 36 25  1  0
 15  4  1  0
 22 17  1  0
 34 29  1  0
 14  9  1  0
  3 37  1  0
  3 38  1  0
  5 39  1  0
  5 40  1  0
  6 41  1  0
  6 42  1  0
  8 43  1  0
  8 44  1  0
 10 45  1  0
 11 46  1  0
 12 47  1  0
 13 48  1  0
 14 49  1  0
 15 50  1  0
 15 51  1  0
 18 52  1  0
 19 53  1  0
 20 54  1  0
 21 55  1  0
 24 56  1  0
 24 57  1  0
 26 58  1  0
 27 59  1  0
 30 60  1  0
 31 61  1  0
 32 62  1  0
 33 63  1  0
 34 64  1  0
 35 65  1  0
 36 66  1  0
M  CHG  1  33   1
M  END
>  <UniqueID>  (74) 
68

>  <SMILES>  (74) 
O=C1C[C@]2(CCN(Cc3ccccc3)C2)Oc2ccccc2N1Cc1ccc(-c2ccc[nH+]c2)cc1

>  <Energy>  (74) 
99.8953076935765

>  <Genealogy>  (74) 
O=C1CC2(CCN(Cc3ccccc3)C2)Oc2ccccc2N1Cc1ccc(-c2ccc[nH+]c2)cc1 (protonated)
O=C1C[C@]2(CCN(Cc3ccccc3)C2)Oc2ccccc2N1Cc1ccc(-c2ccc[nH+]c2)cc1 (chirality)
O=C1C[C@]2(CCN(Cc3ccccc3)C2)Oc2ccccc2N1Cc1ccc(-c2ccc[nH+]c2)cc1 (3D coordinates assigned)
O=C1C[C@]2(CCN(Cc3ccccc3)C2)Oc2ccccc2N1Cc1ccc(-c2ccc[nH+]c2)cc1 (nonaromatic ring conformer: 99.8953076935765 kcal/mol)

>  <smiles>  (74) 
O=C1CC2(CCN(Cc3ccccc3)C2)Oc2ccccc2N1Cc1ccc(-c2cccnc2)cc1

>  <score_type>  (74) 
oracle

>  <origin>  (74) 
adg

>  <m_score__min__energy>  (74) 
-7.7800000000000002

>  <m_primary>  (74) 
energy

$$$$
74:0
     RDKit          3D

 43 46  0  0  1  0  0  0  0  0999 V2000
   58.4420   34.5430   45.7320 C   0  0  0  0  0  0  0  0  0  0  0  0
   58.9800   34.3020   44.4980 C   0  0  0  0  0  0  0  0  0  0  0  0
   58.5580   33.1760   43.7910 C   0  0  0  0  0  0  0  0  0  0  0  0
   57.6290   32.3290   44.3140 C   0  0  0  0  0  0  0  0  0  0  0  0
   57.1650   31.1090   43.5590 C   0  0  0  0  0  0  0  0  0  0  0  0
   56.3060   30.4190   44.5040 N   0  0  0  0  0  0  0  0  0  0  0  0
   56.7910   29.3970   45.1280 C   0  0  0  0  0  0  0  0  0  0  0  0
   58.0350   29.4720   45.6480 N   0  0  0  0  0  0  0  0  0  0  0  0
   58.6180   28.4610   46.3110 C   0  0  0  0  0  0  0  0  0  0  0  0
   59.7670   28.6000   46.7740 N   0  0  0  0  0  0  0  0  0  0  0  0
   60.2050   29.1390   47.9970 C   0  0  0  0  0  0  0  0  0  0  0  0
   60.3100   30.6290   47.9690 C   0  0  0  0  0  0  0  0  0  0  0  0
   61.2440   31.2890   47.1620 C   0  0  0  0  0  0  0  0  0  0  0  0
   61.3720   32.6520   47.1150 C   0  0  0  0  0  0  0  0  0  0  0  0
   60.5600   33.4460   47.8850 C   0  0  0  0  0  0  0  0  0  0  0  0
   59.6410   32.8430   48.6840 C   0  0  0  0  0  0  0  0  0  0  0  0
   59.5140   31.4600   48.7290 C   0  0  0  0  0  0  0  0  0  0  0  0
   57.9440   27.2960   46.4780 C   0  0  0  0  0  0  0  0  0  0  0  0
   58.2730   26.1600   47.0710 N   0  0  0  0  0  0  0  0  0  0  0  0
   57.1750   25.3540   46.9050 C   0  0  0  0  0  0  0  0  0  0  0  0
   56.2220   26.0120   46.2260 N   0  0  0  0  0  0  0  0  0  0  0  0
   56.6670   27.2270   45.9410 C   0  0  0  0  0  0  0  0  0  0  0  0
   56.0970   28.2500   45.2800 N   0  0  0  0  0  0  0  0  0  0  0  0
   57.0930   32.5940   45.5720 C   0  0  0  0  0  0  0  0  0  0  0  0
   57.5050   33.7050   46.2780 C   0  0  0  0  0  0  0  0  0  0  0  0
   58.7681   35.4279   46.2982 H   0  0  0  0  0  0  0  0  0  0  0  0
   59.7311   34.9830   44.0712 H   0  0  0  0  0  0  0  0  0  0  0  0
   58.9816   32.9694   42.7971 H   0  0  0  0  0  0  0  0  0  0  0  0
   56.6037   31.3966   42.6577 H   0  0  0  0  0  0  0  0  0  0  0  0
   57.9997   30.4835   43.2097 H   0  0  0  0  0  0  0  0  0  0  0  0
   58.5500   30.3680   45.5170 H   0  0  0  0  0  0  0  0  0  0  0  0
   59.4913   28.8518   48.7833 H   0  0  0  0  0  0  0  0  0  0  0  0
   61.2111   28.7399   48.1932 H   0  0  0  0  0  0  0  0  0  0  0  0
   61.9103   30.6811   46.5324 H   0  0  0  0  0  0  0  0  0  0  0  0
   62.1267   33.1106   46.4591 H   0  0  0  0  0  0  0  0  0  0  0  0
   60.6506   34.5419   47.8563 H   0  0  0  0  0  0  0  0  0  0  0  0
   58.9826   33.4638   49.3094 H   0  0  0  0  0  0  0  0  0  0  0  0
   58.7561   31.0149   49.3904 H   0  0  0  0  0  0  0  0  0  0  0  0
   59.0820   25.7730   47.5690 H   0  0  0  0  0  0  0  0  0  0  0  0
   57.0884   24.3213   47.2738 H   0  0  0  0  0  0  0  0  0  0  0  0
   55.1340   28.1950   44.8760 H   0  0  0  0  0  0  0  0  0  0  0  0
   56.3407   31.9169   46.0027 H   0  0  0  0  0  0  0  0  0  0  0  0
   57.0845   33.9169   47.2721 H   0  0  0  0  0  0  0  0  0  0  0  0
  1  2  2  0
  2  3  1  0
  3  4  2  0
  4  5  1  0
  5  6  1  0
  6  7  2  0
  7  8  1  0
  8  9  1  0
  9 10  2  0
 10 11  1  0
 11 12  1  0
 12 13  2  0
 13 14  1  0
 14 15  2  0
 15 16  1  0
 16 17  2  0
  9 18  1  0
 18 19  1  0
 19 20  1  0
 20 21  2  0
 21 22  1  0
 22 23  1  0
  4 24  1  0
 24 25  2  0
 25  1  1  0
 23  7  1  0
 17 12  1  0
 22 18  2  0
  1 26  1  0
  2 27  1  0
  3 28  1  0
  5 29  1  0
  5 30  1  0
  8 31  1  0
 11 32  1  0
 11 33  1  0
 13 34  1  0
 14 35  1  0
 15 36  1  0
 16 37  1  0
 17 38  1  0
 19 39  1  0
 20 40  1  0
 23 41  1  0
 24 42  1  0
 25 43  1  0
M  END
>  <smiles>  (75) 
c1ccc(CN=c2[nH]c(=NCc3ccccc3)c3[nH]cnc3[nH]2)cc1

>  <score_type>  (75) 
oracle

>  <origin>  (75) 
adg

>  <m_score__min__energy>  (75) 
-8.4499999999999993

>  <m_primary>  (75) 
energy

$$$$
75:0
     RDKit          3D

 54 56  0  0  0  0  0  0  0  0999 V2000
   58.0820   32.3580   41.1850 C   0  0  0  0  0  0  0  0  0  0  0  0
   57.0230   31.6190   42.0000 C   0  0  0  0  0  0  0  0  0  0  0  0
   57.4700   31.4360   43.3890 N   0  0  0  0  0  0  0  0  0  0  0  0
   58.2570   32.5160   44.0050 C   0  0  0  0  0  0  0  0  0  0  0  0
   57.5130   33.1560   45.1420 C   0  0  0  0  0  0  0  0  0  0  0  0
   56.6190   34.0060   44.8830 O   0  0  0  0  0  0  0  0  0  0  0  0
   57.8810   32.8680   46.4990 N   0  0  0  0  0  0  0  0  0  0  0  0
   59.1330   33.1560   47.1420 C   0  0  0  0  0  0  0  0  0  0  0  0
   59.3010   33.0790   48.5360 C   0  0  0  0  0  0  0  0  0  0  0  0
   60.5390   33.3770   49.1180 C   0  0  0  0  0  0  0  0  0  0  0  0
   61.6330   33.7450   48.3170 C   0  0  0  0  0  0  0  0  0  0  0  0
   62.9590   34.0980   48.9660 C   0  0  0  0  0  0  0  0  0  0  0  0
   64.0530   33.1130   48.5390 C   0  0  0  0  0  0  0  0  0  0  0  0
   62.8360   34.1610   50.4940 C   0  0  0  0  0  0  0  0  0  0  0  0
   61.4640   33.7980   46.9200 C   0  0  0  0  0  0  0  0  0  0  0  0
   60.2310   33.4890   46.3420 C   0  0  0  0  0  0  0  0  0  0  0  0
   56.9730   30.3070   44.1540 C   0  0  0  0  0  0  0  0  0  0  0  0
   55.9380   30.4460   44.8650 O   0  0  0  0  0  0  0  0  0  0  0  0
   57.6430   28.9550   44.1470 C   0  0  0  0  0  0  0  0  0  0  0  0
   57.9880   28.5030   45.5370 C   0  0  0  0  0  0  0  0  0  0  0  0
   57.3840   27.4710   46.2480 C   0  0  0  0  0  0  0  0  0  0  0  0
   57.9810   27.3110   47.4510 N   0  0  0  0  0  0  0  0  0  0  0  0
   58.9480   28.2410   47.5130 C   0  0  0  0  0  0  0  0  0  0  0  0
   59.8410   28.4610   48.5610 C   0  0  0  0  0  0  0  0  0  0  0  0
   60.7800   29.4980   48.4170 C   0  0  0  0  0  0  0  0  0  0  0  0
   60.8040   30.2860   47.2430 C   0  0  0  0  0  0  0  0  0  0  0  0
   59.8960   30.0360   46.1980 C   0  0  0  0  0  0  0  0  0  0  0  0
   58.9810   28.9950   46.3660 C   0  0  0  0  0  0  0  0  0  0  0  0
   58.7902   32.8522   41.8663 H   0  0  0  0  0  0  0  0  0  0  0  0
   58.6233   31.6405   40.5508 H   0  0  0  0  0  0  0  0  0  0  0  0
   57.5954   33.1136   40.5508 H   0  0  0  0  0  0  0  0  0  0  0  0
   56.0908   32.2029   41.9947 H   0  0  0  0  0  0  0  0  0  0  0  0
   56.8563   30.6297   41.5489 H   0  0  0  0  0  0  0  0  0  0  0  0
   59.2013   32.0989   44.3849 H   0  0  0  0  0  0  0  0  0  0  0  0
   58.4489   33.2837   43.2410 H   0  0  0  0  0  0  0  0  0  0  0  0
   58.4546   32.7828   49.1731 H   0  0  0  0  0  0  0  0  0  0  0  0
   60.6560   33.3226   50.2104 H   0  0  0  0  0  0  0  0  0  0  0  0
   63.2475   35.1007   48.6176 H   0  0  0  0  0  0  0  0  0  0  0  0
   64.5294   32.6841   49.4329 H   0  0  0  0  0  0  0  0  0  0  0  0
   63.6064   32.3066   47.9388 H   0  0  0  0  0  0  0  0  0  0  0  0
   64.8083   33.6415   47.9388 H   0  0  0  0  0  0  0  0  0  0  0  0
   63.7259   33.7052   50.9526 H   0  0  0  0  0  0  0  0  0  0  0  0
   62.7564   35.2109   50.8125 H   0  0  0  0  0  0  0  0  0  0  0  0
   61.9375   33.6121   50.8125 H   0  0  0  0  0  0  0  0  0  0  0  0
   62.3103   34.0852   46.2787 H   0  0  0  0  0  0  0  0  0  0  0  0
   60.1222   33.5076   45.2476 H   0  0  0  0  0  0  0  0  0  0  0  0
   56.9618   28.2212   43.6915 H   0  0  0  0  0  0  0  0  0  0  0  0
   58.5757   29.0357   43.5695 H   0  0  0  0  0  0  0  0  0  0  0  0
   56.5388   26.8691   45.8827 H   0  0  0  0  0  0  0  0  0  0  0  0
   57.7390   26.6020   48.1800 H   0  0  0  0  0  0  0  0  0  0  0  0
   59.8120   27.8435   49.4709 H   0  0  0  0  0  0  0  0  0  0  0  0
   61.5010   29.6976   49.2234 H   0  0  0  0  0  0  0  0  0  0  0  0
   61.5376   31.0999   47.1463 H   0  0  0  0  0  0  0  0  0  0  0  0
   59.9066   30.6406   45.2791 H   0  0  0  0  0  0  0  0  0  0  0  0
  1  2  1  0
  2  3  1  0
  3  4  1  0
  4  5  1  0
  5  6  2  0
  5  7  1  0
  7  8  1  0
  8  9  2  0
  9 10  1  0
 10 11  2  0
 11 12  1  0
 12 13  1  0
 12 14  1  0
 11 15  1  0
 15 16  2  0
  3 17  1  0
 17 18  2  0
 17 19  1  0
 19 20  1  0
 20 21  2  0
 21 22  1  0
 22 23  1  0
 23 24  2  0
 24 25  1  0
 25 26  2  0
 26 27  1  0
 27 28  2  0
 16  8  1  0
 28 20  1  0
 28 23  1  0
  1 29  1  0
  1 30  1  0
  1 31  1  0
  2 32  1  0
  2 33  1  0
  4 34  1  0
  4 35  1  0
  9 36  1  0
 10 37  1  0
 12 38  1  0
 13 39  1  0
 13 40  1  0
 13 41  1  0
 14 42  1  0
 14 43  1  0
 14 44  1  0
 15 45  1  0
 16 46  1  0
 19 47  1  0
 19 48  1  0
 21 49  1  0
 22 50  1  0
 24 51  1  0
 25 52  1  0
 26 53  1  0
 27 54  1  0
M  CHG  1   7  -1
M  END
>  <UniqueID>  (76) 
69

>  <SMILES>  (76) 
CCN(CC(=O)[N-]c1ccc(C(C)C)cc1)C(=O)Cc1c[nH]c2ccccc12

>  <Energy>  (76) 
78.82463480729744

>  <Genealogy>  (76) 
CCN(CC(=O)[N-]c1ccc(C(C)C)cc1)C(=O)Cc1c[nH]c2ccccc12 (protonated)
CCN(CC(=O)[N-]c1ccc(C(C)C)cc1)C(=O)Cc1c[nH]c2ccccc12 (3D coordinates assigned)
CCN(CC(=O)[N-]c1ccc(C(C)C)cc1)C(=O)Cc1c[nH]c2ccccc12 (optimized conformer: 78.82463480729744 kcal/mol)

>  <smiles>  (76) 
CCN(CC(=O)Nc1ccc(C(C)C)cc1)C(=O)Cc1c[nH]c2ccccc12

>  <score_type>  (76) 
oracle

>  <origin>  (76) 
adg

>  <m_score__min__energy>  (76) 
-11.039999999999999

>  <m_primary>  (76) 
energy

$$$$
76:0
     RDKit          3D

 49 51  0  0  0  0  0  0  0  0999 V2000
   62.6320   34.7120   49.4110 C   0  0  0  0  0  0  0  0  0  0  0  0
   63.4170   33.7460   48.5100 C   0  0  0  0  0  0  0  0  0  0  0  0
   63.6900   32.3950   49.2280 C   0  0  0  0  0  0  0  0  0  0  0  0
   62.8230   31.2380   48.7050 C   0  0  0  0  0  0  0  0  0  0  0  0
   61.4890   31.7250   48.3360 N   0  0  0  0  0  0  0  0  0  0  0  0
   60.3340   31.3730   49.1240 C   0  0  0  0  0  0  0  0  0  0  0  0
   60.4160   31.4370   50.7610 S   0  0  0  0  0  0  0  0  0  0  0  0
   59.0840   31.0250   48.5090 N   0  0  0  0  0  0  0  0  0  0  0  0
   58.9640   30.6700   47.0960 C   0  0  0  0  0  0  0  0  0  0  0  0
   58.4650   31.8440   46.2860 C   0  0  0  0  0  0  0  0  0  0  0  0
   58.1350   33.0330   46.9650 C   0  0  0  0  0  0  0  0  0  0  0  0
   57.6560   34.1440   46.2700 C   0  0  0  0  0  0  0  0  0  0  0  0
   57.4890   34.0830   44.8890 C   0  0  0  0  0  0  0  0  0  0  0  0
   57.7990   32.9130   44.1970 C   0  0  0  0  0  0  0  0  0  0  0  0
   58.2900   31.7800   44.8750 C   0  0  0  0  0  0  0  0  0  0  0  0
   58.5840   30.5290   44.0670 C   0  0  0  0  0  0  0  0  0  0  0  0
   57.8810   29.3430   44.5910 N   0  0  0  0  0  0  0  0  0  0  0  0
   58.6120   28.2570   44.9920 C   0  0  0  0  0  0  0  0  0  0  0  0
   57.9830   27.1250   45.5040 C   0  0  0  0  0  0  0  0  0  0  0  0
   56.5990   27.1320   45.6280 C   0  0  0  0  0  0  0  0  0  0  0  0
   55.9960   26.1250   46.0830 O   0  0  0  0  0  0  0  0  0  0  0  0
   55.8960   28.2340   45.2640 N   0  0  0  0  0  0  0  0  0  0  0  0
   56.5170   29.3340   44.7630 C   0  0  0  0  0  0  0  0  0  0  0  0
   55.8230   30.3440   44.4680 O   0  0  0  0  0  0  0  0  0  0  0  0
   61.3830   32.7730   47.3080 C   0  0  0  0  0  0  0  0  0  0  0  0
   62.7050   33.5470   47.1550 C   0  0  0  0  0  0  0  0  0  0  0  0
   62.8282   34.4706   50.4661 H   0  0  0  0  0  0  0  0  0  0  0  0
   62.9500   35.7449   49.2059 H   0  0  0  0  0  0  0  0  0  0  0  0
   61.5559   34.6121   49.2059 H   0  0  0  0  0  0  0  0  0  0  0  0
   64.3965   34.2005   48.3003 H   0  0  0  0  0  0  0  0  0  0  0  0
   64.7479   32.1309   49.0829 H   0  0  0  0  0  0  0  0  0  0  0  0
   63.4375   32.5352   50.2894 H   0  0  0  0  0  0  0  0  0  0  0  0
   63.3046   30.7951   47.8207 H   0  0  0  0  0  0  0  0  0  0  0  0
   62.7204   30.4823   49.4977 H   0  0  0  0  0  0  0  0  0  0  0  0
   58.2330   30.9670   49.1150 H   0  0  0  0  0  0  0  0  0  0  0  0
   59.9500   30.3636   46.7166 H   0  0  0  0  0  0  0  0  0  0  0  0
   58.2426   29.8451   47.0007 H   0  0  0  0  0  0  0  0  0  0  0  0
   58.2564   33.0864   48.0570 H   0  0  0  0  0  0  0  0  0  0  0  0
   57.4102   35.0684   46.8133 H   0  0  0  0  0  0  0  0  0  0  0  0
   57.1116   34.9600   44.3427 H   0  0  0  0  0  0  0  0  0  0  0  0
   57.6583   32.8741   43.1067 H   0  0  0  0  0  0  0  0  0  0  0  0
   58.2664   30.6972   43.0274 H   0  0  0  0  0  0  0  0  0  0  0  0
   59.6647   30.3341   44.1319 H   0  0  0  0  0  0  0  0  0  0  0  0
   59.7086   28.2789   44.9088 H   0  0  0  0  0  0  0  0  0  0  0  0
   58.5693   26.2439   45.8039 H   0  0  0  0  0  0  0  0  0  0  0  0
   61.1288   32.3054   46.3453 H   0  0  0  0  0  0  0  0  0  0  0  0
   60.6009   33.4822   47.6166 H   0  0  0  0  0  0  0  0  0  0  0  0
   63.3703   32.9848   46.4831 H   0  0  0  0  0  0  0  0  0  0  0  0
   62.4722   34.5403   46.7437 H   0  0  0  0  0  0  0  0  0  0  0  0
  1  2  1  0
  2  3  1  0
  3  4  1  0
  4  5  1  0
  5  6  1  0
  6  7  2  0
  6  8  1  0
  8  9  1  0
  9 10  1  0
 10 11  2  0
 11 12  1  0
 12 13  2  0
 13 14  1  0
 14 15  2  0
 15 16  1  0
 16 17  1  0
 17 18  1  0
 18 19  2  0
 19 20  1  0
 20 21  2  0
 20 22  1  0
 22 23  1  0
 23 24  2  0
  5 25  1  0
 25 26  1  0
 26  2  1  0
 15 10  1  0
 23 17  1  0
  1 27  1  0
  1 28  1  0
  1 29  1  0
  2 30  1  0
  3 31  1  0
  3 32  1  0
  4 33  1  0
  4 34  1  0
  8 35  1  0
  9 36  1  0
  9 37  1  0
 11 38  1  0
 12 39  1  0
 13 40  1  0
 14 41  1  0
 16 42  1  0
 16 43  1  0
 18 44  1  0
 19 45  1  0
 25 46  1  0
 25 47  1  0
 26 48  1  0
 26 49  1  0
M  CHG  1  22  -1
M  END
>  <UniqueID>  (77) 
70

>  <SMILES>  (77) 
CC1CCN(C(=S)NCc2ccccc2Cn2ccc(=O)[n-]c2=O)CC1

>  <Energy>  (77) 
56.93525654174815

>  <Genealogy>  (77) 
CC1CCN(C(=S)NCc2ccccc2Cn2ccc(=O)[n-]c2=O)CC1 (protonated)
CC1CCN(C(=S)NCc2ccccc2Cn2ccc(=O)[n-]c2=O)CC1 (3D coordinates assigned)
CC1CCN(C(=S)NCc2ccccc2Cn2ccc(=O)[n-]c2=O)CC1 (nonaromatic ring conformer: 56.93525654174815 kcal/mol)

>  <smiles>  (77) 
CC1CCN(C(=S)NCc2ccccc2Cn2ccc(=O)[nH]c2=O)CC1

>  <score_type>  (77) 
oracle

>  <origin>  (77) 
adg

>  <m_score__min__energy>  (77) 
-11.19

>  <m_primary>  (77) 
energy

$$$$
77:0
     RDKit          3D

 41 42  0  0  0  0  0  0  0  0999 V2000
   58.0960   23.3730   45.3820 C   0  0  0  0  0  0  0  0  0  0  0  0
   57.9060   23.9490   46.6560 O   0  0  0  0  0  0  0  0  0  0  0  0
   56.5810   24.4240   46.7860 C   0  0  0  0  0  0  0  0  0  0  0  0
   56.4570   25.8000   46.2020 C   0  0  0  0  0  0  0  0  0  0  0  0
   55.3100   26.2960   46.0350 O   0  0  0  0  0  0  0  0  0  0  0  0
   57.6310   26.5090   45.7730 N   0  0  0  0  0  0  0  0  0  0  0  0
   57.6290   27.8830   45.3480 C   0  0  0  0  0  0  0  0  0  0  0  0
   57.3890   28.2360   44.0090 C   0  0  0  0  0  0  0  0  0  0  0  0
   57.3770   29.5790   43.6240 C   0  0  0  0  0  0  0  0  0  0  0  0
   57.5910   30.5960   44.5690 C   0  0  0  0  0  0  0  0  0  0  0  0
   57.6050   31.9860   44.1680 N   0  0  0  0  0  0  0  0  0  0  0  0
   58.0580   32.3490   42.8220 C   0  0  0  0  0  0  0  0  0  0  0  0
   57.0530   33.0250   45.0510 C   0  0  0  0  0  0  0  0  0  0  0  0
   58.1220   33.5490   45.9740 C   0  0  0  0  0  0  0  0  0  0  0  0
   58.1810   33.1270   47.3120 C   0  0  0  0  0  0  0  0  0  0  0  0
   59.1530   33.6480   48.1720 C   0  0  0  0  0  0  0  0  0  0  0  0
   60.0680   34.5950   47.7030 C   0  0  0  0  0  0  0  0  0  0  0  0
   60.0110   35.0240   46.3740 C   0  0  0  0  0  0  0  0  0  0  0  0
   59.0400   34.5060   45.5110 C   0  0  0  0  0  0  0  0  0  0  0  0
   57.8000   30.2400   45.9130 C   0  0  0  0  0  0  0  0  0  0  0  0
   57.8120   28.8970   46.2980 C   0  0  0  0  0  0  0  0  0  0  0  0
   58.4387   22.3341   45.4967 H   0  0  0  0  0  0  0  0  0  0  0  0
   57.1458   23.3866   44.8280 H   0  0  0  0  0  0  0  0  0  0  0  0
   58.8516   23.9493   44.8280 H   0  0  0  0  0  0  0  0  0  0  0  0
   55.8986   23.7430   46.2563 H   0  0  0  0  0  0  0  0  0  0  0  0
   56.3211   24.4659   47.8540 H   0  0  0  0  0  0  0  0  0  0  0  0
   58.5200   25.9680   45.6770 H   0  0  0  0  0  0  0  0  0  0  0  0
   57.2096   27.4506   43.2600 H   0  0  0  0  0  0  0  0  0  0  0  0
   57.1983   29.8424   42.5711 H   0  0  0  0  0  0  0  0  0  0  0  0
   58.9145   33.0353   42.8960 H   0  0  0  0  0  0  0  0  0  0  0  0
   58.3614   31.4412   42.2800 H   0  0  0  0  0  0  0  0  0  0  0  0
   57.2381   32.8429   42.2800 H   0  0  0  0  0  0  0  0  0  0  0  0
   56.6645   33.8524   44.4390 H   0  0  0  0  0  0  0  0  0  0  0  0
   56.2425   32.5889   45.6534 H   0  0  0  0  0  0  0  0  0  0  0  0
   57.4604   32.3843   47.6849 H   0  0  0  0  0  0  0  0  0  0  0  0
   59.1975   33.3122   49.2186 H   0  0  0  0  0  0  0  0  0  0  0  0
   60.8331   35.0027   48.3801 H   0  0  0  0  0  0  0  0  0  0  0  0
   60.7309   35.7701   46.0063 H   0  0  0  0  0  0  0  0  0  0  0  0
   58.9951   34.8490   44.4668 H   0  0  0  0  0  0  0  0  0  0  0  0
   57.9553   31.0252   46.6675 H   0  0  0  0  0  0  0  0  0  0  0  0
   57.9663   28.6335   47.3548 H   0  0  0  0  0  0  0  0  0  0  0  0
  1  2  1  0
  2  3  1  0
  3  4  1  0
  4  5  2  0
  4  6  1  0
  6  7  1  0
  7  8  2  0
  8  9  1  0
  9 10  2  0
 10 11  1  0
 11 12  1  0
 11 13  1  0
 13 14  1  0
 14 15  2  0
 15 16  1  0
 16 17  2  0
 17 18  1  0
 18 19  2  0
 10 20  1  0
 20 21  2  0
 21  7  1  0
 19 14  1  0
  1 22  1  0
  1 23  1  0
  1 24  1  0
  3 25  1  0
  3 26  1  0
  6 27  1  0
  8 28  1  0
  9 29  1  0
 12 30  1  0
 12 31  1  0
 12 32  1  0
 13 33  1  0
 13 34  1  0
 15 35  1  0
 16 36  1  0
 17 37  1  0
 18 38  1  0
 19 39  1  0
 20 40  1  0
 21 41  1  0
M  END
>  <UniqueID>  (78) 
71

>  <SMILES>  (78) 
COCC(=O)Nc1ccc(N(C)Cc2ccccc2)cc1

>  <Energy>  (78) 
46.19588625563078

>  <Genealogy>  (78) 
COCC(=O)Nc1ccc(N(C)Cc2ccccc2)cc1 (3D coordinates assigned)
COCC(=O)Nc1ccc(N(C)Cc2ccccc2)cc1 (optimized conformer: 46.19588625563078 kcal/mol)

>  <smiles>  (78) 
COCC(=O)Nc1ccc(N(C)Cc2ccccc2)cc1

>  <score_type>  (78) 
oracle

>  <origin>  (78) 
adg

>  <m_score__min__energy>  (78) 
-7.0899999999999999

>  <m_primary>  (78) 
energy

$$$$
78:0
     RDKit          3D

 44 47  0  0  0  0  0  0  0  0999 V2000
   60.4150   29.2960   44.8680 C   0  0  0  0  0  0  0  0  0  0  0  0
   60.4900   29.2210   46.3280 N   0  0  0  0  0  0  0  0  0  0  0  0
   60.0280   28.2160   47.1200 C   0  0  0  0  0  0  0  0  0  0  0  0
   59.3210   27.0210   46.6150 C   0  0  0  0  0  0  0  0  0  0  0  0
   60.0230   25.8160   46.4620 C   0  0  0  0  0  0  0  0  0  0  0  0
   59.3830   24.6850   45.9470 C   0  0  0  0  0  0  0  0  0  0  0  0
   58.0380   24.7520   45.5760 C   0  0  0  0  0  0  0  0  0  0  0  0
   57.3310   25.9490   45.7190 C   0  0  0  0  0  0  0  0  0  0  0  0
   57.9650   27.0850   46.2360 C   0  0  0  0  0  0  0  0  0  0  0  0
   57.2280   28.2990   46.3730 N   0  0  0  0  0  0  0  0  0  0  0  0
   56.8910   29.3000   45.0060 S   0  0  0  0  0  0  0  0  0  0  0  0
   57.4230   28.6470   43.7590 O   0  0  0  0  0  0  0  0  0  0  0  0
   55.4040   29.4630   44.8610 O   0  0  0  0  0  0  0  0  0  0  0  0
   57.6370   30.8760   45.2430 C   0  0  0  0  0  0  0  0  0  0  0  0
   57.7670   31.7780   44.1760 C   0  0  0  0  0  0  0  0  0  0  0  0
   58.3630   33.0260   44.3800 C   0  0  0  0  0  0  0  0  0  0  0  0
   58.8340   33.3790   45.6500 C   0  0  0  0  0  0  0  0  0  0  0  0
   59.6390   35.0890   45.9280 Br  0  0  0  0  0  0  0  0  0  0  0  0
   58.7170   32.4770   46.7130 C   0  0  0  0  0  0  0  0  0  0  0  0
   58.1210   31.2290   46.5100 C   0  0  0  0  0  0  0  0  0  0  0  0
   60.3100   28.5040   48.4580 C   0  0  0  0  0  0  0  0  0  0  0  0
   60.0720   27.6880   49.6100 N   0  0  0  0  0  0  0  0  0  0  0  0
   60.7710   26.6870   49.8650 O   0  0  0  0  0  0  0  0  0  0  0  0
   60.9700   29.7110   48.4630 C   0  0  0  0  0  0  0  0  0  0  0  0
   61.4970   30.4570   49.5150 C   0  0  0  0  0  0  0  0  0  0  0  0
   62.1500   31.6630   49.2010 C   0  0  0  0  0  0  0  0  0  0  0  0
   62.2680   32.0820   47.8590 C   0  0  0  0  0  0  0  0  0  0  0  0
   61.7310   31.3050   46.8170 C   0  0  0  0  0  0  0  0  0  0  0  0
   61.0760   30.1150   47.1550 C   0  0  0  0  0  0  0  0  0  0  0  0
   59.6648   30.0462   44.5774 H   0  0  0  0  0  0  0  0  0  0  0  0
   61.3970   29.5842   44.4647 H   0  0  0  0  0  0  0  0  0  0  0  0
   60.1268   28.3140   44.4647 H   0  0  0  0  0  0  0  0  0  0  0  0
   61.0835   25.7609   46.7490 H   0  0  0  0  0  0  0  0  0  0  0  0
   59.9385   23.7423   45.8339 H   0  0  0  0  0  0  0  0  0  0  0  0
   57.5348   23.8617   45.1709 H   0  0  0  0  0  0  0  0  0  0  0  0
   56.2724   25.9987   45.4242 H   0  0  0  0  0  0  0  0  0  0  0  0
   57.3991   31.5024   43.1767 H   0  0  0  0  0  0  0  0  0  0  0  0
   58.4619   33.7313   43.5417 H   0  0  0  0  0  0  0  0  0  0  0  0
   59.0944   32.7501   47.7095 H   0  0  0  0  0  0  0  0  0  0  0  0
   58.0316   30.5215   47.3476 H   0  0  0  0  0  0  0  0  0  0  0  0
   61.4056   30.1145   50.5563 H   0  0  0  0  0  0  0  0  0  0  0  0
   62.5709   32.2828   50.0064 H   0  0  0  0  0  0  0  0  0  0  0  0
   62.7846   33.0247   47.6256 H   0  0  0  0  0  0  0  0  0  0  0  0
   61.8229   31.6229   45.7679 H   0  0  0  0  0  0  0  0  0  0  0  0
  1  2  1  0
  2  3  1  0
  3  4  1  0
  4  5  2  0
  5  6  1  0
  6  7  2  0
  7  8  1  0
  8  9  2  0
  9 10  1  0
 10 11  1  0
 11 12  2  0
 11 13  2  0
 11 14  1  0
 14 15  2  0
 15 16  1  0
 16 17  2  0
 17 18  1  0
 17 19  1  0
 19 20  2  0
  3 21  2  0
 21 22  1  0
 22 23  2  0
 21 24  1  0
 24 25  2  0
 25 26  1  0
 26 27  2  0
 27 28  1  0
 28 29  2  0
 29  2  1  0
  9  4  1  0
 20 14  1  0
 29 24  1  0
  1 30  1  0
  1 31  1  0
  1 32  1  0
  5 33  1  0
  6 34  1  0
  7 35  1  0
  8 36  1  0
 15 37  1  0
 16 38  1  0
 19 39  1  0
 20 40  1  0
 25 41  1  0
 26 42  1  0
 27 43  1  0
 28 44  1  0
M  CHG  1  10  -1
M  END
>  <UniqueID>  (79) 
72

>  <SMILES>  (79) 
Cn1c(-c2ccccc2[N-]S(=O)(=O)c2ccc(Br)cc2)c(N=O)c2ccccc21

>  <Energy>  (79) 
94.62878181790913

>  <Genealogy>  (79) 
Cn1c(-c2ccccc2[N-]S(=O)(=O)c2ccc(Br)cc2)c(N=O)c2ccccc21 (protonated)
Cn1c(-c2ccccc2[N-]S(=O)(=O)c2ccc(Br)cc2)c(N=O)c2ccccc21 (3D coordinates assigned)
Cn1c(-c2ccccc2[N-]S(=O)(=O)c2ccc(Br)cc2)c(N=O)c2ccccc21 (optimized conformer: 94.62878181790913 kcal/mol)

>  <smiles>  (79) 
Cn1c(-c2ccccc2NS(=O)(=O)c2ccc(Br)cc2)c(N=O)c2ccccc21

>  <score_type>  (79) 
oracle

>  <origin>  (79) 
adg

>  <m_score__min__energy>  (79) 
-10.279999999999999

>  <m_primary>  (79) 
energy

$$$$
79:0
     RDKit          3D

 46 49  0  0  0  0  0  0  0  0999 V2000
   55.1410   29.9420   43.7750 N   0  0  0  0  0  0  0  0  0  0  0  0
   56.1080   30.0230   44.4060 C   0  0  0  0  0  0  0  0  0  0  0  0
   57.3110   30.1220   45.1910 C   0  0  0  0  0  0  0  0  0  0  0  0
   57.7980   29.0880   45.9930 C   0  0  0  0  0  0  0  0  0  0  0  0
   57.2120   27.7800   46.1010 N   0  0  0  0  0  0  0  0  0  0  0  0
   57.5270   26.6870   45.2240 C   0  0  0  0  0  0  0  0  0  0  0  0
   58.6000   26.6990   44.5600 O   0  0  0  0  0  0  0  0  0  0  0  0
   56.6380   25.5040   45.1390 C   0  0  0  0  0  0  0  0  0  0  0  0
   57.1190   24.3190   44.5530 C   0  0  0  0  0  0  0  0  0  0  0  0
   56.3040   23.1860   44.4680 C   0  0  0  0  0  0  0  0  0  0  0  0
   56.9770   21.5800   43.6850 Br  0  0  0  0  0  0  0  0  0  0  0  0
   54.9970   23.2280   44.9600 C   0  0  0  0  0  0  0  0  0  0  0  0
   54.5000   24.4030   45.5270 C   0  0  0  0  0  0  0  0  0  0  0  0
   55.3080   25.5430   45.6120 C   0  0  0  0  0  0  0  0  0  0  0  0
   54.7680   26.7100   46.1420 O   0  0  0  0  0  0  0  0  0  0  0  0
   59.2120   29.6050   46.7590 S   0  0  0  0  0  0  0  0  0  0  0  0
   59.1880   31.1510   46.1010 C   0  0  0  0  0  0  0  0  0  0  0  0
   58.1050   31.2800   45.2510 C   0  0  0  0  0  0  0  0  0  0  0  0
   57.7960   32.5710   44.5490 C   0  0  0  0  0  0  0  0  0  0  0  0
   58.9030   33.6370   44.7340 C   0  0  0  0  0  0  0  0  0  0  0  0
   59.6100   33.5620   46.0350 N   0  0  0  0  0  0  0  0  0  0  0  0
   58.9640   34.2640   47.1690 C   0  0  0  0  0  0  0  0  0  0  0  0
   59.2610   33.6570   48.5230 C   0  0  0  0  0  0  0  0  0  0  0  0
   60.3300   34.1390   49.2960 C   0  0  0  0  0  0  0  0  0  0  0  0
   60.5930   33.5940   50.5570 C   0  0  0  0  0  0  0  0  0  0  0  0
   59.8010   32.5520   51.0480 C   0  0  0  0  0  0  0  0  0  0  0  0
   58.7570   32.0440   50.2730 C   0  0  0  0  0  0  0  0  0  0  0  0
   57.9950   31.0260   50.7450 F   0  0  0  0  0  0  0  0  0  0  0  0
   58.4960   32.5830   49.0090 C   0  0  0  0  0  0  0  0  0  0  0  0
   60.1840   32.2360   46.3430 C   0  0  0  0  0  0  0  0  0  0  0  0
   56.5500   27.6010   46.8890 H   0  0  0  0  0  0  0  0  0  0  0  0
   58.1451   24.2834   44.1583 H   0  0  0  0  0  0  0  0  0  0  0  0
   54.3587   22.3341   44.9005 H   0  0  0  0  0  0  0  0  0  0  0  0
   53.4688   24.4331   45.9087 H   0  0  0  0  0  0  0  0  0  0  0  0
   57.6810   32.3673   43.4742 H   0  0  0  0  0  0  0  0  0  0  0  0
   56.8725   32.9740   44.9903 H   0  0  0  0  0  0  0  0  0  0  0  0
   59.6438   33.5075   43.9312 H   0  0  0  0  0  0  0  0  0  0  0  0
   58.4052   34.6174   44.7017 H   0  0  0  0  0  0  0  0  0  0  0  0
   59.3140   35.3068   47.1739 H   0  0  0  0  0  0  0  0  0  0  0  0
   57.8779   34.1804   47.0159 H   0  0  0  0  0  0  0  0  0  0  0  0
   60.9640   34.9497   48.9075 H   0  0  0  0  0  0  0  0  0  0  0  0
   61.4235   33.9856   51.1627 H   0  0  0  0  0  0  0  0  0  0  0  0
   60.0005   32.1324   52.0451 H   0  0  0  0  0  0  0  0  0  0  0  0
   57.6875   32.1639   48.3920 H   0  0  0  0  0  0  0  0  0  0  0  0
   61.0623   32.0670   45.7027 H   0  0  0  0  0  0  0  0  0  0  0  0
   60.4708   32.2171   47.4048 H   0  0  0  0  0  0  0  0  0  0  0  0
  1  2  3  0
  2  3  1  0
  3  4  2  0
  4  5  1  0
  5  6  1  0
  6  7  2  0
  6  8  1  0
  8  9  2  0
  9 10  1  0
 10 11  1  0
 10 12  2  0
 12 13  1  0
 13 14  2  0
 14 15  1  0
  4 16  1  0
 16 17  1  0
 17 18  2  0
 18 19  1  0
 19 20  1  0
 20 21  1  0
 21 22  1  0
 22 23  1  0
 23 24  2  0
 24 25  1  0
 25 26  2  0
 26 27  1  0
 27 28  1  0
 27 29  2  0
 21 30  1  0
 18  3  1  0
 29 23  1  0
 14  8  1  0
 30 17  1  0
  5 31  1  0
  9 32  1  0
 12 33  1  0
 13 34  1  0
 19 35  1  0
 19 36  1  0
 20 37  1  0
 20 38  1  0
 22 39  1  0
 22 40  1  0
 24 41  1  0
 25 42  1  0
 26 43  1  0
 29 44  1  0
 30 45  1  0
 30 46  1  0
M  CHG  1  15  -1
M  END
>  <UniqueID>  (80) 
73

>  <SMILES>  (80) 
N#Cc1c(NC(=O)c2cc(Br)ccc2[O-])sc2c1CCN(Cc1cccc(F)c1)C2

>  <Energy>  (80) 
90.71821908828153

>  <Genealogy>  (80) 
N#Cc1c(NC(=O)c2cc(Br)ccc2[O-])sc2c1CCN(Cc1cccc(F)c1)C2 (protonated)
N#Cc1c(NC(=O)c2cc(Br)ccc2[O-])sc2c1CCN(Cc1cccc(F)c1)C2 (3D coordinates assigned)
N#Cc1c(NC(=O)c2cc(Br)ccc2[O-])sc2c1CCN(Cc1cccc(F)c1)C2 (nonaromatic ring conformer: 90.71821908828153 kcal/mol)

>  <smiles>  (80) 
N#Cc1c(NC(=O)c2cc(Br)ccc2O)sc2c1CCN(Cc1cccc(F)c1)C2

>  <score_type>  (80) 
oracle

>  <origin>  (80) 
adg

>  <m_score__min__energy>  (80) 
-13.27

>  <m_primary>  (80) 
energy

$$$$
80:0
     RDKit          3D

 28 29  0  0  0  0  0  0  0  0999 V2000
   59.1840   29.9180   45.2520 O   0  0  0  0  0  0  0  0  0  0  0  0
   57.9310   29.7870   45.2980 C   0  0  0  0  0  0  0  0  0  0  0  0
   57.0580   30.9000   44.8020 C   0  0  0  0  0  0  0  0  0  0  0  0
   57.6880   32.2270   45.1230 C   0  0  0  0  0  0  0  0  0  0  0  0
   58.3590   32.9550   44.1250 C   0  0  0  0  0  0  0  0  0  0  0  0
   58.9740   34.1720   44.4350 C   0  0  0  0  0  0  0  0  0  0  0  0
   58.9320   34.6650   45.7410 C   0  0  0  0  0  0  0  0  0  0  0  0
   58.2760   33.9420   46.7420 C   0  0  0  0  0  0  0  0  0  0  0  0
   57.6600   32.7240   46.4370 C   0  0  0  0  0  0  0  0  0  0  0  0
   57.3380   28.5820   45.8030 N   0  0  0  0  0  0  0  0  0  0  0  0
   58.0830   27.3800   46.0580 C   0  0  0  0  0  0  0  0  0  0  0  0
   59.7620   27.2560   45.9910 S   0  0  0  0  0  0  0  0  0  0  0  0
   59.8340   25.5910   46.2040 C   0  0  0  0  0  0  0  0  0  0  0  0
   58.5380   25.1070   46.3160 C   0  0  0  0  0  0  0  0  0  0  0  0
   57.5450   26.1000   46.2350 C   0  0  0  0  0  0  0  0  0  0  0  0
   56.1070   25.7890   46.3710 C   0  0  0  0  0  0  0  0  0  0  0  0
   55.7450   24.6880   46.8630 O   0  0  0  0  0  0  0  0  0  0  0  0
   55.1380   26.7120   45.9990 O   0  0  0  0  0  0  0  0  0  0  0  0
   56.9346   30.8089   43.7127 H   0  0  0  0  0  0  0  0  0  0  0  0
   56.0763   30.8368   45.2942 H   0  0  0  0  0  0  0  0  0  0  0  0
   58.4004   32.5661   43.0969 H   0  0  0  0  0  0  0  0  0  0  0  0
   59.4915   34.7418   43.6492 H   0  0  0  0  0  0  0  0  0  0  0  0
   59.4155   35.6231   45.9824 H   0  0  0  0  0  0  0  0  0  0  0  0
   58.2444   34.3315   47.7702 H   0  0  0  0  0  0  0  0  0  0  0  0
   57.1520   32.1533   47.2283 H   0  0  0  0  0  0  0  0  0  0  0  0
   56.3030   28.5670   45.9370 H   0  0  0  0  0  0  0  0  0  0  0  0
   60.7523   24.9870   46.2473 H   0  0  0  0  0  0  0  0  0  0  0  0
   58.3076   24.0405   46.4558 H   0  0  0  0  0  0  0  0  0  0  0  0
  1  2  2  0
  2  3  1  0
  3  4  1  0
  4  5  2  0
  5  6  1  0
  6  7  2  0
  7  8  1  0
  8  9  2  0
  2 10  1  0
 10 11  1  0
 11 12  1  0
 12 13  1  0
 13 14  2  0
 14 15  1  0
 15 16  1  0
 16 17  2  0
 16 18  1  0
  9  4  1  0
 15 11  2  0
  3 19  1  0
  3 20  1  0
  5 21  1  0
  6 22  1  0
  7 23  1  0
  8 24  1  0
  9 25  1  0
 10 26  1  0
 13 27  1  0
 14 28  1  0
M  CHG  1  18  -1
M  END
>  <UniqueID>  (81) 
74

>  <SMILES>  (81) 
O=C(Cc1ccccc1)Nc1sccc1C(=O)[O-]

>  <Energy>  (81) 
56.30028900444868

>  <Genealogy>  (81) 
O=C(Cc1ccccc1)Nc1sccc1C(=O)[O-] (protonated)
O=C(Cc1ccccc1)Nc1sccc1C(=O)[O-] (3D coordinates assigned)
O=C(Cc1ccccc1)Nc1sccc1C(=O)[O-] (optimized conformer: 56.30028900444868 kcal/mol)

>  <smiles>  (81) 
O=C(Cc1ccccc1)Nc1sccc1C(=O)O

>  <score_type>  (81) 
oracle

>  <origin>  (81) 
adg

>  <m_score__min__energy>  (81) 
-9.2300000000000004

>  <m_primary>  (81) 
energy

$$$$
81:0
     RDKit          3D

 47 49  0  0  0  0  0  0  0  0999 V2000
   56.2690   29.9690   43.0430 C   0  0  0  0  0  0  0  0  0  0  0  0
   57.0240   29.5820   44.2690 C   0  0  0  0  0  0  0  0  0  0  0  0
   58.1970   30.1710   44.7210 C   0  0  0  0  0  0  0  0  0  0  0  0
   58.7260   29.5440   45.8620 C   0  0  0  0  0  0  0  0  0  0  0  0
   59.9670   29.9770   46.5340 C   0  0  0  0  0  0  0  0  0  0  0  0
   61.0810   29.6340   46.0530 O   0  0  0  0  0  0  0  0  0  0  0  0
   59.9330   30.7920   47.7170 N   0  0  0  0  0  0  0  0  0  0  0  0
   60.9990   30.6280   48.7170 C   0  0  0  0  0  0  0  0  0  0  0  0
   62.0790   31.6570   48.5240 C   0  0  0  0  0  0  0  0  0  0  0  0
   62.4920   32.4600   49.5990 C   0  0  0  0  0  0  0  0  0  0  0  0
   63.5340   33.3700   49.4150 C   0  0  0  0  0  0  0  0  0  0  0  0
   64.1540   33.4720   48.1700 C   0  0  0  0  0  0  0  0  0  0  0  0
   63.7190   32.6610   47.1210 C   0  0  0  0  0  0  0  0  0  0  0  0
   62.7000   31.7780   47.3140 N   0  0  0  0  0  0  0  0  0  0  0  0
   58.9310   31.8640   47.8790 C   0  0  0  0  0  0  0  0  0  0  0  0
   58.9530   32.9350   46.7580 C   0  0  0  0  0  0  0  0  0  0  0  0
   59.9020   34.1190   47.0410 C   0  0  0  0  0  0  0  0  0  0  0  0
   59.6230   35.3290   46.1220 C   0  0  0  0  0  0  0  0  0  0  0  0
   58.9620   34.9320   44.8710 N   0  0  0  0  0  0  0  0  0  0  0  0
   57.6280   34.3420   45.1080 C   0  0  0  0  0  0  0  0  0  0  0  0
   57.5590   33.4580   46.3760 C   0  0  0  0  0  0  0  0  0  0  0  0
   57.9850   28.4390   46.2790 C   0  0  0  0  0  0  0  0  0  0  0  0
   56.6710   28.2610   45.2450 S   0  0  0  0  0  0  0  0  0  0  0  0
   55.3244   30.4532   43.3316 H   0  0  0  0  0  0  0  0  0  0  0  0
   56.8725   30.6689   42.4464 H   0  0  0  0  0  0  0  0  0  0  0  0
   56.0531   29.0704   42.4464 H   0  0  0  0  0  0  0  0  0  0  0  0
   58.6648   31.0401   44.2354 H   0  0  0  0  0  0  0  0  0  0  0  0
   60.5694   30.7412   49.7233 H   0  0  0  0  0  0  0  0  0  0  0  0
   61.4413   29.6278   48.5984 H   0  0  0  0  0  0  0  0  0  0  0  0
   61.9984   32.3726   50.5782 H   0  0  0  0  0  0  0  0  0  0  0  0
   63.8654   34.0051   50.2498 H   0  0  0  0  0  0  0  0  0  0  0  0
   64.9777   34.1846   48.0164 H   0  0  0  0  0  0  0  0  0  0  0  0
   64.2007   32.7351   46.1349 H   0  0  0  0  0  0  0  0  0  0  0  0
   62.4020   31.1770   46.5130 H   0  0  0  0  0  0  0  0  0  0  0  0
   57.9326   31.4025   47.8945 H   0  0  0  0  0  0  0  0  0  0  0  0
   59.1768   32.3849   48.8162 H   0  0  0  0  0  0  0  0  0  0  0  0
   59.3557   32.3873   45.8932 H   0  0  0  0  0  0  0  0  0  0  0  0
   59.7732   34.4328   48.0874 H   0  0  0  0  0  0  0  0  0  0  0  0
   60.9299   33.7794   46.8461 H   0  0  0  0  0  0  0  0  0  0  0  0
   58.9740   36.0382   46.6566 H   0  0  0  0  0  0  0  0  0  0  0  0
   60.5887   35.7883   45.8640 H   0  0  0  0  0  0  0  0  0  0  0  0
   59.5680   34.2400   44.3680 H   0  0  0  0  0  0  0  0  0  0  0  0
   56.8998   35.1596   45.2138 H   0  0  0  0  0  0  0  0  0  0  0  0
   57.4050   33.6923   44.2488 H   0  0  0  0  0  0  0  0  0  0  0  0
   57.1575   34.0540   47.2088 H   0  0  0  0  0  0  0  0  0  0  0  0
   56.9060   32.5974   46.1687 H   0  0  0  0  0  0  0  0  0  0  0  0
   58.2200   27.7935   47.1382 H   0  0  0  0  0  0  0  0  0  0  0  0
  1  2  1  0
  2  3  2  0
  3  4  1  0
  4  5  1  0
  5  6  2  0
  5  7  1  0
  7  8  1  0
  8  9  1  0
  9 10  2  0
 10 11  1  0
 11 12  2  0
 12 13  1  0
 13 14  2  0
  7 15  1  0
 15 16  1  0
 16 17  1  0
 17 18  1  0
 18 19  1  0
 19 20  1  0
 20 21  1  0
  4 22  2  0
 22 23  1  0
 23  2  1  0
 14  9  1  0
 21 16  1  0
  1 24  1  0
  1 25  1  0
  1 26  1  0
  3 27  1  0
  8 28  1  0
  8 29  1  0
 10 30  1  0
 11 31  1  0
 12 32  1  0
 13 33  1  0
 14 34  1  0
 15 35  1  0
 15 36  1  0
 16 37  1  0
 17 38  1  0
 17 39  1  0
 18 40  1  0
 18 41  1  0
 19 42  1  0
 20 43  1  0
 20 44  1  0
 21 45  1  0
 21 46  1  0
 22 47  1  0
M  CHG  1  14   1
M  END
>  <UniqueID>  (82) 
75

>  <SMILES>  (82) 
Cc1cc(C(=O)N(Cc2cccc[nH+]2)CC2CCNCC2)cs1

>  <Energy>  (82) 
78.93152974298755

>  <Genealogy>  (82) 
Cc1cc(C(=O)N(Cc2cccc[nH+]2)CC2CCNCC2)cs1 (protonated)
Cc1cc(C(=O)N(Cc2cccc[nH+]2)CC2CCNCC2)cs1 (3D coordinates assigned)
Cc1cc(C(=O)N(Cc2cccc[nH+]2)CC2CCNCC2)cs1 (nonaromatic ring conformer: 78.93152974298755 kcal/mol)

>  <smiles>  (82) 
Cc1cc(C(=O)N(Cc2ccccn2)CC2CCNCC2)cs1

>  <score_type>  (82) 
oracle

>  <origin>  (82) 
adg

>  <m_score__min__energy>  (82) 
-6.3200000000000003

>  <m_primary>  (82) 
energy

$$$$
82:0
     RDKit          3D

 51 53  0  0  0  0  0  0  0  0999 V2000
   63.6930   31.7300   49.8440 C   0  0  0  0  0  0  0  0  0  0  0  0
   64.3980   33.0970   49.9410 C   0  0  0  0  0  0  0  0  0  0  0  0
   63.8720   33.8980   51.1490 C   0  0  0  0  0  0  0  0  0  0  0  0
   65.9060   32.8650   50.1200 C   0  0  0  0  0  0  0  0  0  0  0  0
   64.2230   33.8380   48.7220 O   0  0  0  0  0  0  0  0  0  0  0  0
   63.2070   33.6500   47.7730 C   0  0  0  0  0  0  0  0  0  0  0  0
   63.4830   33.3180   46.5880 O   0  0  0  0  0  0  0  0  0  0  0  0
   61.8510   33.8850   48.1630 N   0  0  0  0  0  0  0  0  0  0  0  0
   60.7140   33.5840   47.3420 C   0  0  0  0  0  0  0  0  0  0  0  0
   59.6530   34.4280   47.0630 C   0  0  0  0  0  0  0  0  0  0  0  0
   58.8470   33.7660   46.2200 N   0  0  0  0  0  0  0  0  0  0  0  0
   59.4260   32.5810   45.9920 C   0  0  0  0  0  0  0  0  0  0  0  0
   60.5920   32.4260   46.6540 N   0  0  0  0  0  0  0  0  0  0  0  0
   58.8540   31.5960   45.0270 C   0  0  0  0  0  0  0  0  0  0  0  0
   57.4200   31.8540   44.7680 N   0  0  0  0  0  0  0  0  0  0  0  0
   56.6510   30.8260   44.1100 C   0  0  0  0  0  0  0  0  0  0  0  0
   56.5380   30.8280   42.8530 O   0  0  0  0  0  0  0  0  0  0  0  0
   56.0100   29.8000   44.8810 N   0  0  0  0  0  0  0  0  0  0  0  0
   56.5870   28.4800   45.1090 C   0  0  0  0  0  0  0  0  0  0  0  0
   58.0410   28.6110   45.4790 C   0  0  0  0  0  0  0  0  0  0  0  0
   59.0450   28.4340   44.5130 C   0  0  0  0  0  0  0  0  0  0  0  0
   60.3920   28.5800   44.8630 C   0  0  0  0  0  0  0  0  0  0  0  0
   60.7430   28.9060   46.1770 C   0  0  0  0  0  0  0  0  0  0  0  0
   59.7480   29.0940   47.1420 C   0  0  0  0  0  0  0  0  0  0  0  0
   58.4020   28.9580   46.7930 C   0  0  0  0  0  0  0  0  0  0  0  0
   56.7180   33.0600   45.2650 C   0  0  0  0  0  0  0  0  0  0  0  0
   57.6670   34.2400   45.5190 C   0  0  0  0  0  0  0  0  0  0  0  0
   63.4954   31.3468   50.8560 H   0  0  0  0  0  0  0  0  0  0  0  0
   62.7420   31.8454   49.3034 H   0  0  0  0  0  0  0  0  0  0  0  0
   64.3385   31.0221   49.3034 H   0  0  0  0  0  0  0  0  0  0  0  0
   64.1929   33.4093   52.0808 H   0  0  0  0  0  0  0  0  0  0  0  0
   64.2747   34.9210   51.1140 H   0  0  0  0  0  0  0  0  0  0  0  0
   62.7732   33.9351   51.1140 H   0  0  0  0  0  0  0  0  0  0  0  0
   66.1465   32.8280   51.1927 H   0  0  0  0  0  0  0  0  0  0  0  0
   66.1891   31.9127   49.6477 H   0  0  0  0  0  0  0  0  0  0  0  0
   66.4622   33.6881   49.6477 H   0  0  0  0  0  0  0  0  0  0  0  0
   61.6810   34.3760   49.0690 H   0  0  0  0  0  0  0  0  0  0  0  0
   59.5006   35.4440   47.4562 H   0  0  0  0  0  0  0  0  0  0  0  0
   59.4058   31.6649   44.0779 H   0  0  0  0  0  0  0  0  0  0  0  0
   58.9483   30.5916   45.4654 H   0  0  0  0  0  0  0  0  0  0  0  0
   56.0462   27.9823   45.9274 H   0  0  0  0  0  0  0  0  0  0  0  0
   56.5007   27.8840   44.1885 H   0  0  0  0  0  0  0  0  0  0  0  0
   58.7717   28.1799   43.4782 H   0  0  0  0  0  0  0  0  0  0  0  0
   61.1755   28.4382   44.1040 H   0  0  0  0  0  0  0  0  0  0  0  0
   61.8026   29.0147   46.4519 H   0  0  0  0  0  0  0  0  0  0  0  0
   60.0252   29.3489   48.1755 H   0  0  0  0  0  0  0  0  0  0  0  0
   57.6209   29.1232   47.5497 H   0  0  0  0  0  0  0  0  0  0  0  0
   55.9710   33.3647   44.5173 H   0  0  0  0  0  0  0  0  0  0  0  0
   56.2511   32.7983   46.2260 H   0  0  0  0  0  0  0  0  0  0  0  0
   57.9647   34.6852   44.5582 H   0  0  0  0  0  0  0  0  0  0  0  0
   57.1558   34.9984   46.1301 H   0  0  0  0  0  0  0  0  0  0  0  0
  1  2  1  0
  2  3  1  0
  2  4  1  0
  2  5  1  0
  5  6  1  0
  6  7  2  0
  6  8  1  0
  8  9  1  0
  9 10  2  0
 10 11  1  0
 11 12  1  0
 12 13  2  0
 12 14  1  0
 14 15  1  0
 15 16  1  0
 16 17  2  0
 16 18  1  0
 18 19  1  0
 19 20  1  0
 20 21  2  0
 21 22  1  0
 22 23  2  0
 23 24  1  0
 24 25  2  0
 15 26  1  0
 26 27  1  0
 13  9  1  0
 25 20  1  0
 27 11  1  0
  1 28  1  0
  1 29  1  0
  1 30  1  0
  3 31  1  0
  3 32  1  0
  3 33  1  0
  4 34  1  0
  4 35  1  0
  4 36  1  0
  8 37  1  0
 10 38  1  0
 14 39  1  0
 14 40  1  0
 19 41  1  0
 19 42  1  0
 21 43  1  0
 22 44  1  0
 23 45  1  0
 24 46  1  0
 25 47  1  0
 26 48  1  0
 26 49  1  0
 27 50  1  0
 27 51  1  0
M  CHG  1  18  -1
M  END
>  <UniqueID>  (83) 
76

>  <SMILES>  (83) 
CC(C)(C)OC(=O)Nc1cn2c(n1)CN(C(=O)[N-]Cc1ccccc1)CC2

>  <Energy>  (83) 
78.84248338932736

>  <Genealogy>  (83) 
CC(C)(C)OC(=O)Nc1cn2c(n1)CN(C(=O)[N-]Cc1ccccc1)CC2 (protonated)
CC(C)(C)OC(=O)Nc1cn2c(n1)CN(C(=O)[N-]Cc1ccccc1)CC2 (3D coordinates assigned)
CC(C)(C)OC(=O)Nc1cn2c(n1)CN(C(=O)[N-]Cc1ccccc1)CC2 (nonaromatic ring conformer: 78.84248338932736 kcal/mol)

>  <smiles>  (83) 
CC(C)(C)OC(=O)Nc1cn2c(n1)CN(C(=O)NCc1ccccc1)CC2

>  <score_type>  (83) 
oracle

>  <origin>  (83) 
adg

>  <m_score__min__energy>  (83) 
-8.5299999999999994

>  <m_primary>  (83) 
energy

$$$$
83:0
     RDKit          3D

 44 46  0  0  0  0  0  0  0  0999 V2000
   59.2830   33.4440   48.9140 C   0  0  0  0  0  0  0  0  0  0  0  0
   59.0060   33.7510   47.4710 C   0  0  0  0  0  0  0  0  0  0  0  0
   59.5510   34.9000   46.8790 C   0  0  0  0  0  0  0  0  0  0  0  0
   59.3430   35.1560   45.5210 C   0  0  0  0  0  0  0  0  0  0  0  0
   58.5940   34.2670   44.7480 C   0  0  0  0  0  0  0  0  0  0  0  0
   58.0350   33.1200   45.3240 C   0  0  0  0  0  0  0  0  0  0  0  0
   57.2970   32.2190   44.4850 N   0  0  0  0  0  0  0  0  0  0  0  0
   57.0280   30.8360   44.7470 C   0  0  0  0  0  0  0  0  0  0  0  0
   55.8420   30.4160   44.8080 O   0  0  0  0  0  0  0  0  0  0  0  0
   58.1300   29.9360   44.9290 N   0  0  0  0  0  0  0  0  0  0  0  0
   58.0020   28.5060   45.0060 C   0  0  0  0  0  0  0  0  0  0  0  0
   58.0740   27.8760   46.2580 C   0  0  0  0  0  0  0  0  0  0  0  0
   57.9700   26.4860   46.3590 C   0  0  0  0  0  0  0  0  0  0  0  0
   57.8000   25.7050   45.2070 C   0  0  0  0  0  0  0  0  0  0  0  0
   57.6980   24.2350   45.3090 C   0  0  0  0  0  0  0  0  0  0  0  0
   58.8710   23.4740   45.1820 C   0  0  0  0  0  0  0  0  0  0  0  0
   58.8310   22.0830   45.2990 C   0  0  0  0  0  0  0  0  0  0  0  0
   57.6190   21.4390   45.5440 C   0  0  0  0  0  0  0  0  0  0  0  0
   56.4420   22.1800   45.6610 C   0  0  0  0  0  0  0  0  0  0  0  0
   56.4630   23.5790   45.5350 C   0  0  0  0  0  0  0  0  0  0  0  0
   54.9300   24.4620   45.6340 S   0  0  0  0  0  0  0  0  0  0  0  0
   55.2380   26.1220   46.0000 N   0  0  0  0  0  0  0  0  0  0  0  0
   54.1870   24.3580   44.3300 O   0  0  0  0  0  0  0  0  0  0  0  0
   54.0690   23.8720   46.7160 O   0  0  0  0  0  0  0  0  0  0  0  0
   57.7690   26.3260   43.9510 C   0  0  0  0  0  0  0  0  0  0  0  0
   57.8720   27.7160   43.8490 C   0  0  0  0  0  0  0  0  0  0  0  0
   58.2680   32.8510   46.6860 C   0  0  0  0  0  0  0  0  0  0  0  0
   58.6828   34.1092   49.5522 H   0  0  0  0  0  0  0  0  0  0  0  0
   59.0178   32.3972   49.1236 H   0  0  0  0  0  0  0  0  0  0  0  0
   60.3514   33.6006   49.1236 H   0  0  0  0  0  0  0  0  0  0  0  0
   60.1435   35.6012   47.4851 H   0  0  0  0  0  0  0  0  0  0  0  0
   59.7700   36.0592   45.0606 H   0  0  0  0  0  0  0  0  0  0  0  0
   58.4418   34.4694   43.6775 H   0  0  0  0  0  0  0  0  0  0  0  0
   59.0690   30.3570   45.1100 H   0  0  0  0  0  0  0  0  0  0  0  0
   58.2133   28.4806   47.1663 H   0  0  0  0  0  0  0  0  0  0  0  0
   58.0217   26.0029   47.3459 H   0  0  0  0  0  0  0  0  0  0  0  0
   59.8296   23.9777   44.9887 H   0  0  0  0  0  0  0  0  0  0  0  0
   59.7555   21.4956   45.1979 H   0  0  0  0  0  0  0  0  0  0  0  0
   57.5903   20.3441   45.6454 H   0  0  0  0  0  0  0  0  0  0  0  0
   55.4897   21.6641   45.8535 H   0  0  0  0  0  0  0  0  0  0  0  0
   54.7840   26.6900   45.2500 H   0  0  0  0  0  0  0  0  0  0  0  0
   57.6631   25.7166   43.0414 H   0  0  0  0  0  0  0  0  0  0  0  0
   57.8513   28.1950   42.8590 H   0  0  0  0  0  0  0  0  0  0  0  0
   57.8696   31.9305   47.1377 H   0  0  0  0  0  0  0  0  0  0  0  0
  1  2  1  0
  2  3  2  0
  3  4  1  0
  4  5  2  0
  5  6  1  0
  6  7  1  0
  7  8  1  0
  8  9  2  0
  8 10  1  0
 10 11  1  0
 11 12  2  0
 12 13  1  0
 13 14  2  0
 14 15  1  0
 15 16  2  0
 16 17  1  0
 17 18  2  0
 18 19  1  0
 19 20  2  0
 20 21  1  0
 21 22  1  0
 21 23  2  0
 21 24  2  0
 14 25  1  0
 25 26  2  0
  6 27  2  0
 27  2  1  0
 26 11  1  0
 20 15  1  0
  1 28  1  0
  1 29  1  0
  1 30  1  0
  3 31  1  0
  4 32  1  0
  5 33  1  0
 10 34  1  0
 12 35  1  0
 13 36  1  0
 16 37  1  0
 17 38  1  0
 18 39  1  0
 19 40  1  0
 22 41  1  0
 25 42  1  0
 26 43  1  0
 27 44  1  0
M  CHG  2   7  -1  22  -1
M  END
>  <UniqueID>  (84) 
77

>  <SMILES>  (84) 
Cc1cccc([N-]C(=O)Nc2ccc(-c3ccccc3S([NH-])(=O)=O)cc2)c1

>  <Energy>  (84) 
60.848823478650516

>  <Genealogy>  (84) 
Cc1cccc([N-]C(=O)Nc2ccc(-c3ccccc3S([NH-])(=O)=O)cc2)c1 (protonated)
Cc1cccc([N-]C(=O)Nc2ccc(-c3ccccc3S([NH-])(=O)=O)cc2)c1 (3D coordinates assigned)
Cc1cccc([N-]C(=O)Nc2ccc(-c3ccccc3S([NH-])(=O)=O)cc2)c1 (optimized conformer: 60.848823478650516 kcal/mol)

>  <smiles>  (84) 
Cc1cccc(NC(=O)Nc2ccc(-c3ccccc3S(N)(=O)=O)cc2)c1

>  <score_type>  (84) 
oracle

>  <origin>  (84) 
adg

>  <m_score__min__energy>  (84) 
-13.289999999999999

>  <m_primary>  (84) 
energy

$$$$
84:0
     RDKit          3D

 32 34  0  0  0  0  0  0  0  0999 V2000
   53.6560   24.7740   45.6120 C   0  0  0  0  0  0  0  0  0  0  0  0
   54.5030   25.8580   45.9760 O   0  0  0  0  0  0  0  0  0  0  0  0
   55.9040   25.8340   45.9300 C   0  0  0  0  0  0  0  0  0  0  0  0
   56.6200   24.6510   46.2110 C   0  0  0  0  0  0  0  0  0  0  0  0
   58.0160   24.6480   46.2170 C   0  0  0  0  0  0  0  0  0  0  0  0
   58.7170   25.8220   45.9470 C   0  0  0  0  0  0  0  0  0  0  0  0
   58.0240   26.9970   45.6560 C   0  0  0  0  0  0  0  0  0  0  0  0
   56.6240   27.0160   45.6220 C   0  0  0  0  0  0  0  0  0  0  0  0
   55.9900   28.2590   45.2770 N   0  0  0  0  0  0  0  0  0  0  0  0
   56.6320   29.5250   44.2770 S   0  0  0  0  0  0  0  0  0  0  0  0
   57.1710   28.9200   43.0110 O   0  0  0  0  0  0  0  0  0  0  0  0
   55.5250   30.4790   43.9300 O   0  0  0  0  0  0  0  0  0  0  0  0
   57.8820   30.4200   45.1500 C   0  0  0  0  0  0  0  0  0  0  0  0
   59.0320   29.7440   45.5980 C   0  0  0  0  0  0  0  0  0  0  0  0
   60.0580   30.4320   46.2650 C   0  0  0  0  0  0  0  0  0  0  0  0
   59.9570   31.8070   46.5060 C   0  0  0  0  0  0  0  0  0  0  0  0
   58.8170   32.4870   46.0790 C   0  0  0  0  0  0  0  0  0  0  0  0
   58.6240   33.8130   46.2670 N   0  0  0  0  0  0  0  0  0  0  0  0
   57.1450   34.0430   45.5760 S   0  0  0  0  0  0  0  0  0  0  0  0
   56.6960   32.5470   45.0280 N   0  0  0  0  0  0  0  0  0  0  0  0
   57.7690   31.7970   45.4020 C   0  0  0  0  0  0  0  0  0  0  0  0
   53.2744   24.2857   46.5208 H   0  0  0  0  0  0  0  0  0  0  0  0
   52.8117   25.1522   45.0169 H   0  0  0  0  0  0  0  0  0  0  0  0
   54.2271   24.0462   45.0169 H   0  0  0  0  0  0  0  0  0  0  0  0
   56.0726   23.7217   46.4275 H   0  0  0  0  0  0  0  0  0  0  0  0
   58.5629   23.7188   46.4349 H   0  0  0  0  0  0  0  0  0  0  0  0
   59.8169   25.8219   45.9634 H   0  0  0  0  0  0  0  0  0  0  0  0
   58.5845   27.9209   45.4505 H   0  0  0  0  0  0  0  0  0  0  0  0
   59.1283   28.6622   45.4233 H   0  0  0  0  0  0  0  0  0  0  0  0
   60.9507   29.8846   46.6018 H   0  0  0  0  0  0  0  0  0  0  0  0
   60.7652   32.3434   47.0247 H   0  0  0  0  0  0  0  0  0  0  0  0
   59.2490   34.5080   46.7310 H   0  0  0  0  0  0  0  0  0  0  0  0
  1  2  1  0
  2  3  1  0
  3  4  2  0
  4  5  1  0
  5  6  2  0
  6  7  1  0
  7  8  2  0
  8  9  1  0
  9 10  1  0
 10 11  2  0
 10 12  2  0
 10 13  1  0
 13 14  2  0
 14 15  1  0
 15 16  2  0
 16 17  1  0
 17 18  2  0
 18 19  1  0
 19 20  1  0
 20 21  2  0
  8  3  1  0
 21 13  1  0
 21 17  1  0
  1 22  1  0
  1 23  1  0
  1 24  1  0
  4 25  1  0
  5 26  1  0
  6 27  1  0
  7 28  1  0
 14 29  1  0
 15 30  1  0
 16 31  1  0
 18 32  1  0
M  CHG  2   9  -1  18   1
M  END
>  <UniqueID>  (85) 
78

>  <SMILES>  (85) 
COc1ccccc1[N-]S(=O)(=O)c1cccc2[nH+]snc12

>  <Energy>  (85) 
80.08636447646475

>  <Genealogy>  (85) 
COc1ccccc1[N-]S(=O)(=O)c1cccc2[nH+]snc12 (protonated)
COc1ccccc1[N-]S(=O)(=O)c1cccc2[nH+]snc12 (3D coordinates assigned)
COc1ccccc1[N-]S(=O)(=O)c1cccc2[nH+]snc12 (optimized conformer: 80.08636447646475 kcal/mol)

>  <smiles>  (85) 
COc1ccccc1NS(=O)(=O)c1cccc2nsnc12

>  <score_type>  (85) 
oracle

>  <origin>  (85) 
adg

>  <m_score__min__energy>  (85) 
-8.4299999999999997

>  <m_primary>  (85) 
energy

$$$$
85:0
     RDKit          3D

 37 39  0  0  0  0  0  0  0  0999 V2000
   56.3220   31.6120   51.5380 N   0  0  0  0  0  0  0  0  0  0  0  0
   57.1860   30.4820   51.6460 C   0  0  0  0  0  0  0  0  0  0  0  0
   56.7550   29.4120   52.1500 O   0  0  0  0  0  0  0  0  0  0  0  0
   58.6180   30.5750   51.2110 C   0  0  0  0  0  0  0  0  0  0  0  0
   58.7940   31.7030   50.3010 N   0  0  0  0  0  0  0  0  0  0  0  0
   58.8770   33.0680   50.6660 C   0  0  0  0  0  0  0  0  0  0  0  0
   58.4770   33.5180   51.7720 O   0  0  0  0  0  0  0  0  0  0  0  0
   59.4730   33.8890   49.6690 N   0  0  0  0  0  0  0  0  0  0  0  0
   59.8520   33.0240   48.5460 C   0  0  0  0  0  0  0  0  0  0  0  0
   61.3670   33.0110   48.3370 C   0  0  0  0  0  0  0  0  0  0  0  0
   62.1850   33.8860   49.0820 C   0  0  0  0  0  0  0  0  0  0  0  0
   63.5680   33.9180   48.8780 C   0  0  0  0  0  0  0  0  0  0  0  0
   64.1530   33.0930   47.9160 C   0  0  0  0  0  0  0  0  0  0  0  0
   63.3560   32.2400   47.1510 C   0  0  0  0  0  0  0  0  0  0  0  0
   61.9720   32.2030   47.3510 C   0  0  0  0  0  0  0  0  0  0  0  0
   59.1110   33.5160   47.3020 C   0  0  0  0  0  0  0  0  0  0  0  0
   59.7050   34.3730   46.3480 C   0  0  0  0  0  0  0  0  0  0  0  0
   58.9940   34.7740   45.2130 C   0  0  0  0  0  0  0  0  0  0  0  0
   57.6910   34.3190   45.0020 C   0  0  0  0  0  0  0  0  0  0  0  0
   57.0980   33.4540   45.9230 C   0  0  0  0  0  0  0  0  0  0  0  0
   57.8030   33.0490   47.0600 C   0  0  0  0  0  0  0  0  0  0  0  0
   59.4200   31.6570   49.0260 C   0  0  0  0  0  0  0  0  0  0  0  0
   59.6260   30.5810   48.4000 O   0  0  0  0  0  0  0  0  0  0  0  0
   56.6670   32.5120   51.1360 H   0  0  0  0  0  0  0  0  0  0  0  0
   55.3310   31.5520   51.8630 H   0  0  0  0  0  0  0  0  0  0  0  0
   59.2580   30.7169   52.0943 H   0  0  0  0  0  0  0  0  0  0  0  0
   58.8973   29.6465   50.6915 H   0  0  0  0  0  0  0  0  0  0  0  0
   61.7301   34.5503   49.8315 H   0  0  0  0  0  0  0  0  0  0  0  0
   64.1959   34.5944   49.4766 H   0  0  0  0  0  0  0  0  0  0  0  0
   65.2418   33.1151   47.7608 H   0  0  0  0  0  0  0  0  0  0  0  0
   63.8175   31.5950   46.3887 H   0  0  0  0  0  0  0  0  0  0  0  0
   61.3497   31.5380   46.7341 H   0  0  0  0  0  0  0  0  0  0  0  0
   60.7352   34.7274   46.4998 H   0  0  0  0  0  0  0  0  0  0  0  0
   59.4630   35.4506   44.4834 H   0  0  0  0  0  0  0  0  0  0  0  0
   57.1325   34.6418   44.1110 H   0  0  0  0  0  0  0  0  0  0  0  0
   56.0738   33.0903   45.7537 H   0  0  0  0  0  0  0  0  0  0  0  0
   57.3317   32.3578   47.7743 H   0  0  0  0  0  0  0  0  0  0  0  0
  1  2  1  0
  2  3  2  0
  2  4  1  0
  4  5  1  0
  5  6  1  0
  6  7  2  0
  6  8  1  0
  8  9  1  0
  9 10  1  0
 10 11  2  0
 11 12  1  0
 12 13  2  0
 13 14  1  0
 14 15  2  0
  9 16  1  0
 16 17  2  0
 17 18  1  0
 18 19  2  0
 19 20  1  0
 20 21  2  0
  9 22  1  0
 22 23  2  0
 22  5  1  0
 15 10  1  0
 21 16  1  0
  1 24  1  0
  1 25  1  0
  4 26  1  0
  4 27  1  0
 11 28  1  0
 12 29  1  0
 13 30  1  0
 14 31  1  0
 15 32  1  0
 17 33  1  0
 18 34  1  0
 19 35  1  0
 20 36  1  0
 21 37  1  0
M  CHG  1   8  -1
M  END
>  <UniqueID>  (86) 
79

>  <SMILES>  (86) 
NC(=O)CN1C(=O)[N-]C(c2ccccc2)(c2ccccc2)C1=O

>  <Energy>  (86) 
61.51466856629236

>  <Genealogy>  (86) 
NC(=O)CN1C(=O)[N-]C(c2ccccc2)(c2ccccc2)C1=O (protonated)
NC(=O)CN1C(=O)[N-]C(c2ccccc2)(c2ccccc2)C1=O (3D coordinates assigned)
NC(=O)CN1C(=O)[N-]C(c2ccccc2)(c2ccccc2)C1=O (nonaromatic ring conformer: 61.51466856629236 kcal/mol)

>  <smiles>  (86) 
NC(=O)CN1C(=O)NC(c2ccccc2)(c2ccccc2)C1=O

>  <score_type>  (86) 
oracle

>  <origin>  (86) 
adg

>  <m_score__min__energy>  (86) 
-9.0999999999999996

>  <m_primary>  (86) 
energy

$$$$
86:0
     RDKit          3D

 70 74  0  0  0  0  0  0  0  0999 V2000
   57.9022   31.0991   48.9063 H   0  0  0  0  0  0  0  0  0  0  0  0
   58.5030   30.4870   49.5950 C   0  0  0  0  0  0  0  0  0  0  0  0
   58.1330   30.5000   51.0320 C   0  0  0  0  0  0  0  0  0  0  0  0
   57.9480   29.4080   51.6420 O   0  0  0  0  0  0  0  0  0  0  0  0
   58.1060   31.7540   51.7630 N   0  0  1  0  0  0  0  0  0  0  0  0
   57.6050   32.4510   51.1620 H   0  0  0  0  0  0  0  0  0  0  0  0
   57.3300   31.6540   53.0260 C   0  0  0  0  0  0  0  0  0  0  0  0
   57.9654   31.1955   53.7980 H   0  0  0  0  0  0  0  0  0  0  0  0
   57.0211   32.6689   53.3168 H   0  0  0  0  0  0  0  0  0  0  0  0
   56.0790   30.8130   52.8580 C   0  0  0  0  0  0  0  0  0  0  0  0
   55.9170   29.6270   53.5970 C   0  0  0  0  0  0  0  0  0  0  0  0
   56.7102   29.3003   54.2855 H   0  0  0  0  0  0  0  0  0  0  0  0
   54.7550   28.8600   53.4630 C   0  0  0  0  0  0  0  0  0  0  0  0
   54.6333   27.9387   54.0516 H   0  0  0  0  0  0  0  0  0  0  0  0
   53.7480   29.2640   52.5810 C   0  0  0  0  0  0  0  0  0  0  0  0
   52.8371   28.6575   52.4697 H   0  0  0  0  0  0  0  0  0  0  0  0
   53.9010   30.4400   51.8410 C   0  0  0  0  0  0  0  0  0  0  0  0
   53.1079   30.7576   51.1481 H   0  0  0  0  0  0  0  0  0  0  0  0
   55.0560   31.2140   51.9770 C   0  0  0  0  0  0  0  0  0  0  0  0
   55.1669   32.1401   51.3938 H   0  0  0  0  0  0  0  0  0  0  0  0
   59.4650   32.3220   51.9920 C   0  0  0  0  0  0  0  0  0  0  0  0
   59.5114   32.6726   53.0336 H   0  0  0  0  0  0  0  0  0  0  0  0
   60.1680   31.5092   51.7570 H   0  0  0  0  0  0  0  0  0  0  0  0
   59.8730   33.5000   51.0790 C   0  0  0  0  0  0  0  0  0  0  0  0
   59.5881   34.4416   51.5712 H   0  0  0  0  0  0  0  0  0  0  0  0
   60.9596   33.4359   50.9203 H   0  0  0  0  0  0  0  0  0  0  0  0
   59.2310   33.4460   49.7650 N   0  0  0  0  0  0  0  0  0  0  0  0
   59.8070   33.4160   48.5940 C   0  0  0  0  0  0  0  0  0  0  0  0
   61.2770   33.1730   48.5280 C   0  0  0  0  0  0  0  0  0  0  0  0
   61.8030   32.0820   47.8100 C   0  0  0  0  0  0  0  0  0  0  0  0
   61.1246   31.4068   47.2680 H   0  0  0  0  0  0  0  0  0  0  0  0
   63.1870   31.8500   47.7810 C   0  0  0  0  0  0  0  0  0  0  0  0
   63.5877   30.9980   47.2122 H   0  0  0  0  0  0  0  0  0  0  0  0
   64.0570   32.6960   48.4710 C   0  0  0  0  0  0  0  0  0  0  0  0
   65.1408   32.5090   48.4486 H   0  0  0  0  0  0  0  0  0  0  0  0
   63.5480   33.7820   49.1910 C   0  0  0  0  0  0  0  0  0  0  0  0
   64.2321   34.4465   49.7392 H   0  0  0  0  0  0  0  0  0  0  0  0
   62.1720   34.0240   49.2150 C   0  0  0  0  0  0  0  0  0  0  0  0
   61.7811   34.8864   49.7748 H   0  0  0  0  0  0  0  0  0  0  0  0
   59.0510   33.6970   47.3490 C   0  0  0  0  0  0  0  0  0  0  0  0
   57.7490   33.1940   47.1680 C   0  0  0  0  0  0  0  0  0  0  0  0
   57.2557   32.6384   47.9791 H   0  0  0  0  0  0  0  0  0  0  0  0
   57.0810   33.4020   45.9520 C   0  0  0  0  0  0  0  0  0  0  0  0
   56.0613   33.0140   45.8117 H   0  0  0  0  0  0  0  0  0  0  0  0
   57.7130   34.1050   44.9140 C   0  0  0  0  0  0  0  0  0  0  0  0
   57.1905   34.2597   43.9585 H   0  0  0  0  0  0  0  0  0  0  0  0
   59.0050   34.6090   45.0920 C   0  0  0  0  0  0  0  0  0  0  0  0
   59.4957   35.1663   44.2805 H   0  0  0  0  0  0  0  0  0  0  0  0
   59.6730   34.4030   46.3050 C   0  0  0  0  0  0  0  0  0  0  0  0
   60.6912   34.7962   46.4418 H   0  0  0  0  0  0  0  0  0  0  0  0
   59.5260   29.7760   49.0740 C   0  0  0  0  0  0  0  0  0  0  0  0
   60.6180   29.2660   49.9310 C   0  0  0  0  0  0  0  0  0  0  0  0
   60.7980   27.6680   50.4250 S   0  0  0  0  0  0  0  0  0  0  0  0
   62.2120   27.9120   51.3030 C   0  0  0  0  0  0  0  0  0  0  0  0
   62.7695   27.1390   51.8522 H   0  0  0  0  0  0  0  0  0  0  0  0
   62.5560   29.2540   51.2170 C   0  0  0  0  0  0  0  0  0  0  0  0
   63.4477   29.6780   51.7018 H   0  0  0  0  0  0  0  0  0  0  0  0
   61.6640   30.0170   50.4570 C   0  0  0  0  0  0  0  0  0  0  0  0
   61.7777   31.0986   50.2923 H   0  0  0  0  0  0  0  0  0  0  0  0
   59.5740   29.4770   47.6140 C   0  0  0  0  0  0  0  0  0  0  0  0
   60.6470   28.7390   47.0800 C   0  0  0  0  0  0  0  0  0  0  0  0
   61.4148   28.3269   47.7513 H   0  0  0  0  0  0  0  0  0  0  0  0
   60.7430   28.5260   45.6980 C   0  0  0  0  0  0  0  0  0  0  0  0
   61.5896   27.9543   45.2900 H   0  0  0  0  0  0  0  0  0  0  0  0
   59.7690   29.0360   44.8360 C   0  0  0  0  0  0  0  0  0  0  0  0
   59.8537   28.8717   43.7516 H   0  0  0  0  0  0  0  0  0  0  0  0
   58.6840   29.7570   45.3530 C   0  0  0  0  0  0  0  0  0  0  0  0
   57.4610   30.4060   44.2680 Cl  0  0  0  0  0  0  0  0  0  0  0  0
   58.5950   29.9870   46.7350 C   0  0  0  0  0  0  0  0  0  0  0  0
   57.7536   30.5707   47.1367 H   0  0  0  0  0  0  0  0  0  0  0  0
  1  2  1  0
  2  3  1  0
  3  4  2  0
  3  5  1  0
  5  6  1  6
  5  7  1  0
  7  8  1  0
  7  9  1  0
  7 10  1  0
 10 11  2  0
 11 12  1  0
 11 13  1  0
 13 14  1  0
 13 15  2  0
 15 16  1  0
 15 17  1  0
 17 18  1  0
 17 19  2  0
 19 20  1  0
  5 21  1  0
 21 22  1  0
 21 23  1  0
 21 24  1  0
 24 25  1  0
 24 26  1  0
 24 27  1  0
 27 28  2  3
 28 29  1  0
 29 30  2  0
 30 31  1  0
 30 32  1  0
 32 33  1  0
 32 34  2  0
 34 35  1  0
 34 36  1  0
 36 37  1  0
 36 38  2  0
 38 39  1  0
 28 40  1  0
 40 41  2  0
 41 42  1  0
 41 43  1  0
 43 44  1  0
 43 45  2  0
 45 46  1  0
 45 47  1  0
 47 48  1  0
 47 49  2  0
 49 50  1  0
  2 51  2  0
 51 52  1  0
 52 53  1  0
 53 54  1  0
 54 55  1  0
 54 56  2  0
 56 57  1  0
 56 58  1  0
 58 59  1  0
 51 60  1  0
 60 61  2  0
 61 62  1  0
 61 63  1  0
 63 64  1  0
 63 65  2  0
 65 66  1  0
 65 67  1  0
 67 68  1  0
 67 69  2  0
 69 70  1  0
 19 10  1  0
 38 29  1  0
 49 40  1  0
 58 52  2  0
 69 60  1  0
M  CHG  1   5   1
M  END
>  <UniqueID>  (87) 
80

>  <SMILES>  (87) 
O=C(/C=C(/c1cccc(Cl)c1)c1cccs1)[N@H+](CCN=C(c1ccccc1)c1ccccc1)Cc1ccccc1

>  <Energy>  (87) 
128.45847716729693

>  <Genealogy>  (87) 
O=C(C=C(c1cccc(Cl)c1)c1cccs1)[NH+](CCN=C(c1ccccc1)c1ccccc1)Cc1ccccc1 (protonated)
O=C(C=C(c1cccc(Cl)c1)c1cccs1)[N@H+](CCN=C(c1ccccc1)c1ccccc1)Cc1ccccc1 (chirality)
O=C(/C=C(/c1cccc(Cl)c1)c1cccs1)[N@H+](CCN=C(c1ccccc1)c1ccccc1)Cc1ccccc1 (cis-trans isomerization)
O=C(/C=C(/c1cccc(Cl)c1)c1cccs1)[N@H+](CCN=C(c1ccccc1)c1ccccc1)Cc1ccccc1 (3D coordinates assigned)
O=C(/C=C(/c1cccc(Cl)c1)c1cccs1)[N@H+](CCN=C(c1ccccc1)c1ccccc1)Cc1ccccc1 (optimized conformer: 128.45847716729693 kcal/mol)

>  <smiles>  (87) 
O=C(C=C(c1cccc(Cl)c1)c1cccs1)N(CCN=C(c1ccccc1)c1ccccc1)Cc1ccccc1

>  <score_type>  (87) 
oracle

>  <origin>  (87) 
adg

>  <m_score__min__energy>  (87) 
-9.0600000000000005

>  <m_primary>  (87) 
energy

$$$$
87:0
     RDKit          3D

 47 50  0  0  0  0  0  0  0  0999 V2000
   55.1440   29.7120   44.7840 O   0  0  0  0  0  0  0  0  0  0  0  0
   56.5480   30.0820   44.3920 S   0  0  0  0  0  0  0  0  0  0  0  0
   56.5980   30.2380   42.8990 O   0  0  0  0  0  0  0  0  0  0  0  0
   56.9760   31.5910   45.1380 N   0  0  0  0  0  0  0  0  0  0  0  0
   58.1610   31.8210   45.9120 C   0  0  0  0  0  0  0  0  0  0  0  0
   58.5500   30.9670   46.9600 C   0  0  0  0  0  0  0  0  0  0  0  0
   59.7040   31.2370   47.6980 C   0  0  0  0  0  0  0  0  0  0  0  0
   60.4990   32.3600   47.4050 C   0  0  0  0  0  0  0  0  0  0  0  0
   61.7050   32.6460   48.2230 C   0  0  0  0  0  0  0  0  0  0  0  0
   61.6180   33.1210   49.5400 C   0  0  0  0  0  0  0  0  0  0  0  0
   62.7840   33.3710   50.2550 C   0  0  0  0  0  0  0  0  0  0  0  0
   64.0310   33.1410   49.6560 C   0  0  0  0  0  0  0  0  0  0  0  0
   65.2590   33.3680   50.3840 N   0  0  0  0  0  0  0  0  0  0  0  0
   66.5220   32.7210   50.0630 C   0  0  0  0  0  0  0  0  0  0  0  0
   67.4700   33.0720   51.1990 C   0  0  0  0  0  0  0  0  0  0  0  0
   66.8490   34.2770   51.8950 C   0  0  0  0  0  0  0  0  0  0  0  0
   65.3680   34.2390   51.5440 C   0  0  0  0  0  0  0  0  0  0  0  0
   64.0590   32.6920   48.3650 N   0  0  0  0  0  0  0  0  0  0  0  0
   62.9380   32.4580   47.6810 N   0  0  0  0  0  0  0  0  0  0  0  0
   60.1040   33.2100   46.3530 C   0  0  0  0  0  0  0  0  0  0  0  0
   58.9480   32.9390   45.6160 C   0  0  0  0  0  0  0  0  0  0  0  0
   57.6920   28.8320   44.8670 C   0  0  0  0  0  0  0  0  0  0  0  0
   57.2560   27.7580   45.6530 C   0  0  0  0  0  0  0  0  0  0  0  0
   58.1610   26.7770   46.0680 C   0  0  0  0  0  0  0  0  0  0  0  0
   59.5050   26.8650   45.6980 C   0  0  0  0  0  0  0  0  0  0  0  0
   60.3870   25.9280   46.1170 F   0  0  0  0  0  0  0  0  0  0  0  0
   59.9440   27.9310   44.9080 C   0  0  0  0  0  0  0  0  0  0  0  0
   59.0410   28.9150   44.4950 C   0  0  0  0  0  0  0  0  0  0  0  0
   57.9419   30.0821   47.1992 H   0  0  0  0  0  0  0  0  0  0  0  0
   59.9949   30.5639   48.5180 H   0  0  0  0  0  0  0  0  0  0  0  0
   60.6355   33.2943   50.0033 H   0  0  0  0  0  0  0  0  0  0  0  0
   62.7285   33.7479   51.2869 H   0  0  0  0  0  0  0  0  0  0  0  0
   66.3883   31.6310   49.9991 H   0  0  0  0  0  0  0  0  0  0  0  0
   66.9131   33.0578   49.0916 H   0  0  0  0  0  0  0  0  0  0  0  0
   67.5591   32.2282   51.8991 H   0  0  0  0  0  0  0  0  0  0  0  0
   68.4825   33.2928   50.8301 H   0  0  0  0  0  0  0  0  0  0  0  0
   66.9869   34.2039   52.9839 H   0  0  0  0  0  0  0  0  0  0  0  0
   67.3182   35.2181   51.5722 H   0  0  0  0  0  0  0  0  0  0  0  0
   64.7853   33.8331   52.3841 H   0  0  0  0  0  0  0  0  0  0  0  0
   64.9753   35.2448   51.3340 H   0  0  0  0  0  0  0  0  0  0  0  0
   64.9670   32.5220   47.8810 H   0  0  0  0  0  0  0  0  0  0  0  0
   60.7108   34.0946   46.1097 H   0  0  0  0  0  0  0  0  0  0  0  0
   58.6543   33.6107   44.7959 H   0  0  0  0  0  0  0  0  0  0  0  0
   56.1978   27.6862   45.9447 H   0  0  0  0  0  0  0  0  0  0  0  0
   57.8147   25.9355   46.6861 H   0  0  0  0  0  0  0  0  0  0  0  0
   61.0011   27.9958   44.6109 H   0  0  0  0  0  0  0  0  0  0  0  0
   59.3896   29.7557   43.8772 H   0  0  0  0  0  0  0  0  0  0  0  0
  1  2  2  0
  2  3  2  0
  2  4  1  0
  4  5  1  0
  5  6  2  0
  6  7  1  0
  7  8  2  0
  8  9  1  0
  9 10  2  0
 10 11  1  0
 11 12  2  0
 12 13  1  0
 13 14  1  0
 14 15  1  0
 15 16  1  0
 16 17  1  0
 12 18  1  0
 18 19  2  0
  8 20  1  0
 20 21  2  0
  2 22  1  0
 22 23  2  0
 23 24  1  0
 24 25  2  0
 25 26  1  0
 25 27  1  0
 27 28  2  0
 21  5  1  0
 28 22  1  0
 19  9  1  0
 17 13  1  0
  6 29  1  0
  7 30  1  0
 10 31  1  0
 11 32  1  0
 14 33  1  0
 14 34  1  0
 15 35  1  0
 15 36  1  0
 16 37  1  0
 16 38  1  0
 17 39  1  0
 17 40  1  0
 18 41  1  0
 20 42  1  0
 21 43  1  0
 23 44  1  0
 24 45  1  0
 27 46  1  0
 28 47  1  0
M  CHG  2   4  -1  18   1
M  END
>  <UniqueID>  (88) 
81

>  <SMILES>  (88) 
O=S(=O)([N-]c1ccc(-c2ccc(N3CCCC3)[nH+]n2)cc1)c1ccc(F)cc1

>  <Energy>  (88) 
59.183602109132025

>  <Genealogy>  (88) 
O=S(=O)([N-]c1ccc(-c2ccc(N3CCCC3)[nH+]n2)cc1)c1ccc(F)cc1 (protonated)
O=S(=O)([N-]c1ccc(-c2ccc(N3CCCC3)[nH+]n2)cc1)c1ccc(F)cc1 (3D coordinates assigned)
O=S(=O)([N-]c1ccc(-c2ccc(N3CCCC3)[nH+]n2)cc1)c1ccc(F)cc1 (nonaromatic ring conformer: 59.183602109132025 kcal/mol)

>  <smiles>  (88) 
O=S(=O)(Nc1ccc(-c2ccc(N3CCCC3)nn2)cc1)c1ccc(F)cc1

>  <score_type>  (88) 
oracle

>  <origin>  (88) 
adg

>  <m_score__min__energy>  (88) 
-9.4499999999999993

>  <m_primary>  (88) 
energy

$$$$
88:0
     RDKit          3D

 35 37  0  0  0  0  0  0  0  0999 V2000
   59.6430   34.0210   48.9370 C   0  0  0  0  0  0  0  0  0  0  0  0
   59.2360   34.1090   47.4950 C   0  0  0  0  0  0  0  0  0  0  0  0
   59.6860   35.1700   46.6960 C   0  0  0  0  0  0  0  0  0  0  0  0
   59.2770   35.2720   45.3660 C   0  0  0  0  0  0  0  0  0  0  0  0
   58.4060   34.3230   44.8240 C   0  0  0  0  0  0  0  0  0  0  0  0
   57.9340   33.2610   45.6170 C   0  0  0  0  0  0  0  0  0  0  0  0
   57.0390   32.2650   45.1050 N   0  0  0  0  0  0  0  0  0  0  0  0
   57.4230   31.1190   43.8610 S   0  0  0  0  0  0  0  0  0  0  0  0
   58.6460   31.5890   43.1230 O   0  0  0  0  0  0  0  0  0  0  0  0
   56.2720   31.0330   42.9000 O   0  0  0  0  0  0  0  0  0  0  0  0
   57.6990   29.5290   44.5650 C   0  0  0  0  0  0  0  0  0  0  0  0
   58.9990   29.0170   44.6670 C   0  0  0  0  0  0  0  0  0  0  0  0
   59.2160   27.7630   45.2430 C   0  0  0  0  0  0  0  0  0  0  0  0
   58.1370   27.0120   45.7210 C   0  0  0  0  0  0  0  0  0  0  0  0
   56.8240   27.4970   45.5770 C   0  0  0  0  0  0  0  0  0  0  0  0
   56.6140   28.7630   45.0130 C   0  0  0  0  0  0  0  0  0  0  0  0
   55.7010   26.6720   45.9220 N   0  0  0  0  0  0  0  0  0  0  0  0
   55.8110   25.2440   45.9930 C   0  0  0  0  0  0  0  0  0  0  0  0
   54.7940   24.5500   46.2570 O   0  0  0  0  0  0  0  0  0  0  0  0
   57.1190   24.5710   45.7050 C   0  0  0  0  0  0  0  0  0  0  0  0
   58.4470   25.4580   46.5740 S   0  0  0  0  0  0  0  0  0  0  0  0
   58.3460   33.1670   46.9530 C   0  0  0  0  0  0  0  0  0  0  0  0
   58.7686   34.2101   49.5770 H   0  0  0  0  0  0  0  0  0  0  0  0
   60.0396   33.0164   49.1454 H   0  0  0  0  0  0  0  0  0  0  0  0
   60.4192   34.7721   49.1454 H   0  0  0  0  0  0  0  0  0  0  0  0
   60.3644   35.9251   47.1197 H   0  0  0  0  0  0  0  0  0  0  0  0
   59.6411   36.1017   44.7423 H   0  0  0  0  0  0  0  0  0  0  0  0
   58.0885   34.4066   43.7742 H   0  0  0  0  0  0  0  0  0  0  0  0
   59.8508   29.6038   44.2927 H   0  0  0  0  0  0  0  0  0  0  0  0
   60.2385   27.3649   45.3209 H   0  0  0  0  0  0  0  0  0  0  0  0
   55.5914   29.1578   44.9214 H   0  0  0  0  0  0  0  0  0  0  0  0
   54.7540   27.1060   46.0160 H   0  0  0  0  0  0  0  0  0  0  0  0
   57.0820   23.5287   46.0545 H   0  0  0  0  0  0  0  0  0  0  0  0
   57.3118   24.5828   44.6221 H   0  0  0  0  0  0  0  0  0  0  0  0
   57.9690   32.3480   47.5832 H   0  0  0  0  0  0  0  0  0  0  0  0
  1  2  1  0
  2  3  2  0
  3  4  1  0
  4  5  2  0
  5  6  1  0
  6  7  1  0
  7  8  1  0
  8  9  2  0
  8 10  2  0
  8 11  1  0
 11 12  2  0
 12 13  1  0
 13 14  2  0
 14 15  1  0
 15 16  2  0
 15 17  1  0
 17 18  1  0
 18 19  2  0
 18 20  1  0
 20 21  1  0
  6 22  2  0
 22  2  1  0
 16 11  1  0
 21 14  1  0
  1 23  1  0
  1 24  1  0
  1 25  1  0
  3 26  1  0
  4 27  1  0
  5 28  1  0
 12 29  1  0
 13 30  1  0
 16 31  1  0
 17 32  1  0
 20 33  1  0
 20 34  1  0
 22 35  1  0
M  CHG  1   7  -1
M  END
>  <UniqueID>  (89) 
82

>  <SMILES>  (89) 
Cc1cccc([N-]S(=O)(=O)c2ccc3c(c2)NC(=O)CS3)c1

>  <Energy>  (89) 
42.696964461634906

>  <Genealogy>  (89) 
Cc1cccc([N-]S(=O)(=O)c2ccc3c(c2)NC(=O)CS3)c1 (protonated)
Cc1cccc([N-]S(=O)(=O)c2ccc3c(c2)NC(=O)CS3)c1 (3D coordinates assigned)
Cc1cccc([N-]S(=O)(=O)c2ccc3c(c2)NC(=O)CS3)c1 (nonaromatic ring conformer: 42.696964461634906 kcal/mol)

>  <smiles>  (89) 
Cc1cccc(NS(=O)(=O)c2ccc3c(c2)NC(=O)CS3)c1

>  <score_type>  (89) 
oracle

>  <origin>  (89) 
adg

>  <m_score__min__energy>  (89) 
-10.029999999999999

>  <m_primary>  (89) 
energy

$$$$
89:0
     RDKit          3D

 31 34  0  0  0  0  0  0  0  0999 V2000
   61.7190   33.4860   48.2730 Br  0  0  0  0  0  0  0  0  0  0  0  0
   60.3480   33.3900   46.9480 C   0  0  0  0  0  0  0  0  0  0  0  0
   59.8740   34.5740   46.3390 C   0  0  0  0  0  0  0  0  0  0  0  0
   58.8890   34.5170   45.3400 C   0  0  0  0  0  0  0  0  0  0  0  0
   58.3860   33.2650   44.9940 C   0  0  0  0  0  0  0  0  0  0  0  0
   57.4960   32.9770   44.0260 N   0  0  0  0  0  0  0  0  0  0  0  0
   57.4050   31.6280   44.0680 C   0  0  0  0  0  0  0  0  0  0  0  0
   56.6440   30.8420   43.2090 C   0  0  0  0  0  0  0  0  0  0  0  0
   56.7140   29.4560   43.3850 C   0  0  0  0  0  0  0  0  0  0  0  0
   57.4790   28.9230   44.3820 N   0  0  0  0  0  0  0  0  0  0  0  0
   58.2110   29.7120   45.2190 C   0  0  0  0  0  0  0  0  0  0  0  0
   58.9260   29.0800   46.3370 C   0  0  0  0  0  0  0  0  0  0  0  0
   59.8130   28.0200   46.0970 C   0  0  0  0  0  0  0  0  0  0  0  0
   60.4680   27.3970   47.1640 C   0  0  0  0  0  0  0  0  0  0  0  0
   60.2290   27.8200   48.4750 C   0  0  0  0  0  0  0  0  0  0  0  0
   59.3290   28.8610   48.7220 C   0  0  0  0  0  0  0  0  0  0  0  0
   58.6720   29.4850   47.6580 C   0  0  0  0  0  0  0  0  0  0  0  0
   58.1780   31.0650   45.0270 N   0  0  0  0  0  0  0  0  0  0  0  0
   58.8180   32.1100   45.6030 C   0  0  0  0  0  0  0  0  0  0  0  0
   59.8290   32.1350   46.5720 C   0  0  0  0  0  0  0  0  0  0  0  0
   60.2800   35.5479   46.6501 H   0  0  0  0  0  0  0  0  0  0  0  0
   58.5265   35.4310   44.8468 H   0  0  0  0  0  0  0  0  0  0  0  0
   57.0180   33.6370   43.3740 H   0  0  0  0  0  0  0  0  0  0  0  0
   56.0150   31.2905   42.4259 H   0  0  0  0  0  0  0  0  0  0  0  0
   56.1487   28.7911   42.7154 H   0  0  0  0  0  0  0  0  0  0  0  0
   59.9937   27.6781   45.0672 H   0  0  0  0  0  0  0  0  0  0  0  0
   61.1717   26.5737   46.9717 H   0  0  0  0  0  0  0  0  0  0  0  0
   60.7496   27.3333   49.3129 H   0  0  0  0  0  0  0  0  0  0  0  0
   59.1379   29.1891   49.7544 H   0  0  0  0  0  0  0  0  0  0  0  0
   57.9544   30.2950   47.8553 H   0  0  0  0  0  0  0  0  0  0  0  0
   60.2054   31.2057   47.0245 H   0  0  0  0  0  0  0  0  0  0  0  0
  1  2  1  0
  2  3  2  0
  3  4  1  0
  4  5  2  0
  5  6  1  0
  6  7  2  0
  7  8  1  0
  8  9  2  0
  9 10  1  0
 10 11  2  0
 11 12  1  0
 12 13  2  0
 13 14  1  0
 14 15  2  0
 15 16  1  0
 16 17  2  0
 11 18  1  0
 18 19  1  0
 19 20  2  0
 20  2  1  0
 19  5  1  0
 18  7  1  0
 17 12  1  0
  3 21  1  0
  4 22  1  0
  6 23  1  0
  8 24  1  0
  9 25  1  0
 13 26  1  0
 14 27  1  0
 15 28  1  0
 16 29  1  0
 17 30  1  0
 20 31  1  0
M  CHG  1   6   1
M  END
>  <UniqueID>  (90) 
83

>  <SMILES>  (90) 
Brc1ccc2[nH+]c3ccnc(-c4ccccc4)n3c2c1

>  <Energy>  (90) 
90.28687234726203

>  <Genealogy>  (90) 
Brc1ccc2[nH+]c3ccnc(-c4ccccc4)n3c2c1 (protonated)
Brc1ccc2[nH+]c3ccnc(-c4ccccc4)n3c2c1 (3D coordinates assigned)
Brc1ccc2[nH+]c3ccnc(-c4ccccc4)n3c2c1 (optimized conformer: 90.28687234726203 kcal/mol)

>  <smiles>  (90) 
Brc1ccc2nc3ccnc(-c4ccccc4)n3c2c1

>  <score_type>  (90) 
oracle

>  <origin>  (90) 
adg

>  <m_score__min__energy>  (90) 
-5.7000000000000002

>  <m_primary>  (90) 
energy

$$$$
90:0
     RDKit          3D

 38 40  0  0  0  0  0  0  0  0999 V2000
   58.5370   32.6990   49.0310 C   0  0  0  0  0  0  0  0  0  0  0  0
   58.8000   33.3100   47.6790 C   0  0  0  0  0  0  0  0  0  0  0  0
   57.7070   33.5870   46.8400 C   0  0  0  0  0  0  0  0  0  0  0  0
   57.8980   34.2080   45.6060 C   0  0  0  0  0  0  0  0  0  0  0  0
   59.1790   34.5730   45.2000 C   0  0  0  0  0  0  0  0  0  0  0  0
   60.2790   34.2930   46.0110 C   0  0  0  0  0  0  0  0  0  0  0  0
   60.1210   33.6090   47.2400 C   0  0  0  0  0  0  0  0  0  0  0  0
   61.2620   33.3290   48.0950 N   0  0  0  0  0  0  0  0  0  0  0  0
   62.2680   32.5100   47.4570 C   0  0  0  0  0  0  0  0  0  0  0  0
   63.7010   33.1800   47.0190 S   0  0  0  0  0  0  0  0  0  0  0  0
   62.0380   31.1200   47.1610 N   0  0  0  0  0  0  0  0  0  0  0  0
   60.8750   30.3590   47.6170 C   0  0  0  0  0  0  0  0  0  0  0  0
   59.9920   29.9530   46.4650 C   0  0  0  0  0  0  0  0  0  0  0  0
   60.4240   28.9420   45.5690 C   0  0  0  0  0  0  0  0  0  0  0  0
   59.6050   28.5330   44.5010 C   0  0  0  0  0  0  0  0  0  0  0  0
   58.3580   29.1340   44.3730 C   0  0  0  0  0  0  0  0  0  0  0  0
   57.9250   30.0830   45.2400 C   0  0  0  0  0  0  0  0  0  0  0  0
   58.7050   30.5180   46.3080 C   0  0  0  0  0  0  0  0  0  0  0  0
   56.6560   30.4930   44.8780 O   0  0  0  0  0  0  0  0  0  0  0  0
   56.2690   29.7570   43.7100 C   0  0  0  0  0  0  0  0  0  0  0  0
   57.3840   28.9010   43.4210 O   0  0  0  0  0  0  0  0  0  0  0  0
   58.8409   33.4051   49.8178 H   0  0  0  0  0  0  0  0  0  0  0  0
   57.4641   32.4780   49.1311 H   0  0  0  0  0  0  0  0  0  0  0  0
   59.1140   31.7678   49.1311 H   0  0  0  0  0  0  0  0  0  0  0  0
   56.6912   33.3114   47.1597 H   0  0  0  0  0  0  0  0  0  0  0  0
   57.0361   34.4096   44.9529 H   0  0  0  0  0  0  0  0  0  0  0  0
   59.3240   35.0838   44.2366 H   0  0  0  0  0  0  0  0  0  0  0  0
   61.2831   34.6082   45.6909 H   0  0  0  0  0  0  0  0  0  0  0  0
   61.6750   34.2430   48.3910 H   0  0  0  0  0  0  0  0  0  0  0  0
   60.9660   32.8270   48.9600 H   0  0  0  0  0  0  0  0  0  0  0  0
   62.7590   30.6060   46.6050 H   0  0  0  0  0  0  0  0  0  0  0  0
   61.2220   29.4540   48.1372 H   0  0  0  0  0  0  0  0  0  0  0  0
   60.2878   30.9990   48.2920 H   0  0  0  0  0  0  0  0  0  0  0  0
   61.4090   28.4732   45.7106 H   0  0  0  0  0  0  0  0  0  0  0  0
   59.9402   27.7630   43.7905 H   0  0  0  0  0  0  0  0  0  0  0  0
   58.3313   31.2788   47.0091 H   0  0  0  0  0  0  0  0  0  0  0  0
   55.3664   29.1611   43.9105 H   0  0  0  0  0  0  0  0  0  0  0  0
   56.0288   30.4201   42.8658 H   0  0  0  0  0  0  0  0  0  0  0  0
  1  2  1  0
  2  3  2  0
  3  4  1  0
  4  5  2  0
  5  6  1  0
  6  7  2  0
  7  8  1  0
  8  9  1  0
  9 10  2  0
  9 11  1  0
 11 12  1  0
 12 13  1  0
 13 14  2  0
 14 15  1  0
 15 16  2  0
 16 17  1  0
 17 18  2  0
 17 19  1  0
 19 20  1  0
 20 21  1  0
  7  2  1  0
 18 13  1  0
 21 16  1  0
  1 22  1  0
  1 23  1  0
  1 24  1  0
  3 25  1  0
  4 26  1  0
  5 27  1  0
  6 28  1  0
  8 29  1  0
  8 30  1  0
 11 31  1  0
 12 32  1  0
 12 33  1  0
 14 34  1  0
 15 35  1  0
 18 36  1  0
 20 37  1  0
 20 38  1  0
M  CHG  1   8   1
M  END
>  <UniqueID>  (91) 
84

>  <SMILES>  (91) 
Cc1ccccc1[NH2+]C(=S)NCc1ccc2c(c1)OCO2

>  <Energy>  (91) 
70.61227148857793

>  <Genealogy>  (91) 
Cc1ccccc1[NH2+]C(=S)NCc1ccc2c(c1)OCO2 (protonated)
Cc1ccccc1[NH2+]C(=S)NCc1ccc2c(c1)OCO2 (3D coordinates assigned)
Cc1ccccc1[NH2+]C(=S)NCc1ccc2c(c1)OCO2 (nonaromatic ring conformer: 70.61227148857793 kcal/mol)

>  <smiles>  (91) 
Cc1ccccc1NC(=S)NCc1ccc2c(c1)OCO2

>  <score_type>  (91) 
oracle

>  <origin>  (91) 
adg

>  <m_score__min__energy>  (91) 
-6.1500000000000004

>  <m_primary>  (91) 
energy

$$$$
91:0
     RDKit          3D

 28 29  0  0  0  0  0  0  0  0999 V2000
   59.8810   34.5670   45.4930 O   0  0  0  0  0  0  0  0  0  0  0  0
   59.2210   33.6270   46.0150 C   0  0  0  0  0  0  0  0  0  0  0  0
   59.2620   33.4370   47.4400 N   0  0  0  0  0  0  0  0  0  0  0  0
   59.9670   34.3580   48.3290 C   0  0  0  0  0  0  0  0  0  0  0  0
   61.4240   33.9930   48.4100 C   0  0  0  0  0  0  0  0  0  0  0  0
   62.1280   34.1760   49.6120 C   0  0  0  0  0  0  0  0  0  0  0  0
   63.4770   33.8210   49.6990 C   0  0  0  0  0  0  0  0  0  0  0  0
   64.1320   33.2770   48.5910 C   0  0  0  0  0  0  0  0  0  0  0  0
   63.4370   33.0860   47.3930 C   0  0  0  0  0  0  0  0  0  0  0  0
   62.0870   33.4400   47.3010 C   0  0  0  0  0  0  0  0  0  0  0  0
   58.4300   32.7260   45.1430 C   0  0  0  0  0  0  0  0  0  0  0  0
   57.7790   31.6070   45.6890 C   0  0  0  0  0  0  0  0  0  0  0  0
   57.0550   30.7740   44.8930 N   0  0  0  0  0  0  0  0  0  0  0  0
   56.9420   30.9830   43.5560 C   0  0  0  0  0  0  0  0  0  0  0  0
   57.5820   32.0730   42.9630 C   0  0  0  0  0  0  0  0  0  0  0  0
   57.4430   32.3630   41.0800 Br  0  0  0  0  0  0  0  0  0  0  0  0
   58.3300   32.9440   43.7580 C   0  0  0  0  0  0  0  0  0  0  0  0
   58.8360   32.5850   47.8670 H   0  0  0  0  0  0  0  0  0  0  0  0
   59.8707   35.3826   47.9404 H   0  0  0  0  0  0  0  0  0  0  0  0
   59.5255   34.2932   49.3344 H   0  0  0  0  0  0  0  0  0  0  0  0
   61.6155   34.6003   50.4880 H   0  0  0  0  0  0  0  0  0  0  0  0
   64.0242   33.9701   50.6415 H   0  0  0  0  0  0  0  0  0  0  0  0
   65.1940   32.9992   48.6613 H   0  0  0  0  0  0  0  0  0  0  0  0
   63.9527   32.6566   46.5214 H   0  0  0  0  0  0  0  0  0  0  0  0
   61.5426   33.2851   46.3578 H   0  0  0  0  0  0  0  0  0  0  0  0
   57.8551   31.4029   46.7672 H   0  0  0  0  0  0  0  0  0  0  0  0
   56.3461   30.2934   42.9401 H   0  0  0  0  0  0  0  0  0  0  0  0
   58.8421   33.8027   43.2993 H   0  0  0  0  0  0  0  0  0  0  0  0
  1  2  2  0
  2  3  1  0
  3  4  1  0
  4  5  1  0
  5  6  2  0
  6  7  1  0
  7  8  2  0
  8  9  1  0
  9 10  2  0
  2 11  1  0
 11 12  2  0
 12 13  1  0
 13 14  2  0
 14 15  1  0
 15 16  1  0
 15 17  2  0
 10  5  1  0
 17 11  1  0
  3 18  1  0
  4 19  1  0
  4 20  1  0
  6 21  1  0
  7 22  1  0
  8 23  1  0
  9 24  1  0
 10 25  1  0
 12 26  1  0
 14 27  1  0
 17 28  1  0
M  END
>  <UniqueID>  (92) 
85

>  <SMILES>  (92) 
O=C(NCc1ccccc1)c1cncc(Br)c1

>  <Energy>  (92) 
29.43628365895955

>  <Genealogy>  (92) 
O=C(NCc1ccccc1)c1cncc(Br)c1 (3D coordinates assigned)
O=C(NCc1ccccc1)c1cncc(Br)c1 (optimized conformer: 29.43628365895955 kcal/mol)

>  <smiles>  (92) 
O=C(NCc1ccccc1)c1cncc(Br)c1

>  <score_type>  (92) 
oracle

>  <origin>  (92) 
adg

>  <m_score__min__energy>  (92) 
-7.0499999999999998

>  <m_primary>  (92) 
energy

$$$$
92:0
     RDKit          3D

 49 51  0  0  0  0  0  0  0  0999 V2000
   66.4560   32.4060   50.3190 C   0  0  0  0  0  0  0  0  0  0  0  0
   65.2060   33.0710   49.7490 C   0  0  0  0  0  0  0  0  0  0  0  0
   64.1280   32.0800   49.2370 C   0  0  0  0  0  0  0  0  0  0  0  0
   62.9260   32.6670   48.5800 N   0  0  0  0  0  0  0  0  0  0  0  0
   63.1370   32.9250   47.1340 C   0  0  0  0  0  0  0  0  0  0  0  0
   62.0490   33.8380   46.5350 C   0  0  0  0  0  0  0  0  0  0  0  0
   60.8050   33.7220   47.3150 N   0  0  0  0  0  0  0  0  0  0  0  0
   59.6960   34.4180   46.6300 C   0  0  0  0  0  0  0  0  0  0  0  0
   58.9700   33.4800   45.6980 C   0  0  0  0  0  0  0  0  0  0  0  0
   58.5250   32.2990   46.1540 C   0  0  0  0  0  0  0  0  0  0  0  0
   57.8010   31.3720   45.2680 C   0  0  0  0  0  0  0  0  0  0  0  0
   57.3980   30.1050   45.7140 C   0  0  0  0  0  0  0  0  0  0  0  0
   56.6600   29.2580   44.8620 C   0  0  0  0  0  0  0  0  0  0  0  0
   56.2370   27.9790   45.2550 O   0  0  0  0  0  0  0  0  0  0  0  0
   57.1150   26.9090   45.5870 C   0  0  0  0  0  0  0  0  0  0  0  0
   56.3300   29.7010   43.5740 C   0  0  0  0  0  0  0  0  0  0  0  0
   56.7260   30.9680   43.1340 C   0  0  0  0  0  0  0  0  0  0  0  0
   57.4680   31.7990   43.9770 C   0  0  0  0  0  0  0  0  0  0  0  0
   57.8600   33.0700   43.5510 O   0  0  0  0  0  0  0  0  0  0  0  0
   58.8640   33.8320   44.2280 C   0  0  0  0  0  0  0  0  0  0  0  0
   61.0020   34.2480   48.6880 C   0  0  0  0  0  0  0  0  0  0  0  0
   62.3730   33.8490   49.2750 C   0  0  0  0  0  0  0  0  0  0  0  0
   66.4144   32.4282   51.4180 H   0  0  0  0  0  0  0  0  0  0  0  0
   66.5054   31.3624   49.9749 H   0  0  0  0  0  0  0  0  0  0  0  0
   67.3491   32.9482   49.9749 H   0  0  0  0  0  0  0  0  0  0  0  0
   64.7559   33.6907   50.5385 H   0  0  0  0  0  0  0  0  0  0  0  0
   65.5326   33.6566   48.8770 H   0  0  0  0  0  0  0  0  0  0  0  0
   64.6109   31.4117   48.5089 H   0  0  0  0  0  0  0  0  0  0  0  0
   63.7452   31.5829   50.1405 H   0  0  0  0  0  0  0  0  0  0  0  0
   62.1900   31.9210   48.6370 H   0  0  0  0  0  0  0  0  0  0  0  0
   64.1162   33.4080   47.0006 H   0  0  0  0  0  0  0  0  0  0  0  0
   63.0894   31.9587   46.6105 H   0  0  0  0  0  0  0  0  0  0  0  0
   62.3966   34.8814   46.5576 H   0  0  0  0  0  0  0  0  0  0  0  0
   61.8530   33.5312   45.4970 H   0  0  0  0  0  0  0  0  0  0  0  0
   58.9890   34.7978   47.3823 H   0  0  0  0  0  0  0  0  0  0  0  0
   60.1112   35.2491   46.0411 H   0  0  0  0  0  0  0  0  0  0  0  0
   58.7033   32.0198   47.2029 H   0  0  0  0  0  0  0  0  0  0  0  0
   57.6579   29.7717   46.7295 H   0  0  0  0  0  0  0  0  0  0  0  0
   57.1877   26.8204   46.6810 H   0  0  0  0  0  0  0  0  0  0  0  0
   56.7236   25.9701   45.1683 H   0  0  0  0  0  0  0  0  0  0  0  0
   58.1122   27.1096   45.1683 H   0  0  0  0  0  0  0  0  0  0  0  0
   55.7544   29.0463   42.9032 H   0  0  0  0  0  0  0  0  0  0  0  0
   56.4534   31.3101   42.1247 H   0  0  0  0  0  0  0  0  0  0  0  0
   59.8352   33.6397   43.7487 H   0  0  0  0  0  0  0  0  0  0  0  0
   58.5805   34.8926   44.1589 H   0  0  0  0  0  0  0  0  0  0  0  0
   60.9348   35.3456   48.6598 H   0  0  0  0  0  0  0  0  0  0  0  0
   60.2210   33.8151   49.3304 H   0  0  0  0  0  0  0  0  0  0  0  0
   63.0712   34.6915   49.1619 H   0  0  0  0  0  0  0  0  0  0  0  0
   62.2385   33.5983   50.3376 H   0  0  0  0  0  0  0  0  0  0  0  0
  1  2  1  0
  2  3  1  0
  3  4  1  0
  4  5  1  0
  5  6  1  0
  6  7  1  0
  7  8  1  0
  8  9  1  0
  9 10  2  0
 10 11  1  0
 11 12  2  0
 12 13  1  0
 13 14  1  0
 14 15  1  0
 13 16  2  0
 16 17  1  0
 17 18  2  0
 18 19  1  0
 19 20  1  0
  7 21  1  0
 21 22  1  0
 22  4  1  0
 20  9  1  0
 18 11  1  0
  1 23  1  0
  1 24  1  0
  1 25  1  0
  2 26  1  0
  2 27  1  0
  3 28  1  0
  3 29  1  0
  4 30  1  0
  5 31  1  0
  5 32  1  0
  6 33  1  0
  6 34  1  0
  8 35  1  0
  8 36  1  0
 10 37  1  0
 12 38  1  0
 15 39  1  0
 15 40  1  0
 15 41  1  0
 16 42  1  0
 17 43  1  0
 20 44  1  0
 20 45  1  0
 21 46  1  0
 21 47  1  0
 22 48  1  0
 22 49  1  0
M  CHG  1   4   1
M  END
>  <UniqueID>  (93) 
86

>  <SMILES>  (93) 
CCC[NH+]1CCN(CC2=Cc3cc(OC)ccc3OC2)CC1

>  <Energy>  (93) 
62.596676130281004

>  <Genealogy>  (93) 
CCC[NH+]1CCN(CC2=Cc3cc(OC)ccc3OC2)CC1 (protonated)
CCC[NH+]1CCN(CC2=Cc3cc(OC)ccc3OC2)CC1 (3D coordinates assigned)
CCC[NH+]1CCN(CC2=Cc3cc(OC)ccc3OC2)CC1 (nonaromatic ring conformer: 62.596676130281004 kcal/mol)

>  <smiles>  (93) 
CCCN1CCN(CC2=Cc3cc(OC)ccc3OC2)CC1

>  <score_type>  (93) 
oracle

>  <origin>  (93) 
adg

>  <m_score__min__energy>  (93) 
-6.1399999999999997

>  <m_primary>  (93) 
energy

$$$$
93:0
     RDKit          3D

 40 41  0  0  0  0  0  0  0  0999 V2000
   57.0360   24.2850   43.9450 C   0  0  0  0  0  0  0  0  0  0  0  0
   57.0770   24.9460   45.2560 N   0  0  0  0  0  0  0  0  0  0  0  0
   56.3160   24.3620   46.3680 C   0  0  0  0  0  0  0  0  0  0  0  0
   57.8580   26.1540   45.4500 C   0  0  0  0  0  0  0  0  0  0  0  0
   58.0270   26.7090   46.7370 C   0  0  0  0  0  0  0  0  0  0  0  0
   58.7790   27.8720   46.9220 C   0  0  0  0  0  0  0  0  0  0  0  0
   59.3820   28.5090   45.8260 C   0  0  0  0  0  0  0  0  0  0  0  0
   60.1590   29.7020   45.9810 N   0  0  0  0  0  0  0  0  0  0  0  0
   59.7920   30.6590   46.7350 N   0  0  0  0  0  0  0  0  0  0  0  0
   59.2260   31.8770   46.2270 C   0  0  0  0  0  0  0  0  0  0  0  0
   59.4120   33.0420   46.9840 C   0  0  0  0  0  0  0  0  0  0  0  0
   58.9540   34.2760   46.5170 C   0  0  0  0  0  0  0  0  0  0  0  0
   58.2970   34.3570   45.2910 C   0  0  0  0  0  0  0  0  0  0  0  0
   58.0820   33.2040   44.5340 C   0  0  0  0  0  0  0  0  0  0  0  0
   58.5310   31.9530   44.9910 C   0  0  0  0  0  0  0  0  0  0  0  0
   58.2000   30.7700   44.2490 N   0  0  0  0  0  0  0  0  0  0  0  0
   56.6060   30.0910   44.2370 S   0  0  0  0  0  0  0  0  0  0  0  0
   56.2760   29.3570   42.6500 C   0  0  0  0  0  0  0  0  0  0  0  0
   55.6070   31.1820   44.5010 O   0  0  0  0  0  0  0  0  0  0  0  0
   56.4820   29.0500   45.3130 O   0  0  0  0  0  0  0  0  0  0  0  0
   59.2210   27.9680   44.5480 C   0  0  0  0  0  0  0  0  0  0  0  0
   58.4700   26.8050   44.3590 C   0  0  0  0  0  0  0  0  0  0  0  0
   56.9685   23.1961   44.0853 H   0  0  0  0  0  0  0  0  0  0  0  0
   56.1580   24.6375   43.3839 H   0  0  0  0  0  0  0  0  0  0  0  0
   57.9508   24.5263   43.3839 H   0  0  0  0  0  0  0  0  0  0  0  0
   56.7490   24.6943   47.3231 H   0  0  0  0  0  0  0  0  0  0  0  0
   55.2677   24.6897   46.3069 H   0  0  0  0  0  0  0  0  0  0  0  0
   56.3613   23.2646   46.3069 H   0  0  0  0  0  0  0  0  0  0  0  0
   57.5609   26.2198   47.6050 H   0  0  0  0  0  0  0  0  0  0  0  0
   58.8992   28.2907   47.9321 H   0  0  0  0  0  0  0  0  0  0  0  0
   59.9239   32.9837   47.9559 H   0  0  0  0  0  0  0  0  0  0  0  0
   59.1120   35.1842   47.1172 H   0  0  0  0  0  0  0  0  0  0  0  0
   57.9471   35.3312   44.9189 H   0  0  0  0  0  0  0  0  0  0  0  0
   57.5561   33.2752   43.5705 H   0  0  0  0  0  0  0  0  0  0  0  0
   58.9290   30.3080   43.6590 H   0  0  0  0  0  0  0  0  0  0  0  0
   55.8287   28.3621   42.7920 H   0  0  0  0  0  0  0  0  0  0  0  0
   55.5785   29.9958   42.0885 H   0  0  0  0  0  0  0  0  0  0  0  0
   57.2168   29.2593   42.0885 H   0  0  0  0  0  0  0  0  0  0  0  0
   59.6892   28.4616   43.6836 H   0  0  0  0  0  0  0  0  0  0  0  0
   58.3547   26.3919   43.3461 H   0  0  0  0  0  0  0  0  0  0  0  0
  1  2  1  0
  2  3  1  0
  2  4  1  0
  4  5  2  0
  5  6  1  0
  6  7  2  0
  7  8  1  0
  8  9  2  3
  9 10  1  0
 10 11  2  0
 11 12  1  0
 12 13  2  0
 13 14  1  0
 14 15  2  0
 15 16  1  0
 16 17  1  0
 17 18  1  0
 17 19  2  0
 17 20  2  0
  7 21  1  0
 21 22  2  0
 22  4  1  0
 15 10  1  0
  1 23  1  0
  1 24  1  0
  1 25  1  0
  3 26  1  0
  3 27  1  0
  3 28  1  0
  5 29  1  0
  6 30  1  0
 11 31  1  0
 12 32  1  0
 13 33  1  0
 14 34  1  0
 16 35  1  0
 18 36  1  0
 18 37  1  0
 18 38  1  0
 21 39  1  0
 22 40  1  0
M  END
>  <UniqueID>  (94) 
87

>  <SMILES>  (94) 
CN(C)c1ccc(N=Nc2ccccc2NS(C)(=O)=O)cc1

>  <Energy>  (94) 
45.35468835716418

>  <Genealogy>  (94) 
CN(C)c1ccc(N=Nc2ccccc2NS(C)(=O)=O)cc1 (3D coordinates assigned)
CN(C)c1ccc(N=Nc2ccccc2NS(C)(=O)=O)cc1 (optimized conformer: 45.35468835716418 kcal/mol)

>  <smiles>  (94) 
CN(C)c1ccc(N=Nc2ccccc2NS(C)(=O)=O)cc1

>  <score_type>  (94) 
oracle

>  <origin>  (94) 
adg

>  <m_score__min__energy>  (94) 
-7.4199999999999999

>  <m_primary>  (94) 
energy

$$$$
94:0
     RDKit          3D

 42 43  0  0  0  0  0  0  0  0999 V2000
   51.0950   24.3230   43.9700 C   0  0  0  0  0  0  0  0  0  0  0  0
   51.3950   23.6550   45.3080 C   0  0  0  0  0  0  0  0  0  0  0  0
   52.6210   22.9320   45.2460 O   0  0  0  0  0  0  0  0  0  0  0  0
   53.8610   23.4870   45.5810 C   0  0  0  0  0  0  0  0  0  0  0  0
   54.1070   23.8490   46.7630 O   0  0  0  0  0  0  0  0  0  0  0  0
   54.9230   23.6050   44.5350 C   0  0  0  0  0  0  0  0  0  0  0  0
   56.0540   24.3860   45.0510 N   0  0  0  0  0  0  0  0  0  0  0  0
   55.9610   25.6400   45.5930 C   0  0  0  0  0  0  0  0  0  0  0  0
   54.7550   26.3230   45.7580 O   0  0  0  0  0  0  0  0  0  0  0  0
   57.1780   26.1990   45.9680 C   0  0  0  0  0  0  0  0  0  0  0  0
   57.3310   27.4630   46.6290 N   0  0  0  0  0  0  0  0  0  0  0  0
   57.4680   28.7170   45.9410 C   0  0  0  0  0  0  0  0  0  0  0  0
   56.6680   28.9800   44.8230 C   0  0  0  0  0  0  0  0  0  0  0  0
   56.8010   30.1810   44.1200 C   0  0  0  0  0  0  0  0  0  0  0  0
   57.7530   31.1440   44.5110 C   0  0  0  0  0  0  0  0  0  0  0  0
   57.8920   32.3940   43.7840 N   0  0  0  0  0  0  0  0  0  0  0  0
   57.9000   33.6760   44.5000 C   0  0  0  0  0  0  0  0  0  0  0  0
   58.0290   32.3980   42.3220 C   0  0  0  0  0  0  0  0  0  0  0  0
   58.5750   30.8570   45.6210 C   0  0  0  0  0  0  0  0  0  0  0  0
   58.4380   29.6550   46.3220 C   0  0  0  0  0  0  0  0  0  0  0  0
   58.4130   25.0970   45.6340 S   0  0  0  0  0  0  0  0  0  0  0  0
   57.3440   23.9660   44.9990 C   0  0  0  0  0  0  0  0  0  0  0  0
   57.7000   22.8540   44.5270 O   0  0  0  0  0  0  0  0  0  0  0  0
   50.6502   25.3135   44.1463 H   0  0  0  0  0  0  0  0  0  0  0  0
   52.0286   24.4366   43.3994 H   0  0  0  0  0  0  0  0  0  0  0  0
   50.3899   23.7007   43.3994 H   0  0  0  0  0  0  0  0  0  0  0  0
   51.4700   24.4268   46.0882 H   0  0  0  0  0  0  0  0  0  0  0  0
   50.5817   22.9527   45.5430 H   0  0  0  0  0  0  0  0  0  0  0  0
   55.2720   22.5999   44.2558 H   0  0  0  0  0  0  0  0  0  0  0  0
   54.5057   24.1142   43.6538 H   0  0  0  0  0  0  0  0  0  0  0  0
   54.0170   25.9920   46.3640 H   0  0  0  0  0  0  0  0  0  0  0  0
   57.4280   27.4610   47.6700 H   0  0  0  0  0  0  0  0  0  0  0  0
   55.9281   28.2351   44.4947 H   0  0  0  0  0  0  0  0  0  0  0  0
   56.1550   30.3768   43.2514 H   0  0  0  0  0  0  0  0  0  0  0  0
   57.8988   33.4904   45.5842 H   0  0  0  0  0  0  0  0  0  0  0  0
   58.8017   34.2434   44.2261 H   0  0  0  0  0  0  0  0  0  0  0  0
   57.0055   34.2546   44.2261 H   0  0  0  0  0  0  0  0  0  0  0  0
   59.0953   32.4291   42.0537 H   0  0  0  0  0  0  0  0  0  0  0  0
   57.5733   31.4862   41.9085 H   0  0  0  0  0  0  0  0  0  0  0  0
   57.5209   33.2817   41.9085 H   0  0  0  0  0  0  0  0  0  0  0  0
   59.3331   31.5879   45.9389 H   0  0  0  0  0  0  0  0  0  0  0  0
   59.0956   29.4438   47.1781 H   0  0  0  0  0  0  0  0  0  0  0  0
  1  2  1  0
  2  3  1  0
  3  4  1  0
  4  5  2  0
  4  6  1  0
  6  7  1  0
  7  8  1  0
  8  9  1  0
  8 10  2  0
 10 11  1  0
 11 12  1  0
 12 13  2  0
 13 14  1  0
 14 15  2  0
 15 16  1  0
 16 17  1  0
 16 18  1  0
 15 19  1  0
 19 20  2  0
 10 21  1  0
 21 22  1  0
 22 23  2  0
 22  7  1  0
 20 12  1  0
  1 24  1  0
  1 25  1  0
  1 26  1  0
  2 27  1  0
  2 28  1  0
  6 29  1  0
  6 30  1  0
  9 31  1  0
 11 32  1  0
 13 33  1  0
 14 34  1  0
 17 35  1  0
 17 36  1  0
 17 37  1  0
 18 38  1  0
 18 39  1  0
 18 40  1  0
 19 41  1  0
 20 42  1  0
M  END
>  <UniqueID>  (95) 
88

>  <SMILES>  (95) 
CCOC(=O)Cn1c(O)c(Nc2ccc(N(C)C)cc2)sc1=O

>  <Energy>  (95) 
74.27383796144886

>  <Genealogy>  (95) 
CCOC(=O)Cn1c(O)c(Nc2ccc(N(C)C)cc2)sc1=O (3D coordinates assigned)
CCOC(=O)Cn1c(O)c(Nc2ccc(N(C)C)cc2)sc1=O (optimized conformer: 74.27383796144886 kcal/mol)

>  <smiles>  (95) 
CCOC(=O)Cn1c(O)c(Nc2ccc(N(C)C)cc2)sc1=O

>  <score_type>  (95) 
oracle

>  <origin>  (95) 
adg

>  <m_score__min__energy>  (95) 
-7.3799999999999999

>  <m_primary>  (95) 
energy

$$$$
95:0
     RDKit          3D

 44 46  0  0  0  0  0  0  0  0999 V2000
   63.2010   31.6720   47.6100 C   0  0  0  0  0  0  0  0  0  0  0  0
   62.1240   31.0080   48.3550 N   0  0  0  0  0  0  0  0  0  0  0  0
   62.2790   30.7620   49.7930 C   0  0  0  0  0  0  0  0  0  0  0  0
   60.9050   30.5870   47.6990 C   0  0  0  0  0  0  0  0  0  0  0  0
   59.7340   30.2910   48.4230 C   0  0  0  0  0  0  0  0  0  0  0  0
   58.5770   29.9020   47.7410 C   0  0  0  0  0  0  0  0  0  0  0  0
   58.5790   29.8210   46.3440 C   0  0  0  0  0  0  0  0  0  0  0  0
   57.3640   29.4230   45.6060 C   0  0  0  0  0  0  0  0  0  0  0  0
   57.0190   28.2110   45.5890 O   0  0  0  0  0  0  0  0  0  0  0  0
   56.5870   30.3770   44.8740 N   0  0  0  0  0  0  0  0  0  0  0  0
   57.1250   31.6320   44.3540 C   0  0  0  0  0  0  0  0  0  0  0  0
   56.7080   32.8040   45.2420 C   0  0  0  0  0  0  0  0  0  0  0  0
   57.9110   33.5030   45.8030 C   0  0  0  0  0  0  0  0  0  0  0  0
   58.7610   34.2940   45.0350 C   0  0  0  0  0  0  0  0  0  0  0  0
   60.0260   34.7860   46.0250 S   0  0  0  0  0  0  0  0  0  0  0  0
   59.4460   33.9750   47.3840 C   0  0  0  0  0  0  0  0  0  0  0  0
   60.1250   33.8850   48.6960 C   0  0  0  0  0  0  0  0  0  0  0  0
   59.4250   33.4210   49.8220 C   0  0  0  0  0  0  0  0  0  0  0  0
   60.0810   33.3170   51.0510 C   0  0  0  0  0  0  0  0  0  0  0  0
   61.3930   33.6610   51.1590 N   0  0  0  0  0  0  0  0  0  0  0  0
   62.0960   34.1140   50.0860 C   0  0  0  0  0  0  0  0  0  0  0  0
   61.4780   34.2330   48.8380 C   0  0  0  0  0  0  0  0  0  0  0  0
   58.2930   33.3300   47.0970 N   0  0  0  0  0  0  0  0  0  0  0  0
   59.7700   30.0910   45.6600 C   0  0  0  0  0  0  0  0  0  0  0  0
   60.8820   30.4670   46.3410 N   0  0  0  0  0  0  0  0  0  0  0  0
   63.9179   32.1140   48.3176 H   0  0  0  0  0  0  0  0  0  0  0  0
   63.7173   30.9352   46.9771 H   0  0  0  0  0  0  0  0  0  0  0  0
   62.7746   32.4643   46.9771 H   0  0  0  0  0  0  0  0  0  0  0  0
   61.7758   31.5606   50.3579 H   0  0  0  0  0  0  0  0  0  0  0  0
   61.8288   29.7917   50.0496 H   0  0  0  0  0  0  0  0  0  0  0  0
   63.3486   30.7493   50.0496 H   0  0  0  0  0  0  0  0  0  0  0  0
   59.7295   30.3655   49.5205 H   0  0  0  0  0  0  0  0  0  0  0  0
   57.6635   29.6592   48.3037 H   0  0  0  0  0  0  0  0  0  0  0  0
   58.2230   31.5713   44.3273 H   0  0  0  0  0  0  0  0  0  0  0  0
   56.7286   31.7955   43.3410 H   0  0  0  0  0  0  0  0  0  0  0  0
   56.1221   33.5181   44.6447 H   0  0  0  0  0  0  0  0  0  0  0  0
   56.1049   32.4165   46.0764 H   0  0  0  0  0  0  0  0  0  0  0  0
   58.6285   34.5502   43.9735 H   0  0  0  0  0  0  0  0  0  0  0  0
   58.3648   33.1407   49.7364 H   0  0  0  0  0  0  0  0  0  0  0  0
   59.5348   32.9556   51.9348 H   0  0  0  0  0  0  0  0  0  0  0  0
   61.8700   33.5750   52.0840 H   0  0  0  0  0  0  0  0  0  0  0  0
   63.1552   34.3878   50.2011 H   0  0  0  0  0  0  0  0  0  0  0  0
   62.0488   34.5975   47.9712 H   0  0  0  0  0  0  0  0  0  0  0  0
   59.8048   29.9979   44.5645 H   0  0  0  0  0  0  0  0  0  0  0  0
  1  2  1  0
  2  3  1  0
  2  4  1  0
  4  5  2  0
  5  6  1  0
  6  7  2  0
  7  8  1  0
  8  9  2  0
  8 10  1  0
 10 11  1  0
 11 12  1  0
 12 13  1  0
 13 14  2  0
 14 15  1  0
 15 16  1  0
 16 17  1  0
 17 18  2  0
 18 19  1  0
 19 20  2  0
 20 21  1  0
 21 22  2  0
 16 23  2  0
  7 24  1  0
 24 25  2  0
 25  4  1  0
 23 13  1  0
 22 17  1  0
  1 26  1  0
  1 27  1  0
  1 28  1  0
  3 29  1  0
  3 30  1  0
  3 31  1  0
  5 32  1  0
  6 33  1  0
 11 34  1  0
 11 35  1  0
 12 36  1  0
 12 37  1  0
 14 38  1  0
 18 39  1  0
 19 40  1  0
 20 41  1  0
 21 42  1  0
 22 43  1  0
 24 44  1  0
M  CHG  2  10  -1  20   1
M  END
>  <UniqueID>  (96) 
89

>  <SMILES>  (96) 
CN(C)c1ccc(C(=O)[N-]CCc2csc(-c3cc[nH+]cc3)n2)cn1

>  <Energy>  (96) 
76.41701796061666

>  <Genealogy>  (96) 
CN(C)c1ccc(C(=O)[N-]CCc2csc(-c3cc[nH+]cc3)n2)cn1 (protonated)
CN(C)c1ccc(C(=O)[N-]CCc2csc(-c3cc[nH+]cc3)n2)cn1 (3D coordinates assigned)
CN(C)c1ccc(C(=O)[N-]CCc2csc(-c3cc[nH+]cc3)n2)cn1 (optimized conformer: 76.41701796061666 kcal/mol)

>  <smiles>  (96) 
CN(C)c1ccc(C(=O)NCCc2csc(-c3ccncc3)n2)cn1

>  <score_type>  (96) 
oracle

>  <origin>  (96) 
adg

>  <m_score__min__energy>  (96) 
-7.8899999999999997

>  <m_primary>  (96) 
energy

$$$$
