0:0
     RDKit          3D

 52 53  0  0  0  0  0  0  0  0999 V2000
   58.1990   21.8410   44.2800 C   0  0  0  0  0  0  0  0  0  0  0  0
   57.9620   23.2190   44.8900 C   0  0  0  0  0  0  0  0  0  0  0  0
   59.1930   23.6840   45.6210 C   0  0  0  0  0  0  0  0  0  0  0  0
   60.2190   22.9530   45.6180 O   0  0  0  0  0  0  0  0  0  0  0  0
   59.1890   24.8700   46.4250 N   0  0  0  0  0  0  0  0  0  0  0  0
   58.6740   26.1440   46.0220 C   0  0  0  0  0  0  0  0  0  0  0  0
   57.2960   26.4150   46.0550 C   0  0  0  0  0  0  0  0  0  0  0  0
   56.8130   27.6550   45.6310 C   0  0  0  0  0  0  0  0  0  0  0  0
   57.7010   28.6400   45.1750 C   0  0  0  0  0  0  0  0  0  0  0  0
   57.0960   30.2320   44.7200 S   0  0  0  0  0  0  0  0  0  0  0  0
   57.7700   30.7140   43.4640 O   0  0  0  0  0  0  0  0  0  0  0  0
   55.6170   30.1370   44.4850 O   0  0  0  0  0  0  0  0  0  0  0  0
   57.3970   31.3670   45.9960 N   0  0  0  0  0  0  0  0  0  0  0  0
   58.6990   31.8420   46.3650 C   0  0  0  0  0  0  0  0  0  0  0  0
   59.1260   33.1490   46.0690 C   0  0  0  0  0  0  0  0  0  0  0  0
   60.4380   33.5400   46.3460 C   0  0  0  0  0  0  0  0  0  0  0  0
   61.3360   32.6360   46.9260 C   0  0  0  0  0  0  0  0  0  0  0  0
   63.0210   33.0900   47.1640 S   0  0  0  0  0  0  0  0  0  0  0  0
   63.3640   34.2060   46.2140 O   0  0  0  0  0  0  0  0  0  0  0  0
   63.8880   31.9110   46.8210 O   0  0  0  0  0  0  0  0  0  0  0  0
   63.3400   33.6300   48.8050 N   0  0  0  0  0  0  0  0  0  0  0  0
   62.2110   34.4090   49.3650 C   0  0  0  0  0  0  0  0  0  0  0  0
   61.1600   33.5760   50.1200 C   0  0  0  0  0  0  0  0  0  0  0  0
   63.8440   32.5540   49.6810 C   0  0  0  0  0  0  0  0  0  0  0  0
   65.3540   32.6810   49.8610 C   0  0  0  0  0  0  0  0  0  0  0  0
   60.8980   31.3490   47.2670 C   0  0  0  0  0  0  0  0  0  0  0  0
   59.5840   30.9590   46.9920 C   0  0  0  0  0  0  0  0  0  0  0  0
   59.0720   28.3570   45.1070 C   0  0  0  0  0  0  0  0  0  0  0  0
   59.5530   27.1090   45.5160 C   0  0  0  0  0  0  0  0  0  0  0  0
   58.3263   21.1011   45.0840 H   0  0  0  0  0  0  0  0  0  0  0  0
   57.3357   21.5619   43.6581 H   0  0  0  0  0  0  0  0  0  0  0  0
   59.1060   21.8664   43.6581 H   0  0  0  0  0  0  0  0  0  0  0  0
   57.7232   23.9344   44.0892 H   0  0  0  0  0  0  0  0  0  0  0  0
   57.1250   23.1571   45.6010 H   0  0  0  0  0  0  0  0  0  0  0  0
   56.5950   25.6480   46.4160 H   0  0  0  0  0  0  0  0  0  0  0  0
   55.7325   27.8597   45.6548 H   0  0  0  0  0  0  0  0  0  0  0  0
   58.4242   33.8658   45.6177 H   0  0  0  0  0  0  0  0  0  0  0  0
   60.7670   34.5622   46.1075 H   0  0  0  0  0  0  0  0  0  0  0  0
   62.6223   35.1535   50.0626 H   0  0  0  0  0  0  0  0  0  0  0  0
   61.6901   34.8577   48.5064 H   0  0  0  0  0  0  0  0  0  0  0  0
   61.3083   33.6936   51.2036 H   0  0  0  0  0  0  0  0  0  0  0  0
   60.1524   33.9234   49.8480 H   0  0  0  0  0  0  0  0  0  0  0  0
   61.2681   32.5157   49.8480 H   0  0  0  0  0  0  0  0  0  0  0  0
   63.3541   32.6264   50.6632 H   0  0  0  0  0  0  0  0  0  0  0  0
   63.6194   31.5815   49.2186 H   0  0  0  0  0  0  0  0  0  0  0  0
   65.5949   32.7013   50.9341 H   0  0  0  0  0  0  0  0  0  0  0  0
   65.8530   31.8217   49.3893 H   0  0  0  0  0  0  0  0  0  0  0  0
   65.7025   33.6116   49.3893 H   0  0  0  0  0  0  0  0  0  0  0  0
   61.5896   30.6444   47.7520 H   0  0  0  0  0  0  0  0  0  0  0  0
   59.2438   29.9507   47.2707 H   0  0  0  0  0  0  0  0  0  0  0  0
   59.7714   29.1183   44.7311 H   0  0  0  0  0  0  0  0  0  0  0  0
   60.6272   26.8846   45.4397 H   0  0  0  0  0  0  0  0  0  0  0  0
  1  2  1  0
  2  3  1  0
  3  4  2  0
  3  5  1  0
  5  6  1  0
  6  7  2  0
  7  8  1  0
  8  9  2  0
  9 10  1  0
 10 11  2  0
 10 12  2  0
 10 13  1  0
 13 14  1  0
 14 15  2  0
 15 16  1  0
 16 17  2  0
 17 18  1  0
 18 19  2  0
 18 20  2  0
 18 21  1  0
 21 22  1  0
 22 23  1  0
 21 24  1  0
 24 25  1  0
 17 26  1  0
 26 27  2  0
  9 28  1  0
 28 29  2  0
 29  6  1  0
 27 14  1  0
  1 30  1  0
  1 31  1  0
  1 32  1  0
  2 33  1  0
  2 34  1  0
  7 35  1  0
  8 36  1  0
 15 37  1  0
 16 38  1  0
 22 39  1  0
 22 40  1  0
 23 41  1  0
 23 42  1  0
 23 43  1  0
 24 44  1  0
 24 45  1  0
 25 46  1  0
 25 47  1  0
 25 48  1  0
 26 49  1  0
 27 50  1  0
 28 51  1  0
 29 52  1  0
M  CHG  2   5  -1  13  -1
M  END
>  <UniqueID>  (1) 
1

>  <SMILES>  (1) 
CCC(=O)[N-]c1ccc(S(=O)(=O)[N-]c2ccc(S(=O)(=O)N(CC)CC)cc2)cc1

>  <Energy>  (1) 
55.8506461664829

>  <Genealogy>  (1) 
CCC(=O)[N-]c1ccc(S(=O)(=O)[N-]c2ccc(S(=O)(=O)N(CC)CC)cc2)cc1 (protonated)
CCC(=O)[N-]c1ccc(S(=O)(=O)[N-]c2ccc(S(=O)(=O)N(CC)CC)cc2)cc1 (3D coordinates assigned)
CCC(=O)[N-]c1ccc(S(=O)(=O)[N-]c2ccc(S(=O)(=O)N(CC)CC)cc2)cc1 (optimized conformer: 55.8506461664829 kcal/mol)

>  <smiles>  (1) 
CCC(=O)Nc1ccc(S(=O)(=O)Nc2ccc(S(=O)(=O)N(CC)CC)cc2)cc1

>  <score_type>  (1) 
oracle

>  <origin>  (1) 
adg

>  <m_score__min__energy>  (1) 
-10.720000000000001

>  <m_primary>  (1) 
energy

$$$$
1:0
     RDKit          3D

 26 27  0  0  0  0  0  0  0  0999 V2000
   59.0980   29.1640   47.0170 O   0  0  0  0  0  0  0  0  0  0  0  0
   58.7440   28.4300   46.0720 N   0  0  0  0  0  0  0  0  0  0  0  0
   57.7130   27.4380   46.2000 C   0  0  0  0  0  0  0  0  0  0  0  0
   56.4060   27.6030   45.6810 C   0  0  0  0  0  0  0  0  0  0  0  0
   55.9630   28.8510   45.1240 N   0  0  0  0  0  0  0  0  0  0  0  0
   56.4100   29.3180   43.8130 C   0  0  0  0  0  0  0  0  0  0  0  0
   57.1020   30.6460   43.9450 C   0  0  0  0  0  0  0  0  0  0  0  0
   57.3200   31.4410   42.8070 C   0  0  0  0  0  0  0  0  0  0  0  0
   57.9340   32.6920   42.9280 C   0  0  0  0  0  0  0  0  0  0  0  0
   58.3260   33.1600   44.1850 C   0  0  0  0  0  0  0  0  0  0  0  0
   58.1040   32.3800   45.3230 C   0  0  0  0  0  0  0  0  0  0  0  0
   57.4910   31.1280   45.2060 C   0  0  0  0  0  0  0  0  0  0  0  0
   55.5260   26.5680   45.7660 N   0  0  0  0  0  0  0  0  0  0  0  0
   55.8610   25.3940   46.3540 C   0  0  0  0  0  0  0  0  0  0  0  0
   55.0240   24.4560   46.4110 O   0  0  0  0  0  0  0  0  0  0  0  0
   57.0970   25.2300   46.8870 N   0  0  0  0  0  0  0  0  0  0  0  0
   58.0220   26.2220   46.8270 C   0  0  0  0  0  0  0  0  0  0  0  0
   59.1640   26.0340   47.3230 O   0  0  0  0  0  0  0  0  0  0  0  0
   55.2280   29.4080   45.6110 H   0  0  0  0  0  0  0  0  0  0  0  0
   57.1091   28.5846   43.3847 H   0  0  0  0  0  0  0  0  0  0  0  0
   55.5362   29.4317   43.1546 H   0  0  0  0  0  0  0  0  0  0  0  0
   57.0065   31.0781   41.8170 H   0  0  0  0  0  0  0  0  0  0  0  0
   58.1083   33.3077   42.0333 H   0  0  0  0  0  0  0  0  0  0  0  0
   58.8098   34.1434   44.2788 H   0  0  0  0  0  0  0  0  0  0  0  0
   58.4116   32.7509   46.3119 H   0  0  0  0  0  0  0  0  0  0  0  0
   57.3129   30.5188   46.1044 H   0  0  0  0  0  0  0  0  0  0  0  0
  1  2  2  0
  2  3  1  0
  3  4  2  0
  4  5  1  0
  5  6  1  0
  6  7  1  0
  7  8  2  0
  8  9  1  0
  9 10  2  0
 10 11  1  0
 11 12  2  0
  4 13  1  0
 13 14  1  0
 14 15  2  0
 14 16  1  0
 16 17  1  0
 17 18  2  0
 17  3  1  0
 12  7  1  0
  5 19  1  0
  6 20  1  0
  6 21  1  0
  8 22  1  0
  9 23  1  0
 10 24  1  0
 11 25  1  0
 12 26  1  0
M  CHG  2  13  -1  16  -1
M  END
>  <UniqueID>  (2) 
2

>  <SMILES>  (2) 
O=Nc1c(NCc2ccccc2)[n-]c(=O)[n-]c1=O

>  <Energy>  (2) 
31.680575735573942

>  <Genealogy>  (2) 
O=Nc1c(NCc2ccccc2)[n-]c(=O)[n-]c1=O (protonated)
O=Nc1c(NCc2ccccc2)[n-]c(=O)[n-]c1=O (3D coordinates assigned)
O=Nc1c(NCc2ccccc2)[n-]c(=O)[n-]c1=O (optimized conformer: 31.680575735573942 kcal/mol)

>  <smiles>  (2) 
O=Nc1c(NCc2ccccc2)[nH]c(=O)[nH]c1=O

>  <score_type>  (2) 
oracle

>  <origin>  (2) 
adg

>  <m_score__min__energy>  (2) 
-10.69

>  <m_primary>  (2) 
energy

$$$$
2:0
     RDKit          3D

 64 67  0  0  0  0  0  0  0  0999 V2000
   66.1760   32.8780   49.9210 C   0  0  0  0  0  0  0  0  0  0  0  0
   64.9190   32.1400   49.7060 N   0  0  0  0  0  0  0  0  0  0  0  0
   64.0990   32.7790   48.6460 C   0  0  0  0  0  0  0  0  0  0  0  0
   62.6000   32.6990   48.9420 C   0  0  0  0  0  0  0  0  0  0  0  0
   62.3010   33.4130   50.1970 N   0  0  0  0  0  0  0  0  0  0  0  0
   60.8750   33.2630   50.5550 C   0  0  0  0  0  0  0  0  0  0  0  0
   59.9880   33.3960   49.3310 C   0  0  0  0  0  0  0  0  0  0  0  0
   60.0020   34.6230   48.6420 C   0  0  0  0  0  0  0  0  0  0  0  0
   59.2770   34.7930   47.4650 C   0  0  0  0  0  0  0  0  0  0  0  0
   58.5400   33.7320   46.9320 C   0  0  0  0  0  0  0  0  0  0  0  0
   57.8630   33.8790   45.6260 C   0  0  0  0  0  0  0  0  0  0  0  0
   58.1080   34.8870   44.9120 O   0  0  0  0  0  0  0  0  0  0  0  0
   56.9050   32.9160   45.1660 N   0  0  0  0  0  0  0  0  0  0  0  0
   57.2140   31.5910   44.7080 C   0  0  0  0  0  0  0  0  0  0  0  0
   56.2720   30.8150   44.0110 C   0  0  0  0  0  0  0  0  0  0  0  0
   56.6010   29.5280   43.5790 C   0  0  0  0  0  0  0  0  0  0  0  0
   57.8640   29.0000   43.8450 C   0  0  0  0  0  0  0  0  0  0  0  0
   58.8100   29.7560   44.5580 C   0  0  0  0  0  0  0  0  0  0  0  0
   60.1650   29.1710   44.8590 C   0  0  0  0  0  0  0  0  0  0  0  0
   60.0900   27.7470   44.9500 O   0  0  0  0  0  0  0  0  0  0  0  0
   59.2780   27.0330   45.8470 C   0  0  0  0  0  0  0  0  0  0  0  0
   59.7870   26.7410   47.1130 C   0  0  0  0  0  0  0  0  0  0  0  0
   59.0400   26.0510   48.0110 N   0  0  0  0  0  0  0  0  0  0  0  0
   57.7850   25.6210   47.7200 C   0  0  0  0  0  0  0  0  0  0  0  0
   57.2180   25.8850   46.4640 C   0  0  0  0  0  0  0  0  0  0  0  0
   55.8510   25.4150   46.1390 C   0  0  0  0  0  0  0  0  0  0  0  0
   54.7710   26.3380   46.0360 N   0  0  0  0  0  0  0  0  0  0  0  0
   55.6290   24.1860   45.9540 O   0  0  0  0  0  0  0  0  0  0  0  0
   57.9800   26.5980   45.5250 C   0  0  0  0  0  0  0  0  0  0  0  0
   58.4710   31.0440   45.0020 C   0  0  0  0  0  0  0  0  0  0  0  0
   58.4800   32.5190   47.6290 C   0  0  0  0  0  0  0  0  0  0  0  0
   59.1650   32.3380   48.8470 C   0  0  0  0  0  0  0  0  0  0  0  0
   59.0700   30.9830   49.5340 C   0  0  0  0  0  0  0  0  0  0  0  0
   58.2250   31.0370   50.6290 F   0  0  0  0  0  0  0  0  0  0  0  0
   58.5690   30.0500   48.6430 F   0  0  0  0  0  0  0  0  0  0  0  0
   60.3040   30.5630   49.9920 F   0  0  0  0  0  0  0  0  0  0  0  0
   63.2190   33.0610   51.3180 C   0  0  0  0  0  0  0  0  0  0  0  0
   64.1970   31.9180   50.9820 C   0  0  0  0  0  0  0  0  0  0  0  0
   66.3583   32.9850   51.0005 H   0  0  0  0  0  0  0  0  0  0  0  0
   67.0088   32.3254   49.4615 H   0  0  0  0  0  0  0  0  0  0  0  0
   66.0993   33.8745   49.4615 H   0  0  0  0  0  0  0  0  0  0  0  0
   64.3875   33.8375   48.5658 H   0  0  0  0  0  0  0  0  0  0  0  0
   64.2850   32.2388   47.7060 H   0  0  0  0  0  0  0  0  0  0  0  0
   62.0393   33.1612   48.1162 H   0  0  0  0  0  0  0  0  0  0  0  0
   62.3054   31.6442   49.0446 H   0  0  0  0  0  0  0  0  0  0  0  0
   60.7199   32.2714   51.0051 H   0  0  0  0  0  0  0  0  0  0  0  0
   60.6082   34.0570   51.2680 H   0  0  0  0  0  0  0  0  0  0  0  0
   60.5945   35.4605   49.0390 H   0  0  0  0  0  0  0  0  0  0  0  0
   59.2845   35.7665   46.9528 H   0  0  0  0  0  0  0  0  0  0  0  0
   55.2714   31.2229   43.8048 H   0  0  0  0  0  0  0  0  0  0  0  0
   55.8615   28.9291   43.0272 H   0  0  0  0  0  0  0  0  0  0  0  0
   58.1205   27.9889   43.4957 H   0  0  0  0  0  0  0  0  0  0  0  0
   60.8638   29.4454   44.0550 H   0  0  0  0  0  0  0  0  0  0  0  0
   60.5169   29.5695   45.8220 H   0  0  0  0  0  0  0  0  0  0  0  0
   60.8002   27.0723   47.3846 H   0  0  0  0  0  0  0  0  0  0  0  0
   57.2098   25.0626   48.4732 H   0  0  0  0  0  0  0  0  0  0  0  0
   54.6400   27.0890   46.7470 H   0  0  0  0  0  0  0  0  0  0  0  0
   57.5597   26.8175   44.5324 H   0  0  0  0  0  0  0  0  0  0  0  0
   59.1975   31.6288   45.5853 H   0  0  0  0  0  0  0  0  0  0  0  0
   57.8857   31.6901   47.2171 H   0  0  0  0  0  0  0  0  0  0  0  0
   63.8053   33.9540   51.5802 H   0  0  0  0  0  0  0  0  0  0  0  0
   62.5907   32.7122   52.1508 H   0  0  0  0  0  0  0  0  0  0  0  0
   64.9344   31.8356   51.7940 H   0  0  0  0  0  0  0  0  0  0  0  0
   63.6066   30.9962   50.8740 H   0  0  0  0  0  0  0  0  0  0  0  0
  1  2  1  0
  2  3  1  0
  3  4  1  0
  4  5  1  0
  5  6  1  0
  6  7  1  0
  7  8  2  0
  8  9  1  0
  9 10  2  0
 10 11  1  0
 11 12  2  0
 11 13  1  0
 13 14  1  0
 14 15  2  0
 15 16  1  0
 16 17  2  0
 17 18  1  0
 18 19  1  0
 19 20  1  0
 20 21  1  0
 21 22  2  0
 22 23  1  0
 23 24  2  0
 24 25  1  0
 25 26  1  0
 26 27  1  0
 26 28  2  0
 25 29  2  0
 18 30  2  0
 10 31  1  0
 31 32  2  0
 32 33  1  0
 33 34  1  0
 33 35  1  0
 33 36  1  0
  5 37  1  0
 37 38  1  0
 38  2  1  0
 32  7  1  0
 30 14  1  0
 29 21  1  0
  1 39  1  0
  1 40  1  0
  1 41  1  0
  3 42  1  0
  3 43  1  0
  4 44  1  0
  4 45  1  0
  6 46  1  0
  6 47  1  0
  8 48  1  0
  9 49  1  0
 15 50  1  0
 16 51  1  0
 17 52  1  0
 19 53  1  0
 19 54  1  0
 22 55  1  0
 24 56  1  0
 27 57  1  0
 29 58  1  0
 30 59  1  0
 31 60  1  0
 37 61  1  0
 37 62  1  0
 38 63  1  0
 38 64  1  0
M  CHG  2  13  -1  27  -1
M  END
>  <UniqueID>  (3) 
3

>  <SMILES>  (3) 
CN1CCN(Cc2ccc(C(=O)[N-]c3cccc(COc4cncc(C([NH-])=O)c4)c3)cc2C(F)(F)F)CC1

>  <Energy>  (3) 
89.45642259585507

>  <Genealogy>  (3) 
CN1CCN(Cc2ccc(C(=O)[N-]c3cccc(COc4cncc(C([NH-])=O)c4)c3)cc2C(F)(F)F)CC1 (protonated)
CN1CCN(Cc2ccc(C(=O)[N-]c3cccc(COc4cncc(C([NH-])=O)c4)c3)cc2C(F)(F)F)CC1 (3D coordinates assigned)
CN1CCN(Cc2ccc(C(=O)[N-]c3cccc(COc4cncc(C([NH-])=O)c4)c3)cc2C(F)(F)F)CC1 (nonaromatic ring conformer: 89.45642259585507 kcal/mol)

>  <smiles>  (3) 
CN1CCN(Cc2ccc(C(=O)Nc3cccc(COc4cncc(C(N)=O)c4)c3)cc2C(F)(F)F)CC1

>  <score_type>  (3) 
oracle

>  <origin>  (3) 
adg

>  <m_score__min__energy>  (3) 
-14.130000000000001

>  <m_primary>  (3) 
energy

$$$$
3:0
     RDKit          3D

 43 45  0  0  0  0  0  0  0  0999 V2000
   57.7430   32.1010   45.0330 C   0  0  0  0  0  0  0  0  0  0  0  0
   58.6110   32.8790   45.9780 C   0  0  0  0  0  0  0  0  0  0  0  0
   58.3890   34.2500   46.1850 C   0  0  0  0  0  0  0  0  0  0  0  0
   59.2230   34.9730   47.0420 C   0  0  0  0  0  0  0  0  0  0  0  0
   60.2960   34.3410   47.6780 C   0  0  0  0  0  0  0  0  0  0  0  0
   60.5400   32.9770   47.4690 C   0  0  0  0  0  0  0  0  0  0  0  0
   61.6530   32.3700   48.1410 N   0  0  0  0  0  0  0  0  0  0  0  0
   61.7110   31.9800   49.8300 S   0  0  0  0  0  0  0  0  0  0  0  0
   62.5270   33.0150   50.5530 O   0  0  0  0  0  0  0  0  0  0  0  0
   62.3680   30.6400   50.0040 O   0  0  0  0  0  0  0  0  0  0  0  0
   60.0750   31.8990   50.4800 C   0  0  0  0  0  0  0  0  0  0  0  0
   59.5820   32.9170   51.3090 C   0  0  0  0  0  0  0  0  0  0  0  0
   58.2730   32.8550   51.7930 C   0  0  0  0  0  0  0  0  0  0  0  0
   57.4470   31.7680   51.4750 C   0  0  0  0  0  0  0  0  0  0  0  0
   56.0940   31.7430   51.9600 N   0  0  0  0  0  0  0  0  0  0  0  0
   55.3150   30.5440   52.1020 C   0  0  0  0  0  0  0  0  0  0  0  0
   55.8900   29.4230   52.1450 O   0  0  0  0  0  0  0  0  0  0  0  0
   53.8420   30.6110   52.2310 C   0  0  0  0  0  0  0  0  0  0  0  0
   53.1450   29.6720   53.0170 C   0  0  0  0  0  0  0  0  0  0  0  0
   51.7550   29.7550   53.1510 C   0  0  0  0  0  0  0  0  0  0  0  0
   51.0460   30.7660   52.5020 C   0  0  0  0  0  0  0  0  0  0  0  0
   51.7260   31.7050   51.7180 C   0  0  0  0  0  0  0  0  0  0  0  0
   51.0190   32.7070   51.0620 O   0  0  0  0  0  0  0  0  0  0  0  0
   53.1180   31.6340   51.5900 C   0  0  0  0  0  0  0  0  0  0  0  0
   57.9420   30.7540   50.6340 C   0  0  0  0  0  0  0  0  0  0  0  0
   59.2490   30.8190   50.1450 C   0  0  0  0  0  0  0  0  0  0  0  0
   59.6870   32.2470   46.6230 C   0  0  0  0  0  0  0  0  0  0  0  0
   57.0446   31.4750   45.6077 H   0  0  0  0  0  0  0  0  0  0  0  0
   57.1746   32.7977   44.3993 H   0  0  0  0  0  0  0  0  0  0  0  0
   58.3735   31.4600   44.3993 H   0  0  0  0  0  0  0  0  0  0  0  0
   57.5576   34.7555   45.6719 H   0  0  0  0  0  0  0  0  0  0  0  0
   59.0348   36.0426   47.2168 H   0  0  0  0  0  0  0  0  0  0  0  0
   60.9523   34.9178   48.3462 H   0  0  0  0  0  0  0  0  0  0  0  0
   60.2273   33.7660   51.5787 H   0  0  0  0  0  0  0  0  0  0  0  0
   57.8874   33.6656   52.4287 H   0  0  0  0  0  0  0  0  0  0  0  0
   55.6920   32.6340   52.3310 H   0  0  0  0  0  0  0  0  0  0  0  0
   53.6969   28.8693   53.5280 H   0  0  0  0  0  0  0  0  0  0  0  0
   51.2192   29.0205   53.7703 H   0  0  0  0  0  0  0  0  0  0  0  0
   49.9526   30.8252   52.6064 H   0  0  0  0  0  0  0  0  0  0  0  0
   53.6498   32.3826   50.9844 H   0  0  0  0  0  0  0  0  0  0  0  0
   57.2967   29.9062   50.3604 H   0  0  0  0  0  0  0  0  0  0  0  0
   59.6308   30.0186   49.4942 H   0  0  0  0  0  0  0  0  0  0  0  0
   59.8635   31.1728   46.4649 H   0  0  0  0  0  0  0  0  0  0  0  0
  1  2  1  0
  2  3  2  0
  3  4  1  0
  4  5  2  0
  5  6  1  0
  6  7  1  0
  7  8  1  0
  8  9  2  0
  8 10  2  0
  8 11  1  0
 11 12  2  0
 12 13  1  0
 13 14  2  0
 14 15  1  0
 15 16  1  0
 16 17  2  0
 16 18  1  0
 18 19  2  0
 19 20  1  0
 20 21  2  0
 21 22  1  0
 22 23  1  0
 22 24  2  0
 14 25  1  0
 25 26  2  0
  6 27  2  0
 27  2  1  0
 26 11  1  0
 24 18  1  0
  1 28  1  0
  1 29  1  0
  1 30  1  0
  3 31  1  0
  4 32  1  0
  5 33  1  0
 12 34  1  0
 13 35  1  0
 15 36  1  0
 19 37  1  0
 20 38  1  0
 21 39  1  0
 24 40  1  0
 25 41  1  0
 26 42  1  0
 27 43  1  0
M  CHG  2   7  -1  23  -1
M  END
>  <UniqueID>  (4) 
4

>  <SMILES>  (4) 
Cc1cccc([N-]S(=O)(=O)c2ccc(NC(=O)c3cccc([O-])c3)cc2)c1

>  <Energy>  (4) 
53.758544385824294

>  <Genealogy>  (4) 
Cc1cccc([N-]S(=O)(=O)c2ccc(NC(=O)c3cccc([O-])c3)cc2)c1 (protonated)
Cc1cccc([N-]S(=O)(=O)c2ccc(NC(=O)c3cccc([O-])c3)cc2)c1 (3D coordinates assigned)
Cc1cccc([N-]S(=O)(=O)c2ccc(NC(=O)c3cccc([O-])c3)cc2)c1 (optimized conformer: 53.758544385824294 kcal/mol)

>  <smiles>  (4) 
Cc1cccc(NS(=O)(=O)c2ccc(NC(=O)c3cccc(O)c3)cc2)c1

>  <score_type>  (4) 
oracle

>  <origin>  (4) 
adg

>  <m_score__min__energy>  (4) 
-13.26

>  <m_primary>  (4) 
energy

$$$$
4:0
     RDKit          3D

 43 45  0  0  0  0  0  0  0  0999 V2000
   58.9070   32.9530   50.9740 C   0  0  0  0  0  0  0  0  0  0  0  0
   59.9110   31.8200   50.8410 C   0  0  0  0  0  0  0  0  0  0  0  0
   59.8020   31.2360   49.5480 O   0  0  0  0  0  0  0  0  0  0  0  0
   58.9020   30.2070   49.2570 C   0  0  0  0  0  0  0  0  0  0  0  0
   58.1660   29.7220   50.1600 O   0  0  0  0  0  0  0  0  0  0  0  0
   58.7780   29.7090   47.8530 C   0  0  0  0  0  0  0  0  0  0  0  0
   58.6290   30.8730   46.8970 C   0  0  0  0  0  0  0  0  0  0  0  0
   59.1430   32.0820   47.2690 N   0  0  0  0  0  0  0  0  0  0  0  0
   59.0820   33.1640   46.4840 N   0  0  0  0  0  0  0  0  0  0  0  0
   59.6980   34.4170   46.9570 C   0  0  0  0  0  0  0  0  0  0  0  0
   61.1130   34.1610   47.4000 C   0  0  0  0  0  0  0  0  0  0  0  0
   61.4440   34.1980   48.7650 C   0  0  0  0  0  0  0  0  0  0  0  0
   62.7500   33.9240   49.1810 C   0  0  0  0  0  0  0  0  0  0  0  0
   63.7330   33.6050   48.2400 C   0  0  0  0  0  0  0  0  0  0  0  0
   63.4100   33.5590   46.8820 C   0  0  0  0  0  0  0  0  0  0  0  0
   62.1050   33.8320   46.4610 C   0  0  0  0  0  0  0  0  0  0  0  0
   58.5120   33.0960   45.2410 C   0  0  0  0  0  0  0  0  0  0  0  0
   58.4710   34.1210   44.5030 O   0  0  0  0  0  0  0  0  0  0  0  0
   57.9770   31.8820   44.7840 C   0  0  0  0  0  0  0  0  0  0  0  0
   57.3920   31.7800   43.5050 C   0  0  0  0  0  0  0  0  0  0  0  0
   56.8770   30.5640   43.0580 C   0  0  0  0  0  0  0  0  0  0  0  0
   56.9390   29.4370   43.8740 C   0  0  0  0  0  0  0  0  0  0  0  0
   57.5130   29.5190   45.1440 C   0  0  0  0  0  0  0  0  0  0  0  0
   58.0370   30.7420   45.6200 C   0  0  0  0  0  0  0  0  0  0  0  0
   58.7250   33.1584   52.0392 H   0  0  0  0  0  0  0  0  0  0  0  0
   59.3069   33.8560   50.4895 H   0  0  0  0  0  0  0  0  0  0  0  0
   57.9625   32.6647   50.4895 H   0  0  0  0  0  0  0  0  0  0  0  0
   60.9285   32.2141   50.9803 H   0  0  0  0  0  0  0  0  0  0  0  0
   59.7043   31.0567   51.6056 H   0  0  0  0  0  0  0  0  0  0  0  0
   59.6791   29.1357   47.5899 H   0  0  0  0  0  0  0  0  0  0  0  0
   57.8886   29.0661   47.7773 H   0  0  0  0  0  0  0  0  0  0  0  0
   59.6060   32.1570   48.2040 H   0  0  0  0  0  0  0  0  0  0  0  0
   59.7000   35.1530   46.1395 H   0  0  0  0  0  0  0  0  0  0  0  0
   59.1185   34.8050   47.8076 H   0  0  0  0  0  0  0  0  0  0  0  0
   60.6722   34.4436   49.5093 H   0  0  0  0  0  0  0  0  0  0  0  0
   63.0045   33.9595   50.2506 H   0  0  0  0  0  0  0  0  0  0  0  0
   64.7605   33.3903   48.5688 H   0  0  0  0  0  0  0  0  0  0  0  0
   64.1840   33.3074   46.1420 H   0  0  0  0  0  0  0  0  0  0  0  0
   61.8541   33.7891   45.3909 H   0  0  0  0  0  0  0  0  0  0  0  0
   57.3416   32.6662   42.8553 H   0  0  0  0  0  0  0  0  0  0  0  0
   56.4210   30.4946   42.0594 H   0  0  0  0  0  0  0  0  0  0  0  0
   56.5342   28.4787   43.5165 H   0  0  0  0  0  0  0  0  0  0  0  0
   57.5578   28.6228   45.7803 H   0  0  0  0  0  0  0  0  0  0  0  0
  1  2  1  0
  2  3  1  0
  3  4  1  0
  4  5  2  0
  4  6  1  0
  6  7  1  0
  7  8  2  0
  8  9  1  0
  9 10  1  0
 10 11  1  0
 11 12  2  0
 12 13  1  0
 13 14  2  0
 14 15  1  0
 15 16  2  0
  9 17  1  0
 17 18  2  0
 17 19  1  0
 19 20  2  0
 20 21  1  0
 21 22  2  0
 22 23  1  0
 23 24  2  0
 24  7  1  0
 16 11  1  0
 24 19  1  0
  1 25  1  0
  1 26  1  0
  1 27  1  0
  2 28  1  0
  2 29  1  0
  6 30  1  0
  6 31  1  0
  8 32  1  0
 10 33  1  0
 10 34  1  0
 12 35  1  0
 13 36  1  0
 14 37  1  0
 15 38  1  0
 16 39  1  0
 20 40  1  0
 21 41  1  0
 22 42  1  0
 23 43  1  0
M  CHG  1   8   1
M  END
>  <UniqueID>  (5) 
5

>  <SMILES>  (5) 
CCOC(=O)Cc1[nH+]n(Cc2ccccc2)c(=O)c2ccccc12

>  <Energy>  (5) 
46.010223113599174

>  <Genealogy>  (5) 
CCOC(=O)Cc1[nH+]n(Cc2ccccc2)c(=O)c2ccccc12 (protonated)
CCOC(=O)Cc1[nH+]n(Cc2ccccc2)c(=O)c2ccccc12 (3D coordinates assigned)
CCOC(=O)Cc1[nH+]n(Cc2ccccc2)c(=O)c2ccccc12 (optimized conformer: 46.010223113599174 kcal/mol)

>  <smiles>  (5) 
CCOC(=O)Cc1nn(Cc2ccccc2)c(=O)c2ccccc12

>  <score_type>  (5) 
oracle

>  <origin>  (5) 
adg

>  <m_score__min__energy>  (5) 
-5.8700000000000001

>  <m_primary>  (5) 
energy

$$$$
5:0
     RDKit          3D

 44 46  0  0  0  0  0  0  0  0999 V2000
   57.8253   20.8186   42.6444 H   0  0  0  0  0  0  0  0  0  0  0  0
   57.3960   21.4590   43.4290 C   0  0  0  0  0  0  0  0  0  0  0  0
   56.4500   22.4310   43.0970 C   0  0  0  0  0  0  0  0  0  0  0  0
   56.1344   22.5547   42.0505 H   0  0  0  0  0  0  0  0  0  0  0  0
   55.9040   23.2460   44.0900 C   0  0  0  0  0  0  0  0  0  0  0  0
   55.1623   24.0128   43.8219 H   0  0  0  0  0  0  0  0  0  0  0  0
   56.2970   23.0920   45.4310 C   0  0  0  0  0  0  0  0  0  0  0  0
   55.6680   23.9400   46.5070 C   0  0  0  0  0  0  0  0  0  0  0  0
   55.4534   23.3096   47.3825 H   0  0  0  0  0  0  0  0  0  0  0  0
   54.7398   24.3777   46.1109 H   0  0  0  0  0  0  0  0  0  0  0  0
   56.5620   25.0260   46.9070 N   0  0  0  0  0  0  0  0  0  0  0  0
   56.7090   26.1510   46.2720 C   0  0  0  0  0  0  0  0  0  0  0  0
   55.6630   26.9490   45.9750 N   0  0  0  0  0  0  0  0  0  0  0  0
   56.0590   28.0450   45.2760 C   0  0  0  0  0  0  0  0  0  0  0  0
   55.1470   29.0030   44.8480 O   0  0  0  0  0  0  0  0  0  0  0  0
   57.4270   28.1310   45.0230 C   0  0  0  0  0  0  0  0  0  0  0  0
   58.1360   29.2110   44.2600 C   0  0  0  0  0  0  0  0  0  0  0  0
   57.6684   29.3137   43.2696 H   0  0  0  0  0  0  0  0  0  0  0  0
   59.1949   28.9277   44.1681 H   0  0  0  0  0  0  0  0  0  0  0  0
   58.0640   30.5360   44.9740 C   0  0  0  0  0  0  0  0  0  0  0  0
   57.0080   31.2170   44.8950 O   0  0  0  0  0  0  0  0  0  0  0  0
   59.1450   31.0280   45.7770 N   0  0  0  0  0  0  0  0  0  0  0  0
   59.2590   32.3680   46.2750 C   0  0  0  0  0  0  0  0  0  0  0  0
   59.0010   33.4480   45.4190 C   0  0  0  0  0  0  0  0  0  0  0  0
   58.7501   33.2611   44.3644 H   0  0  0  0  0  0  0  0  0  0  0  0
   59.0600   34.7550   45.8940 C   0  0  0  0  0  0  0  0  0  0  0  0
   58.8720   35.5966   45.2111 H   0  0  0  0  0  0  0  0  0  0  0  0
   59.3570   34.9990   47.2340 C   0  0  0  0  0  0  0  0  0  0  0  0
   59.3903   36.0340   47.6051 H   0  0  0  0  0  0  0  0  0  0  0  0
   59.6140   33.9360   48.1140 C   0  0  0  0  0  0  0  0  0  0  0  0
   59.9440   34.2410   49.5520 C   0  0  0  0  0  0  0  0  0  0  0  0
   59.2974   33.6434   50.2113 H   0  0  0  0  0  0  0  0  0  0  0  0
   60.9974   33.9916   49.7473 H   0  0  0  0  0  0  0  0  0  0  0  0
   59.7782   35.3107   49.7473 H   0  0  0  0  0  0  0  0  0  0  0  0
   59.5790   32.6030   47.6310 C   0  0  0  0  0  0  0  0  0  0  0  0
   59.8800   31.4490   48.5600 C   0  0  0  0  0  0  0  0  0  0  0  0
   59.7922   31.7858   49.6035 H   0  0  0  0  0  0  0  0  0  0  0  0
   59.1644   30.6341   48.3762 H   0  0  0  0  0  0  0  0  0  0  0  0
   60.9025   31.0874   48.3762 H   0  0  0  0  0  0  0  0  0  0  0  0
   58.1670   26.7690   45.6820 S   0  0  0  0  0  0  0  0  0  0  0  0
   57.2530   22.1110   45.7590 C   0  0  0  0  0  0  0  0  0  0  0  0
   57.6610   21.9330   47.0760 O   0  0  0  0  0  0  0  0  0  0  0  0
   57.7970   21.3000   44.7570 C   0  0  0  0  0  0  0  0  0  0  0  0
   58.5432   20.5345   45.0163 H   0  0  0  0  0  0  0  0  0  0  0  0
  1  2  1  0
  2  3  2  0
  3  4  1  0
  3  5  1  0
  5  6  1  0
  5  7  2  0
  7  8  1  0
  8  9  1  0
  8 10  1  0
  8 11  1  0
 11 12  2  0
 12 13  1  0
 13 14  1  0
 14 15  1  0
 14 16  2  0
 16 17  1  0
 17 18  1  0
 17 19  1  0
 17 20  1  0
 20 21  2  0
 20 22  1  0
 22 23  1  0
 23 24  2  0
 24 25  1  0
 24 26  1  0
 26 27  1  0
 26 28  2  0
 28 29  1  0
 28 30  1  0
 30 31  1  0
 31 32  1  0
 31 33  1  0
 31 34  1  0
 30 35  2  0
 35 36  1  0
 36 37  1  0
 36 38  1  0
 36 39  1  0
 16 40  1  0
  7 41  1  0
 41 42  1  0
 41 43  2  0
 43 44  1  0
 43  2  1  0
 40 12  1  0
 35 23  1  0
M  CHG  4  13  -1  15  -1  22  -1  42  -1
M  END
>  <UniqueID>  (6) 
6

>  <SMILES>  (6) 
Cc1cccc([N-]C(=O)Cc2s/c(=N\Cc3ccccc3[O-])[n-]c2[O-])c1C

>  <Energy>  (6) 
76.83799897342227

>  <Genealogy>  (6) 
Cc1cccc([N-]C(=O)Cc2sc(=NCc3ccccc3[O-])[n-]c2[O-])c1C (protonated)
Cc1cccc([N-]C(=O)Cc2s/c(=N\Cc3ccccc3[O-])[n-]c2[O-])c1C (cis-trans isomerization)
Cc1cccc([N-]C(=O)Cc2s/c(=N\Cc3ccccc3[O-])[n-]c2[O-])c1C (3D coordinates assigned)
Cc1cccc([N-]C(=O)Cc2s/c(=N\Cc3ccccc3[O-])[n-]c2[O-])c1C (optimized conformer: 76.83799897342227 kcal/mol)

>  <smiles>  (6) 
Cc1cccc(NC(=O)Cc2sc(=NCc3ccccc3O)[nH]c2O)c1C

>  <score_type>  (6) 
oracle

>  <origin>  (6) 
adg

>  <m_score__min__energy>  (6) 
-17

>  <m_primary>  (6) 
energy

$$$$
6:0
     RDKit          3D

 44 46  0  0  0  0  0  0  0  0999 V2000
   60.7380   32.4510   48.5510 C   0  0  0  0  0  0  0  0  0  0  0  0
   61.4410   31.3900   47.7000 C   0  0  0  0  0  0  0  0  0  0  0  0
   62.9450   31.6560   47.6000 C   0  0  0  0  0  0  0  0  0  0  0  0
   61.0780   29.6840   48.2850 S   0  0  0  0  0  0  0  0  0  0  0  0
   59.7170   29.3100   47.1690 C   0  0  0  0  0  0  0  0  0  0  0  0
   58.4750   30.3780   46.7920 S   0  0  0  0  0  0  0  0  0  0  0  0
   57.7110   29.3880   45.6640 C   0  0  0  0  0  0  0  0  0  0  0  0
   56.4510   29.7340   44.9870 C   0  0  0  0  0  0  0  0  0  0  0  0
   55.5340   28.8770   44.8710 O   0  0  0  0  0  0  0  0  0  0  0  0
   56.2590   31.0610   44.4850 N   0  0  0  0  0  0  0  0  0  0  0  0
   57.2970   31.8180   43.7940 C   0  0  0  0  0  0  0  0  0  0  0  0
   57.8520   32.8830   44.7000 C   0  0  0  0  0  0  0  0  0  0  0  0
   57.3300   33.0450   45.9950 C   0  0  0  0  0  0  0  0  0  0  0  0
   57.8640   34.0120   46.8530 C   0  0  0  0  0  0  0  0  0  0  0  0
   58.9240   34.8180   46.4280 C   0  0  0  0  0  0  0  0  0  0  0  0
   59.4520   34.6580   45.1440 C   0  0  0  0  0  0  0  0  0  0  0  0
   58.9210   33.6930   44.2830 C   0  0  0  0  0  0  0  0  0  0  0  0
   58.4490   28.2030   45.5470 C   0  0  0  0  0  0  0  0  0  0  0  0
   58.1430   27.1610   44.6070 N   0  0  0  0  0  0  0  0  0  0  0  0
   57.7220   25.9170   44.9060 C   0  0  0  0  0  0  0  0  0  0  0  0
   57.4870   25.2130   43.7420 C   0  0  0  0  0  0  0  0  0  0  0  0
   57.7710   26.0730   42.6970 C   0  0  0  0  0  0  0  0  0  0  0  0
   58.1670   27.2670   43.2650 C   0  0  0  0  0  0  0  0  0  0  0  0
   59.5780   28.1670   46.3890 C   0  0  0  0  0  0  0  0  0  0  0  0
   60.5440   27.0970   46.3850 C   0  0  0  0  0  0  0  0  0  0  0  0
   61.3200   26.2390   46.3820 N   0  0  0  0  0  0  0  0  0  0  0  0
   60.8880   32.2246   49.6169 H   0  0  0  0  0  0  0  0  0  0  0  0
   61.1592   33.4414   48.3237 H   0  0  0  0  0  0  0  0  0  0  0  0
   59.6617   32.4493   48.3237 H   0  0  0  0  0  0  0  0  0  0  0  0
   61.0305   31.4662   46.6823 H   0  0  0  0  0  0  0  0  0  0  0  0
   63.3720   31.7315   48.6109 H   0  0  0  0  0  0  0  0  0  0  0  0
   63.4284   30.8294   47.0586 H   0  0  0  0  0  0  0  0  0  0  0  0
   63.1155   32.5982   47.0586 H   0  0  0  0  0  0  0  0  0  0  0  0
   58.1069   31.1359   43.4959 H   0  0  0  0  0  0  0  0  0  0  0  0
   56.8615   32.2948   42.9035 H   0  0  0  0  0  0  0  0  0  0  0  0
   56.4990   32.4094   46.3347 H   0  0  0  0  0  0  0  0  0  0  0  0
   57.4491   34.1384   47.8639 H   0  0  0  0  0  0  0  0  0  0  0  0
   59.3425   35.5781   47.1041 H   0  0  0  0  0  0  0  0  0  0  0  0
   60.2865   35.2922   44.8103 H   0  0  0  0  0  0  0  0  0  0  0  0
   59.3422   33.5675   43.2746 H   0  0  0  0  0  0  0  0  0  0  0  0
   57.5860   25.5219   45.9235 H   0  0  0  0  0  0  0  0  0  0  0  0
   57.1415   24.1718   43.6615 H   0  0  0  0  0  0  0  0  0  0  0  0
   57.6960   25.8492   41.6226 H   0  0  0  0  0  0  0  0  0  0  0  0
   58.4581   28.1685   42.7060 H   0  0  0  0  0  0  0  0  0  0  0  0
  1  2  1  0
  2  3  1  0
  2  4  1  0
  4  5  1  0
  5  6  1  0
  6  7  1  0
  7  8  1  0
  8  9  2  0
  8 10  1  0
 10 11  1  0
 11 12  1  0
 12 13  2  0
 13 14  1  0
 14 15  2  0
 15 16  1  0
 16 17  2  0
  7 18  2  0
 18 19  1  0
 19 20  1  0
 20 21  2  0
 21 22  1  0
 22 23  2  0
 18 24  1  0
 24 25  1  0
 25 26  3  0
 24  5  2  0
 17 12  1  0
 23 19  1  0
  1 27  1  0
  1 28  1  0
  1 29  1  0
  2 30  1  0
  3 31  1  0
  3 32  1  0
  3 33  1  0
 11 34  1  0
 11 35  1  0
 13 36  1  0
 14 37  1  0
 15 38  1  0
 16 39  1  0
 17 40  1  0
 20 41  1  0
 21 42  1  0
 22 43  1  0
 23 44  1  0
M  CHG  1  10  -1
M  END
>  <UniqueID>  (7) 
7

>  <SMILES>  (7) 
CC(C)Sc1sc(C(=O)[N-]Cc2ccccc2)c(-n2cccc2)c1C#N

>  <Energy>  (7) 
94.48738867023509

>  <Genealogy>  (7) 
CC(C)Sc1sc(C(=O)[N-]Cc2ccccc2)c(-n2cccc2)c1C#N (protonated)
CC(C)Sc1sc(C(=O)[N-]Cc2ccccc2)c(-n2cccc2)c1C#N (3D coordinates assigned)
CC(C)Sc1sc(C(=O)[N-]Cc2ccccc2)c(-n2cccc2)c1C#N (optimized conformer: 94.48738867023509 kcal/mol)

>  <smiles>  (7) 
CC(C)Sc1sc(C(=O)NCc2ccccc2)c(-n2cccc2)c1C#N

>  <score_type>  (7) 
oracle

>  <origin>  (7) 
adg

>  <m_score__min__energy>  (7) 
-9.25

>  <m_primary>  (7) 
energy

$$$$
7:0
     RDKit          3D

 28 30  0  0  0  0  0  0  0  0999 V2000
   56.6950   34.4100   44.7050 O   0  0  0  0  0  0  0  0  0  0  0  0
   57.6900   33.6850   44.9720 C   0  0  0  0  0  0  0  0  0  0  0  0
   57.8790   32.4710   44.2350 N   0  0  0  0  0  0  0  0  0  0  0  0
   57.3300   31.1900   44.5760 C   0  0  0  0  0  0  0  0  0  0  0  0
   57.9720   30.3260   45.4830 C   0  0  0  0  0  0  0  0  0  0  0  0
   57.4000   29.0910   45.8040 C   0  0  0  0  0  0  0  0  0  0  0  0
   56.1780   28.7160   45.2360 C   0  0  0  0  0  0  0  0  0  0  0  0
   55.6110   27.4890   45.5550 O   0  0  0  0  0  0  0  0  0  0  0  0
   55.5240   29.5800   44.3520 C   0  0  0  0  0  0  0  0  0  0  0  0
   56.0950   30.8150   44.0290 C   0  0  0  0  0  0  0  0  0  0  0  0
   58.6400   34.1150   45.9630 N   0  0  0  0  0  0  0  0  0  0  0  0
   59.5210   35.1450   45.8840 C   0  0  0  0  0  0  0  0  0  0  0  0
   59.6310   35.8880   44.8720 O   0  0  0  0  0  0  0  0  0  0  0  0
   60.2620   35.3290   47.0050 N   0  0  0  0  0  0  0  0  0  0  0  0
   59.8030   34.3610   47.8200 C   0  0  0  0  0  0  0  0  0  0  0  0
   60.2230   34.0780   49.1180 C   0  0  0  0  0  0  0  0  0  0  0  0
   59.6080   33.0040   49.7870 C   0  0  0  0  0  0  0  0  0  0  0  0
   58.6010   32.2440   49.1490 C   0  0  0  0  0  0  0  0  0  0  0  0
   58.1980   32.5530   47.8360 C   0  0  0  0  0  0  0  0  0  0  0  0
   58.8220   33.6320   47.2040 C   0  0  0  0  0  0  0  0  0  0  0  0
   58.9270   30.6233   45.9409 H   0  0  0  0  0  0  0  0  0  0  0  0
   57.9115   28.4138   46.5038 H   0  0  0  0  0  0  0  0  0  0  0  0
   54.5598   29.2880   43.9104 H   0  0  0  0  0  0  0  0  0  0  0  0
   55.5720   31.4962   43.3417 H   0  0  0  0  0  0  0  0  0  0  0  0
   61.0094   34.6745   49.6036 H   0  0  0  0  0  0  0  0  0  0  0  0
   59.9129   32.7538   50.8139 H   0  0  0  0  0  0  0  0  0  0  0  0
   58.1292   31.4055   49.6822 H   0  0  0  0  0  0  0  0  0  0  0  0
   57.4199   31.9662   47.3258 H   0  0  0  0  0  0  0  0  0  0  0  0
  1  2  2  0
  2  3  1  0
  3  4  1  0
  4  5  2  0
  5  6  1  0
  6  7  2  0
  7  8  1  0
  7  9  1  0
  9 10  2  0
  2 11  1  0
 11 12  1  0
 12 13  2  0
 12 14  1  0
 14 15  1  0
 15 16  2  0
 16 17  1  0
 17 18  2  0
 18 19  1  0
 19 20  2  0
 10  4  1  0
 20 11  1  0
 20 15  1  0
  5 21  1  0
  6 22  1  0
  9 23  1  0
 10 24  1  0
 16 25  1  0
 17 26  1  0
 18 27  1  0
 19 28  1  0
M  CHG  3   3  -1   8  -1  14  -1
M  END
>  <UniqueID>  (8) 
8

>  <SMILES>  (8) 
O=C([N-]c1ccc([O-])cc1)n1c(=O)[n-]c2ccccc21

>  <Energy>  (8) 
76.92946257543423

>  <Genealogy>  (8) 
O=C([N-]c1ccc([O-])cc1)n1c(=O)[n-]c2ccccc21 (protonated)
O=C([N-]c1ccc([O-])cc1)n1c(=O)[n-]c2ccccc21 (3D coordinates assigned)
O=C([N-]c1ccc([O-])cc1)n1c(=O)[n-]c2ccccc21 (optimized conformer: 76.92946257543423 kcal/mol)

>  <smiles>  (8) 
O=C(Nc1ccc(O)cc1)n1c(=O)[nH]c2ccccc21

>  <score_type>  (8) 
oracle

>  <origin>  (8) 
adg

>  <m_score__min__energy>  (8) 
-11.51

>  <m_primary>  (8) 
energy

$$$$
8:0
     RDKit          3D

 44 46  0  0  0  0  0  0  0  0999 V2000
   59.3930   34.5340   44.8860 C   0  0  0  0  0  0  0  0  0  0  0  0
   58.5900   33.2890   44.6510 C   0  0  0  0  0  0  0  0  0  0  0  0
   58.1960   32.4850   45.7280 C   0  0  0  0  0  0  0  0  0  0  0  0
   57.4140   31.3430   45.5100 C   0  0  0  0  0  0  0  0  0  0  0  0
   56.9840   31.0050   44.2130 C   0  0  0  0  0  0  0  0  0  0  0  0
   56.0530   29.8650   44.0180 C   0  0  0  0  0  0  0  0  0  0  0  0
   55.5710   29.6460   42.8720 O   0  0  0  0  0  0  0  0  0  0  0  0
   55.7510   28.9400   45.0710 N   0  0  0  0  0  0  0  0  0  0  0  0
   56.6460   27.9570   45.6100 C   0  0  0  0  0  0  0  0  0  0  0  0
   58.0160   28.2280   45.7820 C   0  0  0  0  0  0  0  0  0  0  0  0
   58.8550   27.2710   46.3730 C   0  0  0  0  0  0  0  0  0  0  0  0
   60.5600   27.6100   46.6510 S   0  0  0  0  0  0  0  0  0  0  0  0
   61.3570   26.3400   46.7270 O   0  0  0  0  0  0  0  0  0  0  0  0
   61.0870   28.4090   45.4900 O   0  0  0  0  0  0  0  0  0  0  0  0
   60.7380   28.5590   48.0960 N   0  0  0  0  0  0  0  0  0  0  0  0
   60.6540   29.9920   48.1940 C   0  0  0  0  0  0  0  0  0  0  0  0
   61.6270   30.8470   47.6410 C   0  0  0  0  0  0  0  0  0  0  0  0
   61.4580   32.2450   47.6740 C   0  0  0  0  0  0  0  0  0  0  0  0
   62.4120   33.1180   47.0260 N   0  0  0  0  0  0  0  0  0  0  0  0
   62.0300   34.1030   46.3590 O   0  0  0  0  0  0  0  0  0  0  0  0
   63.7640   32.8810   47.1470 O   0  0  0  0  0  0  0  0  0  0  0  0
   60.3340   32.7790   48.3160 C   0  0  0  0  0  0  0  0  0  0  0  0
   59.3800   31.9360   48.8850 C   0  0  0  0  0  0  0  0  0  0  0  0
   59.5280   30.5490   48.8100 C   0  0  0  0  0  0  0  0  0  0  0  0
   58.5430   29.7270   49.3400 O   0  0  0  0  0  0  0  0  0  0  0  0
   58.3270   26.0320   46.7570 C   0  0  0  0  0  0  0  0  0  0  0  0
   56.9690   25.7610   46.5890 C   0  0  0  0  0  0  0  0  0  0  0  0
   56.1270   26.7240   46.0300 C   0  0  0  0  0  0  0  0  0  0  0  0
   54.7710   26.4480   45.8830 O   0  0  0  0  0  0  0  0  0  0  0  0
   57.3660   31.8280   43.1380 C   0  0  0  0  0  0  0  0  0  0  0  0
   58.1650   32.9560   43.3550 C   0  0  0  0  0  0  0  0  0  0  0  0
   59.5012   34.7018   45.9677 H   0  0  0  0  0  0  0  0  0  0  0  0
   60.3881   34.4198   44.4313 H   0  0  0  0  0  0  0  0  0  0  0  0
   58.8786   35.3934   44.4313 H   0  0  0  0  0  0  0  0  0  0  0  0
   58.5021   32.7515   46.7504 H   0  0  0  0  0  0  0  0  0  0  0  0
   57.1334   30.7044   46.3606 H   0  0  0  0  0  0  0  0  0  0  0  0
   58.4302   29.1923   45.4524 H   0  0  0  0  0  0  0  0  0  0  0  0
   62.5284   30.4185   47.1785 H   0  0  0  0  0  0  0  0  0  0  0  0
   60.2028   33.8697   48.3718 H   0  0  0  0  0  0  0  0  0  0  0  0
   58.5058   32.3658   49.3959 H   0  0  0  0  0  0  0  0  0  0  0  0
   58.9871   25.2680   47.1937 H   0  0  0  0  0  0  0  0  0  0  0  0
   56.5610   24.7871   46.8974 H   0  0  0  0  0  0  0  0  0  0  0  0
   57.0339   31.5828   42.1184 H   0  0  0  0  0  0  0  0  0  0  0  0
   58.4623   33.5864   42.5040 H   0  0  0  0  0  0  0  0  0  0  0  0
  1  2  1  0
  2  3  2  0
  3  4  1  0
  4  5  2  0
  5  6  1  0
  6  7  2  0
  6  8  1  0
  8  9  1  0
  9 10  2  0
 10 11  1  0
 11 12  1  0
 12 13  2  0
 12 14  2  0
 12 15  1  0
 15 16  1  0
 16 17  2  0
 17 18  1  0
 18 19  1  0
 19 20  2  0
 19 21  1  0
 18 22  2  0
 22 23  1  0
 23 24  2  0
 24 25  1  0
 11 26  2  0
 26 27  1  0
 27 28  2  0
 28 29  1  0
  5 30  1  0
 30 31  2  0
 31  2  1  0
 28  9  1  0
 24 16  1  0
  1 32  1  0
  1 33  1  0
  1 34  1  0
  3 35  1  0
  4 36  1  0
 10 37  1  0
 17 38  1  0
 22 39  1  0
 23 40  1  0
 26 41  1  0
 27 42  1  0
 30 43  1  0
 31 44  1  0
M  CHG  6   8  -1  15  -1  19   1  21  -1  25  -1  29  -1
M  END
>  <UniqueID>  (9) 
9

>  <SMILES>  (9) 
Cc1ccc(C(=O)[N-]c2cc(S(=O)(=O)[N-]c3cc([N+](=O)[O-])ccc3[O-])ccc2[O-])cc1

>  <Energy>  (9) 
56.523840979606604

>  <Genealogy>  (9) 
Cc1ccc(C(=O)[N-]c2cc(S(=O)(=O)[N-]c3cc([N+](=O)[O-])ccc3[O-])ccc2[O-])cc1 (protonated)
Cc1ccc(C(=O)[N-]c2cc(S(=O)(=O)[N-]c3cc([N+](=O)[O-])ccc3[O-])ccc2[O-])cc1 (3D coordinates assigned)
Cc1ccc(C(=O)[N-]c2cc(S(=O)(=O)[N-]c3cc([N+](=O)[O-])ccc3[O-])ccc2[O-])cc1 (optimized conformer: 56.523840979606604 kcal/mol)

>  <smiles>  (9) 
Cc1ccc(C(=O)Nc2cc(S(=O)(=O)Nc3cc([N+](=O)[O-])ccc3O)ccc2O)cc1

>  <score_type>  (9) 
oracle

>  <origin>  (9) 
adg

>  <m_score__min__energy>  (9) 
-16.66

>  <m_primary>  (9) 
energy

$$$$
9:0
     RDKit          3D

 48 50  0  0  0  0  0  0  0  0999 V2000
   57.1260   28.9390   43.1650 N   0  0  0  0  0  0  0  0  0  0  0  0
   56.6760   29.1220   44.8260 S   0  0  0  0  0  0  0  0  0  0  0  0
   57.3930   30.3110   45.4000 O   0  0  0  0  0  0  0  0  0  0  0  0
   55.1930   29.3620   44.8760 O   0  0  0  0  0  0  0  0  0  0  0  0
   57.0870   27.6730   45.7640 C   0  0  0  0  0  0  0  0  0  0  0  0
   56.2870   26.5250   45.6280 C   0  0  0  0  0  0  0  0  0  0  0  0
   56.5420   25.3840   46.3920 C   0  0  0  0  0  0  0  0  0  0  0  0
   57.6010   25.3730   47.3000 C   0  0  0  0  0  0  0  0  0  0  0  0
   58.4190   26.4950   47.4340 C   0  0  0  0  0  0  0  0  0  0  0  0
   58.1830   27.6460   46.6640 C   0  0  0  0  0  0  0  0  0  0  0  0
   59.1020   28.7920   46.8210 C   0  0  0  0  0  0  0  0  0  0  0  0
   58.9640   29.6580   47.9150 C   0  0  0  0  0  0  0  0  0  0  0  0
   59.8360   30.7390   48.0710 C   0  0  0  0  0  0  0  0  0  0  0  0
   60.8600   30.9650   47.1370 C   0  0  0  0  0  0  0  0  0  0  0  0
   61.8260   32.1010   47.3290 C   0  0  0  0  0  0  0  0  0  0  0  0
   61.5170   32.8040   48.5790 N   0  0  0  0  0  0  0  0  0  0  0  0
   61.1280   34.2040   48.3380 C   0  0  0  0  0  0  0  0  0  0  0  0
   59.6040   34.3440   48.3810 C   0  0  0  0  0  0  0  0  0  0  0  0
   58.9810   34.0730   47.0360 C   0  0  0  0  0  0  0  0  0  0  0  0
   59.6370   34.4710   45.8570 C   0  0  0  0  0  0  0  0  0  0  0  0
   59.0440   34.2450   44.6120 C   0  0  0  0  0  0  0  0  0  0  0  0
   57.7890   33.6330   44.5340 C   0  0  0  0  0  0  0  0  0  0  0  0
   57.1260   33.2450   45.7020 C   0  0  0  0  0  0  0  0  0  0  0  0
   57.7170   33.4650   46.9490 C   0  0  0  0  0  0  0  0  0  0  0  0
   61.0130   30.0820   46.0570 C   0  0  0  0  0  0  0  0  0  0  0  0
   60.1390   29.0020   45.8990 C   0  0  0  0  0  0  0  0  0  0  0  0
   58.1460   29.1550   43.0870 H   0  0  0  0  0  0  0  0  0  0  0  0
   56.9980   27.9320   42.9150 H   0  0  0  0  0  0  0  0  0  0  0  0
   55.4515   26.5254   44.9124 H   0  0  0  0  0  0  0  0  0  0  0  0
   55.9071   24.4930   46.2776 H   0  0  0  0  0  0  0  0  0  0  0  0
   57.7913   24.4784   47.9111 H   0  0  0  0  0  0  0  0  0  0  0  0
   59.2554   26.4783   48.1482 H   0  0  0  0  0  0  0  0  0  0  0  0
   58.1667   29.4860   48.6530 H   0  0  0  0  0  0  0  0  0  0  0  0
   59.7196   31.4163   48.9299 H   0  0  0  0  0  0  0  0  0  0  0  0
   62.8515   31.7057   47.3752 H   0  0  0  0  0  0  0  0  0  0  0  0
   61.7389   32.8011   46.4851 H   0  0  0  0  0  0  0  0  0  0  0  0
   62.3780   32.7950   49.1770 H   0  0  0  0  0  0  0  0  0  0  0  0
   61.5737   34.8437   49.1139 H   0  0  0  0  0  0  0  0  0  0  0  0
   61.4889   34.5111   47.3453 H   0  0  0  0  0  0  0  0  0  0  0  0
   59.2007   33.6273   49.1115 H   0  0  0  0  0  0  0  0  0  0  0  0
   59.3627   35.3780   48.6685 H   0  0  0  0  0  0  0  0  0  0  0  0
   60.6198   34.9616   45.9153 H   0  0  0  0  0  0  0  0  0  0  0  0
   59.5650   34.5489   43.6921 H   0  0  0  0  0  0  0  0  0  0  0  0
   57.3233   33.4568   43.5531 H   0  0  0  0  0  0  0  0  0  0  0  0
   56.1378   32.7659   45.6393 H   0  0  0  0  0  0  0  0  0  0  0  0
   57.1909   33.1611   47.8660 H   0  0  0  0  0  0  0  0  0  0  0  0
   61.8244   30.2403   45.3313 H   0  0  0  0  0  0  0  0  0  0  0  0
   60.2647   28.3148   45.0493 H   0  0  0  0  0  0  0  0  0  0  0  0
  1  2  1  0
  2  3  2  0
  2  4  2  0
  2  5  1  0
  5  6  2  0
  6  7  1  0
  7  8  2  0
  8  9  1  0
  9 10  2  0
 10 11  1  0
 11 12  2  0
 12 13  1  0
 13 14  2  0
 14 15  1  0
 15 16  1  0
 16 17  1  0
 17 18  1  0
 18 19  1  0
 19 20  2  0
 20 21  1  0
 21 22  2  0
 22 23  1  0
 23 24  2  0
 14 25  1  0
 25 26  2  0
 10  5  1  0
 26 11  1  0
 24 19  1  0
  1 27  1  0
  1 28  1  0
  6 29  1  0
  7 30  1  0
  8 31  1  0
  9 32  1  0
 12 33  1  0
 13 34  1  0
 15 35  1  0
 15 36  1  0
 16 37  1  0
 17 38  1  0
 17 39  1  0
 18 40  1  0
 18 41  1  0
 20 42  1  0
 21 43  1  0
 22 44  1  0
 23 45  1  0
 24 46  1  0
 25 47  1  0
 26 48  1  0
M  END
>  <UniqueID>  (10) 
10

>  <SMILES>  (10) 
NS(=O)(=O)c1ccccc1-c1ccc(CNCCc2ccccc2)cc1

>  <Energy>  (10) 
53.89254382195349

>  <Genealogy>  (10) 
NS(=O)(=O)c1ccccc1-c1ccc(CNCCc2ccccc2)cc1 (3D coordinates assigned)
NS(=O)(=O)c1ccccc1-c1ccc(CNCCc2ccccc2)cc1 (optimized conformer: 53.89254382195349 kcal/mol)

>  <smiles>  (10) 
NS(=O)(=O)c1ccccc1-c1ccc(CNCCc2ccccc2)cc1

>  <score_type>  (10) 
oracle

>  <origin>  (10) 
adg

>  <m_score__min__energy>  (10) 
-9.1099999999999994

>  <m_primary>  (10) 
energy

$$$$
10:0
     RDKit          3D

 38 41  0  0  0  0  0  0  0  0999 V2000
   61.5385   28.9227   45.0426 H   0  0  0  0  0  0  0  0  0  0  0  0
   60.6520   28.7940   45.6810 C   0  0  0  0  0  0  0  0  0  0  0  0
   60.0580   27.5760   45.7790 N   0  0  0  0  0  0  0  0  0  0  0  0
   58.9510   27.3660   46.5410 C   0  0  0  0  0  0  0  0  0  0  0  0
   58.4550   26.1600   46.5930 N   0  0  0  0  0  0  0  0  0  0  0  0
   57.1300   25.7460   46.2230 C   0  0  0  0  0  0  0  0  0  0  0  0
   56.0780   26.6660   46.2840 C   0  0  0  0  0  0  0  0  0  0  0  0
   56.2763   27.7063   46.5814 H   0  0  0  0  0  0  0  0  0  0  0  0
   54.8110   26.2790   45.9770 N   0  0  0  0  0  0  0  0  0  0  0  0
   54.5200   24.9980   45.6240 C   0  0  0  0  0  0  0  0  0  0  0  0
   53.3350   24.6800   45.3420 O   0  0  0  0  0  0  0  0  0  0  0  0
   55.5350   24.0380   45.5810 C   0  0  0  0  0  0  0  0  0  0  0  0
   55.3057   22.9991   45.3017 H   0  0  0  0  0  0  0  0  0  0  0  0
   56.8420   24.4110   45.8960 C   0  0  0  0  0  0  0  0  0  0  0  0
   57.6459   23.6602   45.8882 H   0  0  0  0  0  0  0  0  0  0  0  0
   58.4140   28.4410   47.2780 C   0  0  0  0  0  0  0  0  0  0  0  0
   57.5246   28.2897   47.9073 H   0  0  0  0  0  0  0  0  0  0  0  0
   59.0210   29.7090   47.2050 C   0  0  0  0  0  0  0  0  0  0  0  0
   58.5310   30.8160   47.9170 O   0  0  0  0  0  0  0  0  0  0  0  0
   58.8830   32.1460   47.6580 C   0  0  0  0  0  0  0  0  0  0  0  0
   59.6110   32.8670   48.6170 C   0  0  0  0  0  0  0  0  0  0  0  0
   59.8745   32.3921   49.5736 H   0  0  0  0  0  0  0  0  0  0  0  0
   60.0060   34.1930   48.3630 C   0  0  0  0  0  0  0  0  0  0  0  0
   60.5862   34.7455   49.1167 H   0  0  0  0  0  0  0  0  0  0  0  0
   59.6630   34.8140   47.1520 C   0  0  0  0  0  0  0  0  0  0  0  0
   59.9764   35.8478   46.9443 H   0  0  0  0  0  0  0  0  0  0  0  0
   58.9170   34.0960   46.2160 C   0  0  0  0  0  0  0  0  0  0  0  0
   58.5240   32.8020   46.4660 C   0  0  0  0  0  0  0  0  0  0  0  0
   57.7140   32.3510   45.3550 C   0  0  0  0  0  0  0  0  0  0  0  0
   57.1220   31.2420   45.2910 O   0  0  0  0  0  0  0  0  0  0  0  0
   57.6260   33.4090   44.3070 C   0  0  0  0  0  0  0  0  0  0  0  0
   58.0747   33.0622   43.3645 H   0  0  0  0  0  0  0  0  0  0  0  0
   56.5867   33.6812   44.0706 H   0  0  0  0  0  0  0  0  0  0  0  0
   58.4280   34.5930   44.8920 C   0  0  0  0  0  0  0  0  0  0  0  0
   59.2733   34.8514   44.2373 H   0  0  0  0  0  0  0  0  0  0  0  0
   57.8197   35.5047   44.9860 H   0  0  0  0  0  0  0  0  0  0  0  0
   60.1400   29.8810   46.3880 C   0  0  0  0  0  0  0  0  0  0  0  0
   60.6153   30.8693   46.3026 H   0  0  0  0  0  0  0  0  0  0  0  0
  1  2  1  0
  2  3  1  0
  3  4  1  0
  4  5  2  0
  5  6  1  0
  6  7  2  0
  7  8  1  0
  7  9  1  0
  9 10  1  0
 10 11  2  0
 10 12  1  0
 12 13  1  0
 12 14  2  0
 14 15  1  0
  4 16  1  0
 16 17  1  0
 16 18  2  0
 18 19  1  0
 19 20  1  0
 20 21  2  0
 21 22  1  0
 21 23  1  0
 23 24  1  0
 23 25  2  0
 25 26  1  0
 25 27  1  0
 27 28  2  0
 28 29  1  0
 29 30  2  0
 29 31  1  0
 31 32  1  0
 31 33  1  0
 31 34  1  0
 34 35  1  0
 34 36  1  0
 18 37  1  0
 37 38  1  0
 37  2  2  0
 14  6  1  0
 28 20  1  0
 34 27  1  0
M  CHG  2   3  -1   9  -1
M  END
>  <UniqueID>  (11) 
11

>  <SMILES>  (11) 
O=C1CCc2cccc(Oc3cc[n-]/c(=N/c4ccc(=O)[n-]c4)c3)c21

>  <Energy>  (11) 
74.20228859261698

>  <Genealogy>  (11) 
O=C1CCc2cccc(Oc3cc[n-]c(=Nc4ccc(=O)[n-]c4)c3)c21 (protonated)
O=C1CCc2cccc(Oc3cc[n-]/c(=N/c4ccc(=O)[n-]c4)c3)c21 (cis-trans isomerization)
O=C1CCc2cccc(Oc3cc[n-]/c(=N/c4ccc(=O)[n-]c4)c3)c21 (3D coordinates assigned)
O=C1CCc2cccc(Oc3cc[n-]/c(=N/c4ccc(=O)[n-]c4)c3)c21 (nonaromatic ring conformer: 74.20228859261698 kcal/mol)

>  <smiles>  (11) 
O=C1CCc2cccc(Oc3cc[nH]c(=Nc4ccc(=O)[nH]c4)c3)c21

>  <score_type>  (11) 
oracle

>  <origin>  (11) 
adg

>  <m_score__min__energy>  (11) 
-11.84

>  <m_primary>  (11) 
energy

$$$$
11:0
     RDKit          3D

 38 40  0  0  0  0  0  0  0  0999 V2000
   62.7070   32.3990   47.1880 C   0  0  0  0  0  0  0  0  0  0  0  0
   61.6810   31.5970   47.7670 O   0  0  0  0  0  0  0  0  0  0  0  0
   60.5660   31.1050   47.0700 C   0  0  0  0  0  0  0  0  0  0  0  0
   60.3880   29.7320   46.8180 C   0  0  0  0  0  0  0  0  0  0  0  0
   59.2630   29.2750   46.1190 C   0  0  0  0  0  0  0  0  0  0  0  0
   59.0900   27.9090   45.8690 C   0  0  0  0  0  0  0  0  0  0  0  0
   57.9590   27.4640   45.1660 C   0  0  0  0  0  0  0  0  0  0  0  0
   57.7700   26.0180   44.8890 C   0  0  0  0  0  0  0  0  0  0  0  0
   57.3940   25.5850   43.6060 C   0  0  0  0  0  0  0  0  0  0  0  0
   57.2130   24.2240   43.3410 C   0  0  0  0  0  0  0  0  0  0  0  0
   57.4030   23.2720   44.3550 C   0  0  0  0  0  0  0  0  0  0  0  0
   57.2170   21.8320   44.0950 C   0  0  0  0  0  0  0  0  0  0  0  0
   56.2720   21.4200   43.3700 O   0  0  0  0  0  0  0  0  0  0  0  0
   57.7770   23.7010   45.6360 C   0  0  0  0  0  0  0  0  0  0  0  0
   57.9590   25.0610   45.9020 C   0  0  0  0  0  0  0  0  0  0  0  0
   57.0370   28.3750   44.7320 N   0  0  0  0  0  0  0  0  0  0  0  0
   57.1770   29.7110   44.9590 C   0  0  0  0  0  0  0  0  0  0  0  0
   56.2910   30.5050   44.5380 O   0  0  0  0  0  0  0  0  0  0  0  0
   58.2980   30.1960   45.6610 C   0  0  0  0  0  0  0  0  0  0  0  0
   58.4770   31.5670   45.9140 C   0  0  0  0  0  0  0  0  0  0  0  0
   59.6080   32.0240   46.6170 C   0  0  0  0  0  0  0  0  0  0  0  0
   59.8170   33.3870   46.8860 O   0  0  0  0  0  0  0  0  0  0  0  0
   59.3760   34.4540   46.0510 C   0  0  0  0  0  0  0  0  0  0  0  0
   63.3029   32.8648   47.9867 H   0  0  0  0  0  0  0  0  0  0  0  0
   63.3581   31.7680   46.5652 H   0  0  0  0  0  0  0  0  0  0  0  0
   62.2519   33.1832   46.5652 H   0  0  0  0  0  0  0  0  0  0  0  0
   61.1390   29.0109   47.1731 H   0  0  0  0  0  0  0  0  0  0  0  0
   59.8389   27.1851   46.2227 H   0  0  0  0  0  0  0  0  0  0  0  0
   57.2409   26.3223   42.8041 H   0  0  0  0  0  0  0  0  0  0  0  0
   56.9201   23.8975   42.3322 H   0  0  0  0  0  0  0  0  0  0  0  0
   57.9137   21.1067   44.5407 H   0  0  0  0  0  0  0  0  0  0  0  0
   57.9282   22.9625   46.4371 H   0  0  0  0  0  0  0  0  0  0  0  0
   58.2523   25.3853   46.9114 H   0  0  0  0  0  0  0  0  0  0  0  0
   56.1850   28.0450   44.2250 H   0  0  0  0  0  0  0  0  0  0  0  0
   57.7268   32.2892   45.5596 H   0  0  0  0  0  0  0  0  0  0  0  0
   59.0304   35.2903   46.6765 H   0  0  0  0  0  0  0  0  0  0  0  0
   60.2086   34.7908   45.4159 H   0  0  0  0  0  0  0  0  0  0  0  0
   58.5485   34.1047   45.4159 H   0  0  0  0  0  0  0  0  0  0  0  0
  1  2  1  0
  2  3  1  0
  3  4  2  0
  4  5  1  0
  5  6  1  0
  6  7  2  0
  7  8  1  0
  8  9  2  0
  9 10  1  0
 10 11  2  0
 11 12  1  0
 12 13  2  0
 11 14  1  0
 14 15  2  0
  7 16  1  0
 16 17  1  0
 17 18  2  0
 17 19  1  0
 19 20  1  0
 20 21  2  0
 21 22  1  0
 22 23  1  0
 21  3  1  0
 19  5  2  0
 15  8  1  0
  1 24  1  0
  1 25  1  0
  1 26  1  0
  4 27  1  0
  6 28  1  0
  9 29  1  0
 10 30  1  0
 12 31  1  0
 14 32  1  0
 15 33  1  0
 16 34  1  0
 20 35  1  0
 23 36  1  0
 23 37  1  0
 23 38  1  0
M  END
>  <UniqueID>  (12) 
12

>  <SMILES>  (12) 
COc1cc2cc(-c3ccc(C=O)cc3)[nH]c(=O)c2cc1OC

>  <Energy>  (12) 
49.42210495002212

>  <Genealogy>  (12) 
COc1cc2cc(-c3ccc(C=O)cc3)[nH]c(=O)c2cc1OC (3D coordinates assigned)
COc1cc2cc(-c3ccc(C=O)cc3)[nH]c(=O)c2cc1OC (optimized conformer: 49.42210495002212 kcal/mol)

>  <smiles>  (12) 
COc1cc2cc(-c3ccc(C=O)cc3)[nH]c(=O)c2cc1OC

>  <score_type>  (12) 
oracle

>  <origin>  (12) 
adg

>  <m_score__min__energy>  (12) 
-7.0099999999999998

>  <m_primary>  (12) 
energy

$$$$
12:0
     RDKit          3D

 31 33  0  0  0  0  0  0  0  0999 V2000
   55.1370   29.3790   44.7780 N   0  0  0  0  0  0  0  0  0  0  0  0
   56.7400   29.9950   44.5950 S   0  0  0  0  0  0  0  0  0  0  0  0
   56.7220   31.4850   44.7860 O   0  0  0  0  0  0  0  0  0  0  0  0
   57.2460   29.6960   43.2120 O   0  0  0  0  0  0  0  0  0  0  0  0
   57.7940   29.2730   45.8020 C   0  0  0  0  0  0  0  0  0  0  0  0
   58.1720   30.0310   47.2640 S   0  0  0  0  0  0  0  0  0  0  0  0
   59.1950   28.8200   47.8040 C   0  0  0  0  0  0  0  0  0  0  0  0
   59.9190   28.7780   48.9930 C   0  0  0  0  0  0  0  0  0  0  0  0
   60.7460   27.6700   49.2280 C   0  0  0  0  0  0  0  0  0  0  0  0
   61.4820   27.5920   50.4050 O   0  0  0  0  0  0  0  0  0  0  0  0
   60.8390   26.6380   48.2740 C   0  0  0  0  0  0  0  0  0  0  0  0
   60.1010   26.7040   47.0800 C   0  0  0  0  0  0  0  0  0  0  0  0
   59.2650   27.8060   46.8580 C   0  0  0  0  0  0  0  0  0  0  0  0
   58.4580   28.0400   45.7280 C   0  0  0  0  0  0  0  0  0  0  0  0
   58.3360   26.8840   44.3500 S   0  0  0  0  0  0  0  0  0  0  0  0
   57.6420   25.5530   45.3420 C   0  0  0  0  0  0  0  0  0  0  0  0
   58.3600   24.3590   45.5160 C   0  0  0  0  0  0  0  0  0  0  0  0
   57.8320   23.3270   46.2950 C   0  0  0  0  0  0  0  0  0  0  0  0
   56.5790   23.4720   46.8920 C   0  0  0  0  0  0  0  0  0  0  0  0
   55.8430   24.6440   46.6980 C   0  0  0  0  0  0  0  0  0  0  0  0
   56.3640   25.6810   45.9120 C   0  0  0  0  0  0  0  0  0  0  0  0
   55.6070   26.8280   45.6770 O   0  0  0  0  0  0  0  0  0  0  0  0
   55.1420   28.7540   45.6160 H   0  0  0  0  0  0  0  0  0  0  0  0
   59.8441   29.5925   49.7285 H   0  0  0  0  0  0  0  0  0  0  0  0
   61.4936   25.7748   48.4648 H   0  0  0  0  0  0  0  0  0  0  0  0
   60.1786   25.9023   46.3308 H   0  0  0  0  0  0  0  0  0  0  0  0
   59.3424   24.2359   45.0368 H   0  0  0  0  0  0  0  0  0  0  0  0
   58.4045   22.3987   46.4381 H   0  0  0  0  0  0  0  0  0  0  0  0
   56.1704   22.6633   47.5157 H   0  0  0  0  0  0  0  0  0  0  0  0
   54.8522   24.7530   47.1633 H   0  0  0  0  0  0  0  0  0  0  0  0
   55.8700   27.5010   44.9660 H   0  0  0  0  0  0  0  0  0  0  0  0
  1  2  1  0
  2  3  2  0
  2  4  2  0
  2  5  1  0
  5  6  1  0
  6  7  1  0
  7  8  2  0
  8  9  1  0
  9 10  1  0
  9 11  2  0
 11 12  1  0
 12 13  2  0
 13 14  1  0
 14 15  1  0
 15 16  1  0
 16 17  2  0
 17 18  1  0
 18 19  2  0
 19 20  1  0
 20 21  2  0
 21 22  1  0
 14  5  2  0
 21 16  1  0
 13  7  1  0
  1 23  1  0
  8 24  1  0
 11 25  1  0
 12 26  1  0
 17 27  1  0
 18 28  1  0
 19 29  1  0
 20 30  1  0
 22 31  1  0
M  CHG  2   1  -1  10  -1
M  END
>  <UniqueID>  (13) 
13

>  <SMILES>  (13) 
[NH-]S(=O)(=O)c1sc2cc([O-])ccc2c1Sc1ccccc1O

>  <Energy>  (13) 
61.49844218778135

>  <Genealogy>  (13) 
[NH-]S(=O)(=O)c1sc2cc([O-])ccc2c1Sc1ccccc1O (protonated)
[NH-]S(=O)(=O)c1sc2cc([O-])ccc2c1Sc1ccccc1O (3D coordinates assigned)
[NH-]S(=O)(=O)c1sc2cc([O-])ccc2c1Sc1ccccc1O (optimized conformer: 61.49844218778135 kcal/mol)

>  <smiles>  (13) 
NS(=O)(=O)c1sc2cc(O)ccc2c1Sc1ccccc1O

>  <score_type>  (13) 
oracle

>  <origin>  (13) 
adg

>  <m_score__min__energy>  (13) 
-10.65

>  <m_primary>  (13) 
energy

$$$$
13:0
     RDKit          3D

 27 28  0  0  0  0  0  0  0  0999 V2000
   55.2130   29.3360   44.8650 O   0  0  0  0  0  0  0  0  0  0  0  0
   56.3350   29.8490   44.6080 C   0  0  0  0  0  0  0  0  0  0  0  0
   56.4390   31.2750   44.5180 N   0  0  0  0  0  0  0  0  0  0  0  0
   57.5680   31.9870   43.9280 C   0  0  0  0  0  0  0  0  0  0  0  0
   58.1260   32.9800   44.9000 C   0  0  0  0  0  0  0  0  0  0  0  0
   58.9130   34.0780   44.5780 C   0  0  0  0  0  0  0  0  0  0  0  0
   59.2700   34.8440   45.6940 C   0  0  0  0  0  0  0  0  0  0  0  0
   58.7680   34.3530   46.8930 C   0  0  0  0  0  0  0  0  0  0  0  0
   57.8770   32.9640   46.5630 S   0  0  0  0  0  0  0  0  0  0  0  0
   57.4780   29.0080   44.3880 N   0  0  0  0  0  0  0  0  0  0  0  0
   57.5700   27.6600   44.8750 C   0  0  0  0  0  0  0  0  0  0  0  0
   57.3890   27.4120   46.2450 C   0  0  0  0  0  0  0  0  0  0  0  0
   57.4550   26.1070   46.7420 C   0  0  0  0  0  0  0  0  0  0  0  0
   57.6840   25.0370   45.8730 C   0  0  0  0  0  0  0  0  0  0  0  0
   57.8380   25.2700   44.5040 C   0  0  0  0  0  0  0  0  0  0  0  0
   57.7750   26.5740   44.0000 C   0  0  0  0  0  0  0  0  0  0  0  0
   57.8650   26.7660   42.6600 F   0  0  0  0  0  0  0  0  0  0  0  0
   58.3518   31.2636   43.6590 H   0  0  0  0  0  0  0  0  0  0  0  0
   57.2225   32.5219   43.0310 H   0  0  0  0  0  0  0  0  0  0  0  0
   59.2240   34.3209   43.5512 H   0  0  0  0  0  0  0  0  0  0  0  0
   59.8901   35.7501   45.6279 H   0  0  0  0  0  0  0  0  0  0  0  0
   58.9259   34.7962   47.8873 H   0  0  0  0  0  0  0  0  0  0  0  0
   58.2270   29.3470   43.7440 H   0  0  0  0  0  0  0  0  0  0  0  0
   57.1941   28.2493   46.9312 H   0  0  0  0  0  0  0  0  0  0  0  0
   57.3265   25.9222   47.8187 H   0  0  0  0  0  0  0  0  0  0  0  0
   57.7430   24.0115   46.2666 H   0  0  0  0  0  0  0  0  0  0  0  0
   58.0093   24.4257   43.8201 H   0  0  0  0  0  0  0  0  0  0  0  0
  1  2  2  0
  2  3  1  0
  3  4  1  0
  4  5  1  0
  5  6  2  0
  6  7  1  0
  7  8  2  0
  8  9  1  0
  2 10  1  0
 10 11  1  0
 11 12  2  0
 12 13  1  0
 13 14  2  0
 14 15  1  0
 15 16  2  0
 16 17  1  0
  9  5  1  0
 16 11  1  0
  4 18  1  0
  4 19  1  0
  6 20  1  0
  7 21  1  0
  8 22  1  0
 10 23  1  0
 12 24  1  0
 13 25  1  0
 14 26  1  0
 15 27  1  0
M  CHG  1   3  -1
M  END
>  <UniqueID>  (14) 
14

>  <SMILES>  (14) 
O=C([N-]Cc1cccs1)Nc1ccccc1F

>  <Energy>  (14) 
54.60598070032678

>  <Genealogy>  (14) 
O=C([N-]Cc1cccs1)Nc1ccccc1F (protonated)
O=C([N-]Cc1cccs1)Nc1ccccc1F (3D coordinates assigned)
O=C([N-]Cc1cccs1)Nc1ccccc1F (optimized conformer: 54.60598070032678 kcal/mol)

>  <smiles>  (14) 
O=C(NCc1cccs1)Nc1ccccc1F

>  <score_type>  (14) 
oracle

>  <origin>  (14) 
adg

>  <m_score__min__energy>  (14) 
-8.3000000000000007

>  <m_primary>  (14) 
energy

$$$$
14:0
     RDKit          3D

 48 50  0  0  0  0  0  0  0  0999 V2000
   55.4860   28.6100   45.5910 H   0  0  0  0  0  0  0  0  0  0  0  0
   55.1900   29.3360   44.9000 N   0  0  0  0  0  0  0  0  0  0  0  0
   56.5850   29.7430   43.9640 S   0  0  0  0  0  0  0  0  0  0  0  0
   56.1730   30.1180   42.5670 O   0  0  0  0  0  0  0  0  0  0  0  0
   57.4820   28.5390   43.8890 O   0  0  0  0  0  0  0  0  0  0  0  0
   57.4390   31.1010   44.7180 C   0  0  0  0  0  0  0  0  0  0  0  0
   56.7590   32.3240   44.8520 C   0  0  0  0  0  0  0  0  0  0  0  0
   55.7402   32.4262   44.4500 H   0  0  0  0  0  0  0  0  0  0  0  0
   57.3610   33.4100   45.4890 C   0  0  0  0  0  0  0  0  0  0  0  0
   56.8197   34.3634   45.5788 H   0  0  0  0  0  0  0  0  0  0  0  0
   58.6460   33.2880   46.0110 C   0  0  0  0  0  0  0  0  0  0  0  0
   59.1129   34.1399   46.5270 H   0  0  0  0  0  0  0  0  0  0  0  0
   59.3410   32.0870   45.8800 C   0  0  0  0  0  0  0  0  0  0  0  0
   60.3516   31.9960   46.3048 H   0  0  0  0  0  0  0  0  0  0  0  0
   58.7670   30.9880   45.2110 C   0  0  0  0  0  0  0  0  0  0  0  0
   59.5830   29.7160   45.1040 C   0  0  0  0  0  0  0  0  0  0  0  0
   60.3796   29.8602   44.3593 H   0  0  0  0  0  0  0  0  0  0  0  0
   58.9176   28.8949   44.7989 H   0  0  0  0  0  0  0  0  0  0  0  0
   60.1870   29.3760   46.3930 N   0  0  0  0  0  0  0  0  0  0  0  0
   61.2240   29.4590   46.4900 H   0  0  0  0  0  0  0  0  0  0  0  0
   59.4150   28.9510   47.5290 C   0  0  0  0  0  0  0  0  0  0  0  0
   58.1160   28.9620   47.4660 N   0  0  0  0  0  0  0  0  0  0  0  0
   57.4140   28.1950   46.5640 O   0  0  0  0  0  0  0  0  0  0  0  0
   56.7600   28.6340   45.9290 H   0  0  0  0  0  0  0  0  0  0  0  0
   60.1180   28.5000   48.7500 C   0  0  0  0  0  0  0  0  0  0  0  0
   60.4990   29.4210   49.7430 C   0  0  0  0  0  0  0  0  0  0  0  0
   60.2840   30.7910   49.5360 O   0  0  0  0  0  0  0  0  0  0  0  0
   61.1100   31.6350   48.7820 C   0  0  0  0  0  0  0  0  0  0  0  0
   60.7910   32.9980   48.7160 C   0  0  0  0  0  0  0  0  0  0  0  0
   59.9013   33.3772   49.2400 H   0  0  0  0  0  0  0  0  0  0  0  0
   61.5970   33.8790   47.9880 C   0  0  0  0  0  0  0  0  0  0  0  0
   61.3349   34.9459   47.9333 H   0  0  0  0  0  0  0  0  0  0  0  0
   62.7350   33.4050   47.3300 C   0  0  0  0  0  0  0  0  0  0  0  0
   63.5170   34.2600   46.6250 F   0  0  0  0  0  0  0  0  0  0  0  0
   63.0710   32.0500   47.4040 C   0  0  0  0  0  0  0  0  0  0  0  0
   63.9693   31.6780   46.8895 H   0  0  0  0  0  0  0  0  0  0  0  0
   62.2670   31.1670   48.1310 C   0  0  0  0  0  0  0  0  0  0  0  0
   62.5394   30.1032   48.1945 H   0  0  0  0  0  0  0  0  0  0  0  0
   61.1240   28.9800   50.8690 N   0  0  0  0  0  0  0  0  0  0  0  0
   61.3830   27.6620   51.0880 C   0  0  0  0  0  0  0  0  0  0  0  0
   62.0830   27.2390   52.3400 C   0  0  0  0  0  0  0  0  0  0  0  0
   61.5115   27.5843   53.2142 H   0  0  0  0  0  0  0  0  0  0  0  0
   62.1617   26.1421   52.3634 H   0  0  0  0  0  0  0  0  0  0  0  0
   63.0907   27.6795   52.3634 H   0  0  0  0  0  0  0  0  0  0  0  0
   61.0210   26.7160   50.1240 C   0  0  0  0  0  0  0  0  0  0  0  0
   61.2356   25.6492   50.2849 H   0  0  0  0  0  0  0  0  0  0  0  0
   60.3850   27.1380   48.9560 C   0  0  0  0  0  0  0  0  0  0  0  0
   60.0920   26.4006   48.1942 H   0  0  0  0  0  0  0  0  0  0  0  0
  1  2  1  0
  2  3  1  0
  3  4  2  0
  3  5  2  0
  3  6  1  0
  6  7  2  0
  7  8  1  0
  7  9  1  0
  9 10  1  0
  9 11  2  0
 11 12  1  0
 11 13  1  0
 13 14  1  0
 13 15  2  0
 15 16  1  0
 16 17  1  0
 16 18  1  0
 16 19  1  0
 19 20  1  0
 19 21  1  0
 21 22  2  0
 22 23  1  0
 23 24  1  0
 21 25  1  0
 25 26  1  0
 26 27  1  0
 27 28  1  0
 28 29  2  0
 29 30  1  0
 29 31  1  0
 31 32  1  0
 31 33  2  0
 33 34  1  0
 33 35  1  0
 35 36  1  0
 35 37  2  0
 37 38  1  0
 26 39  2  0
 39 40  1  0
 40 41  1  0
 41 42  1  0
 41 43  1  0
 41 44  1  0
 40 45  2  0
 45 46  1  0
 45 47  1  0
 47 48  1  0
 15  6  1  0
 47 25  2  0
 37 28  1  0
M  CHG  1   2  -1
M  END
>  <UniqueID>  (15) 
15

>  <SMILES>  (15) 
Cc1ccc(/C(=N\O)NCc2ccccc2S([NH-])(=O)=O)c(Oc2ccc(F)cc2)n1

>  <Energy>  (15) 
58.65297934281356

>  <Genealogy>  (15) 
Cc1ccc(C(=NO)NCc2ccccc2S([NH-])(=O)=O)c(Oc2ccc(F)cc2)n1 (protonated)
Cc1ccc(/C(=N\O)NCc2ccccc2S([NH-])(=O)=O)c(Oc2ccc(F)cc2)n1 (cis-trans isomerization)
Cc1ccc(/C(=N\O)NCc2ccccc2S([NH-])(=O)=O)c(Oc2ccc(F)cc2)n1 (3D coordinates assigned)
Cc1ccc(/C(=N\O)NCc2ccccc2S([NH-])(=O)=O)c(Oc2ccc(F)cc2)n1 (optimized conformer: 58.65297934281356 kcal/mol)

>  <smiles>  (15) 
Cc1ccc(C(=NO)NCc2ccccc2S(N)(=O)=O)c(Oc2ccc(F)cc2)n1

>  <score_type>  (15) 
oracle

>  <origin>  (15) 
adg

>  <m_score__min__energy>  (15) 
-11.539999999999999

>  <m_primary>  (15) 
energy

$$$$
15:0
     RDKit          3D

 58 60  0  0  0  0  0  0  0  0999 V2000
   55.5060   25.6610   45.8920 C   0  0  0  0  0  0  0  0  0  0  0  0
   55.9750   27.0050   45.9130 O   0  0  0  0  0  0  0  0  0  0  0  0
   57.3080   27.3910   45.6900 C   0  0  0  0  0  0  0  0  0  0  0  0
   58.3770   26.7760   46.3730 C   0  0  0  0  0  0  0  0  0  0  0  0
   59.6950   27.1710   46.1290 C   0  0  0  0  0  0  0  0  0  0  0  0
   59.9640   28.1760   45.2010 C   0  0  0  0  0  0  0  0  0  0  0  0
   58.9160   28.7950   44.5190 C   0  0  0  0  0  0  0  0  0  0  0  0
   57.5820   28.4220   44.7640 C   0  0  0  0  0  0  0  0  0  0  0  0
   56.4760   29.1230   44.0100 C   0  0  0  0  0  0  0  0  0  0  0  0
   56.3160   30.4960   44.4820 N   0  0  0  0  0  0  0  0  0  0  0  0
   57.3660   31.3610   44.9380 C   0  0  0  0  0  0  0  0  0  0  0  0
   57.8100   31.2010   46.1060 O   0  0  0  0  0  0  0  0  0  0  0  0
   57.9170   32.4820   44.0900 C   0  0  0  0  0  0  0  0  0  0  0  0
   57.3870   33.8650   44.5040 C   0  0  0  0  0  0  0  0  0  0  0  0
   57.3920   34.0970   46.0250 C   0  0  0  0  0  0  0  0  0  0  0  0
   58.7790   34.0420   46.6140 C   0  0  0  0  0  0  0  0  0  0  0  0
   59.9100   34.1920   45.7940 C   0  0  0  0  0  0  0  0  0  0  0  0
   61.1940   34.0980   46.3390 C   0  0  0  0  0  0  0  0  0  0  0  0
   61.3620   33.8620   47.7110 C   0  0  0  0  0  0  0  0  0  0  0  0
   62.9720   33.7520   48.4170 S   0  0  0  0  0  0  0  0  0  0  0  0
   63.9510   34.4220   47.4950 O   0  0  0  0  0  0  0  0  0  0  0  0
   63.0110   34.4490   49.7480 O   0  0  0  0  0  0  0  0  0  0  0  0
   63.4300   32.0860   48.6180 N   0  0  0  0  0  0  0  0  0  0  0  0
   62.6800   31.2150   47.7110 C   0  0  0  0  0  0  0  0  0  0  0  0
   61.4490   30.6770   48.3880 C   0  0  0  0  0  0  0  0  0  0  0  0
   60.3130   30.3510   47.6280 C   0  0  0  0  0  0  0  0  0  0  0  0
   59.1680   29.8470   48.2510 C   0  0  0  0  0  0  0  0  0  0  0  0
   59.1490   29.6620   49.6380 C   0  0  0  0  0  0  0  0  0  0  0  0
   60.2770   29.9800   50.4010 C   0  0  0  0  0  0  0  0  0  0  0  0
   61.4240   30.4870   49.7810 C   0  0  0  0  0  0  0  0  0  0  0  0
   60.2370   33.7230   48.5320 C   0  0  0  0  0  0  0  0  0  0  0  0
   58.9530   33.8170   47.9900 C   0  0  0  0  0  0  0  0  0  0  0  0
   55.3802   25.3004   46.9236 H   0  0  0  0  0  0  0  0  0  0  0  0
   54.5397   25.6180   45.3681 H   0  0  0  0  0  0  0  0  0  0  0  0
   56.2357   25.0261   45.3681 H   0  0  0  0  0  0  0  0  0  0  0  0
   58.1721   25.9794   47.1033 H   0  0  0  0  0  0  0  0  0  0  0  0
   60.5219   26.6880   46.6702 H   0  0  0  0  0  0  0  0  0  0  0  0
   61.0028   28.4810   45.0064 H   0  0  0  0  0  0  0  0  0  0  0  0
   59.1350   29.5823   43.7826 H   0  0  0  0  0  0  0  0  0  0  0  0
   56.7226   29.1366   42.9381 H   0  0  0  0  0  0  0  0  0  0  0  0
   55.5345   28.5799   44.1794 H   0  0  0  0  0  0  0  0  0  0  0  0
   59.0132   32.4848   44.1819 H   0  0  0  0  0  0  0  0  0  0  0  0
   57.5922   32.3016   43.0547 H   0  0  0  0  0  0  0  0  0  0  0  0
   58.0169   34.6340   44.0329 H   0  0  0  0  0  0  0  0  0  0  0  0
   56.3396   33.9213   44.1727 H   0  0  0  0  0  0  0  0  0  0  0  0
   56.9601   35.0872   46.2320 H   0  0  0  0  0  0  0  0  0  0  0  0
   56.8009   33.2927   46.4873 H   0  0  0  0  0  0  0  0  0  0  0  0
   59.7846   34.3843   44.7182 H   0  0  0  0  0  0  0  0  0  0  0  0
   62.0749   34.2095   45.6897 H   0  0  0  0  0  0  0  0  0  0  0  0
   62.3812   31.7904   46.8224 H   0  0  0  0  0  0  0  0  0  0  0  0
   63.3218   30.3702   47.4203 H   0  0  0  0  0  0  0  0  0  0  0  0
   60.3250   30.4932   46.5373 H   0  0  0  0  0  0  0  0  0  0  0  0
   58.2812   29.5956   47.6507 H   0  0  0  0  0  0  0  0  0  0  0  0
   58.2470   29.2666   50.1280 H   0  0  0  0  0  0  0  0  0  0  0  0
   60.2623   29.8312   51.4908 H   0  0  0  0  0  0  0  0  0  0  0  0
   62.3086   30.7377   50.3848 H   0  0  0  0  0  0  0  0  0  0  0  0
   60.3645   33.5389   49.6090 H   0  0  0  0  0  0  0  0  0  0  0  0
   58.0741   33.7144   48.6434 H   0  0  0  0  0  0  0  0  0  0  0  0
  1  2  1  0
  2  3  1  0
  3  4  2  0
  4  5  1  0
  5  6  2  0
  6  7  1  0
  7  8  2  0
  8  9  1  0
  9 10  1  0
 10 11  1  0
 11 12  2  0
 11 13  1  0
 13 14  1  0
 14 15  1  0
 15 16  1  0
 16 17  2  0
 17 18  1  0
 18 19  2  0
 19 20  1  0
 20 21  2  0
 20 22  2  0
 20 23  1  0
 23 24  1  0
 24 25  1  0
 25 26  2  0
 26 27  1  0
 27 28  2  0
 28 29  1  0
 29 30  2  0
 19 31  1  0
 31 32  2  0
  8  3  1  0
 32 16  1  0
 30 25  1  0
  1 33  1  0
  1 34  1  0
  1 35  1  0
  4 36  1  0
  5 37  1  0
  6 38  1  0
  7 39  1  0
  9 40  1  0
  9 41  1  0
 13 42  1  0
 13 43  1  0
 14 44  1  0
 14 45  1  0
 15 46  1  0
 15 47  1  0
 17 48  1  0
 18 49  1  0
 24 50  1  0
 24 51  1  0
 26 52  1  0
 27 53  1  0
 28 54  1  0
 29 55  1  0
 30 56  1  0
 31 57  1  0
 32 58  1  0
M  CHG  2  10  -1  23  -1
M  END
>  <UniqueID>  (16) 
16

>  <SMILES>  (16) 
COc1ccccc1C[N-]C(=O)CCCc1ccc(S(=O)(=O)[N-]Cc2ccccc2)cc1

>  <Energy>  (16) 
52.6268332884565

>  <Genealogy>  (16) 
COc1ccccc1C[N-]C(=O)CCCc1ccc(S(=O)(=O)[N-]Cc2ccccc2)cc1 (protonated)
COc1ccccc1C[N-]C(=O)CCCc1ccc(S(=O)(=O)[N-]Cc2ccccc2)cc1 (3D coordinates assigned)
COc1ccccc1C[N-]C(=O)CCCc1ccc(S(=O)(=O)[N-]Cc2ccccc2)cc1 (optimized conformer: 52.6268332884565 kcal/mol)

>  <smiles>  (16) 
COc1ccccc1CNC(=O)CCCc1ccc(S(=O)(=O)NCc2ccccc2)cc1

>  <score_type>  (16) 
oracle

>  <origin>  (16) 
adg

>  <m_score__min__energy>  (16) 
-12.44

>  <m_primary>  (16) 
energy

$$$$
16:0
     RDKit          3D

 39 41  0  0  0  0  0  0  0  0999 V2000
   56.7450   27.3380   45.7330 C   0  0  0  0  0  0  0  0  0  0  0  0
   55.8970   28.4180   45.2480 N   0  0  0  0  0  0  0  0  0  0  0  0
   56.3650   29.7080   44.8340 C   0  0  0  0  0  0  0  0  0  0  0  0
   55.5170   30.5800   44.5100 O   0  0  0  0  0  0  0  0  0  0  0  0
   57.8020   30.0480   44.7800 C   0  0  0  0  0  0  0  0  0  0  0  0
   58.2930   30.5020   43.7120 O   0  0  0  0  0  0  0  0  0  0  0  0
   58.6550   29.8420   45.9250 N   0  0  0  0  0  0  0  0  0  0  0  0
   59.8720   29.0390   45.7670 C   0  0  0  0  0  0  0  0  0  0  0  0
   60.1040   28.1980   47.0160 C   0  0  0  0  0  0  0  0  0  0  0  0
   60.0580   29.0400   48.2600 C   0  0  0  0  0  0  0  0  0  0  0  0
   60.7290   28.5980   49.4120 C   0  0  0  0  0  0  0  0  0  0  0  0
   60.6390   29.3200   50.6040 C   0  0  0  0  0  0  0  0  0  0  0  0
   59.8610   30.4760   50.6640 C   0  0  0  0  0  0  0  0  0  0  0  0
   59.1740   30.9160   49.5310 C   0  0  0  0  0  0  0  0  0  0  0  0
   59.2660   30.2100   48.3170 C   0  0  0  0  0  0  0  0  0  0  0  0
   58.5110   30.7240   47.1010 C   0  0  1  0  0  0  0  0  0  0  0  0
   58.9380   32.1330   46.7350 C   0  0  0  0  0  0  0  0  0  0  0  0
   57.9960   33.0950   46.3240 C   0  0  0  0  0  0  0  0  0  0  0  0
   58.3990   34.4030   46.0390 C   0  0  0  0  0  0  0  0  0  0  0  0
   59.7410   34.7670   46.1710 C   0  0  0  0  0  0  0  0  0  0  0  0
   60.6830   33.8230   46.5900 C   0  0  0  0  0  0  0  0  0  0  0  0
   60.2850   32.5140   46.8730 C   0  0  0  0  0  0  0  0  0  0  0  0
   56.7452   27.3377   46.8330 H   0  0  0  0  0  0  0  0  0  0  0  0
   56.3588   26.3756   45.3662 H   0  0  0  0  0  0  0  0  0  0  0  0
   57.7716   27.4849   45.3662 H   0  0  0  0  0  0  0  0  0  0  0  0
   59.7611   28.3760   44.8963 H   0  0  0  0  0  0  0  0  0  0  0  0
   60.7312   29.7092   45.6169 H   0  0  0  0  0  0  0  0  0  0  0  0
   59.3233   27.4256   47.0775 H   0  0  0  0  0  0  0  0  0  0  0  0
   61.1015   27.7398   46.9446 H   0  0  0  0  0  0  0  0  0  0  0  0
   61.3294   27.6770   49.3751 H   0  0  0  0  0  0  0  0  0  0  0  0
   61.1824   28.9766   51.4966 H   0  0  0  0  0  0  0  0  0  0  0  0
   59.7886   31.0415   51.6047 H   0  0  0  0  0  0  0  0  0  0  0  0
   58.5548   31.8234   49.5877 H   0  0  0  0  0  0  0  0  0  0  0  0
   57.4495   30.7317   47.3894 H   0  0  0  0  0  0  0  0  0  0  0  0
   56.9365   32.8159   46.2265 H   0  0  0  0  0  0  0  0  0  0  0  0
   57.6581   35.1466   45.7103 H   0  0  0  0  0  0  0  0  0  0  0  0
   60.0566   35.7963   45.9453 H   0  0  0  0  0  0  0  0  0  0  0  0
   61.7392   34.1112   46.6971 H   0  0  0  0  0  0  0  0  0  0  0  0
   61.0300   31.7764   47.2060 H   0  0  0  0  0  0  0  0  0  0  0  0
  1  2  1  0
  2  3  1  0
  3  4  2  0
  3  5  1  0
  5  6  2  0
  5  7  1  0
  7  8  1  0
  8  9  1  0
  9 10  1  0
 10 11  2  0
 11 12  1  0
 12 13  2  0
 13 14  1  0
 14 15  2  0
 15 16  1  0
 16 17  1  0
 17 18  2  0
 18 19  1  0
 19 20  2  0
 20 21  1  0
 21 22  2  0
 16  7  1  0
 22 17  1  0
 15 10  1  0
  1 23  1  0
  1 24  1  0
  1 25  1  0
  8 26  1  0
  8 27  1  0
  9 28  1  0
  9 29  1  0
 11 30  1  0
 12 31  1  0
 13 32  1  0
 14 33  1  0
 16 34  1  1
 18 35  1  0
 19 36  1  0
 20 37  1  0
 21 38  1  0
 22 39  1  0
M  CHG  1   2  -1
M  END
>  <UniqueID>  (17) 
17

>  <SMILES>  (17) 
C[N-]C(=O)C(=O)N1CCc2ccccc2[C@H]1c1ccccc1

>  <Energy>  (17) 
45.24924807154471

>  <Genealogy>  (17) 
C[N-]C(=O)C(=O)N1CCc2ccccc2C1c1ccccc1 (protonated)
C[N-]C(=O)C(=O)N1CCc2ccccc2[C@H]1c1ccccc1 (chirality)
C[N-]C(=O)C(=O)N1CCc2ccccc2[C@H]1c1ccccc1 (3D coordinates assigned)
C[N-]C(=O)C(=O)N1CCc2ccccc2[C@H]1c1ccccc1 (nonaromatic ring conformer: 45.24924807154471 kcal/mol)

>  <smiles>  (17) 
CNC(=O)C(=O)N1CCc2ccccc2C1c1ccccc1

>  <score_type>  (17) 
oracle

>  <origin>  (17) 
adg

>  <m_score__min__energy>  (17) 
-9.1400000000000006

>  <m_primary>  (17) 
energy

$$$$
17:0
     RDKit          3D

 44 47  0  0  0  0  0  0  0  0999 V2000
   63.8460   33.8030   47.4920 C   0  0  0  0  0  0  0  0  0  0  0  0
   62.6970   32.9090   47.5020 N   0  0  0  0  0  0  0  0  0  0  0  0
   62.7430   31.5670   47.5550 C   0  0  0  0  0  0  0  0  0  0  0  0
   61.4530   31.0850   47.4900 C   0  0  0  0  0  0  0  0  0  0  0  0
   60.6580   32.2180   47.3760 C   0  0  0  0  0  0  0  0  0  0  0  0
   59.1820   32.3080   47.3040 C   0  0  0  0  0  0  0  0  0  0  0  0
   58.5240   31.8490   48.2770 O   0  0  0  0  0  0  0  0  0  0  0  0
   58.4680   32.9320   46.2150 N   0  0  0  0  0  0  0  0  0  0  0  0
   57.7300   34.1640   46.2580 C   0  0  0  0  0  0  0  0  0  0  0  0
   57.0440   34.2080   44.9090 C   0  0  0  0  0  0  0  0  0  0  0  0
   57.6470   33.2520   44.0640 O   0  0  0  0  0  0  0  0  0  0  0  0
   58.3490   32.3480   44.8890 C   0  0  2  0  0  0  0  0  0  0  0  0
   57.6000   31.0490   44.9500 C   0  0  0  0  0  0  0  0  0  0  0  0
   58.1350   29.8080   45.2200 C   0  0  0  0  0  0  0  0  0  0  0  0
   57.0390   28.9700   45.1610 C   0  0  0  0  0  0  0  0  0  0  0  0
   57.0520   27.5140   45.3720 C   0  0  0  0  0  0  0  0  0  0  0  0
   56.7280   27.0480   46.4990 O   0  0  0  0  0  0  0  0  0  0  0  0
   57.4080   26.6290   44.2990 N   0  0  0  0  0  0  0  0  0  0  0  0
   57.5190   25.2090   44.4760 C   0  0  0  0  0  0  0  0  0  0  0  0
   56.7210   24.3610   43.6930 C   0  0  0  0  0  0  0  0  0  0  0  0
   56.8060   22.9740   43.8420 C   0  0  0  0  0  0  0  0  0  0  0  0
   57.6990   22.4230   44.7630 C   0  0  0  0  0  0  0  0  0  0  0  0
   58.5190   23.2570   45.5270 C   0  0  0  0  0  0  0  0  0  0  0  0
   58.4400   24.6490   45.3850 C   0  0  0  0  0  0  0  0  0  0  0  0
   59.5620   25.6500   46.2980 Cl  0  0  0  0  0  0  0  0  0  0  0  0
   55.9350   29.6850   44.8690 N   0  0  0  0  0  0  0  0  0  0  0  0
   56.3090   30.9250   44.7500 O   0  0  0  0  0  0  0  0  0  0  0  0
   61.4430   33.3150   47.3880 N   0  0  0  0  0  0  0  0  0  0  0  0
   64.1410   34.0325   48.5265 H   0  0  0  0  0  0  0  0  0  0  0  0
   64.6841   33.3171   46.9709 H   0  0  0  0  0  0  0  0  0  0  0  0
   63.5810   34.7348   46.9709 H   0  0  0  0  0  0  0  0  0  0  0  0
   63.6547   30.9569   47.6364 H   0  0  0  0  0  0  0  0  0  0  0  0
   61.1258   30.0353   47.5215 H   0  0  0  0  0  0  0  0  0  0  0  0
   56.9929   34.1532   47.0745 H   0  0  0  0  0  0  0  0  0  0  0  0
   58.3675   35.0407   46.4449 H   0  0  0  0  0  0  0  0  0  0  0  0
   55.9758   33.9747   45.0291 H   0  0  0  0  0  0  0  0  0  0  0  0
   57.1432   35.2119   44.4704 H   0  0  0  0  0  0  0  0  0  0  0  0
   59.3535   32.1538   44.4849 H   0  0  0  0  0  0  0  0  0  0  0  0
   59.1826   29.5477   45.4315 H   0  0  0  0  0  0  0  0  0  0  0  0
   57.3980   27.0000   43.3230 H   0  0  0  0  0  0  0  0  0  0  0  0
   56.0246   24.7904   42.9577 H   0  0  0  0  0  0  0  0  0  0  0  0
   56.1688   22.3158   43.2331 H   0  0  0  0  0  0  0  0  0  0  0  0
   57.7569   21.3316   44.8871 H   0  0  0  0  0  0  0  0  0  0  0  0
   59.2298   22.8191   46.2432 H   0  0  0  0  0  0  0  0  0  0  0  0
  1  2  1  0
  2  3  1  0
  3  4  2  0
  4  5  1  0
  5  6  1  0
  6  7  2  0
  6  8  1  0
  8  9  1  0
  9 10  1  0
 10 11  1  0
 11 12  1  0
 12 13  1  0
 13 14  2  0
 14 15  1  0
 15 16  1  0
 16 17  2  0
 16 18  1  0
 18 19  1  0
 19 20  2  0
 20 21  1  0
 21 22  2  0
 22 23  1  0
 23 24  2  0
 24 25  1  0
 15 26  2  0
 26 27  1  0
  5 28  2  0
 28  2  1  0
 12  8  1  0
 27 13  1  0
 24 19  1  0
  1 29  1  0
  1 30  1  0
  1 31  1  0
  3 32  1  0
  4 33  1  0
  9 34  1  0
  9 35  1  0
 10 36  1  0
 10 37  1  0
 12 38  1  6
 14 39  1  0
 18 40  1  0
 20 41  1  0
 21 42  1  0
 22 43  1  0
 23 44  1  0
M  END
>  <UniqueID>  (18) 
18

>  <SMILES>  (18) 
Cn1ccc(C(=O)N2CCO[C@@H]2c2cc(C(=O)Nc3ccccc3Cl)no2)n1

>  <Energy>  (18) 
114.82791043092773

>  <Genealogy>  (18) 
Cn1ccc(C(=O)N2CCO[C@@H]2c2cc(C(=O)Nc3ccccc3Cl)no2)n1 (chirality)
Cn1ccc(C(=O)N2CCO[C@@H]2c2cc(C(=O)Nc3ccccc3Cl)no2)n1 (3D coordinates assigned)
Cn1ccc(C(=O)N2CCO[C@@H]2c2cc(C(=O)Nc3ccccc3Cl)no2)n1 (nonaromatic ring conformer: 114.82791043092773 kcal/mol)

>  <smiles>  (18) 
Cn1ccc(C(=O)N2CCOC2c2cc(C(=O)Nc3ccccc3Cl)no2)n1

>  <score_type>  (18) 
oracle

>  <origin>  (18) 
adg

>  <m_score__min__energy>  (18) 
-8.8000000000000007

>  <m_primary>  (18) 
energy

$$$$
18:0
     RDKit          3D

 45 47  0  0  0  0  0  0  0  0999 V2000
   55.0370   21.8110   45.5980 C   0  0  0  0  0  0  0  0  0  0  0  0
   55.6750   23.1570   45.4180 C   0  0  0  0  0  0  0  0  0  0  0  0
   56.9940   23.2570   44.9530 C   0  0  0  0  0  0  0  0  0  0  0  0
   57.6010   24.5070   44.8210 C   0  0  0  0  0  0  0  0  0  0  0  0
   56.9070   25.6780   45.1660 C   0  0  0  0  0  0  0  0  0  0  0  0
   57.5950   27.0220   45.0190 C   0  0  0  0  0  0  0  0  0  0  0  0
   57.4910   27.8450   46.2500 N   0  0  1  0  0  0  0  0  0  0  0  0
   58.6090   27.5180   47.1720 C   0  0  0  0  0  0  0  0  0  0  0  0
   58.9350   28.7080   48.1020 C   0  0  1  0  0  0  0  0  0  0  0  0
   60.0140   28.3110   49.1170 C   0  0  0  0  0  0  0  0  0  0  0  0
   61.0550   29.2520   49.1190 O   0  0  0  0  0  0  0  0  0  0  0  0
   59.3740   29.8570   47.3870 O   0  0  0  0  0  0  0  0  0  0  0  0
   58.8030   29.9840   46.0870 C   0  0  2  0  0  0  0  0  0  0  0  0
   58.6930   31.4110   45.7260 N   0  0  0  0  0  0  0  0  0  0  0  0
   59.1990   32.3530   46.5800 C   0  0  0  0  0  0  0  0  0  0  0  0
   59.1380   33.7090   46.2630 C   0  0  0  0  0  0  0  0  0  0  0  0
   59.6340   34.6390   47.1180 F   0  0  0  0  0  0  0  0  0  0  0  0
   58.5610   34.0840   45.0530 C   0  0  0  0  0  0  0  0  0  0  0  0
   58.4860   35.2990   44.7330 O   0  0  0  0  0  0  0  0  0  0  0  0
   58.0820   33.1330   44.2140 N   0  0  0  0  0  0  0  0  0  0  0  0
   58.1460   31.8130   44.5300 C   0  0  0  0  0  0  0  0  0  0  0  0
   57.6980   30.9690   43.7070 O   0  0  0  0  0  0  0  0  0  0  0  0
   57.4220   29.3010   45.9470 C   0  0  0  0  0  0  0  0  0  0  0  0
   55.5860   25.5760   45.6450 C   0  0  0  0  0  0  0  0  0  0  0  0
   54.8640   26.7130   45.9970 O   0  0  0  0  0  0  0  0  0  0  0  0
   54.9800   24.3210   45.7760 C   0  0  0  0  0  0  0  0  0  0  0  0
   54.9344   21.5945   46.6716 H   0  0  0  0  0  0  0  0  0  0  0  0
   54.0428   21.8105   45.1272 H   0  0  0  0  0  0  0  0  0  0  0  0
   55.6660   21.0412   45.1272 H   0  0  0  0  0  0  0  0  0  0  0  0
   57.5528   22.3465   44.6911 H   0  0  0  0  0  0  0  0  0  0  0  0
   58.6319   24.5754   44.4435 H   0  0  0  0  0  0  0  0  0  0  0  0
   58.6586   26.8525   44.7955 H   0  0  0  0  0  0  0  0  0  0  0  0
   57.0960   27.5686   44.2052 H   0  0  0  0  0  0  0  0  0  0  0  0
   56.6040   27.5840   46.7450 H   0  0  0  0  0  0  0  0  0  0  0  0
   58.3253   26.6505   47.7859 H   0  0  0  0  0  0  0  0  0  0  0  0
   59.5016   27.2929   46.5698 H   0  0  0  0  0  0  0  0  0  0  0  0
   57.9992   28.9667   48.6191 H   0  0  0  0  0  0  0  0  0  0  0  0
   59.5669   28.2632   50.1209 H   0  0  0  0  0  0  0  0  0  0  0  0
   60.4222   27.3286   48.8373 H   0  0  0  0  0  0  0  0  0  0  0  0
   60.8150   29.9460   48.4500 H   0  0  0  0  0  0  0  0  0  0  0  0
   59.4814   29.4618   45.3963 H   0  0  0  0  0  0  0  0  0  0  0  0
   59.6592   32.0364   47.5276 H   0  0  0  0  0  0  0  0  0  0  0  0
   56.7173   29.7767   46.6449 H   0  0  0  0  0  0  0  0  0  0  0  0
   57.0873   29.4176   44.9057 H   0  0  0  0  0  0  0  0  0  0  0  0
   53.9526   24.2475   46.1620 H   0  0  0  0  0  0  0  0  0  0  0  0
  1  2  1  0
  2  3  2  0
  3  4  1  0
  4  5  2  0
  5  6  1  0
  6  7  1  0
  7  8  1  0
  8  9  1  0
  9 10  1  0
 10 11  1  0
  9 12  1  0
 12 13  1  0
 13 14  1  0
 14 15  1  0
 15 16  2  0
 16 17  1  0
 16 18  1  0
 18 19  2  0
 18 20  1  0
 20 21  1  0
 21 22  2  0
 13 23  1  0
  5 24  1  0
 24 25  1  0
 24 26  2  0
 26  2  1  0
 23  7  1  0
 21 14  1  0
  1 27  1  0
  1 28  1  0
  1 29  1  0
  3 30  1  0
  4 31  1  0
  6 32  1  0
  6 33  1  0
  7 34  1  1
  8 35  1  0
  8 36  1  0
  9 37  1  1
 10 38  1  0
 10 39  1  0
 11 40  1  0
 13 41  1  6
 15 42  1  0
 23 43  1  0
 23 44  1  0
 26 45  1  0
M  CHG  3   7   1  20  -1  25  -1
M  END
>  <UniqueID>  (19) 
19

>  <SMILES>  (19) 
Cc1ccc(C[N@@H+]2CC(n3cc(F)c(=O)[n-]c3=O)O[C@H](CO)C2)c([O-])c1

>  <Energy>  (19) 
64.5669280659335

>  <Genealogy>  (19) 
Cc1ccc(C[NH+]2CC(CO)OC(n3cc(F)c(=O)[n-]c3=O)C2)c([O-])c1 (protonated)
Cc1ccc(C[N@@H+]2CC(n3cc(F)c(=O)[n-]c3=O)O[C@H](CO)C2)c([O-])c1 (chirality)
Cc1ccc(C[N@@H+]2CC(n3cc(F)c(=O)[n-]c3=O)O[C@H](CO)C2)c([O-])c1 (3D coordinates assigned)
Cc1ccc(C[N@@H+]2CC(n3cc(F)c(=O)[n-]c3=O)O[C@H](CO)C2)c([O-])c1 (nonaromatic ring conformer: 64.5669280659335 kcal/mol)

>  <smiles>  (19) 
Cc1ccc(CN2CC(CO)OC(n3cc(F)c(=O)[nH]c3=O)C2)c(O)c1

>  <score_type>  (19) 
oracle

>  <origin>  (19) 
adg

>  <m_score__min__energy>  (19) 
-10.41

>  <m_primary>  (19) 
energy

$$$$
19:0
     RDKit          3D

 47 49  0  0  0  0  0  0  0  0999 V2000
   57.6700   33.4270   47.0760 N   0  0  0  0  0  0  0  0  0  0  0  0
   58.3910   33.4520   45.5040 S   0  0  0  0  0  0  0  0  0  0  0  0
   59.8730   33.2390   45.6470 O   0  0  0  0  0  0  0  0  0  0  0  0
   58.1370   34.7850   44.8600 O   0  0  0  0  0  0  0  0  0  0  0  0
   57.7100   32.1780   44.5000 C   0  0  0  0  0  0  0  0  0  0  0  0
   57.8360   32.2450   43.1060 C   0  0  0  0  0  0  0  0  0  0  0  0
   57.2810   31.2450   42.3030 C   0  0  0  0  0  0  0  0  0  0  0  0
   56.6080   30.1690   42.8870 C   0  0  0  0  0  0  0  0  0  0  0  0
   56.4980   30.0760   44.2790 C   0  0  0  0  0  0  0  0  0  0  0  0
   55.7780   28.9770   44.8500 N   0  0  0  0  0  0  0  0  0  0  0  0
   56.3460   27.8240   45.4850 C   0  0  0  0  0  0  0  0  0  0  0  0
   55.5720   26.9800   46.0110 O   0  0  0  0  0  0  0  0  0  0  0  0
   57.8170   27.5070   45.3910 C   0  0  0  0  0  0  0  0  0  0  0  0
   58.6400   28.6070   45.9370 N   0  0  0  0  0  0  0  0  0  0  0  0
   58.4470   28.7160   47.4010 C   0  0  0  0  0  0  0  0  0  0  0  0
   59.5980   29.4460   48.1320 C   0  0  0  0  0  0  0  0  0  0  0  0
   60.4040   30.2710   47.2200 N   0  0  0  0  0  0  0  0  0  0  0  0
   61.0430   31.4680   47.7090 C   0  0  0  0  0  0  0  0  0  0  0  0
   62.3870   31.7440   47.3930 C   0  0  0  0  0  0  0  0  0  0  0  0
   63.0010   32.9070   47.8660 C   0  0  0  0  0  0  0  0  0  0  0  0
   62.2840   33.8070   48.6570 C   0  0  0  0  0  0  0  0  0  0  0  0
   60.9500   33.5450   48.9780 C   0  0  0  0  0  0  0  0  0  0  0  0
   60.3300   32.3830   48.5070 C   0  0  0  0  0  0  0  0  0  0  0  0
   60.7970   29.7370   45.9070 C   0  0  0  0  0  0  0  0  0  0  0  0
   60.0630   28.4340   45.6000 C   0  0  0  0  0  0  0  0  0  0  0  0
   57.0210   31.1040   45.0820 C   0  0  0  0  0  0  0  0  0  0  0  0
   56.7280   33.8690   46.9890 H   0  0  0  0  0  0  0  0  0  0  0  0
   58.2430   34.0550   47.6850 H   0  0  0  0  0  0  0  0  0  0  0  0
   58.3727   33.0862   42.6430 H   0  0  0  0  0  0  0  0  0  0  0  0
   57.3742   31.3052   41.2086 H   0  0  0  0  0  0  0  0  0  0  0  0
   56.1624   29.3911   42.2496 H   0  0  0  0  0  0  0  0  0  0  0  0
   58.0227   26.5888   45.9608 H   0  0  0  0  0  0  0  0  0  0  0  0
   58.0760   27.3734   44.3303 H   0  0  0  0  0  0  0  0  0  0  0  0
   57.5136   29.2674   47.5872 H   0  0  0  0  0  0  0  0  0  0  0  0
   58.4174   27.6900   47.7965 H   0  0  0  0  0  0  0  0  0  0  0  0
   59.1681   30.0948   48.9093 H   0  0  0  0  0  0  0  0  0  0  0  0
   60.2587   28.6816   48.5669 H   0  0  0  0  0  0  0  0  0  0  0  0
   62.9575   31.0397   46.7698 H   0  0  0  0  0  0  0  0  0  0  0  0
   64.0517   33.1139   47.6145 H   0  0  0  0  0  0  0  0  0  0  0  0
   62.7695   34.7220   49.0272 H   0  0  0  0  0  0  0  0  0  0  0  0
   60.3861   34.2537   49.6023 H   0  0  0  0  0  0  0  0  0  0  0  0
   59.2788   32.1828   48.7616 H   0  0  0  0  0  0  0  0  0  0  0  0
   60.5538   30.4775   45.1308 H   0  0  0  0  0  0  0  0  0  0  0  0
   61.8778   29.5331   45.9227 H   0  0  0  0  0  0  0  0  0  0  0  0
   60.1644   28.1942   44.5312 H   0  0  0  0  0  0  0  0  0  0  0  0
   60.4925   27.6119   46.1914 H   0  0  0  0  0  0  0  0  0  0  0  0
   56.8892   31.0660   46.1734 H   0  0  0  0  0  0  0  0  0  0  0  0
  1  2  1  0
  2  3  2  0
  2  4  2  0
  2  5  1  0
  5  6  2  0
  6  7  1  0
  7  8  2  0
  8  9  1  0
  9 10  1  0
 10 11  1  0
 11 12  2  0
 11 13  1  0
 13 14  1  0
 14 15  1  0
 15 16  1  0
 16 17  1  0
 17 18  1  0
 18 19  2  0
 19 20  1  0
 20 21  2  0
 21 22  1  0
 22 23  2  0
 17 24  1  0
 24 25  1  0
  9 26  2  0
 26  5  1  0
 25 14  1  0
 23 18  1  0
  1 27  1  0
  1 28  1  0
  6 29  1  0
  7 30  1  0
  8 31  1  0
 13 32  1  0
 13 33  1  0
 15 34  1  0
 15 35  1  0
 16 36  1  0
 16 37  1  0
 19 38  1  0
 20 39  1  0
 21 40  1  0
 22 41  1  0
 23 42  1  0
 24 43  1  0
 24 44  1  0
 25 45  1  0
 25 46  1  0
 26 47  1  0
M  CHG  1  10  -1
M  END
>  <UniqueID>  (20) 
20

>  <SMILES>  (20) 
NS(=O)(=O)c1cccc([N-]C(=O)CN2CCN(c3ccccc3)CC2)c1

>  <Energy>  (20) 
61.18611646049084

>  <Genealogy>  (20) 
NS(=O)(=O)c1cccc([N-]C(=O)CN2CCN(c3ccccc3)CC2)c1 (protonated)
NS(=O)(=O)c1cccc([N-]C(=O)CN2CCN(c3ccccc3)CC2)c1 (3D coordinates assigned)
NS(=O)(=O)c1cccc([N-]C(=O)CN2CCN(c3ccccc3)CC2)c1 (nonaromatic ring conformer: 61.18611646049084 kcal/mol)

>  <smiles>  (20) 
NS(=O)(=O)c1cccc(NC(=O)CN2CCN(c3ccccc3)CC2)c1

>  <score_type>  (20) 
oracle

>  <origin>  (20) 
adg

>  <m_score__min__energy>  (20) 
-10.42

>  <m_primary>  (20) 
energy

$$$$
20:0
     RDKit          3D

 56 59  0  0  0  0  0  0  0  0999 V2000
   60.8187   26.9623   48.6607 H   0  0  0  0  0  0  0  0  0  0  0  0
   60.5850   27.5980   47.7940 C   0  0  0  0  0  0  0  0  0  0  0  0
   60.1450   27.0010   46.6740 C   0  0  0  0  0  0  0  0  0  0  0  0
   60.8861   26.6823   45.9262 H   0  0  0  0  0  0  0  0  0  0  0  0
   58.7100   26.7500   46.3950 C   0  0  0  0  0  0  0  0  0  0  0  0
   58.0800   25.5360   46.7300 C   0  0  0  0  0  0  0  0  0  0  0  0
   58.6598   24.7318   47.2066 H   0  0  0  0  0  0  0  0  0  0  0  0
   56.7220   25.3480   46.4600 C   0  0  0  0  0  0  0  0  0  0  0  0
   56.2378   24.3954   46.7212 H   0  0  0  0  0  0  0  0  0  0  0  0
   55.9780   26.3650   45.8600 C   0  0  0  0  0  0  0  0  0  0  0  0
   54.9110   26.2069   45.6444 H   0  0  0  0  0  0  0  0  0  0  0  0
   56.5800   27.5840   45.5310 C   0  0  0  0  0  0  0  0  0  0  0  0
   55.7880   28.5760   44.9330 O   0  0  0  0  0  0  0  0  0  0  0  0
   56.2870   29.5960   44.0740 C   0  0  0  0  0  0  0  0  0  0  0  0
   56.6905   30.4207   44.6799 H   0  0  0  0  0  0  0  0  0  0  0  0
   57.0848   29.1830   43.4392 H   0  0  0  0  0  0  0  0  0  0  0  0
   55.4713   29.9723   43.4392 H   0  0  0  0  0  0  0  0  0  0  0  0
   57.9480   27.7740   45.8090 C   0  0  0  0  0  0  0  0  0  0  0  0
   58.4245   28.7348   45.5644 H   0  0  0  0  0  0  0  0  0  0  0  0
   60.7750   29.0640   47.9330 C   0  0  0  0  0  0  0  0  0  0  0  0
   60.5960   29.8730   46.8080 C   0  0  0  0  0  0  0  0  0  0  0  0
   60.3342   29.4160   45.8423 H   0  0  0  0  0  0  0  0  0  0  0  0
   60.7430   31.2180   46.8990 N   0  0  0  0  0  0  0  0  0  0  0  0
   61.0610   31.8460   48.0630 C   0  0  0  0  0  0  0  0  0  0  0  0
   61.2420   31.0810   49.2480 C   0  0  0  0  0  0  0  0  0  0  0  0
   61.0790   29.6860   49.1550 C   0  0  0  0  0  0  0  0  0  0  0  0
   61.1922   29.0696   50.0590 H   0  0  0  0  0  0  0  0  0  0  0  0
   61.4550   31.6440   50.5740 N   0  0  0  0  0  0  0  0  0  0  0  0
   62.2270   31.1070   51.0360 H   0  0  0  0  0  0  0  0  0  0  0  0
   60.5860   31.4780   51.1330 H   0  0  0  0  0  0  0  0  0  0  0  0
   61.7980   33.0750   50.6830 C   0  0  0  0  0  0  0  0  0  0  0  0
   60.9224   33.6696   50.3834 H   0  0  0  0  0  0  0  0  0  0  0  0
   62.0853   33.2670   51.7273 H   0  0  0  0  0  0  0  0  0  0  0  0
   62.9860   33.4730   49.7980 C   0  0  0  0  0  0  0  0  0  0  0  0
   63.4829   34.3478   50.2428 H   0  0  0  0  0  0  0  0  0  0  0  0
   63.6699   32.6134   49.7406 H   0  0  0  0  0  0  0  0  0  0  0  0
   62.5460   33.8260   48.3680 C   0  0  0  0  0  0  0  0  0  0  0  0
   62.5048   34.9208   48.2699 H   0  0  0  0  0  0  0  0  0  0  0  0
   63.2772   33.3895   47.6717 H   0  0  0  0  0  0  0  0  0  0  0  0
   61.2240   33.2710   48.0420 N   0  0  0  0  0  0  0  0  0  0  0  0
   60.1570   34.1010   47.4480 C   0  0  0  0  0  0  0  0  0  0  0  0
   60.2161   35.0998   47.9050 H   0  0  0  0  0  0  0  0  0  0  0  0
   60.3720   34.2910   45.9340 C   0  0  0  0  0  0  0  0  0  0  0  0
   61.2109   34.9832   45.7696 H   0  0  0  0  0  0  0  0  0  0  0  0
   60.5965   33.3160   45.4769 H   0  0  0  0  0  0  0  0  0  0  0  0
   59.1040   34.8680   45.2900 C   0  0  0  0  0  0  0  0  0  0  0  0
   58.9069   35.8556   45.7325 H   0  0  0  0  0  0  0  0  0  0  0  0
   59.2881   34.9262   44.2071 H   0  0  0  0  0  0  0  0  0  0  0  0
   57.9070   34.0200   45.4840 N   0  0  0  0  0  0  0  0  0  0  0  0
   57.6960   33.5240   44.5860 H   0  0  0  0  0  0  0  0  0  0  0  0
   58.0280   33.0040   46.5440 C   0  0  0  0  0  0  0  0  0  0  0  0
   57.0203   32.6731   46.8354 H   0  0  0  0  0  0  0  0  0  0  0  0
   58.6221   32.1677   46.1469 H   0  0  0  0  0  0  0  0  0  0  0  0
   58.7480   33.5500   47.7840 C   0  0  0  0  0  0  0  0  0  0  0  0
   58.1439   34.3617   48.2156 H   0  0  0  0  0  0  0  0  0  0  0  0
   58.8709   32.7203   48.4957 H   0  0  0  0  0  0  0  0  0  0  0  0
  1  2  1  0
  2  3  2  0
  3  4  1  0
  3  5  1  0
  5  6  2  0
  6  7  1  0
  6  8  1  0
  8  9  1  0
  8 10  2  0
 10 11  1  0
 10 12  1  0
 12 13  1  0
 13 14  1  0
 14 15  1  0
 14 16  1  0
 14 17  1  0
 12 18  2  0
 18 19  1  0
  2 20  1  0
 20 21  2  0
 21 22  1  0
 21 23  1  0
 23 24  2  0
 24 25  1  0
 25 26  2  0
 26 27  1  0
 25 28  1  0
 28 29  1  0
 28 30  1  0
 28 31  1  0
 31 32  1  0
 31 33  1  0
 31 34  1  0
 34 35  1  0
 34 36  1  0
 34 37  1  0
 37 38  1  0
 37 39  1  0
 37 40  1  0
 40 41  1  0
 41 42  1  0
 41 43  1  0
 43 44  1  0
 43 45  1  0
 43 46  1  0
 46 47  1  0
 46 48  1  0
 46 49  1  0
 49 50  1  0
 49 51  1  0
 51 52  1  0
 51 53  1  0
 51 54  1  0
 54 55  1  0
 54 56  1  0
 18  5  1  0
 26 20  1  0
 54 41  1  0
 40 24  1  0
M  CHG  1  28   1
M  END
>  <UniqueID>  (21) 
21

>  <SMILES>  (21) 
COc1cccc(/C=C/c2cnc3c(c2)[NH2+]CCCN3C2CCNCC2)c1

>  <Energy>  (21) 
87.03337274518617

>  <Genealogy>  (21) 
COc1cccc(C=Cc2cnc3c(c2)[NH2+]CCCN3C2CCNCC2)c1 (protonated)
COc1cccc(/C=C/c2cnc3c(c2)[NH2+]CCCN3C2CCNCC2)c1 (cis-trans isomerization)
COc1cccc(/C=C/c2cnc3c(c2)[NH2+]CCCN3C2CCNCC2)c1 (3D coordinates assigned)
COc1cccc(/C=C/c2cnc3c(c2)[NH2+]CCCN3C2CCNCC2)c1 (nonaromatic ring conformer: 87.03337274518617 kcal/mol)

>  <smiles>  (21) 
COc1cccc(C=Cc2cnc3c(c2)NCCCN3C2CCNCC2)c1

>  <score_type>  (21) 
oracle

>  <origin>  (21) 
adg

>  <m_score__min__energy>  (21) 
-6.0899999999999999

>  <m_primary>  (21) 
energy

$$$$
21:0
     RDKit          3D

 53 56  0  0  0  0  0  0  0  0999 V2000
   55.5030   26.2840   46.1510 O   0  0  0  0  0  0  0  0  0  0  0  0
   56.3440   27.1920   45.9030 C   0  0  0  0  0  0  0  0  0  0  0  0
   55.9230   28.3880   45.2380 N   0  0  0  0  0  0  0  0  0  0  0  0
   56.7320   29.0520   44.2240 C   0  0  0  0  0  0  0  0  0  0  0  0
   56.2730   30.5010   44.0650 C   0  0  0  0  0  0  0  0  0  0  0  0
   57.1970   31.4350   44.7990 C   0  0  0  0  0  0  0  0  0  0  0  0
   56.7860   32.7390   45.1180 C   0  0  0  0  0  0  0  0  0  0  0  0
   57.6330   33.5930   45.8280 C   0  0  0  0  0  0  0  0  0  0  0  0
   58.8970   33.1490   46.2400 C   0  0  0  0  0  0  0  0  0  0  0  0
   59.9780   34.2220   47.1210 S   0  0  0  0  0  0  0  0  0  0  0  0
   60.4440   35.3470   46.2400 O   0  0  0  0  0  0  0  0  0  0  0  0
   59.2390   34.8040   48.2940 O   0  0  0  0  0  0  0  0  0  0  0  0
   61.3530   33.3270   47.6750 N   0  0  0  0  0  0  0  0  0  0  0  0
   62.6630   33.4440   47.1680 C   0  0  0  0  0  0  0  0  0  0  0  0
   63.0220   34.3220   46.3390 O   0  0  0  0  0  0  0  0  0  0  0  0
   63.5370   32.4790   47.7050 N   0  0  0  0  0  0  0  0  0  0  0  0
   62.7750   31.6400   48.6230 C   0  0  0  0  0  0  0  0  0  0  0  0
   61.3170   32.1910   48.5920 C   0  0  1  0  0  0  0  0  0  0  0  0
   60.8460   32.6250   49.9630 C   0  0  0  0  0  0  0  0  0  0  0  0
   59.4780   32.5790   50.2860 C   0  0  0  0  0  0  0  0  0  0  0  0
   59.0390   32.9720   51.5550 C   0  0  0  0  0  0  0  0  0  0  0  0
   59.9600   33.4090   52.5110 C   0  0  0  0  0  0  0  0  0  0  0  0
   61.3230   33.4500   52.2040 C   0  0  0  0  0  0  0  0  0  0  0  0
   62.2160   33.8700   53.1340 F   0  0  0  0  0  0  0  0  0  0  0  0
   61.7670   33.0580   50.9370 C   0  0  0  0  0  0  0  0  0  0  0  0
   59.3100   31.8480   45.9290 C   0  0  0  0  0  0  0  0  0  0  0  0
   58.4630   30.9920   45.2170 C   0  0  0  0  0  0  0  0  0  0  0  0
   57.7570   27.0240   46.3090 C   0  0  0  0  0  0  0  0  0  0  0  0
   58.4110   28.0070   47.0710 C   0  0  0  0  0  0  0  0  0  0  0  0
   59.7500   27.8390   47.4310 C   0  0  0  0  0  0  0  0  0  0  0  0
   60.4260   26.6820   47.0410 C   0  0  0  0  0  0  0  0  0  0  0  0
   59.7830   25.7360   46.3060 N   0  0  0  0  0  0  0  0  0  0  0  0
   58.4830   25.8790   45.9340 C   0  0  0  0  0  0  0  0  0  0  0  0
   57.7884   29.0348   44.5303 H   0  0  0  0  0  0  0  0  0  0  0  0
   56.6164   28.5263   43.2647 H   0  0  0  0  0  0  0  0  0  0  0  0
   56.2684   30.7632   42.9967 H   0  0  0  0  0  0  0  0  0  0  0  0
   55.2618   30.6001   44.4865 H   0  0  0  0  0  0  0  0  0  0  0  0
   55.7911   33.0902   44.8069 H   0  0  0  0  0  0  0  0  0  0  0  0
   57.3072   34.6167   46.0644 H   0  0  0  0  0  0  0  0  0  0  0  0
   64.5530   32.3780   47.4800 H   0  0  0  0  0  0  0  0  0  0  0  0
   62.7954   30.5917   48.2903 H   0  0  0  0  0  0  0  0  0  0  0  0
   63.1959   31.6659   49.6390 H   0  0  0  0  0  0  0  0  0  0  0  0
   60.6089   31.4146   48.2667 H   0  0  0  0  0  0  0  0  0  0  0  0
   58.7500   32.2325   49.5377 H   0  0  0  0  0  0  0  0  0  0  0  0
   57.9673   32.9370   51.8006 H   0  0  0  0  0  0  0  0  0  0  0  0
   59.6117   33.7212   53.5066 H   0  0  0  0  0  0  0  0  0  0  0  0
   62.8407   33.0880   50.6999 H   0  0  0  0  0  0  0  0  0  0  0  0
   60.3036   31.4977   46.2455 H   0  0  0  0  0  0  0  0  0  0  0  0
   58.7896   29.9679   44.9835 H   0  0  0  0  0  0  0  0  0  0  0  0
   57.8674   28.9104   47.3845 H   0  0  0  0  0  0  0  0  0  0  0  0
   60.2677   28.6125   48.0173 H   0  0  0  0  0  0  0  0  0  0  0  0
   61.4778   26.5356   47.3279 H   0  0  0  0  0  0  0  0  0  0  0  0
   57.9961   25.0945   45.3361 H   0  0  0  0  0  0  0  0  0  0  0  0
  1  2  2  0
  2  3  1  0
  3  4  1  0
  4  5  1  0
  5  6  1  0
  6  7  2  0
  7  8  1  0
  8  9  2  0
  9 10  1  0
 10 11  2  0
 10 12  2  0
 10 13  1  0
 13 14  1  0
 14 15  2  0
 14 16  1  0
 16 17  1  0
 17 18  1  0
 18 19  1  0
 19 20  2  0
 20 21  1  0
 21 22  2  0
 22 23  1  0
 23 24  1  0
 23 25  2  0
  9 26  1  0
 26 27  2  0
  2 28  1  0
 28 29  2  0
 29 30  1  0
 30 31  2  0
 31 32  1  0
 32 33  2  0
 27  6  1  0
 33 28  1  0
 18 13  1  0
 25 19  1  0
  4 34  1  0
  4 35  1  0
  5 36  1  0
  5 37  1  0
  7 38  1  0
  8 39  1  0
 16 40  1  0
 17 41  1  0
 17 42  1  0
 18 43  1  6
 20 44  1  0
 21 45  1  0
 22 46  1  0
 25 47  1  0
 26 48  1  0
 27 49  1  0
 29 50  1  0
 30 51  1  0
 31 52  1  0
 33 53  1  0
M  CHG  1   3  -1
M  END
>  <UniqueID>  (22) 
22

>  <SMILES>  (22) 
O=C([N-]CCc1ccc(S(=O)(=O)N2C(=O)NC[C@H]2c2cccc(F)c2)cc1)c1cccnc1

>  <Energy>  (22) 
68.23288018044056

>  <Genealogy>  (22) 
O=C([N-]CCc1ccc(S(=O)(=O)N2C(=O)NCC2c2cccc(F)c2)cc1)c1cccnc1 (protonated)
O=C([N-]CCc1ccc(S(=O)(=O)N2C(=O)NC[C@H]2c2cccc(F)c2)cc1)c1cccnc1 (chirality)
O=C([N-]CCc1ccc(S(=O)(=O)N2C(=O)NC[C@H]2c2cccc(F)c2)cc1)c1cccnc1 (3D coordinates assigned)
O=C([N-]CCc1ccc(S(=O)(=O)N2C(=O)NC[C@H]2c2cccc(F)c2)cc1)c1cccnc1 (nonaromatic ring conformer: 68.23288018044056 kcal/mol)

>  <smiles>  (22) 
O=C(NCCc1ccc(S(=O)(=O)N2C(=O)NCC2c2cccc(F)c2)cc1)c1cccnc1

>  <score_type>  (22) 
oracle

>  <origin>  (22) 
adg

>  <m_score__min__energy>  (22) 
-12.029999999999999

>  <m_primary>  (22) 
energy

$$$$
22:0
     RDKit          3D

 46 48  0  0  0  0  0  0  0  0999 V2000
   58.1200   32.5570   42.9830 C   0  0  0  0  0  0  0  0  0  0  0  0
   57.7190   32.1470   44.2620 O   0  0  0  0  0  0  0  0  0  0  0  0
   58.2170   32.7150   45.4050 C   0  0  0  0  0  0  0  0  0  0  0  0
   58.6920   33.9730   45.4100 N   0  0  0  0  0  0  0  0  0  0  0  0
   59.1910   34.5710   46.5110 C   0  0  0  0  0  0  0  0  0  0  0  0
   59.6420   35.8000   46.4650 N   0  0  0  0  0  0  0  0  0  0  0  0
   59.2260   33.8770   47.7040 C   0  0  0  0  0  0  0  0  0  0  0  0
   59.7850   34.5830   48.8830 C   0  0  0  0  0  0  0  0  0  0  0  0
   60.8220   33.7810   49.6250 C   0  0  0  0  0  0  0  0  0  0  0  0
   61.8440   33.1790   48.7320 C   0  0  0  0  0  0  0  0  0  0  0  0
   61.7540   31.8230   48.4400 C   0  0  0  0  0  0  0  0  0  0  0  0
   62.7120   31.2540   47.6000 C   0  0  0  0  0  0  0  0  0  0  0  0
   63.7120   32.0680   47.0940 C   0  0  0  0  0  0  0  0  0  0  0  0
   63.7790   33.4080   47.3990 C   0  0  0  0  0  0  0  0  0  0  0  0
   62.8440   33.9820   48.2250 C   0  0  0  0  0  0  0  0  0  0  0  0
   58.7510   32.5770   47.7640 C   0  0  0  0  0  0  0  0  0  0  0  0
   58.2510   32.0140   46.6040 C   0  0  0  0  0  0  0  0  0  0  0  0
   57.7800   30.7310   46.6500 O   0  0  0  0  0  0  0  0  0  0  0  0
   57.9320   29.7430   45.7050 C   0  0  0  0  0  0  0  0  0  0  0  0
   59.0090   28.9010   45.6100 C   0  0  0  0  0  0  0  0  0  0  0  0
   59.1000   27.9420   44.6520 N   0  0  0  0  0  0  0  0  0  0  0  0
   58.0810   27.8260   43.7630 C   0  0  0  0  0  0  0  0  0  0  0  0
   58.1540   26.9230   42.8490 N   0  0  0  0  0  0  0  0  0  0  0  0
   57.0110   28.6330   43.8250 N   0  0  0  0  0  0  0  0  0  0  0  0
   56.9220   29.5860   44.7790 C   0  0  0  0  0  0  0  0  0  0  0  0
   55.8540   30.3330   44.7790 N   0  0  0  0  0  0  0  0  0  0  0  0
   58.8866   33.3408   43.0728 H   0  0  0  0  0  0  0  0  0  0  0  0
   58.5362   31.6980   42.4363 H   0  0  0  0  0  0  0  0  0  0  0  0
   57.2520   32.9540   42.4363 H   0  0  0  0  0  0  0  0  0  0  0  0
   58.6990   34.5670   44.5380 H   0  0  0  0  0  0  0  0  0  0  0  0
   59.2470   36.4920   47.1420 H   0  0  0  0  0  0  0  0  0  0  0  0
   60.2483   35.5202   48.5408 H   0  0  0  0  0  0  0  0  0  0  0  0
   58.9525   34.7606   49.5797 H   0  0  0  0  0  0  0  0  0  0  0  0
   61.3300   34.4436   50.3412 H   0  0  0  0  0  0  0  0  0  0  0  0
   60.2985   32.9541   50.1272 H   0  0  0  0  0  0  0  0  0  0  0  0
   60.9438   31.2107   48.8626 H   0  0  0  0  0  0  0  0  0  0  0  0
   62.6740   30.1845   47.3457 H   0  0  0  0  0  0  0  0  0  0  0  0
   64.4730   31.6314   46.4305 H   0  0  0  0  0  0  0  0  0  0  0  0
   64.5874   34.0240   46.9782 H   0  0  0  0  0  0  0  0  0  0  0  0
   62.8914   35.0521   48.4752 H   0  0  0  0  0  0  0  0  0  0  0  0
   58.7709   32.0096   48.7061 H   0  0  0  0  0  0  0  0  0  0  0  0
   59.8293   29.0053   46.3354 H   0  0  0  0  0  0  0  0  0  0  0  0
   59.9270   27.3090   44.5930 H   0  0  0  0  0  0  0  0  0  0  0  0
   57.2910   26.4270   42.5190 H   0  0  0  0  0  0  0  0  0  0  0  0
   56.2430   28.5330   43.1410 H   0  0  0  0  0  0  0  0  0  0  0  0
   55.9350   31.2770   45.2170 H   0  0  0  0  0  0  0  0  0  0  0  0
  1  2  1  0
  2  3  1  0
  3  4  1  0
  4  5  1  0
  5  6  2  3
  5  7  1  0
  7  8  1  0
  8  9  1  0
  9 10  1  0
 10 11  2  0
 11 12  1  0
 12 13  2  0
 13 14  1  0
 14 15  2  0
  7 16  2  0
 16 17  1  0
 17 18  1  0
 18 19  1  0
 19 20  2  0
 20 21  1  0
 21 22  1  0
 22 23  2  3
 22 24  1  0
 24 25  1  0
 25 26  2  3
 17  3  2  0
 25 19  1  0
 15 10  1  0
  1 27  1  0
  1 28  1  0
  1 29  1  0
  4 30  1  0
  6 31  1  0
  8 32  1  0
  8 33  1  0
  9 34  1  0
  9 35  1  0
 11 36  1  0
 12 37  1  0
 13 38  1  0
 14 39  1  0
 15 40  1  0
 16 41  1  0
 20 42  1  0
 21 43  1  0
 23 44  1  0
 24 45  1  0
 26 46  1  0
M  END
>  <smiles>  (23) 
COc1[nH]c(=N)c(CCc2ccccc2)cc1Oc1c[nH]c(=N)[nH]c1=N

>  <score_type>  (23) 
oracle

>  <origin>  (23) 
adg

>  <m_score__min__energy>  (23) 
-7.3700000000000001

>  <m_primary>  (23) 
energy

$$$$
23:0
     RDKit          3D

 42 44  0  0  0  0  0  0  0  0999 V2000
   58.5100   32.4570   48.4930 N   0  0  0  0  0  0  0  0  0  0  0  0
   59.6100   32.6040   48.1650 C   0  0  0  0  0  0  0  0  0  0  0  0
   60.9820   32.7870   47.7570 C   0  0  0  0  0  0  0  0  0  0  0  0
   61.9710   32.0220   48.3910 C   0  0  0  0  0  0  0  0  0  0  0  0
   63.3120   32.1620   48.0290 C   0  0  0  0  0  0  0  0  0  0  0  0
   63.6750   33.0600   47.0250 C   0  0  0  0  0  0  0  0  0  0  0  0
   62.7000   33.8270   46.3870 C   0  0  0  0  0  0  0  0  0  0  0  0
   61.3460   33.7110   46.7490 C   0  0  0  0  0  0  0  0  0  0  0  0
   60.3350   34.5660   46.0180 C   0  0  0  0  0  0  0  0  0  0  0  0
   59.6290   33.7830   45.0590 O   0  0  0  0  0  0  0  0  0  0  0  0
   58.3230   33.3220   45.2590 C   0  0  0  0  0  0  0  0  0  0  0  0
   57.5800   33.8740   46.1150 O   0  0  0  0  0  0  0  0  0  0  0  0
   57.8120   32.1960   44.4430 C   0  0  0  0  0  0  0  0  0  0  0  0
   57.5620   32.4110   43.0780 C   0  0  0  0  0  0  0  0  0  0  0  0
   57.0290   31.3940   42.2850 C   0  0  0  0  0  0  0  0  0  0  0  0
   56.7410   30.1490   42.8430 C   0  0  0  0  0  0  0  0  0  0  0  0
   57.0040   29.9010   44.1930 C   0  0  0  0  0  0  0  0  0  0  0  0
   56.7280   28.6320   44.7030 O   0  0  0  0  0  0  0  0  0  0  0  0
   57.5540   30.9180   45.0030 C   0  0  0  0  0  0  0  0  0  0  0  0
   57.8700   30.6360   46.3750 N   0  0  0  0  0  0  0  0  0  0  0  0
   58.7420   29.5650   46.7820 C   0  0  0  0  0  0  0  0  0  0  0  0
   58.8290   29.2270   48.1430 C   0  0  0  0  0  0  0  0  0  0  0  0
   59.6670   28.1910   48.5640 C   0  0  0  0  0  0  0  0  0  0  0  0
   60.4180   27.4760   47.6290 C   0  0  0  0  0  0  0  0  0  0  0  0
   60.3380   27.7990   46.2720 C   0  0  0  0  0  0  0  0  0  0  0  0
   59.5040   28.8380   45.8470 C   0  0  0  0  0  0  0  0  0  0  0  0
   61.6888   31.3074   49.1782 H   0  0  0  0  0  0  0  0  0  0  0  0
   64.0833   31.5636   48.5360 H   0  0  0  0  0  0  0  0  0  0  0  0
   64.7313   33.1634   46.7361 H   0  0  0  0  0  0  0  0  0  0  0  0
   62.9931   34.5295   45.5929 H   0  0  0  0  0  0  0  0  0  0  0  0
   59.6206   34.9835   46.7428 H   0  0  0  0  0  0  0  0  0  0  0  0
   60.8622   35.3797   45.4985 H   0  0  0  0  0  0  0  0  0  0  0  0
   57.7883   33.3898   42.6299 H   0  0  0  0  0  0  0  0  0  0  0  0
   56.8356   31.5749   41.2173 H   0  0  0  0  0  0  0  0  0  0  0  0
   56.3041   29.3572   42.2168 H   0  0  0  0  0  0  0  0  0  0  0  0
   56.6120   27.8180   44.1120 H   0  0  0  0  0  0  0  0  0  0  0  0
   57.4030   31.2140   47.1090 H   0  0  0  0  0  0  0  0  0  0  0  0
   58.2331   29.7819   48.8825 H   0  0  0  0  0  0  0  0  0  0  0  0
   59.7350   27.9387   49.6325 H   0  0  0  0  0  0  0  0  0  0  0  0
   61.0734   26.6574   47.9611 H   0  0  0  0  0  0  0  0  0  0  0  0
   60.9317   27.2354   45.5372 H   0  0  0  0  0  0  0  0  0  0  0  0
   59.4429   29.0885   44.7777 H   0  0  0  0  0  0  0  0  0  0  0  0
  1  2  3  0
  2  3  1  0
  3  4  2  0
  4  5  1  0
  5  6  2  0
  6  7  1  0
  7  8  2  0
  8  9  1  0
  9 10  1  0
 10 11  1  0
 11 12  2  0
 11 13  1  0
 13 14  2  0
 14 15  1  0
 15 16  2  0
 16 17  1  0
 17 18  1  0
 17 19  2  0
 19 20  1  0
 20 21  1  0
 21 22  2  0
 22 23  1  0
 23 24  2  0
 24 25  1  0
 25 26  2  0
  8  3  1  0
 19 13  1  0
 26 21  1  0
  4 27  1  0
  5 28  1  0
  6 29  1  0
  7 30  1  0
  9 31  1  0
  9 32  1  0
 14 33  1  0
 15 34  1  0
 16 35  1  0
 18 36  1  0
 20 37  1  0
 22 38  1  0
 23 39  1  0
 24 40  1  0
 25 41  1  0
 26 42  1  0
M  END
>  <UniqueID>  (24) 
23

>  <SMILES>  (24) 
N#Cc1ccccc1COC(=O)c1cccc(O)c1Nc1ccccc1

>  <Energy>  (24) 
50.68141917610042

>  <Genealogy>  (24) 
N#Cc1ccccc1COC(=O)c1cccc(O)c1Nc1ccccc1 (3D coordinates assigned)
N#Cc1ccccc1COC(=O)c1cccc(O)c1Nc1ccccc1 (optimized conformer: 50.68141917610042 kcal/mol)

>  <smiles>  (24) 
N#Cc1ccccc1COC(=O)c1cccc(O)c1Nc1ccccc1

>  <score_type>  (24) 
oracle

>  <origin>  (24) 
adg

>  <m_score__min__energy>  (24) 
-8.6999999999999993

>  <m_primary>  (24) 
energy

$$$$
24:0
     RDKit          3D

 47 50  0  0  0  0  0  0  0  0999 V2000
   56.3600   27.0580   46.8630 H   0  0  0  0  0  0  0  0  0  0  0  0
   55.8660   26.3350   46.3560 O   0  0  0  0  0  0  0  0  0  0  0  0
   56.3900   25.0580   46.1460 C   0  0  0  0  0  0  0  0  0  0  0  0
   56.1420   24.0760   47.1130 C   0  0  0  0  0  0  0  0  0  0  0  0
   55.5305   24.3198   47.9943 H   0  0  0  0  0  0  0  0  0  0  0  0
   56.6650   22.7900   46.9670 C   0  0  0  0  0  0  0  0  0  0  0  0
   56.4729   22.0278   47.7365 H   0  0  0  0  0  0  0  0  0  0  0  0
   57.4310   22.4710   45.8460 C   0  0  0  0  0  0  0  0  0  0  0  0
   57.8413   21.4568   45.7319 H   0  0  0  0  0  0  0  0  0  0  0  0
   57.6780   23.4370   44.8680 C   0  0  0  0  0  0  0  0  0  0  0  0
   58.2729   23.1748   43.9807 H   0  0  0  0  0  0  0  0  0  0  0  0
   57.1720   24.7440   45.0080 C   0  0  0  0  0  0  0  0  0  0  0  0
   57.4080   25.7540   43.9480 C   0  0  0  0  0  0  0  0  0  0  0  0
   56.9236   25.6026   42.9721 H   0  0  0  0  0  0  0  0  0  0  0  0
   58.1550   26.8100   44.1040 N   0  0  0  0  0  0  0  0  0  0  0  0
   58.3030   27.5020   45.3210 N   0  0  0  0  0  0  0  0  0  0  0  0
   57.5080   28.4810   45.7850 C   0  0  0  0  0  0  0  0  0  0  0  0
   56.4130   29.1410   44.9960 C   0  0  0  0  0  0  0  0  0  0  0  0
   55.9121   28.3852   44.3731 H   0  0  0  0  0  0  0  0  0  0  0  0
   55.6984   29.5950   45.6983 H   0  0  0  0  0  0  0  0  0  0  0  0
   56.9690   30.2250   44.1060 C   0  0  0  0  0  0  0  0  0  0  0  0
   56.5480   30.2850   42.7650 C   0  0  0  0  0  0  0  0  0  0  0  0
   55.8364   29.5380   42.3833 H   0  0  0  0  0  0  0  0  0  0  0  0
   57.0250   31.2840   41.9140 C   0  0  0  0  0  0  0  0  0  0  0  0
   56.6832   31.3248   40.8692 H   0  0  0  0  0  0  0  0  0  0  0  0
   57.9330   32.2290   42.3860 C   0  0  0  0  0  0  0  0  0  0  0  0
   58.3085   33.0140   41.7131 H   0  0  0  0  0  0  0  0  0  0  0  0
   58.3670   32.1810   43.7120 C   0  0  0  0  0  0  0  0  0  0  0  0
   59.0815   32.9324   44.0793 H   0  0  0  0  0  0  0  0  0  0  0  0
   57.8990   31.1810   44.5820 C   0  0  0  0  0  0  0  0  0  0  0  0
   58.3680   31.1420   45.9410 N   0  0  0  0  0  0  0  0  0  0  0  0
   58.2090   30.2790   46.5070 H   0  0  0  0  0  0  0  0  0  0  0  0
   59.1400   32.2050   46.5200 C   0  0  0  0  0  0  0  0  0  0  0  0
   60.4040   31.9310   47.0770 C   0  0  0  0  0  0  0  0  0  0  0  0
   61.0760   30.3050   47.0480 Cl  0  0  0  0  0  0  0  0  0  0  0  0
   61.1620   32.9660   47.6410 C   0  0  0  0  0  0  0  0  0  0  0  0
   62.1537   32.7512   48.0658 H   0  0  0  0  0  0  0  0  0  0  0  0
   60.6610   34.2700   47.6650 C   0  0  0  0  0  0  0  0  0  0  0  0
   61.2601   35.0805   48.1057 H   0  0  0  0  0  0  0  0  0  0  0  0
   59.4000   34.5460   47.1300 C   0  0  0  0  0  0  0  0  0  0  0  0
   59.0065   35.5729   47.1574 H   0  0  0  0  0  0  0  0  0  0  0  0
   58.6360   33.5230   46.5600 C   0  0  0  0  0  0  0  0  0  0  0  0
   57.0240   33.9130   45.9690 Cl  0  0  0  0  0  0  0  0  0  0  0  0
   57.7660   28.7390   47.0850 N   0  0  0  0  0  0  0  0  0  0  0  0
   58.7220   27.9010   47.4690 N   0  0  0  0  0  0  0  0  0  0  0  0
   59.0320   27.1460   46.3970 C   0  0  0  0  0  0  0  0  0  0  0  0
   60.0570   25.8690   46.4630 S   0  0  0  0  0  0  0  0  0  0  0  0
  1  2  1  0
  2  3  1  0
  3  4  2  0
  4  5  1  0
  4  6  1  0
  6  7  1  0
  6  8  2  0
  8  9  1  0
  8 10  1  0
 10 11  1  0
 10 12  2  0
 12 13  1  0
 13 14  1  0
 13 15  2  0
 15 16  1  0
 16 17  1  0
 17 18  1  0
 18 19  1  0
 18 20  1  0
 18 21  1  0
 21 22  2  0
 22 23  1  0
 22 24  1  0
 24 25  1  0
 24 26  2  0
 26 27  1  0
 26 28  1  0
 28 29  1  0
 28 30  2  0
 30 31  1  0
 31 32  1  0
 31 33  1  0
 33 34  2  0
 34 35  1  0
 34 36  1  0
 36 37  1  0
 36 38  2  0
 38 39  1  0
 38 40  1  0
 40 41  1  0
 40 42  2  0
 42 43  1  0
 17 44  2  0
 44 45  1  0
 45 46  1  0
 46 47  2  0
 12  3  1  0
 46 16  1  0
 30 21  1  0
 42 33  1  0
M  CHG  1  45  -1
M  END
>  <UniqueID>  (25) 
24

>  <SMILES>  (25) 
Oc1ccccc1/C=N\n1c(Cc2ccccc2Nc2c(Cl)cccc2Cl)n[n-]c1=S

>  <Energy>  (25) 
110.02419655356535

>  <Genealogy>  (25) 
Oc1ccccc1C=Nn1c(Cc2ccccc2Nc2c(Cl)cccc2Cl)n[n-]c1=S (protonated)
Oc1ccccc1/C=N\n1c(Cc2ccccc2Nc2c(Cl)cccc2Cl)n[n-]c1=S (cis-trans isomerization)
Oc1ccccc1/C=N\n1c(Cc2ccccc2Nc2c(Cl)cccc2Cl)n[n-]c1=S (3D coordinates assigned)
Oc1ccccc1/C=N\n1c(Cc2ccccc2Nc2c(Cl)cccc2Cl)n[n-]c1=S (optimized conformer: 110.02419655356535 kcal/mol)

>  <smiles>  (25) 
Oc1ccccc1C=Nn1c(Cc2ccccc2Nc2c(Cl)cccc2Cl)n[nH]c1=S

>  <score_type>  (25) 
oracle

>  <origin>  (25) 
adg

>  <m_score__min__energy>  (25) 
-10.630000000000001

>  <m_primary>  (25) 
energy

$$$$
25:0
     RDKit          3D

 45 46  0  0  0  0  0  0  0  0999 V2000
   58.2810   32.6500   47.7580 C   0  0  0  0  0  0  0  0  0  0  0  0
   59.7650   32.4680   47.5820 C   0  0  0  0  0  0  0  0  0  0  0  0
   60.5650   33.5970   47.3330 C   0  0  0  0  0  0  0  0  0  0  0  0
   61.9420   33.4670   47.1540 C   0  0  0  0  0  0  0  0  0  0  0  0
   62.5400   32.2100   47.2140 C   0  0  0  0  0  0  0  0  0  0  0  0
   61.7630   31.0780   47.4690 C   0  0  0  0  0  0  0  0  0  0  0  0
   60.3770   31.1910   47.6780 C   0  0  0  0  0  0  0  0  0  0  0  0
   59.5850   29.9420   48.0090 C   0  0  0  0  0  0  0  0  0  0  0  0
   58.9950   29.3240   46.7930 N   0  0  0  0  0  0  0  0  0  0  0  0
   59.2010   30.2060   45.6180 C   0  0  0  0  0  0  0  0  0  0  0  0
   58.4330   29.6690   44.4040 C   0  0  0  0  0  0  0  0  0  0  0  0
   56.9090   30.5670   44.1630 S   0  0  0  0  0  0  0  0  0  0  0  0
   56.6650   30.8470   42.4230 C   0  0  0  0  0  0  0  0  0  0  0  0
   56.9770   31.8900   44.8720 O   0  0  0  0  0  0  0  0  0  0  0  0
   55.7570   29.7680   44.7030 O   0  0  0  0  0  0  0  0  0  0  0  0
   59.5550   27.9720   46.5400 C   0  0  0  0  0  0  0  0  0  0  0  0
   58.4690   26.9280   46.5050 C   0  0  0  0  0  0  0  0  0  0  0  0
   58.7740   25.5720   46.7130 C   0  0  0  0  0  0  0  0  0  0  0  0
   57.7590   24.6120   46.7030 C   0  0  0  0  0  0  0  0  0  0  0  0
   56.4350   24.9940   46.4690 C   0  0  0  0  0  0  0  0  0  0  0  0
   56.1260   26.3360   46.2330 C   0  0  0  0  0  0  0  0  0  0  0  0
   54.8110   26.7150   45.9920 O   0  0  0  0  0  0  0  0  0  0  0  0
   57.1400   27.2990   46.2380 C   0  0  0  0  0  0  0  0  0  0  0  0
   58.0399   32.6796   48.8308 H   0  0  0  0  0  0  0  0  0  0  0  0
   57.9687   33.5932   47.2859 H   0  0  0  0  0  0  0  0  0  0  0  0
   57.7500   31.8102   47.2859 H   0  0  0  0  0  0  0  0  0  0  0  0
   60.1003   34.5926   47.2788 H   0  0  0  0  0  0  0  0  0  0  0  0
   62.5574   34.3589   46.9650 H   0  0  0  0  0  0  0  0  0  0  0  0
   63.6246   32.1092   47.0605 H   0  0  0  0  0  0  0  0  0  0  0  0
   62.2401   30.0876   47.5068 H   0  0  0  0  0  0  0  0  0  0  0  0
   60.2540   29.2132   48.4899 H   0  0  0  0  0  0  0  0  0  0  0  0
   58.7622   30.2271   48.6811 H   0  0  0  0  0  0  0  0  0  0  0  0
   58.8402   31.2174   45.8565 H   0  0  0  0  0  0  0  0  0  0  0  0
   60.2739   30.2340   45.3771 H   0  0  0  0  0  0  0  0  0  0  0  0
   59.0593   29.7758   43.5061 H   0  0  0  0  0  0  0  0  0  0  0  0
   58.1918   28.6106   44.5819 H   0  0  0  0  0  0  0  0  0  0  0  0
   55.9484   31.6694   42.2809 H   0  0  0  0  0  0  0  0  0  0  0  0
   57.6250   31.1124   41.9562 H   0  0  0  0  0  0  0  0  0  0  0  0
   56.2708   29.9323   41.9562 H   0  0  0  0  0  0  0  0  0  0  0  0
   60.0793   27.9764   45.5730 H   0  0  0  0  0  0  0  0  0  0  0  0
   60.2485   27.7247   47.3572 H   0  0  0  0  0  0  0  0  0  0  0  0
   59.8163   25.2652   46.8844 H   0  0  0  0  0  0  0  0  0  0  0  0
   58.0022   23.5539   46.8796 H   0  0  0  0  0  0  0  0  0  0  0  0
   55.6361   24.2379   46.4706 H   0  0  0  0  0  0  0  0  0  0  0  0
   56.8963   28.3517   46.0320 H   0  0  0  0  0  0  0  0  0  0  0  0
  1  2  1  0
  2  3  2  0
  3  4  1  0
  4  5  2  0
  5  6  1  0
  6  7  2  0
  7  8  1  0
  8  9  1  0
  9 10  1  0
 10 11  1  0
 11 12  1  0
 12 13  1  0
 12 14  2  0
 12 15  2  0
  9 16  1  0
 16 17  1  0
 17 18  2  0
 18 19  1  0
 19 20  2  0
 20 21  1  0
 21 22  1  0
 21 23  2  0
  7  2  1  0
 23 17  1  0
  1 24  1  0
  1 25  1  0
  1 26  1  0
  3 27  1  0
  4 28  1  0
  5 29  1  0
  6 30  1  0
  8 31  1  0
  8 32  1  0
 10 33  1  0
 10 34  1  0
 11 35  1  0
 11 36  1  0
 13 37  1  0
 13 38  1  0
 13 39  1  0
 16 40  1  0
 16 41  1  0
 18 42  1  0
 19 43  1  0
 20 44  1  0
 23 45  1  0
M  CHG  1  22  -1
M  END
>  <UniqueID>  (26) 
25

>  <SMILES>  (26) 
Cc1ccccc1CN(CCS(C)(=O)=O)Cc1cccc([O-])c1

>  <Energy>  (26) 
36.75561530859565

>  <Genealogy>  (26) 
Cc1ccccc1CN(CCS(C)(=O)=O)Cc1cccc([O-])c1 (protonated)
Cc1ccccc1CN(CCS(C)(=O)=O)Cc1cccc([O-])c1 (3D coordinates assigned)
Cc1ccccc1CN(CCS(C)(=O)=O)Cc1cccc([O-])c1 (optimized conformer: 36.75561530859565 kcal/mol)

>  <smiles>  (26) 
Cc1ccccc1CN(CCS(C)(=O)=O)Cc1cccc(O)c1

>  <score_type>  (26) 
oracle

>  <origin>  (26) 
adg

>  <m_score__min__energy>  (26) 
-12.59

>  <m_primary>  (26) 
energy

$$$$
26:0
     RDKit          3D

 33 34  0  0  0  0  0  0  0  0999 V2000
   55.8610   28.9930   44.5730 C   0  0  0  0  0  0  0  0  0  0  0  0
   57.1310   28.8990   45.3920 C   0  0  0  0  0  0  0  0  0  0  0  0
   57.4230   27.7240   46.1450 C   0  0  0  0  0  0  0  0  0  0  0  0
   56.5020   26.5610   46.2260 C   0  0  0  0  0  0  0  0  0  0  0  0
   56.9330   25.4020   46.4610 O   0  0  0  0  0  0  0  0  0  0  0  0
   55.1430   26.7320   45.9860 O   0  0  0  0  0  0  0  0  0  0  0  0
   58.6270   27.6510   46.8670 C   0  0  0  0  0  0  0  0  0  0  0  0
   59.5140   28.7240   46.8890 C   0  0  0  0  0  0  0  0  0  0  0  0
   59.2150   29.8910   46.1960 C   0  0  0  0  0  0  0  0  0  0  0  0
   58.0340   29.9970   45.4530 C   0  0  0  0  0  0  0  0  0  0  0  0
   57.7600   31.2770   44.7740 C   0  0  0  0  0  0  0  0  0  0  0  0
   58.4930   31.6350   43.8160 O   0  0  0  0  0  0  0  0  0  0  0  0
   56.6830   32.1300   45.1850 N   0  0  0  0  0  0  0  0  0  0  0  0
   56.8280   33.5250   45.5970 C   0  0  0  0  0  0  0  0  0  0  0  0
   58.1310   33.7380   46.3200 C   0  0  0  0  0  0  0  0  0  0  0  0
   59.1960   34.3910   45.6770 C   0  0  0  0  0  0  0  0  0  0  0  0
   60.3960   34.6190   46.3560 C   0  0  0  0  0  0  0  0  0  0  0  0
   60.5420   34.2000   47.6810 C   0  0  0  0  0  0  0  0  0  0  0  0
   59.4900   33.5450   48.3280 C   0  0  0  0  0  0  0  0  0  0  0  0
   59.6820   32.9880   50.1450 Br  0  0  0  0  0  0  0  0  0  0  0  0
   58.2910   33.3060   47.6470 C   0  0  0  0  0  0  0  0  0  0  0  0
   54.9940   29.0572   45.2469 H   0  0  0  0  0  0  0  0  0  0  0  0
   55.8995   29.8908   43.9385 H   0  0  0  0  0  0  0  0  0  0  0  0
   55.7669   28.0994   43.9385 H   0  0  0  0  0  0  0  0  0  0  0  0
   58.8717   26.7335   47.4222 H   0  0  0  0  0  0  0  0  0  0  0  0
   60.4535   28.6479   47.4561 H   0  0  0  0  0  0  0  0  0  0  0  0
   59.9137   30.7398   46.2319 H   0  0  0  0  0  0  0  0  0  0  0  0
   56.8013   34.1687   44.7054 H   0  0  0  0  0  0  0  0  0  0  0  0
   56.0022   33.7783   46.2781 H   0  0  0  0  0  0  0  0  0  0  0  0
   59.0848   34.7242   44.6346 H   0  0  0  0  0  0  0  0  0  0  0  0
   61.2269   35.1291   45.8466 H   0  0  0  0  0  0  0  0  0  0  0  0
   61.4854   34.3857   48.2154 H   0  0  0  0  0  0  0  0  0  0  0  0
   57.4699   32.7773   48.1533 H   0  0  0  0  0  0  0  0  0  0  0  0
  1  2  1  0
  2  3  2  0
  3  4  1  0
  4  5  2  0
  4  6  1  0
  3  7  1  0
  7  8  2  0
  8  9  1  0
  9 10  2  0
 10 11  1  0
 11 12  2  0
 11 13  1  0
 13 14  1  0
 14 15  1  0
 15 16  2  0
 16 17  1  0
 17 18  2  0
 18 19  1  0
 19 20  1  0
 19 21  2  0
 10  2  1  0
 21 15  1  0
  1 22  1  0
  1 23  1  0
  1 24  1  0
  7 25  1  0
  8 26  1  0
  9 27  1  0
 14 28  1  0
 14 29  1  0
 16 30  1  0
 17 31  1  0
 18 32  1  0
 21 33  1  0
M  CHG  2   6  -1  13  -1
M  END
>  <UniqueID>  (27) 
26

>  <SMILES>  (27) 
Cc1c(C(=O)[O-])cccc1C(=O)[N-]Cc1cccc(Br)c1

>  <Energy>  (27) 
41.103990834488975

>  <Genealogy>  (27) 
Cc1c(C(=O)[O-])cccc1C(=O)[N-]Cc1cccc(Br)c1 (protonated)
Cc1c(C(=O)[O-])cccc1C(=O)[N-]Cc1cccc(Br)c1 (3D coordinates assigned)
Cc1c(C(=O)[O-])cccc1C(=O)[N-]Cc1cccc(Br)c1 (optimized conformer: 41.103990834488975 kcal/mol)

>  <smiles>  (27) 
Cc1c(C(=O)O)cccc1C(=O)NCc1cccc(Br)c1

>  <score_type>  (27) 
oracle

>  <origin>  (27) 
adg

>  <m_score__min__energy>  (27) 
-11.130000000000001

>  <m_primary>  (27) 
energy

$$$$
27:0
     RDKit          3D

 65 68  0  0  0  0  0  0  0  0999 V2000
   63.1360   33.7670   48.4490 C   0  0  0  0  0  0  0  0  0  0  0  0
   61.7470   33.5370   47.9550 C   0  0  0  0  0  0  0  0  0  0  0  0
   61.3000   34.1940   46.8530 N   0  0  0  0  0  0  0  0  0  0  0  0
   60.0300   34.0300   46.3990 C   0  0  0  0  0  0  0  0  0  0  0  0
   59.1580   33.1520   47.0690 C   0  0  0  0  0  0  0  0  0  0  0  0
   59.6290   32.5120   48.2330 C   0  0  0  0  0  0  0  0  0  0  0  0
   58.7860   31.6360   48.9960 N   0  0  0  0  0  0  0  0  0  0  0  0
   58.9510   30.1920   48.8420 C   0  0  0  0  0  0  0  0  0  0  0  0
   58.1460   32.1370   50.2130 C   0  0  0  0  0  0  0  0  0  0  0  0
   60.9100   32.7170   48.6390 N   0  0  0  0  0  0  0  0  0  0  0  0
   57.7390   32.9560   46.5760 C   0  0  0  0  0  0  0  0  0  0  0  0
   57.5750   33.2870   45.1440 N   0  0  0  0  0  0  0  0  0  0  0  0
   58.1250   32.2470   44.2450 C   0  0  0  0  0  0  0  0  0  0  0  0
   57.5370   30.8940   44.5830 C   0  0  0  0  0  0  0  0  0  0  0  0
   56.2070   30.6410   44.2080 C   0  0  0  0  0  0  0  0  0  0  0  0
   55.5920   29.4330   44.5320 C   0  0  0  0  0  0  0  0  0  0  0  0
   56.2920   28.4540   45.2510 C   0  0  0  0  0  0  0  0  0  0  0  0
   55.6830   27.2070   45.6180 N   0  0  0  0  0  0  0  0  0  0  0  0
   56.3340   25.9300   45.6600 C   0  0  0  0  0  0  0  0  0  0  0  0
   57.5880   25.8850   45.5560 O   0  0  0  0  0  0  0  0  0  0  0  0
   55.5820   24.6680   45.8410 C   0  0  0  0  0  0  0  0  0  0  0  0
   54.5600   24.3540   44.9310 C   0  0  0  0  0  0  0  0  0  0  0  0
   53.8060   23.1900   45.0840 C   0  0  0  0  0  0  0  0  0  0  0  0
   54.0640   22.3170   46.1450 C   0  0  0  0  0  0  0  0  0  0  0  0
   53.0860   20.8680   46.3510 S   0  0  0  0  0  0  0  0  0  0  0  0
   52.7580   20.6180   48.0810 C   0  0  0  0  0  0  0  0  0  0  0  0
   53.8140   19.6750   45.8030 O   0  0  0  0  0  0  0  0  0  0  0  0
   51.7880   21.0230   45.6100 O   0  0  0  0  0  0  0  0  0  0  0  0
   55.0910   22.6130   47.0490 C   0  0  0  0  0  0  0  0  0  0  0  0
   55.8590   23.7730   46.8990 C   0  0  0  0  0  0  0  0  0  0  0  0
   57.2010   24.0260   48.0110 Cl  0  0  0  0  0  0  0  0  0  0  0  0
   57.6280   28.6780   45.5950 C   0  0  0  0  0  0  0  0  0  0  0  0
   58.2610   29.8940   45.2830 C   0  0  0  0  0  0  0  0  0  0  0  0
   59.6960   30.0940   45.6990 C   0  0  0  0  0  0  0  0  0  0  0  0
   58.1180   34.6280   44.8560 C   0  0  0  0  0  0  0  0  0  0  0  0
   59.6280   34.7180   45.1230 C   0  0  0  0  0  0  0  0  0  0  0  0
   63.1386   33.7674   49.5490 H   0  0  0  0  0  0  0  0  0  0  0  0
   63.7934   32.9655   48.0811 H   0  0  0  0  0  0  0  0  0  0  0  0
   63.5000   34.7376   48.0811 H   0  0  0  0  0  0  0  0  0  0  0  0
   59.0048   29.7212   49.8347 H   0  0  0  0  0  0  0  0  0  0  0  0
   58.0939   29.7820   48.2877 H   0  0  0  0  0  0  0  0  0  0  0  0
   59.8785   29.9860   48.2877 H   0  0  0  0  0  0  0  0  0  0  0  0
   58.6648   31.7309   51.0939 H   0  0  0  0  0  0  0  0  0  0  0  0
   58.1997   33.2356   50.2299 H   0  0  0  0  0  0  0  0  0  0  0  0
   57.0925   31.8211   50.2299 H   0  0  0  0  0  0  0  0  0  0  0  0
   57.4574   31.9035   46.7272 H   0  0  0  0  0  0  0  0  0  0  0  0
   57.0941   33.6392   47.1481 H   0  0  0  0  0  0  0  0  0  0  0  0
   57.8774   32.5001   43.2035 H   0  0  0  0  0  0  0  0  0  0  0  0
   59.2166   32.2044   44.3739 H   0  0  0  0  0  0  0  0  0  0  0  0
   55.6443   31.4054   43.6521 H   0  0  0  0  0  0  0  0  0  0  0  0
   54.5530   29.2470   44.2223 H   0  0  0  0  0  0  0  0  0  0  0  0
   54.3519   25.0317   44.0899 H   0  0  0  0  0  0  0  0  0  0  0  0
   53.0050   22.9582   44.3666 H   0  0  0  0  0  0  0  0  0  0  0  0
   53.4927   21.1780   48.6782 H   0  0  0  0  0  0  0  0  0  0  0  0
   51.7448   20.9750   48.3174 H   0  0  0  0  0  0  0  0  0  0  0  0
   52.8337   19.5464   48.3174 H   0  0  0  0  0  0  0  0  0  0  0  0
   55.2961   21.9277   47.8846 H   0  0  0  0  0  0  0  0  0  0  0  0
   58.1924   27.8915   46.1174 H   0  0  0  0  0  0  0  0  0  0  0  0
   59.7616   30.1031   46.7970 H   0  0  0  0  0  0  0  0  0  0  0  0
   60.3108   29.2729   45.3018 H   0  0  0  0  0  0  0  0  0  0  0  0
   60.0628   31.0519   45.3018 H   0  0  0  0  0  0  0  0  0  0  0  0
   57.9316   34.8649   43.7981 H   0  0  0  0  0  0  0  0  0  0  0  0
   57.6161   35.3436   45.5238 H   0  0  0  0  0  0  0  0  0  0  0  0
   60.1630   34.2474   44.2849 H   0  0  0  0  0  0  0  0  0  0  0  0
   59.8868   35.7825   45.2217 H   0  0  0  0  0  0  0  0  0  0  0  0
  1  2  1  0
  2  3  2  0
  3  4  1  0
  4  5  2  0
  5  6  1  0
  6  7  1  0
  7  8  1  0
  7  9  1  0
  6 10  2  0
  5 11  1  0
 11 12  1  0
 12 13  1  0
 13 14  1  0
 14 15  2  0
 15 16  1  0
 16 17  2  0
 17 18  1  0
 18 19  1  0
 19 20  2  0
 19 21  1  0
 21 22  2  0
 22 23  1  0
 23 24  2  0
 24 25  1  0
 25 26  1  0
 25 27  2  0
 25 28  2  0
 24 29  1  0
 29 30  2  0
 30 31  1  0
 17 32  1  0
 32 33  2  0
 33 34  1  0
 12 35  1  0
 35 36  1  0
 10  2  1  0
 33 14  1  0
 36  4  1  0
 30 21  1  0
  1 37  1  0
  1 38  1  0
  1 39  1  0
  8 40  1  0
  8 41  1  0
  8 42  1  0
  9 43  1  0
  9 44  1  0
  9 45  1  0
 11 46  1  0
 11 47  1  0
 13 48  1  0
 13 49  1  0
 15 50  1  0
 16 51  1  0
 22 52  1  0
 23 53  1  0
 26 54  1  0
 26 55  1  0
 26 56  1  0
 29 57  1  0
 32 58  1  0
 34 59  1  0
 34 60  1  0
 34 61  1  0
 35 62  1  0
 35 63  1  0
 36 64  1  0
 36 65  1  0
M  CHG  1  18  -1
M  END
>  <UniqueID>  (28) 
27

>  <SMILES>  (28) 
Cc1nc2c(c(N(C)C)n1)CN(Cc1ccc([N-]C(=O)c3ccc(S(C)(=O)=O)cc3Cl)cc1C)CC2

>  <Energy>  (28) 
82.62522055271917

>  <Genealogy>  (28) 
Cc1nc2c(c(N(C)C)n1)CN(Cc1ccc([N-]C(=O)c3ccc(S(C)(=O)=O)cc3Cl)cc1C)CC2 (protonated)
Cc1nc2c(c(N(C)C)n1)CN(Cc1ccc([N-]C(=O)c3ccc(S(C)(=O)=O)cc3Cl)cc1C)CC2 (3D coordinates assigned)
Cc1nc2c(c(N(C)C)n1)CN(Cc1ccc([N-]C(=O)c3ccc(S(C)(=O)=O)cc3Cl)cc1C)CC2 (nonaromatic ring conformer: 82.62522055271917 kcal/mol)

>  <smiles>  (28) 
Cc1nc2c(c(N(C)C)n1)CN(Cc1ccc(NC(=O)c3ccc(S(C)(=O)=O)cc3Cl)cc1C)CC2

>  <score_type>  (28) 
oracle

>  <origin>  (28) 
adg

>  <m_score__min__energy>  (28) 
-10.710000000000001

>  <m_primary>  (28) 
energy

$$$$
28:0
     RDKit          3D

 25 25  0  0  0  0  0  0  0  0999 V2000
   55.1450   29.3350   44.8420 N   0  0  0  0  0  0  0  0  0  0  0  0
   56.6920   30.0480   44.5500 S   0  0  0  0  0  0  0  0  0  0  0  0
   56.6120   31.5300   44.7870 O   0  0  0  0  0  0  0  0  0  0  0  0
   57.0940   29.8100   43.1210 O   0  0  0  0  0  0  0  0  0  0  0  0
   57.8830   29.3340   45.6320 C   0  0  0  0  0  0  0  0  0  0  0  0
   58.3990   30.0800   46.7000 C   0  0  0  0  0  0  0  0  0  0  0  0
   59.3630   29.5220   47.5430 C   0  0  0  0  0  0  0  0  0  0  0  0
   59.8130   28.2170   47.3290 C   0  0  0  0  0  0  0  0  0  0  0  0
   59.2850   27.4520   46.2750 C   0  0  0  0  0  0  0  0  0  0  0  0
   59.7600   26.1270   46.0030 N   0  0  0  0  0  0  0  0  0  0  0  0
   58.9510   24.9790   45.7160 C   0  0  0  0  0  0  0  0  0  0  0  0
   59.4550   23.8370   45.8780 O   0  0  0  0  0  0  0  0  0  0  0  0
   57.5520   25.1290   45.2410 C   0  0  0  0  0  0  0  0  0  0  0  0
   56.4520   24.6870   45.8700 C   0  0  0  0  0  0  0  0  0  0  0  0
   55.1570   25.3860   45.9450 C   0  0  0  0  0  0  0  0  0  0  0  0
   55.1370   26.6420   46.0120 O   0  0  0  0  0  0  0  0  0  0  0  0
   53.9570   24.6930   45.8340 O   0  0  0  0  0  0  0  0  0  0  0  0
   58.3410   28.0270   45.4140 C   0  0  0  0  0  0  0  0  0  0  0  0
   55.2470   28.7200   45.6800 H   0  0  0  0  0  0  0  0  0  0  0  0
   58.0445   31.1065   46.8748 H   0  0  0  0  0  0  0  0  0  0  0  0
   59.7690   30.1120   48.3779 H   0  0  0  0  0  0  0  0  0  0  0  0
   60.5825   27.7871   47.9871 H   0  0  0  0  0  0  0  0  0  0  0  0
   57.4035   25.6511   44.2843 H   0  0  0  0  0  0  0  0  0  0  0  0
   56.5237   23.7131   46.3763 H   0  0  0  0  0  0  0  0  0  0  0  0
   57.9565   27.4488   44.5609 H   0  0  0  0  0  0  0  0  0  0  0  0
  1  2  1  0
  2  3  2  0
  2  4  2  0
  2  5  1  0
  5  6  2  0
  6  7  1  0
  7  8  2  0
  8  9  1  0
  9 10  1  0
 10 11  1  0
 11 12  2  0
 11 13  1  0
 13 14  2  3
 14 15  1  0
 15 16  2  0
 15 17  1  0
  9 18  2  0
 18  5  1  0
  1 19  1  0
  6 20  1  0
  7 21  1  0
  8 22  1  0
 13 23  1  0
 14 24  1  0
 18 25  1  0
M  CHG  3   1  -1  10  -1  17  -1
M  END
>  <UniqueID>  (29) 
28

>  <SMILES>  (29) 
[NH-]S(=O)(=O)c1cccc([N-]C(=O)C=CC(=O)[O-])c1

>  <Energy>  (29) 
34.68970752753849

>  <Genealogy>  (29) 
[NH-]S(=O)(=O)c1cccc([N-]C(=O)C=CC(=O)[O-])c1 (protonated)
[NH-]S(=O)(=O)c1cccc([N-]C(=O)C=CC(=O)[O-])c1 (3D coordinates assigned)
[NH-]S(=O)(=O)c1cccc([N-]C(=O)C=CC(=O)[O-])c1 (optimized conformer: 34.68970752753849 kcal/mol)

>  <smiles>  (29) 
NS(=O)(=O)c1cccc(NC(=O)C=CC(=O)O)c1

>  <score_type>  (29) 
oracle

>  <origin>  (29) 
adg

>  <m_score__min__energy>  (29) 
-13.43

>  <m_primary>  (29) 
energy

$$$$
29:0
     RDKit          3D

 55 58  0  0  0  0  0  0  0  0999 V2000
   63.7920   34.6060   51.2500 C   0  0  0  0  0  0  0  0  0  0  0  0
   63.0800   34.2870   50.0590 O   0  0  0  0  0  0  0  0  0  0  0  0
   62.4640   33.0500   49.8110 C   0  0  0  0  0  0  0  0  0  0  0  0
   61.8000   32.3300   50.8210 C   0  0  0  0  0  0  0  0  0  0  0  0
   61.2280   31.0860   50.5420 C   0  0  0  0  0  0  0  0  0  0  0  0
   61.3080   30.5370   49.2530 C   0  0  0  0  0  0  0  0  0  0  0  0
   60.7480   29.1880   48.9910 C   0  0  0  0  0  0  0  0  0  0  0  0
   60.3120   28.5080   49.9580 O   0  0  0  0  0  0  0  0  0  0  0  0
   60.6660   28.6250   47.6720 N   0  0  0  0  0  0  0  0  0  0  0  0
   59.5790   27.8730   47.1100 C   0  0  0  0  0  0  0  0  0  0  0  0
   59.4960   26.5110   47.4220 C   0  0  0  0  0  0  0  0  0  0  0  0
   58.4260   25.7400   46.9680 C   0  0  0  0  0  0  0  0  0  0  0  0
   57.4220   26.3160   46.1770 C   0  0  0  0  0  0  0  0  0  0  0  0
   56.2720   25.5000   45.7230 C   0  0  0  0  0  0  0  0  0  0  0  0
   55.1030   25.9220   45.9380 O   0  0  0  0  0  0  0  0  0  0  0  0
   56.4540   24.2100   45.0130 C   0  0  0  0  0  0  0  0  0  0  0  0
   56.1350   24.0820   43.6460 C   0  0  0  0  0  0  0  0  0  0  0  0
   56.3010   22.8580   42.9930 C   0  0  0  0  0  0  0  0  0  0  0  0
   56.7750   21.7470   43.6940 C   0  0  0  0  0  0  0  0  0  0  0  0
   57.0790   21.8570   45.0530 C   0  0  0  0  0  0  0  0  0  0  0  0
   56.9150   23.0800   45.7120 C   0  0  0  0  0  0  0  0  0  0  0  0
   57.5420   27.6620   45.7960 C   0  0  0  0  0  0  0  0  0  0  0  0
   58.6040   28.4540   46.2620 C   0  0  0  0  0  0  0  0  0  0  0  0
   58.7260   29.8160   45.8160 N   0  0  0  0  0  0  0  0  0  0  0  0
   58.6160   30.9390   46.7100 C   0  0  0  0  0  0  0  0  0  0  0  0
   58.5080   30.7430   47.9520 O   0  0  0  0  0  0  0  0  0  0  0  0
   58.7020   32.3300   46.2050 C   0  0  0  0  0  0  0  0  0  0  0  0
   57.7110   32.8610   45.3570 C   0  0  0  0  0  0  0  0  0  0  0  0
   57.8190   34.1700   44.8750 C   0  0  0  0  0  0  0  0  0  0  0  0
   58.9090   34.9630   45.2370 C   0  0  0  0  0  0  0  0  0  0  0  0
   59.8930   34.4520   46.0880 C   0  0  0  0  0  0  0  0  0  0  0  0
   59.7870   33.1460   46.5740 C   0  0  0  0  0  0  0  0  0  0  0  0
   61.9290   31.2790   48.2350 C   0  0  0  0  0  0  0  0  0  0  0  0
   62.5160   32.5170   48.5140 C   0  0  0  0  0  0  0  0  0  0  0  0
   63.4130   33.4580   47.1090 Br  0  0  0  0  0  0  0  0  0  0  0  0
   63.1837   34.3334   52.1250 H   0  0  0  0  0  0  0  0  0  0  0  0
   64.7384   34.0459   51.2726 H   0  0  0  0  0  0  0  0  0  0  0  0
   64.0040   35.6851   51.2726 H   0  0  0  0  0  0  0  0  0  0  0  0
   61.7307   32.7486   51.8359 H   0  0  0  0  0  0  0  0  0  0  0  0
   60.7107   30.5324   51.3394 H   0  0  0  0  0  0  0  0  0  0  0  0
   60.2832   26.0436   48.0319 H   0  0  0  0  0  0  0  0  0  0  0  0
   58.3696   24.6737   47.2322 H   0  0  0  0  0  0  0  0  0  0  0  0
   55.7531   24.9509   43.0900 H   0  0  0  0  0  0  0  0  0  0  0  0
   56.0577   22.7692   41.9239 H   0  0  0  0  0  0  0  0  0  0  0  0
   56.9089   20.7858   43.1762 H   0  0  0  0  0  0  0  0  0  0  0  0
   57.4479   20.9805   45.6058 H   0  0  0  0  0  0  0  0  0  0  0  0
   57.1482   23.1584   46.7841 H   0  0  0  0  0  0  0  0  0  0  0  0
   56.7927   28.1030   45.1222 H   0  0  0  0  0  0  0  0  0  0  0  0
   59.0550   29.9790   44.8400 H   0  0  0  0  0  0  0  0  0  0  0  0
   56.8469   32.2429   45.0719 H   0  0  0  0  0  0  0  0  0  0  0  0
   57.0429   34.5752   44.2091 H   0  0  0  0  0  0  0  0  0  0  0  0
   58.9937   35.9902   44.8526 H   0  0  0  0  0  0  0  0  0  0  0  0
   60.7508   35.0778   46.3752 H   0  0  0  0  0  0  0  0  0  0  0  0
   60.5591   32.7524   47.2514 H   0  0  0  0  0  0  0  0  0  0  0  0
   61.9538   30.8827   47.2092 H   0  0  0  0  0  0  0  0  0  0  0  0
  1  2  1  0
  2  3  1  0
  3  4  2  0
  4  5  1  0
  5  6  2  0
  6  7  1  0
  7  8  2  0
  7  9  1  0
  9 10  1  0
 10 11  2  0
 11 12  1  0
 12 13  2  0
 13 14  1  0
 14 15  2  0
 14 16  1  0
 16 17  2  0
 17 18  1  0
 18 19  2  0
 19 20  1  0
 20 21  2  0
 13 22  1  0
 22 23  2  0
 23 24  1  0
 24 25  1  0
 25 26  2  0
 25 27  1  0
 27 28  2  0
 28 29  1  0
 29 30  2  0
 30 31  1  0
 31 32  2  0
  6 33  1  0
 33 34  2  0
 34 35  1  0
 34  3  1  0
 23 10  1  0
 32 27  1  0
 21 16  1  0
  1 36  1  0
  1 37  1  0
  1 38  1  0
  4 39  1  0
  5 40  1  0
 11 41  1  0
 12 42  1  0
 17 43  1  0
 18 44  1  0
 19 45  1  0
 20 46  1  0
 21 47  1  0
 22 48  1  0
 24 49  1  0
 28 50  1  0
 29 51  1  0
 30 52  1  0
 31 53  1  0
 32 54  1  0
 33 55  1  0
M  CHG  1   9  -1
M  END
>  <UniqueID>  (30) 
29

>  <SMILES>  (30) 
COc1ccc(C(=O)[N-]c2ccc(C(=O)c3ccccc3)cc2NC(=O)c2ccccc2)cc1Br

>  <Energy>  (30) 
75.6440948622559

>  <Genealogy>  (30) 
COc1ccc(C(=O)[N-]c2ccc(C(=O)c3ccccc3)cc2NC(=O)c2ccccc2)cc1Br (protonated)
COc1ccc(C(=O)[N-]c2ccc(C(=O)c3ccccc3)cc2NC(=O)c2ccccc2)cc1Br (3D coordinates assigned)
COc1ccc(C(=O)[N-]c2ccc(C(=O)c3ccccc3)cc2NC(=O)c2ccccc2)cc1Br (optimized conformer: 75.6440948622559 kcal/mol)

>  <smiles>  (30) 
COc1ccc(C(=O)Nc2ccc(C(=O)c3ccccc3)cc2NC(=O)c2ccccc2)cc1Br

>  <score_type>  (30) 
oracle

>  <origin>  (30) 
adg

>  <m_score__min__energy>  (30) 
-11.1

>  <m_primary>  (30) 
energy

$$$$
30:0
     RDKit          3D

 39 39  0  0  0  0  0  0  0  0999 V2000
   59.1850   29.2140   44.9170 C   0  0  0  0  0  0  0  0  0  0  0  0
   57.7570   29.2760   45.4620 C   0  0  0  0  0  0  0  0  0  0  0  0
   57.0190   30.4480   44.9400 N   0  0  0  0  0  0  0  0  0  0  0  0
   55.8880   30.1210   44.0360 C   0  0  0  0  0  0  0  0  0  0  0  0
   56.3100   29.7200   42.6160 C   0  0  0  0  0  0  0  0  0  0  0  0
   57.9200   31.4740   44.3710 C   0  0  0  0  0  0  0  0  0  0  0  0
   57.2710   32.8540   44.5030 C   0  0  0  0  0  0  0  0  0  0  0  0
   57.9440   33.6590   45.5780 C   0  0  0  0  0  0  0  0  0  0  0  0
   57.3650   33.8450   46.6390 O   0  0  0  0  0  0  0  0  0  0  0  0
   59.3160   34.2410   45.3340 C   0  0  0  0  0  0  0  0  0  0  0  0
   60.1290   34.3730   46.5970 C   0  0  0  0  0  0  0  0  0  0  0  0
   59.8070   35.2690   47.4240 O   0  0  0  0  0  0  0  0  0  0  0  0
   61.2310   33.4400   46.9380 C   0  0  0  0  0  0  0  0  0  0  0  0
   62.5520   33.8470   46.6650 C   0  0  0  0  0  0  0  0  0  0  0  0
   63.6320   33.0070   46.9500 C   0  0  0  0  0  0  0  0  0  0  0  0
   63.4090   31.7490   47.5080 C   0  0  0  0  0  0  0  0  0  0  0  0
   62.1080   31.3280   47.7830 C   0  0  0  0  0  0  0  0  0  0  0  0
   61.0140   32.1540   47.4940 C   0  0  0  0  0  0  0  0  0  0  0  0
   59.4060   31.4860   47.7600 Cl  0  0  0  0  0  0  0  0  0  0  0  0
   59.8964   29.1831   45.7554 H   0  0  0  0  0  0  0  0  0  0  0  0
   59.3038   28.3099   44.3018 H   0  0  0  0  0  0  0  0  0  0  0  0
   59.3817   30.1045   44.3018 H   0  0  0  0  0  0  0  0  0  0  0  0
   57.2238   28.3599   45.1681 H   0  0  0  0  0  0  0  0  0  0  0  0
   57.8129   29.3675   46.5568 H   0  0  0  0  0  0  0  0  0  0  0  0
   55.3250   29.2852   44.4770 H   0  0  0  0  0  0  0  0  0  0  0  0
   55.2871   31.0373   43.9391 H   0  0  0  0  0  0  0  0  0  0  0  0
   57.1064   28.9632   42.6701 H   0  0  0  0  0  0  0  0  0  0  0  0
   55.4443   29.3036   42.0800 H   0  0  0  0  0  0  0  0  0  0  0  0
   56.6817   30.6058   42.0800 H   0  0  0  0  0  0  0  0  0  0  0  0
   58.8758   31.4649   44.9153 H   0  0  0  0  0  0  0  0  0  0  0  0
   58.1006   31.2543   43.3084 H   0  0  0  0  0  0  0  0  0  0  0  0
   57.3589   33.3871   43.5448 H   0  0  0  0  0  0  0  0  0  0  0  0
   56.2126   32.7218   44.7718 H   0  0  0  0  0  0  0  0  0  0  0  0
   59.8564   33.5855   44.6353 H   0  0  0  0  0  0  0  0  0  0  0  0
   59.1781   35.2517   44.9224 H   0  0  0  0  0  0  0  0  0  0  0  0
   62.7354   34.8372   46.2225 H   0  0  0  0  0  0  0  0  0  0  0  0
   64.6584   33.3386   46.7340 H   0  0  0  0  0  0  0  0  0  0  0  0
   64.2595   31.0881   47.7315 H   0  0  0  0  0  0  0  0  0  0  0  0
   61.9393   30.3377   48.2312 H   0  0  0  0  0  0  0  0  0  0  0  0
  1  2  1  0
  2  3  1  0
  3  4  1  0
  4  5  1  0
  3  6  1  0
  6  7  1  0
  7  8  1  0
  8  9  2  0
  8 10  1  0
 10 11  1  0
 11 12  2  0
 11 13  1  0
 13 14  2  0
 14 15  1  0
 15 16  2  0
 16 17  1  0
 17 18  2  0
 18 19  1  0
 18 13  1  0
  1 20  1  0
  1 21  1  0
  1 22  1  0
  2 23  1  0
  2 24  1  0
  4 25  1  0
  4 26  1  0
  5 27  1  0
  5 28  1  0
  5 29  1  0
  6 30  1  0
  6 31  1  0
  7 32  1  0
  7 33  1  0
 10 34  1  0
 10 35  1  0
 14 36  1  0
 15 37  1  0
 16 38  1  0
 17 39  1  0
M  END
>  <UniqueID>  (31) 
30

>  <SMILES>  (31) 
CCN(CC)CCC(=O)CC(=O)c1ccccc1Cl

>  <Energy>  (31) 
42.53500233226429

>  <Genealogy>  (31) 
CCN(CC)CCC(=O)CC(=O)c1ccccc1Cl (3D coordinates assigned)
CCN(CC)CCC(=O)CC(=O)c1ccccc1Cl (optimized conformer: 42.53500233226429 kcal/mol)

>  <smiles>  (31) 
CCN(CC)CCC(=O)CC(=O)c1ccccc1Cl

>  <score_type>  (31) 
oracle

>  <origin>  (31) 
adg

>  <m_score__min__energy>  (31) 
-6.7999999999999998

>  <m_primary>  (31) 
energy

$$$$
31:0
     RDKit          3D

 42 44  0  0  0  0  0  0  0  0999 V2000
   55.3150   26.3490   46.3620 N   0  0  0  0  0  0  0  0  0  0  0  0
   56.9840   26.6770   46.0510 S   0  0  0  0  0  0  0  0  0  0  0  0
   57.7880   26.4470   47.3020 O   0  0  0  0  0  0  0  0  0  0  0  0
   57.4870   25.7570   44.9740 O   0  0  0  0  0  0  0  0  0  0  0  0
   57.1690   28.3390   45.5310 C   0  0  0  0  0  0  0  0  0  0  0  0
   56.1280   29.1470   45.2310 N   0  0  0  0  0  0  0  0  0  0  0  0
   56.5050   30.3760   44.8830 N   0  0  0  0  0  0  0  0  0  0  0  0
   57.8470   30.5400   44.9080 C   0  0  0  0  0  0  0  0  0  0  0  0
   58.4480   31.6510   44.6170 N   0  0  0  0  0  0  0  0  0  0  0  0
   58.0280   33.1750   45.3330 S   0  0  0  0  0  0  0  0  0  0  0  0
   56.5350   33.3470   45.2720 O   0  0  0  0  0  0  0  0  0  0  0  0
   58.6850   34.2800   44.5530 O   0  0  0  0  0  0  0  0  0  0  0  0
   58.5810   33.2440   47.0030 C   0  0  0  0  0  0  0  0  0  0  0  0
   59.2190   34.3960   47.4830 C   0  0  0  0  0  0  0  0  0  0  0  0
   59.6560   34.4600   48.8090 C   0  0  0  0  0  0  0  0  0  0  0  0
   59.4660   33.3670   49.6760 C   0  0  0  0  0  0  0  0  0  0  0  0
   59.9330   33.4300   51.0800 C   0  0  0  0  0  0  0  0  0  0  0  0
   59.1130   33.6780   52.0100 O   0  0  0  0  0  0  0  0  0  0  0  0
   61.3150   33.2070   51.3910 N   0  0  0  0  0  0  0  0  0  0  0  0
   62.0900   32.0830   50.8790 C   0  0  0  0  0  0  0  0  0  0  0  0
   62.5640   32.3800   49.4800 C   0  0  0  0  0  0  0  0  0  0  0  0
   62.3580   31.4280   48.4660 C   0  0  0  0  0  0  0  0  0  0  0  0
   62.7640   31.6940   47.1540 C   0  0  0  0  0  0  0  0  0  0  0  0
   63.3680   32.9130   46.8410 C   0  0  0  0  0  0  0  0  0  0  0  0
   63.5660   33.8720   47.8380 C   0  0  0  0  0  0  0  0  0  0  0  0
   63.1680   33.6110   49.1560 C   0  0  0  0  0  0  0  0  0  0  0  0
   63.3650   34.5630   50.1050 F   0  0  0  0  0  0  0  0  0  0  0  0
   58.8320   32.2120   49.1850 C   0  0  0  0  0  0  0  0  0  0  0  0
   58.3980   32.1500   47.8580 C   0  0  0  0  0  0  0  0  0  0  0  0
   58.6470   29.1380   45.3790 S   0  0  0  0  0  0  0  0  0  0  0  0
   54.7690   27.1520   45.9770 H   0  0  0  0  0  0  0  0  0  0  0  0
   55.1870   26.3690   47.3980 H   0  0  0  0  0  0  0  0  0  0  0  0
   59.3765   35.2539   46.8128 H   0  0  0  0  0  0  0  0  0  0  0  0
   60.1516   35.3702   49.1777 H   0  0  0  0  0  0  0  0  0  0  0  0
   62.9601   31.9134   51.5303 H   0  0  0  0  0  0  0  0  0  0  0  0
   61.4560   31.1842   50.8628 H   0  0  0  0  0  0  0  0  0  0  0  0
   61.8751   30.4691   48.7056 H   0  0  0  0  0  0  0  0  0  0  0  0
   62.6070   30.9412   46.3675 H   0  0  0  0  0  0  0  0  0  0  0  0
   63.6883   33.1188   45.8090 H   0  0  0  0  0  0  0  0  0  0  0  0
   64.0357   34.8346   47.5874 H   0  0  0  0  0  0  0  0  0  0  0  0
   58.6764   31.3503   49.8507 H   0  0  0  0  0  0  0  0  0  0  0  0
   57.9105   31.2379   47.4834 H   0  0  0  0  0  0  0  0  0  0  0  0
  1  2  1  0
  2  3  2  0
  2  4  2  0
  2  5  1  0
  5  6  2  0
  6  7  1  0
  7  8  1  0
  8  9  2  3
  9 10  1  0
 10 11  2  0
 10 12  2  0
 10 13  1  0
 13 14  2  0
 14 15  1  0
 15 16  2  0
 16 17  1  0
 17 18  2  0
 17 19  1  0
 19 20  1  0
 20 21  1  0
 21 22  2  0
 22 23  1  0
 23 24  2  0
 24 25  1  0
 25 26  2  0
 26 27  1  0
 16 28  1  0
 28 29  2  0
  8 30  1  0
 30  5  1  0
 29 13  1  0
 26 21  1  0
  1 31  1  0
  1 32  1  0
 14 33  1  0
 15 34  1  0
 20 35  1  0
 20 36  1  0
 22 37  1  0
 23 38  1  0
 24 39  1  0
 25 40  1  0
 28 41  1  0
 29 42  1  0
M  CHG  2   7  -1  19  -1
M  END
>  <UniqueID>  (32) 
31

>  <SMILES>  (32) 
NS(=O)(=O)c1n[n-]c(=NS(=O)(=O)c2ccc(C(=O)[N-]Cc3ccccc3F)cc2)s1

>  <Energy>  (32) 
79.45544954854334

>  <Genealogy>  (32) 
NS(=O)(=O)c1n[n-]c(=NS(=O)(=O)c2ccc(C(=O)[N-]Cc3ccccc3F)cc2)s1 (protonated)
NS(=O)(=O)c1n[n-]c(=NS(=O)(=O)c2ccc(C(=O)[N-]Cc3ccccc3F)cc2)s1 (3D coordinates assigned)
NS(=O)(=O)c1n[n-]c(=NS(=O)(=O)c2ccc(C(=O)[N-]Cc3ccccc3F)cc2)s1 (optimized conformer: 79.45544954854334 kcal/mol)

>  <smiles>  (32) 
NS(=O)(=O)c1n[nH]c(=NS(=O)(=O)c2ccc(C(=O)NCc3ccccc3F)cc2)s1

>  <score_type>  (32) 
oracle

>  <origin>  (32) 
adg

>  <m_score__min__energy>  (32) 
-12.869999999999999

>  <m_primary>  (32) 
energy

$$$$
32:0
     RDKit          3D

 42 44  0  0  0  0  0  0  0  0999 V2000
   57.4280   28.5460   43.3900 N   0  0  0  0  0  0  0  0  0  0  0  0
   56.7440   29.4970   44.6610 S   0  0  0  0  0  0  0  0  0  0  0  0
   55.2540   29.5860   44.4830 O   0  0  0  0  0  0  0  0  0  0  0  0
   57.0450   28.8390   45.9790 O   0  0  0  0  0  0  0  0  0  0  0  0
   57.4320   31.1170   44.6210 C   0  0  0  0  0  0  0  0  0  0  0  0
   57.6650   31.7640   43.4000 C   0  0  0  0  0  0  0  0  0  0  0  0
   58.2120   33.0500   43.3810 C   0  0  0  0  0  0  0  0  0  0  0  0
   58.5440   33.6880   44.5790 C   0  0  0  0  0  0  0  0  0  0  0  0
   58.3400   33.0370   45.8030 C   0  0  0  0  0  0  0  0  0  0  0  0
   58.7910   33.8570   47.3380 S   0  0  0  0  0  0  0  0  0  0  0  0
   60.5260   33.3630   47.2580 C   0  0  0  0  0  0  0  0  0  0  0  0
   61.4130   34.1570   46.5160 C   0  0  0  0  0  0  0  0  0  0  0  0
   62.7650   33.8240   46.4330 C   0  0  0  0  0  0  0  0  0  0  0  0
   63.2530   32.7140   47.1200 C   0  0  0  0  0  0  0  0  0  0  0  0
   62.3930   31.9410   47.9010 C   0  0  0  0  0  0  0  0  0  0  0  0
   61.0210   32.2470   47.9770 C   0  0  0  0  0  0  0  0  0  0  0  0
   60.1470   31.4620   48.9300 C   0  0  0  0  0  0  0  0  0  0  0  0
   59.2500   30.5950   48.2370 O   0  0  0  0  0  0  0  0  0  0  0  0
   59.6130   29.4490   47.5090 C   0  0  0  0  0  0  0  0  0  0  0  0
   60.1540   29.6260   46.2290 C   0  0  0  0  0  0  0  0  0  0  0  0
   60.5440   28.5230   45.4620 C   0  0  0  0  0  0  0  0  0  0  0  0
   60.3930   27.2300   45.9700 C   0  0  0  0  0  0  0  0  0  0  0  0
   59.8450   27.0410   47.2410 C   0  0  0  0  0  0  0  0  0  0  0  0
   59.4530   28.1420   48.0090 C   0  0  0  0  0  0  0  0  0  0  0  0
   57.7660   31.7610   45.8200 C   0  0  0  0  0  0  0  0  0  0  0  0
   57.7670   29.2090   42.6580 H   0  0  0  0  0  0  0  0  0  0  0  0
   56.6470   27.9980   42.9650 H   0  0  0  0  0  0  0  0  0  0  0  0
   57.4170   31.2588   42.4549 H   0  0  0  0  0  0  0  0  0  0  0  0
   58.3814   33.5606   42.4215 H   0  0  0  0  0  0  0  0  0  0  0  0
   58.9664   34.7035   44.5612 H   0  0  0  0  0  0  0  0  0  0  0  0
   61.0389   35.0505   45.9948 H   0  0  0  0  0  0  0  0  0  0  0  0
   63.4462   34.4377   45.8252 H   0  0  0  0  0  0  0  0  0  0  0  0
   64.3175   32.4469   47.0465 H   0  0  0  0  0  0  0  0  0  0  0  0
   62.7913   31.0835   48.4632 H   0  0  0  0  0  0  0  0  0  0  0  0
   60.7901   30.8575   49.5865 H   0  0  0  0  0  0  0  0  0  0  0  0
   59.5481   32.1779   49.5120 H   0  0  0  0  0  0  0  0  0  0  0  0
   60.2732   30.6415   45.8233 H   0  0  0  0  0  0  0  0  0  0  0  0
   60.9696   28.6735   44.4589 H   0  0  0  0  0  0  0  0  0  0  0  0
   60.7051   26.3624   45.3701 H   0  0  0  0  0  0  0  0  0  0  0  0
   59.7214   26.0230   47.6390 H   0  0  0  0  0  0  0  0  0  0  0  0
   59.0181   27.9867   49.0074 H   0  0  0  0  0  0  0  0  0  0  0  0
   57.5757   31.2602   46.7807 H   0  0  0  0  0  0  0  0  0  0  0  0
  1  2  1  0
  2  3  2  0
  2  4  2  0
  2  5  1  0
  5  6  2  0
  6  7  1  0
  7  8  2  0
  8  9  1  0
  9 10  1  0
 10 11  1  0
 11 12  2  0
 12 13  1  0
 13 14  2  0
 14 15  1  0
 15 16  2  0
 16 17  1  0
 17 18  1  0
 18 19  1  0
 19 20  2  0
 20 21  1  0
 21 22  2  0
 22 23  1  0
 23 24  2  0
  9 25  2  0
 25  5  1  0
 16 11  1  0
 24 19  1  0
  1 26  1  0
  1 27  1  0
  6 28  1  0
  7 29  1  0
  8 30  1  0
 12 31  1  0
 13 32  1  0
 14 33  1  0
 15 34  1  0
 17 35  1  0
 17 36  1  0
 20 37  1  0
 21 38  1  0
 22 39  1  0
 23 40  1  0
 24 41  1  0
 25 42  1  0
M  END
>  <UniqueID>  (33) 
32

>  <SMILES>  (33) 
NS(=O)(=O)c1cccc(Sc2ccccc2COc2ccccc2)c1

>  <Energy>  (33) 
39.85170810526805

>  <Genealogy>  (33) 
NS(=O)(=O)c1cccc(Sc2ccccc2COc2ccccc2)c1 (3D coordinates assigned)
NS(=O)(=O)c1cccc(Sc2ccccc2COc2ccccc2)c1 (optimized conformer: 39.85170810526805 kcal/mol)

>  <smiles>  (33) 
NS(=O)(=O)c1cccc(Sc2ccccc2COc2ccccc2)c1

>  <score_type>  (33) 
oracle

>  <origin>  (33) 
adg

>  <m_score__min__energy>  (33) 
-9.4900000000000002

>  <m_primary>  (33) 
energy

$$$$
33:0
     RDKit          3D

 30 31  0  0  0  0  0  0  0  0999 V2000
   54.9010   26.1890   45.9830 N   0  0  0  0  0  0  0  0  0  0  0  0
   56.4840   25.6060   46.3550 S   0  0  0  0  0  0  0  0  0  0  0  0
   56.8230   24.4860   45.4100 O   0  0  0  0  0  0  0  0  0  0  0  0
   56.5090   25.0780   47.7620 O   0  0  0  0  0  0  0  0  0  0  0  0
   57.6340   26.9070   46.2010 N   0  0  0  0  0  0  0  0  0  0  0  0
   58.8930   26.7520   46.7050 C   0  0  0  0  0  0  0  0  0  0  0  0
   59.8310   27.7790   46.6000 C   0  0  0  0  0  0  0  0  0  0  0  0
   59.4820   28.9620   45.9560 C   0  0  0  0  0  0  0  0  0  0  0  0
   58.2070   29.1100   45.4090 C   0  0  0  0  0  0  0  0  0  0  0  0
   57.8920   30.3300   44.7180 N   0  0  0  0  0  0  0  0  0  0  0  0
   56.6630   31.0630   44.8150 C   0  0  0  0  0  0  0  0  0  0  0  0
   55.5890   30.4970   44.4880 O   0  0  0  0  0  0  0  0  0  0  0  0
   56.6210   32.4230   45.2670 N   0  0  0  0  0  0  0  0  0  0  0  0
   57.7380   33.1840   45.7490 C   0  0  0  0  0  0  0  0  0  0  0  0
   58.4530   34.0550   44.9080 C   0  0  0  0  0  0  0  0  0  0  0  0
   59.5300   34.7900   45.4100 C   0  0  0  0  0  0  0  0  0  0  0  0
   59.9130   34.6480   46.7470 C   0  0  0  0  0  0  0  0  0  0  0  0
   59.2240   33.7610   47.5820 C   0  0  0  0  0  0  0  0  0  0  0  0
   59.7110   33.5750   49.2560 Cl  0  0  0  0  0  0  0  0  0  0  0  0
   58.1440   33.0250   47.0800 C   0  0  0  0  0  0  0  0  0  0  0  0
   57.2680   28.0710   45.5770 C   0  0  0  0  0  0  0  0  0  0  0  0
   56.0850   28.2220   45.1660 O   0  0  0  0  0  0  0  0  0  0  0  0
   54.7820   27.0900   46.4990 H   0  0  0  0  0  0  0  0  0  0  0  0
   59.1704   25.8088   47.1984 H   0  0  0  0  0  0  0  0  0  0  0  0
   60.8388   27.6546   47.0230 H   0  0  0  0  0  0  0  0  0  0  0  0
   60.2119   29.7812   45.8781 H   0  0  0  0  0  0  0  0  0  0  0  0
   58.1636   34.1580   43.8518 H   0  0  0  0  0  0  0  0  0  0  0  0
   60.0773   35.4813   44.7523 H   0  0  0  0  0  0  0  0  0  0  0  0
   60.7560   35.2335   47.1427 H   0  0  0  0  0  0  0  0  0  0  0  0
   57.6118   32.3185   47.7340 H   0  0  0  0  0  0  0  0  0  0  0  0
  1  2  1  0
  2  3  2  0
  2  4  2  0
  2  5  1  0
  5  6  1  0
  6  7  2  0
  7  8  1  0
  8  9  2  0
  9 10  1  0
 10 11  1  0
 11 12  2  0
 11 13  1  0
 13 14  1  0
 14 15  2  0
 15 16  1  0
 16 17  2  0
 17 18  1  0
 18 19  1  0
 18 20  2  0
  9 21  1  0
 21 22  2  0
 21  5  1  0
 20 14  1  0
  1 23  1  0
  6 24  1  0
  7 25  1  0
  8 26  1  0
 15 27  1  0
 16 28  1  0
 17 29  1  0
 20 30  1  0
M  CHG  3   1  -1  10  -1  13  -1
M  END
>  <UniqueID>  (34) 
33

>  <SMILES>  (34) 
[NH-]S(=O)(=O)n1cccc([N-]C(=O)[N-]c2cccc(Cl)c2)c1=O

>  <Energy>  (34) 
40.44414929024543

>  <Genealogy>  (34) 
[NH-]S(=O)(=O)n1cccc([N-]C(=O)[N-]c2cccc(Cl)c2)c1=O (protonated)
[NH-]S(=O)(=O)n1cccc([N-]C(=O)[N-]c2cccc(Cl)c2)c1=O (3D coordinates assigned)
[NH-]S(=O)(=O)n1cccc([N-]C(=O)[N-]c2cccc(Cl)c2)c1=O (optimized conformer: 40.44414929024543 kcal/mol)

>  <smiles>  (34) 
NS(=O)(=O)n1cccc(NC(=O)Nc2cccc(Cl)c2)c1=O

>  <score_type>  (34) 
oracle

>  <origin>  (34) 
adg

>  <m_score__min__energy>  (34) 
-13.949999999999999

>  <m_primary>  (34) 
energy

$$$$
34:0
     RDKit          3D

 53 55  0  0  0  0  0  0  0  0999 V2000
   59.7590   34.0260   49.4860 C   0  0  0  0  0  0  0  0  0  0  0  0
   59.4040   34.0510   48.1070 O   0  0  0  0  0  0  0  0  0  0  0  0
   59.3170   32.9150   47.2880 C   0  0  0  0  0  0  0  0  0  0  0  0
   58.1280   32.5640   46.6210 C   0  0  0  0  0  0  0  0  0  0  0  0
   58.0740   31.4160   45.8270 C   0  0  0  0  0  0  0  0  0  0  0  0
   56.9160   31.0720   45.2140 N   0  0  0  0  0  0  0  0  0  0  0  0
   56.8150   29.9480   44.4610 C   0  0  0  0  0  0  0  0  0  0  0  0
   55.7070   29.6780   43.9240 O   0  0  0  0  0  0  0  0  0  0  0  0
   57.9000   29.1190   44.3020 N   0  0  0  0  0  0  0  0  0  0  0  0
   57.7790   27.8660   43.5260 C   0  0  0  0  0  0  0  0  0  0  0  0
   58.0540   26.6210   44.3900 C   0  0  0  0  0  0  0  0  0  0  0  0
   57.4000   25.3310   43.8510 C   0  0  0  0  0  0  0  0  0  0  0  0
   56.2960   24.7720   44.7700 C   0  0  0  0  0  0  0  0  0  0  0  0
   56.0650   25.6120   46.0030 C   0  0  0  0  0  0  0  0  0  0  0  0
   55.1500   26.4790   46.0010 O   0  0  0  0  0  0  0  0  0  0  0  0
   56.9040   25.5090   47.1620 N   0  0  0  0  0  0  0  0  0  0  0  0
   58.3640   25.4670   47.1650 C   0  0  0  0  0  0  0  0  0  0  0  0
   58.9320   26.7150   47.7880 C   0  0  0  0  0  0  0  0  0  0  0  0
   58.1770   27.9000   47.8020 C   0  0  0  0  0  0  0  0  0  0  0  0
   58.6940   29.0580   48.3890 C   0  0  0  0  0  0  0  0  0  0  0  0
   59.9680   29.0420   48.9680 C   0  0  0  0  0  0  0  0  0  0  0  0
   60.4710   30.1680   49.5340 F   0  0  0  0  0  0  0  0  0  0  0  0
   60.7210   27.8640   48.9660 C   0  0  0  0  0  0  0  0  0  0  0  0
   60.2030   26.7020   48.3850 C   0  0  0  0  0  0  0  0  0  0  0  0
   59.1000   29.4460   44.8870 C   0  0  0  0  0  0  0  0  0  0  0  0
   60.1080   28.7020   44.7280 O   0  0  0  0  0  0  0  0  0  0  0  0
   59.2100   30.6060   45.6740 C   0  0  0  0  0  0  0  0  0  0  0  0
   60.4040   30.9600   46.3290 C   0  0  0  0  0  0  0  0  0  0  0  0
   60.4590   32.1110   47.1420 C   0  0  0  0  0  0  0  0  0  0  0  0
   61.6280   32.4860   47.8230 O   0  0  0  0  0  0  0  0  0  0  0  0
   62.7990   33.0010   47.1970 C   0  0  0  0  0  0  0  0  0  0  0  0
   58.8487   34.0901   50.1002 H   0  0  0  0  0  0  0  0  0  0  0  0
   60.2882   33.0884   49.7115 H   0  0  0  0  0  0  0  0  0  0  0  0
   60.4143   34.8802   49.7115 H   0  0  0  0  0  0  0  0  0  0  0  0
   57.2353   33.1981   46.7258 H   0  0  0  0  0  0  0  0  0  0  0  0
   56.7591   27.7975   43.1195 H   0  0  0  0  0  0  0  0  0  0  0  0
   58.5283   27.8922   42.7211 H   0  0  0  0  0  0  0  0  0  0  0  0
   59.1419   26.4648   44.4366 H   0  0  0  0  0  0  0  0  0  0  0  0
   57.6132   26.8141   45.3792 H   0  0  0  0  0  0  0  0  0  0  0  0
   56.9574   25.5494   42.8679 H   0  0  0  0  0  0  0  0  0  0  0  0
   58.1898   24.5676   43.7922 H   0  0  0  0  0  0  0  0  0  0  0  0
   55.3571   24.7241   44.1989 H   0  0  0  0  0  0  0  0  0  0  0  0
   56.6254   23.7787   45.1088 H   0  0  0  0  0  0  0  0  0  0  0  0
   58.6987   24.5916   47.7409 H   0  0  0  0  0  0  0  0  0  0  0  0
   58.7176   25.3985   46.1256 H   0  0  0  0  0  0  0  0  0  0  0  0
   57.1747   27.9162   47.3490 H   0  0  0  0  0  0  0  0  0  0  0  0
   58.0989   29.9831   48.3960 H   0  0  0  0  0  0  0  0  0  0  0  0
   61.7220   27.8511   49.4219 H   0  0  0  0  0  0  0  0  0  0  0  0
   60.7936   25.7741   48.3957 H   0  0  0  0  0  0  0  0  0  0  0  0
   61.3006   30.3347   46.2061 H   0  0  0  0  0  0  0  0  0  0  0  0
   63.5178   33.3171   47.9674 H   0  0  0  0  0  0  0  0  0  0  0  0
   63.2534   32.2197   46.5701 H   0  0  0  0  0  0  0  0  0  0  0  0
   62.5303   33.8640   46.5701 H   0  0  0  0  0  0  0  0  0  0  0  0
  1  2  1  0
  2  3  1  0
  3  4  2  0
  4  5  1  0
  5  6  1  0
  6  7  1  0
  7  8  2  0
  7  9  1  0
  9 10  1  0
 10 11  1  0
 11 12  1  0
 12 13  1  0
 13 14  1  0
 14 15  2  0
 14 16  1  0
 16 17  1  0
 17 18  1  0
 18 19  2  0
 19 20  1  0
 20 21  2  0
 21 22  1  0
 21 23  1  0
 23 24  2  0
  9 25  1  0
 25 26  2  0
 25 27  1  0
 27 28  1  0
 28 29  2  0
 29 30  1  0
 30 31  1  0
 29  3  1  0
 27  5  2  0
 24 18  1  0
  1 32  1  0
  1 33  1  0
  1 34  1  0
  4 35  1  0
 10 36  1  0
 10 37  1  0
 11 38  1  0
 11 39  1  0
 12 40  1  0
 12 41  1  0
 13 42  1  0
 13 43  1  0
 17 44  1  0
 17 45  1  0
 19 46  1  0
 20 47  1  0
 23 48  1  0
 24 49  1  0
 28 50  1  0
 31 51  1  0
 31 52  1  0
 31 53  1  0
M  CHG  2   6  -1  16  -1
M  END
>  <UniqueID>  (35) 
34

>  <SMILES>  (35) 
COc1cc2[n-]c(=O)n(CCCCC(=O)[N-]Cc3ccc(F)cc3)c(=O)c2cc1OC

>  <Energy>  (35) 
53.35266737387302

>  <Genealogy>  (35) 
COc1cc2[n-]c(=O)n(CCCCC(=O)[N-]Cc3ccc(F)cc3)c(=O)c2cc1OC (protonated)
COc1cc2[n-]c(=O)n(CCCCC(=O)[N-]Cc3ccc(F)cc3)c(=O)c2cc1OC (3D coordinates assigned)
COc1cc2[n-]c(=O)n(CCCCC(=O)[N-]Cc3ccc(F)cc3)c(=O)c2cc1OC (optimized conformer: 53.35266737387302 kcal/mol)

>  <smiles>  (35) 
COc1cc2[nH]c(=O)n(CCCCC(=O)NCc3ccc(F)cc3)c(=O)c2cc1OC

>  <score_type>  (35) 
oracle

>  <origin>  (35) 
adg

>  <m_score__min__energy>  (35) 
-12.25

>  <m_primary>  (35) 
energy

$$$$
35:0
     RDKit          3D

 50 52  0  0  0  0  0  0  0  0999 V2000
   55.8127   31.2206   43.2981 H   0  0  0  0  0  0  0  0  0  0  0  0
   56.7420   30.9100   43.7980 C   0  0  0  0  0  0  0  0  0  0  0  0
   56.7800   29.6060   44.4890 C   0  0  0  0  0  0  0  0  0  0  0  0
   55.7080   29.0460   44.8600 O   0  0  0  0  0  0  0  0  0  0  0  0
   58.0450   28.9720   44.7360 N   0  0  0  0  0  0  0  0  0  0  0  0
   58.9320   29.4910   44.5220 H   0  0  0  0  0  0  0  0  0  0  0  0
   58.1490   27.5890   45.1970 C   0  0  0  0  0  0  0  0  0  0  0  0
   58.9559   27.0803   44.6492 H   0  0  0  0  0  0  0  0  0  0  0  0
   57.1960   27.0708   45.0145 H   0  0  0  0  0  0  0  0  0  0  0  0
   58.4520   27.5690   46.6600 C   0  0  0  0  0  0  0  0  0  0  0  0
   58.9610   26.5390   47.1790 O   0  0  0  0  0  0  0  0  0  0  0  0
   58.1290   28.7090   47.4640 N   0  0  0  0  0  0  0  0  0  0  0  0
   59.0890   29.6140   48.0220 C   0  0  0  0  0  0  0  0  0  0  0  0
   59.1830   30.1000   49.3250 C   0  0  0  0  0  0  0  0  0  0  0  0
   58.2710   29.7840   50.4790 C   0  0  0  0  0  0  0  0  0  0  0  0
   58.8004   29.9674   51.4256 H   0  0  0  0  0  0  0  0  0  0  0  0
   57.3788   30.4254   50.4276 H   0  0  0  0  0  0  0  0  0  0  0  0
   57.9669   28.7281   50.4276 H   0  0  0  0  0  0  0  0  0  0  0  0
   60.2100   30.9880   49.3730 N   0  0  0  0  0  0  0  0  0  0  0  0
   60.6740   31.6990   50.5700 C   0  0  0  0  0  0  0  0  0  0  0  0
   60.3276   31.1682   51.4691 H   0  0  0  0  0  0  0  0  0  0  0  0
   61.7732   31.7400   50.5691 H   0  0  0  0  0  0  0  0  0  0  0  0
   60.2689   32.7217   50.5691 H   0  0  0  0  0  0  0  0  0  0  0  0
   60.7150   31.1300   48.1470 N   0  0  0  0  0  0  0  0  0  0  0  0
   61.7660   32.0340   47.7620 C   0  0  0  0  0  0  0  0  0  0  0  0
   62.9930   32.0330   48.4470 C   0  0  0  0  0  0  0  0  0  0  0  0
   63.1568   31.3300   49.2770 H   0  0  0  0  0  0  0  0  0  0  0  0
   64.0070   32.9230   48.0770 C   0  0  0  0  0  0  0  0  0  0  0  0
   64.9695   32.9116   48.6094 H   0  0  0  0  0  0  0  0  0  0  0  0
   63.7980   33.8270   47.0310 C   0  0  0  0  0  0  0  0  0  0  0  0
   64.5966   34.5258   46.7413 H   0  0  0  0  0  0  0  0  0  0  0  0
   62.5760   33.8440   46.3530 C   0  0  0  0  0  0  0  0  0  0  0  0
   62.4122   34.5580   45.5324 H   0  0  0  0  0  0  0  0  0  0  0  0
   61.5610   32.9530   46.7180 C   0  0  0  0  0  0  0  0  0  0  0  0
   60.5985   32.9716   46.1859 H   0  0  0  0  0  0  0  0  0  0  0  0
   60.0430   30.3080   47.3140 C   0  0  0  0  0  0  0  0  0  0  0  0
   60.2450   30.2200   46.0720 O   0  0  0  0  0  0  0  0  0  0  0  0
   57.8050   31.7290   43.7600 C   0  0  0  0  0  0  0  0  0  0  0  0
   58.4547   31.6965   42.8729 H   0  0  0  0  0  0  0  0  0  0  0  0
   58.1520   32.6760   44.8490 C   0  0  0  0  0  0  0  0  0  0  0  0
   57.8140   32.4350   46.1990 C   0  0  0  0  0  0  0  0  0  0  0  0
   57.2739   31.5166   46.4726 H   0  0  0  0  0  0  0  0  0  0  0  0
   58.1630   33.3590   47.1900 C   0  0  0  0  0  0  0  0  0  0  0  0
   57.9040   33.1605   48.2405 H   0  0  0  0  0  0  0  0  0  0  0  0
   58.8400   34.5340   46.8490 C   0  0  0  0  0  0  0  0  0  0  0  0
   59.1173   35.2562   47.6310 H   0  0  0  0  0  0  0  0  0  0  0  0
   59.1640   34.7900   45.5140 C   0  0  0  0  0  0  0  0  0  0  0  0
   59.6912   35.7172   45.2450 H   0  0  0  0  0  0  0  0  0  0  0  0
   58.8190   33.8690   44.5190 C   0  0  0  0  0  0  0  0  0  0  0  0
   59.0717   34.0800   43.4694 H   0  0  0  0  0  0  0  0  0  0  0  0
  1  2  1  0
  2  3  1  0
  3  4  2  0
  3  5  1  0
  5  6  1  0
  5  7  1  0
  7  8  1  0
  7  9  1  0
  7 10  1  0
 10 11  2  0
 10 12  1  0
 12 13  1  0
 13 14  2  0
 14 15  1  0
 15 16  1  0
 15 17  1  0
 15 18  1  0
 14 19  1  0
 19 20  1  0
 20 21  1  0
 20 22  1  0
 20 23  1  0
 19 24  1  0
 24 25  1  0
 25 26  2  0
 26 27  1  0
 26 28  1  0
 28 29  1  0
 28 30  2  0
 30 31  1  0
 30 32  1  0
 32 33  1  0
 32 34  2  0
 34 35  1  0
 24 36  1  0
 36 37  2  0
  2 38  2  0
 38 39  1  0
 38 40  1  0
 40 41  2  0
 41 42  1  0
 41 43  1  0
 43 44  1  0
 43 45  2  0
 45 46  1  0
 45 47  1  0
 47 48  1  0
 47 49  2  0
 49 50  1  0
 36 13  1  0
 49 40  1  0
 34 25  1  0
M  CHG  1  12  -1
M  END
>  <UniqueID>  (36) 
35

>  <SMILES>  (36) 
Cc1c([N-]C(=O)CNC(=O)/C=C/c2ccccc2)c(=O)n(-c2ccccc2)n1C

>  <Energy>  (36) 
95.45184403306993

>  <Genealogy>  (36) 
Cc1c([N-]C(=O)CNC(=O)C=Cc2ccccc2)c(=O)n(-c2ccccc2)n1C (protonated)
Cc1c([N-]C(=O)CNC(=O)/C=C/c2ccccc2)c(=O)n(-c2ccccc2)n1C (cis-trans isomerization)
Cc1c([N-]C(=O)CNC(=O)/C=C/c2ccccc2)c(=O)n(-c2ccccc2)n1C (3D coordinates assigned)
Cc1c([N-]C(=O)CNC(=O)/C=C/c2ccccc2)c(=O)n(-c2ccccc2)n1C (optimized conformer: 95.45184403306993 kcal/mol)

>  <smiles>  (36) 
Cc1c(NC(=O)CNC(=O)C=Cc2ccccc2)c(=O)n(-c2ccccc2)n1C

>  <score_type>  (36) 
oracle

>  <origin>  (36) 
adg

>  <m_score__min__energy>  (36) 
-11.029999999999999

>  <m_primary>  (36) 
energy

$$$$
36:0
     RDKit          3D

 46 48  0  0  0  0  0  0  0  0999 V2000
   63.5900   33.5240   46.6170 C   0  0  0  0  0  0  0  0  0  0  0  0
   63.1120   32.9810   47.8440 O   0  0  0  0  0  0  0  0  0  0  0  0
   61.7600   32.9210   48.2100 C   0  0  0  0  0  0  0  0  0  0  0  0
   61.2900   32.0640   49.2240 C   0  0  0  0  0  0  0  0  0  0  0  0
   59.9300   32.0340   49.5460 C   0  0  0  0  0  0  0  0  0  0  0  0
   59.0300   32.8570   48.8680 C   0  0  0  0  0  0  0  0  0  0  0  0
   59.4860   33.7260   47.8640 C   0  0  0  0  0  0  0  0  0  0  0  0
   58.5110   34.5840   47.1050 C   0  0  0  0  0  0  0  0  0  0  0  0
   58.2500   33.9220   45.4690 S   0  0  0  0  0  0  0  0  0  0  0  0
   59.5780   33.7480   44.7870 O   0  0  0  0  0  0  0  0  0  0  0  0
   57.3940   34.8770   44.6850 O   0  0  0  0  0  0  0  0  0  0  0  0
   57.4500   32.3890   45.6000 N   0  0  0  0  0  0  0  0  0  0  0  0
   58.1050   31.1170   45.6570 C   0  0  0  0  0  0  0  0  0  0  0  0
   59.3160   30.9280   46.3460 C   0  0  0  0  0  0  0  0  0  0  0  0
   59.9140   29.6660   46.3820 C   0  0  0  0  0  0  0  0  0  0  0  0
   59.3160   28.5850   45.7310 C   0  0  0  0  0  0  0  0  0  0  0  0
   58.1140   28.7600   45.0260 C   0  0  0  0  0  0  0  0  0  0  0  0
   57.4510   27.5940   44.3370 C   0  0  0  0  0  0  0  0  0  0  0  0
   57.4690   26.3590   45.2080 C   0  0  0  0  0  0  0  0  0  0  0  0
   58.6440   25.5920   45.2750 C   0  0  0  0  0  0  0  0  0  0  0  0
   58.6900   24.4610   46.0880 C   0  0  0  0  0  0  0  0  0  0  0  0
   57.6060   24.1010   46.8190 N   0  0  0  0  0  0  0  0  0  0  0  0
   56.4520   24.8200   46.7890 C   0  0  0  0  0  0  0  0  0  0  0  0
   55.4720   24.4480   47.4870 O   0  0  0  0  0  0  0  0  0  0  0  0
   56.3530   25.9660   45.9870 C   0  0  0  0  0  0  0  0  0  0  0  0
   55.1510   26.6800   45.9850 O   0  0  0  0  0  0  0  0  0  0  0  0
   57.5110   30.0290   45.0030 C   0  0  0  0  0  0  0  0  0  0  0  0
   60.8510   33.7460   47.5350 C   0  0  0  0  0  0  0  0  0  0  0  0
   64.3033   34.3343   46.8279 H   0  0  0  0  0  0  0  0  0  0  0  0
   64.0920   32.7350   46.0378 H   0  0  0  0  0  0  0  0  0  0  0  0
   62.7437   33.9219   46.0378 H   0  0  0  0  0  0  0  0  0  0  0  0
   61.9956   31.4159   49.7645 H   0  0  0  0  0  0  0  0  0  0  0  0
   59.5683   31.3596   50.3362 H   0  0  0  0  0  0  0  0  0  0  0  0
   57.9600   32.8248   49.1209 H   0  0  0  0  0  0  0  0  0  0  0  0
   57.5525   34.6085   47.6441 H   0  0  0  0  0  0  0  0  0  0  0  0
   58.9200   35.6015   47.0191 H   0  0  0  0  0  0  0  0  0  0  0  0
   59.7939   31.7762   46.8581 H   0  0  0  0  0  0  0  0  0  0  0  0
   60.8597   29.5233   46.9253 H   0  0  0  0  0  0  0  0  0  0  0  0
   59.7883   27.5923   45.7705 H   0  0  0  0  0  0  0  0  0  0  0  0
   56.4073   27.8577   44.1107 H   0  0  0  0  0  0  0  0  0  0  0  0
   58.0062   27.3753   43.4129 H   0  0  0  0  0  0  0  0  0  0  0  0
   59.5265   25.8837   44.6866 H   0  0  0  0  0  0  0  0  0  0  0  0
   59.6088   23.8582   46.1369 H   0  0  0  0  0  0  0  0  0  0  0  0
   54.2980   26.3380   46.4020 H   0  0  0  0  0  0  0  0  0  0  0  0
   56.5617   30.1701   44.4654 H   0  0  0  0  0  0  0  0  0  0  0  0
   61.2099   34.4158   46.7397 H   0  0  0  0  0  0  0  0  0  0  0  0
  1  2  1  0
  2  3  1  0
  3  4  2  0
  4  5  1  0
  5  6  2  0
  6  7  1  0
  7  8  1  0
  8  9  1  0
  9 10  2  0
  9 11  2  0
  9 12  1  0
 12 13  1  0
 13 14  2  0
 14 15  1  0
 15 16  2  0
 16 17  1  0
 17 18  1  0
 18 19  1  0
 19 20  1  0
 20 21  2  0
 21 22  1  0
 22 23  1  0
 23 24  2  0
 23 25  1  0
 25 26  1  0
 17 27  2  0
  7 28  2  0
 28  3  1  0
 27 13  1  0
 25 19  2  0
  1 29  1  0
  1 30  1  0
  1 31  1  0
  4 32  1  0
  5 33  1  0
  6 34  1  0
  8 35  1  0
  8 36  1  0
 14 37  1  0
 15 38  1  0
 16 39  1  0
 18 40  1  0
 18 41  1  0
 20 42  1  0
 21 43  1  0
 26 44  1  0
 27 45  1  0
 28 46  1  0
M  CHG  2  12  -1  22  -1
M  END
>  <UniqueID>  (37) 
36

>  <SMILES>  (37) 
COc1cccc(CS(=O)(=O)[N-]c2cccc(Cc3cc[n-]c(=O)c3O)c2)c1

>  <Energy>  (37) 
47.90301122314896

>  <Genealogy>  (37) 
COc1cccc(CS(=O)(=O)[N-]c2cccc(Cc3cc[n-]c(=O)c3O)c2)c1 (protonated)
COc1cccc(CS(=O)(=O)[N-]c2cccc(Cc3cc[n-]c(=O)c3O)c2)c1 (3D coordinates assigned)
COc1cccc(CS(=O)(=O)[N-]c2cccc(Cc3cc[n-]c(=O)c3O)c2)c1 (optimized conformer: 47.90301122314896 kcal/mol)

>  <smiles>  (37) 
COc1cccc(CS(=O)(=O)Nc2cccc(Cc3cc[nH]c(=O)c3O)c2)c1

>  <score_type>  (37) 
oracle

>  <origin>  (37) 
adg

>  <m_score__min__energy>  (37) 
-12.369999999999999

>  <m_primary>  (37) 
energy

$$$$
37:0
     RDKit          3D

 66 70  0  0  0  0  0  0  0  0999 V2000
   57.4420   28.1910   44.4110 C   0  0  0  0  0  0  0  0  0  0  0  0
   57.9420   29.5420   44.8270 C   0  0  0  0  0  0  0  0  0  0  0  0
   57.3680   30.7050   44.2870 C   0  0  0  0  0  0  0  0  0  0  0  0
   57.8040   31.9660   44.7080 C   0  0  0  0  0  0  0  0  0  0  0  0
   58.8110   32.0810   45.6740 C   0  0  0  0  0  0  0  0  0  0  0  0
   59.3300   33.6760   46.2020 S   0  0  0  0  0  0  0  0  0  0  0  0
   58.1470   34.6040   46.1980 O   0  0  0  0  0  0  0  0  0  0  0  0
   60.3780   34.2320   45.2750 O   0  0  0  0  0  0  0  0  0  0  0  0
   59.9830   33.5620   47.8030 N   0  0  0  0  0  0  0  0  0  0  0  0
   59.2740   33.5690   48.9550 C   0  0  0  0  0  0  0  0  0  0  0  0
   60.1260   33.4790   50.0500 C   0  0  0  0  0  0  0  0  0  0  0  0
   61.3970   33.4140   49.5180 C   0  0  0  0  0  0  0  0  0  0  0  0
   62.6360   33.3410   50.1500 C   0  0  0  0  0  0  0  0  0  0  0  0
   63.7940   33.3160   49.3420 C   0  0  0  0  0  0  0  0  0  0  0  0
   65.1610   33.2830   49.9880 C   0  0  0  0  0  0  0  0  0  0  0  0
   65.6260   31.8970   50.2460 N   0  0  2  0  0  0  0  0  0  0  0  0
   64.8230   31.3100   51.3440 C   0  0  0  0  0  0  0  0  0  0  0  0
   65.3130   29.8990   51.7010 C   0  0  0  0  0  0  0  0  0  0  0  0
   66.8390   29.8160   52.0150 C   0  0  1  0  0  0  0  0  0  0  0  0
   67.4630   28.7360   51.1850 N   0  0  0  0  0  0  0  0  0  0  0  0
   68.7650   28.2070   51.6560 C   0  0  0  0  0  0  0  0  0  0  0  0
   68.6360   27.4440   52.9880 C   0  0  0  0  0  0  0  0  0  0  0  0
   67.3460   26.6090   53.0640 C   0  0  0  0  0  0  0  0  0  0  0  0
   66.7790   26.3190   51.6720 C   0  0  0  0  0  0  0  0  0  0  0  0
   66.5080   27.6260   50.8900 C   0  0  0  0  0  0  0  0  0  0  0  0
   67.4830   31.2160   51.8420 C   0  0  0  0  0  0  0  0  0  0  0  0
   67.1010   31.8480   50.4930 C   0  0  0  0  0  0  0  0  0  0  0  0
   63.6670   33.3460   47.9290 C   0  0  0  0  0  0  0  0  0  0  0  0
   62.4000   33.4190   47.3230 C   0  0  0  0  0  0  0  0  0  0  0  0
   61.2790   33.4610   48.1540 C   0  0  0  0  0  0  0  0  0  0  0  0
   59.3770   30.9210   46.2240 C   0  0  0  0  0  0  0  0  0  0  0  0
   58.9410   29.6590   45.8070 C   0  0  0  0  0  0  0  0  0  0  0  0
   57.2199   27.5908   45.3056 H   0  0  0  0  0  0  0  0  0  0  0  0
   56.5274   28.3073   43.8111 H   0  0  0  0  0  0  0  0  0  0  0  0
   58.2120   27.6838   43.8111 H   0  0  0  0  0  0  0  0  0  0  0  0
   56.5733   30.6239   43.5308 H   0  0  0  0  0  0  0  0  0  0  0  0
   57.3531   32.8723   44.2776 H   0  0  0  0  0  0  0  0  0  0  0  0
   58.1778   33.6364   49.0167 H   0  0  0  0  0  0  0  0  0  0  0  0
   59.8462   33.4630   51.1137 H   0  0  0  0  0  0  0  0  0  0  0  0
   62.7104   33.3039   51.2469 H   0  0  0  0  0  0  0  0  0  0  0  0
   65.8804   33.7795   49.3202 H   0  0  0  0  0  0  0  0  0  0  0  0
   65.0897   33.8009   50.9558 H   0  0  0  0  0  0  0  0  0  0  0  0
   65.4210   31.3230   49.3920 H   0  0  0  0  0  0  0  0  0  0  0  0
   64.9060   31.9535   52.2322 H   0  0  0  0  0  0  0  0  0  0  0  0
   63.7772   31.2402   51.0103 H   0  0  0  0  0  0  0  0  0  0  0  0
   64.7587   29.5544   52.5864 H   0  0  0  0  0  0  0  0  0  0  0  0
   65.1358   29.2683   50.8174 H   0  0  0  0  0  0  0  0  0  0  0  0
   67.0158   29.5317   53.0628 H   0  0  0  0  0  0  0  0  0  0  0  0
   69.1662   27.5231   50.8935 H   0  0  0  0  0  0  0  0  0  0  0  0
   69.4371   29.0621   51.8205 H   0  0  0  0  0  0  0  0  0  0  0  0
   69.4993   26.7706   53.0942 H   0  0  0  0  0  0  0  0  0  0  0  0
   68.6021   28.1874   53.7980 H   0  0  0  0  0  0  0  0  0  0  0  0
   67.5674   25.6551   53.5650 H   0  0  0  0  0  0  0  0  0  0  0  0
   66.5967   27.1844   53.6274 H   0  0  0  0  0  0  0  0  0  0  0  0
   67.5024   25.7094   51.1107 H   0  0  0  0  0  0  0  0  0  0  0  0
   65.8261   25.7825   51.7909 H   0  0  0  0  0  0  0  0  0  0  0  0
   66.5652   27.4008   49.8148 H   0  0  0  0  0  0  0  0  0  0  0  0
   65.5143   27.9775   51.2047 H   0  0  0  0  0  0  0  0  0  0  0  0
   67.1373   31.8716   52.6548 H   0  0  0  0  0  0  0  0  0  0  0  0
   68.5764   31.0996   51.8719 H   0  0  0  0  0  0  0  0  0  0  0  0
   67.4912   32.8762   50.4687 H   0  0  0  0  0  0  0  0  0  0  0  0
   67.5369   31.2140   49.7069 H   0  0  0  0  0  0  0  0  0  0  0  0
   64.5693   33.3118   47.3008 H   0  0  0  0  0  0  0  0  0  0  0  0
   62.2955   33.4423   46.2282 H   0  0  0  0  0  0  0  0  0  0  0  0
   60.1663   31.0042   46.9857 H   0  0  0  0  0  0  0  0  0  0  0  0
   59.3828   28.7537   46.2489 H   0  0  0  0  0  0  0  0  0  0  0  0
  1  2  1  0
  2  3  2  0
  3  4  1  0
  4  5  2  0
  5  6  1  0
  6  7  2  0
  6  8  2  0
  6  9  1  0
  9 10  1  0
 10 11  2  0
 11 12  1  0
 12 13  2  0
 13 14  1  0
 14 15  1  0
 15 16  1  0
 16 17  1  0
 17 18  1  0
 18 19  1  0
 19 20  1  0
 20 21  1  0
 21 22  1  0
 22 23  1  0
 23 24  1  0
 24 25  1  0
 19 26  1  0
 26 27  1  0
 14 28  2  0
 28 29  1  0
 29 30  2  0
  5 31  1  0
 31 32  2  0
 32  2  1  0
 30  9  1  0
 30 12  1  0
 27 16  1  0
 25 20  1  0
  1 33  1  0
  1 34  1  0
  1 35  1  0
  3 36  1  0
  4 37  1  0
 10 38  1  0
 11 39  1  0
 13 40  1  0
 15 41  1  0
 15 42  1  0
 16 43  1  6
 17 44  1  0
 17 45  1  0
 18 46  1  0
 18 47  1  0
 19 48  1  1
 21 49  1  0
 21 50  1  0
 22 51  1  0
 22 52  1  0
 23 53  1  0
 23 54  1  0
 24 55  1  0
 24 56  1  0
 25 57  1  0
 25 58  1  0
 26 59  1  0
 26 60  1  0
 27 61  1  0
 27 62  1  0
 28 63  1  0
 29 64  1  0
 31 65  1  0
 32 66  1  0
M  CHG  1  16   1
M  END
>  <UniqueID>  (38) 
37

>  <SMILES>  (38) 
Cc1ccc(S(=O)(=O)n2ccc3cc(C[NH+]4CCC(N5CCCCC5)CC4)ccc32)cc1

>  <Energy>  (38) 
129.82478301976246

>  <Genealogy>  (38) 
Cc1ccc(S(=O)(=O)n2ccc3cc(C[NH+]4CCC(N5CCCCC5)CC4)ccc32)cc1 (protonated)
Cc1ccc(S(=O)(=O)n2ccc3cc(C[NH+]4CCC(N5CCCCC5)CC4)ccc32)cc1 (3D coordinates assigned)
Cc1ccc(S(=O)(=O)n2ccc3cc(C[NH+]4CCC(N5CCCCC5)CC4)ccc32)cc1 (nonaromatic ring conformer: 129.82478301976246 kcal/mol)

>  <smiles>  (38) 
Cc1ccc(S(=O)(=O)n2ccc3cc(CN4CCC(N5CCCCC5)CC4)ccc32)cc1

>  <score_type>  (38) 
oracle

>  <origin>  (38) 
adg

>  <m_score__min__energy>  (38) 
-9.0899999999999999

>  <m_primary>  (38) 
energy

$$$$
38:0
     RDKit          3D

 44 46  0  0  0  0  0  0  0  0999 V2000
   55.2039   31.2179   44.1019 H   0  0  0  0  0  0  0  0  0  0  0  0
   55.8980   30.4100   44.3770 C   0  0  0  0  0  0  0  0  0  0  0  0
   55.4180   29.2460   44.8820 N   0  0  0  0  0  0  0  0  0  0  0  0
   56.2550   28.2360   45.2460 C   0  0  0  0  0  0  0  0  0  0  0  0
   55.7910   27.1200   45.7230 N   0  0  0  0  0  0  0  0  0  0  0  0
   56.4800   25.8300   45.6530 C   0  0  0  0  0  0  0  0  0  0  0  0
   57.2357   25.8666   44.8545 H   0  0  0  0  0  0  0  0  0  0  0  0
   55.7403   25.0439   45.4411 H   0  0  0  0  0  0  0  0  0  0  0  0
   57.1690   25.5140   46.9840 C   0  0  0  0  0  0  0  0  0  0  0  0
   57.4204   24.4436   47.0162 H   0  0  0  0  0  0  0  0  0  0  0  0
   56.4853   25.7682   47.8074 H   0  0  0  0  0  0  0  0  0  0  0  0
   58.4290   26.3230   47.1310 C   0  0  0  0  0  0  0  0  0  0  0  0
   59.6190   25.8930   46.5230 C   0  0  0  0  0  0  0  0  0  0  0  0
   59.6362   24.9489   45.9587 H   0  0  0  0  0  0  0  0  0  0  0  0
   60.7800   26.6590   46.6320 C   0  0  0  0  0  0  0  0  0  0  0  0
   61.7115   26.3132   46.1599 H   0  0  0  0  0  0  0  0  0  0  0  0
   60.7630   27.8640   47.3390 C   0  0  0  0  0  0  0  0  0  0  0  0
   61.6836   28.4600   47.4246 H   0  0  0  0  0  0  0  0  0  0  0  0
   59.5830   28.3180   47.9390 C   0  0  0  0  0  0  0  0  0  0  0  0
   59.6150   29.5390   48.6300 O   0  0  0  0  0  0  0  0  0  0  0  0
   59.3490   30.8050   48.0360 C   0  0  0  0  0  0  0  0  0  0  0  0
   59.1915   31.5546   48.8255 H   0  0  0  0  0  0  0  0  0  0  0  0
   60.2039   31.1040   47.4118 H   0  0  0  0  0  0  0  0  0  0  0  0
   58.4460   30.7347   47.4118 H   0  0  0  0  0  0  0  0  0  0  0  0
   58.4120   27.5430   47.8290 C   0  0  0  0  0  0  0  0  0  0  0  0
   57.4783   27.8947   48.2922 H   0  0  0  0  0  0  0  0  0  0  0  0
   57.5970   28.3940   45.1080 N   0  0  0  0  0  0  0  0  0  0  0  0
   58.1250   29.5400   44.6050 C   0  0  0  0  0  0  0  0  0  0  0  0
   59.3770   29.6580   44.5150 O   0  0  0  0  0  0  0  0  0  0  0  0
   57.2760   30.5830   44.2060 C   0  0  0  0  0  0  0  0  0  0  0  0
   57.7920   31.8330   43.6190 C   0  0  0  0  0  0  0  0  0  0  0  0
   58.4080   31.7870   42.5240 O   0  0  0  0  0  0  0  0  0  0  0  0
   57.6560   33.0950   44.2880 N   0  0  0  0  0  0  0  0  0  0  0  0
   57.2770   33.2730   45.6880 C   0  0  0  0  0  0  0  0  0  0  0  0
   56.4588   34.0056   45.7501 H   0  0  0  0  0  0  0  0  0  0  0  0
   56.9526   32.3028   46.0923 H   0  0  0  0  0  0  0  0  0  0  0  0
   58.4390   33.7650   46.4930 C   0  0  0  0  0  0  0  0  0  0  0  0
   58.4830   33.7500   47.8050 O   0  0  0  0  0  0  0  0  0  0  0  0
   59.6450   34.2230   48.1890 C   0  0  0  0  0  0  0  0  0  0  0  0
   59.9706   34.3314   49.2341 H   0  0  0  0  0  0  0  0  0  0  0  0
   60.3970   34.5640   47.0830 C   0  0  0  0  0  0  0  0  0  0  0  0
   61.4132   34.9851   47.0793 H   0  0  0  0  0  0  0  0  0  0  0  0
   59.6190   34.2710   45.9850 C   0  0  0  0  0  0  0  0  0  0  0  0
   59.8823   34.4107   44.9261 H   0  0  0  0  0  0  0  0  0  0  0  0
  1  2  1  0
  2  3  1  0
  3  4  1  0
  4  5  2  0
  5  6  1  0
  6  7  1  0
  6  8  1  0
  6  9  1  0
  9 10  1  0
  9 11  1  0
  9 12  1  0
 12 13  2  0
 13 14  1  0
 13 15  1  0
 15 16  1  0
 15 17  2  0
 17 18  1  0
 17 19  1  0
 19 20  1  0
 20 21  1  0
 21 22  1  0
 21 23  1  0
 21 24  1  0
 19 25  2  0
 25 26  1  0
  4 27  1  0
 27 28  1  0
 28 29  2  0
 28 30  1  0
 30 31  1  0
 31 32  2  0
 31 33  1  0
 33 34  1  0
 34 35  1  0
 34 36  1  0
 34 37  1  0
 37 38  1  0
 38 39  1  0
 39 40  1  0
 39 41  2  0
 41 42  1  0
 41 43  1  0
 43 44  1  0
 30  2  2  0
 43 37  2  0
 25 12  1  0
M  CHG  3   3  -1  27  -1  33  -1
M  END
>  <UniqueID>  (39) 
38

>  <SMILES>  (39) 
COc1cccc(CC/N=c2\[n-]cc(C(=O)[N-]Cc3ccco3)c(=O)[n-]2)c1

>  <Energy>  (39) 
73.16763769282204

>  <Genealogy>  (39) 
COc1cccc(CCN=c2[n-]cc(C(=O)[N-]Cc3ccco3)c(=O)[n-]2)c1 (protonated)
COc1cccc(CC/N=c2\[n-]cc(C(=O)[N-]Cc3ccco3)c(=O)[n-]2)c1 (cis-trans isomerization)
COc1cccc(CC/N=c2\[n-]cc(C(=O)[N-]Cc3ccco3)c(=O)[n-]2)c1 (3D coordinates assigned)
COc1cccc(CC/N=c2\[n-]cc(C(=O)[N-]Cc3ccco3)c(=O)[n-]2)c1 (optimized conformer: 73.16763769282204 kcal/mol)

>  <smiles>  (39) 
COc1cccc(CCN=c2[nH]cc(C(=O)NCc3ccco3)c(=O)[nH]2)c1

>  <score_type>  (39) 
oracle

>  <origin>  (39) 
adg

>  <m_score__min__energy>  (39) 
-12.289999999999999

>  <m_primary>  (39) 
energy

$$$$
39:0
     RDKit          3D

 41 42  0  0  0  0  0  0  0  0999 V2000
   60.7800   32.1490   46.6060 N   0  0  0  0  0  0  0  0  0  0  0  0
   61.0970   33.5310   46.7510 C   0  0  0  0  0  0  0  0  0  0  0  0
   62.3030   33.8970   46.7350 O   0  0  0  0  0  0  0  0  0  0  0  0
   59.9810   34.5430   46.8750 C   0  0  0  0  0  0  0  0  0  0  0  0
   58.7900   33.9480   47.6480 C   0  0  0  0  0  0  0  0  0  0  0  0
   58.0070   32.8940   46.8330 C   0  0  0  0  0  0  0  0  0  0  0  0
   58.2660   32.9990   45.3790 N   0  0  0  0  0  0  0  0  0  0  0  0
   57.3750   32.1390   44.5700 C   0  0  0  0  0  0  0  0  0  0  0  0
   57.3760   30.6930   45.0010 C   0  0  0  0  0  0  0  0  0  0  0  0
   56.3210   30.0140   44.8840 O   0  0  0  0  0  0  0  0  0  0  0  0
   58.5600   30.1140   45.5740 N   0  0  0  0  0  0  0  0  0  0  0  0
   58.6950   28.7230   45.9080 C   0  0  0  0  0  0  0  0  0  0  0  0
   59.9640   28.2070   46.2040 C   0  0  0  0  0  0  0  0  0  0  0  0
   60.1240   26.8550   46.5180 C   0  0  0  0  0  0  0  0  0  0  0  0
   59.0180   26.0010   46.5230 C   0  0  0  0  0  0  0  0  0  0  0  0
   57.7470   26.4950   46.2000 C   0  0  0  0  0  0  0  0  0  0  0  0
   56.3530   25.4210   46.1940 S   0  0  0  0  0  0  0  0  0  0  0  0
   54.9140   26.3530   45.9750 N   0  0  0  0  0  0  0  0  0  0  0  0
   56.4830   24.4250   45.0770 O   0  0  0  0  0  0  0  0  0  0  0  0
   56.2740   24.6770   47.4980 O   0  0  0  0  0  0  0  0  0  0  0  0
   57.5880   27.8540   45.8920 C   0  0  0  0  0  0  0  0  0  0  0  0
   58.3000   34.4000   44.9240 C   0  0  0  0  0  0  0  0  0  0  0  0
   59.5390   35.1100   45.5010 C   0  0  0  0  0  0  0  0  0  0  0  0
   60.0110   31.8400   45.9710 H   0  0  0  0  0  0  0  0  0  0  0  0
   60.3759   35.3940   47.4494 H   0  0  0  0  0  0  0  0  0  0  0  0
   59.1694   33.4717   48.5641 H   0  0  0  0  0  0  0  0  0  0  0  0
   58.0972   34.7729   47.8707 H   0  0  0  0  0  0  0  0  0  0  0  0
   58.3049   31.8913   47.1735 H   0  0  0  0  0  0  0  0  0  0  0  0
   56.9340   33.0726   46.9965 H   0  0  0  0  0  0  0  0  0  0  0  0
   56.3487   32.5259   44.6533 H   0  0  0  0  0  0  0  0  0  0  0  0
   57.7505   32.1676   43.5365 H   0  0  0  0  0  0  0  0  0  0  0  0
   59.3340   30.7600   45.8530 H   0  0  0  0  0  0  0  0  0  0  0  0
   60.8406   28.8714   46.1890 H   0  0  0  0  0  0  0  0  0  0  0  0
   61.1222   26.4622   46.7617 H   0  0  0  0  0  0  0  0  0  0  0  0
   59.1452   24.9393   46.7809 H   0  0  0  0  0  0  0  0  0  0  0  0
   55.1220   27.0650   45.2390 H   0  0  0  0  0  0  0  0  0  0  0  0
   56.5915   28.2433   45.6362 H   0  0  0  0  0  0  0  0  0  0  0  0
   58.3441   34.4254   43.8252 H   0  0  0  0  0  0  0  0  0  0  0  0
   57.3929   34.9155   45.2724 H   0  0  0  0  0  0  0  0  0  0  0  0
   60.3710   34.9945   44.7907 H   0  0  0  0  0  0  0  0  0  0  0  0
   59.2705   36.1658   45.6532 H   0  0  0  0  0  0  0  0  0  0  0  0
  1  2  1  0
  2  3  2  0
  2  4  1  0
  4  5  1  0
  5  6  1  0
  6  7  1  0
  7  8  1  0
  8  9  1  0
  9 10  2  0
  9 11  1  0
 11 12  1  0
 12 13  2  0
 13 14  1  0
 14 15  2  0
 15 16  1  0
 16 17  1  0
 17 18  1  0
 17 19  2  0
 17 20  2  0
 16 21  2  0
  7 22  1  0
 22 23  1  0
 23  4  1  0
 21 12  1  0
  1 24  1  0
  4 25  1  0
  5 26  1  0
  5 27  1  0
  6 28  1  0
  6 29  1  0
  8 30  1  0
  8 31  1  0
 11 32  1  0
 13 33  1  0
 14 34  1  0
 15 35  1  0
 18 36  1  0
 21 37  1  0
 22 38  1  0
 22 39  1  0
 23 40  1  0
 23 41  1  0
M  CHG  2   1  -1  18  -1
M  END
>  <UniqueID>  (40) 
39

>  <SMILES>  (40) 
[NH-]C(=O)C1CCN(CC(=O)Nc2cccc(S([NH-])(=O)=O)c2)CC1

>  <Energy>  (40) 
51.041904791004946

>  <Genealogy>  (40) 
[NH-]C(=O)C1CCN(CC(=O)Nc2cccc(S([NH-])(=O)=O)c2)CC1 (protonated)
[NH-]C(=O)C1CCN(CC(=O)Nc2cccc(S([NH-])(=O)=O)c2)CC1 (3D coordinates assigned)
[NH-]C(=O)C1CCN(CC(=O)Nc2cccc(S([NH-])(=O)=O)c2)CC1 (nonaromatic ring conformer: 51.041904791004946 kcal/mol)

>  <smiles>  (40) 
NC(=O)C1CCN(CC(=O)Nc2cccc(S(N)(=O)=O)c2)CC1

>  <score_type>  (40) 
oracle

>  <origin>  (40) 
adg

>  <m_score__min__energy>  (40) 
-12

>  <m_primary>  (40) 
energy

$$$$
40:0
     RDKit          3D

 63 66  0  0  0  0  0  0  0  0999 V2000
   55.8770   29.0900   51.6250 H   0  0  0  0  0  0  0  0  0  0  0  0
   56.6370   29.3180   52.2590 O   0  0  0  0  0  0  0  0  0  0  0  0
   57.5740   30.3010   51.9460 C   0  0  0  0  0  0  0  0  0  0  0  0
   57.1920   31.4570   51.2500 C   0  0  0  0  0  0  0  0  0  0  0  0
   56.1435   31.5941   50.9468 H   0  0  0  0  0  0  0  0  0  0  0  0
   58.1410   32.4350   50.9410 C   0  0  0  0  0  0  0  0  0  0  0  0
   57.8368   33.3426   50.3991 H   0  0  0  0  0  0  0  0  0  0  0  0
   59.4840   32.2620   51.3210 C   0  0  0  0  0  0  0  0  0  0  0  0
   60.4920   33.2150   50.9650 N   0  0  0  0  0  0  0  0  0  0  0  0
   61.6840   32.8640   50.6930 N   0  0  0  0  0  0  0  0  0  0  0  0
   62.2010   32.8610   49.3580 C   0  0  0  0  0  0  0  0  0  0  0  0
   62.9990   33.9170   48.8790 C   0  0  0  0  0  0  0  0  0  0  0  0
   63.1738   34.8011   49.5097 H   0  0  0  0  0  0  0  0  0  0  0  0
   63.5690   33.8470   47.6080 C   0  0  0  0  0  0  0  0  0  0  0  0
   64.1879   34.6769   47.2362 H   0  0  0  0  0  0  0  0  0  0  0  0
   63.3540   32.7240   46.8080 C   0  0  0  0  0  0  0  0  0  0  0  0
   63.8126   32.6660   45.8098 H   0  0  0  0  0  0  0  0  0  0  0  0
   62.5580   31.6730   47.2710 C   0  0  0  0  0  0  0  0  0  0  0  0
   62.3997   30.7868   46.6389 H   0  0  0  0  0  0  0  0  0  0  0  0
   61.9570   31.7430   48.5440 C   0  0  0  0  0  0  0  0  0  0  0  0
   61.0920   30.7490   49.0320 O   0  0  0  0  0  0  0  0  0  0  0  0
   59.9270   30.2490   48.3760 C   0  0  0  0  0  0  0  0  0  0  0  0
   60.0288   30.4055   47.2919 H   0  0  0  0  0  0  0  0  0  0  0  0
   59.0482   30.7874   48.7606 H   0  0  0  0  0  0  0  0  0  0  0  0
   59.7490   28.7870   48.6460 C   0  0  0  0  0  0  0  0  0  0  0  0
   60.7030   28.1270   49.1400 O   0  0  0  0  0  0  0  0  0  0  0  0
   58.5270   28.1270   48.2870 N   0  0  0  0  0  0  0  0  0  0  0  0
   58.3470   27.3250   47.1100 C   0  0  0  0  0  0  0  0  0  0  0  0
   58.1880   25.9300   47.2340 C   0  0  0  0  0  0  0  0  0  0  0  0
   58.1551   25.4735   48.2343 H   0  0  0  0  0  0  0  0  0  0  0  0
   58.0720   25.1220   46.1040 C   0  0  0  0  0  0  0  0  0  0  0  0
   57.9433   24.0353   46.2159 H   0  0  0  0  0  0  0  0  0  0  0  0
   58.1190   25.6900   44.8340 C   0  0  0  0  0  0  0  0  0  0  0  0
   58.0305   25.0508   43.9432 H   0  0  0  0  0  0  0  0  0  0  0  0
   58.2780   27.0670   44.6890 C   0  0  0  0  0  0  0  0  0  0  0  0
   58.3097   27.5052   43.6805 H   0  0  0  0  0  0  0  0  0  0  0  0
   58.3990   27.9080   45.8160 C   0  0  0  0  0  0  0  0  0  0  0  0
   58.5450   29.3730   45.5950 C   0  0  0  0  0  0  0  0  0  0  0  0
   59.6490   29.8310   45.1900 O   0  0  0  0  0  0  0  0  0  0  0  0
   57.4510   30.2730   45.8360 N   0  0  0  0  0  0  0  0  0  0  0  0
   56.7060   31.0280   44.8220 C   0  0  2  0  0  0  0  0  0  0  0  0
   55.9299   31.6127   45.3375 H   0  0  0  0  0  0  0  0  0  0  0  0
   55.9520   30.1190   43.8820 C   0  0  0  0  0  0  0  0  0  0  0  0
   56.1350   30.1880   42.6370 O   0  0  0  0  0  0  0  0  0  0  0  0
   54.9480   29.2910   44.3700 O   0  0  0  0  0  0  0  0  0  0  0  0
   57.6030   32.0730   44.1120 C   0  0  0  0  0  0  0  0  0  0  0  0
   58.3864   31.5338   43.5593 H   0  0  0  0  0  0  0  0  0  0  0  0
   56.9407   32.6601   43.4589 H   0  0  0  0  0  0  0  0  0  0  0  0
   58.2740   33.0590   45.0390 C   0  0  0  0  0  0  0  0  0  0  0  0
   59.0070   34.1370   44.5120 C   0  0  0  0  0  0  0  0  0  0  0  0
   59.0993   34.2554   43.4223 H   0  0  0  0  0  0  0  0  0  0  0  0
   59.6190   35.0590   45.3660 C   0  0  0  0  0  0  0  0  0  0  0  0
   60.1915   35.9000   44.9476 H   0  0  0  0  0  0  0  0  0  0  0  0
   59.5040   34.9130   46.7510 C   0  0  0  0  0  0  0  0  0  0  0  0
   59.9828   35.6415   47.4219 H   0  0  0  0  0  0  0  0  0  0  0  0
   58.7810   33.8420   47.2850 C   0  0  0  0  0  0  0  0  0  0  0  0
   58.6922   33.7281   48.3755 H   0  0  0  0  0  0  0  0  0  0  0  0
   58.1710   32.9160   46.4340 C   0  0  0  0  0  0  0  0  0  0  0  0
   57.6077   32.0714   46.8576 H   0  0  0  0  0  0  0  0  0  0  0  0
   59.8600   31.1050   52.0140 C   0  0  0  0  0  0  0  0  0  0  0  0
   60.9088   30.9631   52.3137 H   0  0  0  0  0  0  0  0  0  0  0  0
   58.9090   30.1290   52.3270 C   0  0  0  0  0  0  0  0  0  0  0  0
   59.2113   29.2238   52.8741 H   0  0  0  0  0  0  0  0  0  0  0  0
  1  2  1  0
  2  3  1  0
  3  4  2  0
  4  5  1  0
  4  6  1  0
  6  7  1  0
  6  8  2  0
  8  9  1  0
  9 10  2  0
 10 11  1  0
 11 12  2  0
 12 13  1  0
 12 14  1  0
 14 15  1  0
 14 16  2  0
 16 17  1  0
 16 18  1  0
 18 19  1  0
 18 20  2  0
 20 21  1  0
 21 22  1  0
 22 23  1  0
 22 24  1  0
 22 25  1  0
 25 26  2  0
 25 27  1  0
 27 28  1  0
 28 29  2  0
 29 30  1  0
 29 31  1  0
 31 32  1  0
 31 33  2  0
 33 34  1  0
 33 35  1  0
 35 36  1  0
 35 37  2  0
 37 38  1  0
 38 39  2  0
 38 40  1  0
 40 41  1  0
 41 42  1  1
 41 43  1  0
 43 44  2  0
 43 45  1  0
 41 46  1  0
 46 47  1  0
 46 48  1  0
 46 49  1  0
 49 50  2  0
 50 51  1  0
 50 52  1  0
 52 53  1  0
 52 54  2  0
 54 55  1  0
 54 56  1  0
 56 57  1  0
 56 58  2  0
 58 59  1  0
  8 60  1  0
 60 61  1  0
 60 62  2  0
 62 63  1  0
 62  3  1  0
 20 11  1  0
 37 28  1  0
 58 49  1  0
M  CHG  3  27  -1  40  -1  45  -1
M  END
>  <UniqueID>  (41) 
40

>  <SMILES>  (41) 
O=C(COc1ccccc1/N=N/c1ccc(O)cc1)[N-]c1ccccc1C(=O)[N-][C@@H](Cc1ccccc1)C(=O)[O-]

>  <Energy>  (41) 
72.22861912214883

>  <Genealogy>  (41) 
O=C(COc1ccccc1N=Nc1ccc(O)cc1)[N-]c1ccccc1C(=O)[N-]C(Cc1ccccc1)C(=O)[O-] (protonated)
O=C(COc1ccccc1N=Nc1ccc(O)cc1)[N-]c1ccccc1C(=O)[N-][C@@H](Cc1ccccc1)C(=O)[O-] (chirality)
O=C(COc1ccccc1/N=N/c1ccc(O)cc1)[N-]c1ccccc1C(=O)[N-][C@@H](Cc1ccccc1)C(=O)[O-] (cis-trans isomerization)
O=C(COc1ccccc1/N=N/c1ccc(O)cc1)[N-]c1ccccc1C(=O)[N-][C@@H](Cc1ccccc1)C(=O)[O-] (3D coordinates assigned)
O=C(COc1ccccc1/N=N/c1ccc(O)cc1)[N-]c1ccccc1C(=O)[N-][C@@H](Cc1ccccc1)C(=O)[O-] (optimized conformer: 72.22861912214883 kcal/mol)

>  <smiles>  (41) 
O=C(COc1ccccc1N=Nc1ccc(O)cc1)Nc1ccccc1C(=O)NC(Cc1ccccc1)C(=O)O

>  <score_type>  (41) 
oracle

>  <origin>  (41) 
adg

>  <m_score__min__energy>  (41) 
-16.859999999999999

>  <m_primary>  (41) 
energy

$$$$
41:0
     RDKit          3D

 31 33  0  0  1  0  0  0  0  0999 V2000
   57.1240   33.8210   46.3980 O   0  0  0  0  0  0  0  0  0  0  0  0
   58.5750   33.4810   46.1100 S   0  0  0  0  0  0  0  0  0  0  0  0
   59.1010   34.5540   45.2170 O   0  0  0  0  0  0  0  0  0  0  0  0
   58.7120   31.9050   45.4460 N   0  0  0  0  0  0  0  0  0  0  0  0
   57.9000   31.4120   44.5970 C   0  0  0  0  0  0  0  0  0  0  0  0
   57.9700   31.8080   43.2760 C   0  0  0  0  0  0  0  0  0  0  0  0
   57.0640   31.2380   42.4090 C   0  0  0  0  0  0  0  0  0  0  0  0
   56.1600   30.3300   42.8780 N   0  0  0  0  0  0  0  0  0  0  0  0
   56.1280   29.9730   44.1760 C   0  0  0  0  0  0  0  0  0  0  0  0
   57.0000   30.5120   45.0470 N   0  0  0  0  0  0  0  0  0  0  0  0
   59.5130   33.5070   47.5950 C   0  0  0  0  0  0  0  0  0  0  0  0
   58.9280   33.4270   48.8420 C   0  0  0  0  0  0  0  0  0  0  0  0
   59.6240   33.4440   50.0200 C   0  0  0  0  0  0  0  0  0  0  0  0
   61.0090   33.5490   49.9610 C   0  0  0  0  0  0  0  0  0  0  0  0
   61.6300   33.6320   48.7260 C   0  0  0  0  0  0  0  0  0  0  0  0
   63.0110   33.7340   48.7490 C   0  0  0  0  0  0  0  0  0  0  0  0
   63.6910   33.8200   47.5560 C   0  0  0  0  0  0  0  0  0  0  0  0
   62.9630   33.7990   46.3860 C   0  0  0  0  0  0  0  0  0  0  0  0
   61.5770   33.6970   46.3660 C   0  0  0  0  0  0  0  0  0  0  0  0
   60.9030   33.6120   47.5680 C   0  0  0  0  0  0  0  0  0  0  0  0
   58.7131   32.5429   42.9328 H   0  0  0  0  0  0  0  0  0  0  0  0
   57.0693   31.5134   41.3441 H   0  0  0  0  0  0  0  0  0  0  0  0
   55.4560   29.8790   42.2340 H   0  0  0  0  0  0  0  0  0  0  0  0
   55.3869   29.2388   44.5249 H   0  0  0  0  0  0  0  0  0  0  0  0
   57.8323   33.3443   48.8924 H   0  0  0  0  0  0  0  0  0  0  0  0
   59.1025   33.3765   50.9862 H   0  0  0  0  0  0  0  0  0  0  0  0
   61.6051   33.5660   50.8853 H   0  0  0  0  0  0  0  0  0  0  0  0
   63.5551   33.7461   49.7050 H   0  0  0  0  0  0  0  0  0  0  0  0
   64.7877   33.9034   47.5366 H   0  0  0  0  0  0  0  0  0  0  0  0
   63.5009   33.8657   45.4288 H   0  0  0  0  0  0  0  0  0  0  0  0
   61.0286   33.6843   45.4126 H   0  0  0  0  0  0  0  0  0  0  0  0
  1  2  2  0
  2  3  2  0
  2  4  1  0
  4  5  2  0
  5  6  1  0
  6  7  2  0
  7  8  1  0
  8  9  1  0
  9 10  2  0
  2 11  1  0
 11 12  2  0
 12 13  1  0
 13 14  2  0
 14 15  1  0
 15 16  2  0
 16 17  1  0
 17 18  2  0
 18 19  1  0
 19 20  2  0
 10  5  1  0
 20 11  1  0
 20 15  1  0
  6 21  1  0
  7 22  1  0
  8 23  1  0
  9 24  1  0
 12 25  1  0
 13 26  1  0
 14 27  1  0
 16 28  1  0
 17 29  1  0
 18 30  1  0
 19 31  1  0
M  END
>  <smiles>  (42) 
O=S(=O)(N=c1cc[nH]cn1)c1cccc2ccccc12

>  <score_type>  (42) 
oracle

>  <origin>  (42) 
adg

>  <m_score__min__energy>  (42) 
-8.0299999999999994

>  <m_primary>  (42) 
energy

$$$$
42:0
     RDKit          3D

 53 55  0  0  0  0  0  0  0  0999 V2000
   55.1430   26.6900   45.9970 O   0  0  0  0  0  0  0  0  0  0  0  0
   56.3000   26.2150   46.1380 C   0  0  0  0  0  0  0  0  0  0  0  0
   56.4400   24.8250   46.4530 N   0  0  0  0  0  0  0  0  0  0  0  0
   56.8670   23.8100   45.5360 C   0  0  0  0  0  0  0  0  0  0  0  0
   58.2240   23.4600   45.5050 C   0  0  0  0  0  0  0  0  0  0  0  0
   58.6800   22.4780   44.6220 C   0  0  0  0  0  0  0  0  0  0  0  0
   57.7870   21.8510   43.7500 C   0  0  0  0  0  0  0  0  0  0  0  0
   56.4390   22.2190   43.7470 C   0  0  0  0  0  0  0  0  0  0  0  0
   55.9720   23.2030   44.6270 C   0  0  0  0  0  0  0  0  0  0  0  0
   54.2870   23.6980   44.5140 Cl  0  0  0  0  0  0  0  0  0  0  0  0
   57.4580   27.0560   45.9790 N   0  0  0  0  0  0  0  0  0  0  0  0
   57.3950   28.4430   45.6080 C   0  0  0  0  0  0  0  0  0  0  0  0
   58.1360   29.3830   46.3360 C   0  0  0  0  0  0  0  0  0  0  0  0
   58.1230   30.7320   45.9730 C   0  0  0  0  0  0  0  0  0  0  0  0
   57.3790   31.1590   44.8640 C   0  0  0  0  0  0  0  0  0  0  0  0
   57.4220   32.6030   44.4440 C   0  0  0  0  0  0  0  0  0  0  0  0
   58.0870   33.4100   45.4760 N   0  0  0  0  0  0  0  0  0  0  0  0
   59.1010   34.2970   44.8900 C   0  0  0  0  0  0  0  0  0  0  0  0
   59.8230   35.0840   45.9850 C   0  0  0  0  0  0  0  0  0  0  0  0
   59.1050   34.9630   47.2650 N   0  0  0  0  0  0  0  0  0  0  0  0
   59.4880   33.7460   47.9910 C   0  0  0  0  0  0  0  0  0  0  0  0
   60.9870   33.6240   48.0150 C   0  0  0  0  0  0  0  0  0  0  0  0
   61.7320   34.2640   49.0190 C   0  0  0  0  0  0  0  0  0  0  0  0
   63.1220   34.1210   49.0670 C   0  0  0  0  0  0  0  0  0  0  0  0
   63.7770   33.3300   48.1180 C   0  0  0  0  0  0  0  0  0  0  0  0
   63.0420   32.6770   47.1250 C   0  0  0  0  0  0  0  0  0  0  0  0
   61.6500   32.8170   47.0760 C   0  0  0  0  0  0  0  0  0  0  0  0
   56.6500   30.2190   44.1210 C   0  0  0  0  0  0  0  0  0  0  0  0
   56.6600   28.8690   44.4880 C   0  0  0  0  0  0  0  0  0  0  0  0
   58.9337   23.9612   46.1796 H   0  0  0  0  0  0  0  0  0  0  0  0
   59.7438   22.1982   44.6135 H   0  0  0  0  0  0  0  0  0  0  0  0
   58.1449   21.0676   43.0657 H   0  0  0  0  0  0  0  0  0  0  0  0
   55.7409   21.7330   43.0495 H   0  0  0  0  0  0  0  0  0  0  0  0
   58.3950   26.6720   46.2290 H   0  0  0  0  0  0  0  0  0  0  0  0
   58.7328   29.0563   47.2003 H   0  0  0  0  0  0  0  0  0  0  0  0
   58.6991   31.4625   46.5599 H   0  0  0  0  0  0  0  0  0  0  0  0
   57.9785   32.6906   43.4992 H   0  0  0  0  0  0  0  0  0  0  0  0
   56.3936   32.9690   44.3083 H   0  0  0  0  0  0  0  0  0  0  0  0
   57.3610   34.0130   45.9290 H   0  0  0  0  0  0  0  0  0  0  0  0
   59.8340   33.6923   44.3359 H   0  0  0  0  0  0  0  0  0  0  0  0
   58.6036   35.0061   44.2119 H   0  0  0  0  0  0  0  0  0  0  0  0
   60.8426   34.6883   46.1029 H   0  0  0  0  0  0  0  0  0  0  0  0
   59.8593   36.1447   45.6960 H   0  0  0  0  0  0  0  0  0  0  0  0
   58.0800   34.8940   47.0560 H   0  0  0  0  0  0  0  0  0  0  0  0
   59.1085   33.7999   49.0220 H   0  0  0  0  0  0  0  0  0  0  0  0
   59.0579   32.8685   47.4860 H   0  0  0  0  0  0  0  0  0  0  0  0
   61.2192   34.8810   49.7715 H   0  0  0  0  0  0  0  0  0  0  0  0
   63.7005   34.6309   49.8515 H   0  0  0  0  0  0  0  0  0  0  0  0
   64.8711   33.2218   48.1531 H   0  0  0  0  0  0  0  0  0  0  0  0
   63.5578   32.0522   46.3810 H   0  0  0  0  0  0  0  0  0  0  0  0
   61.0735   32.2931   46.2994 H   0  0  0  0  0  0  0  0  0  0  0  0
   56.0680   30.5445   43.2462 H   0  0  0  0  0  0  0  0  0  0  0  0
   56.0898   28.1371   43.8971 H   0  0  0  0  0  0  0  0  0  0  0  0
  1  2  2  0
  2  3  1  0
  3  4  1  0
  4  5  2  0
  5  6  1  0
  6  7  2  0
  7  8  1  0
  8  9  2  0
  9 10  1  0
  2 11  1  0
 11 12  1  0
 12 13  2  0
 13 14  1  0
 14 15  2  0
 15 16  1  0
 16 17  1  0
 17 18  1  0
 18 19  1  0
 19 20  1  0
 20 21  1  0
 21 22  1  0
 22 23  2  0
 23 24  1  0
 24 25  2  0
 25 26  1  0
 26 27  2  0
 15 28  1  0
 28 29  2  0
  9  4  1  0
 29 12  1  0
 27 22  1  0
  5 30  1  0
  6 31  1  0
  7 32  1  0
  8 33  1  0
 11 34  1  0
 13 35  1  0
 14 36  1  0
 16 37  1  0
 16 38  1  0
 17 39  1  0
 18 40  1  0
 18 41  1  0
 19 42  1  0
 19 43  1  0
 20 44  1  0
 21 45  1  0
 21 46  1  0
 23 47  1  0
 24 48  1  0
 25 49  1  0
 26 50  1  0
 27 51  1  0
 28 52  1  0
 29 53  1  0
M  CHG  1   3  -1
M  END
>  <UniqueID>  (43) 
41

>  <SMILES>  (43) 
O=C([N-]c1ccccc1Cl)Nc1ccc(CNCCNCc2ccccc2)cc1

>  <Energy>  (43) 
60.396968991060426

>  <Genealogy>  (43) 
O=C([N-]c1ccccc1Cl)Nc1ccc(CNCCNCc2ccccc2)cc1 (protonated)
O=C([N-]c1ccccc1Cl)Nc1ccc(CNCCNCc2ccccc2)cc1 (3D coordinates assigned)
O=C([N-]c1ccccc1Cl)Nc1ccc(CNCCNCc2ccccc2)cc1 (optimized conformer: 60.396968991060426 kcal/mol)

>  <smiles>  (43) 
O=C(Nc1ccc(CNCCNCc2ccccc2)cc1)Nc1ccccc1Cl

>  <score_type>  (43) 
oracle

>  <origin>  (43) 
adg

>  <m_score__min__energy>  (43) 
-10.52

>  <m_primary>  (43) 
energy

$$$$
43:0
     RDKit          3D

 77 81  0  0  0  0  0  0  0  0999 V2000
   63.0950   31.6930   47.7570 C   0  0  0  0  0  0  0  0  0  0  0  0
   61.8800   30.8760   48.1090 C   0  0  0  0  0  0  0  0  0  0  0  0
   61.1640   30.2720   47.0620 C   0  0  0  0  0  0  0  0  0  0  0  0
   60.0140   29.5210   47.3140 C   0  0  0  0  0  0  0  0  0  0  0  0
   59.3280   28.9520   46.2310 O   0  0  0  0  0  0  0  0  0  0  0  0
   58.3030   29.5670   45.4930 C   0  0  0  0  0  0  0  0  0  0  0  0
   58.4890   30.8550   44.9580 C   0  0  0  0  0  0  0  0  0  0  0  0
   57.4700   31.4880   44.2410 C   0  0  0  0  0  0  0  0  0  0  0  0
   57.6850   32.8640   43.6850 C   0  0  0  0  0  0  0  0  0  0  0  0
   57.7160   34.0610   45.0090 Cl  0  0  0  0  0  0  0  0  0  0  0  0
   56.2380   30.8470   44.0880 C   0  0  0  0  0  0  0  0  0  0  0  0
   56.0270   29.5740   44.6190 C   0  0  0  0  0  0  0  0  0  0  0  0
   54.7770   28.9870   44.4400 O   0  0  0  0  0  0  0  0  0  0  0  0
   57.0540   28.9110   45.3310 C   0  0  0  0  0  0  0  0  0  0  0  0
   56.8300   27.5470   45.8890 C   0  0  0  0  0  0  0  0  0  0  0  0
   55.6650   27.0860   46.0200 O   0  0  0  0  0  0  0  0  0  0  0  0
   57.8990   26.7440   46.2690 O   0  0  0  0  0  0  0  0  0  0  0  0
   59.5480   29.3980   48.6290 C   0  0  0  0  0  0  0  0  0  0  0  0
   60.2540   29.9810   49.6830 C   0  0  0  0  0  0  0  0  0  0  0  0
   61.4500   30.6830   49.4510 C   0  0  0  0  0  0  0  0  0  0  0  0
   62.1440   31.3260   50.6350 C   0  0  0  0  0  0  0  0  0  0  0  0
   62.8370   30.3560   51.4920 N   0  0  0  0  0  0  0  0  0  0  0  0
   63.9470   29.7570   51.0860 N   0  0  0  0  0  0  0  0  0  0  0  0
   64.5030   29.1280   52.1350 C   0  0  0  0  0  0  0  0  0  0  0  0
   65.7860   28.4080   52.0500 C   0  0  0  0  0  0  0  0  0  0  0  0
   66.9870   29.1300   51.9790 C   0  0  0  0  0  0  0  0  0  0  0  0
   68.2100   28.4530   51.8980 C   0  0  0  0  0  0  0  0  0  0  0  0
   68.2380   27.0560   51.8730 C   0  0  0  0  0  0  0  0  0  0  0  0
   67.0440   26.3320   51.9230 C   0  0  0  0  0  0  0  0  0  0  0  0
   65.8210   27.0030   52.0070 C   0  0  0  0  0  0  0  0  0  0  0  0
   63.7530   29.3780   53.2750 C   0  0  0  0  0  0  0  0  0  0  0  0
   64.2150   29.1900   54.7010 C   0  0  0  0  0  0  0  0  0  0  0  0
   64.3860   27.7310   55.0130 C   0  0  0  0  0  0  0  0  0  0  0  0
   65.6680   27.2070   55.3650 N   0  0  0  0  0  0  0  0  0  0  0  0
   63.3930   26.9580   54.9530 O   0  0  0  0  0  0  0  0  0  0  0  0
   62.6720   30.1380   52.8260 C   0  0  0  0  0  0  0  0  0  0  0  0
   61.6000   30.7500   53.7090 C   0  0  0  0  0  0  0  0  0  0  0  0
   60.2980   31.1990   52.9840 C   0  0  0  0  0  0  0  0  0  0  0  0
   59.9270   32.6930   53.1820 C   0  0  0  0  0  0  0  0  0  0  0  0
   58.4770   33.0350   52.7800 C   0  0  0  0  0  0  0  0  0  0  0  0
   57.8800   32.0090   51.8130 C   0  0  0  0  0  0  0  0  0  0  0  0
   57.8660   30.6040   52.4330 C   0  0  0  0  0  0  0  0  0  0  0  0
   59.1000   30.2930   53.3080 C   0  0  0  0  0  0  0  0  0  0  0  0
   63.5920   32.0272   48.6797 H   0  0  0  0  0  0  0  0  0  0  0  0
   63.7914   31.0790   47.1671 H   0  0  0  0  0  0  0  0  0  0  0  0
   62.7891   32.5696   47.1671 H   0  0  0  0  0  0  0  0  0  0  0  0
   61.5151   30.3927   46.0265 H   0  0  0  0  0  0  0  0  0  0  0  0
   59.4493   31.3706   45.1061 H   0  0  0  0  0  0  0  0  0  0  0  0
   58.6431   32.8930   43.1455 H   0  0  0  0  0  0  0  0  0  0  0  0
   56.8616   33.1079   42.9976 H   0  0  0  0  0  0  0  0  0  0  0  0
   55.4260   31.3511   43.5433 H   0  0  0  0  0  0  0  0  0  0  0  0
   58.6221   28.8399   48.8322 H   0  0  0  0  0  0  0  0  0  0  0  0
   59.8691   29.8899   50.7094 H   0  0  0  0  0  0  0  0  0  0  0  0
   62.8815   32.0498   50.2579 H   0  0  0  0  0  0  0  0  0  0  0  0
   61.3685   31.8097   51.2471 H   0  0  0  0  0  0  0  0  0  0  0  0
   66.9677   30.2298   51.9870 H   0  0  0  0  0  0  0  0  0  0  0  0
   69.1505   29.0218   51.8540 H   0  0  0  0  0  0  0  0  0  0  0  0
   69.2002   26.5263   51.8140 H   0  0  0  0  0  0  0  0  0  0  0  0
   67.0667   25.2326   51.8962 H   0  0  0  0  0  0  0  0  0  0  0  0
   64.8826   26.4301   52.0396 H   0  0  0  0  0  0  0  0  0  0  0  0
   65.1772   29.7047   54.8402 H   0  0  0  0  0  0  0  0  0  0  0  0
   63.4570   29.6110   55.3779 H   0  0  0  0  0  0  0  0  0  0  0  0
   66.5100   27.8250   55.3990 H   0  0  0  0  0  0  0  0  0  0  0  0
   65.7820   26.1920   55.5850 H   0  0  0  0  0  0  0  0  0  0  0  0
   61.3229   30.0045   54.4689 H   0  0  0  0  0  0  0  0  0  0  0  0
   62.0427   31.6682   54.1224 H   0  0  0  0  0  0  0  0  0  0  0  0
   60.5397   31.0869   51.9168 H   0  0  0  0  0  0  0  0  0  0  0  0
   60.0607   32.9454   54.2443 H   0  0  0  0  0  0  0  0  0  0  0  0
   60.5873   33.2763   52.5234 H   0  0  0  0  0  0  0  0  0  0  0  0
   57.8571   33.0664   53.6881 H   0  0  0  0  0  0  0  0  0  0  0  0
   58.4926   34.0082   52.2675 H   0  0  0  0  0  0  0  0  0  0  0  0
   56.8487   32.3037   51.5689 H   0  0  0  0  0  0  0  0  0  0  0  0
   58.5011   31.9831   50.9055 H   0  0  0  0  0  0  0  0  0  0  0  0
   56.9658   30.5104   53.0582 H   0  0  0  0  0  0  0  0  0  0  0  0
   57.8777   29.8871   51.5988 H   0  0  0  0  0  0  0  0  0  0  0  0
   58.8273   30.4339   54.3643 H   0  0  0  0  0  0  0  0  0  0  0  0
   59.4017   29.2555   53.1016 H   0  0  0  0  0  0  0  0  0  0  0  0
  1  2  1  0
  2  3  2  0
  3  4  1  0
  4  5  1  0
  5  6  1  0
  6  7  2  0
  7  8  1  0
  8  9  1  0
  9 10  1  0
  8 11  2  0
 11 12  1  0
 12 13  1  0
 12 14  2  0
 14 15  1  0
 15 16  2  0
 15 17  1  0
  4 18  2  0
 18 19  1  0
 19 20  2  0
 20 21  1  0
 21 22  1  0
 22 23  1  0
 23 24  2  0
 24 25  1  0
 25 26  2  0
 26 27  1  0
 27 28  2  0
 28 29  1  0
 29 30  2  0
 24 31  1  0
 31 32  1  0
 32 33  1  0
 33 34  1  0
 33 35  2  0
 31 36  2  0
 36 37  1  0
 37 38  1  0
 38 39  1  0
 39 40  1  0
 40 41  1  0
 41 42  1  0
 42 43  1  0
 20  2  1  0
 36 22  1  0
 43 38  1  0
 14  6  1  0
 30 25  1  0
  1 44  1  0
  1 45  1  0
  1 46  1  0
  3 47  1  0
  7 48  1  0
  9 49  1  0
  9 50  1  0
 11 51  1  0
 18 52  1  0
 19 53  1  0
 21 54  1  0
 21 55  1  0
 26 56  1  0
 27 57  1  0
 28 58  1  0
 29 59  1  0
 30 60  1  0
 32 61  1  0
 32 62  1  0
 34 63  1  0
 34 64  1  0
 37 65  1  0
 37 66  1  0
 38 67  1  0
 39 68  1  0
 39 69  1  0
 40 70  1  0
 40 71  1  0
 41 72  1  0
 41 73  1  0
 42 74  1  0
 42 75  1  0
 43 76  1  0
 43 77  1  0
M  CHG  2  13  -1  17  -1
M  END
>  <UniqueID>  (44) 
42

>  <SMILES>  (44) 
Cc1cc(Oc2cc(CCl)cc([O-])c2C(=O)[O-])ccc1Cn1nc(-c2ccccc2)c(CC(N)=O)c1CC1CCCCC1

>  <Energy>  (44) 
127.02027033917547

>  <Genealogy>  (44) 
Cc1cc(Oc2cc(CCl)cc([O-])c2C(=O)[O-])ccc1Cn1nc(-c2ccccc2)c(CC(N)=O)c1CC1CCCCC1 (protonated)
Cc1cc(Oc2cc(CCl)cc([O-])c2C(=O)[O-])ccc1Cn1nc(-c2ccccc2)c(CC(N)=O)c1CC1CCCCC1 (3D coordinates assigned)
Cc1cc(Oc2cc(CCl)cc([O-])c2C(=O)[O-])ccc1Cn1nc(-c2ccccc2)c(CC(N)=O)c1CC1CCCCC1 (nonaromatic ring conformer: 127.02027033917547 kcal/mol)

>  <smiles>  (44) 
Cc1cc(Oc2cc(CCl)cc(O)c2C(=O)O)ccc1Cn1nc(-c2ccccc2)c(CC(N)=O)c1CC1CCCCC1

>  <score_type>  (44) 
oracle

>  <origin>  (44) 
adg

>  <m_score__min__energy>  (44) 
-16.109999999999999

>  <m_primary>  (44) 
energy

$$$$
44:0
     RDKit          3D

 37 39  0  0  0  0  0  0  0  0999 V2000
   64.1170   33.6600   51.4370 N   0  0  0  0  0  0  0  0  0  0  0  0
   64.3340   32.6370   50.0610 S   0  0  0  0  0  0  0  0  0  0  0  0
   65.5820   33.0400   49.3280 O   0  0  0  0  0  0  0  0  0  0  0  0
   64.4800   31.2120   50.5160 O   0  0  0  0  0  0  0  0  0  0  0  0
   62.9450   32.7920   48.9900 C   0  0  0  0  0  0  0  0  0  0  0  0
   63.0300   33.5980   47.8490 C   0  0  0  0  0  0  0  0  0  0  0  0
   61.9290   33.7370   46.9990 C   0  0  0  0  0  0  0  0  0  0  0  0
   60.7210   33.0710   47.2820 C   0  0  0  0  0  0  0  0  0  0  0  0
   59.5380   33.2160   46.3990 C   0  0  0  0  0  0  0  0  0  0  0  0
   59.2650   34.3520   45.6320 C   0  0  0  0  0  0  0  0  0  0  0  0
   57.8490   34.0740   44.7660 S   0  0  0  0  0  0  0  0  0  0  0  0
   57.6360   32.5420   45.4100 C   0  0  0  0  0  0  0  0  0  0  0  0
   56.6510   31.7590   45.0840 N   0  0  0  0  0  0  0  0  0  0  0  0
   56.7160   30.5510   44.3070 C   0  0  0  0  0  0  0  0  0  0  0  0
   57.3810   30.5620   43.2380 O   0  0  0  0  0  0  0  0  0  0  0  0
   55.9570   29.2990   44.6700 C   0  0  0  0  0  0  0  0  0  0  0  0
   56.7990   28.3700   45.4290 N   0  0  0  0  0  0  0  0  0  0  0  0
   56.4250   27.2030   45.9950 C   0  0  0  0  0  0  0  0  0  0  0  0
   55.1230   26.7160   45.9920 O   0  0  0  0  0  0  0  0  0  0  0  0
   57.5040   26.5540   46.5590 C   0  0  0  0  0  0  0  0  0  0  0  0
   58.6050   27.3520   46.3070 C   0  0  0  0  0  0  0  0  0  0  0  0
   58.1350   28.4440   45.6000 C   0  0  0  0  0  0  0  0  0  0  0  0
   58.9260   29.4790   45.1110 O   0  0  0  0  0  0  0  0  0  0  0  0
   58.6270   32.2110   46.2630 N   0  0  0  0  0  0  0  0  0  0  0  0
   60.6420   32.2720   48.4350 C   0  0  0  0  0  0  0  0  0  0  0  0
   61.7450   32.1350   49.2830 C   0  0  0  0  0  0  0  0  0  0  0  0
   63.0930   33.8500   51.5180 H   0  0  0  0  0  0  0  0  0  0  0  0
   63.9681   34.1248   47.6199 H   0  0  0  0  0  0  0  0  0  0  0  0
   62.0068   34.3707   46.1033 H   0  0  0  0  0  0  0  0  0  0  0  0
   59.8710   35.2694   45.5999 H   0  0  0  0  0  0  0  0  0  0  0  0
   55.0841   29.5730   45.2808 H   0  0  0  0  0  0  0  0  0  0  0  0
   55.6400   28.8023   43.7412 H   0  0  0  0  0  0  0  0  0  0  0  0
   57.4911   25.5960   47.0995 H   0  0  0  0  0  0  0  0  0  0  0  0
   59.6449   27.1575   46.6081 H   0  0  0  0  0  0  0  0  0  0  0  0
   58.5740   30.4280   45.0710 H   0  0  0  0  0  0  0  0  0  0  0  0
   59.7037   31.7495   48.6727 H   0  0  0  0  0  0  0  0  0  0  0  0
   61.6691   31.5084   50.1839 H   0  0  0  0  0  0  0  0  0  0  0  0
  1  2  1  0
  2  3  2  0
  2  4  2  0
  2  5  1  0
  5  6  2  0
  6  7  1  0
  7  8  2  0
  8  9  1  0
  9 10  2  0
 10 11  1  0
 11 12  1  0
 12 13  2  3
 13 14  1  0
 14 15  2  0
 14 16  1  0
 16 17  1  0
 17 18  1  0
 18 19  1  0
 18 20  2  0
 20 21  1  0
 21 22  2  0
 22 23  1  0
 12 24  1  0
  8 25  1  0
 25 26  2  0
 26  5  1  0
 24  9  1  0
 22 17  1  0
  1 27  1  0
  6 28  1  0
  7 29  1  0
 10 30  1  0
 16 31  1  0
 16 32  1  0
 20 33  1  0
 21 34  1  0
 23 35  1  0
 25 36  1  0
 26 37  1  0
M  CHG  3   1  -1  19  -1  24  -1
M  END
>  <UniqueID>  (45) 
43

>  <SMILES>  (45) 
[NH-]S(=O)(=O)c1ccc(-c2csc(=NC(=O)Cn3c([O-])ccc3O)[n-]2)cc1

>  <Energy>  (45) 
100.3222421091703

>  <Genealogy>  (45) 
[NH-]S(=O)(=O)c1ccc(-c2csc(=NC(=O)Cn3c([O-])ccc3O)[n-]2)cc1 (protonated)
[NH-]S(=O)(=O)c1ccc(-c2csc(=NC(=O)Cn3c([O-])ccc3O)[n-]2)cc1 (3D coordinates assigned)
[NH-]S(=O)(=O)c1ccc(-c2csc(=NC(=O)Cn3c([O-])ccc3O)[n-]2)cc1 (optimized conformer: 100.3222421091703 kcal/mol)

>  <smiles>  (45) 
NS(=O)(=O)c1ccc(-c2csc(=NC(=O)Cn3c(O)ccc3O)[nH]2)cc1

>  <score_type>  (45) 
oracle

>  <origin>  (45) 
adg

>  <m_score__min__energy>  (45) 
-12.119999999999999

>  <m_primary>  (45) 
energy

$$$$
45:0
     RDKit          3D

 82 86  0  0  0  0  0  0  0  0999 V2000
   66.5830   32.8320   50.1320 C   0  0  0  0  0  0  0  0  0  0  0  0
   66.2370   31.5130   50.7460 C   0  0  0  0  0  0  0  0  0  0  0  0
   67.2060   30.5120   50.8690 C   0  0  0  0  0  0  0  0  0  0  0  0
   66.8550   29.2890   51.4390 C   0  0  0  0  0  0  0  0  0  0  0  0
   65.5450   29.0690   51.8700 C   0  0  0  0  0  0  0  0  0  0  0  0
   64.5860   30.0870   51.7190 C   0  0  0  0  0  0  0  0  0  0  0  0
   63.1780   29.9080   52.1580 C   0  0  0  0  0  0  0  0  0  0  0  0
   62.2690   29.2220   51.3330 C   0  0  0  0  0  0  0  0  0  0  0  0
   60.9440   29.0350   51.7350 C   0  0  0  0  0  0  0  0  0  0  0  0
   60.4990   29.5200   52.9690 C   0  0  0  0  0  0  0  0  0  0  0  0
   59.1570   29.3040   53.3210 O   0  0  0  0  0  0  0  0  0  0  0  0
   58.1110   30.2710   53.2160 C   0  0  0  0  0  0  0  0  0  0  0  0
   57.8010   30.5900   51.7780 C   0  0  0  0  0  0  0  0  0  0  0  0
   56.7530   30.1150   51.2610 O   0  0  0  0  0  0  0  0  0  0  0  0
   58.6560   31.4470   50.9930 N   0  0  0  0  0  0  0  0  0  0  0  0
   58.4790   31.4980   49.5350 C   0  0  0  0  0  0  0  0  0  0  0  0
   59.7140   32.1070   48.8530 C   0  0  0  0  0  0  0  0  0  0  0  0
   60.0920   33.4210   49.4250 N   0  0  0  0  0  0  0  0  0  0  0  0
   59.7290   34.5930   48.5930 C   0  0  0  0  0  0  0  0  0  0  0  0
   59.1560   34.2280   47.2370 C   0  0  0  0  0  0  0  0  0  0  0  0
   57.8220   33.8100   47.1100 C   0  0  0  0  0  0  0  0  0  0  0  0
   57.3100   33.4450   45.8620 C   0  0  0  0  0  0  0  0  0  0  0  0
   58.1080   33.5150   44.7160 C   0  0  0  0  0  0  0  0  0  0  0  0
   57.5410   33.1260   43.4910 O   0  0  0  0  0  0  0  0  0  0  0  0
   57.8250   31.9160   42.7880 C   0  0  0  0  0  0  0  0  0  0  0  0
   58.1530   30.7660   43.7500 C   0  0  0  0  0  0  0  0  0  0  0  0
   56.8860   30.0380   44.2320 C   0  0  0  0  0  0  0  0  0  0  0  0
   57.0500   29.4830   45.5990 N   0  0  0  0  0  0  0  0  0  0  0  0
   57.1400   28.0050   45.6410 C   0  0  0  0  0  0  0  0  0  0  0  0
   58.4330   27.4760   44.9950 C   0  0  0  0  0  0  0  0  0  0  0  0
   59.6460   28.3830   45.2660 C   0  0  0  0  0  0  0  0  0  0  0  0
   59.4270   29.2680   46.4930 C   0  0  0  0  0  0  0  0  0  0  0  0
   58.1600   30.1380   46.3410 C   0  0  0  0  0  0  0  0  0  0  0  0
   59.4300   33.9830   44.8310 C   0  0  0  0  0  0  0  0  0  0  0  0
   59.9460   34.3370   46.0800 C   0  0  0  0  0  0  0  0  0  0  0  0
   59.8090   33.6040   50.8670 C   0  0  0  0  0  0  0  0  0  0  0  0
   59.7000   32.2720   51.6150 C   0  0  0  0  0  0  0  0  0  0  0  0
   61.4040   30.1980   53.8060 C   0  0  0  0  0  0  0  0  0  0  0  0
   62.7300   30.3870   53.4050 C   0  0  0  0  0  0  0  0  0  0  0  0
   64.9650   31.2750   51.1670 N   0  0  0  0  0  0  0  0  0  0  0  0
   66.7759   33.5673   50.9271 H   0  0  0  0  0  0  0  0  0  0  0  0
   67.4826   32.7216   49.5086 H   0  0  0  0  0  0  0  0  0  0  0  0
   65.7451   33.1774   49.5086 H   0  0  0  0  0  0  0  0  0  0  0  0
   68.2342   30.6878   50.5197 H   0  0  0  0  0  0  0  0  0  0  0  0
   67.6103   28.4970   51.5493 H   0  0  0  0  0  0  0  0  0  0  0  0
   65.2652   28.1070   52.3241 H   0  0  0  0  0  0  0  0  0  0  0  0
   62.6043   28.8289   50.3619 H   0  0  0  0  0  0  0  0  0  0  0  0
   60.2444   28.5014   51.0748 H   0  0  0  0  0  0  0  0  0  0  0  0
   57.2057   29.8728   53.6976 H   0  0  0  0  0  0  0  0  0  0  0  0
   58.4425   31.1951   53.7122 H   0  0  0  0  0  0  0  0  0  0  0  0
   58.3246   30.4773   49.1552 H   0  0  0  0  0  0  0  0  0  0  0  0
   57.6064   32.1285   49.3090 H   0  0  0  0  0  0  0  0  0  0  0  0
   60.5600   31.4142   48.9729 H   0  0  0  0  0  0  0  0  0  0  0  0
   59.4652   32.2645   47.7932 H   0  0  0  0  0  0  0  0  0  0  0  0
   58.9797   35.1861   49.1377 H   0  0  0  0  0  0  0  0  0  0  0  0
   60.6570   35.1539   48.4079 H   0  0  0  0  0  0  0  0  0  0  0  0
   57.1753   33.7695   47.9989 H   0  0  0  0  0  0  0  0  0  0  0  0
   56.2690   33.0992   45.7804 H   0  0  0  0  0  0  0  0  0  0  0  0
   56.9469   31.6384   42.1864 H   0  0  0  0  0  0  0  0  0  0  0  0
   58.7023   32.0887   42.1473 H   0  0  0  0  0  0  0  0  0  0  0  0
   58.8020   30.0443   43.2324 H   0  0  0  0  0  0  0  0  0  0  0  0
   58.6552   31.1928   44.6307 H   0  0  0  0  0  0  0  0  0  0  0  0
   56.0472   30.7496   44.2358 H   0  0  0  0  0  0  0  0  0  0  0  0
   56.6936   29.2001   43.5458 H   0  0  0  0  0  0  0  0  0  0  0  0
   57.1113   27.6793   46.6913 H   0  0  0  0  0  0  0  0  0  0  0  0
   56.2910   27.6015   45.0698 H   0  0  0  0  0  0  0  0  0  0  0  0
   58.6446   26.4752   45.3994 H   0  0  0  0  0  0  0  0  0  0  0  0
   58.2742   27.4497   43.9068 H   0  0  0  0  0  0  0  0  0  0  0  0
   60.5318   27.7529   45.4344 H   0  0  0  0  0  0  0  0  0  0  0  0
   59.7876   29.0365   44.3926 H   0  0  0  0  0  0  0  0  0  0  0  0
   59.3174   28.6281   47.3809 H   0  0  0  0  0  0  0  0  0  0  0  0
   60.2950   29.9356   46.5979 H   0  0  0  0  0  0  0  0  0  0  0  0
   57.7967   30.3952   47.3469 H   0  0  0  0  0  0  0  0  0  0  0  0
   58.4536   31.0197   45.7524 H   0  0  0  0  0  0  0  0  0  0  0  0
   60.0599   34.0705   43.9335 H   0  0  0  0  0  0  0  0  0  0  0  0
   60.9799   34.7043   46.1585 H   0  0  0  0  0  0  0  0  0  0  0  0
   60.6221   34.1946   51.3142 H   0  0  0  0  0  0  0  0  0  0  0  0
   58.8407   34.1183   50.9558 H   0  0  0  0  0  0  0  0  0  0  0  0
   60.6634   31.7435   51.5655 H   0  0  0  0  0  0  0  0  0  0  0  0
   59.4403   32.4616   52.6670 H   0  0  0  0  0  0  0  0  0  0  0  0
   61.0668   30.5812   54.7804 H   0  0  0  0  0  0  0  0  0  0  0  0
   63.4301   30.9147   54.0694 H   0  0  0  0  0  0  0  0  0  0  0  0
  1  2  1  0
  2  3  2  0
  3  4  1  0
  4  5  2  0
  5  6  1  0
  6  7  1  0
  7  8  2  0
  8  9  1  0
  9 10  2  0
 10 11  1  0
 11 12  1  0
 12 13  1  0
 13 14  2  0
 13 15  1  0
 15 16  1  0
 16 17  1  0
 17 18  1  0
 18 19  1  0
 19 20  1  0
 20 21  2  0
 21 22  1  0
 22 23  2  0
 23 24  1  0
 24 25  1  0
 25 26  1  0
 26 27  1  0
 27 28  1  0
 28 29  1  0
 29 30  1  0
 30 31  1  0
 31 32  1  0
 32 33  1  0
 23 34  1  0
 34 35  2  0
 18 36  1  0
 36 37  1  0
 10 38  1  0
 38 39  2  0
  6 40  2  0
 40  2  1  0
 39  7  1  0
 37 15  1  0
 35 20  1  0
 33 28  1  0
  1 41  1  0
  1 42  1  0
  1 43  1  0
  3 44  1  0
  4 45  1  0
  5 46  1  0
  8 47  1  0
  9 48  1  0
 12 49  1  0
 12 50  1  0
 16 51  1  0
 16 52  1  0
 17 53  1  0
 17 54  1  0
 19 55  1  0
 19 56  1  0
 21 57  1  0
 22 58  1  0
 25 59  1  0
 25 60  1  0
 26 61  1  0
 26 62  1  0
 27 63  1  0
 27 64  1  0
 29 65  1  0
 29 66  1  0
 30 67  1  0
 30 68  1  0
 31 69  1  0
 31 70  1  0
 32 71  1  0
 32 72  1  0
 33 73  1  0
 33 74  1  0
 34 75  1  0
 35 76  1  0
 36 77  1  0
 36 78  1  0
 37 79  1  0
 37 80  1  0
 38 81  1  0
 39 82  1  0
M  END
>  <UniqueID>  (46) 
44

>  <SMILES>  (46) 
Cc1cccc(-c2ccc(OCC(=O)N3CCN(Cc4ccc(OCCCN5CCCCC5)cc4)CC3)cc2)n1

>  <Energy>  (46) 
103.29189474479857

>  <Genealogy>  (46) 
Cc1cccc(-c2ccc(OCC(=O)N3CCN(Cc4ccc(OCCCN5CCCCC5)cc4)CC3)cc2)n1 (3D coordinates assigned)
Cc1cccc(-c2ccc(OCC(=O)N3CCN(Cc4ccc(OCCCN5CCCCC5)cc4)CC3)cc2)n1 (nonaromatic ring conformer: 103.29189474479857 kcal/mol)

>  <smiles>  (46) 
Cc1cccc(-c2ccc(OCC(=O)N3CCN(Cc4ccc(OCCCN5CCCCC5)cc4)CC3)cc2)n1

>  <score_type>  (46) 
oracle

>  <origin>  (46) 
adg

>  <m_score__min__energy>  (46) 
-9.6400000000000006

>  <m_primary>  (46) 
energy

$$$$
46:0
     RDKit          3D

 39 41  0  0  0  0  0  0  0  0999 V2000
   54.0000   25.9590   45.6410 O   0  0  0  0  0  0  0  0  0  0  0  0
   55.2190   25.9040   45.9630 C   0  0  0  0  0  0  0  0  0  0  0  0
   55.7960   24.6650   46.3850 N   0  0  0  0  0  0  0  0  0  0  0  0
   56.1770   23.6090   45.4940 C   0  0  0  0  0  0  0  0  0  0  0  0
   56.0160   22.2850   45.9220 C   0  0  0  0  0  0  0  0  0  0  0  0
   56.3320   21.2230   45.0710 C   0  0  0  0  0  0  0  0  0  0  0  0
   56.8240   21.4760   43.7900 C   0  0  0  0  0  0  0  0  0  0  0  0
   57.0210   22.7910   43.3640 C   0  0  0  0  0  0  0  0  0  0  0  0
   56.7250   23.8640   44.2140 C   0  0  0  0  0  0  0  0  0  0  0  0
   57.0180   25.1570   43.7770 O   0  0  0  0  0  0  0  0  0  0  0  0
   56.0210   27.0890   45.9880 N   0  0  0  0  0  0  0  0  0  0  0  0
   57.4480   27.1530   46.1250 C   0  0  0  0  0  0  0  0  0  0  0  0
   58.1180   26.2120   46.9320 C   0  0  0  0  0  0  0  0  0  0  0  0
   59.5050   26.2450   47.0620 C   0  0  0  0  0  0  0  0  0  0  0  0
   60.2430   27.2200   46.4000 C   0  0  0  0  0  0  0  0  0  0  0  0
   59.5970   28.1780   45.6190 C   0  0  0  0  0  0  0  0  0  0  0  0
   58.1910   28.1800   45.4780 C   0  0  0  0  0  0  0  0  0  0  0  0
   57.5570   29.2060   44.6670 N   0  0  0  0  0  0  0  0  0  0  0  0
   57.0340   28.9610   43.3280 C   0  0  0  0  0  0  0  0  0  0  0  0
   56.4060   30.2700   42.8770 C   0  0  0  0  0  0  0  0  0  0  0  0
   57.0550   31.3400   43.7420 C   0  0  0  0  0  0  0  0  0  0  0  0
   57.4780   30.6210   45.0140 C   0  0  0  0  0  0  0  0  0  0  0  0
   55.6383   22.0801   46.9346 H   0  0  0  0  0  0  0  0  0  0  0  0
   56.1928   20.1862   45.4112 H   0  0  0  0  0  0  0  0  0  0  0  0
   57.0568   20.6389   43.1154 H   0  0  0  0  0  0  0  0  0  0  0  0
   57.4113   22.9855   42.3541 H   0  0  0  0  0  0  0  0  0  0  0  0
   56.6330   25.9840   44.2120 H   0  0  0  0  0  0  0  0  0  0  0  0
   57.5398   25.4430   47.4652 H   0  0  0  0  0  0  0  0  0  0  0  0
   60.0163   25.4994   47.6886 H   0  0  0  0  0  0  0  0  0  0  0  0
   61.3390   27.2357   46.4925 H   0  0  0  0  0  0  0  0  0  0  0  0
   60.1927   28.9458   45.1035 H   0  0  0  0  0  0  0  0  0  0  0  0
   57.8481   28.6730   42.6466 H   0  0  0  0  0  0  0  0  0  0  0  0
   56.3010   28.1408   43.3258 H   0  0  0  0  0  0  0  0  0  0  0  0
   56.6170   30.4531   41.8131 H   0  0  0  0  0  0  0  0  0  0  0  0
   55.3114   30.2607   42.9852 H   0  0  0  0  0  0  0  0  0  0  0  0
   57.9300   31.7698   43.2325 H   0  0  0  0  0  0  0  0  0  0  0  0
   56.3681   32.1737   43.9496 H   0  0  0  0  0  0  0  0  0  0  0  0
   58.4585   30.9872   45.3523 H   0  0  0  0  0  0  0  0  0  0  0  0
   56.7649   30.7965   45.8329 H   0  0  0  0  0  0  0  0  0  0  0  0
  1  2  2  0
  2  3  1  0
  3  4  1  0
  4  5  2  0
  5  6  1  0
  6  7  2  0
  7  8  1  0
  8  9  2  0
  9 10  1  0
  2 11  1  0
 11 12  1  0
 12 13  2  0
 13 14  1  0
 14 15  2  0
 15 16  1  0
 16 17  2  0
 17 18  1  0
 18 19  1  0
 19 20  1  0
 20 21  1  0
 21 22  1  0
  9  4  1  0
 17 12  1  0
 22 18  1  0
  5 23  1  0
  6 24  1  0
  7 25  1  0
  8 26  1  0
 10 27  1  0
 13 28  1  0
 14 29  1  0
 15 30  1  0
 16 31  1  0
 19 32  1  0
 19 33  1  0
 20 34  1  0
 20 35  1  0
 21 36  1  0
 21 37  1  0
 22 38  1  0
 22 39  1  0
M  CHG  2   3  -1  11  -1
M  END
>  <UniqueID>  (47) 
45

>  <SMILES>  (47) 
O=C([N-]c1ccccc1O)[N-]c1ccccc1N1CCCC1

>  <Energy>  (47) 
55.94669421727217

>  <Genealogy>  (47) 
O=C([N-]c1ccccc1O)[N-]c1ccccc1N1CCCC1 (protonated)
O=C([N-]c1ccccc1O)[N-]c1ccccc1N1CCCC1 (3D coordinates assigned)
O=C([N-]c1ccccc1O)[N-]c1ccccc1N1CCCC1 (nonaromatic ring conformer: 55.94669421727217 kcal/mol)

>  <smiles>  (47) 
O=C(Nc1ccccc1O)Nc1ccccc1N1CCCC1

>  <score_type>  (47) 
oracle

>  <origin>  (47) 
adg

>  <m_score__min__energy>  (47) 
-11.94

>  <m_primary>  (47) 
energy

$$$$
47:0
     RDKit          3D

 38 39  0  0  0  0  0  0  0  0999 V2000
   59.3820   30.6540   48.2820 C   0  0  0  0  0  0  0  0  0  0  0  0
   58.4810   31.2020   47.3260 O   0  0  0  0  0  0  0  0  0  0  0  0
   58.7220   32.3540   46.5640 C   0  0  0  0  0  0  0  0  0  0  0  0
   59.8360   33.1810   46.8260 C   0  0  0  0  0  0  0  0  0  0  0  0
   60.0970   34.2970   46.0280 C   0  0  0  0  0  0  0  0  0  0  0  0
   59.2570   34.6030   44.9600 C   0  0  0  0  0  0  0  0  0  0  0  0
   58.1470   33.8010   44.6920 C   0  0  0  0  0  0  0  0  0  0  0  0
   57.8550   32.6880   45.4940 C   0  0  0  0  0  0  0  0  0  0  0  0
   56.6850   31.9240   45.1560 N   0  0  0  0  0  0  0  0  0  0  0  0
   56.6330   30.3470   44.4330 S   0  0  0  0  0  0  0  0  0  0  0  0
   55.3550   29.6610   44.8300 O   0  0  0  0  0  0  0  0  0  0  0  0
   56.7140   30.4600   42.9360 O   0  0  0  0  0  0  0  0  0  0  0  0
   58.0110   29.4100   45.0000 C   0  0  0  0  0  0  0  0  0  0  0  0
   59.2840   29.6500   44.4700 C   0  0  0  0  0  0  0  0  0  0  0  0
   60.3790   28.9030   44.9110 C   0  0  0  0  0  0  0  0  0  0  0  0
   60.2080   27.9110   45.8790 C   0  0  0  0  0  0  0  0  0  0  0  0
   58.9340   27.6500   46.4160 C   0  0  0  0  0  0  0  0  0  0  0  0
   58.7490   26.5970   47.4420 C   0  0  0  0  0  0  0  0  0  0  0  0
   59.6290   26.4140   48.3270 O   0  0  0  0  0  0  0  0  0  0  0  0
   57.5690   25.7830   47.4350 N   0  0  0  0  0  0  0  0  0  0  0  0
   57.0490   25.1230   46.2430 C   0  0  0  0  0  0  0  0  0  0  0  0
   55.5900   25.4090   46.0910 C   0  0  0  0  0  0  0  0  0  0  0  0
   54.7620   24.4620   46.0140 O   0  0  0  0  0  0  0  0  0  0  0  0
   55.1440   26.7210   46.0010 O   0  0  0  0  0  0  0  0  0  0  0  0
   57.8370   28.4070   45.9640 C   0  0  0  0  0  0  0  0  0  0  0  0
   59.0190   30.8748   49.2966 H   0  0  0  0  0  0  0  0  0  0  0  0
   59.4449   29.5645   48.1441 H   0  0  0  0  0  0  0  0  0  0  0  0
   60.3784   31.0992   48.1441 H   0  0  0  0  0  0  0  0  0  0  0  0
   60.5047   32.9440   47.6667 H   0  0  0  0  0  0  0  0  0  0  0  0
   60.9669   34.9350   46.2432 H   0  0  0  0  0  0  0  0  0  0  0  0
   59.4688   35.4776   44.3273 H   0  0  0  0  0  0  0  0  0  0  0  0
   57.4932   34.0446   43.8416 H   0  0  0  0  0  0  0  0  0  0  0  0
   59.4225   30.4281   43.7049 H   0  0  0  0  0  0  0  0  0  0  0  0
   61.3786   29.0967   44.4947 H   0  0  0  0  0  0  0  0  0  0  0  0
   61.0756   27.3295   46.2241 H   0  0  0  0  0  0  0  0  0  0  0  0
   57.5864   25.4945   45.3580 H   0  0  0  0  0  0  0  0  0  0  0  0
   57.1940   24.0370   46.3413 H   0  0  0  0  0  0  0  0  0  0  0  0
   56.8341   28.2099   46.3707 H   0  0  0  0  0  0  0  0  0  0  0  0
  1  2  1  0
  2  3  1  0
  3  4  2  0
  4  5  1  0
  5  6  2  0
  6  7  1  0
  7  8  2  0
  8  9  1  0
  9 10  1  0
 10 11  2  0
 10 12  2  0
 10 13  1  0
 13 14  2  0
 14 15  1  0
 15 16  2  0
 16 17  1  0
 17 18  1  0
 18 19  2  0
 18 20  1  0
 20 21  1  0
 21 22  1  0
 22 23  2  0
 22 24  1  0
 17 25  2  0
  8  3  1  0
 25 13  1  0
  1 26  1  0
  1 27  1  0
  1 28  1  0
  4 29  1  0
  5 30  1  0
  6 31  1  0
  7 32  1  0
 14 33  1  0
 15 34  1  0
 16 35  1  0
 21 36  1  0
 21 37  1  0
 25 38  1  0
M  CHG  3   9  -1  20  -1  24  -1
M  END
>  <UniqueID>  (48) 
46

>  <SMILES>  (48) 
COc1ccccc1[N-]S(=O)(=O)c1cccc(C(=O)[N-]CC(=O)[O-])c1

>  <Energy>  (48) 
43.385822467467776

>  <Genealogy>  (48) 
COc1ccccc1[N-]S(=O)(=O)c1cccc(C(=O)[N-]CC(=O)[O-])c1 (protonated)
COc1ccccc1[N-]S(=O)(=O)c1cccc(C(=O)[N-]CC(=O)[O-])c1 (3D coordinates assigned)
COc1ccccc1[N-]S(=O)(=O)c1cccc(C(=O)[N-]CC(=O)[O-])c1 (optimized conformer: 43.385822467467776 kcal/mol)

>  <smiles>  (48) 
COc1ccccc1NS(=O)(=O)c1cccc(C(=O)NCC(=O)O)c1

>  <score_type>  (48) 
oracle

>  <origin>  (48) 
adg

>  <m_score__min__energy>  (48) 
-14.16

>  <m_primary>  (48) 
energy

$$$$
48:0
     RDKit          3D

 51 53  0  0  0  0  0  0  0  0999 V2000
   55.2120   24.0260   44.4020 C   0  0  0  0  0  0  0  0  0  0  0  0
   54.4680   24.5610   45.6210 C   0  0  0  0  0  0  0  0  0  0  0  0
   55.1890   25.6400   46.2190 O   0  0  0  0  0  0  0  0  0  0  0  0
   56.5690   25.8770   46.0920 C   0  0  0  0  0  0  0  0  0  0  0  0
   57.5320   24.9090   46.4480 C   0  0  0  0  0  0  0  0  0  0  0  0
   58.8940   25.1930   46.3300 C   0  0  0  0  0  0  0  0  0  0  0  0
   59.3120   26.4340   45.8520 C   0  0  0  0  0  0  0  0  0  0  0  0
   58.3710   27.3970   45.4870 C   0  0  0  0  0  0  0  0  0  0  0  0
   56.9950   27.1280   45.6040 C   0  0  0  0  0  0  0  0  0  0  0  0
   56.0240   28.1290   45.2550 N   0  0  0  0  0  0  0  0  0  0  0  0
   56.3980   29.4380   44.1800 S   0  0  0  0  0  0  0  0  0  0  0  0
   55.1220   30.0670   43.6960 O   0  0  0  0  0  0  0  0  0  0  0  0
   57.1650   28.9070   43.0010 O   0  0  0  0  0  0  0  0  0  0  0  0
   57.3370   30.6530   45.0430 C   0  0  0  0  0  0  0  0  0  0  0  0
   58.1150   30.3000   46.1500 C   0  0  0  0  0  0  0  0  0  0  0  0
   58.8230   31.2790   46.8520 C   0  0  0  0  0  0  0  0  0  0  0  0
   58.7550   32.6330   46.4660 C   0  0  0  0  0  0  0  0  0  0  0  0
   58.0170   32.9720   45.3120 C   0  0  0  0  0  0  0  0  0  0  0  0
   57.2970   31.9870   44.6210 C   0  0  0  0  0  0  0  0  0  0  0  0
   57.9720   34.3990   44.8430 C   0  0  0  0  0  0  0  0  0  0  0  0
   59.2950   35.0920   45.1580 C   0  0  0  0  0  0  0  0  0  0  0  0
   59.5840   35.0310   46.6600 C   0  0  0  0  0  0  0  0  0  0  0  0
   59.4730   33.6620   47.1990 N   0  0  0  0  0  0  0  0  0  0  0  0
   59.8330   33.4560   48.5800 C   0  0  0  0  0  0  0  0  0  0  0  0
   58.9880   32.9800   49.3850 O   0  0  0  0  0  0  0  0  0  0  0  0
   61.1960   33.8270   49.0940 C   0  0  0  0  0  0  0  0  0  0  0  0
   62.2800   33.4580   48.0860 C   0  0  0  0  0  0  0  0  0  0  0  0
   56.0639   23.4134   44.7321 H   0  0  0  0  0  0  0  0  0  0  0  0
   54.5300   23.4102   43.7973 H   0  0  0  0  0  0  0  0  0  0  0  0
   55.5787   24.8685   43.7973 H   0  0  0  0  0  0  0  0  0  0  0  0
   53.4753   24.9185   45.3100 H   0  0  0  0  0  0  0  0  0  0  0  0
   54.3680   23.7507   46.3582 H   0  0  0  0  0  0  0  0  0  0  0  0
   57.2081   23.9259   46.8203 H   0  0  0  0  0  0  0  0  0  0  0  0
   59.6390   24.4356   46.6149 H   0  0  0  0  0  0  0  0  0  0  0  0
   60.3860   26.6544   45.7625 H   0  0  0  0  0  0  0  0  0  0  0  0
   58.7068   28.3725   45.1054 H   0  0  0  0  0  0  0  0  0  0  0  0
   55.1440   28.2100   45.8120 H   0  0  0  0  0  0  0  0  0  0  0  0
   58.1698   29.2487   46.4691 H   0  0  0  0  0  0  0  0  0  0  0  0
   59.4402   30.9899   47.7154 H   0  0  0  0  0  0  0  0  0  0  0  0
   56.6970   32.2644   43.7418 H   0  0  0  0  0  0  0  0  0  0  0  0
   57.7986   34.4206   43.7570 H   0  0  0  0  0  0  0  0  0  0  0  0
   57.1560   34.9245   45.3606 H   0  0  0  0  0  0  0  0  0  0  0  0
   60.1067   34.5892   44.6118 H   0  0  0  0  0  0  0  0  0  0  0  0
   59.2285   36.1458   44.8496 H   0  0  0  0  0  0  0  0  0  0  0  0
   60.6051   35.3992   46.8385 H   0  0  0  0  0  0  0  0  0  0  0  0
   58.8356   35.6544   47.1711 H   0  0  0  0  0  0  0  0  0  0  0  0
   61.2287   34.9113   49.2765 H   0  0  0  0  0  0  0  0  0  0  0  0
   61.3814   33.2733   50.0262 H   0  0  0  0  0  0  0  0  0  0  0  0
   63.1892   33.1485   48.6222 H   0  0  0  0  0  0  0  0  0  0  0  0
   61.9268   32.6295   47.4545 H   0  0  0  0  0  0  0  0  0  0  0  0
   62.5056   34.3300   47.4545 H   0  0  0  0  0  0  0  0  0  0  0  0
  1  2  1  0
  2  3  1  0
  3  4  1  0
  4  5  2  0
  5  6  1  0
  6  7  2  0
  7  8  1  0
  8  9  2  0
  9 10  1  0
 10 11  1  0
 11 12  2  0
 11 13  2  0
 11 14  1  0
 14 15  2  0
 15 16  1  0
 16 17  2  0
 17 18  1  0
 18 19  2  0
 18 20  1  0
 20 21  1  0
 21 22  1  0
 22 23  1  0
 23 24  1  0
 24 25  2  0
 24 26  1  0
 26 27  1  0
  9  4  1  0
 19 14  1  0
 23 17  1  0
  1 28  1  0
  1 29  1  0
  1 30  1  0
  2 31  1  0
  2 32  1  0
  5 33  1  0
  6 34  1  0
  7 35  1  0
  8 36  1  0
 10 37  1  0
 15 38  1  0
 16 39  1  0
 19 40  1  0
 20 41  1  0
 20 42  1  0
 21 43  1  0
 21 44  1  0
 22 45  1  0
 22 46  1  0
 26 47  1  0
 26 48  1  0
 27 49  1  0
 27 50  1  0
 27 51  1  0
M  END
>  <UniqueID>  (49) 
47

>  <SMILES>  (49) 
CCOc1ccccc1NS(=O)(=O)c1ccc2c(c1)CCCN2C(=O)CC

>  <Energy>  (49) 
55.66878525116316

>  <Genealogy>  (49) 
CCOc1ccccc1NS(=O)(=O)c1ccc2c(c1)CCCN2C(=O)CC (3D coordinates assigned)
CCOc1ccccc1NS(=O)(=O)c1ccc2c(c1)CCCN2C(=O)CC (nonaromatic ring conformer: 55.66878525116316 kcal/mol)

>  <smiles>  (49) 
CCOc1ccccc1NS(=O)(=O)c1ccc2c(c1)CCCN2C(=O)CC

>  <score_type>  (49) 
oracle

>  <origin>  (49) 
adg

>  <m_score__min__energy>  (49) 
-9.6999999999999993

>  <m_primary>  (49) 
energy

$$$$
49:0
     RDKit          3D

 29 30  0  0  0  0  0  0  0  0999 V2000
   63.3210   33.4130   47.1020 C   0  0  0  0  0  0  0  0  0  0  0  0
   62.7080   32.2660   47.4040 C   0  0  0  0  0  0  0  0  0  0  0  0
   61.4630   32.2330   48.2490 C   0  0  0  0  0  0  0  0  0  0  0  0
   60.3090   32.8070   47.5170 N   0  0  0  0  0  0  0  0  0  0  0  0
   60.0530   34.1570   47.6330 C   0  0  0  0  0  0  0  0  0  0  0  0
   60.7790   34.8960   48.3540 O   0  0  0  0  0  0  0  0  0  0  0  0
   58.9830   34.7450   46.9580 C   0  0  0  0  0  0  0  0  0  0  0  0
   58.1530   33.9680   46.1640 C   0  0  0  0  0  0  0  0  0  0  0  0
   58.3860   32.5990   46.0490 C   0  0  0  0  0  0  0  0  0  0  0  0
   57.5380   31.8110   45.2540 C   0  0  0  0  0  0  0  0  0  0  0  0
   57.7500   30.4360   45.1400 C   0  0  0  0  0  0  0  0  0  0  0  0
   56.6910   29.4550   44.1300 S   0  0  0  0  0  0  0  0  0  0  0  0
   55.1310   29.3450   44.8660 N   0  0  0  0  0  0  0  0  0  0  0  0
   56.5620   30.0810   42.7690 O   0  0  0  0  0  0  0  0  0  0  0  0
   57.2680   28.0780   43.9740 O   0  0  0  0  0  0  0  0  0  0  0  0
   58.8200   29.8440   45.8150 C   0  0  0  0  0  0  0  0  0  0  0  0
   59.6720   30.6160   46.6080 C   0  0  0  0  0  0  0  0  0  0  0  0
   59.4780   32.0120   46.7410 C   0  0  0  0  0  0  0  0  0  0  0  0
   64.2296   33.4044   46.4820 H   0  0  0  0  0  0  0  0  0  0  0  0
   62.9174   34.3666   47.4732 H   0  0  0  0  0  0  0  0  0  0  0  0
   63.1237   31.3206   47.0254 H   0  0  0  0  0  0  0  0  0  0  0  0
   61.2370   31.1901   48.5160 H   0  0  0  0  0  0  0  0  0  0  0  0
   61.6377   32.8333   49.1541 H   0  0  0  0  0  0  0  0  0  0  0  0
   58.7977   35.8249   47.0556 H   0  0  0  0  0  0  0  0  0  0  0  0
   57.3127   34.4313   45.6262 H   0  0  0  0  0  0  0  0  0  0  0  0
   56.7006   32.2807   44.7172 H   0  0  0  0  0  0  0  0  0  0  0  0
   55.2050   28.6390   45.6310 H   0  0  0  0  0  0  0  0  0  0  0  0
   58.9929   28.7617   45.7213 H   0  0  0  0  0  0  0  0  0  0  0  0
   60.5062   30.1321   47.1371 H   0  0  0  0  0  0  0  0  0  0  0  0
  1  2  2  0
  2  3  1  0
  3  4  1  0
  4  5  1  0
  5  6  2  0
  5  7  1  0
  7  8  2  0
  8  9  1  0
  9 10  2  0
 10 11  1  0
 11 12  1  0
 12 13  1  0
 12 14  2  0
 12 15  2  0
 11 16  2  0
 16 17  1  0
 17 18  2  0
 18  4  1  0
 18  9  1  0
  1 19  1  0
  1 20  1  0
  2 21  1  0
  3 22  1  0
  3 23  1  0
  7 24  1  0
  8 25  1  0
 10 26  1  0
 13 27  1  0
 16 28  1  0
 17 29  1  0
M  CHG  1  13  -1
M  END
>  <UniqueID>  (50) 
48

>  <SMILES>  (50) 
C=CCn1c(=O)ccc2cc(S([NH-])(=O)=O)ccc21

>  <Energy>  (50) 
36.66068136153446

>  <Genealogy>  (50) 
C=CCn1c(=O)ccc2cc(S([NH-])(=O)=O)ccc21 (protonated)
C=CCn1c(=O)ccc2cc(S([NH-])(=O)=O)ccc21 (3D coordinates assigned)
C=CCn1c(=O)ccc2cc(S([NH-])(=O)=O)ccc21 (optimized conformer: 36.66068136153446 kcal/mol)

>  <smiles>  (50) 
C=CCn1c(=O)ccc2cc(S(N)(=O)=O)ccc21

>  <score_type>  (50) 
oracle

>  <origin>  (50) 
adg

>  <m_score__min__energy>  (50) 
-9.75

>  <m_primary>  (50) 
energy

$$$$
50:0
     RDKit          3D

 38 38  0  0  0  0  0  0  0  0999 V2000
   58.9740   31.5750   48.9780 C   0  0  0  0  0  0  0  0  0  0  0  0
   58.1360   32.5080   48.3040 O   0  0  0  0  0  0  0  0  0  0  0  0
   58.5700   33.3900   47.3010 C   0  0  0  0  0  0  0  0  0  0  0  0
   59.2600   34.5800   47.6050 C   0  0  0  0  0  0  0  0  0  0  0  0
   59.6810   35.4330   46.5820 C   0  0  0  0  0  0  0  0  0  0  0  0
   59.4150   35.1160   45.2500 C   0  0  0  0  0  0  0  0  0  0  0  0
   58.7300   33.9410   44.9350 C   0  0  0  0  0  0  0  0  0  0  0  0
   58.3170   33.0660   45.9520 C   0  0  0  0  0  0  0  0  0  0  0  0
   57.5810   31.8330   45.6050 C   0  0  0  0  0  0  0  0  0  0  0  0
   57.7950   30.7860   46.2710 O   0  0  0  0  0  0  0  0  0  0  0  0
   56.6390   31.7840   44.5240 N   0  0  0  0  0  0  0  0  0  0  0  0
   55.6730   30.7160   44.2760 C   0  0  0  0  0  0  0  0  0  0  0  0
   56.3490   29.3920   44.0680 C   0  0  0  0  0  0  0  0  0  0  0  0
   56.8950   29.1510   42.9570 O   0  0  0  0  0  0  0  0  0  0  0  0
   56.4310   28.4360   45.1310 N   0  0  0  0  0  0  0  0  0  0  0  0
   57.6710   27.7890   45.5480 C   0  0  0  0  0  0  0  0  0  0  0  0
   57.4980   27.0410   46.8790 C   0  0  0  0  0  0  0  0  0  0  0  0
   57.3920   25.5170   46.7200 C   0  0  0  0  0  0  0  0  0  0  0  0
   55.8190   24.9800   46.0560 S   0  0  0  0  0  0  0  0  0  0  0  0
   54.7480   26.3350   45.9930 N   0  0  0  0  0  0  0  0  0  0  0  0
   56.0120   24.4440   44.6660 O   0  0  0  0  0  0  0  0  0  0  0  0
   55.2160   23.9150   46.9280 O   0  0  0  0  0  0  0  0  0  0  0  0
   58.8617   31.7000   50.0651 H   0  0  0  0  0  0  0  0  0  0  0  0
   58.6857   30.5519   48.6948 H   0  0  0  0  0  0  0  0  0  0  0  0
   60.0220   31.7522   48.6948 H   0  0  0  0  0  0  0  0  0  0  0  0
   59.4684   34.8389   48.6536 H   0  0  0  0  0  0  0  0  0  0  0  0
   60.2240   36.3576   46.8277 H   0  0  0  0  0  0  0  0  0  0  0  0
   59.7451   35.7920   44.4475 H   0  0  0  0  0  0  0  0  0  0  0  0
   58.5127   33.6995   43.8841 H   0  0  0  0  0  0  0  0  0  0  0  0
   54.9971   30.6391   45.1405 H   0  0  0  0  0  0  0  0  0  0  0  0
   55.1160   30.9638   43.3604 H   0  0  0  0  0  0  0  0  0  0  0  0
   57.9778   27.0717   44.7725 H   0  0  0  0  0  0  0  0  0  0  0  0
   58.4356   28.5674   45.6873 H   0  0  0  0  0  0  0  0  0  0  0  0
   58.3648   27.2643   47.5183 H   0  0  0  0  0  0  0  0  0  0  0  0
   56.5515   27.3853   47.3212 H   0  0  0  0  0  0  0  0  0  0  0  0
   58.1900   25.1807   46.0417 H   0  0  0  0  0  0  0  0  0  0  0  0
   57.4878   25.0780   47.7241 H   0  0  0  0  0  0  0  0  0  0  0  0
   55.1690   27.0250   45.3300 H   0  0  0  0  0  0  0  0  0  0  0  0
  1  2  1  0
  2  3  1  0
  3  4  2  0
  4  5  1  0
  5  6  2  0
  6  7  1  0
  7  8  2  0
  8  9  1  0
  9 10  2  0
  9 11  1  0
 11 12  1  0
 12 13  1  0
 13 14  2  0
 13 15  1  0
 15 16  1  0
 16 17  1  0
 17 18  1  0
 18 19  1  0
 19 20  1  0
 19 21  2  0
 19 22  2  0
  8  3  1  0
  1 23  1  0
  1 24  1  0
  1 25  1  0
  4 26  1  0
  5 27  1  0
  6 28  1  0
  7 29  1  0
 12 30  1  0
 12 31  1  0
 16 32  1  0
 16 33  1  0
 17 34  1  0
 17 35  1  0
 18 36  1  0
 18 37  1  0
 20 38  1  0
M  CHG  3  11  -1  15  -1  20  -1
M  END
>  <UniqueID>  (51) 
49

>  <SMILES>  (51) 
COc1ccccc1C(=O)[N-]CC(=O)[N-]CCCS([NH-])(=O)=O

>  <Energy>  (51) 
29.03487967453116

>  <Genealogy>  (51) 
COc1ccccc1C(=O)[N-]CC(=O)[N-]CCCS([NH-])(=O)=O (protonated)
COc1ccccc1C(=O)[N-]CC(=O)[N-]CCCS([NH-])(=O)=O (3D coordinates assigned)
COc1ccccc1C(=O)[N-]CC(=O)[N-]CCCS([NH-])(=O)=O (optimized conformer: 29.03487967453116 kcal/mol)

>  <smiles>  (51) 
COc1ccccc1C(=O)NCC(=O)NCCCS(N)(=O)=O

>  <score_type>  (51) 
oracle

>  <origin>  (51) 
adg

>  <m_score__min__energy>  (51) 
-12.4

>  <m_primary>  (51) 
energy

$$$$
51:0
     RDKit          3D

 43 45  0  0  0  0  0  0  0  0999 V2000
   62.5990   32.5860   47.4890 C   0  0  0  0  0  0  0  0  0  0  0  0
   62.2740   31.2900   47.4860 C   0  0  0  0  0  0  0  0  0  0  0  0
   60.8780   30.8210   47.7900 C   0  0  0  0  0  0  0  0  0  0  0  0
   60.0060   30.9770   46.6100 N   0  0  0  0  0  0  0  0  0  0  0  0
   59.2370   32.1000   46.4550 C   0  0  0  0  0  0  0  0  0  0  0  0
   58.4460   32.2820   45.3550 C   0  0  0  0  0  0  0  0  0  0  0  0
   58.4200   31.3100   44.3600 C   0  0  0  0  0  0  0  0  0  0  0  0
   57.4010   31.5070   42.8920 S   0  0  0  0  0  0  0  0  0  0  0  0
   56.0290   30.4710   43.5130 C   0  0  0  0  0  0  0  0  0  0  0  0
   56.5280   29.1360   43.9920 C   0  0  0  0  0  0  0  0  0  0  0  0
   57.3900   28.5240   43.3080 O   0  0  0  0  0  0  0  0  0  0  0  0
   56.1140   28.5750   45.2450 N   0  0  0  0  0  0  0  0  0  0  0  0
   56.6940   27.4210   45.8610 C   0  0  0  0  0  0  0  0  0  0  0  0
   58.0800   27.3800   46.0640 C   0  0  0  0  0  0  0  0  0  0  0  0
   58.6710   26.2590   46.6560 C   0  0  0  0  0  0  0  0  0  0  0  0
   57.8820   25.1660   47.0290 C   0  0  0  0  0  0  0  0  0  0  0  0
   56.5040   25.1890   46.8000 C   0  0  0  0  0  0  0  0  0  0  0  0
   55.9080   26.3100   46.2090 C   0  0  0  0  0  0  0  0  0  0  0  0
   54.5790   26.2900   45.9360 F   0  0  0  0  0  0  0  0  0  0  0  0
   59.1780   30.1900   44.5200 N   0  0  0  0  0  0  0  0  0  0  0  0
   59.9690   30.0180   45.6210 C   0  0  0  0  0  0  0  0  0  0  0  0
   60.6650   28.9700   45.7170 O   0  0  0  0  0  0  0  0  0  0  0  0
   57.6970   33.5600   45.3990 C   0  0  0  0  0  0  0  0  0  0  0  0
   58.1510   34.2150   46.7160 C   0  0  0  0  0  0  0  0  0  0  0  0
   59.1310   33.2440   47.4020 C   0  0  0  0  0  0  0  0  0  0  0  0
   63.6300   32.8950   47.2621 H   0  0  0  0  0  0  0  0  0  0  0  0
   61.8355   33.3440   47.7183 H   0  0  0  0  0  0  0  0  0  0  0  0
   63.0496   30.5451   47.2546 H   0  0  0  0  0  0  0  0  0  0  0  0
   60.9085   29.7599   48.0785 H   0  0  0  0  0  0  0  0  0  0  0  0
   60.4722   31.4289   48.6120 H   0  0  0  0  0  0  0  0  0  0  0  0
   55.5369   30.9907   44.3484 H   0  0  0  0  0  0  0  0  0  0  0  0
   55.3201   30.3021   42.6890 H   0  0  0  0  0  0  0  0  0  0  0  0
   58.7048   28.2317   45.7570 H   0  0  0  0  0  0  0  0  0  0  0  0
   59.7572   26.2370   46.8284 H   0  0  0  0  0  0  0  0  0  0  0  0
   58.3464   24.2885   47.5026 H   0  0  0  0  0  0  0  0  0  0  0  0
   55.8859   24.3247   47.0845 H   0  0  0  0  0  0  0  0  0  0  0  0
   59.1580   29.4510   43.7810 H   0  0  0  0  0  0  0  0  0  0  0  0
   57.9553   34.1940   44.5380 H   0  0  0  0  0  0  0  0  0  0  0  0
   56.6078   33.4132   45.3536 H   0  0  0  0  0  0  0  0  0  0  0  0
   58.6540   35.1706   46.5064 H   0  0  0  0  0  0  0  0  0  0  0  0
   57.2871   34.4174   47.3662 H   0  0  0  0  0  0  0  0  0  0  0  0
   60.1117   33.7197   47.5500 H   0  0  0  0  0  0  0  0  0  0  0  0
   58.7868   32.9338   48.3996 H   0  0  0  0  0  0  0  0  0  0  0  0
  1  2  2  0
  2  3  1  0
  3  4  1  0
  4  5  1  0
  5  6  2  0
  6  7  1  0
  7  8  1  0
  8  9  1  0
  9 10  1  0
 10 11  2  0
 10 12  1  0
 12 13  1  0
 13 14  2  0
 14 15  1  0
 15 16  2  0
 16 17  1  0
 17 18  2  0
 18 19  1  0
  7 20  2  0
 20 21  1  0
 21 22  2  0
  6 23  1  0
 23 24  1  0
 24 25  1  0
 21  4  1  0
 25  5  1  0
 18 13  1  0
  1 26  1  0
  1 27  1  0
  2 28  1  0
  3 29  1  0
  3 30  1  0
  9 31  1  0
  9 32  1  0
 14 33  1  0
 15 34  1  0
 16 35  1  0
 17 36  1  0
 20 37  1  0
 23 38  1  0
 23 39  1  0
 24 40  1  0
 24 41  1  0
 25 42  1  0
 25 43  1  0
M  CHG  2  12  -1  20   1
M  END
>  <UniqueID>  (52) 
50

>  <SMILES>  (52) 
C=CCn1c2c(c(SCC(=O)[N-]c3ccccc3F)[nH+]c1=O)CCC2

>  <Energy>  (52) 
53.61482027841667

>  <Genealogy>  (52) 
C=CCn1c2c(c(SCC(=O)[N-]c3ccccc3F)[nH+]c1=O)CCC2 (protonated)
C=CCn1c2c(c(SCC(=O)[N-]c3ccccc3F)[nH+]c1=O)CCC2 (3D coordinates assigned)
C=CCn1c2c(c(SCC(=O)[N-]c3ccccc3F)[nH+]c1=O)CCC2 (nonaromatic ring conformer: 53.61482027841667 kcal/mol)

>  <smiles>  (52) 
C=CCn1c2c(c(SCC(=O)Nc3ccccc3F)nc1=O)CCC2

>  <score_type>  (52) 
oracle

>  <origin>  (52) 
adg

>  <m_score__min__energy>  (52) 
-8.8599999999999994

>  <m_primary>  (52) 
energy

$$$$
52:0
     RDKit          3D

 63 66  0  0  0  0  0  0  0  0999 V2000
   58.0440   32.2960   43.1980 C   0  0  0  0  0  0  0  0  0  0  0  0
   57.9540   33.4550   44.1900 C   0  0  0  0  0  0  0  0  0  0  0  0
   59.2780   34.2200   44.3310 C   0  0  0  0  0  0  0  0  0  0  0  0
   59.2870   35.1700   45.5370 C   0  0  0  0  0  0  0  0  0  0  0  0
   59.2120   34.3910   46.8120 C   0  0  0  0  0  0  0  0  0  0  0  0
   60.2020   34.3840   47.7390 N   0  0  0  0  0  0  0  0  0  0  0  0
   59.9310   33.5670   48.7540 N   0  0  0  0  0  0  0  0  0  0  0  0
   60.7410   33.3680   49.8270 C   0  0  0  0  0  0  0  0  0  0  0  0
   61.8400   33.9780   49.9270 O   0  0  0  0  0  0  0  0  0  0  0  0
   60.3340   32.4710   50.8230 C   0  0  0  0  0  0  0  0  0  0  0  0
   59.1020   31.8020   50.6720 C   0  0  0  0  0  0  0  0  0  0  0  0
   58.6430   30.8240   51.7090 C   0  0  0  0  0  0  0  0  0  0  0  0
   58.6090   29.5080   51.1630 O   0  0  0  0  0  0  0  0  0  0  0  0
   59.6250   28.9770   50.3580 C   0  0  0  0  0  0  0  0  0  0  0  0
   60.4400   28.1370   50.8300 O   0  0  0  0  0  0  0  0  0  0  0  0
   59.7450   29.4260   48.9570 C   0  0  0  0  0  0  0  0  0  0  0  0
   60.9930   29.7660   48.4120 C   0  0  0  0  0  0  0  0  0  0  0  0
   61.0800   30.2530   47.1060 C   0  0  0  0  0  0  0  0  0  0  0  0
   59.9250   30.4060   46.3340 C   0  0  0  0  0  0  0  0  0  0  0  0
   58.6700   30.0490   46.8510 C   0  0  0  0  0  0  0  0  0  0  0  0
   57.4950   30.2420   46.0420 N   0  0  0  0  0  0  0  0  0  0  0  0
   56.8700   29.0580   44.9330 S   0  0  0  0  0  0  0  0  0  0  0  0
   57.4530   29.3170   43.5720 O   0  0  0  0  0  0  0  0  0  0  0  0
   55.3750   29.1960   44.8600 O   0  0  0  0  0  0  0  0  0  0  0  0
   57.2610   27.4240   45.4640 C   0  0  0  0  0  0  0  0  0  0  0  0
   58.5620   26.9280   45.3180 C   0  0  0  0  0  0  0  0  0  0  0  0
   58.8520   25.6050   45.6660 C   0  0  0  0  0  0  0  0  0  0  0  0
   57.8500   24.7640   46.1650 C   0  0  0  0  0  0  0  0  0  0  0  0
   58.1930   23.4380   46.4790 O   0  0  0  0  0  0  0  0  0  0  0  0
   58.1300   22.3290   45.5820 C   0  0  0  0  0  0  0  0  0  0  0  0
   59.4450   22.1630   44.8280 C   0  0  0  0  0  0  0  0  0  0  0  0
   56.5500   25.2750   46.3360 C   0  0  0  0  0  0  0  0  0  0  0  0
   56.2590   26.5960   45.9840 C   0  0  0  0  0  0  0  0  0  0  0  0
   58.5940   29.5470   48.1620 C   0  0  0  0  0  0  0  0  0  0  0  0
   58.3260   32.0390   49.5760 N   0  0  0  0  0  0  0  0  0  0  0  0
   58.7520   32.9190   48.6380 C   0  0  0  0  0  0  0  0  0  0  0  0
   57.9480   33.3330   47.2240 S   0  0  0  0  0  0  0  0  0  0  0  0
   58.1177   31.3467   43.7489 H   0  0  0  0  0  0  0  0  0  0  0  0
   57.1441   32.2840   42.5655 H   0  0  0  0  0  0  0  0  0  0  0  0
   58.9350   32.4230   42.5655 H   0  0  0  0  0  0  0  0  0  0  0  0
   57.1787   34.1545   43.8442 H   0  0  0  0  0  0  0  0  0  0  0  0
   57.7096   33.0305   45.1749 H   0  0  0  0  0  0  0  0  0  0  0  0
   60.0942   33.4922   44.4501 H   0  0  0  0  0  0  0  0  0  0  0  0
   59.4072   34.8309   43.4254 H   0  0  0  0  0  0  0  0  0  0  0  0
   60.2149   35.7607   45.5267 H   0  0  0  0  0  0  0  0  0  0  0  0
   58.4148   35.8372   45.4735 H   0  0  0  0  0  0  0  0  0  0  0  0
   60.9640   32.2918   51.7067 H   0  0  0  0  0  0  0  0  0  0  0  0
   59.3375   30.8458   52.5618 H   0  0  0  0  0  0  0  0  0  0  0  0
   57.6317   31.1011   52.0413 H   0  0  0  0  0  0  0  0  0  0  0  0
   61.9052   29.6485   49.0154 H   0  0  0  0  0  0  0  0  0  0  0  0
   62.0607   30.5170   46.6836 H   0  0  0  0  0  0  0  0  0  0  0  0
   60.0002   30.8093   45.3134 H   0  0  0  0  0  0  0  0  0  0  0  0
   57.0490   31.1880   46.0190 H   0  0  0  0  0  0  0  0  0  0  0  0
   59.3577   27.5802   44.9288 H   0  0  0  0  0  0  0  0  0  0  0  0
   59.8762   25.2218   45.5467 H   0  0  0  0  0  0  0  0  0  0  0  0
   57.9258   21.4130   46.1558 H   0  0  0  0  0  0  0  0  0  0  0  0
   57.3275   22.5125   44.8524 H   0  0  0  0  0  0  0  0  0  0  0  0
   60.2700   22.0589   45.5481 H   0  0  0  0  0  0  0  0  0  0  0  0
   59.3943   21.2641   44.1960 H   0  0  0  0  0  0  0  0  0  0  0  0
   59.6193   23.0463   44.1960 H   0  0  0  0  0  0  0  0  0  0  0  0
   55.7590   24.6316   46.7487 H   0  0  0  0  0  0  0  0  0  0  0  0
   55.2391   26.9864   46.1160 H   0  0  0  0  0  0  0  0  0  0  0  0
   57.6186   29.2446   48.5709 H   0  0  0  0  0  0  0  0  0  0  0  0
  1  2  1  0
  2  3  1  0
  3  4  1  0
  4  5  1  0
  5  6  2  0
  6  7  1  0
  7  8  1  0
  8  9  2  0
  8 10  1  0
 10 11  2  0
 11 12  1  0
 12 13  1  0
 13 14  1  0
 14 15  2  0
 14 16  1  0
 16 17  2  0
 17 18  1  0
 18 19  2  0
 19 20  1  0
 20 21  1  0
 21 22  1  0
 22 23  2  0
 22 24  2  0
 22 25  1  0
 25 26  2  0
 26 27  1  0
 27 28  2  0
 28 29  1  0
 29 30  1  0
 30 31  1  0
 28 32  1  0
 32 33  2  0
 20 34  2  0
 11 35  1  0
 35 36  2  0
 36 37  1  0
 37  5  1  0
 36  7  1  0
 34 16  1  0
 33 25  1  0
  1 38  1  0
  1 39  1  0
  1 40  1  0
  2 41  1  0
  2 42  1  0
  3 43  1  0
  3 44  1  0
  4 45  1  0
  4 46  1  0
 10 47  1  0
 12 48  1  0
 12 49  1  0
 17 50  1  0
 18 51  1  0
 19 52  1  0
 21 53  1  0
 26 54  1  0
 27 55  1  0
 30 56  1  0
 30 57  1  0
 31 58  1  0
 31 59  1  0
 31 60  1  0
 32 61  1  0
 33 62  1  0
 34 63  1  0
M  END
>  <UniqueID>  (53) 
51

>  <SMILES>  (53) 
CCCCc1nn2c(=O)cc(COC(=O)c3cccc(NS(=O)(=O)c4ccc(OCC)cc4)c3)nc2s1

>  <Energy>  (53) 
95.5315711493664

>  <Genealogy>  (53) 
CCCCc1nn2c(=O)cc(COC(=O)c3cccc(NS(=O)(=O)c4ccc(OCC)cc4)c3)nc2s1 (3D coordinates assigned)
CCCCc1nn2c(=O)cc(COC(=O)c3cccc(NS(=O)(=O)c4ccc(OCC)cc4)c3)nc2s1 (optimized conformer: 95.5315711493664 kcal/mol)

>  <smiles>  (53) 
CCCCc1nn2c(=O)cc(COC(=O)c3cccc(NS(=O)(=O)c4ccc(OCC)cc4)c3)nc2s1

>  <score_type>  (53) 
oracle

>  <origin>  (53) 
adg

>  <m_score__min__energy>  (53) 
-9.6400000000000006

>  <m_primary>  (53) 
energy

$$$$
53:0
     RDKit          3D

 34 36  0  0  0  0  0  0  0  0999 V2000
   57.8020   32.3970   42.4530 C   0  0  0  0  0  0  0  0  0  0  0  0
   57.9030   32.5710   43.9440 C   0  0  0  0  0  0  0  0  0  0  0  0
   57.6640   33.8390   44.5020 C   0  0  0  0  0  0  0  0  0  0  0  0
   57.7050   34.0240   45.8860 C   0  0  0  0  0  0  0  0  0  0  0  0
   57.9840   32.9470   46.7270 C   0  0  0  0  0  0  0  0  0  0  0  0
   58.2410   31.6850   46.1870 C   0  0  0  0  0  0  0  0  0  0  0  0
   58.2320   31.4930   44.8000 C   0  0  0  0  0  0  0  0  0  0  0  0
   58.5250   30.1870   44.2940 N   0  0  0  0  0  0  0  0  0  0  0  0
   57.5740   28.7910   44.6890 S   0  0  0  0  0  0  0  0  0  0  0  0
   56.2350   29.2520   45.1900 O   0  0  0  0  0  0  0  0  0  0  0  0
   57.3970   27.9450   43.4580 O   0  0  0  0  0  0  0  0  0  0  0  0
   58.3920   27.8300   45.9330 C   0  0  0  0  0  0  0  0  0  0  0  0
   59.6460   28.2710   46.3920 C   0  0  0  0  0  0  0  0  0  0  0  0
   60.3120   27.5950   47.4140 C   0  0  0  0  0  0  0  0  0  0  0  0
   59.7350   26.4680   47.9960 C   0  0  0  0  0  0  0  0  0  0  0  0
   58.4990   26.0050   47.5470 C   0  0  0  0  0  0  0  0  0  0  0  0
   57.8160   26.6610   46.5050 C   0  0  0  0  0  0  0  0  0  0  0  0
   56.5270   26.0820   46.0480 C   0  0  0  0  0  0  0  0  0  0  0  0
   55.3380   26.7140   46.1560 N   0  0  0  0  0  0  0  0  0  0  0  0
   54.4230   25.8890   45.6680 N   0  0  0  0  0  0  0  0  0  0  0  0
   55.0950   24.7910   45.2870 C   0  0  0  0  0  0  0  0  0  0  0  0
   54.5480   23.7810   44.7730 O   0  0  0  0  0  0  0  0  0  0  0  0
   56.3780   24.8910   45.5160 O   0  0  0  0  0  0  0  0  0  0  0  0
   57.2614   31.4657   42.2283 H   0  0  0  0  0  0  0  0  0  0  0  0
   57.2586   33.2499   42.0203 H   0  0  0  0  0  0  0  0  0  0  0  0
   58.8121   32.3481   42.0203 H   0  0  0  0  0  0  0  0  0  0  0  0
   57.4430   34.6921   43.8437 H   0  0  0  0  0  0  0  0  0  0  0  0
   57.5170   35.0202   46.3130 H   0  0  0  0  0  0  0  0  0  0  0  0
   58.0017   33.0918   47.8173 H   0  0  0  0  0  0  0  0  0  0  0  0
   58.4517   30.8369   46.8551 H   0  0  0  0  0  0  0  0  0  0  0  0
   60.1076   29.1608   45.9390 H   0  0  0  0  0  0  0  0  0  0  0  0
   61.2931   27.9516   47.7608 H   0  0  0  0  0  0  0  0  0  0  0  0
   60.2554   25.9430   48.8106 H   0  0  0  0  0  0  0  0  0  0  0  0
   58.0512   25.1150   48.0132 H   0  0  0  0  0  0  0  0  0  0  0  0
  1  2  1  0
  2  3  2  0
  3  4  1  0
  4  5  2  0
  5  6  1  0
  6  7  2  0
  7  8  1  0
  8  9  1  0
  9 10  2  0
  9 11  2  0
  9 12  1  0
 12 13  2  0
 13 14  1  0
 14 15  2  0
 15 16  1  0
 16 17  2  0
 17 18  1  0
 18 19  2  0
 19 20  1  0
 20 21  1  0
 21 22  2  0
 21 23  1  0
  7  2  1  0
 17 12  1  0
 23 18  1  0
  1 24  1  0
  1 25  1  0
  1 26  1  0
  3 27  1  0
  4 28  1  0
  5 29  1  0
  6 30  1  0
 13 31  1  0
 14 32  1  0
 15 33  1  0
 16 34  1  0
M  CHG  2   8  -1  20  -1
M  END
>  <UniqueID>  (54) 
52

>  <SMILES>  (54) 
Cc1ccccc1[N-]S(=O)(=O)c1ccccc1-c1n[n-]c(=O)o1

>  <Energy>  (54) 
87.25508111141093

>  <Genealogy>  (54) 
Cc1ccccc1[N-]S(=O)(=O)c1ccccc1-c1n[n-]c(=O)o1 (protonated)
Cc1ccccc1[N-]S(=O)(=O)c1ccccc1-c1n[n-]c(=O)o1 (3D coordinates assigned)
Cc1ccccc1[N-]S(=O)(=O)c1ccccc1-c1n[n-]c(=O)o1 (optimized conformer: 87.25508111141093 kcal/mol)

>  <smiles>  (54) 
Cc1ccccc1NS(=O)(=O)c1ccccc1-c1n[nH]c(=O)o1

>  <score_type>  (54) 
oracle

>  <origin>  (54) 
adg

>  <m_score__min__energy>  (54) 
-11.81

>  <m_primary>  (54) 
energy

$$$$
54:0
     RDKit          3D

 36 37  0  0  0  0  0  0  0  0999 V2000
   53.6400   24.8340   45.6220 C   0  0  0  0  0  0  0  0  0  0  0  0
   54.5890   25.8780   45.9780 N   0  0  0  0  0  0  0  0  0  0  0  0
   55.9590   25.6060   46.2820 C   0  0  0  0  0  0  0  0  0  0  0  0
   56.2750   25.0700   47.3800 O   0  0  0  0  0  0  0  0  0  0  0  0
   57.0280   25.9860   45.3000 C   0  0  0  0  0  0  0  0  0  0  0  0
   57.6400   27.3520   45.5650 C   0  0  0  0  0  0  0  0  0  0  0  0
   57.2460   28.4780   44.8090 C   0  0  0  0  0  0  0  0  0  0  0  0
   57.8200   29.7360   45.0370 C   0  0  0  0  0  0  0  0  0  0  0  0
   57.3260   31.1250   44.0760 S   0  0  0  0  0  0  0  0  0  0  0  0
   56.1140   30.7680   43.2610 O   0  0  0  0  0  0  0  0  0  0  0  0
   58.4470   31.5160   43.1520 O   0  0  0  0  0  0  0  0  0  0  0  0
   56.9540   32.4390   45.1430 N   0  0  0  0  0  0  0  0  0  0  0  0
   57.9140   33.3390   45.7110 C   0  0  0  0  0  0  0  0  0  0  0  0
   58.3880   34.3980   44.9240 C   0  0  0  0  0  0  0  0  0  0  0  0
   59.3250   35.2990   45.4380 C   0  0  0  0  0  0  0  0  0  0  0  0
   59.7950   35.1490   46.7460 C   0  0  0  0  0  0  0  0  0  0  0  0
   59.3300   34.0970   47.5390 C   0  0  0  0  0  0  0  0  0  0  0  0
   59.9760   33.8920   49.3250 Br  0  0  0  0  0  0  0  0  0  0  0  0
   58.3920   33.1930   47.0270 C   0  0  0  0  0  0  0  0  0  0  0  0
   58.7680   29.8890   46.0520 C   0  0  0  0  0  0  0  0  0  0  0  0
   59.1320   28.7990   46.8410 C   0  0  0  0  0  0  0  0  0  0  0  0
   58.5630   27.5390   46.6250 C   0  0  0  0  0  0  0  0  0  0  0  0
   58.9250   26.5080   47.4970 O   0  0  0  0  0  0  0  0  0  0  0  0
   53.2302   24.3832   46.5379 H   0  0  0  0  0  0  0  0  0  0  0  0
   52.8216   25.2689   45.0295 H   0  0  0  0  0  0  0  0  0  0  0  0
   54.1508   24.0607   45.0295 H   0  0  0  0  0  0  0  0  0  0  0  0
   57.8273   25.2318   45.3469 H   0  0  0  0  0  0  0  0  0  0  0  0
   56.5537   26.0318   44.3085 H   0  0  0  0  0  0  0  0  0  0  0  0
   56.4775   28.3660   44.0300 H   0  0  0  0  0  0  0  0  0  0  0  0
   58.0199   34.5208   43.8947 H   0  0  0  0  0  0  0  0  0  0  0  0
   59.6926   36.1263   44.8131 H   0  0  0  0  0  0  0  0  0  0  0  0
   60.5309   35.8593   47.1508 H   0  0  0  0  0  0  0  0  0  0  0  0
   58.0274   32.3664   47.6546 H   0  0  0  0  0  0  0  0  0  0  0  0
   59.2283   30.8723   46.2289 H   0  0  0  0  0  0  0  0  0  0  0  0
   59.8744   28.9308   47.6419 H   0  0  0  0  0  0  0  0  0  0  0  0
   58.2940   25.7720   47.7860 H   0  0  0  0  0  0  0  0  0  0  0  0
  1  2  1  0
  2  3  1  0
  3  4  2  0
  3  5  1  0
  5  6  1  0
  6  7  2  0
  7  8  1  0
  8  9  1  0
  9 10  2  0
  9 11  2  0
  9 12  1  0
 12 13  1  0
 13 14  2  0
 14 15  1  0
 15 16  2  0
 16 17  1  0
 17 18  1  0
 17 19  2  0
  8 20  2  0
 20 21  1  0
 21 22  2  0
 22 23  1  0
 22  6  1  0
 19 13  1  0
  1 24  1  0
  1 25  1  0
  1 26  1  0
  5 27  1  0
  5 28  1  0
  7 29  1  0
 14 30  1  0
 15 31  1  0
 16 32  1  0
 19 33  1  0
 20 34  1  0
 21 35  1  0
 23 36  1  0
M  CHG  2   2  -1  12  -1
M  END
>  <UniqueID>  (55) 
53

>  <SMILES>  (55) 
C[N-]C(=O)Cc1cc(S(=O)(=O)[N-]c2cccc(Br)c2)ccc1O

>  <Energy>  (55) 
40.57802969962195

>  <Genealogy>  (55) 
C[N-]C(=O)Cc1cc(S(=O)(=O)[N-]c2cccc(Br)c2)ccc1O (protonated)
C[N-]C(=O)Cc1cc(S(=O)(=O)[N-]c2cccc(Br)c2)ccc1O (3D coordinates assigned)
C[N-]C(=O)Cc1cc(S(=O)(=O)[N-]c2cccc(Br)c2)ccc1O (optimized conformer: 40.57802969962195 kcal/mol)

>  <smiles>  (55) 
CNC(=O)Cc1cc(S(=O)(=O)Nc2cccc(Br)c2)ccc1O

>  <score_type>  (55) 
oracle

>  <origin>  (55) 
adg

>  <m_score__min__energy>  (55) 
-11.779999999999999

>  <m_primary>  (55) 
energy

$$$$
55:0
     RDKit          3D

 38 39  0  0  0  0  0  0  0  0999 V2000
   59.3536   35.5508   46.7497 H   0  0  0  0  0  0  0  0  0  0  0  0
   59.0940   34.5240   47.0470 C   0  0  0  0  0  0  0  0  0  0  0  0
   58.2330   33.7510   46.1270 C   0  0  0  0  0  0  0  0  0  0  0  0
   57.0820   34.1660   45.8230 O   0  0  0  0  0  0  0  0  0  0  0  0
   58.7290   32.5270   45.5650 N   0  0  0  0  0  0  0  0  0  0  0  0
   59.5570   32.0800   46.0210 H   0  0  0  0  0  0  0  0  0  0  0  0
   58.0310   31.7810   44.5550 C   0  0  0  0  0  0  0  0  0  0  0  0
   57.9460   32.3020   43.2550 C   0  0  0  0  0  0  0  0  0  0  0  0
   58.4206   33.2660   43.0197 H   0  0  0  0  0  0  0  0  0  0  0  0
   57.2610   31.6020   42.2570 C   0  0  0  0  0  0  0  0  0  0  0  0
   57.2078   32.0106   41.2371 H   0  0  0  0  0  0  0  0  0  0  0  0
   56.6440   30.3840   42.5540 C   0  0  0  0  0  0  0  0  0  0  0  0
   56.1133   29.8297   41.7658 H   0  0  0  0  0  0  0  0  0  0  0  0
   56.7010   29.8700   43.8520 C   0  0  0  0  0  0  0  0  0  0  0  0
   56.2064   28.9157   44.0859 H   0  0  0  0  0  0  0  0  0  0  0  0
   57.3850   30.5650   44.8550 C   0  0  0  0  0  0  0  0  0  0  0  0
   57.3730   30.0780   46.1210 F   0  0  0  0  0  0  0  0  0  0  0  0
   59.5860   34.0800   48.2140 C   0  0  0  0  0  0  0  0  0  0  0  0
   60.0469   34.8211   48.8836 H   0  0  0  0  0  0  0  0  0  0  0  0
   59.5580   32.6730   48.6720 C   0  0  0  0  0  0  0  0  0  0  0  0
   58.5850   32.2450   49.5920 C   0  0  0  0  0  0  0  0  0  0  0  0
   57.8604   32.9682   49.9944 H   0  0  0  0  0  0  0  0  0  0  0  0
   58.5290   30.9010   50.0030 C   0  0  0  0  0  0  0  0  0  0  0  0
   57.5910   30.4390   50.9380 O   0  0  0  0  0  0  0  0  0  0  0  0
   57.0040   31.2430   51.9550 C   0  0  0  0  0  0  0  0  0  0  0  0
   57.2898   30.8516   52.9425 H   0  0  0  0  0  0  0  0  0  0  0  0
   57.3596   32.2790   51.8543 H   0  0  0  0  0  0  0  0  0  0  0  0
   55.9089   31.2198   51.8543 H   0  0  0  0  0  0  0  0  0  0  0  0
   59.4370   29.9860   49.4660 C   0  0  0  0  0  0  0  0  0  0  0  0
   59.4037   28.9340   49.7856 H   0  0  0  0  0  0  0  0  0  0  0  0
   60.3870   30.3940   48.5270 C   0  0  0  0  0  0  0  0  0  0  0  0
   61.0887   29.6592   48.1055 H   0  0  0  0  0  0  0  0  0  0  0  0
   60.4530   31.7390   48.1160 C   0  0  0  0  0  0  0  0  0  0  0  0
   61.3940   32.1800   47.1700 O   0  0  0  0  0  0  0  0  0  0  0  0
   62.7550   32.4780   47.4630 C   0  0  0  0  0  0  0  0  0  0  0  0
   62.8970   32.5091   48.5534 H   0  0  0  0  0  0  0  0  0  0  0  0
   63.4019   31.7002   47.0310 H   0  0  0  0  0  0  0  0  0  0  0  0
   63.0177   33.4549   47.0310 H   0  0  0  0  0  0  0  0  0  0  0  0
  1  2  1  0
  2  3  1  0
  3  4  2  0
  3  5  1  0
  5  6  1  0
  5  7  1  0
  7  8  2  0
  8  9  1  0
  8 10  1  0
 10 11  1  0
 10 12  2  0
 12 13  1  0
 12 14  1  0
 14 15  1  0
 14 16  2  0
 16 17  1  0
  2 18  2  0
 18 19  1  0
 18 20  1  0
 20 21  2  0
 21 22  1  0
 21 23  1  0
 23 24  1  0
 24 25  1  0
 25 26  1  0
 25 27  1  0
 25 28  1  0
 23 29  2  0
 29 30  1  0
 29 31  1  0
 31 32  1  0
 31 33  2  0
 33 34  1  0
 34 35  1  0
 35 36  1  0
 35 37  1  0
 35 38  1  0
 16  7  1  0
 33 20  1  0
M  END
>  <UniqueID>  (56) 
54

>  <SMILES>  (56) 
COc1ccc(OC)c(/C=C\C(=O)Nc2ccccc2F)c1

>  <Energy>  (56) 
49.551237820500226

>  <Genealogy>  (56) 
COc1ccc(OC)c(/C=C\C(=O)Nc2ccccc2F)c1 (cis-trans isomerization)
COc1ccc(OC)c(/C=C\C(=O)Nc2ccccc2F)c1 (3D coordinates assigned)
COc1ccc(OC)c(/C=C\C(=O)Nc2ccccc2F)c1 (optimized conformer: 49.551237820500226 kcal/mol)

>  <smiles>  (56) 
COc1ccc(OC)c(C=CC(=O)Nc2ccccc2F)c1

>  <score_type>  (56) 
oracle

>  <origin>  (56) 
adg

>  <m_score__min__energy>  (56) 
-6.6399999999999997

>  <m_primary>  (56) 
energy

$$$$
56:0
     RDKit          3D

 39 41  0  0  0  0  0  0  0  0999 V2000
   61.1350   30.5000   47.9070 C   0  0  0  0  0  0  0  0  0  0  0  0
   60.7510   29.2230   47.8350 C   0  0  0  0  0  0  0  0  0  0  0  0
   60.5330   28.5320   46.5150 C   0  0  0  0  0  0  0  0  0  0  0  0
   59.1160   28.6340   46.0880 N   0  0  0  0  0  0  0  0  0  0  0  0
   58.6790   29.8110   45.5200 C   0  0  0  0  0  0  0  0  0  0  0  0
   59.4680   30.7930   45.4100 O   0  0  0  0  0  0  0  0  0  0  0  0
   57.3550   29.9550   45.0680 C   0  0  0  0  0  0  0  0  0  0  0  0
   56.9180   31.2380   44.4640 C   0  0  0  0  0  0  0  0  0  0  0  0
   56.6030   31.2690   43.2450 O   0  0  0  0  0  0  0  0  0  0  0  0
   56.7590   32.4280   45.2500 N   0  0  0  0  0  0  0  0  0  0  0  0
   57.8120   33.2220   45.8120 C   0  0  0  0  0  0  0  0  0  0  0  0
   58.4490   34.2380   45.0760 C   0  0  0  0  0  0  0  0  0  0  0  0
   59.4660   34.9970   45.6600 C   0  0  0  0  0  0  0  0  0  0  0  0
   59.8430   34.7630   46.9860 C   0  0  0  0  0  0  0  0  0  0  0  0
   59.1960   33.7740   47.7320 C   0  0  0  0  0  0  0  0  0  0  0  0
   59.7010   33.4650   49.5480 Br  0  0  0  0  0  0  0  0  0  0  0  0
   58.1770   33.0120   47.1480 C   0  0  0  0  0  0  0  0  0  0  0  0
   56.4580   28.8850   45.2130 C   0  0  0  0  0  0  0  0  0  0  0  0
   55.1460   28.9660   44.7310 O   0  0  0  0  0  0  0  0  0  0  0  0
   56.8870   27.7020   45.8310 C   0  0  0  0  0  0  0  0  0  0  0  0
   55.9910   26.6280   46.0070 C   0  0  0  0  0  0  0  0  0  0  0  0
   56.4090   25.4500   46.6200 C   0  0  0  0  0  0  0  0  0  0  0  0
   57.7200   25.3240   47.0660 C   0  0  0  0  0  0  0  0  0  0  0  0
   58.6250   26.3730   46.8990 C   0  0  0  0  0  0  0  0  0  0  0  0
   58.2330   27.5840   46.2730 C   0  0  0  0  0  0  0  0  0  0  0  0
   61.2853   30.9747   48.8879 H   0  0  0  0  0  0  0  0  0  0  0  0
   61.3010   31.0772   46.9854 H   0  0  0  0  0  0  0  0  0  0  0  0
   60.5894   28.6601   48.7661 H   0  0  0  0  0  0  0  0  0  0  0  0
   61.1727   29.0017   45.7533 H   0  0  0  0  0  0  0  0  0  0  0  0
   60.7880   27.4682   46.6305 H   0  0  0  0  0  0  0  0  0  0  0  0
   58.1452   34.4353   44.0374 H   0  0  0  0  0  0  0  0  0  0  0  0
   59.9712   35.7802   45.0757 H   0  0  0  0  0  0  0  0  0  0  0  0
   60.6486   35.3572   47.4419 H   0  0  0  0  0  0  0  0  0  0  0  0
   57.6599   32.2438   47.7418 H   0  0  0  0  0  0  0  0  0  0  0  0
   54.7820   29.7680   44.2330 H   0  0  0  0  0  0  0  0  0  0  0  0
   54.9524   26.7215   45.6569 H   0  0  0  0  0  0  0  0  0  0  0  0
   55.7015   24.6181   46.7517 H   0  0  0  0  0  0  0  0  0  0  0  0
   58.0453   24.3928   47.5529 H   0  0  0  0  0  0  0  0  0  0  0  0
   59.6584   26.2590   47.2584 H   0  0  0  0  0  0  0  0  0  0  0  0
  1  2  2  0
  2  3  1  0
  3  4  1  0
  4  5  1  0
  5  6  2  0
  5  7  1  0
  7  8  1  0
  8  9  2  0
  8 10  1  0
 10 11  1  0
 11 12  2  0
 12 13  1  0
 13 14  2  0
 14 15  1  0
 15 16  1  0
 15 17  2  0
  7 18  2  0
 18 19  1  0
 18 20  1  0
 20 21  2  0
 21 22  1  0
 22 23  2  0
 23 24  1  0
 24 25  2  0
 25  4  1  0
 17 11  1  0
 25 20  1  0
  1 26  1  0
  1 27  1  0
  2 28  1  0
  3 29  1  0
  3 30  1  0
 12 31  1  0
 13 32  1  0
 14 33  1  0
 17 34  1  0
 19 35  1  0
 21 36  1  0
 22 37  1  0
 23 38  1  0
 24 39  1  0
M  CHG  1  10  -1
M  END
>  <UniqueID>  (57) 
55

>  <SMILES>  (57) 
C=CCn1c(=O)c(C(=O)[N-]c2cccc(Br)c2)c(O)c2ccccc21

>  <Energy>  (57) 
61.39865544303413

>  <Genealogy>  (57) 
C=CCn1c(=O)c(C(=O)[N-]c2cccc(Br)c2)c(O)c2ccccc21 (protonated)
C=CCn1c(=O)c(C(=O)[N-]c2cccc(Br)c2)c(O)c2ccccc21 (3D coordinates assigned)
C=CCn1c(=O)c(C(=O)[N-]c2cccc(Br)c2)c(O)c2ccccc21 (optimized conformer: 61.39865544303413 kcal/mol)

>  <smiles>  (57) 
C=CCn1c(=O)c(C(=O)Nc2cccc(Br)c2)c(O)c2ccccc21

>  <score_type>  (57) 
oracle

>  <origin>  (57) 
adg

>  <m_score__min__energy>  (57) 
-9.3900000000000006

>  <m_primary>  (57) 
energy

$$$$
57:0
     RDKit          3D

 69 73  0  0  0  0  0  0  0  0999 V2000
   55.4720   29.8370   43.6540 C   0  0  0  0  0  0  0  0  0  0  0  0
   56.8960   30.3850   43.5830 C   0  0  0  0  0  0  0  0  0  0  0  0
   57.8440   29.5280   44.4000 C   0  0  0  0  0  0  0  0  0  0  0  0
   57.7350   28.1390   44.1860 C   0  0  0  0  0  0  0  0  0  0  0  0
   58.6090   27.2450   44.7900 C   0  0  0  0  0  0  0  0  0  0  0  0
   59.6280   27.7120   45.6050 C   0  0  0  0  0  0  0  0  0  0  0  0
   59.7820   29.0840   45.8470 C   0  0  0  0  0  0  0  0  0  0  0  0
   60.8050   29.4990   46.6470 N   0  0  0  0  0  0  0  0  0  0  0  0
   60.9830   30.8150   46.9440 C   0  0  0  0  0  0  0  0  0  0  0  0
   62.0710   31.2790   47.8520 C   0  0  0  0  0  0  0  0  0  0  0  0
   62.1530   30.7680   49.1610 C   0  0  0  0  0  0  0  0  0  0  0  0
   63.1780   31.1670   50.0220 C   0  0  0  0  0  0  0  0  0  0  0  0
   64.1460   32.0930   49.5980 C   0  0  0  0  0  0  0  0  0  0  0  0
   65.2370   32.5140   50.5060 C   0  0  0  0  0  0  0  0  0  0  0  0
   66.3960   32.0330   50.3690 O   0  0  0  0  0  0  0  0  0  0  0  0
   64.9790   33.4660   51.5430 N   0  0  0  0  0  0  0  0  0  0  0  0
   63.9100   34.4570   51.4880 C   0  0  0  0  0  0  0  0  0  0  0  0
   62.5670   33.8250   51.8880 C   0  0  0  0  0  0  0  0  0  0  0  0
   61.7020   33.5880   50.7100 N   0  0  0  0  0  0  0  0  0  0  0  0
   61.9460   34.5870   49.6450 C   0  0  0  0  0  0  0  0  0  0  0  0
   60.9240   34.4600   48.4960 C   0  0  0  0  0  0  0  0  0  0  0  0
   60.1100   33.2510   48.6540 N   0  0  0  0  0  0  0  0  0  0  0  0
   59.3610   33.3020   49.9170 C   0  0  0  0  0  0  0  0  0  0  0  0
   60.2800   33.6260   51.1130 C   0  0  0  0  0  0  0  0  0  0  0  0
   64.0740   32.5970   48.2900 C   0  0  0  0  0  0  0  0  0  0  0  0
   63.0570   32.1890   47.4230 C   0  0  0  0  0  0  0  0  0  0  0  0
   60.1420   31.7280   46.4050 N   0  0  0  0  0  0  0  0  0  0  0  0
   59.1160   31.3950   45.5810 C   0  0  0  0  0  0  0  0  0  0  0  0
   58.2820   32.4690   45.1260 N   0  0  0  0  0  0  0  0  0  0  0  0
   58.8460   33.4540   44.1960 C   0  0  0  0  0  0  0  0  0  0  0  0
   58.9460   34.8290   44.8820 C   0  0  0  0  0  0  0  0  0  0  0  0
   59.0040   34.6810   46.2890 O   0  0  0  0  0  0  0  0  0  0  0  0
   57.7610   34.2090   46.7870 C   0  0  0  0  0  0  0  0  0  0  0  0
   57.2440   32.9640   46.0330 C   0  0  0  0  0  0  0  0  0  0  0  0
   58.8850   30.0250   45.2600 C   0  0  0  0  0  0  0  0  0  0  0  0
   55.1752   29.7228   44.7070 H   0  0  0  0  0  0  0  0  0  0  0  0
   54.7851   30.5350   43.1531 H   0  0  0  0  0  0  0  0  0  0  0  0
   55.4302   28.8586   43.1531 H   0  0  0  0  0  0  0  0  0  0  0  0
   57.2282   30.3912   42.5344 H   0  0  0  0  0  0  0  0  0  0  0  0
   56.9018   31.4060   43.9924 H   0  0  0  0  0  0  0  0  0  0  0  0
   56.9417   27.7557   43.5274 H   0  0  0  0  0  0  0  0  0  0  0  0
   58.4924   26.1643   44.6213 H   0  0  0  0  0  0  0  0  0  0  0  0
   60.3245   26.9972   46.0676 H   0  0  0  0  0  0  0  0  0  0  0  0
   61.4770   28.7870   47.0090 H   0  0  0  0  0  0  0  0  0  0  0  0
   61.4006   30.0455   49.5102 H   0  0  0  0  0  0  0  0  0  0  0  0
   63.2278   30.7530   51.0399 H   0  0  0  0  0  0  0  0  0  0  0  0
   64.1432   35.2794   52.1802 H   0  0  0  0  0  0  0  0  0  0  0  0
   63.8310   34.8375   50.4589 H   0  0  0  0  0  0  0  0  0  0  0  0
   62.7597   32.8644   52.3880 H   0  0  0  0  0  0  0  0  0  0  0  0
   62.0466   34.5219   52.5614 H   0  0  0  0  0  0  0  0  0  0  0  0
   61.8711   35.5952   50.0785 H   0  0  0  0  0  0  0  0  0  0  0  0
   62.9496   34.4083   49.2316 H   0  0  0  0  0  0  0  0  0  0  0  0
   60.2655   35.3411   48.5001 H   0  0  0  0  0  0  0  0  0  0  0  0
   61.4707   34.3948   47.5437 H   0  0  0  0  0  0  0  0  0  0  0  0
   59.4180   33.2240   47.8670 H   0  0  0  0  0  0  0  0  0  0  0  0
   58.5870   34.0799   49.8412 H   0  0  0  0  0  0  0  0  0  0  0  0
   58.9107   32.3132   50.0887 H   0  0  0  0  0  0  0  0  0  0  0  0
   60.0392   34.6307   51.4906 H   0  0  0  0  0  0  0  0  0  0  0  0
   60.1162   32.8720   51.8970 H   0  0  0  0  0  0  0  0  0  0  0  0
   64.8263   33.3210   47.9437 H   0  0  0  0  0  0  0  0  0  0  0  0
   63.0260   32.5820   46.3961 H   0  0  0  0  0  0  0  0  0  0  0  0
   59.8495   33.1283   43.8849 H   0  0  0  0  0  0  0  0  0  0  0  0
   58.1910   33.5362   43.3161 H   0  0  0  0  0  0  0  0  0  0  0  0
   59.8555   35.3410   44.5346 H   0  0  0  0  0  0  0  0  0  0  0  0
   58.0546   35.4197   44.6240 H   0  0  0  0  0  0  0  0  0  0  0  0
   57.8841   33.9500   47.8489 H   0  0  0  0  0  0  0  0  0  0  0  0
   57.0224   35.0114   46.6438 H   0  0  0  0  0  0  0  0  0  0  0  0
   56.9872   32.1779   46.7583 H   0  0  0  0  0  0  0  0  0  0  0  0
   56.3512   33.2358   45.4507 H   0  0  0  0  0  0  0  0  0  0  0  0
  1  2  1  0
  2  3  1  0
  3  4  2  0
  4  5  1  0
  5  6  2  0
  6  7  1  0
  7  8  2  0
  8  9  1  0
  9 10  1  0
 10 11  2  0
 11 12  1  0
 12 13  2  0
 13 14  1  0
 14 15  2  0
 14 16  1  0
 16 17  1  0
 17 18  1  0
 18 19  1  0
 19 20  1  0
 20 21  1  0
 21 22  1  0
 22 23  1  0
 23 24  1  0
 13 25  1  0
 25 26  2  0
  9 27  2  0
 27 28  1  0
 28 29  1  0
 29 30  1  0
 30 31  1  0
 31 32  1  0
 32 33  1  0
 33 34  1  0
 28 35  2  0
 35  3  1  0
 35  7  1  0
 26 10  1  0
 34 29  1  0
 24 19  1  0
  1 36  1  0
  1 37  1  0
  1 38  1  0
  2 39  1  0
  2 40  1  0
  4 41  1  0
  5 42  1  0
  6 43  1  0
  8 44  1  0
 11 45  1  0
 12 46  1  0
 17 47  1  0
 17 48  1  0
 18 49  1  0
 18 50  1  0
 20 51  1  0
 20 52  1  0
 21 53  1  0
 21 54  1  0
 22 55  1  0
 23 56  1  0
 23 57  1  0
 24 58  1  0
 24 59  1  0
 25 60  1  0
 26 61  1  0
 30 62  1  0
 30 63  1  0
 31 64  1  0
 31 65  1  0
 33 66  1  0
 33 67  1  0
 34 68  1  0
 34 69  1  0
M  CHG  2   8   1  16  -1
M  END
>  <UniqueID>  (58) 
56

>  <SMILES>  (58) 
CCc1cccc2[nH+]c(-c3ccc(C(=O)[N-]CCN4CCNCC4)cc3)nc(N3CCOCC3)c12

>  <Energy>  (58) 
107.47292090938737

>  <Genealogy>  (58) 
CCc1cccc2[nH+]c(-c3ccc(C(=O)[N-]CCN4CCNCC4)cc3)nc(N3CCOCC3)c12 (protonated)
CCc1cccc2[nH+]c(-c3ccc(C(=O)[N-]CCN4CCNCC4)cc3)nc(N3CCOCC3)c12 (3D coordinates assigned)
CCc1cccc2[nH+]c(-c3ccc(C(=O)[N-]CCN4CCNCC4)cc3)nc(N3CCOCC3)c12 (nonaromatic ring conformer: 107.47292090938737 kcal/mol)

>  <smiles>  (58) 
CCc1cccc2nc(-c3ccc(C(=O)NCCN4CCNCC4)cc3)nc(N3CCOCC3)c12

>  <score_type>  (58) 
oracle

>  <origin>  (58) 
adg

>  <m_score__min__energy>  (58) 
-9.5299999999999994

>  <m_primary>  (58) 
energy

$$$$
58:0
     RDKit          3D

 50 52  0  0  0  0  0  0  0  0999 V2000
   57.7730   34.3790   45.9900 C   0  0  0  0  0  0  0  0  0  0  0  0
   58.1740   32.9330   45.8970 C   0  0  0  0  0  0  0  0  0  0  0  0
   57.3310   32.0180   45.2460 C   0  0  0  0  0  0  0  0  0  0  0  0
   57.7070   30.6750   45.1130 C   0  0  0  0  0  0  0  0  0  0  0  0
   56.6610   29.5510   44.2530 S   0  0  0  0  0  0  0  0  0  0  0  0
   55.1950   29.3440   45.1430 N   0  0  0  0  0  0  0  0  0  0  0  0
   56.3460   30.0870   42.8850 O   0  0  0  0  0  0  0  0  0  0  0  0
   57.3530   28.2250   44.1050 O   0  0  0  0  0  0  0  0  0  0  0  0
   58.9320   30.2430   45.6320 C   0  0  0  0  0  0  0  0  0  0  0  0
   59.7860   31.1500   46.2620 C   0  0  0  0  0  0  0  0  0  0  0  0
   59.4290   32.5020   46.3710 C   0  0  0  0  0  0  0  0  0  0  0  0
   60.3400   33.4460   46.9480 N   0  0  0  0  0  0  0  0  0  0  0  0
   61.5740   33.1120   47.6030 C   0  0  0  0  0  0  0  0  0  0  0  0
   62.6120   32.9780   46.9040 O   0  0  0  0  0  0  0  0  0  0  0  0
   61.6650   32.8850   49.0940 C   0  0  0  0  0  0  0  0  0  0  0  0
   60.3240   32.5510   49.7000 C   0  0  0  0  0  0  0  0  0  0  0  0
   59.7150   33.4320   50.6080 C   0  0  0  0  0  0  0  0  0  0  0  0
   58.5160   33.0830   51.2350 C   0  0  0  0  0  0  0  0  0  0  0  0
   57.9060   31.8470   50.9630 C   0  0  0  0  0  0  0  0  0  0  0  0
   56.6820   31.4570   51.6070 N   0  0  0  0  0  0  0  0  0  0  0  0
   56.4640   30.1680   52.1950 C   0  0  0  0  0  0  0  0  0  0  0  0
   57.2770   29.2270   51.9870 O   0  0  0  0  0  0  0  0  0  0  0  0
   55.2650   29.9370   52.9440 N   0  0  0  0  0  0  0  0  0  0  0  0
   53.9470   30.3910   52.6050 C   0  0  0  0  0  0  0  0  0  0  0  0
   53.0040   30.7500   53.5860 C   0  0  0  0  0  0  0  0  0  0  0  0
   51.7380   31.2090   53.2100 C   0  0  0  0  0  0  0  0  0  0  0  0
   51.4070   31.3280   51.8570 C   0  0  0  0  0  0  0  0  0  0  0  0
   52.3470   30.9950   50.8780 C   0  0  0  0  0  0  0  0  0  0  0  0
   53.6140   30.5370   51.2510 C   0  0  0  0  0  0  0  0  0  0  0  0
   58.4820   30.9950   50.0090 C   0  0  0  0  0  0  0  0  0  0  0  0
   59.6800   31.3430   49.3820 C   0  0  0  0  0  0  0  0  0  0  0  0
   57.6923   34.6698   47.0478 H   0  0  0  0  0  0  0  0  0  0  0  0
   58.5321   35.0026   45.4951 H   0  0  0  0  0  0  0  0  0  0  0  0
   56.8011   34.5226   45.4951 H   0  0  0  0  0  0  0  0  0  0  0  0
   56.3681   32.3583   44.8373 H   0  0  0  0  0  0  0  0  0  0  0  0
   54.4130   29.3520   44.4520 H   0  0  0  0  0  0  0  0  0  0  0  0
   59.2232   29.1859   45.5435 H   0  0  0  0  0  0  0  0  0  0  0  0
   60.7443   30.8024   46.6753 H   0  0  0  0  0  0  0  0  0  0  0  0
   62.3577   32.0520   49.2844 H   0  0  0  0  0  0  0  0  0  0  0  0
   62.0237   33.8160   49.5572 H   0  0  0  0  0  0  0  0  0  0  0  0
   60.1844   34.4024   50.8270 H   0  0  0  0  0  0  0  0  0  0  0  0
   58.0472   33.7798   51.9454 H   0  0  0  0  0  0  0  0  0  0  0  0
   55.8670   32.1100   51.5600 H   0  0  0  0  0  0  0  0  0  0  0  0
   53.2637   30.6692   54.6518 H   0  0  0  0  0  0  0  0  0  0  0  0
   51.0005   31.4772   53.9808 H   0  0  0  0  0  0  0  0  0  0  0  0
   50.4082   31.6832   51.5634 H   0  0  0  0  0  0  0  0  0  0  0  0
   52.0897   31.0934   49.8130 H   0  0  0  0  0  0  0  0  0  0  0  0
   54.3550   30.2894   50.4766 H   0  0  0  0  0  0  0  0  0  0  0  0
   57.9867   30.0467   49.7533 H   0  0  0  0  0  0  0  0  0  0  0  0
   60.1223   30.6677   48.6348 H   0  0  0  0  0  0  0  0  0  0  0  0
  1  2  1  0
  2  3  2  0
  3  4  1  0
  4  5  1  0
  5  6  1  0
  5  7  2  0
  5  8  2  0
  4  9  2  0
  9 10  1  0
 10 11  2  0
 11 12  1  0
 12 13  1  0
 13 14  2  0
 13 15  1  0
 15 16  1  0
 16 17  2  0
 17 18  1  0
 18 19  2  0
 19 20  1  0
 20 21  1  0
 21 22  2  0
 21 23  1  0
 23 24  1  0
 24 25  2  0
 25 26  1  0
 26 27  2  0
 27 28  1  0
 28 29  2  0
 19 30  1  0
 30 31  2  0
 11  2  1  0
 31 16  1  0
 29 24  1  0
  1 32  1  0
  1 33  1  0
  1 34  1  0
  3 35  1  0
  6 36  1  0
  9 37  1  0
 10 38  1  0
 15 39  1  0
 15 40  1  0
 17 41  1  0
 18 42  1  0
 20 43  1  0
 25 44  1  0
 26 45  1  0
 27 46  1  0
 28 47  1  0
 29 48  1  0
 30 49  1  0
 31 50  1  0
M  CHG  3   6  -1  12  -1  23  -1
M  END
>  <UniqueID>  (59) 
57

>  <SMILES>  (59) 
Cc1cc(S([NH-])(=O)=O)ccc1[N-]C(=O)Cc1ccc(NC(=O)[N-]c2ccccc2)cc1

>  <Energy>  (59) 
60.07139998809357

>  <Genealogy>  (59) 
Cc1cc(S([NH-])(=O)=O)ccc1[N-]C(=O)Cc1ccc(NC(=O)[N-]c2ccccc2)cc1 (protonated)
Cc1cc(S([NH-])(=O)=O)ccc1[N-]C(=O)Cc1ccc(NC(=O)[N-]c2ccccc2)cc1 (3D coordinates assigned)
Cc1cc(S([NH-])(=O)=O)ccc1[N-]C(=O)Cc1ccc(NC(=O)[N-]c2ccccc2)cc1 (optimized conformer: 60.07139998809357 kcal/mol)

>  <smiles>  (59) 
Cc1cc(S(N)(=O)=O)ccc1NC(=O)Cc1ccc(NC(=O)Nc2ccccc2)cc1

>  <score_type>  (59) 
oracle

>  <origin>  (59) 
adg

>  <m_score__min__energy>  (59) 
-13.81

>  <m_primary>  (59) 
energy

$$$$
59:0
     RDKit          3D

 47 49  0  0  0  0  0  0  0  0999 V2000
   57.7000   31.5670   43.0410 C   0  0  0  0  0  0  0  0  0  0  0  0
   56.6290   30.2520   43.5780 S   0  0  0  0  0  0  0  0  0  0  0  0
   55.9700   29.6300   42.3790 O   0  0  0  0  0  0  0  0  0  0  0  0
   55.5820   30.8140   44.4980 O   0  0  0  0  0  0  0  0  0  0  0  0
   57.5590   29.0790   44.4070 O   0  0  0  0  0  0  0  0  0  0  0  0
   58.6230   29.3710   45.2720 C   0  0  0  0  0  0  0  0  0  0  0  0
   59.9220   29.0580   44.8500 C   0  0  0  0  0  0  0  0  0  0  0  0
   61.0210   29.3390   45.6660 C   0  0  0  0  0  0  0  0  0  0  0  0
   60.8320   29.9330   46.9160 C   0  0  0  0  0  0  0  0  0  0  0  0
   59.5380   30.2440   47.3560 C   0  0  0  0  0  0  0  0  0  0  0  0
   59.2830   30.9810   48.9340 S   0  0  0  0  0  0  0  0  0  0  0  0
   60.5810   30.9870   49.6900 O   0  0  0  0  0  0  0  0  0  0  0  0
   58.2640   30.2110   49.7280 O   0  0  0  0  0  0  0  0  0  0  0  0
   58.7320   32.6140   48.7300 N   0  0  0  0  0  0  0  0  0  0  0  0
   58.6350   33.2720   47.4520 C   0  0  0  0  0  0  0  0  0  0  0  0
   57.3980   33.3760   46.7850 C   0  0  0  0  0  0  0  0  0  0  0  0
   57.3200   33.9630   45.5210 C   0  0  0  0  0  0  0  0  0  0  0  0
   58.4700   34.4530   44.9030 C   0  0  0  0  0  0  0  0  0  0  0  0
   59.7040   34.3610   45.5490 C   0  0  0  0  0  0  0  0  0  0  0  0
   59.7970   33.7760   46.8230 C   0  0  0  0  0  0  0  0  0  0  0  0
   61.0750   33.7100   47.4790 N   0  0  0  0  0  0  0  0  0  0  0  0
   61.2200   34.2470   48.8350 C   0  0  0  0  0  0  0  0  0  0  0  0
   62.3760   33.5370   49.5490 C   0  0  0  0  0  0  0  0  0  0  0  0
   63.5530   33.5720   48.7590 O   0  0  0  0  0  0  0  0  0  0  0  0
   63.3540   32.8350   47.5670 C   0  0  0  0  0  0  0  0  0  0  0  0
   62.2920   33.5030   46.6900 C   0  0  0  0  0  0  0  0  0  0  0  0
   58.4380   29.9630   46.5350 C   0  0  0  0  0  0  0  0  0  0  0  0
   58.1184   32.0808   43.9190 H   0  0  0  0  0  0  0  0  0  0  0  0
   58.5183   31.1495   42.4360 H   0  0  0  0  0  0  0  0  0  0  0  0
   57.1255   32.2839   42.4360 H   0  0  0  0  0  0  0  0  0  0  0  0
   60.0779   28.5872   43.8682 H   0  0  0  0  0  0  0  0  0  0  0  0
   62.0367   29.0920   45.3234 H   0  0  0  0  0  0  0  0  0  0  0  0
   61.6988   30.1568   47.5552 H   0  0  0  0  0  0  0  0  0  0  0  0
   58.4320   33.1170   49.5950 H   0  0  0  0  0  0  0  0  0  0  0  0
   56.4859   32.9912   47.2647 H   0  0  0  0  0  0  0  0  0  0  0  0
   56.3484   34.0393   45.0109 H   0  0  0  0  0  0  0  0  0  0  0  0
   58.4047   34.9124   43.9057 H   0  0  0  0  0  0  0  0  0  0  0  0
   60.6087   34.7487   45.0578 H   0  0  0  0  0  0  0  0  0  0  0  0
   61.4303   35.3254   48.7810 H   0  0  0  0  0  0  0  0  0  0  0  0
   60.2879   34.0809   49.3950 H   0  0  0  0  0  0  0  0  0  0  0  0
   62.5703   34.0392   50.5082 H   0  0  0  0  0  0  0  0  0  0  0  0
   62.0950   32.4868   49.7168 H   0  0  0  0  0  0  0  0  0  0  0  0
   64.3019   32.7842   47.0111 H   0  0  0  0  0  0  0  0  0  0  0  0
   63.0113   31.8232   47.8293 H   0  0  0  0  0  0  0  0  0  0  0  0
   62.6676   34.4729   46.3321 H   0  0  0  0  0  0  0  0  0  0  0  0
   62.0674   32.8589   45.8270 H   0  0  0  0  0  0  0  0  0  0  0  0
   57.4225   30.2069   46.8803 H   0  0  0  0  0  0  0  0  0  0  0  0
  1  2  1  0
  2  3  2  0
  2  4  2  0
  2  5  1  0
  5  6  1  0
  6  7  2  0
  7  8  1  0
  8  9  2  0
  9 10  1  0
 10 11  1  0
 11 12  2  0
 11 13  2  0
 11 14  1  0
 14 15  1  0
 15 16  2  0
 16 17  1  0
 17 18  2  0
 18 19  1  0
 19 20  2  0
 20 21  1  0
 21 22  1  0
 22 23  1  0
 23 24  1  0
 24 25  1  0
 25 26  1  0
 10 27  2  0
 27  6  1  0
 20 15  1  0
 26 21  1  0
  1 28  1  0
  1 29  1  0
  1 30  1  0
  7 31  1  0
  8 32  1  0
  9 33  1  0
 14 34  1  0
 16 35  1  0
 17 36  1  0
 18 37  1  0
 19 38  1  0
 22 39  1  0
 22 40  1  0
 23 41  1  0
 23 42  1  0
 25 43  1  0
 25 44  1  0
 26 45  1  0
 26 46  1  0
 27 47  1  0
M  END
>  <UniqueID>  (60) 
58

>  <SMILES>  (60) 
CS(=O)(=O)Oc1cccc(S(=O)(=O)Nc2ccccc2N2CCOCC2)c1

>  <Energy>  (60) 
52.699320498622676

>  <Genealogy>  (60) 
CS(=O)(=O)Oc1cccc(S(=O)(=O)Nc2ccccc2N2CCOCC2)c1 (3D coordinates assigned)
CS(=O)(=O)Oc1cccc(S(=O)(=O)Nc2ccccc2N2CCOCC2)c1 (nonaromatic ring conformer: 52.699320498622676 kcal/mol)

>  <smiles>  (60) 
CS(=O)(=O)Oc1cccc(S(=O)(=O)Nc2ccccc2N2CCOCC2)c1

>  <score_type>  (60) 
oracle

>  <origin>  (60) 
adg

>  <m_score__min__energy>  (60) 
-8.8599999999999994

>  <m_primary>  (60) 
energy

$$$$
60:0
     RDKit          3D

 48 50  0  0  0  0  0  0  0  0999 V2000
   62.8920   31.9190   50.4730 C   0  0  0  0  0  0  0  0  0  0  0  0
   61.5730   31.7430   49.9640 O   0  0  0  0  0  0  0  0  0  0  0  0
   61.1800   30.6900   49.1220 C   0  0  0  0  0  0  0  0  0  0  0  0
   60.6200   29.5000   49.6250 C   0  0  0  0  0  0  0  0  0  0  0  0
   60.2430   28.4750   48.7570 C   0  0  0  0  0  0  0  0  0  0  0  0
   60.4220   28.6160   47.3750 C   0  0  0  0  0  0  0  0  0  0  0  0
   59.9830   27.5210   46.4360 C   0  0  0  0  0  0  0  0  0  0  0  0
   59.0220   26.5440   47.1250 C   0  0  0  0  0  0  0  0  0  0  0  0
   57.6960   27.1440   47.2960 N   0  0  0  0  0  0  0  0  0  0  0  0
   56.8320   27.2200   45.7880 S   0  0  0  0  0  0  0  0  0  0  0  0
   57.5000   26.3790   44.7360 O   0  0  0  0  0  0  0  0  0  0  0  0
   55.4380   26.7010   46.0050 O   0  0  0  0  0  0  0  0  0  0  0  0
   56.7440   28.8830   45.2360 C   0  0  0  0  0  0  0  0  0  0  0  0
   55.5930   29.4930   44.8810 N   0  0  0  0  0  0  0  0  0  0  0  0
   55.7650   30.7560   44.4970 N   0  0  0  0  0  0  0  0  0  0  0  0
   57.0590   31.1490   44.5490 C   0  0  0  0  0  0  0  0  0  0  0  0
   57.4830   32.3350   44.2260 N   0  0  0  0  0  0  0  0  0  0  0  0
   57.4100   33.5160   45.0440 C   0  0  0  0  0  0  0  0  0  0  0  0
   56.6780   34.4860   44.7050 O   0  0  0  0  0  0  0  0  0  0  0  0
   58.2050   33.5960   46.2940 C   0  0  0  0  0  0  0  0  0  0  0  0
   57.9230   32.7460   47.3800 C   0  0  0  0  0  0  0  0  0  0  0  0
   58.6720   32.8280   48.5580 C   0  0  0  0  0  0  0  0  0  0  0  0
   59.7070   33.7590   48.6680 C   0  0  0  0  0  0  0  0  0  0  0  0
   60.0000   34.6060   47.5970 C   0  0  0  0  0  0  0  0  0  0  0  0
   59.2540   34.5280   46.4150 C   0  0  0  0  0  0  0  0  0  0  0  0
   58.0680   29.9160   45.0880 S   0  0  0  0  0  0  0  0  0  0  0  0
   60.9680   29.8040   46.8670 C   0  0  0  0  0  0  0  0  0  0  0  0
   61.3540   30.8440   47.7370 C   0  0  0  0  0  0  0  0  0  0  0  0
   61.9110   32.0430   47.2640 O   0  0  0  0  0  0  0  0  0  0  0  0
   63.3070   32.2940   47.1500 C   0  0  0  0  0  0  0  0  0  0  0  0
   62.8642   31.9153   51.5726 H   0  0  0  0  0  0  0  0  0  0  0  0
   63.5339   31.0985   50.1197 H   0  0  0  0  0  0  0  0  0  0  0  0
   63.2963   32.8791   50.1197 H   0  0  0  0  0  0  0  0  0  0  0  0
   60.4789   29.3778   50.7091 H   0  0  0  0  0  0  0  0  0  0  0  0
   59.8028   27.5510   49.1601 H   0  0  0  0  0  0  0  0  0  0  0  0
   59.4746   27.9733   45.5717 H   0  0  0  0  0  0  0  0  0  0  0  0
   60.8745   26.9616   46.1160 H   0  0  0  0  0  0  0  0  0  0  0  0
   58.9296   25.6366   46.5101 H   0  0  0  0  0  0  0  0  0  0  0  0
   59.4256   26.2973   48.1181 H   0  0  0  0  0  0  0  0  0  0  0  0
   57.1075   32.0119   47.3014 H   0  0  0  0  0  0  0  0  0  0  0  0
   58.4454   32.1575   49.4001 H   0  0  0  0  0  0  0  0  0  0  0  0
   60.2912   33.8252   49.5977 H   0  0  0  0  0  0  0  0  0  0  0  0
   60.8186   35.3359   47.6824 H   0  0  0  0  0  0  0  0  0  0  0  0
   59.4886   35.1989   45.5754 H   0  0  0  0  0  0  0  0  0  0  0  0
   61.0960   29.9251   45.7812 H   0  0  0  0  0  0  0  0  0  0  0  0
   63.7485   32.3734   48.1544 H   0  0  0  0  0  0  0  0  0  0  0  0
   63.7848   31.4674   46.6037 H   0  0  0  0  0  0  0  0  0  0  0  0
   63.4669   33.2353   46.6037 H   0  0  0  0  0  0  0  0  0  0  0  0
  1  2  1  0
  2  3  1  0
  3  4  2  0
  4  5  1  0
  5  6  2  0
  6  7  1  0
  7  8  1  0
  8  9  1  0
  9 10  1  0
 10 11  2  0
 10 12  2  0
 10 13  1  0
 13 14  2  0
 14 15  1  0
 15 16  1  0
 16 17  2  3
 17 18  1  0
 18 19  2  0
 18 20  1  0
 20 21  2  0
 21 22  1  0
 22 23  2  0
 23 24  1  0
 24 25  2  0
 16 26  1  0
  6 27  1  0
 27 28  2  0
 28 29  1  0
 29 30  1  0
 28  3  1  0
 26 13  1  0
 25 20  1  0
  1 31  1  0
  1 32  1  0
  1 33  1  0
  4 34  1  0
  5 35  1  0
  7 36  1  0
  7 37  1  0
  8 38  1  0
  8 39  1  0
 21 40  1  0
 22 41  1  0
 23 42  1  0
 24 43  1  0
 25 44  1  0
 27 45  1  0
 30 46  1  0
 30 47  1  0
 30 48  1  0
M  CHG  2   9  -1  15  -1
M  END
>  <UniqueID>  (61) 
59

>  <SMILES>  (61) 
COc1ccc(CC[N-]S(=O)(=O)c2n[n-]c(=NC(=O)c3ccccc3)s2)cc1OC

>  <Energy>  (61) 
84.34957801533521

>  <Genealogy>  (61) 
COc1ccc(CC[N-]S(=O)(=O)c2n[n-]c(=NC(=O)c3ccccc3)s2)cc1OC (protonated)
COc1ccc(CC[N-]S(=O)(=O)c2n[n-]c(=NC(=O)c3ccccc3)s2)cc1OC (3D coordinates assigned)
COc1ccc(CC[N-]S(=O)(=O)c2n[n-]c(=NC(=O)c3ccccc3)s2)cc1OC (optimized conformer: 84.34957801533521 kcal/mol)

>  <smiles>  (61) 
COc1ccc(CCNS(=O)(=O)c2n[nH]c(=NC(=O)c3ccccc3)s2)cc1OC

>  <score_type>  (61) 
oracle

>  <origin>  (61) 
adg

>  <m_score__min__energy>  (61) 
-11.08

>  <m_primary>  (61) 
energy

$$$$
61:0
     RDKit          3D

 43 45  0  0  0  0  0  0  0  0999 V2000
   64.9070   33.0020   49.3870 C   0  0  0  0  0  0  0  0  0  0  0  0
   63.6060   33.2910   48.7240 C   0  0  0  0  0  0  0  0  0  0  0  0
   63.4580   33.0370   47.3750 C   0  0  0  0  0  0  0  0  0  0  0  0
   62.2370   33.3080   46.7580 C   0  0  0  0  0  0  0  0  0  0  0  0
   61.1710   33.8160   47.4200 C   0  0  0  0  0  0  0  0  0  0  0  0
   59.6230   34.1860   46.7080 S   0  0  0  0  0  0  0  0  0  0  0  0
   59.7810   33.9860   45.2240 O   0  0  0  0  0  0  0  0  0  0  0  0
   59.2560   35.6260   46.8890 O   0  0  0  0  0  0  0  0  0  0  0  0
   58.4690   33.1100   47.3370 N   0  0  0  0  0  0  0  0  0  0  0  0
   58.6730   32.1570   48.3440 C   0  0  0  0  0  0  0  0  0  0  0  0
   58.3480   32.3490   49.6740 C   0  0  0  0  0  0  0  0  0  0  0  0
   58.5530   31.3990   50.6500 C   0  0  0  0  0  0  0  0  0  0  0  0
   59.1080   30.1790   50.3340 C   0  0  0  0  0  0  0  0  0  0  0  0
   59.4430   29.9550   49.0210 C   0  0  0  0  0  0  0  0  0  0  0  0
   59.2360   30.9070   48.0480 C   0  0  0  0  0  0  0  0  0  0  0  0
   59.7220   30.4780   46.3790 S   0  0  0  0  0  0  0  0  0  0  0  0
   58.3710   30.5080   45.2370 C   0  0  0  0  0  0  0  0  0  0  0  0
   58.5130   31.2770   44.1190 N   0  0  0  0  0  0  0  0  0  0  0  0
   57.5580   31.3790   43.1820 C   0  0  0  0  0  0  0  0  0  0  0  0
   57.8170   32.2430   42.0070 C   0  0  0  0  0  0  0  0  0  0  0  0
   56.3830   30.6770   43.3520 C   0  0  0  0  0  0  0  0  0  0  0  0
   56.2290   29.8960   44.4780 C   0  0  0  0  0  0  0  0  0  0  0  0
   55.1610   29.2600   44.6270 O   0  0  0  0  0  0  0  0  0  0  0  0
   57.2240   29.8260   45.3970 N   0  0  0  0  0  0  0  0  0  0  0  0
   61.3370   34.0680   48.7870 C   0  0  0  0  0  0  0  0  0  0  0  0
   62.5310   33.8110   49.4320 C   0  0  0  0  0  0  0  0  0  0  0  0
   64.7765   33.0310   50.4789 H   0  0  0  0  0  0  0  0  0  0  0  0
   65.2582   32.0040   49.0861 H   0  0  0  0  0  0  0  0  0  0  0  0
   65.6477   33.7575   49.0861 H   0  0  0  0  0  0  0  0  0  0  0  0
   64.2951   32.6248   46.7925 H   0  0  0  0  0  0  0  0  0  0  0  0
   62.1353   33.0991   45.6828 H   0  0  0  0  0  0  0  0  0  0  0  0
   57.4840   33.1600   46.9300 H   0  0  0  0  0  0  0  0  0  0  0  0
   57.9024   33.3107   49.9681 H   0  0  0  0  0  0  0  0  0  0  0  0
   58.2710   31.6167   51.6907 H   0  0  0  0  0  0  0  0  0  0  0  0
   59.2768   29.4123   51.1045 H   0  0  0  0  0  0  0  0  0  0  0  0
   59.8885   28.9895   48.7393 H   0  0  0  0  0  0  0  0  0  0  0  0
   58.1173   33.2449   42.3477 H   0  0  0  0  0  0  0  0  0  0  0  0
   58.6233   31.8050   41.4004 H   0  0  0  0  0  0  0  0  0  0  0  0
   56.9027   32.3208   41.4004 H   0  0  0  0  0  0  0  0  0  0  0  0
   55.5814   30.7391   42.6013 H   0  0  0  0  0  0  0  0  0  0  0  0
   57.0980   29.2390   46.2380 H   0  0  0  0  0  0  0  0  0  0  0  0
   60.4952   34.4812   49.3620 H   0  0  0  0  0  0  0  0  0  0  0  0
   62.6302   34.0185   50.5077 H   0  0  0  0  0  0  0  0  0  0  0  0
  1  2  1  0
  2  3  2  0
  3  4  1  0
  4  5  2  0
  5  6  1  0
  6  7  2  0
  6  8  2  0
  6  9  1  0
  9 10  1  0
 10 11  2  0
 11 12  1  0
 12 13  2  0
 13 14  1  0
 14 15  2  0
 15 16  1  0
 16 17  1  0
 17 18  2  0
 18 19  1  0
 19 20  1  0
 19 21  2  0
 21 22  1  0
 22 23  2  0
 22 24  1  0
  5 25  1  0
 25 26  2  0
 26  2  1  0
 15 10  1  0
 24 17  1  0
  1 27  1  0
  1 28  1  0
  1 29  1  0
  3 30  1  0
  4 31  1  0
  9 32  1  0
 11 33  1  0
 12 34  1  0
 13 35  1  0
 14 36  1  0
 20 37  1  0
 20 38  1  0
 20 39  1  0
 21 40  1  0
 24 41  1  0
 25 42  1  0
 26 43  1  0
M  END
>  <smiles>  (62) 
Cc1ccc(S(=O)(=O)Nc2ccccc2Sc2nc(C)cc(=O)[nH]2)cc1

>  <score_type>  (62) 
oracle

>  <origin>  (62) 
adg

>  <m_score__min__energy>  (62) 
-10

>  <m_primary>  (62) 
energy

$$$$
62:0
     RDKit          3D

 47 49  0  0  0  0  0  0  0  0999 V2000
   54.7040   26.1610   45.9410 N   0  0  0  0  0  0  0  0  0  0  0  0
   56.2210   25.3620   46.1310 S   0  0  0  0  0  0  0  0  0  0  0  0
   56.5420   24.5700   44.8940 O   0  0  0  0  0  0  0  0  0  0  0  0
   56.1410   24.4310   47.3070 O   0  0  0  0  0  0  0  0  0  0  0  0
   57.4710   26.5720   46.3890 C   0  0  0  0  0  0  0  0  0  0  0  0
   58.4750   26.3790   47.3490 C   0  0  0  0  0  0  0  0  0  0  0  0
   59.4430   27.3660   47.5600 C   0  0  0  0  0  0  0  0  0  0  0  0
   59.4290   28.5440   46.7990 C   0  0  0  0  0  0  0  0  0  0  0  0
   60.4500   29.5770   47.0190 C   0  0  0  0  0  0  0  0  0  0  0  0
   60.7940   30.3130   46.0570 O   0  0  0  0  0  0  0  0  0  0  0  0
   61.0560   29.7780   48.3050 N   0  0  0  0  0  0  0  0  0  0  0  0
   60.9040   30.9720   49.1400 C   0  0  2  0  0  0  0  0  0  0  0  0
   59.5140   31.5270   49.0090 C   0  0  0  0  0  0  0  0  0  0  0  0
   58.5270   30.7750   49.2360 O   0  0  0  0  0  0  0  0  0  0  0  0
   59.3370   32.9110   48.6610 N   0  0  0  0  0  0  0  0  0  0  0  0
   59.0870   33.4200   47.4860 C   0  0  0  0  0  0  0  0  0  0  0  0
   59.8970   34.5310   46.8610 C   0  0  0  0  0  0  0  0  0  0  0  0
   59.3080   34.9010   45.4940 C   0  0  0  0  0  0  0  0  0  0  0  0
   57.9550   33.7980   45.1930 S   0  0  0  0  0  0  0  0  0  0  0  0
   58.2430   32.8990   44.0200 O   0  0  0  0  0  0  0  0  0  0  0  0
   56.6730   34.5520   44.9810 O   0  0  0  0  0  0  0  0  0  0  0  0
   57.9290   32.8990   46.7080 C   0  0  0  0  0  0  0  0  0  0  0  0
   61.9010   32.0470   48.7540 C   0  0  0  0  0  0  0  0  0  0  0  0
   62.1240   33.1230   49.6300 C   0  0  0  0  0  0  0  0  0  0  0  0
   62.9500   34.1890   49.2570 C   0  0  0  0  0  0  0  0  0  0  0  0
   63.5720   34.1880   48.0090 C   0  0  0  0  0  0  0  0  0  0  0  0
   63.3740   33.1210   47.1300 C   0  0  0  0  0  0  0  0  0  0  0  0
   62.5360   32.0610   47.4900 C   0  0  0  0  0  0  0  0  0  0  0  0
   58.4300   28.7350   45.8360 C   0  0  0  0  0  0  0  0  0  0  0  0
   57.4520   27.7550   45.6360 C   0  0  0  0  0  0  0  0  0  0  0  0
   54.7850   27.0970   46.3870 H   0  0  0  0  0  0  0  0  0  0  0  0
   58.5011   25.4497   47.9370 H   0  0  0  0  0  0  0  0  0  0  0  0
   60.2185   27.2178   48.3259 H   0  0  0  0  0  0  0  0  0  0  0  0
   61.0911   30.6712   50.1814 H   0  0  0  0  0  0  0  0  0  0  0  0
   59.8750   35.4127   47.5184 H   0  0  0  0  0  0  0  0  0  0  0  0
   60.9350   34.1919   46.7283 H   0  0  0  0  0  0  0  0  0  0  0  0
   58.9510   35.9414   45.5062 H   0  0  0  0  0  0  0  0  0  0  0  0
   60.0680   34.8127   44.7037 H   0  0  0  0  0  0  0  0  0  0  0  0
   56.9879   33.0792   47.2483 H   0  0  0  0  0  0  0  0  0  0  0  0
   57.9960   31.8132   46.5450 H   0  0  0  0  0  0  0  0  0  0  0  0
   61.6439   33.1272   50.6197 H   0  0  0  0  0  0  0  0  0  0  0  0
   63.1089   35.0290   49.9492 H   0  0  0  0  0  0  0  0  0  0  0  0
   64.2190   35.0282   47.7167 H   0  0  0  0  0  0  0  0  0  0  0  0
   63.8783   33.1144   46.1524 H   0  0  0  0  0  0  0  0  0  0  0  0
   62.3695   31.2326   46.7857 H   0  0  0  0  0  0  0  0  0  0  0  0
   58.4145   29.6569   45.2361 H   0  0  0  0  0  0  0  0  0  0  0  0
   56.6643   27.9130   44.8846 H   0  0  0  0  0  0  0  0  0  0  0  0
  1  2  1  0
  2  3  2  0
  2  4  2  0
  2  5  1  0
  5  6  2  0
  6  7  1  0
  7  8  2  0
  8  9  1  0
  9 10  2  0
  9 11  1  0
 11 12  1  0
 12 13  1  0
 13 14  2  0
 13 15  1  0
 15 16  2  3
 16 17  1  0
 17 18  1  0
 18 19  1  0
 19 20  2  0
 19 21  2  0
 19 22  1  0
 12 23  1  0
 23 24  2  0
 24 25  1  0
 25 26  2  0
 26 27  1  0
 27 28  2  0
  8 29  1  0
 29 30  2  0
 30  5  1  0
 22 16  1  0
 28 23  1  0
  1 31  1  0
  6 32  1  0
  7 33  1  0
 12 34  1  1
 17 35  1  0
 17 36  1  0
 18 37  1  0
 18 38  1  0
 22 39  1  0
 22 40  1  0
 24 41  1  0
 25 42  1  0
 26 43  1  0
 27 44  1  0
 28 45  1  0
 29 46  1  0
 30 47  1  0
M  CHG  2   1  -1  11  -1
M  END
>  <UniqueID>  (63) 
60

>  <SMILES>  (63) 
[NH-]S(=O)(=O)c1ccc(C(=O)[N-][C@H](C(=O)N=C2CCS(=O)(=O)C2)c2ccccc2)cc1

>  <Energy>  (63) 
52.48652280839505

>  <Genealogy>  (63) 
[NH-]S(=O)(=O)c1ccc(C(=O)[N-]C(C(=O)N=C2CCS(=O)(=O)C2)c2ccccc2)cc1 (protonated)
[NH-]S(=O)(=O)c1ccc(C(=O)[N-][C@H](C(=O)N=C2CCS(=O)(=O)C2)c2ccccc2)cc1 (chirality)
[NH-]S(=O)(=O)c1ccc(C(=O)[N-][C@H](C(=O)N=C2CCS(=O)(=O)C2)c2ccccc2)cc1 (3D coordinates assigned)
[NH-]S(=O)(=O)c1ccc(C(=O)[N-][C@H](C(=O)N=C2CCS(=O)(=O)C2)c2ccccc2)cc1 (nonaromatic ring conformer: 52.48652280839505 kcal/mol)

>  <smiles>  (63) 
NS(=O)(=O)c1ccc(C(=O)NC(C(=O)N=C2CCS(=O)(=O)C2)c2ccccc2)cc1

>  <score_type>  (63) 
oracle

>  <origin>  (63) 
adg

>  <m_score__min__energy>  (63) 
-13.279999999999999

>  <m_primary>  (63) 
energy

$$$$
63:0
     RDKit          3D

 37 39  0  0  0  0  0  0  0  0999 V2000
   59.5050   29.5750   44.9710 C   0  0  0  0  0  0  0  0  0  0  0  0
   58.2940   30.0100   44.2800 N   0  0  0  0  0  0  0  0  0  0  0  0
   57.3380   29.0490   43.7500 C   0  0  0  0  0  0  0  0  0  0  0  0
   55.9700   29.7100   43.9590 C   0  0  0  0  0  0  0  0  0  0  0  0
   56.2680   31.0200   44.5150 N   0  0  0  0  0  0  0  0  0  0  0  0
   57.5400   31.1510   44.6760 C   0  0  0  0  0  0  0  0  0  0  0  0
   58.1320   32.3970   45.2080 C   0  0  0  0  0  0  0  0  0  0  0  0
   58.2240   33.5240   44.3830 C   0  0  0  0  0  0  0  0  0  0  0  0
   58.7840   34.7000   44.8690 C   0  0  0  0  0  0  0  0  0  0  0  0
   59.2600   34.7440   46.1780 C   0  0  0  0  0  0  0  0  0  0  0  0
   59.1880   33.6440   46.9870 N   0  0  0  0  0  0  0  0  0  0  0  0
   59.7450   33.7270   48.3480 C   0  0  0  0  0  0  0  0  0  0  0  0
   61.2470   33.6110   48.3050 C   0  0  0  0  0  0  0  0  0  0  0  0
   62.0210   33.9600   49.4250 C   0  0  0  0  0  0  0  0  0  0  0  0
   63.4110   33.8200   49.3900 C   0  0  0  0  0  0  0  0  0  0  0  0
   64.0380   33.3270   48.2420 C   0  0  0  0  0  0  0  0  0  0  0  0
   63.2750   32.9720   47.1270 C   0  0  0  0  0  0  0  0  0  0  0  0
   61.8830   33.1100   47.1580 C   0  0  0  0  0  0  0  0  0  0  0  0
   58.6500   32.4700   46.5170 C   0  0  0  0  0  0  0  0  0  0  0  0
   58.6340   31.4410   47.2500 O   0  0  0  0  0  0  0  0  0  0  0  0
   59.3472   29.6317   46.0582 H   0  0  0  0  0  0  0  0  0  0  0  0
   59.7363   28.5376   44.6876 H   0  0  0  0  0  0  0  0  0  0  0  0
   60.3435   30.2281   44.6876 H   0  0  0  0  0  0  0  0  0  0  0  0
   57.5222   28.8670   42.6809 H   0  0  0  0  0  0  0  0  0  0  0  0
   57.4095   28.0709   44.2481 H   0  0  0  0  0  0  0  0  0  0  0  0
   55.4373   29.8081   43.0016 H   0  0  0  0  0  0  0  0  0  0  0  0
   55.3208   29.1176   44.6205 H   0  0  0  0  0  0  0  0  0  0  0  0
   57.8526   33.4791   43.3486 H   0  0  0  0  0  0  0  0  0  0  0  0
   58.8509   35.5893   44.2250 H   0  0  0  0  0  0  0  0  0  0  0  0
   59.6991   35.6752   46.5653 H   0  0  0  0  0  0  0  0  0  0  0  0
   59.4681   34.6930   48.7954 H   0  0  0  0  0  0  0  0  0  0  0  0
   59.3390   32.9024   48.9523 H   0  0  0  0  0  0  0  0  0  0  0  0
   61.5312   34.3445   50.3318 H   0  0  0  0  0  0  0  0  0  0  0  0
   64.0130   34.0983   50.2676 H   0  0  0  0  0  0  0  0  0  0  0  0
   65.1324   33.2186   48.2166 H   0  0  0  0  0  0  0  0  0  0  0  0
   63.7689   32.5837   46.2240 H   0  0  0  0  0  0  0  0  0  0  0  0
   61.2846   32.8248   46.2802 H   0  0  0  0  0  0  0  0  0  0  0  0
  1  2  1  0
  2  3  1  0
  3  4  1  0
  4  5  1  0
  5  6  2  0
  6  7  1  0
  7  8  2  0
  8  9  1  0
  9 10  2  0
 10 11  1  0
 11 12  1  0
 12 13  1  0
 13 14  2  0
 14 15  1  0
 15 16  2  0
 16 17  1  0
 17 18  2  0
 11 19  1  0
 19 20  2  0
  6  2  1  0
 19  7  1  0
 18 13  1  0
  1 21  1  0
  1 22  1  0
  1 23  1  0
  3 24  1  0
  3 25  1  0
  4 26  1  0
  4 27  1  0
  8 28  1  0
  9 29  1  0
 10 30  1  0
 12 31  1  0
 12 32  1  0
 14 33  1  0
 15 34  1  0
 16 35  1  0
 17 36  1  0
 18 37  1  0
M  END
>  <UniqueID>  (64) 
61

>  <SMILES>  (64) 
CN1CCN=C1c1cccn(Cc2ccccc2)c1=O

>  <Energy>  (64) 
56.91006036157715

>  <Genealogy>  (64) 
CN1CCN=C1c1cccn(Cc2ccccc2)c1=O (3D coordinates assigned)
CN1CCN=C1c1cccn(Cc2ccccc2)c1=O (nonaromatic ring conformer: 56.91006036157715 kcal/mol)

>  <smiles>  (64) 
CN1CCN=C1c1cccn(Cc2ccccc2)c1=O

>  <score_type>  (64) 
oracle

>  <origin>  (64) 
adg

>  <m_score__min__energy>  (64) 
-7.4699999999999998

>  <m_primary>  (64) 
energy

$$$$
64:0
     RDKit          3D

 81 85  0  0  0  0  0  0  0  0999 V2000
   56.9860   21.2240   43.2160 C   0  0  0  0  0  0  0  0  0  0  0  0
   55.8000   21.8310   43.7170 O   0  0  0  0  0  0  0  0  0  0  0  0
   55.7500   23.0860   44.3410 C   0  0  0  0  0  0  0  0  0  0  0  0
   56.8570   23.9590   44.3630 C   0  0  0  0  0  0  0  0  0  0  0  0
   56.7720   25.2080   45.0040 C   0  0  0  0  0  0  0  0  0  0  0  0
   57.9950   26.0960   45.0580 C   0  0  2  0  0  0  0  0  0  0  0  0
   57.6610   27.5060   45.5770 C   0  0  0  0  0  0  0  0  0  0  0  0
   58.0910   28.3620   44.4320 C   0  0  0  0  0  0  0  0  0  0  0  0
   57.9780   29.8270   44.4010 C   0  0  0  0  0  0  0  0  0  0  0  0
   57.2160   30.5730   43.5080 C   0  0  0  0  0  0  0  0  0  0  0  0
   57.2970   31.9540   43.7300 C   0  0  0  0  0  0  0  0  0  0  0  0
   58.1070   32.2930   44.8080 C   0  0  0  0  0  0  0  0  0  0  0  0
   58.4340   33.6940   45.2400 C   0  0  0  0  0  0  0  0  0  0  0  0
   59.3350   33.6970   46.4470 C   0  0  0  0  0  0  0  0  0  0  0  0
   60.7230   33.8190   46.2910 C   0  0  0  0  0  0  0  0  0  0  0  0
   61.5550   33.9010   47.4130 C   0  0  0  0  0  0  0  0  0  0  0  0
   61.0120   33.8580   48.7110 C   0  0  0  0  0  0  0  0  0  0  0  0
   61.8760   34.0010   49.9090 C   0  0  0  0  0  0  0  0  0  0  0  0
   63.1010   34.2630   49.7650 O   0  0  0  0  0  0  0  0  0  0  0  0
   61.3430   33.8320   51.2310 N   0  0  0  0  0  0  0  0  0  0  0  0
   62.2200   33.5590   52.3710 C   0  0  0  0  0  0  0  0  0  0  0  0
   61.4140   33.2270   53.6440 C   0  0  2  0  0  0  0  0  0  0  0  0
   61.3640   31.7070   53.8580 C   0  0  0  0  0  0  0  0  0  0  0  0
   59.9940   33.8510   53.6560 C   0  0  0  0  0  0  0  0  0  0  0  0
   58.8980   32.8990   53.2330 C   0  0  0  0  0  0  0  0  0  0  0  0
   58.2600   32.0870   54.1840 C   0  0  0  0  0  0  0  0  0  0  0  0
   57.2400   31.2150   53.7990 C   0  0  0  0  0  0  0  0  0  0  0  0
   56.8560   31.1260   52.4540 C   0  0  0  0  0  0  0  0  0  0  0  0
   55.7860   30.1960   52.0450 C   0  0  0  0  0  0  0  0  0  0  0  0
   55.8530   28.9880   52.4000 O   0  0  0  0  0  0  0  0  0  0  0  0
   54.6660   30.6270   51.2580 N   0  0  0  0  0  0  0  0  0  0  0  0
   53.4710   31.2860   51.7930 C   0  0  0  0  0  0  0  0  0  0  0  0
   52.2480   31.0280   50.8980 C   0  0  0  0  0  0  0  0  0  0  0  0
   51.3920   32.2480   50.7170 C   0  0  0  0  0  0  0  0  0  0  0  0
   51.0330   32.9420   51.7090 O   0  0  0  0  0  0  0  0  0  0  0  0
   51.0380   32.6530   49.4320 O   0  0  0  0  0  0  0  0  0  0  0  0
   57.4800   31.9450   51.5030 C   0  0  0  0  0  0  0  0  0  0  0  0
   58.5000   32.8200   51.8890 C   0  0  0  0  0  0  0  0  0  0  0  0
   59.6190   33.7370   48.8610 C   0  0  0  0  0  0  0  0  0  0  0  0
   58.7880   33.6590   47.7390 C   0  0  0  0  0  0  0  0  0  0  0  0
   58.7570   30.8800   45.4570 S   0  0  0  0  0  0  0  0  0  0  0  0
   58.5600   27.6760   43.4480 N   0  0  0  0  0  0  0  0  0  0  0  0
   58.5250   26.3430   43.7620 O   0  0  0  0  0  0  0  0  0  0  0  0
   55.5770   25.5640   45.6560 C   0  0  0  0  0  0  0  0  0  0  0  0
   54.4730   24.7080   45.6220 C   0  0  0  0  0  0  0  0  0  0  0  0
   54.5580   23.4780   44.9630 C   0  0  0  0  0  0  0  0  0  0  0  0
   53.4510   22.6360   44.9370 O   0  0  0  0  0  0  0  0  0  0  0  0
   57.6165   20.9013   44.0577 H   0  0  0  0  0  0  0  0  0  0  0  0
   56.7198   20.3513   42.6016 H   0  0  0  0  0  0  0  0  0  0  0  0
   57.5382   21.9503   42.6016 H   0  0  0  0  0  0  0  0  0  0  0  0
   57.7961   23.6604   43.8742 H   0  0  0  0  0  0  0  0  0  0  0  0
   58.6955   25.5567   45.7125 H   0  0  0  0  0  0  0  0  0  0  0  0
   56.5848   27.6149   45.7766 H   0  0  0  0  0  0  0  0  0  0  0  0
   58.1498   27.7576   46.5298 H   0  0  0  0  0  0  0  0  0  0  0  0
   56.6102   30.1236   42.7074 H   0  0  0  0  0  0  0  0  0  0  0  0
   56.7714   32.6970   43.1122 H   0  0  0  0  0  0  0  0  0  0  0  0
   58.9397   34.2152   44.4138 H   0  0  0  0  0  0  0  0  0  0  0  0
   57.4961   34.2040   45.5050 H   0  0  0  0  0  0  0  0  0  0  0  0
   61.1599   33.8504   45.2820 H   0  0  0  0  0  0  0  0  0  0  0  0
   62.6424   33.9999   47.2796 H   0  0  0  0  0  0  0  0  0  0  0  0
   60.3170   33.9540   51.3880 H   0  0  0  0  0  0  0  0  0  0  0  0
   62.8676   32.7042   52.1260 H   0  0  0  0  0  0  0  0  0  0  0  0
   62.8168   34.4617   52.5685 H   0  0  0  0  0  0  0  0  0  0  0  0
   61.9443   33.6908   54.4888 H   0  0  0  0  0  0  0  0  0  0  0  0
   61.3568   31.4885   54.9361 H   0  0  0  0  0  0  0  0  0  0  0  0
   60.4520   31.3014   53.3956 H   0  0  0  0  0  0  0  0  0  0  0  0
   62.2473   31.2424   53.3956 H   0  0  0  0  0  0  0  0  0  0  0  0
   59.7768   34.1959   54.6777 H   0  0  0  0  0  0  0  0  0  0  0  0
   60.0018   34.6715   52.9234 H   0  0  0  0  0  0  0  0  0  0  0  0
   58.5658   32.1382   55.2394 H   0  0  0  0  0  0  0  0  0  0  0  0
   56.7354   30.5950   54.5546 H   0  0  0  0  0  0  0  0  0  0  0  0
   53.2669   30.8961   52.8011 H   0  0  0  0  0  0  0  0  0  0  0  0
   53.6560   32.3698   51.8272 H   0  0  0  0  0  0  0  0  0  0  0  0
   52.5993   30.6954   49.9101 H   0  0  0  0  0  0  0  0  0  0  0  0
   51.6323   30.2615   51.3914 H   0  0  0  0  0  0  0  0  0  0  0  0
   57.1663   31.8992   50.4497 H   0  0  0  0  0  0  0  0  0  0  0  0
   58.9937   33.4505   51.1348 H   0  0  0  0  0  0  0  0  0  0  0  0
   59.1796   33.7034   49.8689 H   0  0  0  0  0  0  0  0  0  0  0  0
   57.6996   33.5674   47.8697 H   0  0  0  0  0  0  0  0  0  0  0  0
   55.5115   26.5206   46.1950 H   0  0  0  0  0  0  0  0  0  0  0  0
   53.5348   25.0027   46.1149 H   0  0  0  0  0  0  0  0  0  0  0  0
  1  2  1  0
  2  3  1  0
  3  4  2  0
  4  5  1  0
  5  6  1  0
  6  7  1  0
  7  8  1  0
  8  9  1  0
  9 10  2  0
 10 11  1  0
 11 12  2  0
 12 13  1  0
 13 14  1  0
 14 15  2  0
 15 16  1  0
 16 17  2  0
 17 18  1  0
 18 19  2  0
 18 20  1  0
 20 21  1  0
 21 22  1  0
 22 23  1  0
 22 24  1  0
 24 25  1  0
 25 26  2  0
 26 27  1  0
 27 28  2  0
 28 29  1  0
 29 30  2  0
 29 31  1  0
 31 32  1  0
 32 33  1  0
 33 34  1  0
 34 35  2  0
 34 36  1  0
 28 37  1  0
 37 38  2  0
 17 39  1  0
 39 40  2  0
 12 41  1  0
  8 42  2  0
 42 43  1  0
  5 44  2  0
 44 45  1  0
 45 46  2  0
 46 47  1  0
 46  3  1  0
 43  6  1  0
 41  9  1  0
 40 14  1  0
 38 25  1  0
  1 48  1  0
  1 49  1  0
  1 50  1  0
  4 51  1  0
  6 52  1  1
  7 53  1  0
  7 54  1  0
 10 55  1  0
 11 56  1  0
 13 57  1  0
 13 58  1  0
 15 59  1  0
 16 60  1  0
 20 61  1  0
 21 62  1  0
 21 63  1  0
 22 64  1  1
 23 65  1  0
 23 66  1  0
 23 67  1  0
 24 68  1  0
 24 69  1  0
 26 70  1  0
 27 71  1  0
 32 72  1  0
 32 73  1  0
 33 74  1  0
 33 75  1  0
 37 76  1  0
 38 77  1  0
 39 78  1  0
 40 79  1  0
 44 80  1  0
 45 81  1  0
M  CHG  3  31  -1  36  -1  47  -1
M  END
>  <UniqueID>  (65) 
62

>  <SMILES>  (65) 
COc1cc([C@@H]2CC(c3ccc(Cc4ccc(C(=O)NC[C@H](C)Cc5ccc(C(=O)[N-]CCC(=O)[O-])cc5)cc4)s3)=NO2)ccc1[O-]

>  <Energy>  (65) 
119.42602211391286

>  <Genealogy>  (65) 
COc1cc(C2CC(c3ccc(Cc4ccc(C(=O)NCC(C)Cc5ccc(C(=O)[N-]CCC(=O)[O-])cc5)cc4)s3)=NO2)ccc1[O-] (protonated)
COc1cc([C@@H]2CC(c3ccc(Cc4ccc(C(=O)NC[C@H](C)Cc5ccc(C(=O)[N-]CCC(=O)[O-])cc5)cc4)s3)=NO2)ccc1[O-] (chirality)
COc1cc([C@@H]2CC(c3ccc(Cc4ccc(C(=O)NC[C@H](C)Cc5ccc(C(=O)[N-]CCC(=O)[O-])cc5)cc4)s3)=NO2)ccc1[O-] (3D coordinates assigned)
COc1cc([C@@H]2CC(c3ccc(Cc4ccc(C(=O)NC[C@H](C)Cc5ccc(C(=O)[N-]CCC(=O)[O-])cc5)cc4)s3)=NO2)ccc1[O-] (nonaromatic ring conformer: 119.42602211391286 kcal/mol)

>  <smiles>  (65) 
COc1cc(C2CC(c3ccc(Cc4ccc(C(=O)NCC(C)Cc5ccc(C(=O)NCCC(=O)O)cc5)cc4)s3)=NO2)ccc1O

>  <score_type>  (65) 
oracle

>  <origin>  (65) 
adg

>  <m_score__min__energy>  (65) 
-19.449999999999999

>  <m_primary>  (65) 
energy

$$$$
65:0
     RDKit          3D

 41 44  0  0  0  0  0  0  0  0999 V2000
   58.3510   21.0760   45.3880 N   0  0  0  0  0  0  0  0  0  0  0  0
   56.8440   21.8220   44.9870 S   0  0  0  0  0  0  0  0  0  0  0  0
   55.8120   21.4510   46.0150 O   0  0  0  0  0  0  0  0  0  0  0  0
   56.3830   21.3320   43.6430 O   0  0  0  0  0  0  0  0  0  0  0  0
   57.0430   23.5720   44.9490 C   0  0  0  0  0  0  0  0  0  0  0  0
   56.9410   24.3200   46.1280 C   0  0  0  0  0  0  0  0  0  0  0  0
   57.1120   25.7060   46.1010 C   0  0  0  0  0  0  0  0  0  0  0  0
   57.3940   26.3690   44.8910 C   0  0  0  0  0  0  0  0  0  0  0  0
   57.5800   27.8400   44.8410 C   0  0  0  0  0  0  0  0  0  0  0  0
   58.1630   28.6390   45.8250 C   0  0  0  0  0  0  0  0  0  0  0  0
   58.1200   29.8930   45.3630 N   0  0  0  0  0  0  0  0  0  0  0  0
   58.5550   31.0080   45.9420 N   0  0  0  0  0  0  0  0  0  0  0  0
   58.4130   32.2020   45.2930 C   0  0  0  0  0  0  0  0  0  0  0  0
   58.8840   33.4130   45.9160 N   0  0  0  0  0  0  0  0  0  0  0  0
   59.4170   34.5310   45.1570 C   0  0  0  0  0  0  0  0  0  0  0  0
   59.6360   35.6480   46.1680 C   0  0  0  0  0  0  0  0  0  0  0  0
   59.6150   34.9810   47.5400 C   0  0  0  0  0  0  0  0  0  0  0  0
   58.8890   33.6550   47.3490 C   0  0  0  0  0  0  0  0  0  0  0  0
   57.8060   32.2180   44.0120 C   0  0  0  0  0  0  0  0  0  0  0  0
   57.3580   31.0210   43.4320 C   0  0  0  0  0  0  0  0  0  0  0  0
   57.5400   29.8530   44.1610 C   0  0  0  0  0  0  0  0  0  0  0  0
   57.1850   28.6080   43.7890 N   0  0  0  0  0  0  0  0  0  0  0  0
   57.5020   25.6080   43.7130 C   0  0  0  0  0  0  0  0  0  0  0  0
   57.3300   24.2210   43.7430 C   0  0  0  0  0  0  0  0  0  0  0  0
   58.1500   20.0690   45.5820 H   0  0  0  0  0  0  0  0  0  0  0  0
   58.9430   21.1030   44.5270 H   0  0  0  0  0  0  0  0  0  0  0  0
   56.7251   23.8137   47.0804 H   0  0  0  0  0  0  0  0  0  0  0  0
   57.0257   26.2845   47.0326 H   0  0  0  0  0  0  0  0  0  0  0  0
   58.5755   28.3043   46.7882 H   0  0  0  0  0  0  0  0  0  0  0  0
   60.3688   34.2525   44.6810 H   0  0  0  0  0  0  0  0  0  0  0  0
   58.7323   34.8393   44.3532 H   0  0  0  0  0  0  0  0  0  0  0  0
   60.6065   36.1359   45.9947 H   0  0  0  0  0  0  0  0  0  0  0  0
   58.8618   36.4250   46.0850 H   0  0  0  0  0  0  0  0  0  0  0  0
   60.6410   34.8075   47.8968 H   0  0  0  0  0  0  0  0  0  0  0  0
   59.1129   35.6121   48.2881 H   0  0  0  0  0  0  0  0  0  0  0  0
   59.4213   32.8473   47.8726 H   0  0  0  0  0  0  0  0  0  0  0  0
   57.8688   33.6876   47.7591 H   0  0  0  0  0  0  0  0  0  0  0  0
   57.6861   33.1690   43.4723 H   0  0  0  0  0  0  0  0  0  0  0  0
   56.8821   31.0085   42.4404 H   0  0  0  0  0  0  0  0  0  0  0  0
   57.7239   26.1090   42.7592 H   0  0  0  0  0  0  0  0  0  0  0  0
   57.4206   23.6375   42.8149 H   0  0  0  0  0  0  0  0  0  0  0  0
  1  2  1  0
  2  3  2  0
  2  4  2  0
  2  5  1  0
  5  6  2  0
  6  7  1  0
  7  8  2  0
  8  9  1  0
  9 10  2  0
 10 11  1  0
 11 12  1  0
 12 13  2  0
 13 14  1  0
 14 15  1  0
 15 16  1  0
 16 17  1  0
 17 18  1  0
 13 19  1  0
 19 20  2  0
 20 21  1  0
 21 22  2  0
  8 23  1  0
 23 24  2  0
 24  5  1  0
 22  9  1  0
 21 11  1  0
 18 14  1  0
  1 25  1  0
  1 26  1  0
  6 27  1  0
  7 28  1  0
 10 29  1  0
 15 30  1  0
 15 31  1  0
 16 32  1  0
 16 33  1  0
 17 34  1  0
 17 35  1  0
 18 36  1  0
 18 37  1  0
 19 38  1  0
 20 39  1  0
 23 40  1  0
 24 41  1  0
M  END
>  <UniqueID>  (66) 
63

>  <SMILES>  (66) 
NS(=O)(=O)c1ccc(-c2cn3nc(N4CCCC4)ccc3n2)cc1

>  <Energy>  (66) 
80.34697741199226

>  <Genealogy>  (66) 
NS(=O)(=O)c1ccc(-c2cn3nc(N4CCCC4)ccc3n2)cc1 (3D coordinates assigned)
NS(=O)(=O)c1ccc(-c2cn3nc(N4CCCC4)ccc3n2)cc1 (nonaromatic ring conformer: 80.34697741199226 kcal/mol)

>  <smiles>  (66) 
NS(=O)(=O)c1ccc(-c2cn3nc(N4CCCC4)ccc3n2)cc1

>  <score_type>  (66) 
oracle

>  <origin>  (66) 
adg

>  <m_score__min__energy>  (66) 
-8.1699999999999999

>  <m_primary>  (66) 
energy

$$$$
66:0
     RDKit          3D

 47 48  0  0  0  0  0  0  0  0999 V2000
   63.2430   33.8080   46.5240 C   0  0  0  0  0  0  0  0  0  0  0  0
   62.2960   32.7870   47.1530 C   0  0  0  0  0  0  0  0  0  0  0  0
   61.3890   33.3960   48.2360 C   0  0  0  0  0  0  0  0  0  0  0  0
   60.4510   34.5220   47.7480 C   0  0  0  0  0  0  0  0  0  0  0  0
   59.0300   34.1410   47.6790 N   0  0  0  0  0  0  0  0  0  0  0  0
   58.5790   33.5050   46.1220 S   0  0  0  0  0  0  0  0  0  0  0  0
   57.1800   33.9410   45.7860 O   0  0  0  0  0  0  0  0  0  0  0  0
   59.5270   34.0380   45.0850 O   0  0  0  0  0  0  0  0  0  0  0  0
   58.6620   31.7750   46.1350 N   0  0  0  0  0  0  0  0  0  0  0  0
   58.7010   31.0150   47.3450 C   0  0  0  0  0  0  0  0  0  0  0  0
   58.7650   31.6000   48.4600 O   0  0  0  0  0  0  0  0  0  0  0  0
   58.6670   29.5490   47.2900 C   0  0  0  0  0  0  0  0  0  0  0  0
   59.3940   28.6820   48.1040 C   0  0  0  0  0  0  0  0  0  0  0  0
   59.1880   27.3620   47.8540 N   0  0  0  0  0  0  0  0  0  0  0  0
   58.3050   27.1810   46.8460 C   0  0  0  0  0  0  0  0  0  0  0  0
   57.9340   26.0170   46.4060 N   0  0  0  0  0  0  0  0  0  0  0  0
   57.3660   25.7810   45.0800 C   0  0  0  0  0  0  0  0  0  0  0  0
   56.1620   24.8760   45.1720 C   0  0  0  0  0  0  0  0  0  0  0  0
   56.2620   23.5290   44.7920 C   0  0  0  0  0  0  0  0  0  0  0  0
   55.1450   22.6910   44.8550 C   0  0  0  0  0  0  0  0  0  0  0  0
   53.9110   23.1830   45.2940 C   0  0  0  0  0  0  0  0  0  0  0  0
   52.8210   22.3020   45.3390 O   0  0  0  0  0  0  0  0  0  0  0  0
   51.5770   22.5920   45.9670 C   0  0  0  0  0  0  0  0  0  0  0  0
   53.8060   24.5350   45.6730 C   0  0  0  0  0  0  0  0  0  0  0  0
   54.9220   25.3760   45.6110 C   0  0  0  0  0  0  0  0  0  0  0  0
   54.7900   26.7100   45.9870 O   0  0  0  0  0  0  0  0  0  0  0  0
   57.7380   28.6340   46.2230 S   0  0  0  0  0  0  0  0  0  0  0  0
   63.7606   34.3660   47.3182 H   0  0  0  0  0  0  0  0  0  0  0  0
   63.9836   33.2857   45.9005 H   0  0  0  0  0  0  0  0  0  0  0  0
   62.6666   34.5073   45.9005 H   0  0  0  0  0  0  0  0  0  0  0  0
   61.6607   32.3637   46.3610 H   0  0  0  0  0  0  0  0  0  0  0  0
   62.9158   32.0179   47.6371 H   0  0  0  0  0  0  0  0  0  0  0  0
   60.7664   32.5901   48.6518 H   0  0  0  0  0  0  0  0  0  0  0  0
   62.0611   33.8561   48.9753 H   0  0  0  0  0  0  0  0  0  0  0  0
   60.5462   35.3729   48.4386 H   0  0  0  0  0  0  0  0  0  0  0  0
   60.7612   34.7671   46.7215 H   0  0  0  0  0  0  0  0  0  0  0  0
   58.4560   34.9990   47.8470 H   0  0  0  0  0  0  0  0  0  0  0  0
   58.7900   33.4500   48.4240 H   0  0  0  0  0  0  0  0  0  0  0  0
   60.0801   29.0379   48.8867 H   0  0  0  0  0  0  0  0  0  0  0  0
   57.0629   26.7426   44.6401 H   0  0  0  0  0  0  0  0  0  0  0  0
   58.1263   25.2972   44.4492 H   0  0  0  0  0  0  0  0  0  0  0  0
   57.2256   23.1299   44.4423 H   0  0  0  0  0  0  0  0  0  0  0  0
   55.2369   21.6361   44.5570 H   0  0  0  0  0  0  0  0  0  0  0  0
   51.7022   22.5628   47.0595 H   0  0  0  0  0  0  0  0  0  0  0  0
   51.2376   23.5933   45.6634 H   0  0  0  0  0  0  0  0  0  0  0  0
   50.8298   21.8440   45.6634 H   0  0  0  0  0  0  0  0  0  0  0  0
   52.8407   24.9322   46.0199 H   0  0  0  0  0  0  0  0  0  0  0  0
  1  2  1  0
  2  3  1  0
  3  4  1  0
  4  5  1  0
  5  6  1  0
  6  7  2  0
  6  8  2  0
  6  9  1  0
  9 10  1  0
 10 11  2  0
 10 12  1  0
 12 13  2  0
 13 14  1  0
 14 15  1  0
 15 16  2  3
 16 17  1  0
 17 18  1  0
 18 19  2  0
 19 20  1  0
 20 21  2  0
 21 22  1  0
 22 23  1  0
 21 24  1  0
 24 25  2  0
 25 26  1  0
 15 27  1  0
 27 12  1  0
 25 18  1  0
  1 28  1  0
  1 29  1  0
  1 30  1  0
  2 31  1  0
  2 32  1  0
  3 33  1  0
  3 34  1  0
  4 35  1  0
  4 36  1  0
  5 37  1  0
  5 38  1  0
 13 39  1  0
 17 40  1  0
 17 41  1  0
 19 42  1  0
 20 43  1  0
 23 44  1  0
 23 45  1  0
 23 46  1  0
 24 47  1  0
M  CHG  4   5   1   9  -1  14  -1  26  -1
M  END
>  <UniqueID>  (67) 
64

>  <SMILES>  (67) 
CCCC[NH2+]S(=O)(=O)[N-]C(=O)c1c[n-]c(=NCc2ccc(OC)cc2[O-])s1

>  <Energy>  (67) 
70.15351839199583

>  <Genealogy>  (67) 
CCCC[NH2+]S(=O)(=O)[N-]C(=O)c1c[n-]c(=NCc2ccc(OC)cc2[O-])s1 (protonated)
CCCC[NH2+]S(=O)(=O)[N-]C(=O)c1c[n-]c(=NCc2ccc(OC)cc2[O-])s1 (3D coordinates assigned)
CCCC[NH2+]S(=O)(=O)[N-]C(=O)c1c[n-]c(=NCc2ccc(OC)cc2[O-])s1 (optimized conformer: 70.15351839199583 kcal/mol)

>  <smiles>  (67) 
CCCCNS(=O)(=O)NC(=O)c1c[nH]c(=NCc2ccc(OC)cc2O)s1

>  <score_type>  (67) 
oracle

>  <origin>  (67) 
adg

>  <m_score__min__energy>  (67) 
-12.59

>  <m_primary>  (67) 
energy

$$$$
67:0
     RDKit          3D

 51 53  0  0  1  0  0  0  0  0999 V2000
   59.3720   33.4170   48.3000 O   0  0  0  0  0  0  0  0  0  0  0  0
   60.4490   33.4960   47.6370 C   0  0  0  0  0  0  0  0  0  0  0  0
   60.4010   33.5280   46.2270 N   0  0  0  0  0  0  0  0  0  0  0  0
   59.2050   33.4780   45.4340 C   0  0  0  0  0  0  0  0  0  0  0  0
   58.5680   32.1370   45.3840 C   0  0  0  0  0  0  0  0  0  0  0  0
   57.5180   31.9380   44.5080 C   0  0  0  0  0  0  0  0  0  0  0  0
   56.8990   30.7090   44.4230 C   0  0  0  0  0  0  0  0  0  0  0  0
   57.2840   29.6190   45.1960 C   0  0  0  0  0  0  0  0  0  0  0  0
   56.6110   28.3460   45.0810 C   0  0  0  0  0  0  0  0  0  0  0  0
   57.0370   27.2120   45.5840 C   0  0  0  0  0  0  0  0  0  0  0  0
   56.1180   26.2870   46.2400 C   0  0  0  0  0  0  0  0  0  0  0  0
   54.7560   26.3420   45.9750 O   0  0  0  0  0  0  0  0  0  0  0  0
   56.5670   25.4090   47.0720 N   0  0  0  0  0  0  0  0  0  0  0  0
   55.7430   24.4190   47.6010 O   0  0  0  0  0  0  0  0  0  0  0  0
   58.3330   29.8350   46.0660 C   0  0  0  0  0  0  0  0  0  0  0  0
   58.9650   31.0710   46.1590 C   0  0  0  0  0  0  0  0  0  0  0  0
   61.6770   33.5480   48.4200 C   0  0  0  0  0  0  0  0  0  0  0  0
   62.8350   33.0350   47.8750 C   0  0  0  0  0  0  0  0  0  0  0  0
   64.0500   33.0530   48.5720 C   0  0  0  0  0  0  0  0  0  0  0  0
   64.1150   33.6000   49.8540 C   0  0  0  0  0  0  0  0  0  0  0  0
   65.3460   33.6260   50.5810 N   0  0  0  0  0  0  0  0  0  0  0  0
   65.4540   34.5130   51.7180 C   0  0  0  0  0  0  0  0  0  0  0  0
   66.9040   34.7130   52.0330 C   0  0  0  0  0  0  0  0  0  0  0  0
   67.5230   33.4590   52.0820 O   0  0  0  0  0  0  0  0  0  0  0  0
   67.7170   33.0260   50.7780 C   0  0  0  0  0  0  0  0  0  0  0  0
   66.4060   32.7540   50.1250 C   0  0  0  0  0  0  0  0  0  0  0  0
   62.9440   34.1090   50.3820 C   0  0  0  0  0  0  0  0  0  0  0  0
   61.7530   34.0860   49.6860 C   0  0  0  0  0  0  0  0  0  0  0  0
   61.3420   33.5940   45.7370 H   0  0  0  0  0  0  0  0  0  0  0  0
   58.4802   34.1896   45.8563 H   0  0  0  0  0  0  0  0  0  0  0  0
   59.4959   33.7304   44.4036 H   0  0  0  0  0  0  0  0  0  0  0  0
   57.1730   32.7673   43.8730 H   0  0  0  0  0  0  0  0  0  0  0  0
   56.0665   30.5856   43.7147 H   0  0  0  0  0  0  0  0  0  0  0  0
   55.6620   28.3260   44.5252 H   0  0  0  0  0  0  0  0  0  0  0  0
   58.1038   26.9540   45.5103 H   0  0  0  0  0  0  0  0  0  0  0  0
   54.1230   25.6450   46.3700 H   0  0  0  0  0  0  0  0  0  0  0  0
   54.7730   24.4760   47.2640 H   0  0  0  0  0  0  0  0  0  0  0  0
   58.6789   29.0077   46.7032 H   0  0  0  0  0  0  0  0  0  0  0  0
   59.7982   31.1988   46.8657 H   0  0  0  0  0  0  0  0  0  0  0  0
   62.8039   32.5997   46.8653 H   0  0  0  0  0  0  0  0  0  0  0  0
   64.9552   32.6348   48.1075 H   0  0  0  0  0  0  0  0  0  0  0  0
   64.9902   35.4811   51.4779 H   0  0  0  0  0  0  0  0  0  0  0  0
   64.9382   34.0757   52.5856 H   0  0  0  0  0  0  0  0  0  0  0  0
   67.3726   35.3282   51.2507 H   0  0  0  0  0  0  0  0  0  0  0  0
   67.0132   35.2261   52.9999 H   0  0  0  0  0  0  0  0  0  0  0  0
   68.2500   33.8044   50.2123 H   0  0  0  0  0  0  0  0  0  0  0  0
   68.3096   32.0994   50.7923 H   0  0  0  0  0  0  0  0  0  0  0  0
   66.5232   32.8857   49.0392 H   0  0  0  0  0  0  0  0  0  0  0  0
   66.1179   31.7260   50.3901 H   0  0  0  0  0  0  0  0  0  0  0  0
   62.9619   34.5471   51.3908 H   0  0  0  0  0  0  0  0  0  0  0  0
   60.8479   34.5047   50.1502 H   0  0  0  0  0  0  0  0  0  0  0  0
  1  2  2  0
  2  3  1  0
  3  4  1  0
  4  5  1  0
  5  6  2  0
  6  7  1  0
  7  8  2  0
  8  9  1  0
  9 10  2  0
 10 11  1  0
 11 12  1  0
 11 13  2  0
 13 14  1  0
  8 15  1  0
 15 16  2  0
  2 17  1  0
 17 18  2  0
 18 19  1  0
 19 20  2  0
 20 21  1  0
 21 22  1  0
 22 23  1  0
 23 24  1  0
 24 25  1  0
 25 26  1  0
 20 27  1  0
 27 28  2  0
 16  5  1  0
 28 17  1  0
 26 21  1  0
  3 29  1  0
  4 30  1  0
  4 31  1  0
  6 32  1  0
  7 33  1  0
  9 34  1  0
 10 35  1  0
 12 36  1  0
 14 37  1  0
 15 38  1  0
 16 39  1  0
 18 40  1  0
 19 41  1  0
 22 42  1  0
 22 43  1  0
 23 44  1  0
 23 45  1  0
 25 46  1  0
 25 47  1  0
 26 48  1  0
 26 49  1  0
 27 50  1  0
 28 51  1  0
M  END
>  <smiles>  (68) 
O=C(NCc1ccc(C=CC(O)=NO)cc1)c1ccc(N2CCOCC2)cc1

>  <score_type>  (68) 
oracle

>  <origin>  (68) 
adg

>  <m_score__min__energy>  (68) 
-9.8599999999999994

>  <m_primary>  (68) 
energy

$$$$
68:0
     RDKit          3D

 35 37  0  0  0  0  0  0  0  0999 V2000
   58.4840   27.3380   43.5990 C   0  0  0  0  0  0  0  0  0  0  0  0
   58.7590   27.4100   45.0770 C   0  0  0  0  0  0  0  0  0  0  0  0
   60.0880   27.4410   45.5270 C   0  0  0  0  0  0  0  0  0  0  0  0
   60.3690   27.4840   46.8920 C   0  0  0  0  0  0  0  0  0  0  0  0
   59.3190   27.5030   47.8050 C   0  0  0  0  0  0  0  0  0  0  0  0
   58.0340   27.4890   47.3620 N   0  0  0  0  0  0  0  0  0  0  0  0
   57.7180   27.4480   46.0380 C   0  0  0  0  0  0  0  0  0  0  0  0
   56.2860   27.4600   45.6640 C   0  0  0  0  0  0  0  0  0  0  0  0
   55.5810   26.4340   45.8520 O   0  0  0  0  0  0  0  0  0  0  0  0
   55.6960   28.5840   45.0000 N   0  0  0  0  0  0  0  0  0  0  0  0
   56.4140   29.6650   44.3940 C   0  0  0  0  0  0  0  0  0  0  0  0
   56.2720   30.0460   43.0690 C   0  0  0  0  0  0  0  0  0  0  0  0
   57.0090   31.1910   42.7490 C   0  0  0  0  0  0  0  0  0  0  0  0
   57.7210   31.7070   43.8280 C   0  0  0  0  0  0  0  0  0  0  0  0
   58.5320   32.9630   43.8180 C   0  0  0  0  0  0  0  0  0  0  0  0
   58.8560   33.3800   45.2200 C   0  0  0  0  0  0  0  0  0  0  0  0
   60.0650   33.5350   45.6100 N   0  0  0  0  0  0  0  0  0  0  0  0
   60.2260   34.0010   46.9580 C   0  0  0  0  0  0  0  0  0  0  0  0
   58.8970   34.6260   47.3760 C   0  0  0  0  0  0  0  0  0  0  0  0
   57.5910   33.8130   46.4030 S   0  0  0  0  0  0  0  0  0  0  0  0
   57.4140   30.7650   45.1900 S   0  0  0  0  0  0  0  0  0  0  0  0
   57.4318   27.0625   43.4348 H   0  0  0  0  0  0  0  0  0  0  0  0
   58.6821   28.3183   43.1410 H   0  0  0  0  0  0  0  0  0  0  0  0
   59.1371   26.5806   43.1410 H   0  0  0  0  0  0  0  0  0  0  0  0
   60.9124   27.4313   44.7988 H   0  0  0  0  0  0  0  0  0  0  0  0
   61.4110   27.5027   47.2439 H   0  0  0  0  0  0  0  0  0  0  0  0
   59.5287   27.5293   48.8845 H   0  0  0  0  0  0  0  0  0  0  0  0
   55.6454   29.5047   42.3449 H   0  0  0  0  0  0  0  0  0  0  0  0
   57.0244   31.6391   41.7445 H   0  0  0  0  0  0  0  0  0  0  0  0
   59.4670   32.7876   43.2657 H   0  0  0  0  0  0  0  0  0  0  0  0
   57.9525   33.7609   43.3307 H   0  0  0  0  0  0  0  0  0  0  0  0
   60.4730   33.1593   47.6217 H   0  0  0  0  0  0  0  0  0  0  0  0
   61.0430   34.7345   47.0248 H   0  0  0  0  0  0  0  0  0  0  0  0
   58.7245   34.4619   48.4499 H   0  0  0  0  0  0  0  0  0  0  0  0
   58.9013   35.7109   47.1947 H   0  0  0  0  0  0  0  0  0  0  0  0
  1  2  1  0
  2  3  2  0
  3  4  1  0
  4  5  2  0
  5  6  1  0
  6  7  2  0
  7  8  1  0
  8  9  2  0
  8 10  1  0
 10 11  1  0
 11 12  2  0
 12 13  1  0
 13 14  2  0
 14 15  1  0
 15 16  1  0
 16 17  2  0
 17 18  1  0
 18 19  1  0
 19 20  1  0
 14 21  1  0
  7  2  1  0
 21 11  1  0
 20 16  1  0
  1 22  1  0
  1 23  1  0
  1 24  1  0
  3 25  1  0
  4 26  1  0
  5 27  1  0
 12 28  1  0
 13 29  1  0
 15 30  1  0
 15 31  1  0
 18 32  1  0
 18 33  1  0
 19 34  1  0
 19 35  1  0
M  CHG  1  10  -1
M  END
>  <UniqueID>  (69) 
65

>  <SMILES>  (69) 
Cc1cccnc1C(=O)[N-]c1ccc(CC2=NCCS2)s1

>  <Energy>  (69) 
73.50796006910258

>  <Genealogy>  (69) 
Cc1cccnc1C(=O)[N-]c1ccc(CC2=NCCS2)s1 (protonated)
Cc1cccnc1C(=O)[N-]c1ccc(CC2=NCCS2)s1 (3D coordinates assigned)
Cc1cccnc1C(=O)[N-]c1ccc(CC2=NCCS2)s1 (nonaromatic ring conformer: 73.50796006910258 kcal/mol)

>  <smiles>  (69) 
Cc1cccnc1C(=O)Nc1ccc(CC2=NCCS2)s1

>  <score_type>  (69) 
oracle

>  <origin>  (69) 
adg

>  <m_score__min__energy>  (69) 
-9.7699999999999996

>  <m_primary>  (69) 
energy

$$$$
69:0
     RDKit          3D

 28 29  0  0  0  0  0  0  0  0999 V2000
   56.5080   29.1730   42.4760 N   0  0  0  0  0  0  0  0  0  0  0  0
   56.6370   29.4840   43.8660 C   0  0  0  0  0  0  0  0  0  0  0  0
   55.6240   29.8830   44.4970 O   0  0  0  0  0  0  0  0  0  0  0  0
   57.9450   29.3490   44.5570 C   0  0  0  0  0  0  0  0  0  0  0  0
   58.7180   28.1920   44.3410 C   0  0  0  0  0  0  0  0  0  0  0  0
   59.9400   28.0180   44.9930 C   0  0  0  0  0  0  0  0  0  0  0  0
   60.4100   28.9940   45.8710 C   0  0  0  0  0  0  0  0  0  0  0  0
   59.6610   30.1500   46.0950 C   0  0  0  0  0  0  0  0  0  0  0  0
   58.4290   30.3390   45.4490 C   0  0  0  0  0  0  0  0  0  0  0  0
   57.6830   31.5380   45.7080 N   0  0  0  0  0  0  0  0  0  0  0  0
   58.2930   32.8320   45.8680 C   0  0  0  0  0  0  0  0  0  0  0  0
   58.6190   33.3380   47.1410 C   0  0  0  0  0  0  0  0  0  0  0  0
   59.1980   34.6040   47.2690 C   0  0  0  0  0  0  0  0  0  0  0  0
   59.4520   35.3780   46.1350 C   0  0  0  0  0  0  0  0  0  0  0  0
   60.0130   36.6060   46.2620 F   0  0  0  0  0  0  0  0  0  0  0  0
   59.1210   34.8890   44.8680 C   0  0  0  0  0  0  0  0  0  0  0  0
   58.5400   33.6230   44.7350 C   0  0  0  0  0  0  0  0  0  0  0  0
   57.2930   28.7420   41.9410 H   0  0  0  0  0  0  0  0  0  0  0  0
   55.5950   29.3180   41.9910 H   0  0  0  0  0  0  0  0  0  0  0  0
   58.3548   27.4165   43.6506 H   0  0  0  0  0  0  0  0  0  0  0  0
   60.5333   27.1092   44.8138 H   0  0  0  0  0  0  0  0  0  0  0  0
   61.3711   28.8527   46.3870 H   0  0  0  0  0  0  0  0  0  0  0  0
   60.0392   30.9198   46.7837 H   0  0  0  0  0  0  0  0  0  0  0  0
   56.6400   31.4790   45.6790 H   0  0  0  0  0  0  0  0  0  0  0  0
   58.4173   32.7347   48.0384 H   0  0  0  0  0  0  0  0  0  0  0  0
   59.4542   34.9915   48.2661 H   0  0  0  0  0  0  0  0  0  0  0  0
   59.3174   35.5000   43.9746 H   0  0  0  0  0  0  0  0  0  0  0  0
   58.2752   33.2453   43.7364 H   0  0  0  0  0  0  0  0  0  0  0  0
  1  2  1  0
  2  3  2  0
  2  4  1  0
  4  5  2  0
  5  6  1  0
  6  7  2  0
  7  8  1  0
  8  9  2  0
  9 10  1  0
 10 11  1  0
 11 12  2  0
 12 13  1  0
 13 14  2  0
 14 15  1  0
 14 16  1  0
 16 17  2  0
  9  4  1  0
 17 11  1  0
  1 18  1  0
  1 19  1  0
  5 20  1  0
  6 21  1  0
  7 22  1  0
  8 23  1  0
 10 24  1  0
 12 25  1  0
 13 26  1  0
 16 27  1  0
 17 28  1  0
M  END
>  <UniqueID>  (70) 
66

>  <SMILES>  (70) 
NC(=O)c1ccccc1Nc1ccc(F)cc1

>  <Energy>  (70) 
39.190036601952215

>  <Genealogy>  (70) 
NC(=O)c1ccccc1Nc1ccc(F)cc1 (3D coordinates assigned)
NC(=O)c1ccccc1Nc1ccc(F)cc1 (optimized conformer: 39.190036601952215 kcal/mol)

>  <smiles>  (70) 
NC(=O)c1ccccc1Nc1ccc(F)cc1

>  <score_type>  (70) 
oracle

>  <origin>  (70) 
adg

>  <m_score__min__energy>  (70) 
-6.7300000000000004

>  <m_primary>  (70) 
energy

$$$$
70:0
     RDKit          3D

 37 38  0  0  0  0  0  0  0  0999 V2000
   55.9385   27.6098   45.4406 H   0  0  0  0  0  0  0  0  0  0  0  0
   56.6540   28.4030   45.1780 C   0  0  0  0  0  0  0  0  0  0  0  0
   56.2580   29.7050   45.1820 N   0  0  0  0  0  0  0  0  0  0  0  0
   57.1030   30.7240   44.8670 C   0  0  0  0  0  0  0  0  0  0  0  0
   56.6410   31.9410   44.8920 N   0  0  0  0  0  0  0  0  0  0  0  0
   57.5750   33.4050   44.8120 S   0  0  0  0  0  0  0  0  0  0  0  0
   58.3920   33.3950   43.5510 O   0  0  0  0  0  0  0  0  0  0  0  0
   56.6420   34.5830   44.7800 O   0  0  0  0  0  0  0  0  0  0  0  0
   58.6650   33.5090   46.1910 C   0  0  0  0  0  0  0  0  0  0  0  0
   59.8460   34.2570   46.0970 C   0  0  0  0  0  0  0  0  0  0  0  0
   60.0888   34.7819   45.1613 H   0  0  0  0  0  0  0  0  0  0  0  0
   60.7160   34.3390   47.1860 C   0  0  0  0  0  0  0  0  0  0  0  0
   61.6427   34.9258   47.1030 H   0  0  0  0  0  0  0  0  0  0  0  0
   60.4140   33.6760   48.3870 C   0  0  0  0  0  0  0  0  0  0  0  0
   61.3390   33.7890   49.5690 C   0  0  0  0  0  0  0  0  0  0  0  0
   61.3852   32.8134   50.0750 H   0  0  0  0  0  0  0  0  0  0  0  0
   60.9394   34.5707   50.2318 H   0  0  0  0  0  0  0  0  0  0  0  0
   62.7640   34.2030   49.1660 C   0  0  0  0  0  0  0  0  0  0  0  0
   63.2606   34.6402   50.0448 H   0  0  0  0  0  0  0  0  0  0  0  0
   62.6690   34.9212   48.3382 H   0  0  0  0  0  0  0  0  0  0  0  0
   63.6250   33.0330   48.6520 C   0  0  0  0  0  0  0  0  0  0  0  0
   63.1910   32.0901   49.0160 H   0  0  0  0  0  0  0  0  0  0  0  0
   64.6476   33.1820   49.0289 H   0  0  0  0  0  0  0  0  0  0  0  0
   63.6980   32.9810   47.1250 C   0  0  0  0  0  0  0  0  0  0  0  0
   64.5587   32.3679   46.8197 H   0  0  0  0  0  0  0  0  0  0  0  0
   62.7728   32.5373   46.7286 H   0  0  0  0  0  0  0  0  0  0  0  0
   63.8150   34.0004   46.7286 H   0  0  0  0  0  0  0  0  0  0  0  0
   59.2260   32.9320   48.4800 C   0  0  0  0  0  0  0  0  0  0  0  0
   58.9782   32.4119   49.4171 H   0  0  0  0  0  0  0  0  0  0  0  0
   58.3570   32.8490   47.3880 C   0  0  0  0  0  0  0  0  0  0  0  0
   57.4290   32.2640   47.4687 H   0  0  0  0  0  0  0  0  0  0  0  0
   58.4390   30.4240   44.5240 C   0  0  0  0  0  0  0  0  0  0  0  0
   59.1411   31.2311   44.2678 H   0  0  0  0  0  0  0  0  0  0  0  0
   58.8610   29.0930   44.5130 C   0  0  0  0  0  0  0  0  0  0  0  0
   59.8994   28.8479   44.2454 H   0  0  0  0  0  0  0  0  0  0  0  0
   57.9670   28.0740   44.8410 C   0  0  0  0  0  0  0  0  0  0  0  0
   58.2934   27.0236   44.8340 H   0  0  0  0  0  0  0  0  0  0  0  0
  1  2  1  0
  2  3  1  0
  3  4  1  0
  4  5  2  0
  5  6  1  0
  6  7  2  0
  6  8  2  0
  6  9  1  0
  9 10  2  0
 10 11  1  0
 10 12  1  0
 12 13  1  0
 12 14  2  0
 14 15  1  0
 15 16  1  0
 15 17  1  0
 15 18  1  0
 18 19  1  0
 18 20  1  0
 18 21  1  0
 21 22  1  0
 21 23  1  0
 21 24  1  0
 24 25  1  0
 24 26  1  0
 24 27  1  0
 14 28  1  0
 28 29  1  0
 28 30  2  0
 30 31  1  0
  4 32  1  0
 32 33  1  0
 32 34  2  0
 34 35  1  0
 34 36  1  0
 36 37  1  0
 36  2  2  0
 30  9  1  0
M  CHG  1   3  -1
M  END
>  <UniqueID>  (71) 
67

>  <SMILES>  (71) 
CCCCc1ccc(S(=O)(=O)/N=c2\cccc[n-]2)cc1

>  <Energy>  (71) 
38.031225433651535

>  <Genealogy>  (71) 
CCCCc1ccc(S(=O)(=O)N=c2cccc[n-]2)cc1 (protonated)
CCCCc1ccc(S(=O)(=O)/N=c2\cccc[n-]2)cc1 (cis-trans isomerization)
CCCCc1ccc(S(=O)(=O)/N=c2\cccc[n-]2)cc1 (3D coordinates assigned)
CCCCc1ccc(S(=O)(=O)/N=c2\cccc[n-]2)cc1 (optimized conformer: 38.031225433651535 kcal/mol)

>  <smiles>  (71) 
CCCCc1ccc(S(=O)(=O)N=c2cccc[nH]2)cc1

>  <score_type>  (71) 
oracle

>  <origin>  (71) 
adg

>  <m_score__min__energy>  (71) 
-9.5800000000000001

>  <m_primary>  (71) 
energy

$$$$
71:0
     RDKit          3D

 58 61  0  0  0  0  0  0  0  0999 V2000
   63.5540   32.3330   49.4850 C   0  0  0  0  0  0  0  0  0  0  0  0
   62.4020   32.1640   48.5890 N   0  0  0  0  0  0  0  0  0  0  0  0
   62.7120   31.2150   47.4980 C   0  0  0  0  0  0  0  0  0  0  0  0
   61.4280   30.8500   46.7490 C   0  0  0  0  0  0  0  0  0  0  0  0
   60.6290   29.9560   47.5220 O   0  0  0  0  0  0  0  0  0  0  0  0
   59.5430   29.2000   47.0450 C   0  0  0  0  0  0  0  0  0  0  0  0
   58.5270   29.7730   46.2510 C   0  0  0  0  0  0  0  0  0  0  0  0
   57.4200   29.0150   45.8370 C   0  0  0  0  0  0  0  0  0  0  0  0
   56.3560   29.6320   45.0130 C   0  0  0  0  0  0  0  0  0  0  0  0
   56.5250   30.7670   44.4940 O   0  0  0  0  0  0  0  0  0  0  0  0
   55.1530   28.9680   44.8010 O   0  0  0  0  0  0  0  0  0  0  0  0
   57.3320   27.6690   46.2250 C   0  0  0  0  0  0  0  0  0  0  0  0
   58.3400   27.0900   46.9950 C   0  0  0  0  0  0  0  0  0  0  0  0
   59.4590   27.8320   47.3830 C   0  0  0  0  0  0  0  0  0  0  0  0
   60.4760   27.1680   48.1510 N   0  0  0  0  0  0  0  0  0  0  0  0
   60.7700   27.3510   49.5440 C   0  0  0  0  0  0  0  0  0  0  0  0
   61.1380   26.3500   50.2150 O   0  0  0  0  0  0  0  0  0  0  0  0
   60.6900   28.6760   50.2070 C   0  0  0  0  0  0  0  0  0  0  0  0
   61.8220   29.2610   50.7980 C   0  0  0  0  0  0  0  0  0  0  0  0
   61.7500   30.5330   51.3700 C   0  0  0  0  0  0  0  0  0  0  0  0
   60.5370   31.2340   51.3800 C   0  0  0  0  0  0  0  0  0  0  0  0
   60.4550   32.5180   51.9410 C   0  0  0  0  0  0  0  0  0  0  0  0
   59.2370   33.2040   51.9500 C   0  0  0  0  0  0  0  0  0  0  0  0
   58.0930   32.6100   51.4080 C   0  0  0  0  0  0  0  0  0  0  0  0
   58.1610   31.3310   50.8500 C   0  0  0  0  0  0  0  0  0  0  0  0
   59.3810   30.6390   50.8220 C   0  0  0  0  0  0  0  0  0  0  0  0
   59.4650   29.3640   50.2420 C   0  0  0  0  0  0  0  0  0  0  0  0
   61.9440   33.7260   47.9510 S   0  0  0  0  0  0  0  0  0  0  0  0
   61.9860   34.7540   49.0470 O   0  0  0  0  0  0  0  0  0  0  0  0
   62.9050   34.1420   46.8720 O   0  0  0  0  0  0  0  0  0  0  0  0
   60.3060   33.6710   47.3060 C   0  0  0  0  0  0  0  0  0  0  0  0
   60.0300   34.2430   46.0560 C   0  0  0  0  0  0  0  0  0  0  0  0
   58.7340   34.1960   45.5320 C   0  0  0  0  0  0  0  0  0  0  0  0
   57.7090   33.5800   46.2550 C   0  0  0  0  0  0  0  0  0  0  0  0
   57.9750   33.0240   47.5100 C   0  0  0  0  0  0  0  0  0  0  0  0
   59.2700   33.0690   48.0360 C   0  0  0  0  0  0  0  0  0  0  0  0
   63.2157   32.2834   50.5305 H   0  0  0  0  0  0  0  0  0  0  0  0
   64.2848   31.5324   49.2977 H   0  0  0  0  0  0  0  0  0  0  0  0
   64.0240   33.3097   49.2977 H   0  0  0  0  0  0  0  0  0  0  0  0
   63.4226   31.6809   46.7994 H   0  0  0  0  0  0  0  0  0  0  0  0
   63.1558   30.3033   47.9244 H   0  0  0  0  0  0  0  0  0  0  0  0
   60.8536   31.7667   46.5494 H   0  0  0  0  0  0  0  0  0  0  0  0
   61.6985   30.3552   45.8045 H   0  0  0  0  0  0  0  0  0  0  0  0
   58.6033   30.8288   45.9520 H   0  0  0  0  0  0  0  0  0  0  0  0
   56.4630   27.0675   45.9199 H   0  0  0  0  0  0  0  0  0  0  0  0
   58.2535   26.0369   47.3007 H   0  0  0  0  0  0  0  0  0  0  0  0
   62.7749   28.7116   50.8104 H   0  0  0  0  0  0  0  0  0  0  0  0
   62.6486   30.9860   51.8141 H   0  0  0  0  0  0  0  0  0  0  0  0
   61.3513   32.9856   52.3746 H   0  0  0  0  0  0  0  0  0  0  0  0
   59.1784   34.2130   52.3843 H   0  0  0  0  0  0  0  0  0  0  0  0
   57.1358   33.1519   51.4210 H   0  0  0  0  0  0  0  0  0  0  0  0
   57.2562   30.8657   50.4318 H   0  0  0  0  0  0  0  0  0  0  0  0
   58.5655   28.8996   49.8116 H   0  0  0  0  0  0  0  0  0  0  0  0
   60.8348   34.7300   45.4859 H   0  0  0  0  0  0  0  0  0  0  0  0
   58.5215   34.6442   44.5502 H   0  0  0  0  0  0  0  0  0  0  0  0
   56.6927   33.5325   45.8367 H   0  0  0  0  0  0  0  0  0  0  0  0
   57.1649   32.5507   48.0842 H   0  0  0  0  0  0  0  0  0  0  0  0
   59.4768   32.6316   49.0239 H   0  0  0  0  0  0  0  0  0  0  0  0
  1  2  1  0
  2  3  1  0
  3  4  1  0
  4  5  1  0
  5  6  1  0
  6  7  2  0
  7  8  1  0
  8  9  1  0
  9 10  2  0
  9 11  1  0
  8 12  2  0
 12 13  1  0
 13 14  2  0
 14 15  1  0
 15 16  1  0
 16 17  2  0
 16 18  1  0
 18 19  2  0
 19 20  1  0
 20 21  2  0
 21 22  1  0
 22 23  2  0
 23 24  1  0
 24 25  2  0
 25 26  1  0
 26 27  2  0
  2 28  1  0
 28 29  2  0
 28 30  2  0
 28 31  1  0
 31 32  2  0
 32 33  1  0
 33 34  2  0
 34 35  1  0
 35 36  2  0
 14  6  1  0
 27 18  1  0
 36 31  1  0
 26 21  1  0
  1 37  1  0
  1 38  1  0
  1 39  1  0
  3 40  1  0
  3 41  1  0
  4 42  1  0
  4 43  1  0
  7 44  1  0
 12 45  1  0
 13 46  1  0
 19 47  1  0
 20 48  1  0
 22 49  1  0
 23 50  1  0
 24 51  1  0
 25 52  1  0
 27 53  1  0
 32 54  1  0
 33 55  1  0
 34 56  1  0
 35 57  1  0
 36 58  1  0
M  CHG  2  11  -1  15  -1
M  END
>  <UniqueID>  (72) 
68

>  <SMILES>  (72) 
CN(CCOc1cc(C(=O)[O-])ccc1[N-]C(=O)c1ccc2ccccc2c1)S(=O)(=O)c1ccccc1

>  <Energy>  (72) 
69.82037032374328

>  <Genealogy>  (72) 
CN(CCOc1cc(C(=O)[O-])ccc1[N-]C(=O)c1ccc2ccccc2c1)S(=O)(=O)c1ccccc1 (protonated)
CN(CCOc1cc(C(=O)[O-])ccc1[N-]C(=O)c1ccc2ccccc2c1)S(=O)(=O)c1ccccc1 (3D coordinates assigned)
CN(CCOc1cc(C(=O)[O-])ccc1[N-]C(=O)c1ccc2ccccc2c1)S(=O)(=O)c1ccccc1 (optimized conformer: 69.82037032374328 kcal/mol)

>  <smiles>  (72) 
CN(CCOc1cc(C(=O)O)ccc1NC(=O)c1ccc2ccccc2c1)S(=O)(=O)c1ccccc1

>  <score_type>  (72) 
oracle

>  <origin>  (72) 
adg

>  <m_score__min__energy>  (72) 
-13.06

>  <m_primary>  (72) 
energy

$$$$
72:0
     RDKit          3D

 42 45  0  0  0  0  0  0  0  0999 V2000
   55.8452   29.3803   43.7099 H   0  0  0  0  0  0  0  0  0  0  0  0
   56.8520   29.3700   44.1530 C   0  0  0  0  0  0  0  0  0  0  0  0
   57.4240   28.1790   44.3790 C   0  0  0  0  0  0  0  0  0  0  0  0
   58.1372   27.8093   43.6275 H   0  0  0  0  0  0  0  0  0  0  0  0
   57.1730   27.3230   45.5570 C   0  0  0  0  0  0  0  0  0  0  0  0
   56.2350   26.3620   45.6520 N   0  0  0  0  0  0  0  0  0  0  0  0
   56.4030   25.8340   46.8560 N   0  0  0  0  0  0  0  0  0  0  0  0
   57.4060   26.4360   47.4760 N   0  0  0  0  0  0  0  0  0  0  0  0
   57.9040   27.3670   46.6810 N   0  0  0  0  0  0  0  0  0  0  0  0
   58.7090   27.9920   46.9090 H   0  0  0  0  0  0  0  0  0  0  0  0
   57.4850   30.6720   44.4600 C   0  0  0  0  0  0  0  0  0  0  0  0
   57.5990   31.6860   43.4730 C   0  0  0  0  0  0  0  0  0  0  0  0
   57.0200   31.5250   42.0910 C   0  0  0  0  0  0  0  0  0  0  0  0
   55.9638   31.8320   42.1046 H   0  0  0  0  0  0  0  0  0  0  0  0
   57.1085   30.4700   41.7925 H   0  0  0  0  0  0  0  0  0  0  0  0
   57.7770   32.3830   41.0830 C   0  0  0  0  0  0  0  0  0  0  0  0
   58.4126   33.1034   41.6188 H   0  0  0  0  0  0  0  0  0  0  0  0
   58.4057   31.7381   40.4515 H   0  0  0  0  0  0  0  0  0  0  0  0
   57.0588   32.9265   40.4515 H   0  0  0  0  0  0  0  0  0  0  0  0
   58.1830   32.8760   43.7920 N   0  0  0  0  0  0  0  0  0  0  0  0
   58.6790   33.0740   45.0340 C   0  0  0  0  0  0  0  0  0  0  0  0
   59.4160   34.4800   45.5820 S   0  0  0  0  0  0  0  0  0  0  0  0
   59.6780   33.8260   47.1220 C   0  0  0  0  0  0  0  0  0  0  0  0
   60.2630   34.5680   48.2820 C   0  0  0  0  0  0  0  0  0  0  0  0
   60.2629   35.6459   48.0624 H   0  0  0  0  0  0  0  0  0  0  0  0
   59.6583   34.3699   49.1792 H   0  0  0  0  0  0  0  0  0  0  0  0
   61.6740   34.1100   48.5270 C   0  0  0  0  0  0  0  0  0  0  0  0
   62.2270   34.1770   49.8160 C   0  0  0  0  0  0  0  0  0  0  0  0
   61.6366   34.5951   50.6446 H   0  0  0  0  0  0  0  0  0  0  0  0
   63.5260   33.7140   50.0500 C   0  0  0  0  0  0  0  0  0  0  0  0
   63.9576   33.7760   51.0599 H   0  0  0  0  0  0  0  0  0  0  0  0
   64.2760   33.1730   49.0030 C   0  0  0  0  0  0  0  0  0  0  0  0
   65.2986   32.8123   49.1881 H   0  0  0  0  0  0  0  0  0  0  0  0
   63.7270   33.0900   47.7200 C   0  0  0  0  0  0  0  0  0  0  0  0
   64.3171   32.6605   46.8970 H   0  0  0  0  0  0  0  0  0  0  0  0
   62.4290   33.5520   47.4810 C   0  0  0  0  0  0  0  0  0  0  0  0
   61.9977   33.4785   46.4718 H   0  0  0  0  0  0  0  0  0  0  0  0
   59.1610   32.5300   47.1650 C   0  0  0  0  0  0  0  0  0  0  0  0
   59.1948   31.8977   48.0645 H   0  0  0  0  0  0  0  0  0  0  0  0
   58.6110   32.1230   45.9880 N   0  0  0  0  0  0  0  0  0  0  0  0
   58.0310   30.9170   45.7390 C   0  0  0  0  0  0  0  0  0  0  0  0
   57.9830   30.0320   46.6380 O   0  0  0  0  0  0  0  0  0  0  0  0
  1  2  1  0
  2  3  2  0
  3  4  1  0
  3  5  1  0
  5  6  2  0
  6  7  1  0
  7  8  1  0
  8  9  2  0
  9 10  1  0
  2 11  1  0
 11 12  2  0
 12 13  1  0
 13 14  1  0
 13 15  1  0
 13 16  1  0
 16 17  1  0
 16 18  1  0
 16 19  1  0
 12 20  1  0
 20 21  2  0
 21 22  1  0
 22 23  1  0
 23 24  1  0
 24 25  1  0
 24 26  1  0
 24 27  1  0
 27 28  2  0
 28 29  1  0
 28 30  1  0
 30 31  1  0
 30 32  2  0
 32 33  1  0
 32 34  1  0
 34 35  1  0
 34 36  2  0
 36 37  1  0
 23 38  2  0
 38 39  1  0
 38 40  1  0
 40 41  1  0
 41 42  2  0
  9  5  1  0
 41 11  1  0
 40 21  1  0
 36 27  1  0
M  CHG  2   7  -1   9   1
M  END
>  <UniqueID>  (73) 
69

>  <SMILES>  (73) 
CCc1nc2sc(Cc3ccccc3)cn2c(=O)c1/C=C\c1n[n-]n[nH+]1

>  <Energy>  (73) 
123.77735380179388

>  <Genealogy>  (73) 
CCc1nc2sc(Cc3ccccc3)cn2c(=O)c1C=Cc1n[n-]n[nH+]1 (protonated)
CCc1nc2sc(Cc3ccccc3)cn2c(=O)c1/C=C\c1n[n-]n[nH+]1 (cis-trans isomerization)
CCc1nc2sc(Cc3ccccc3)cn2c(=O)c1/C=C\c1n[n-]n[nH+]1 (3D coordinates assigned)
CCc1nc2sc(Cc3ccccc3)cn2c(=O)c1/C=C\c1n[n-]n[nH+]1 (optimized conformer: 123.77735380179388 kcal/mol)

>  <smiles>  (73) 
CCc1nc2sc(Cc3ccccc3)cn2c(=O)c1C=Cc1nn[nH]n1

>  <score_type>  (73) 
oracle

>  <origin>  (73) 
adg

>  <m_score__min__energy>  (73) 
-10.359999999999999

>  <m_primary>  (73) 
energy

$$$$
73:0
     RDKit          3D

 28 29  0  0  0  0  0  0  0  0999 V2000
   61.6670   33.4920   48.8540 C   0  0  0  0  0  0  0  0  0  0  0  0
   60.7270   33.1290   47.7430 C   0  0  0  0  0  0  0  0  0  0  0  0
   60.0210   34.1300   47.0580 C   0  0  0  0  0  0  0  0  0  0  0  0
   59.1170   33.7890   46.0470 C   0  0  0  0  0  0  0  0  0  0  0  0
   58.8970   32.4430   45.7220 C   0  0  0  0  0  0  0  0  0  0  0  0
   57.7500   32.0060   44.4600 S   0  0  0  0  0  0  0  0  0  0  0  0
   56.3370   32.1360   44.9550 O   0  0  0  0  0  0  0  0  0  0  0  0
   57.9450   32.9280   43.2900 O   0  0  0  0  0  0  0  0  0  0  0  0
   58.0230   30.3680   43.9500 N   0  0  0  0  0  0  0  0  0  0  0  0
   57.6190   29.2120   44.7090 C   0  0  0  0  0  0  0  0  0  0  0  0
   58.5510   28.3600   45.3250 C   0  0  0  0  0  0  0  0  0  0  0  0
   58.1290   27.2810   46.0310 N   0  0  0  0  0  0  0  0  0  0  0  0
   56.8070   27.0020   46.1590 C   0  0  0  0  0  0  0  0  0  0  0  0
   56.4370   25.9960   46.8160 O   0  0  0  0  0  0  0  0  0  0  0  0
   55.8840   27.8090   45.5790 N   0  0  0  0  0  0  0  0  0  0  0  0
   56.2560   28.9020   44.8620 C   0  0  0  0  0  0  0  0  0  0  0  0
   55.3690   29.6250   44.3370 O   0  0  0  0  0  0  0  0  0  0  0  0
   59.5920   31.4430   46.4120 C   0  0  0  0  0  0  0  0  0  0  0  0
   60.4960   31.7820   47.4240 C   0  0  0  0  0  0  0  0  0  0  0  0
   61.1802   33.3040   49.8223 H   0  0  0  0  0  0  0  0  0  0  0  0
   62.5787   32.8813   48.7772 H   0  0  0  0  0  0  0  0  0  0  0  0
   61.9316   34.5570   48.7772 H   0  0  0  0  0  0  0  0  0  0  0  0
   60.1794   35.1872   47.3174 H   0  0  0  0  0  0  0  0  0  0  0  0
   58.5768   34.5793   45.5050 H   0  0  0  0  0  0  0  0  0  0  0  0
   58.5670   30.2420   43.0670 H   0  0  0  0  0  0  0  0  0  0  0  0
   59.6272   28.5686   45.2345 H   0  0  0  0  0  0  0  0  0  0  0  0
   59.4265   30.3858   46.1572 H   0  0  0  0  0  0  0  0  0  0  0  0
   61.0278   30.9901   47.9718 H   0  0  0  0  0  0  0  0  0  0  0  0
  1  2  1  0
  2  3  2  0
  3  4  1  0
  4  5  2  0
  5  6  1  0
  6  7  2  0
  6  8  2  0
  6  9  1  0
  9 10  1  0
 10 11  2  0
 11 12  1  0
 12 13  1  0
 13 14  2  0
 13 15  1  0
 15 16  1  0
 16 17  2  0
  5 18  1  0
 18 19  2  0
 19  2  1  0
 16 10  1  0
  1 20  1  0
  1 21  1  0
  1 22  1  0
  3 23  1  0
  4 24  1  0
  9 25  1  0
 11 26  1  0
 18 27  1  0
 19 28  1  0
M  CHG  2  12  -1  15  -1
M  END
>  <UniqueID>  (74) 
70

>  <SMILES>  (74) 
Cc1ccc(S(=O)(=O)Nc2c[n-]c(=O)[n-]c2=O)cc1

>  <Energy>  (74) 
32.64783284408095

>  <Genealogy>  (74) 
Cc1ccc(S(=O)(=O)Nc2c[n-]c(=O)[n-]c2=O)cc1 (protonated)
Cc1ccc(S(=O)(=O)Nc2c[n-]c(=O)[n-]c2=O)cc1 (3D coordinates assigned)
Cc1ccc(S(=O)(=O)Nc2c[n-]c(=O)[n-]c2=O)cc1 (optimized conformer: 32.64783284408095 kcal/mol)

>  <smiles>  (74) 
Cc1ccc(S(=O)(=O)Nc2c[nH]c(=O)[nH]c2=O)cc1

>  <score_type>  (74) 
oracle

>  <origin>  (74) 
adg

>  <m_score__min__energy>  (74) 
-11.76

>  <m_primary>  (74) 
energy

$$$$
74:0
     RDKit          3D

 47 49  0  0  0  0  0  0  0  0999 V2000
   55.1430   29.3450   44.8670 N   0  0  0  0  0  0  0  0  0  0  0  0
   56.7080   29.3830   44.1360 S   0  0  0  0  0  0  0  0  0  0  0  0
   57.3580   28.0350   44.2710 O   0  0  0  0  0  0  0  0  0  0  0  0
   56.5700   29.7080   42.6750 O   0  0  0  0  0  0  0  0  0  0  0  0
   57.6980   30.6050   44.9290 C   0  0  0  0  0  0  0  0  0  0  0  0
   57.3690   31.9620   44.8150 C   0  0  0  0  0  0  0  0  0  0  0  0
   58.1470   32.9300   45.4580 C   0  0  0  0  0  0  0  0  0  0  0  0
   59.2580   32.5490   46.2210 C   0  0  0  0  0  0  0  0  0  0  0  0
   60.2080   33.7780   47.0520 S   0  0  0  0  0  0  0  0  0  0  0  0
   59.2700   34.7690   47.6840 O   0  0  0  0  0  0  0  0  0  0  0  0
   61.0840   34.5040   46.0670 O   0  0  0  0  0  0  0  0  0  0  0  0
   61.1880   33.0220   48.2840 N   0  0  1  0  0  0  0  0  0  0  0  0
   62.6170   33.3070   48.0390 C   0  0  0  0  0  0  0  0  0  0  0  0
   63.4990   32.6280   49.0580 C   0  0  0  0  0  0  0  0  0  0  0  0
   63.0450   31.4950   49.7520 C   0  0  0  0  0  0  0  0  0  0  0  0
   63.8860   30.8360   50.6540 C   0  0  0  0  0  0  0  0  0  0  0  0
   65.1860   31.3020   50.8670 C   0  0  0  0  0  0  0  0  0  0  0  0
   65.6480   32.4270   50.1780 C   0  0  0  0  0  0  0  0  0  0  0  0
   64.8100   33.0870   49.2740 C   0  0  0  0  0  0  0  0  0  0  0  0
   60.7720   33.5070   49.5860 C   0  0  0  0  0  0  0  0  0  0  0  0
   61.3770   34.4870   50.1030 O   0  0  0  0  0  0  0  0  0  0  0  0
   59.6400   32.8930   50.3330 C   0  0  0  0  0  0  0  0  0  0  0  0
   59.1320   33.5420   51.4740 C   0  0  0  0  0  0  0  0  0  0  0  0
   58.0800   32.9810   52.2030 C   0  0  0  0  0  0  0  0  0  0  0  0
   57.5260   31.7600   51.8090 C   0  0  0  0  0  0  0  0  0  0  0  0
   56.2090   31.0550   52.7270 Cl  0  0  0  0  0  0  0  0  0  0  0  0
   58.0280   31.0990   50.6860 C   0  0  0  0  0  0  0  0  0  0  0  0
   59.0800   31.6580   49.9520 C   0  0  0  0  0  0  0  0  0  0  0  0
   59.5800   31.1900   46.3470 C   0  0  0  0  0  0  0  0  0  0  0  0
   58.8020   30.2220   45.7040 C   0  0  0  0  0  0  0  0  0  0  0  0
   55.1760   28.6220   45.6200 H   0  0  0  0  0  0  0  0  0  0  0  0
   56.4966   32.2668   44.2183 H   0  0  0  0  0  0  0  0  0  0  0  0
   57.8855   33.9943   45.3642 H   0  0  0  0  0  0  0  0  0  0  0  0
   61.0160   31.9960   48.1910 H   0  0  0  0  0  0  0  0  0  0  0  0
   62.8866   32.9458   47.0356 H   0  0  0  0  0  0  0  0  0  0  0  0
   62.7709   34.3933   48.1186 H   0  0  0  0  0  0  0  0  0  0  0  0
   62.0229   31.1241   49.5853 H   0  0  0  0  0  0  0  0  0  0  0  0
   63.5240   29.9501   51.1963 H   0  0  0  0  0  0  0  0  0  0  0  0
   65.8463   30.7831   51.5774 H   0  0  0  0  0  0  0  0  0  0  0  0
   66.6714   32.7933   50.3471 H   0  0  0  0  0  0  0  0  0  0  0  0
   65.1781   33.9691   48.7296 H   0  0  0  0  0  0  0  0  0  0  0  0
   59.5672   34.4999   51.7949 H   0  0  0  0  0  0  0  0  0  0  0  0
   57.6872   33.5016   53.0888 H   0  0  0  0  0  0  0  0  0  0  0  0
   57.5951   30.1360   50.3775 H   0  0  0  0  0  0  0  0  0  0  0  0
   59.4725   31.1291   49.0710 H   0  0  0  0  0  0  0  0  0  0  0  0
   60.4461   30.8848   46.9527 H   0  0  0  0  0  0  0  0  0  0  0  0
   59.0569   29.1569   45.8065 H   0  0  0  0  0  0  0  0  0  0  0  0
  1  2  1  0
  2  3  2  0
  2  4  2  0
  2  5  1  0
  5  6  2  0
  6  7  1  0
  7  8  2  0
  8  9  1  0
  9 10  2  0
  9 11  2  0
  9 12  1  0
 12 13  1  0
 13 14  1  0
 14 15  2  0
 15 16  1  0
 16 17  2  0
 17 18  1  0
 18 19  2  0
 12 20  1  0
 20 21  2  0
 20 22  1  0
 22 23  2  0
 23 24  1  0
 24 25  2  0
 25 26  1  0
 25 27  1  0
 27 28  2  0
  8 29  1  0
 29 30  2  0
 30  5  1  0
 19 14  1  0
 28 22  1  0
  1 31  1  0
  6 32  1  0
  7 33  1  0
 12 34  1  1
 13 35  1  0
 13 36  1  0
 15 37  1  0
 16 38  1  0
 17 39  1  0
 18 40  1  0
 19 41  1  0
 23 42  1  0
 24 43  1  0
 27 44  1  0
 28 45  1  0
 29 46  1  0
 30 47  1  0
M  CHG  2   1  -1  12   1
M  END
>  <UniqueID>  (75) 
71

>  <SMILES>  (75) 
[NH-]S(=O)(=O)c1ccc(S(=O)(=O)[N@@H+](Cc2ccccc2)C(=O)c2ccc(Cl)cc2)cc1

>  <Energy>  (75) 
51.10067726225709

>  <Genealogy>  (75) 
[NH-]S(=O)(=O)c1ccc(S(=O)(=O)[NH+](Cc2ccccc2)C(=O)c2ccc(Cl)cc2)cc1 (protonated)
[NH-]S(=O)(=O)c1ccc(S(=O)(=O)[N@@H+](Cc2ccccc2)C(=O)c2ccc(Cl)cc2)cc1 (chirality)
[NH-]S(=O)(=O)c1ccc(S(=O)(=O)[N@@H+](Cc2ccccc2)C(=O)c2ccc(Cl)cc2)cc1 (3D coordinates assigned)
[NH-]S(=O)(=O)c1ccc(S(=O)(=O)[N@@H+](Cc2ccccc2)C(=O)c2ccc(Cl)cc2)cc1 (optimized conformer: 51.10067726225709 kcal/mol)

>  <smiles>  (75) 
NS(=O)(=O)c1ccc(S(=O)(=O)N(Cc2ccccc2)C(=O)c2ccc(Cl)cc2)cc1

>  <score_type>  (75) 
oracle

>  <origin>  (75) 
adg

>  <m_score__min__energy>  (75) 
-10.9

>  <m_primary>  (75) 
energy

$$$$
75:0
     RDKit          3D

 52 56  0  0  0  0  0  0  0  0999 V2000
   55.9320   27.3320   45.6540 O   0  0  0  0  0  0  0  0  0  0  0  0
   56.5420   28.4180   45.4730 C   0  0  0  0  0  0  0  0  0  0  0  0
   55.9190   29.4340   44.6750 N   0  0  0  0  0  0  0  0  0  0  0  0
   56.5770   30.5480   44.0480 C   0  0  0  0  0  0  0  0  0  0  0  0
   56.7500   30.6210   42.6530 C   0  0  0  0  0  0  0  0  0  0  0  0
   57.4260   31.7070   42.0810 C   0  0  0  0  0  0  0  0  0  0  0  0
   57.9490   32.7160   42.8980 C   0  0  0  0  0  0  0  0  0  0  0  0
   57.7920   32.6420   44.2860 C   0  0  0  0  0  0  0  0  0  0  0  0
   58.4360   33.9130   45.3050 Cl  0  0  0  0  0  0  0  0  0  0  0  0
   57.1160   31.5570   44.8590 C   0  0  0  0  0  0  0  0  0  0  0  0
   57.8960   28.5920   46.0450 C   0  0  0  0  0  0  0  0  0  0  0  0
   58.9610   27.8020   45.5830 C   0  0  0  0  0  0  0  0  0  0  0  0
   60.2330   27.9360   46.1470 C   0  0  0  0  0  0  0  0  0  0  0  0
   60.4510   28.8560   47.1770 C   0  0  0  0  0  0  0  0  0  0  0  0
   59.4000   29.6570   47.6400 C   0  0  0  0  0  0  0  0  0  0  0  0
   59.6490   30.5710   48.6700 O   0  0  0  0  0  0  0  0  0  0  0  0
   59.0030   30.5180   49.9120 C   0  0  0  0  0  0  0  0  0  0  0  0
   58.0880   31.5030   50.3220 C   0  0  0  0  0  0  0  0  0  0  0  0
   57.4080   31.3730   51.5350 C   0  0  0  0  0  0  0  0  0  0  0  0
   57.6090   30.2430   52.3370 C   0  0  0  0  0  0  0  0  0  0  0  0
   56.5700   29.9440   53.7280 S   0  0  0  0  0  0  0  0  0  0  0  0
   56.2900   31.2180   54.4660 O   0  0  0  0  0  0  0  0  0  0  0  0
   57.2650   28.9870   54.6510 O   0  0  0  0  0  0  0  0  0  0  0  0
   55.0680   29.2460   53.2080 N   0  0  0  0  0  0  0  0  0  0  0  0
   53.9710   29.9800   52.6390 C   0  0  0  0  0  0  0  0  0  0  0  0
   53.8950   30.0950   51.2280 C   0  0  0  0  0  0  0  0  0  0  0  0
   52.8890   30.8720   50.6180 C   0  0  0  0  0  0  0  0  0  0  0  0
   51.9790   31.5210   51.4470 C   0  0  0  0  0  0  0  0  0  0  0  0
   50.9760   32.3450   51.0960 N   0  0  0  0  0  0  0  0  0  0  0  0
   50.3930   32.7580   52.2200 N   0  0  0  0  0  0  0  0  0  0  0  0
   51.0160   32.1900   53.2810 C   0  0  0  0  0  0  0  0  0  0  0  0
   52.0340   31.3980   52.8020 C   0  0  0  0  0  0  0  0  0  0  0  0
   52.9920   30.6160   53.4430 C   0  0  0  0  0  0  0  0  0  0  0  0
   58.5610   29.2870   51.9570 C   0  0  0  0  0  0  0  0  0  0  0  0
   59.2700   29.4360   50.7590 C   0  0  0  0  0  0  0  0  0  0  0  0
   58.1310   29.5460   47.0530 C   0  0  0  0  0  0  0  0  0  0  0  0
   56.3529   29.8223   42.0092 H   0  0  0  0  0  0  0  0  0  0  0  0
   57.5457   31.7666   40.9892 H   0  0  0  0  0  0  0  0  0  0  0  0
   58.4830   33.5664   42.4490 H   0  0  0  0  0  0  0  0  0  0  0  0
   57.0073   31.4962   45.9519 H   0  0  0  0  0  0  0  0  0  0  0  0
   58.7937   27.0752   44.7745 H   0  0  0  0  0  0  0  0  0  0  0  0
   61.0643   27.3163   45.7797 H   0  0  0  0  0  0  0  0  0  0  0  0
   61.4512   28.9508   47.6250 H   0  0  0  0  0  0  0  0  0  0  0  0
   57.9065   32.3807   49.6843 H   0  0  0  0  0  0  0  0  0  0  0  0
   56.7127   32.1605   51.8612 H   0  0  0  0  0  0  0  0  0  0  0  0
   54.6309   29.5709   50.6006 H   0  0  0  0  0  0  0  0  0  0  0  0
   52.8256   30.9622   49.5235 H   0  0  0  0  0  0  0  0  0  0  0  0
   50.7539   32.3364   54.3392 H   0  0  0  0  0  0  0  0  0  0  0  0
   52.9889   30.4960   54.5364 H   0  0  0  0  0  0  0  0  0  0  0  0
   58.7517   28.4168   52.6022 H   0  0  0  0  0  0  0  0  0  0  0  0
   60.0395   28.7003   50.4824 H   0  0  0  0  0  0  0  0  0  0  0  0
   57.3158   30.2074   47.3818 H   0  0  0  0  0  0  0  0  0  0  0  0
  1  2  2  0
  2  3  1  0
  3  4  1  0
  4  5  2  0
  5  6  1  0
  6  7  2  0
  7  8  1  0
  8  9  1  0
  8 10  2  0
  2 11  1  0
 11 12  2  0
 12 13  1  0
 13 14  2  0
 14 15  1  0
 15 16  1  0
 16 17  1  0
 17 18  2  0
 18 19  1  0
 19 20  2  0
 20 21  1  0
 21 22  2  0
 21 23  2  0
 21 24  1  0
 24 25  1  0
 25 26  2  0
 26 27  1  0
 27 28  2  0
 28 29  1  0
 29 30  1  0
 30 31  2  0
 31 32  1  0
 32 33  2  0
 20 34  1  0
 34 35  2  0
 15 36  2  0
 10  4  1  0
 36 11  1  0
 35 17  1  0
 33 25  1  0
 32 28  1  0
  5 37  1  0
  6 38  1  0
  7 39  1  0
 10 40  1  0
 12 41  1  0
 13 42  1  0
 14 43  1  0
 18 44  1  0
 19 45  1  0
 26 46  1  0
 27 47  1  0
 31 48  1  0
 33 49  1  0
 34 50  1  0
 35 51  1  0
 36 52  1  0
M  CHG  3   3  -1  24  -1  29  -1
M  END
>  <UniqueID>  (76) 
72

>  <SMILES>  (76) 
O=C([N-]c1cccc(Cl)c1)c1cccc(Oc2ccc(S(=O)(=O)[N-]c3ccc4[n-]ncc4c3)cc2)c1

>  <Energy>  (76) 
117.56694483220885

>  <Genealogy>  (76) 
O=C([N-]c1cccc(Cl)c1)c1cccc(Oc2ccc(S(=O)(=O)[N-]c3ccc4[n-]ncc4c3)cc2)c1 (protonated)
O=C([N-]c1cccc(Cl)c1)c1cccc(Oc2ccc(S(=O)(=O)[N-]c3ccc4[n-]ncc4c3)cc2)c1 (3D coordinates assigned)
O=C([N-]c1cccc(Cl)c1)c1cccc(Oc2ccc(S(=O)(=O)[N-]c3ccc4[n-]ncc4c3)cc2)c1 (optimized conformer: 117.56694483220885 kcal/mol)

>  <smiles>  (76) 
O=C(Nc1cccc(Cl)c1)c1cccc(Oc2ccc(S(=O)(=O)Nc3ccc4[nH]ncc4c3)cc2)c1

>  <score_type>  (76) 
oracle

>  <origin>  (76) 
adg

>  <m_score__min__energy>  (76) 
-15.73

>  <m_primary>  (76) 
energy

$$$$
76:0
     RDKit          3D

 48 49  0  0  0  0  0  0  0  0999 V2000
   54.7860   22.9460   48.2390 C   0  0  0  0  0  0  0  0  0  0  0  0
   56.4480   23.0860   47.6170 S   0  0  0  0  0  0  0  0  0  0  0  0
   57.0190   24.3700   48.1530 O   0  0  0  0  0  0  0  0  0  0  0  0
   57.2990   21.9550   48.1190 O   0  0  0  0  0  0  0  0  0  0  0  0
   56.4380   23.1210   45.8400 C   0  0  0  0  0  0  0  0  0  0  0  0
   57.2720   22.2070   45.1700 C   0  0  0  0  0  0  0  0  0  0  0  0
   57.3890   22.2260   43.7810 C   0  0  0  0  0  0  0  0  0  0  0  0
   56.6780   23.1590   43.0340 C   0  0  0  0  0  0  0  0  0  0  0  0
   55.8410   24.0730   43.6740 C   0  0  0  0  0  0  0  0  0  0  0  0
   55.6930   24.0690   45.0750 C   0  0  0  0  0  0  0  0  0  0  0  0
   54.7450   25.0490   45.6650 C   0  0  0  0  0  0  0  0  0  0  0  0
   53.5320   24.7540   45.8230 O   0  0  0  0  0  0  0  0  0  0  0  0
   55.1970   26.3740   45.9780 N   0  0  0  0  0  0  0  0  0  0  0  0
   56.5700   26.7080   46.3490 C   0  0  0  0  0  0  0  0  0  0  0  0
   57.3480   27.2560   45.1490 C   0  0  0  0  0  0  0  0  0  0  0  0
   57.8110   28.6230   45.3840 N   0  0  0  0  0  0  0  0  0  0  0  0
   57.0770   29.7770   44.9430 C   0  0  0  0  0  0  0  0  0  0  0  0
   55.9930   29.6320   44.3160 O   0  0  0  0  0  0  0  0  0  0  0  0
   57.5790   31.1390   45.2300 C   0  0  0  0  0  0  0  0  0  0  0  0
   57.3970   32.1570   44.2780 C   0  0  0  0  0  0  0  0  0  0  0  0
   57.8650   33.4480   44.5220 C   0  0  0  0  0  0  0  0  0  0  0  0
   58.5200   33.7390   45.7170 C   0  0  0  0  0  0  0  0  0  0  0  0
   58.7130   32.7400   46.6730 C   0  0  0  0  0  0  0  0  0  0  0  0
   58.2470   31.4310   46.4430 C   0  0  0  0  0  0  0  0  0  0  0  0
   58.4720   30.3750   47.3910 N   0  0  0  0  0  0  0  0  0  0  0  0
   59.8990   29.4000   47.5480 S   0  0  0  0  0  0  0  0  0  0  0  0
   60.7190   29.4700   46.2900 O   0  0  0  0  0  0  0  0  0  0  0  0
   59.4770   27.9730   47.7600 O   0  0  0  0  0  0  0  0  0  0  0  0
   60.8590   29.9270   48.9540 C   0  0  0  0  0  0  0  0  0  0  0  0
   61.2750   28.8200   49.6680 F   0  0  0  0  0  0  0  0  0  0  0  0
   61.9640   30.6400   48.5350 F   0  0  0  0  0  0  0  0  0  0  0  0
   60.0810   30.7280   49.7660 F   0  0  0  0  0  0  0  0  0  0  0  0
   54.8048   22.9476   49.3388 H   0  0  0  0  0  0  0  0  0  0  0  0
   54.1877   23.7969   47.8813 H   0  0  0  0  0  0  0  0  0  0  0  0
   54.3385   22.0070   47.8813 H   0  0  0  0  0  0  0  0  0  0  0  0
   57.8405   21.4660   45.7512 H   0  0  0  0  0  0  0  0  0  0  0  0
   58.0446   21.5020   43.2751 H   0  0  0  0  0  0  0  0  0  0  0  0
   56.7757   23.1762   41.9385 H   0  0  0  0  0  0  0  0  0  0  0  0
   55.2867   24.8099   43.0742 H   0  0  0  0  0  0  0  0  0  0  0  0
   56.5525   27.4686   47.1434 H   0  0  0  0  0  0  0  0  0  0  0  0
   57.0692   25.7930   46.7005 H   0  0  0  0  0  0  0  0  0  0  0  0
   58.2197   26.6110   44.9645 H   0  0  0  0  0  0  0  0  0  0  0  0
   56.6747   27.2665   44.2792 H   0  0  0  0  0  0  0  0  0  0  0  0
   58.7220   28.7500   45.8770 H   0  0  0  0  0  0  0  0  0  0  0  0
   56.8811   31.9336   43.3325 H   0  0  0  0  0  0  0  0  0  0  0  0
   57.7169   34.2373   43.7703 H   0  0  0  0  0  0  0  0  0  0  0  0
   58.8860   34.7587   45.9076 H   0  0  0  0  0  0  0  0  0  0  0  0
   59.2329   32.9771   47.6129 H   0  0  0  0  0  0  0  0  0  0  0  0
  1  2  1  0
  2  3  2  0
  2  4  2  0
  2  5  1  0
  5  6  2  0
  6  7  1  0
  7  8  2  0
  8  9  1  0
  9 10  2  0
 10 11  1  0
 11 12  2  0
 11 13  1  0
 13 14  1  0
 14 15  1  0
 15 16  1  0
 16 17  1  0
 17 18  2  0
 17 19  1  0
 19 20  2  0
 20 21  1  0
 21 22  2  0
 22 23  1  0
 23 24  2  0
 24 25  1  0
 25 26  1  0
 26 27  2  0
 26 28  2  0
 26 29  1  0
 29 30  1  0
 29 31  1  0
 29 32  1  0
 10  5  1  0
 24 19  1  0
  1 33  1  0
  1 34  1  0
  1 35  1  0
  6 36  1  0
  7 37  1  0
  8 38  1  0
  9 39  1  0
 14 40  1  0
 14 41  1  0
 15 42  1  0
 15 43  1  0
 16 44  1  0
 20 45  1  0
 21 46  1  0
 22 47  1  0
 23 48  1  0
M  CHG  2  13  -1  25  -1
M  END
>  <UniqueID>  (77) 
73

>  <SMILES>  (77) 
CS(=O)(=O)c1ccccc1C(=O)[N-]CCNC(=O)c1ccccc1[N-]S(=O)(=O)C(F)(F)F

>  <Energy>  (77) 
47.89151766178672

>  <Genealogy>  (77) 
CS(=O)(=O)c1ccccc1C(=O)[N-]CCNC(=O)c1ccccc1[N-]S(=O)(=O)C(F)(F)F (protonated)
CS(=O)(=O)c1ccccc1C(=O)[N-]CCNC(=O)c1ccccc1[N-]S(=O)(=O)C(F)(F)F (3D coordinates assigned)
CS(=O)(=O)c1ccccc1C(=O)[N-]CCNC(=O)c1ccccc1[N-]S(=O)(=O)C(F)(F)F (optimized conformer: 47.89151766178672 kcal/mol)

>  <smiles>  (77) 
CS(=O)(=O)c1ccccc1C(=O)NCCNC(=O)c1ccccc1NS(=O)(=O)C(F)(F)F

>  <score_type>  (77) 
oracle

>  <origin>  (77) 
adg

>  <m_score__min__energy>  (77) 
-11.359999999999999

>  <m_primary>  (77) 
energy

$$$$
77:0
     RDKit          3D

 66 70  0  0  0  0  0  0  0  0999 V2000
   61.9100   26.1363   50.7621 H   0  0  0  0  0  0  0  0  0  0  0  0
   61.2740   27.0200   50.9190 C   0  0  0  0  0  0  0  0  0  0  0  0
   61.1120   27.4430   52.1820 C   0  0  0  0  0  0  0  0  0  0  0  0
   61.5541   26.8312   52.9821 H   0  0  0  0  0  0  0  0  0  0  0  0
   60.3870   28.6650   52.5820 C   0  0  0  0  0  0  0  0  0  0  0  0
   58.9850   28.6770   52.6830 C   0  0  0  0  0  0  0  0  0  0  0  0
   58.4148   27.7502   52.5220 H   0  0  0  0  0  0  0  0  0  0  0  0
   58.3140   29.8660   52.9880 C   0  0  0  0  0  0  0  0  0  0  0  0
   57.2161   29.8690   53.0563 H   0  0  0  0  0  0  0  0  0  0  0  0
   59.0270   31.0560   53.2080 C   0  0  0  0  0  0  0  0  0  0  0  0
   58.3040   32.2750   53.4340 N   0  0  0  0  0  0  0  0  0  0  0  0
   57.4230   32.2320   53.9910 H   0  0  0  0  0  0  0  0  0  0  0  0
   58.8750   33.8450   52.9560 S   0  0  0  0  0  0  0  0  0  0  0  0
   59.9260   33.6790   51.8960 O   0  0  0  0  0  0  0  0  0  0  0  0
   57.7430   34.6440   52.3780 O   0  0  0  0  0  0  0  0  0  0  0  0
   59.5910   34.7020   54.3420 C   0  0  0  0  0  0  0  0  0  0  0  0
   59.2207   34.2588   55.2782 H   0  0  0  0  0  0  0  0  0  0  0  0
   60.6866   34.6126   54.3022 H   0  0  0  0  0  0  0  0  0  0  0  0
   59.3081   35.7643   54.3022 H   0  0  0  0  0  0  0  0  0  0  0  0
   60.4330   31.0410   53.1000 C   0  0  0  0  0  0  0  0  0  0  0  0
   61.0061   31.9640   53.2722 H   0  0  0  0  0  0  0  0  0  0  0  0
   61.1020   29.8540   52.7740 C   0  0  0  0  0  0  0  0  0  0  0  0
   62.1969   29.8558   52.6680 H   0  0  0  0  0  0  0  0  0  0  0  0
   60.6700   27.6410   49.7190 C   0  0  0  0  0  0  0  0  0  0  0  0
   60.0340   26.8850   48.7810 N   0  0  0  0  0  0  0  0  0  0  0  0
   59.5090   27.4230   47.6480 C   0  0  0  0  0  0  0  0  0  0  0  0
   58.8390   26.6050   46.7330 C   0  0  0  0  0  0  0  0  0  0  0  0
   58.7400   25.5273   46.9300 H   0  0  0  0  0  0  0  0  0  0  0  0
   58.2950   27.1540   45.5690 C   0  0  0  0  0  0  0  0  0  0  0  0
   57.7477   26.5099   44.8650 H   0  0  0  0  0  0  0  0  0  0  0  0
   58.4420   28.5180   45.2930 C   0  0  0  0  0  0  0  0  0  0  0  0
   57.9090   29.0390   44.0730 N   0  0  0  0  0  0  0  0  0  0  0  0
   56.7760   30.3530   43.9950 S   0  0  0  0  0  0  0  0  0  0  0  0
   56.3390   30.5190   42.5670 O   0  0  0  0  0  0  0  0  0  0  0  0
   55.5570   30.0680   44.8320 O   0  0  0  0  0  0  0  0  0  0  0  0
   57.5570   31.8340   44.5610 C   0  0  0  0  0  0  0  0  0  0  0  0
   57.5350   32.1520   45.9270 C   0  0  0  0  0  0  0  0  0  0  0  0
   57.0083   31.4947   46.6345 H   0  0  0  0  0  0  0  0  0  0  0  0
   58.1800   33.3010   46.3920 C   0  0  0  0  0  0  0  0  0  0  0  0
   58.1739   33.5373   47.4663 H   0  0  0  0  0  0  0  0  0  0  0  0
   58.8340   34.1520   45.4930 C   0  0  0  0  0  0  0  0  0  0  0  0
   59.6410   35.5940   46.0790 Cl  0  0  0  0  0  0  0  0  0  0  0  0
   58.8480   33.8480   44.1260 C   0  0  0  0  0  0  0  0  0  0  0  0
   59.3549   34.5198   43.4177 H   0  0  0  0  0  0  0  0  0  0  0  0
   58.2160   32.6880   43.6620 C   0  0  0  0  0  0  0  0  0  0  0  0
   58.2358   32.4448   42.5894 H   0  0  0  0  0  0  0  0  0  0  0  0
   59.0980   29.3460   46.2190 C   0  0  0  0  0  0  0  0  0  0  0  0
   59.1921   30.4233   46.0178 H   0  0  0  0  0  0  0  0  0  0  0  0
   59.6350   28.8070   47.4010 C   0  0  0  0  0  0  0  0  0  0  0  0
   60.2980   29.6070   48.3540 C   0  0  0  0  0  0  0  0  0  0  0  0
   60.4590   31.0180   48.1620 N   0  0  0  0  0  0  0  0  0  0  0  0
   59.7590   31.9220   49.0880 C   0  0  0  0  0  0  0  0  0  0  0  0
   58.6747   31.7983   48.9504 H   0  0  0  0  0  0  0  0  0  0  0  0
   60.0681   31.6597   50.1106 H   0  0  0  0  0  0  0  0  0  0  0  0
   60.1210   33.3960   48.8530 C   0  0  0  0  0  0  0  0  0  0  0  0
   59.4591   33.8089   48.0775 H   0  0  0  0  0  0  0  0  0  0  0  0
   59.9953   33.9411   49.8002 H   0  0  0  0  0  0  0  0  0  0  0  0
   61.4610   33.5310   48.4340 O   0  0  0  0  0  0  0  0  0  0  0  0
   61.5900   32.9900   47.1360 C   0  0  0  0  0  0  0  0  0  0  0  0
   60.8108   33.4175   46.4879 H   0  0  0  0  0  0  0  0  0  0  0  0
   62.5889   33.2381   46.7480 H   0  0  0  0  0  0  0  0  0  0  0  0
   61.4390   31.4680   47.1650 C   0  0  0  0  0  0  0  0  0  0  0  0
   61.1130   31.1270   46.1713 H   0  0  0  0  0  0  0  0  0  0  0  0
   62.4148   31.0409   47.4397 H   0  0  0  0  0  0  0  0  0  0  0  0
   60.8190   29.0150   49.5110 C   0  0  0  0  0  0  0  0  0  0  0  0
   61.3450   29.6307   50.2555 H   0  0  0  0  0  0  0  0  0  0  0  0
  1  2  1  0
  2  3  2  0
  3  4  1  0
  3  5  1  0
  5  6  2  0
  6  7  1  0
  6  8  1  0
  8  9  1  0
  8 10  2  0
 10 11  1  0
 11 12  1  0
 11 13  1  0
 13 14  2  0
 13 15  2  0
 13 16  1  0
 16 17  1  0
 16 18  1  0
 16 19  1  0
 10 20  1  0
 20 21  1  0
 20 22  2  0
 22 23  1  0
  2 24  1  0
 24 25  2  0
 25 26  1  0
 26 27  2  0
 27 28  1  0
 27 29  1  0
 29 30  1  0
 29 31  2  0
 31 32  1  0
 32 33  1  0
 33 34  2  0
 33 35  2  0
 33 36  1  0
 36 37  2  0
 37 38  1  0
 37 39  1  0
 39 40  1  0
 39 41  2  0
 41 42  1  0
 41 43  1  0
 43 44  1  0
 43 45  2  0
 45 46  1  0
 31 47  1  0
 47 48  1  0
 47 49  2  0
 49 50  1  0
 50 51  1  0
 51 52  1  0
 52 53  1  0
 52 54  1  0
 52 55  1  0
 55 56  1  0
 55 57  1  0
 55 58  1  0
 58 59  1  0
 59 60  1  0
 59 61  1  0
 59 62  1  0
 62 63  1  0
 62 64  1  0
 50 65  2  0
 65 66  1  0
 22  5  1  0
 65 24  1  0
 49 26  1  0
 62 51  1  0
 45 36  1  0
M  CHG  1  32  -1
M  END
>  <UniqueID>  (78) 
74

>  <SMILES>  (78) 
CS(=O)(=O)Nc1ccc(/C=C\c2cc(N3CCOCC3)c3cc([N-]S(=O)(=O)c4ccc(Cl)cc4)ccc3n2)cc1

>  <Energy>  (78) 
96.9203560459309

>  <Genealogy>  (78) 
CS(=O)(=O)Nc1ccc(C=Cc2cc(N3CCOCC3)c3cc([N-]S(=O)(=O)c4ccc(Cl)cc4)ccc3n2)cc1 (protonated)
CS(=O)(=O)Nc1ccc(/C=C\c2cc(N3CCOCC3)c3cc([N-]S(=O)(=O)c4ccc(Cl)cc4)ccc3n2)cc1 (cis-trans isomerization)
CS(=O)(=O)Nc1ccc(/C=C\c2cc(N3CCOCC3)c3cc([N-]S(=O)(=O)c4ccc(Cl)cc4)ccc3n2)cc1 (3D coordinates assigned)
CS(=O)(=O)Nc1ccc(/C=C\c2cc(N3CCOCC3)c3cc([N-]S(=O)(=O)c4ccc(Cl)cc4)ccc3n2)cc1 (nonaromatic ring conformer: 96.9203560459309 kcal/mol)

>  <smiles>  (78) 
CS(=O)(=O)Nc1ccc(C=Cc2cc(N3CCOCC3)c3cc(NS(=O)(=O)c4ccc(Cl)cc4)ccc3n2)cc1

>  <score_type>  (78) 
oracle

>  <origin>  (78) 
adg

>  <m_score__min__energy>  (78) 
-12.18

>  <m_primary>  (78) 
energy

$$$$
78:0
     RDKit          3D

 32 33  0  0  0  0  0  0  0  0999 V2000
   55.1410   29.3860   44.8480 N   0  0  0  0  0  0  0  0  0  0  0  0
   56.5010   30.3900   44.4910 S   0  0  0  0  0  0  0  0  0  0  0  0
   56.7970   30.3330   43.0180 O   0  0  0  0  0  0  0  0  0  0  0  0
   56.1830   31.8110   44.8640 O   0  0  0  0  0  0  0  0  0  0  0  0
   57.9000   29.8300   45.4010 C   0  0  0  0  0  0  0  0  0  0  0  0
   58.6210   30.7200   46.2080 C   0  0  0  0  0  0  0  0  0  0  0  0
   59.7220   30.2710   46.9370 C   0  0  0  0  0  0  0  0  0  0  0  0
   60.1100   28.9290   46.8720 C   0  0  0  0  0  0  0  0  0  0  0  0
   59.3870   28.0180   46.0770 C   0  0  0  0  0  0  0  0  0  0  0  0
   59.7500   26.6260   45.9930 N   0  0  0  0  0  0  0  0  0  0  0  0
   59.1700   25.5690   46.8230 C   0  0  0  0  0  0  0  0  0  0  0  0
   57.8440   25.1220   46.2670 C   0  0  0  0  0  0  0  0  0  0  0  0
   57.7280   23.8710   45.6390 C   0  0  0  0  0  0  0  0  0  0  0  0
   56.4990   23.4510   45.1250 C   0  0  0  0  0  0  0  0  0  0  0  0
   55.3700   24.2680   45.2370 C   0  0  0  0  0  0  0  0  0  0  0  0
   54.1550   23.8260   44.7130 O   0  0  0  0  0  0  0  0  0  0  0  0
   55.4760   25.5170   45.8730 C   0  0  0  0  0  0  0  0  0  0  0  0
   54.3630   26.3410   45.9970 O   0  0  0  0  0  0  0  0  0  0  0  0
   56.7070   25.9370   46.3880 C   0  0  0  0  0  0  0  0  0  0  0  0
   58.2840   28.4840   45.3420 C   0  0  0  0  0  0  0  0  0  0  0  0
   54.6660   29.8020   45.6810 H   0  0  0  0  0  0  0  0  0  0  0  0
   58.3178   31.7758   46.2668 H   0  0  0  0  0  0  0  0  0  0  0  0
   60.2872   30.9750   47.5654 H   0  0  0  0  0  0  0  0  0  0  0  0
   60.9836   28.5832   47.4441 H   0  0  0  0  0  0  0  0  0  0  0  0
   60.4380   26.3340   45.2630 H   0  0  0  0  0  0  0  0  0  0  0  0
   59.8583   24.7114   46.8484 H   0  0  0  0  0  0  0  0  0  0  0  0
   59.0129   25.9629   47.8380 H   0  0  0  0  0  0  0  0  0  0  0  0
   58.6094   23.2188   45.5515 H   0  0  0  0  0  0  0  0  0  0  0  0
   56.4190   22.4722   44.6294 H   0  0  0  0  0  0  0  0  0  0  0  0
   53.3350   24.4190   44.6810 H   0  0  0  0  0  0  0  0  0  0  0  0
   56.7848   26.9121   46.8911 H   0  0  0  0  0  0  0  0  0  0  0  0
   57.7152   27.7837   44.7127 H   0  0  0  0  0  0  0  0  0  0  0  0
  1  2  1  0
  2  3  2  0
  2  4  2  0
  2  5  1  0
  5  6  2  0
  6  7  1  0
  7  8  2  0
  8  9  1  0
  9 10  1  0
 10 11  1  0
 11 12  1  0
 12 13  2  0
 13 14  1  0
 14 15  2  0
 15 16  1  0
 15 17  1  0
 17 18  1  0
 17 19  2  0
  9 20  2  0
 20  5  1  0
 19 12  1  0
  1 21  1  0
  6 22  1  0
  7 23  1  0
  8 24  1  0
 10 25  1  0
 11 26  1  0
 11 27  1  0
 13 28  1  0
 14 29  1  0
 16 30  1  0
 19 31  1  0
 20 32  1  0
M  CHG  2   1  -1  18  -1
M  END
>  <UniqueID>  (79) 
75

>  <SMILES>  (79) 
[NH-]S(=O)(=O)c1cccc(NCc2ccc(O)c([O-])c2)c1

>  <Energy>  (79) 
31.6783506109739

>  <Genealogy>  (79) 
[NH-]S(=O)(=O)c1cccc(NCc2ccc(O)c([O-])c2)c1 (protonated)
[NH-]S(=O)(=O)c1cccc(NCc2ccc(O)c([O-])c2)c1 (3D coordinates assigned)
[NH-]S(=O)(=O)c1cccc(NCc2ccc(O)c([O-])c2)c1 (optimized conformer: 31.6783506109739 kcal/mol)

>  <smiles>  (79) 
NS(=O)(=O)c1cccc(NCc2ccc(O)c(O)c2)c1

>  <score_type>  (79) 
oracle

>  <origin>  (79) 
adg

>  <m_score__min__energy>  (79) 
-13.210000000000001

>  <m_primary>  (79) 
energy

$$$$
79:0
     RDKit          3D

 44 46  0  0  0  0  0  0  0  0999 V2000
   59.3000   33.8850   46.4220 C   0  0  0  0  0  0  0  0  0  0  0  0
   59.3160   32.9220   45.3910 O   0  0  0  0  0  0  0  0  0  0  0  0
   58.5070   33.3440   44.3090 C   0  0  0  0  0  0  0  0  0  0  0  0
   57.9850   32.1230   43.5370 C   0  0  0  0  0  0  0  0  0  0  0  0
   58.2290   30.8600   44.2500 N   0  0  0  0  0  0  0  0  0  0  0  0
   57.4010   30.7210   45.4550 C   0  0  0  0  0  0  0  0  0  0  0  0
   57.3680   29.2670   45.8720 C   0  0  0  0  0  0  0  0  0  0  0  0
   58.4290   28.7110   46.6290 C   0  0  0  0  0  0  0  0  0  0  0  0
   59.6040   29.5160   47.0190 C   0  0  0  0  0  0  0  0  0  0  0  0
   59.6790   30.0560   48.3110 C   0  0  0  0  0  0  0  0  0  0  0  0
   60.8040   30.7940   48.7050 C   0  0  0  0  0  0  0  0  0  0  0  0
   60.8900   31.3270   50.0010 C   0  0  0  0  0  0  0  0  0  0  0  0
   62.0180   32.0570   50.3860 C   0  0  0  0  0  0  0  0  0  0  0  0
   63.0660   32.2620   49.4830 C   0  0  0  0  0  0  0  0  0  0  0  0
   64.1840   32.9900   49.8720 O   0  0  0  0  0  0  0  0  0  0  0  0
   62.9910   31.7360   48.1890 C   0  0  0  0  0  0  0  0  0  0  0  0
   61.8640   31.0000   47.7910 C   0  0  0  0  0  0  0  0  0  0  0  0
   61.7790   30.4670   46.4970 C   0  0  0  0  0  0  0  0  0  0  0  0
   60.6550   29.7260   46.1080 C   0  0  0  0  0  0  0  0  0  0  0  0
   60.5820   29.1890   44.8230 O   0  0  0  0  0  0  0  0  0  0  0  0
   58.3650   27.3730   47.0430 C   0  0  0  0  0  0  0  0  0  0  0  0
   57.2620   26.5840   46.7180 C   0  0  0  0  0  0  0  0  0  0  0  0
   56.2060   27.1250   45.9830 C   0  0  0  0  0  0  0  0  0  0  0  0
   55.1070   26.3330   45.6720 O   0  0  0  0  0  0  0  0  0  0  0  0
   56.2490   28.4610   45.5660 C   0  0  0  0  0  0  0  0  0  0  0  0
   55.1740   28.9810   44.8510 O   0  0  0  0  0  0  0  0  0  0  0  0
   59.3084   33.3775   47.3979 H   0  0  0  0  0  0  0  0  0  0  0  0
   60.1876   34.5291   46.3360 H   0  0  0  0  0  0  0  0  0  0  0  0
   58.3915   34.4992   46.3360 H   0  0  0  0  0  0  0  0  0  0  0  0
   57.6549   33.9226   44.6951 H   0  0  0  0  0  0  0  0  0  0  0  0
   59.1066   33.9703   43.6321 H   0  0  0  0  0  0  0  0  0  0  0  0
   56.9018   32.2386   43.3846 H   0  0  0  0  0  0  0  0  0  0  0  0
   58.5251   32.0765   42.5799 H   0  0  0  0  0  0  0  0  0  0  0  0
   59.2400   30.7980   44.5180 H   0  0  0  0  0  0  0  0  0  0  0  0
   57.8290   31.3269   46.2672 H   0  0  0  0  0  0  0  0  0  0  0  0
   56.3788   31.0674   45.2426 H   0  0  0  0  0  0  0  0  0  0  0  0
   58.8514   29.8998   49.0186 H   0  0  0  0  0  0  0  0  0  0  0  0
   60.0680   31.1698   50.7148 H   0  0  0  0  0  0  0  0  0  0  0  0
   62.0817   32.4717   51.4028 H   0  0  0  0  0  0  0  0  0  0  0  0
   63.8173   31.8996   47.4816 H   0  0  0  0  0  0  0  0  0  0  0  0
   62.5994   30.6314   45.7829 H   0  0  0  0  0  0  0  0  0  0  0  0
   59.7680   29.3250   44.2350 H   0  0  0  0  0  0  0  0  0  0  0  0
   59.1908   26.9425   47.6284 H   0  0  0  0  0  0  0  0  0  0  0  0
   57.2242   25.5333   47.0415 H   0  0  0  0  0  0  0  0  0  0  0  0
  1  2  1  0
  2  3  1  0
  3  4  1  0
  4  5  1  0
  5  6  1  0
  6  7  1  0
  7  8  2  0
  8  9  1  0
  9 10  2  0
 10 11  1  0
 11 12  2  0
 12 13  1  0
 13 14  2  0
 14 15  1  0
 14 16  1  0
 16 17  2  0
 17 18  1  0
 18 19  2  0
 19 20  1  0
  8 21  1  0
 21 22  2  0
 22 23  1  0
 23 24  1  0
 23 25  2  0
 25 26  1  0
 25  7  1  0
 19  9  1  0
 17 11  1  0
  1 27  1  0
  1 28  1  0
  1 29  1  0
  3 30  1  0
  3 31  1  0
  4 32  1  0
  4 33  1  0
  5 34  1  0
  6 35  1  0
  6 36  1  0
 10 37  1  0
 12 38  1  0
 13 39  1  0
 16 40  1  0
 18 41  1  0
 20 42  1  0
 21 43  1  0
 22 44  1  0
M  CHG  3  15  -1  24  -1  26  -1
M  END
>  <UniqueID>  (80) 
76

>  <SMILES>  (80) 
COCCNCc1c(-c2cc3ccc([O-])cc3cc2O)ccc([O-])c1[O-]

>  <Energy>  (80) 
58.528379797384865

>  <Genealogy>  (80) 
COCCNCc1c(-c2cc3ccc([O-])cc3cc2O)ccc([O-])c1[O-] (protonated)
COCCNCc1c(-c2cc3ccc([O-])cc3cc2O)ccc([O-])c1[O-] (3D coordinates assigned)
COCCNCc1c(-c2cc3ccc([O-])cc3cc2O)ccc([O-])c1[O-] (optimized conformer: 58.528379797384865 kcal/mol)

>  <smiles>  (80) 
COCCNCc1c(-c2cc3ccc(O)cc3cc2O)ccc(O)c1O

>  <score_type>  (80) 
oracle

>  <origin>  (80) 
adg

>  <m_score__min__energy>  (80) 
-11.720000000000001

>  <m_primary>  (80) 
energy

$$$$
80:0
     RDKit          3D

 49 51  0  0  0  0  0  0  0  0999 V2000
   63.4030   34.5710   50.8100 C   0  0  0  0  0  0  0  0  0  0  0  0
   63.7210   33.5970   49.8230 O   0  0  0  0  0  0  0  0  0  0  0  0
   62.9830   32.4240   49.5980 C   0  0  0  0  0  0  0  0  0  0  0  0
   62.9500   31.3710   50.5340 C   0  0  0  0  0  0  0  0  0  0  0  0
   62.1950   30.2230   50.2780 C   0  0  0  0  0  0  0  0  0  0  0  0
   61.4680   30.1090   49.0900 C   0  0  0  0  0  0  0  0  0  0  0  0
   60.4480   28.7020   48.7990 S   0  0  0  0  0  0  0  0  0  0  0  0
   61.1400   27.4790   49.3380 O   0  0  0  0  0  0  0  0  0  0  0  0
   59.1160   28.8600   49.4830 O   0  0  0  0  0  0  0  0  0  0  0  0
   60.1950   28.5110   47.0940 N   0  0  0  0  0  0  0  0  0  0  0  0
   58.9180   28.5930   46.4500 C   0  0  0  0  0  0  0  0  0  0  0  0
   57.9710   27.5560   46.5380 C   0  0  0  0  0  0  0  0  0  0  0  0
   56.7190   27.6920   45.9340 C   0  0  0  0  0  0  0  0  0  0  0  0
   56.3970   28.8610   45.2390 C   0  0  0  0  0  0  0  0  0  0  0  0
   55.1420   28.9880   44.6520 O   0  0  0  0  0  0  0  0  0  0  0  0
   57.3360   29.8990   45.1440 C   0  0  0  0  0  0  0  0  0  0  0  0
   56.9270   31.4260   44.2950 S   0  0  0  0  0  0  0  0  0  0  0  0
   57.7550   32.4240   45.5270 C   0  0  0  0  0  0  0  0  0  0  0  0
   58.3670   33.5820   45.1650 N   0  0  0  0  0  0  0  0  0  0  0  0
   59.0120   34.3500   46.0830 C   0  0  0  0  0  0  0  0  0  0  0  0
   59.6630   35.6260   45.6390 C   0  0  0  0  0  0  0  0  0  0  0  0
   59.0430   33.9480   47.4210 C   0  0  0  0  0  0  0  0  0  0  0  0
   58.4120   32.7520   47.7770 C   0  0  0  0  0  0  0  0  0  0  0  0
   58.4420   32.2710   49.1930 C   0  0  0  0  0  0  0  0  0  0  0  0
   57.7830   32.0160   46.8240 N   0  0  0  0  0  0  0  0  0  0  0  0
   58.5970   29.7540   45.7360 C   0  0  0  0  0  0  0  0  0  0  0  0
   61.5080   31.1460   48.1520 C   0  0  0  0  0  0  0  0  0  0  0  0
   62.2560   32.3120   48.4040 C   0  0  0  0  0  0  0  0  0  0  0  0
   62.2880   33.3840   47.4980 O   0  0  0  0  0  0  0  0  0  0  0  0
   63.3670   33.6510   46.6050 C   0  0  0  0  0  0  0  0  0  0  0  0
   63.5444   34.1381   51.8113 H   0  0  0  0  0  0  0  0  0  0  0  0
   64.0632   35.4428   50.6909 H   0  0  0  0  0  0  0  0  0  0  0  0
   62.3556   34.8853   50.6909 H   0  0  0  0  0  0  0  0  0  0  0  0
   63.5212   31.4530   51.4705 H   0  0  0  0  0  0  0  0  0  0  0  0
   62.1730   29.4062   51.0144 H   0  0  0  0  0  0  0  0  0  0  0  0
   58.2178   26.6341   47.0849 H   0  0  0  0  0  0  0  0  0  0  0  0
   55.9842   26.8766   46.0055 H   0  0  0  0  0  0  0  0  0  0  0  0
   59.9617   36.2115   46.5210 H   0  0  0  0  0  0  0  0  0  0  0  0
   60.5524   35.3931   45.0351 H   0  0  0  0  0  0  0  0  0  0  0  0
   58.9524   36.2094   45.0351 H   0  0  0  0  0  0  0  0  0  0  0  0
   59.5536   34.5602   48.1790 H   0  0  0  0  0  0  0  0  0  0  0  0
   58.3882   33.1330   49.8743 H   0  0  0  0  0  0  0  0  0  0  0  0
   57.5835   31.6072   49.3730 H   0  0  0  0  0  0  0  0  0  0  0  0
   59.3763   31.7191   49.3730 H   0  0  0  0  0  0  0  0  0  0  0  0
   59.3410   30.5584   45.6393 H   0  0  0  0  0  0  0  0  0  0  0  0
   60.9500   31.0497   47.2089 H   0  0  0  0  0  0  0  0  0  0  0  0
   64.2750   33.8757   47.1839 H   0  0  0  0  0  0  0  0  0  0  0  0
   63.5450   32.7698   45.9711 H   0  0  0  0  0  0  0  0  0  0  0  0
   63.1135   34.5135   45.9711 H   0  0  0  0  0  0  0  0  0  0  0  0
  1  2  1  0
  2  3  1  0
  3  4  2  0
  4  5  1  0
  5  6  2  0
  6  7  1  0
  7  8  2  0
  7  9  2  0
  7 10  1  0
 10 11  1  0
 11 12  2  0
 12 13  1  0
 13 14  2  0
 14 15  1  0
 14 16  1  0
 16 17  1  0
 17 18  1  0
 18 19  2  0
 19 20  1  0
 20 21  1  0
 20 22  2  0
 22 23  1  0
 23 24  1  0
 23 25  2  0
 16 26  2  0
  6 27  1  0
 27 28  2  0
 28 29  1  0
 29 30  1  0
 28  3  1  0
 26 11  1  0
 25 18  1  0
  1 31  1  0
  1 32  1  0
  1 33  1  0
  4 34  1  0
  5 35  1  0
 12 36  1  0
 13 37  1  0
 21 38  1  0
 21 39  1  0
 21 40  1  0
 22 41  1  0
 24 42  1  0
 24 43  1  0
 24 44  1  0
 26 45  1  0
 27 46  1  0
 30 47  1  0
 30 48  1  0
 30 49  1  0
M  CHG  2  10  -1  15  -1
M  END
>  <UniqueID>  (81) 
77

>  <SMILES>  (81) 
COc1ccc(S(=O)(=O)[N-]c2ccc([O-])c(Sc3nc(C)cc(C)n3)c2)cc1OC

>  <Energy>  (81) 
45.47355811575834

>  <Genealogy>  (81) 
COc1ccc(S(=O)(=O)[N-]c2ccc([O-])c(Sc3nc(C)cc(C)n3)c2)cc1OC (protonated)
COc1ccc(S(=O)(=O)[N-]c2ccc([O-])c(Sc3nc(C)cc(C)n3)c2)cc1OC (3D coordinates assigned)
COc1ccc(S(=O)(=O)[N-]c2ccc([O-])c(Sc3nc(C)cc(C)n3)c2)cc1OC (optimized conformer: 45.47355811575834 kcal/mol)

>  <smiles>  (81) 
COc1ccc(S(=O)(=O)Nc2ccc(O)c(Sc3nc(C)cc(C)n3)c2)cc1OC

>  <score_type>  (81) 
oracle

>  <origin>  (81) 
adg

>  <m_score__min__energy>  (81) 
-12.75

>  <m_primary>  (81) 
energy

$$$$
81:0
     RDKit          3D

 49 52  0  0  0  0  0  0  0  0999 V2000
   55.9490   31.4249   42.2895 H   0  0  0  0  0  0  0  0  0  0  0  0
   56.6450   30.8340   42.9030 C   0  0  0  0  0  0  0  0  0  0  0  0
   57.6280   31.4770   43.6610 C   0  0  0  0  0  0  0  0  0  0  0  0
   57.7145   32.5732   43.6325 H   0  0  0  0  0  0  0  0  0  0  0  0
   58.5010   30.7280   44.4550 C   0  0  0  0  0  0  0  0  0  0  0  0
   59.2854   31.2366   45.0347 H   0  0  0  0  0  0  0  0  0  0  0  0
   58.3830   29.3330   44.5170 C   0  0  0  0  0  0  0  0  0  0  0  0
   59.3070   28.5980   45.3350 N   0  0  0  0  0  0  0  0  0  0  0  0
   59.6040   28.8320   46.5780 C   0  0  0  0  0  0  0  0  0  0  0  0
   60.8050   29.3270   46.9450 N   0  0  0  0  0  0  0  0  0  0  0  0
   60.8930   29.5780   48.2500 N   0  0  0  0  0  0  0  0  0  0  0  0
   59.7570   29.2950   48.9250 C   0  0  0  0  0  0  0  0  0  0  0  0
   59.5750   29.5330   50.6910 S   0  0  0  0  0  0  0  0  0  0  0  0
   60.2770   31.2230   50.7180 C   0  0  0  0  0  0  0  0  0  0  0  0
   61.3507   31.1598   50.4873 H   0  0  0  0  0  0  0  0  0  0  0  0
   60.0947   31.6378   51.7203 H   0  0  0  0  0  0  0  0  0  0  0  0
   59.6290   32.1460   49.7270 C   0  0  0  0  0  0  0  0  0  0  0  0
   58.7260   32.9440   50.1010 O   0  0  0  0  0  0  0  0  0  0  0  0
   59.9820   32.0530   48.3390 N   0  0  0  0  0  0  0  0  0  0  0  0
   60.5290   31.2230   48.0180 H   0  0  0  0  0  0  0  0  0  0  0  0
   59.4010   32.8990   47.3400 C   0  0  0  0  0  0  0  0  0  0  0  0
   58.0040   32.9770   47.2540 C   0  0  0  0  0  0  0  0  0  0  0  0
   57.3805   32.4138   47.9639 H   0  0  0  0  0  0  0  0  0  0  0  0
   57.3990   33.7650   46.2730 C   0  0  0  0  0  0  0  0  0  0  0  0
   56.3021   33.8276   46.2184 H   0  0  0  0  0  0  0  0  0  0  0  0
   58.1830   34.4730   45.3620 C   0  0  0  0  0  0  0  0  0  0  0  0
   57.7043   35.1017   44.5968 H   0  0  0  0  0  0  0  0  0  0  0  0
   59.5750   34.3840   45.4210 C   0  0  0  0  0  0  0  0  0  0  0  0
   60.1874   34.9331   44.6906 H   0  0  0  0  0  0  0  0  0  0  0  0
   60.2010   33.6000   46.4040 C   0  0  0  0  0  0  0  0  0  0  0  0
   61.7040   33.4530   46.3720 C   0  0  0  0  0  0  0  0  0  0  0  0
   61.9641   32.5218   45.8474 H   0  0  0  0  0  0  0  0  0  0  0  0
   62.1319   34.3203   45.8478 H   0  0  0  0  0  0  0  0  0  0  0  0
   62.2670   33.4070   47.7680 C   0  0  0  0  0  0  0  0  0  0  0  0
   63.2140   32.4300   48.1230 C   0  0  0  0  0  0  0  0  0  0  0  0
   63.5498   31.6954   47.3763 H   0  0  0  0  0  0  0  0  0  0  0  0
   63.7300   32.3890   49.4210 C   0  0  0  0  0  0  0  0  0  0  0  0
   64.4619   31.6154   49.6965 H   0  0  0  0  0  0  0  0  0  0  0  0
   63.3180   33.3290   50.3700 C   0  0  0  0  0  0  0  0  0  0  0  0
   63.7259   33.2954   51.3910 H   0  0  0  0  0  0  0  0  0  0  0  0
   62.3880   34.3110   50.0210 C   0  0  0  0  0  0  0  0  0  0  0  0
   62.0659   35.0524   50.7671 H   0  0  0  0  0  0  0  0  0  0  0  0
   61.8660   34.3530   48.7250 C   0  0  0  0  0  0  0  0  0  0  0  0
   61.1374   35.1311   48.4535 H   0  0  0  0  0  0  0  0  0  0  0  0
   58.5630   28.6880   47.9050 S   0  0  0  0  0  0  0  0  0  0  0  0
   57.4190   28.6890   43.7190 C   0  0  0  0  0  0  0  0  0  0  0  0
   57.3514   27.5911   43.7200 H   0  0  0  0  0  0  0  0  0  0  0  0
   56.5470   29.4400   42.9250 C   0  0  0  0  0  0  0  0  0  0  0  0
   55.7831   28.9332   42.3170 H   0  0  0  0  0  0  0  0  0  0  0  0
  1  2  1  0
  2  3  2  0
  3  4  1  0
  3  5  1  0
  5  6  1  0
  5  7  2  0
  7  8  1  0
  8  9  2  0
  9 10  1  0
 10 11  1  0
 11 12  2  0
 12 13  1  0
 13 14  1  0
 14 15  1  0
 14 16  1  0
 14 17  1  0
 17 18  2  0
 17 19  1  0
 19 20  1  0
 19 21  1  0
 21 22  2  0
 22 23  1  0
 22 24  1  0
 24 25  1  0
 24 26  2  0
 26 27  1  0
 26 28  1  0
 28 29  1  0
 28 30  2  0
 30 31  1  0
 31 32  1  0
 31 33  1  0
 31 34  1  0
 34 35  2  0
 35 36  1  0
 35 37  1  0
 37 38  1  0
 37 39  2  0
 39 40  1  0
 39 41  1  0
 41 42  1  0
 41 43  2  0
 43 44  1  0
 12 45  1  0
  7 46  1  0
 46 47  1  0
 46 48  2  0
 48 49  1  0
 48  2  1  0
 45  9  1  0
 30 21  1  0
 43 34  1  0
M  CHG  1  10  -1
M  END
>  <UniqueID>  (82) 
78

>  <SMILES>  (82) 
O=C(CSc1n[n-]/c(=N/c2ccccc2)s1)Nc1ccccc1Cc1ccccc1

>  <Energy>  (82) 
91.63410186715336

>  <Genealogy>  (82) 
O=C(CSc1n[n-]c(=Nc2ccccc2)s1)Nc1ccccc1Cc1ccccc1 (protonated)
O=C(CSc1n[n-]/c(=N/c2ccccc2)s1)Nc1ccccc1Cc1ccccc1 (cis-trans isomerization)
O=C(CSc1n[n-]/c(=N/c2ccccc2)s1)Nc1ccccc1Cc1ccccc1 (3D coordinates assigned)
O=C(CSc1n[n-]/c(=N/c2ccccc2)s1)Nc1ccccc1Cc1ccccc1 (optimized conformer: 91.63410186715336 kcal/mol)

>  <smiles>  (82) 
O=C(CSc1n[nH]c(=Nc2ccccc2)s1)Nc1ccccc1Cc1ccccc1

>  <score_type>  (82) 
oracle

>  <origin>  (82) 
adg

>  <m_score__min__energy>  (82) 
-11.1

>  <m_primary>  (82) 
energy

$$$$
82:0
     RDKit          3D

 54 57  0  0  0  0  0  0  0  0999 V2000
   57.0010   33.6960   46.2840 O   0  0  0  0  0  0  0  0  0  0  0  0
   57.7350   32.7500   46.6820 C   0  0  0  0  0  0  0  0  0  0  0  0
   58.4130   32.8620   48.0160 C   0  0  0  0  0  0  0  0  0  0  0  0
   58.9730   34.2200   48.2130 N   0  0  0  0  0  0  0  0  0  0  0  0
   59.3870   34.8880   46.9570 C   0  0  0  0  0  0  0  0  0  0  0  0
   60.5370   34.1550   46.2570 C   0  0  0  0  0  0  0  0  0  0  0  0
   61.6160   33.7370   47.2200 C   0  0  0  0  0  0  0  0  0  0  0  0
   62.8410   33.2770   46.7160 C   0  0  0  0  0  0  0  0  0  0  0  0
   63.8470   32.8500   47.5870 C   0  0  0  0  0  0  0  0  0  0  0  0
   63.6360   32.8740   48.9650 C   0  0  0  0  0  0  0  0  0  0  0  0
   62.4130   33.3100   49.4780 C   0  0  0  0  0  0  0  0  0  0  0  0
   61.3860   33.7230   48.6140 C   0  0  0  0  0  0  0  0  0  0  0  0
   60.0800   34.2210   49.1940 C   0  0  0  0  0  0  0  0  0  0  0  0
   57.9740   31.6100   45.8420 N   0  0  0  0  0  0  0  0  0  0  0  0
   57.6400   31.6110   44.4450 C   0  0  0  0  0  0  0  0  0  0  0  0
   58.1330   32.6390   43.6240 C   0  0  0  0  0  0  0  0  0  0  0  0
   57.8870   32.6300   42.2510 C   0  0  0  0  0  0  0  0  0  0  0  0
   57.1520   31.5930   41.6820 C   0  0  0  0  0  0  0  0  0  0  0  0
   56.6450   30.5690   42.4850 C   0  0  0  0  0  0  0  0  0  0  0  0
   56.8650   30.5690   43.8730 C   0  0  0  0  0  0  0  0  0  0  0  0
   56.3000   29.4660   44.6820 C   0  0  0  0  0  0  0  0  0  0  0  0
   55.1470   29.5670   45.1760 O   0  0  0  0  0  0  0  0  0  0  0  0
   57.0540   28.2620   44.8770 N   0  0  0  0  0  0  0  0  0  0  0  0
   57.5320   27.8100   46.1780 C   0  0  0  0  0  0  0  0  0  0  0  0
   58.7500   28.5950   46.5800 C   0  0  0  0  0  0  0  0  0  0  0  0
   59.7310   28.9310   45.6290 C   0  0  0  0  0  0  0  0  0  0  0  0
   60.8230   29.7260   45.9950 C   0  0  0  0  0  0  0  0  0  0  0  0
   60.9520   30.1800   47.3100 C   0  0  0  0  0  0  0  0  0  0  0  0
   59.9830   29.8470   48.2620 C   0  0  0  0  0  0  0  0  0  0  0  0
   58.8840   29.0640   47.8980 C   0  0  0  0  0  0  0  0  0  0  0  0
   57.6807   32.6558   48.8105 H   0  0  0  0  0  0  0  0  0  0  0  0
   59.2365   32.1337   48.0536 H   0  0  0  0  0  0  0  0  0  0  0  0
   58.5244   34.9245   46.2754 H   0  0  0  0  0  0  0  0  0  0  0  0
   59.7401   35.8974   47.2146 H   0  0  0  0  0  0  0  0  0  0  0  0
   60.1362   33.2576   45.7630 H   0  0  0  0  0  0  0  0  0  0  0  0
   60.9846   34.8473   45.5288 H   0  0  0  0  0  0  0  0  0  0  0  0
   63.0110   33.2521   45.6295 H   0  0  0  0  0  0  0  0  0  0  0  0
   64.8070   32.4943   47.1847 H   0  0  0  0  0  0  0  0  0  0  0  0
   64.4341   32.5490   49.6487 H   0  0  0  0  0  0  0  0  0  0  0  0
   62.2528   33.3301   50.5661 H   0  0  0  0  0  0  0  0  0  0  0  0
   59.8012   33.5722   50.0374 H   0  0  0  0  0  0  0  0  0  0  0  0
   60.2372   35.2626   49.5109 H   0  0  0  0  0  0  0  0  0  0  0  0
   58.4940   30.7980   46.2380 H   0  0  0  0  0  0  0  0  0  0  0  0
   58.7180   33.4580   44.0678 H   0  0  0  0  0  0  0  0  0  0  0  0
   58.2736   33.4421   41.6177 H   0  0  0  0  0  0  0  0  0  0  0  0
   56.9703   31.5804   40.5972 H   0  0  0  0  0  0  0  0  0  0  0  0
   56.0670   29.7534   42.0259 H   0  0  0  0  0  0  0  0  0  0  0  0
   56.7405   27.9564   46.9278 H   0  0  0  0  0  0  0  0  0  0  0  0
   57.7943   26.7436   46.1155 H   0  0  0  0  0  0  0  0  0  0  0  0
   59.6393   28.5677   44.5948 H   0  0  0  0  0  0  0  0  0  0  0  0
   61.5819   29.9942   45.2452 H   0  0  0  0  0  0  0  0  0  0  0  0
   61.8151   30.7989   47.5964 H   0  0  0  0  0  0  0  0  0  0  0  0
   60.0860   30.2017   49.2982 H   0  0  0  0  0  0  0  0  0  0  0  0
   58.1192   28.8133   48.6478 H   0  0  0  0  0  0  0  0  0  0  0  0
  1  2  2  0
  2  3  1  0
  3  4  1  0
  4  5  1  0
  5  6  1  0
  6  7  1  0
  7  8  2  0
  8  9  1  0
  9 10  2  0
 10 11  1  0
 11 12  2  0
 12 13  1  0
  2 14  1  0
 14 15  1  0
 15 16  2  0
 16 17  1  0
 17 18  2  0
 18 19  1  0
 19 20  2  0
 20 21  1  0
 21 22  2  0
 21 23  1  0
 23 24  1  0
 24 25  1  0
 25 26  2  0
 26 27  1  0
 27 28  2  0
 28 29  1  0
 29 30  2  0
 13  4  1  0
 20 15  1  0
 30 25  1  0
 12  7  1  0
  3 31  1  0
  3 32  1  0
  5 33  1  0
  5 34  1  0
  6 35  1  0
  6 36  1  0
  8 37  1  0
  9 38  1  0
 10 39  1  0
 11 40  1  0
 13 41  1  0
 13 42  1  0
 14 43  1  0
 16 44  1  0
 17 45  1  0
 18 46  1  0
 19 47  1  0
 24 48  1  0
 24 49  1  0
 26 50  1  0
 27 51  1  0
 28 52  1  0
 29 53  1  0
 30 54  1  0
M  CHG  1  23  -1
M  END
>  <UniqueID>  (83) 
79

>  <SMILES>  (83) 
O=C(CN1CCc2ccccc2C1)Nc1ccccc1C(=O)[N-]Cc1ccccc1

>  <Energy>  (83) 
69.64829229675591

>  <Genealogy>  (83) 
O=C(CN1CCc2ccccc2C1)Nc1ccccc1C(=O)[N-]Cc1ccccc1 (protonated)
O=C(CN1CCc2ccccc2C1)Nc1ccccc1C(=O)[N-]Cc1ccccc1 (3D coordinates assigned)
O=C(CN1CCc2ccccc2C1)Nc1ccccc1C(=O)[N-]Cc1ccccc1 (nonaromatic ring conformer: 69.64829229675591 kcal/mol)

>  <smiles>  (83) 
O=C(CN1CCc2ccccc2C1)Nc1ccccc1C(=O)NCc1ccccc1

>  <score_type>  (83) 
oracle

>  <origin>  (83) 
adg

>  <m_score__min__energy>  (83) 
-11.25

>  <m_primary>  (83) 
energy

$$$$
83:0
     RDKit          3D

 44 47  0  0  0  0  0  0  0  0999 V2000
   55.7970   24.2570   44.8340 C   0  0  0  0  0  0  0  0  0  0  0  0
   56.7070   25.2730   45.4610 C   0  0  0  0  0  0  0  0  0  0  0  0
   58.0940   25.0600   45.4960 C   0  0  0  0  0  0  0  0  0  0  0  0
   58.9430   26.0160   46.0610 C   0  0  0  0  0  0  0  0  0  0  0  0
   58.4190   27.2070   46.5870 C   0  0  0  0  0  0  0  0  0  0  0  0
   59.3280   28.2230   47.1620 C   0  0  0  0  0  0  0  0  0  0  0  0
   59.8290   28.0220   48.4090 N   0  0  0  0  0  0  0  0  0  0  0  0
   60.6450   28.9300   48.9990 C   0  0  0  0  0  0  0  0  0  0  0  0
   61.1400   28.6940   50.2870 C   0  0  0  0  0  0  0  0  0  0  0  0
   61.9740   29.6330   50.9000 C   0  0  0  0  0  0  0  0  0  0  0  0
   62.3160   30.8110   50.2280 C   0  0  0  0  0  0  0  0  0  0  0  0
   61.8280   31.0550   48.9400 C   0  0  0  0  0  0  0  0  0  0  0  0
   60.9870   30.1130   48.3160 C   0  0  0  0  0  0  0  0  0  0  0  0
   60.4760   30.3000   47.0210 C   0  0  0  0  0  0  0  0  0  0  0  0
   60.7650   31.3390   46.3660 O   0  0  0  0  0  0  0  0  0  0  0  0
   59.6720   29.3500   46.4610 N   0  0  0  0  0  0  0  0  0  0  0  0
   59.2350   29.5230   45.1620 O   0  0  0  0  0  0  0  0  0  0  0  0
   57.9480   30.0650   44.8880 C   0  0  0  0  0  0  0  0  0  0  0  0
   57.9610   31.5380   45.1710 C   0  0  0  0  0  0  0  0  0  0  0  0
   57.8360   32.0120   46.4880 C   0  0  0  0  0  0  0  0  0  0  0  0
   57.9030   33.3820   46.7530 C   0  0  0  0  0  0  0  0  0  0  0  0
   58.0960   34.2890   45.7060 C   0  0  0  0  0  0  0  0  0  0  0  0
   58.2260   33.8250   44.3950 C   0  0  0  0  0  0  0  0  0  0  0  0
   58.1640   32.4540   44.1260 C   0  0  0  0  0  0  0  0  0  0  0  0
   57.0300   27.4100   46.5740 C   0  0  0  0  0  0  0  0  0  0  0  0
   56.1780   26.4550   46.0100 C   0  0  0  0  0  0  0  0  0  0  0  0
   54.8070   26.6890   45.9930 O   0  0  0  0  0  0  0  0  0  0  0  0
   55.2857   23.6862   45.6232 H   0  0  0  0  0  0  0  0  0  0  0  0
   55.0502   24.7694   44.2097 H   0  0  0  0  0  0  0  0  0  0  0  0
   56.3883   23.5709   44.2097 H   0  0  0  0  0  0  0  0  0  0  0  0
   58.5155   24.1348   45.0761 H   0  0  0  0  0  0  0  0  0  0  0  0
   60.0273   25.8339   46.0935 H   0  0  0  0  0  0  0  0  0  0  0  0
   60.8722   27.7682   50.8173 H   0  0  0  0  0  0  0  0  0  0  0  0
   62.3619   29.4454   51.9121 H   0  0  0  0  0  0  0  0  0  0  0  0
   62.9714   31.5486   50.7143 H   0  0  0  0  0  0  0  0  0  0  0  0
   62.1009   31.9821   48.4147 H   0  0  0  0  0  0  0  0  0  0  0  0
   57.6954   29.8960   43.8308 H   0  0  0  0  0  0  0  0  0  0  0  0
   57.1976   29.5736   45.5247 H   0  0  0  0  0  0  0  0  0  0  0  0
   57.6847   31.3012   47.3138 H   0  0  0  0  0  0  0  0  0  0  0  0
   57.8039   33.7476   47.7857 H   0  0  0  0  0  0  0  0  0  0  0  0
   58.1454   35.3678   45.9150 H   0  0  0  0  0  0  0  0  0  0  0  0
   58.3775   34.5394   43.5724 H   0  0  0  0  0  0  0  0  0  0  0  0
   58.2745   32.0921   43.0931 H   0  0  0  0  0  0  0  0  0  0  0  0
   56.6084   28.3273   47.0108 H   0  0  0  0  0  0  0  0  0  0  0  0
  1  2  1  0
  2  3  2  0
  3  4  1  0
  4  5  2  0
  5  6  1  0
  6  7  2  0
  7  8  1  0
  8  9  2  0
  9 10  1  0
 10 11  2  0
 11 12  1  0
 12 13  2  0
 13 14  1  0
 14 15  2  0
 14 16  1  0
 16 17  1  0
 17 18  1  0
 18 19  1  0
 19 20  2  0
 20 21  1  0
 21 22  2  0
 22 23  1  0
 23 24  2  0
  5 25  1  0
 25 26  2  0
 26 27  1  0
 26  2  1  0
 16  6  1  0
 24 19  1  0
 13  8  1  0
  1 28  1  0
  1 29  1  0
  1 30  1  0
  3 31  1  0
  4 32  1  0
  9 33  1  0
 10 34  1  0
 11 35  1  0
 12 36  1  0
 18 37  1  0
 18 38  1  0
 20 39  1  0
 21 40  1  0
 22 41  1  0
 23 42  1  0
 24 43  1  0
 25 44  1  0
M  CHG  1  27  -1
M  END
>  <UniqueID>  (84) 
80

>  <SMILES>  (84) 
Cc1ccc(-c2nc3ccccc3c(=O)n2OCc2ccccc2)cc1[O-]

>  <Energy>  (84) 
62.62565239907018

>  <Genealogy>  (84) 
Cc1ccc(-c2nc3ccccc3c(=O)n2OCc2ccccc2)cc1[O-] (protonated)
Cc1ccc(-c2nc3ccccc3c(=O)n2OCc2ccccc2)cc1[O-] (3D coordinates assigned)
Cc1ccc(-c2nc3ccccc3c(=O)n2OCc2ccccc2)cc1[O-] (optimized conformer: 62.62565239907018 kcal/mol)

>  <smiles>  (84) 
Cc1ccc(-c2nc3ccccc3c(=O)n2OCc2ccccc2)cc1O

>  <score_type>  (84) 
oracle

>  <origin>  (84) 
adg

>  <m_score__min__energy>  (84) 
-11.27

>  <m_primary>  (84) 
energy

$$$$
84:0
     RDKit          3D

 74 77  0  0  0  0  0  0  0  0999 V2000
   56.6800   32.6810   45.2200 C   0  0  0  0  0  0  0  0  0  0  0  0
   57.5450   31.4660   44.8530 C   0  0  0  0  0  0  0  0  0  0  0  0
   59.0160   31.7680   45.2120 C   0  0  0  0  0  0  0  0  0  0  0  0
   57.4040   31.1870   43.3460 C   0  0  0  0  0  0  0  0  0  0  0  0
   57.0580   30.3190   45.6300 N   0  0  0  0  0  0  0  0  0  0  0  0
   56.2450   29.2390   45.1450 C   0  0  0  0  0  0  0  0  0  0  0  0
   55.1420   29.4740   44.5820 O   0  0  0  0  0  0  0  0  0  0  0  0
   56.7690   27.8250   45.2450 C   0  0  0  0  0  0  0  0  0  0  0  0
   57.7450   27.4620   44.0960 C   0  0  0  0  0  0  0  0  0  0  0  0
   59.1910   27.7680   44.5060 C   0  0  0  0  0  0  0  0  0  0  0  0
   59.6310   26.9270   45.6480 N   0  0  0  0  0  0  0  0  0  0  0  0
   60.7680   27.5580   46.3530 C   0  0  0  0  0  0  0  0  0  0  0  0
   60.2730   28.4050   47.4960 C   0  0  0  0  0  0  0  0  0  0  0  0
   59.6630   29.6390   47.2330 C   0  0  0  0  0  0  0  0  0  0  0  0
   59.1610   30.4200   48.2770 C   0  0  0  0  0  0  0  0  0  0  0  0
   59.2620   29.9730   49.6070 C   0  0  0  0  0  0  0  0  0  0  0  0
   58.7570   30.7420   50.7090 N   0  0  0  0  0  0  0  0  0  0  0  0
   58.5740   32.1650   50.7330 C   0  0  0  0  0  0  0  0  0  0  0  0
   57.5160   32.6610   51.2010 O   0  0  0  0  0  0  0  0  0  0  0  0
   59.6290   33.0470   50.3330 N   0  0  0  0  0  0  0  0  0  0  0  0
   59.9260   33.4930   48.9990 C   0  0  0  0  0  0  0  0  0  0  0  0
   58.9290   34.0450   48.1710 C   0  0  0  0  0  0  0  0  0  0  0  0
   59.2360   34.4560   46.8700 C   0  0  0  0  0  0  0  0  0  0  0  0
   60.5380   34.3300   46.3860 C   0  0  0  0  0  0  0  0  0  0  0  0
   61.5420   33.8160   47.2060 C   0  0  0  0  0  0  0  0  0  0  0  0
   61.2520   33.4060   48.5200 C   0  0  0  0  0  0  0  0  0  0  0  0
   62.3120   32.9220   49.3680 N   0  0  0  0  0  0  0  0  0  0  0  0
   63.2350   33.8660   50.0090 C   0  0  0  0  0  0  0  0  0  0  0  0
   64.6810   33.4310   49.7510 C   0  0  0  0  0  0  0  0  0  0  0  0
   64.9390   31.9420   50.0850 C   0  0  0  0  0  0  0  0  0  0  0  0
   63.6720   31.1690   50.4900 C   0  0  0  0  0  0  0  0  0  0  0  0
   62.5020   31.4720   49.5430 C   0  0  0  0  0  0  0  0  0  0  0  0
   59.9160   28.7640   49.8730 C   0  0  0  0  0  0  0  0  0  0  0  0
   60.4110   27.9770   48.8270 C   0  0  0  0  0  0  0  0  0  0  0  0
   58.5330   26.5560   46.5840 C   0  0  0  0  0  0  0  0  0  0  0  0
   57.4180   27.6100   46.6360 C   0  0  0  0  0  0  0  0  0  0  0  0
   56.6172   32.7692   46.3147 H   0  0  0  0  0  0  0  0  0  0  0  0
   57.1333   33.5929   44.8041 H   0  0  0  0  0  0  0  0  0  0  0  0
   55.6700   32.5511   44.8041 H   0  0  0  0  0  0  0  0  0  0  0  0
   59.1291   31.7912   46.3059 H   0  0  0  0  0  0  0  0  0  0  0  0
   59.6641   30.9842   44.7929 H   0  0  0  0  0  0  0  0  0  0  0  0
   59.3028   32.7438   44.7929 H   0  0  0  0  0  0  0  0  0  0  0  0
   56.9124   30.2142   43.1976 H   0  0  0  0  0  0  0  0  0  0  0  0
   56.7978   31.9788   42.8817 H   0  0  0  0  0  0  0  0  0  0  0  0
   58.4010   31.1686   42.8817 H   0  0  0  0  0  0  0  0  0  0  0  0
   55.9154   27.1400   45.1351 H   0  0  0  0  0  0  0  0  0  0  0  0
   57.6524   26.3901   43.8668 H   0  0  0  0  0  0  0  0  0  0  0  0
   57.4911   28.0615   43.2094 H   0  0  0  0  0  0  0  0  0  0  0  0
   59.8522   27.5771   43.6479 H   0  0  0  0  0  0  0  0  0  0  0  0
   59.2418   28.8215   44.8182 H   0  0  0  0  0  0  0  0  0  0  0  0
   61.4321   26.7733   46.7445 H   0  0  0  0  0  0  0  0  0  0  0  0
   61.3152   28.1984   45.6455 H   0  0  0  0  0  0  0  0  0  0  0  0
   59.5787   29.9957   46.1958 H   0  0  0  0  0  0  0  0  0  0  0  0
   58.6853   31.3874   48.0583 H   0  0  0  0  0  0  0  0  0  0  0  0
   57.9022   34.1535   48.5503 H   0  0  0  0  0  0  0  0  0  0  0  0
   58.4497   34.8792   46.2276 H   0  0  0  0  0  0  0  0  0  0  0  0
   60.7732   34.6365   45.3561 H   0  0  0  0  0  0  0  0  0  0  0  0
   62.5693   33.7305   46.8221 H   0  0  0  0  0  0  0  0  0  0  0  0
   63.0762   34.8719   49.5932 H   0  0  0  0  0  0  0  0  0  0  0  0
   63.0469   33.8800   51.0927 H   0  0  0  0  0  0  0  0  0  0  0  0
   64.9112   33.5957   48.6880 H   0  0  0  0  0  0  0  0  0  0  0  0
   65.3252   34.0303   50.4112 H   0  0  0  0  0  0  0  0  0  0  0  0
   65.3724   31.4574   49.1977 H   0  0  0  0  0  0  0  0  0  0  0  0
   65.6183   31.9203   50.9499 H   0  0  0  0  0  0  0  0  0  0  0  0
   63.8862   30.0905   50.4600 H   0  0  0  0  0  0  0  0  0  0  0  0
   63.3854   31.4829   51.5046 H   0  0  0  0  0  0  0  0  0  0  0  0
   62.7084   31.0175   48.5628 H   0  0  0  0  0  0  0  0  0  0  0  0
   61.5844   31.0538   49.9826 H   0  0  0  0  0  0  0  0  0  0  0  0
   60.0419   28.4297   50.9134 H   0  0  0  0  0  0  0  0  0  0  0  0
   60.9091   27.0213   49.0474 H   0  0  0  0  0  0  0  0  0  0  0  0
   58.0987   25.6001   46.2559 H   0  0  0  0  0  0  0  0  0  0  0  0
   58.9667   26.4808   47.5921 H   0  0  0  0  0  0  0  0  0  0  0  0
   56.6442   27.2761   47.3429 H   0  0  0  0  0  0  0  0  0  0  0  0
   57.8613   28.5634   46.9593 H   0  0  0  0  0  0  0  0  0  0  0  0
  1  2  1  0
  2  3  1  0
  2  4  1  0
  2  5  1  0
  5  6  1  0
  6  7  2  0
  6  8  1  0
  8  9  1  0
  9 10  1  0
 10 11  1  0
 11 12  1  0
 12 13  1  0
 13 14  2  0
 14 15  1  0
 15 16  2  0
 16 17  1  0
 17 18  1  0
 18 19  2  0
 18 20  1  0
 20 21  1  0
 21 22  2  0
 22 23  1  0
 23 24  2  0
 24 25  1  0
 25 26  2  0
 26 27  1  0
 27 28  1  0
 28 29  1  0
 29 30  1  0
 30 31  1  0
 31 32  1  0
 16 33  1  0
 33 34  2  0
 11 35  1  0
 35 36  1  0
 36  8  1  0
 34 13  1  0
 26 21  1  0
 32 27  1  0
  1 37  1  0
  1 38  1  0
  1 39  1  0
  3 40  1  0
  3 41  1  0
  3 42  1  0
  4 43  1  0
  4 44  1  0
  4 45  1  0
  8 46  1  0
  9 47  1  0
  9 48  1  0
 10 49  1  0
 10 50  1  0
 12 51  1  0
 12 52  1  0
 14 53  1  0
 15 54  1  0
 22 55  1  0
 23 56  1  0
 24 57  1  0
 25 58  1  0
 28 59  1  0
 28 60  1  0
 29 61  1  0
 29 62  1  0
 30 63  1  0
 30 64  1  0
 31 65  1  0
 31 66  1  0
 32 67  1  0
 32 68  1  0
 33 69  1  0
 34 70  1  0
 35 71  1  0
 35 72  1  0
 36 73  1  0
 36 74  1  0
M  CHG  3   5  -1  17  -1  20  -1
M  END
>  <UniqueID>  (85) 
81

>  <SMILES>  (85) 
CC(C)(C)[N-]C(=O)C1CCN(Cc2ccc([N-]C(=O)[N-]c3ccccc3N3CCCCC3)cc2)CC1

>  <Energy>  (85) 
92.0552431915466

>  <Genealogy>  (85) 
CC(C)(C)[N-]C(=O)C1CCN(Cc2ccc([N-]C(=O)[N-]c3ccccc3N3CCCCC3)cc2)CC1 (protonated)
CC(C)(C)[N-]C(=O)C1CCN(Cc2ccc([N-]C(=O)[N-]c3ccccc3N3CCCCC3)cc2)CC1 (3D coordinates assigned)
CC(C)(C)[N-]C(=O)C1CCN(Cc2ccc([N-]C(=O)[N-]c3ccccc3N3CCCCC3)cc2)CC1 (nonaromatic ring conformer: 92.0552431915466 kcal/mol)

>  <smiles>  (85) 
CC(C)(C)NC(=O)C1CCN(Cc2ccc(NC(=O)Nc3ccccc3N3CCCCC3)cc2)CC1

>  <score_type>  (85) 
oracle

>  <origin>  (85) 
adg

>  <m_score__min__energy>  (85) 
-14.68

>  <m_primary>  (85) 
energy

$$$$
85:0
     RDKit          3D

 36 38  0  0  0  0  0  0  0  0999 V2000
   62.1962   35.2543   48.6796 H   0  0  0  0  0  0  0  0  0  0  0  0
   62.5000   34.2080   48.5280 C   0  0  0  0  0  0  0  0  0  0  0  0
   63.4984   33.8736   48.8463 H   0  0  0  0  0  0  0  0  0  0  0  0
   61.6560   33.3430   47.9570 C   0  0  0  0  0  0  0  0  0  0  0  0
   62.0330   32.0070   47.7590 C   0  0  0  0  0  0  0  0  0  0  0  0
   63.0306   31.6691   48.0762 H   0  0  0  0  0  0  0  0  0  0  0  0
   61.1520   31.1010   47.1620 C   0  0  0  0  0  0  0  0  0  0  0  0
   61.4644   30.0566   47.0146 H   0  0  0  0  0  0  0  0  0  0  0  0
   59.8670   31.5090   46.7460 C   0  0  0  0  0  0  0  0  0  0  0  0
   59.0190   30.6260   46.1680 C   0  0  0  0  0  0  0  0  0  0  0  0
   57.7440   30.9290   45.8200 N   0  0  0  0  0  0  0  0  0  0  0  0
   57.0930   29.8770   45.2570 C   0  0  0  0  0  0  0  0  0  0  0  0
   55.8960   29.9740   44.8760 O   0  0  0  0  0  0  0  0  0  0  0  0
   57.8390   28.7040   45.1370 C   0  0  0  0  0  0  0  0  0  0  0  0
   57.3970   27.5370   44.6430 C   0  0  0  0  0  0  0  0  0  0  0  0
   57.0774   27.5028   43.5910 H   0  0  0  0  0  0  0  0  0  0  0  0
   57.3180   26.2970   45.4400 C   0  0  0  0  0  0  0  0  0  0  0  0
   58.4700   25.5110   45.5870 C   0  0  0  0  0  0  0  0  0  0  0  0
   59.4085   25.8208   45.1040 H   0  0  0  0  0  0  0  0  0  0  0  0
   58.4330   24.3370   46.3430 C   0  0  0  0  0  0  0  0  0  0  0  0
   59.3396   23.7214   46.4385 H   0  0  0  0  0  0  0  0  0  0  0  0
   57.2530   23.9370   46.9800 C   0  0  0  0  0  0  0  0  0  0  0  0
   57.2670   22.7470   47.7220 O   0  0  0  0  0  0  0  0  0  0  0  0
   56.1040   22.1080   48.2390 C   0  0  0  0  0  0  0  0  0  0  0  0
   56.1345   22.1248   49.3384 H   0  0  0  0  0  0  0  0  0  0  0  0
   55.2071   22.6400   47.8889 H   0  0  0  0  0  0  0  0  0  0  0  0
   56.0721   21.0657   47.8889 H   0  0  0  0  0  0  0  0  0  0  0  0
   56.1020   24.7370   46.8580 C   0  0  0  0  0  0  0  0  0  0  0  0
   55.1698   24.4334   47.3568 H   0  0  0  0  0  0  0  0  0  0  0  0
   56.1360   25.9180   46.1050 C   0  0  0  0  0  0  0  0  0  0  0  0
   54.9980   26.7150   46.0440 O   0  0  0  0  0  0  0  0  0  0  0  0
   59.3660   29.0160   45.7790 S   0  0  0  0  0  0  0  0  0  0  0  0
   59.4970   32.8570   46.9490 C   0  0  0  0  0  0  0  0  0  0  0  0
   58.5008   33.2001   46.6330 H   0  0  0  0  0  0  0  0  0  0  0  0
   60.3800   33.7600   47.5460 C   0  0  0  0  0  0  0  0  0  0  0  0
   60.0732   34.8058   47.6952 H   0  0  0  0  0  0  0  0  0  0  0  0
  1  2  1  0
  2  3  1  0
  2  4  2  0
  4  5  1  0
  5  6  1  0
  5  7  2  0
  7  8  1  0
  7  9  1  0
  9 10  2  3
 10 11  1  0
 11 12  1  0
 12 13  2  0
 12 14  1  0
 14 15  2  0
 15 16  1  0
 15 17  1  0
 17 18  2  0
 18 19  1  0
 18 20  1  0
 20 21  1  0
 20 22  2  0
 22 23  1  0
 23 24  1  0
 24 25  1  0
 24 26  1  0
 24 27  1  0
 22 28  1  0
 28 29  1  0
 28 30  2  0
 30 31  1  0
 14 32  1  0
  9 33  1  0
 33 34  1  0
 33 35  2  0
 35 36  1  0
 35  4  1  0
 32 10  1  0
 30 17  1  0
M  CHG  2  11  -1  31  -1
M  END
>  <UniqueID>  (86) 
82

>  <SMILES>  (86) 
C=c1ccc(=c2[n-]c(=O)/c(=C/c3ccc(OC)cc3[O-])s2)cc1

>  <Energy>  (86) 
81.70375599830722

>  <Genealogy>  (86) 
C=c1ccc(=c2[n-]c(=O)c(=Cc3ccc(OC)cc3[O-])s2)cc1 (protonated)
C=c1ccc(=c2[n-]c(=O)/c(=C/c3ccc(OC)cc3[O-])s2)cc1 (cis-trans isomerization)
C=c1ccc(=c2[n-]c(=O)/c(=C/c3ccc(OC)cc3[O-])s2)cc1 (3D coordinates assigned)
C=c1ccc(=c2[n-]c(=O)/c(=C/c3ccc(OC)cc3[O-])s2)cc1 (optimized conformer: 81.70375599830722 kcal/mol)

>  <smiles>  (86) 
C=c1ccc(=c2[nH]c(=O)c(=Cc3ccc(OC)cc3O)s2)cc1

>  <score_type>  (86) 
oracle

>  <origin>  (86) 
adg

>  <m_score__min__energy>  (86) 
-13.609999999999999

>  <m_primary>  (86) 
energy

$$$$
86:0
     RDKit          3D

 43 45  0  0  0  0  0  0  0  0999 V2000
   54.6597   30.9683   43.8395 H   0  0  0  0  0  0  0  0  0  0  0  0
   55.5430   30.3480   44.0520 C   0  0  0  0  0  0  0  0  0  0  0  0
   55.4410   29.2840   44.8940 N   0  0  0  0  0  0  0  0  0  0  0  0
   56.5130   28.4980   45.1990 C   0  0  0  0  0  0  0  0  0  0  0  0
   56.4030   27.4780   46.0000 N   0  0  0  0  0  0  0  0  0  0  0  0
   56.3120   26.0900   45.6430 C   0  0  0  0  0  0  0  0  0  0  0  0
   55.5980   25.3310   46.3500 O   0  0  0  0  0  0  0  0  0  0  0  0
   56.9560   25.5690   44.4680 N   0  0  0  0  0  0  0  0  0  0  0  0
   57.0150   26.1900   43.6310 H   0  0  0  0  0  0  0  0  0  0  0  0
   57.2790   24.1770   44.2990 C   0  0  0  0  0  0  0  0  0  0  0  0
   56.6350   23.4500   43.2860 C   0  0  0  0  0  0  0  0  0  0  0  0
   55.8911   23.9472   42.6461 H   0  0  0  0  0  0  0  0  0  0  0  0
   56.9310   22.1010   43.0840 C   0  0  0  0  0  0  0  0  0  0  0  0
   56.4130   21.5376   42.2939 H   0  0  0  0  0  0  0  0  0  0  0  0
   57.8810   21.4670   43.8810 C   0  0  0  0  0  0  0  0  0  0  0  0
   58.1036   20.4008   43.7270 H   0  0  0  0  0  0  0  0  0  0  0  0
   58.5520   22.1830   44.8760 C   0  0  0  0  0  0  0  0  0  0  0  0
   59.3028   21.6773   45.5010 H   0  0  0  0  0  0  0  0  0  0  0  0
   58.2730   23.5490   45.0840 C   0  0  0  0  0  0  0  0  0  0  0  0
   58.9650   24.3120   46.0390 O   0  0  0  0  0  0  0  0  0  0  0  0
   59.5060   25.6200   45.8410 C   0  0  0  0  0  0  0  0  0  0  0  0
   60.4037   25.5440   45.2098 H   0  0  0  0  0  0  0  0  0  0  0  0
   58.7388   26.2417   45.3563 H   0  0  0  0  0  0  0  0  0  0  0  0
   59.8870   26.2760   47.1720 C   0  0  0  0  0  0  0  0  0  0  0  0
   59.1882   25.9376   47.9512 H   0  0  0  0  0  0  0  0  0  0  0  0
   60.9181   25.9839   47.4202 H   0  0  0  0  0  0  0  0  0  0  0  0
   59.8280   27.7780   47.0790 C   0  0  0  0  0  0  0  0  0  0  0  0
   58.9830   28.5080   47.9330 C   0  0  0  0  0  0  0  0  0  0  0  0
   58.3819   27.9825   48.6897 H   0  0  0  0  0  0  0  0  0  0  0  0
   58.9040   29.8990   47.8240 C   0  0  0  0  0  0  0  0  0  0  0  0
   58.2413   30.4658   48.4945 H   0  0  0  0  0  0  0  0  0  0  0  0
   59.6660   30.5710   46.8640 C   0  0  0  0  0  0  0  0  0  0  0  0
   59.6074   31.6665   46.7840 H   0  0  0  0  0  0  0  0  0  0  0  0
   60.5020   29.8520   46.0060 C   0  0  0  0  0  0  0  0  0  0  0  0
   61.1011   30.3821   45.2509 H   0  0  0  0  0  0  0  0  0  0  0  0
   60.5780   28.4600   46.1060 C   0  0  0  0  0  0  0  0  0  0  0  0
   61.2275   27.8961   45.4203 H   0  0  0  0  0  0  0  0  0  0  0  0
   57.7560   28.7750   44.6150 C   0  0  0  0  0  0  0  0  0  0  0  0
   58.6279   28.1441   44.8424 H   0  0  0  0  0  0  0  0  0  0  0  0
   57.8800   29.8580   43.7420 C   0  0  0  0  0  0  0  0  0  0  0  0
   58.8519   30.0844   43.2793 H   0  0  0  0  0  0  0  0  0  0  0  0
   56.7690   30.6520   43.4580 C   0  0  0  0  0  0  0  0  0  0  0  0
   56.8580   31.5084   42.7734 H   0  0  0  0  0  0  0  0  0  0  0  0
  1  2  1  0
  2  3  1  0
  3  4  1  0
  4  5  2  0
  5  6  1  0
  6  7  2  0
  6  8  1  0
  8  9  1  0
  8 10  1  0
 10 11  2  0
 11 12  1  0
 11 13  1  0
 13 14  1  0
 13 15  2  0
 15 16  1  0
 15 17  1  0
 17 18  1  0
 17 19  2  0
 19 20  1  0
 20 21  1  0
 21 22  1  0
 21 23  1  0
 21 24  1  0
 24 25  1  0
 24 26  1  0
 24 27  1  0
 27 28  2  0
 28 29  1  0
 28 30  1  0
 30 31  1  0
 30 32  2  0
 32 33  1  0
 32 34  1  0
 34 35  1  0
 34 36  2  0
 36 37  1  0
  4 38  1  0
 38 39  1  0
 38 40  2  0
 40 41  1  0
 40 42  1  0
 42 43  1  0
 42  2  2  0
 19 10  1  0
 36 27  1  0
M  CHG  1   3  -1
M  END
>  <UniqueID>  (87) 
83

>  <SMILES>  (87) 
O=C(/N=c1/cccc[n-]1)Nc1ccccc1OCCc1ccccc1

>  <Energy>  (87) 
50.14143561296129

>  <Genealogy>  (87) 
O=C(N=c1cccc[n-]1)Nc1ccccc1OCCc1ccccc1 (protonated)
O=C(/N=c1/cccc[n-]1)Nc1ccccc1OCCc1ccccc1 (cis-trans isomerization)
O=C(/N=c1/cccc[n-]1)Nc1ccccc1OCCc1ccccc1 (3D coordinates assigned)
O=C(/N=c1/cccc[n-]1)Nc1ccccc1OCCc1ccccc1 (optimized conformer: 50.14143561296129 kcal/mol)

>  <smiles>  (87) 
O=C(N=c1cccc[nH]1)Nc1ccccc1OCCc1ccccc1

>  <score_type>  (87) 
oracle

>  <origin>  (87) 
adg

>  <m_score__min__energy>  (87) 
-9.8800000000000008

>  <m_primary>  (87) 
energy

$$$$
87:0
     RDKit          3D

 50 53  0  0  0  0  0  0  0  0999 V2000
   57.4220   23.1130   46.0590 H   0  0  0  0  0  0  0  0  0  0  0  0
   56.4090   23.3550   45.9930 N   0  0  0  0  0  0  0  0  0  0  0  0
   56.0130   24.5850   46.0380 C   0  0  0  0  0  0  0  0  0  0  0  0
   54.7600   24.9840   45.7660 N   0  0  0  0  0  0  0  0  0  0  0  0
   54.7650   26.2680   45.9890 O   0  0  0  0  0  0  0  0  0  0  0  0
   55.9200   26.7340   46.3850 N   0  0  0  0  0  0  0  0  0  0  0  0
   56.7530   25.6780   46.4200 C   0  0  0  0  0  0  0  0  0  0  0  0
   58.1640   25.7540   46.8490 C   0  0  0  0  0  0  0  0  0  0  0  0
   58.9890   24.9360   46.3650 O   0  0  0  0  0  0  0  0  0  0  0  0
   58.6350   26.7460   47.7700 N   0  0  0  0  0  0  0  0  0  0  0  0
   58.8240   28.1430   47.4970 C   0  0  0  0  0  0  0  0  0  0  0  0
   58.7240   28.5770   46.1700 C   0  0  0  0  0  0  0  0  0  0  0  0
   58.5077   27.8496   45.3737 H   0  0  0  0  0  0  0  0  0  0  0  0
   58.8960   29.9230   45.8480 C   0  0  0  0  0  0  0  0  0  0  0  0
   58.8057   30.2538   44.8028 H   0  0  0  0  0  0  0  0  0  0  0  0
   59.1830   30.8520   46.8520 C   0  0  0  0  0  0  0  0  0  0  0  0
   59.3740   32.2730   46.5140 C   0  0  0  0  0  0  0  0  0  0  0  0
   58.2990   32.9810   45.9570 C   0  0  0  0  0  0  0  0  0  0  0  0
   57.3370   32.4738   45.7918 H   0  0  0  0  0  0  0  0  0  0  0  0
   58.4430   34.3260   45.6110 C   0  0  0  0  0  0  0  0  0  0  0  0
   57.5961   34.8751   45.1737 H   0  0  0  0  0  0  0  0  0  0  0  0
   59.6620   34.9740   45.8200 C   0  0  0  0  0  0  0  0  0  0  0  0
   59.7748   36.0328   45.5439 H   0  0  0  0  0  0  0  0  0  0  0  0
   60.7390   34.2810   46.3790 C   0  0  0  0  0  0  0  0  0  0  0  0
   61.6966   34.7980   46.5397 H   0  0  0  0  0  0  0  0  0  0  0  0
   60.6080   32.9300   46.7370 C   0  0  0  0  0  0  0  0  0  0  0  0
   61.9900   32.0860   47.4530 S   0  0  0  0  0  0  0  0  0  0  0  0
   62.0650   30.6830   46.9190 O   0  0  0  0  0  0  0  0  0  0  0  0
   61.8440   32.0210   48.9490 O   0  0  0  0  0  0  0  0  0  0  0  0
   63.4470   32.9310   47.0660 N   0  0  0  0  0  0  0  0  0  0  0  0
   64.2280   32.2410   47.1300 H   0  0  0  0  0  0  0  0  0  0  0  0
   63.3790   33.2200   46.0640 H   0  0  0  0  0  0  0  0  0  0  0  0
   59.2990   30.4270   48.1800 C   0  0  0  0  0  0  0  0  0  0  0  0
   59.5031   31.1630   48.9716 H   0  0  0  0  0  0  0  0  0  0  0  0
   59.1570   29.0660   48.5130 C   0  0  0  0  0  0  0  0  0  0  0  0
   59.3670   28.5990   49.8210 O   0  0  0  0  0  0  0  0  0  0  0  0
   59.9790   29.3380   50.8790 C   0  0  0  0  0  0  0  0  0  0  0  0
   60.1116   28.6786   51.7494 H   0  0  0  0  0  0  0  0  0  0  0  0
   60.9526   29.7124   50.5297 H   0  0  0  0  0  0  0  0  0  0  0  0
   59.1240   30.5140   51.2760 C   0  0  0  0  0  0  0  0  0  0  0  0
   57.7880   30.3160   51.6670 C   0  0  0  0  0  0  0  0  0  0  0  0
   57.3648   29.3007   51.6794 H   0  0  0  0  0  0  0  0  0  0  0  0
   56.9960   31.4060   52.0400 C   0  0  0  0  0  0  0  0  0  0  0  0
   55.9546   31.2451   52.3555 H   0  0  0  0  0  0  0  0  0  0  0  0
   57.5240   32.6990   52.0130 C   0  0  0  0  0  0  0  0  0  0  0  0
   56.8990   33.5544   52.3090 H   0  0  0  0  0  0  0  0  0  0  0  0
   58.8460   32.9060   51.6100 C   0  0  0  0  0  0  0  0  0  0  0  0
   59.2599   33.9249   51.5854 H   0  0  0  0  0  0  0  0  0  0  0  0
   59.6430   31.8190   51.2380 C   0  0  0  0  0  0  0  0  0  0  0  0
   60.6809   31.9864   50.9142 H   0  0  0  0  0  0  0  0  0  0  0  0
  1  2  1  0
  2  3  2  0
  3  4  1  0
  4  5  1  0
  5  6  1  0
  6  7  2  0
  7  8  1  0
  8  9  2  0
  8 10  1  0
 10 11  1  0
 11 12  2  0
 12 13  1  0
 12 14  1  0
 14 15  1  0
 14 16  2  0
 16 17  1  0
 17 18  2  0
 18 19  1  0
 18 20  1  0
 20 21  1  0
 20 22  2  0
 22 23  1  0
 22 24  1  0
 24 25  1  0
 24 26  2  0
 26 27  1  0
 27 28  2  0
 27 29  2  0
 27 30  1  0
 30 31  1  0
 30 32  1  0
 16 33  1  0
 33 34  1  0
 33 35  2  0
 35 36  1  0
 36 37  1  0
 37 38  1  0
 37 39  1  0
 37 40  1  0
 40 41  2  0
 41 42  1  0
 41 43  1  0
 43 44  1  0
 43 45  2  0
 45 46  1  0
 45 47  1  0
 47 48  1  0
 47 49  2  0
 49 50  1  0
  7  3  1  0
 35 11  1  0
 49 40  1  0
 26 17  1  0
M  CHG  2   4  -1  10  -1
M  END
>  <UniqueID>  (88) 
84

>  <SMILES>  (88) 
[H]/N=c1\[n-]onc1C(=O)[N-]c1ccc(-c2ccccc2S(N)(=O)=O)cc1OCc1ccccc1

>  <Energy>  (88) 
103.28793014699828

>  <Genealogy>  (88) 
N=c1[n-]onc1C(=O)[N-]c1ccc(-c2ccccc2S(N)(=O)=O)cc1OCc1ccccc1 (protonated)
[H]/N=c1\[n-]onc1C(=O)[N-]c1ccc(-c2ccccc2S(N)(=O)=O)cc1OCc1ccccc1 (cis-trans isomerization)
[H]/N=c1\[n-]onc1C(=O)[N-]c1ccc(-c2ccccc2S(N)(=O)=O)cc1OCc1ccccc1 (3D coordinates assigned)
[H]/N=c1\[n-]onc1C(=O)[N-]c1ccc(-c2ccccc2S(N)(=O)=O)cc1OCc1ccccc1 (optimized conformer: 103.28793014699828 kcal/mol)

>  <smiles>  (88) 
N=c1[nH]onc1C(=O)Nc1ccc(-c2ccccc2S(N)(=O)=O)cc1OCc1ccccc1

>  <score_type>  (88) 
oracle

>  <origin>  (88) 
adg

>  <m_score__min__energy>  (88) 
-12.98

>  <m_primary>  (88) 
energy

$$$$
88:0
     RDKit          3D

 56 59  0  0  0  0  0  0  0  0999 V2000
   56.7762   32.9607   39.9329 H   0  0  0  0  0  0  0  0  0  0  0  0
   57.0700   32.3370   40.7900 C   0  0  0  0  0  0  0  0  0  0  0  0
   56.5253   31.4059   41.0051 H   0  0  0  0  0  0  0  0  0  0  0  0
   58.0900   32.7110   41.5710 C   0  0  0  0  0  0  0  0  0  0  0  0
   58.6253   33.6446   41.3436 H   0  0  0  0  0  0  0  0  0  0  0  0
   58.5220   31.8880   42.7500 C   0  0  0  0  0  0  0  0  0  0  0  0
   58.2947   30.8295   42.5552 H   0  0  0  0  0  0  0  0  0  0  0  0
   59.6033   32.0225   42.9004 H   0  0  0  0  0  0  0  0  0  0  0  0
   57.8170   32.3180   43.9640 N   0  0  0  0  0  0  0  0  0  0  0  0
   56.6530   31.8470   44.4740 C   0  0  0  0  0  0  0  0  0  0  0  0
   55.9070   30.6500   43.9650 C   0  0  0  0  0  0  0  0  0  0  0  0
   54.8671   30.6919   44.3211 H   0  0  0  0  0  0  0  0  0  0  0  0
   55.9287   30.6554   42.8652 H   0  0  0  0  0  0  0  0  0  0  0  0
   56.5480   29.3910   44.4590 C   0  0  0  0  0  0  0  0  0  0  0  0
   55.8770   28.5090   45.2540 N   0  0  0  0  0  0  0  0  0  0  0  0
   56.6270   27.4250   45.5400 C   0  0  0  0  0  0  0  0  0  0  0  0
   56.2060   26.4770   46.3220 N   0  0  0  0  0  0  0  0  0  0  0  0
   55.6600   25.2220   45.8870 C   0  0  0  0  0  0  0  0  0  0  0  0
   54.4090   25.0550   45.9540 O   0  0  0  0  0  0  0  0  0  0  0  0
   56.5100   24.1500   45.3100 C   0  0  0  0  0  0  0  0  0  0  0  0
   57.7870   23.8810   45.8370 C   0  0  0  0  0  0  0  0  0  0  0  0
   58.1445   24.4388   46.7151 H   0  0  0  0  0  0  0  0  0  0  0  0
   58.6060   22.9070   45.2500 C   0  0  0  0  0  0  0  0  0  0  0  0
   59.6054   22.7070   45.6637 H   0  0  0  0  0  0  0  0  0  0  0  0
   58.1530   22.1890   44.1380 C   0  0  0  0  0  0  0  0  0  0  0  0
   58.7973   21.4273   43.6747 H   0  0  0  0  0  0  0  0  0  0  0  0
   56.8780   22.4410   43.6150 C   0  0  0  0  0  0  0  0  0  0  0  0
   56.5177   21.8681   42.7478 H   0  0  0  0  0  0  0  0  0  0  0  0
   56.0630   23.4180   44.1920 C   0  0  0  0  0  0  0  0  0  0  0  0
   55.0664   23.6170   43.7711 H   0  0  0  0  0  0  0  0  0  0  0  0
   58.1640   27.5260   44.8370 S   0  0  0  0  0  0  0  0  0  0  0  0
   57.8530   29.0170   44.1220 C   0  0  0  0  0  0  0  0  0  0  0  0
   58.5520   29.5951   43.4998 H   0  0  0  0  0  0  0  0  0  0  0  0
   56.2850   32.5270   45.5840 N   0  0  0  0  0  0  0  0  0  0  0  0
   57.2220   33.4400   45.7840 N   0  0  0  0  0  0  0  0  0  0  0  0
   57.2250   34.1300   46.5690 H   0  0  0  0  0  0  0  0  0  0  0  0
   58.1440   33.3140   44.8150 C   0  0  0  0  0  0  0  0  0  0  0  0
   59.6430   34.3030   44.7400 S   0  0  0  0  0  0  0  0  0  0  0  0
   59.8640   34.3960   46.5550 C   0  0  0  0  0  0  0  0  0  0  0  0
   60.8526   34.8219   46.7816 H   0  0  0  0  0  0  0  0  0  0  0  0
   59.0789   35.0352   46.9851 H   0  0  0  0  0  0  0  0  0  0  0  0
   59.7650   33.0140   47.1510 C   0  0  0  0  0  0  0  0  0  0  0  0
   59.0210   32.7960   48.3240 C   0  0  0  0  0  0  0  0  0  0  0  0
   58.5238   33.6416   48.8217 H   0  0  0  0  0  0  0  0  0  0  0  0
   58.9100   31.5100   48.8610 C   0  0  0  0  0  0  0  0  0  0  0  0
   58.3230   31.3488   49.7772 H   0  0  0  0  0  0  0  0  0  0  0  0
   59.5470   30.4170   48.2340 C   0  0  0  0  0  0  0  0  0  0  0  0
   59.4750   29.1110   48.7510 O   0  0  0  0  0  0  0  0  0  0  0  0
   59.1620   27.9560   47.9680 C   0  0  0  0  0  0  0  0  0  0  0  0
   58.9332   27.1118   48.6351 H   0  0  0  0  0  0  0  0  0  0  0  0
   58.2891   28.1688   47.3333 H   0  0  0  0  0  0  0  0  0  0  0  0
   60.0229   27.6990   47.3333 H   0  0  0  0  0  0  0  0  0  0  0  0
   60.2850   30.6370   47.0600 C   0  0  0  0  0  0  0  0  0  0  0  0
   60.9190   29.6020   46.4540 F   0  0  0  0  0  0  0  0  0  0  0  0
   60.3920   31.9260   46.5220 C   0  0  0  0  0  0  0  0  0  0  0  0
   60.9710   32.0871   45.6007 H   0  0  0  0  0  0  0  0  0  0  0  0
  1  2  1  0
  2  3  1  0
  2  4  2  0
  4  5  1  0
  4  6  1  0
  6  7  1  0
  6  8  1  0
  6  9  1  0
  9 10  1  0
 10 11  1  0
 11 12  1  0
 11 13  1  0
 11 14  1  0
 14 15  1  0
 15 16  1  0
 16 17  2  0
 17 18  1  0
 18 19  2  0
 18 20  1  0
 20 21  2  0
 21 22  1  0
 21 23  1  0
 23 24  1  0
 23 25  2  0
 25 26  1  0
 25 27  1  0
 27 28  1  0
 27 29  2  0
 29 30  1  0
 16 31  1  0
 31 32  1  0
 32 33  1  0
 10 34  2  0
 34 35  1  0
 35 36  1  0
 35 37  2  0
 37 38  1  0
 38 39  1  0
 39 40  1  0
 39 41  1  0
 39 42  1  0
 42 43  2  0
 43 44  1  0
 43 45  1  0
 45 46  1  0
 45 47  2  0
 47 48  1  0
 48 49  1  0
 49 50  1  0
 49 51  1  0
 49 52  1  0
 47 53  1  0
 53 54  1  0
 53 55  2  0
 55 56  1  0
 37  9  1  0
 55 42  1  0
 32 14  2  0
 29 20  1  0
M  CHG  2  15  -1  35   1
M  END
>  <UniqueID>  (89) 
85

>  <SMILES>  (89) 
C=CCn1c(Cc2cs/c(=N\C(=O)c3ccccc3)[n-]2)n[nH+]c1SCc1ccc(OC)c(F)c1

>  <Energy>  (89) 
120.87738122909246

>  <Genealogy>  (89) 
C=CCn1c(Cc2csc(=NC(=O)c3ccccc3)[n-]2)n[nH+]c1SCc1ccc(OC)c(F)c1 (protonated)
C=CCn1c(Cc2cs/c(=N\C(=O)c3ccccc3)[n-]2)n[nH+]c1SCc1ccc(OC)c(F)c1 (cis-trans isomerization)
C=CCn1c(Cc2cs/c(=N\C(=O)c3ccccc3)[n-]2)n[nH+]c1SCc1ccc(OC)c(F)c1 (3D coordinates assigned)
C=CCn1c(Cc2cs/c(=N\C(=O)c3ccccc3)[n-]2)n[nH+]c1SCc1ccc(OC)c(F)c1 (optimized conformer: 120.87738122909246 kcal/mol)

>  <smiles>  (89) 
C=CCn1c(Cc2csc(=NC(=O)c3ccccc3)[nH]2)nnc1SCc1ccc(OC)c(F)c1

>  <score_type>  (89) 
oracle

>  <origin>  (89) 
adg

>  <m_score__min__energy>  (89) 
-10.140000000000001

>  <m_primary>  (89) 
energy

$$$$
89:0
     RDKit          3D

 41 42  0  0  0  0  0  0  0  0999 V2000
   55.2470   28.6580   45.6180 H   0  0  0  0  0  0  0  0  0  0  0  0
   55.1430   29.3470   44.8410 N   0  0  0  0  0  0  0  0  0  0  0  0
   56.7040   30.0390   44.5670 S   0  0  0  0  0  0  0  0  0  0  0  0
   56.6560   31.5130   44.8530 O   0  0  0  0  0  0  0  0  0  0  0  0
   57.0950   29.8380   43.1300 O   0  0  0  0  0  0  0  0  0  0  0  0
   57.8820   29.2700   45.6270 C   0  0  0  0  0  0  0  0  0  0  0  0
   58.4920   28.0650   45.2560 C   0  0  0  0  0  0  0  0  0  0  0  0
   58.2385   27.5947   44.2944 H   0  0  0  0  0  0  0  0  0  0  0  0
   59.4220   27.4590   46.1050 C   0  0  0  0  0  0  0  0  0  0  0  0
   59.9095   26.5199   45.8042 H   0  0  0  0  0  0  0  0  0  0  0  0
   59.7340   28.0440   47.3360 C   0  0  0  0  0  0  0  0  0  0  0  0
   60.4756   27.5696   47.9956 H   0  0  0  0  0  0  0  0  0  0  0  0
   59.1060   29.2320   47.7330 C   0  0  0  0  0  0  0  0  0  0  0  0
   59.4360   29.7980   49.0110 N   0  0  0  0  0  0  0  0  0  0  0  0
   58.5180   30.4110   49.9280 C   0  0  0  0  0  0  0  0  0  0  0  0
   57.9680   29.6930   50.8030 O   0  0  0  0  0  0  0  0  0  0  0  0
   58.1750   31.8460   49.8720 C   0  0  0  0  0  0  0  0  0  0  0  0
   57.1226   32.1436   49.9899 H   0  0  0  0  0  0  0  0  0  0  0  0
   59.0970   32.7990   49.6830 C   0  0  0  0  0  0  0  0  0  0  0  0
   59.5438   33.2825   50.5642 H   0  0  0  0  0  0  0  0  0  0  0  0
   59.5390   33.2280   48.3390 C   0  0  0  0  0  0  0  0  0  0  0  0
   58.5520   33.4300   47.3660 C   0  0  0  0  0  0  0  0  0  0  0  0
   57.4927   33.2868   47.6256 H   0  0  0  0  0  0  0  0  0  0  0  0
   58.9000   33.8100   46.0750 C   0  0  0  0  0  0  0  0  0  0  0  0
   58.1170   33.9531   45.3157 H   0  0  0  0  0  0  0  0  0  0  0  0
   60.2360   34.0100   45.7400 C   0  0  0  0  0  0  0  0  0  0  0  0
   60.5015   34.2978   44.7121 H   0  0  0  0  0  0  0  0  0  0  0  0
   61.2530   33.8480   46.7030 C   0  0  0  0  0  0  0  0  0  0  0  0
   62.5990   34.0600   46.3670 O   0  0  0  0  0  0  0  0  0  0  0  0
   63.6860   33.2420   46.7870 C   0  0  0  0  0  0  0  0  0  0  0  0
   63.7215   33.2153   47.8861 H   0  0  0  0  0  0  0  0  0  0  0  0
   63.5481   32.2217   46.3997 H   0  0  0  0  0  0  0  0  0  0  0  0
   64.6282   33.6570   46.3997 H   0  0  0  0  0  0  0  0  0  0  0  0
   60.9000   33.4680   48.0280 C   0  0  0  0  0  0  0  0  0  0  0  0
   61.8400   33.3440   49.0710 O   0  0  0  0  0  0  0  0  0  0  0  0
   62.3600   32.1350   49.6130 C   0  0  0  0  0  0  0  0  0  0  0  0
   62.3379   32.1863   50.7116 H   0  0  0  0  0  0  0  0  0  0  0  0
   61.7469   31.2873   49.2731 H   0  0  0  0  0  0  0  0  0  0  0  0
   63.3970   31.9970   49.2731 H   0  0  0  0  0  0  0  0  0  0  0  0
   58.1960   29.8560   46.8610 C   0  0  0  0  0  0  0  0  0  0  0  0
   57.7282   30.8090   47.1489 H   0  0  0  0  0  0  0  0  0  0  0  0
  1  2  1  0
  2  3  1  0
  3  4  2  0
  3  5  2  0
  3  6  1  0
  6  7  2  0
  7  8  1  0
  7  9  1  0
  9 10  1  0
  9 11  2  0
 11 12  1  0
 11 13  1  0
 13 14  1  0
 14 15  1  0
 15 16  2  0
 15 17  1  0
 17 18  1  0
 17 19  2  0
 19 20  1  0
 19 21  1  0
 21 22  2  0
 22 23  1  0
 22 24  1  0
 24 25  1  0
 24 26  2  0
 26 27  1  0
 26 28  1  0
 28 29  1  0
 29 30  1  0
 30 31  1  0
 30 32  1  0
 30 33  1  0
 28 34  2  0
 34 35  1  0
 35 36  1  0
 36 37  1  0
 36 38  1  0
 36 39  1  0
 13 40  2  0
 40 41  1  0
 40  6  1  0
 34 21  1  0
M  CHG  2   2  -1  14  -1
M  END
>  <UniqueID>  (90) 
86

>  <SMILES>  (90) 
COc1cccc(/C=C/C(=O)[N-]c2cccc(S([NH-])(=O)=O)c2)c1OC

>  <Energy>  (90) 
51.99782499422589

>  <Genealogy>  (90) 
COc1cccc(C=CC(=O)[N-]c2cccc(S([NH-])(=O)=O)c2)c1OC (protonated)
COc1cccc(/C=C/C(=O)[N-]c2cccc(S([NH-])(=O)=O)c2)c1OC (cis-trans isomerization)
COc1cccc(/C=C/C(=O)[N-]c2cccc(S([NH-])(=O)=O)c2)c1OC (3D coordinates assigned)
COc1cccc(/C=C/C(=O)[N-]c2cccc(S([NH-])(=O)=O)c2)c1OC (optimized conformer: 51.99782499422589 kcal/mol)

>  <smiles>  (90) 
COc1cccc(C=CC(=O)Nc2cccc(S(N)(=O)=O)c2)c1OC

>  <score_type>  (90) 
oracle

>  <origin>  (90) 
adg

>  <m_score__min__energy>  (90) 
-11.720000000000001

>  <m_primary>  (90) 
energy

$$$$
90:0
     RDKit          3D

 28 30  0  0  0  0  0  0  0  0999 V2000
   59.4621   34.2538   49.0006 H   0  0  0  0  0  0  0  0  0  0  0  0
   59.2790   34.2470   47.9160 C   0  0  0  0  0  0  0  0  0  0  0  0
   59.5780   35.2170   47.1090 N   0  0  0  0  0  0  0  0  0  0  0  0
   59.1700   34.7890   45.8090 C   0  0  0  0  0  0  0  0  0  0  0  0
   59.2740   35.5140   44.7850 O   0  0  0  0  0  0  0  0  0  0  0  0
   58.5880   33.4870   45.8070 N   0  0  0  0  0  0  0  0  0  0  0  0
   58.0720   32.7170   44.7060 C   0  0  0  0  0  0  0  0  0  0  0  0
   58.4490   33.0200   43.3890 C   0  0  0  0  0  0  0  0  0  0  0  0
   59.1404   33.8534   43.1958 H   0  0  0  0  0  0  0  0  0  0  0  0
   57.9510   32.2690   42.3220 C   0  0  0  0  0  0  0  0  0  0  0  0
   58.2555   32.5104   41.2929 H   0  0  0  0  0  0  0  0  0  0  0  0
   57.0690   31.2140   42.5560 C   0  0  0  0  0  0  0  0  0  0  0  0
   56.6862   30.6227   41.7111 H   0  0  0  0  0  0  0  0  0  0  0  0
   56.6670   30.9030   43.8670 C   0  0  0  0  0  0  0  0  0  0  0  0
   55.7330   29.7800   44.1250 C   0  0  0  0  0  0  0  0  0  0  0  0
   54.7310   29.6250   43.3760 O   0  0  0  0  0  0  0  0  0  0  0  0
   55.8930   28.9020   45.2480 N   0  0  0  0  0  0  0  0  0  0  0  0
   56.9350   28.1640   45.4910 C   0  0  0  0  0  0  0  0  0  0  0  0
   56.8770   27.0790   46.2910 N   0  0  0  0  0  0  0  0  0  0  0  0
   58.0770   26.4440   46.3660 C   0  0  0  0  0  0  0  0  0  0  0  0
   58.2298   25.5426   46.9776 H   0  0  0  0  0  0  0  0  0  0  0  0
   59.0970   27.0160   45.6140 C   0  0  0  0  0  0  0  0  0  0  0  0
   60.1318   26.6493   45.5458 H   0  0  0  0  0  0  0  0  0  0  0  0
   58.4750   28.3650   44.8270 S   0  0  0  0  0  0  0  0  0  0  0  0
   57.1830   31.6530   44.9380 C   0  0  0  0  0  0  0  0  0  0  0  0
   56.8881   31.4048   45.9683 H   0  0  0  0  0  0  0  0  0  0  0  0
   58.6670   33.1480   47.1840 C   0  0  0  0  0  0  0  0  0  0  0  0
   58.3110   32.0450   47.6760 O   0  0  0  0  0  0  0  0  0  0  0  0
  1  2  1  0
  2  3  2  0
  3  4  1  0
  4  5  2  0
  4  6  1  0
  6  7  1  0
  7  8  2  0
  8  9  1  0
  8 10  1  0
 10 11  1  0
 10 12  2  0
 12 13  1  0
 12 14  1  0
 14 15  1  0
 15 16  2  0
 15 17  1  0
 17 18  2  0
 18 19  1  0
 19 20  1  0
 20 21  1  0
 20 22  2  0
 22 23  1  0
 22 24  1  0
 14 25  2  0
 25 26  1  0
  6 27  1  0
 27 28  2  0
 27  2  1  0
 25  7  1  0
 24 18  1  0
M  CHG  1  19  -1
M  END
>  <UniqueID>  (91) 
87

>  <SMILES>  (91) 
O=C(/N=c1/[n-]ccs1)c1cccc(N2C(=O)C=NC2=O)c1

>  <Energy>  (91) 
103.21998464288872

>  <Genealogy>  (91) 
O=C(N=c1[n-]ccs1)c1cccc(N2C(=O)C=NC2=O)c1 (protonated)
O=C(/N=c1/[n-]ccs1)c1cccc(N2C(=O)C=NC2=O)c1 (cis-trans isomerization)
O=C(/N=c1/[n-]ccs1)c1cccc(N2C(=O)C=NC2=O)c1 (3D coordinates assigned)
O=C(/N=c1/[n-]ccs1)c1cccc(N2C(=O)C=NC2=O)c1 (nonaromatic ring conformer: 103.21998464288872 kcal/mol)

>  <smiles>  (91) 
O=C(N=c1[nH]ccs1)c1cccc(N2C(=O)C=NC2=O)c1

>  <score_type>  (91) 
oracle

>  <origin>  (91) 
adg

>  <m_score__min__energy>  (91) 
-9.8800000000000008

>  <m_primary>  (91) 
energy

$$$$
91:0
     RDKit          3D

 62 65  0  0  0  0  0  0  0  0999 V2000
   57.0090   33.2690   44.9010 C   0  0  0  0  0  0  0  0  0  0  0  0
   57.9650   32.2810   45.4360 N   0  0  0  0  0  0  0  0  0  0  0  0
   58.1360   31.0880   44.7940 C   0  0  0  0  0  0  0  0  0  0  0  0
   57.5060   30.8510   43.7260 O   0  0  0  0  0  0  0  0  0  0  0  0
   59.0250   30.1300   45.2990 C   0  0  0  0  0  0  0  0  0  0  0  0
   59.1650   28.8210   44.6090 C   0  0  0  0  0  0  0  0  0  0  0  0
   60.3060   28.3000   44.4830 O   0  0  0  0  0  0  0  0  0  0  0  0
   57.9650   28.1280   44.0160 C   0  0  0  0  0  0  0  0  0  0  0  0
   57.9370   26.6210   44.3180 C   0  0  0  0  0  0  0  0  0  0  0  0
   58.7020   26.2100   45.5920 C   0  0  0  0  0  0  0  0  0  0  0  0
   57.8240   26.0690   46.8450 C   0  0  0  0  0  0  0  0  0  0  0  0
   56.7150   25.1440   46.6150 N   0  0  0  0  0  0  0  0  0  0  0  0
   55.5060   25.4510   46.0940 C   0  0  0  0  0  0  0  0  0  0  0  0
   55.1440   26.7160   45.6450 O   0  0  0  0  0  0  0  0  0  0  0  0
   54.6910   24.3370   46.0790 C   0  0  0  0  0  0  0  0  0  0  0  0
   55.4430   23.2960   46.5760 C   0  0  0  0  0  0  0  0  0  0  0  0
   56.6710   23.8280   46.9180 C   0  0  0  0  0  0  0  0  0  0  0  0
   57.7150   23.1200   47.5010 O   0  0  0  0  0  0  0  0  0  0  0  0
   54.9070   21.9160   46.8110 C   0  0  0  0  0  0  0  0  0  0  0  0
   53.6210   21.6920   45.9910 C   0  0  0  0  0  0  0  0  0  0  0  0
   52.6550   22.8940   46.0960 C   0  0  0  0  0  0  0  0  0  0  0  0
   53.2940   24.1890   45.5540 C   0  0  0  0  0  0  0  0  0  0  0  0
   59.7740   30.4460   46.4510 C   0  0  0  0  0  0  0  0  0  0  0  0
   60.7810   29.5280   46.9200 N   0  0  0  0  0  0  0  0  0  0  0  0
   59.5200   31.6230   47.1270 N   0  0  0  0  0  0  0  0  0  0  0  0
   60.1260   31.8820   48.4550 C   0  0  0  0  0  0  0  0  0  0  0  0
   61.5280   32.4200   48.2980 C   0  0  0  0  0  0  0  0  0  0  0  0
   61.8950   33.0890   47.1170 C   0  0  0  0  0  0  0  0  0  0  0  0
   63.1830   33.6140   46.9730 C   0  0  0  0  0  0  0  0  0  0  0  0
   64.1130   33.4800   48.0080 C   0  0  0  0  0  0  0  0  0  0  0  0
   63.7560   32.8170   49.1850 C   0  0  0  0  0  0  0  0  0  0  0  0
   62.4700   32.2870   49.3320 C   0  0  0  0  0  0  0  0  0  0  0  0
   58.6100   32.5220   46.6200 C   0  0  0  0  0  0  0  0  0  0  0  0
   58.3570   33.5870   47.2530 O   0  0  0  0  0  0  0  0  0  0  0  0
   56.5099   33.7849   45.7345 H   0  0  0  0  0  0  0  0  0  0  0  0
   57.5476   34.0040   44.2848 H   0  0  0  0  0  0  0  0  0  0  0  0
   56.2567   32.7549   44.2848 H   0  0  0  0  0  0  0  0  0  0  0  0
   57.0546   28.5862   44.4298 H   0  0  0  0  0  0  0  0  0  0  0  0
   58.0212   28.2456   42.9237 H   0  0  0  0  0  0  0  0  0  0  0  0
   56.8873   26.3131   44.4332 H   0  0  0  0  0  0  0  0  0  0  0  0
   58.4411   26.1238   43.4762 H   0  0  0  0  0  0  0  0  0  0  0  0
   59.1890   25.2419   45.4030 H   0  0  0  0  0  0  0  0  0  0  0  0
   59.4182   27.0183   45.8012 H   0  0  0  0  0  0  0  0  0  0  0  0
   58.4404   25.6905   47.6738 H   0  0  0  0  0  0  0  0  0  0  0  0
   57.4071   27.0570   47.0899 H   0  0  0  0  0  0  0  0  0  0  0  0
   55.6633   21.1770   46.5080 H   0  0  0  0  0  0  0  0  0  0  0  0
   54.6732   21.8013   47.8797 H   0  0  0  0  0  0  0  0  0  0  0  0
   53.8932   21.5454   44.9353 H   0  0  0  0  0  0  0  0  0  0  0  0
   53.1088   20.8062   46.3946 H   0  0  0  0  0  0  0  0  0  0  0  0
   51.7476   22.6739   45.5145 H   0  0  0  0  0  0  0  0  0  0  0  0
   52.4148   23.0489   47.1582 H   0  0  0  0  0  0  0  0  0  0  0  0
   53.3213   24.1482   44.4551 H   0  0  0  0  0  0  0  0  0  0  0  0
   52.6940   25.0501   45.8833 H   0  0  0  0  0  0  0  0  0  0  0  0
   61.3650   29.7180   47.7590 H   0  0  0  0  0  0  0  0  0  0  0  0
   61.0490   28.6740   46.3860 H   0  0  0  0  0  0  0  0  0  0  0  0
   59.5135   32.6187   48.9954 H   0  0  0  0  0  0  0  0  0  0  0  0
   60.1670   30.9383   49.0186 H   0  0  0  0  0  0  0  0  0  0  0  0
   61.1648   33.2000   46.3018 H   0  0  0  0  0  0  0  0  0  0  0  0
   63.4646   34.1327   46.0448 H   0  0  0  0  0  0  0  0  0  0  0  0
   65.1250   33.8962   47.8959 H   0  0  0  0  0  0  0  0  0  0  0  0
   64.4887   32.7115   49.9986 H   0  0  0  0  0  0  0  0  0  0  0  0
   62.1952   31.7644   50.2601 H   0  0  0  0  0  0  0  0  0  0  0  0
  1  2  1  0
  2  3  1  0
  3  4  2  0
  3  5  1  0
  5  6  1  0
  6  7  2  0
  6  8  1  0
  8  9  1  0
  9 10  1  0
 10 11  1  0
 11 12  1  0
 12 13  1  0
 13 14  1  0
 13 15  2  0
 15 16  1  0
 16 17  2  0
 17 18  1  0
 16 19  1  0
 19 20  1  0
 20 21  1  0
 21 22  1  0
  5 23  2  0
 23 24  1  0
 23 25  1  0
 25 26  1  0
 26 27  1  0
 27 28  2  0
 28 29  1  0
 29 30  2  0
 30 31  1  0
 31 32  2  0
 25 33  1  0
 33 34  2  0
 33  2  1  0
 17 12  1  0
 32 27  1  0
 22 15  1  0
  1 35  1  0
  1 36  1  0
  1 37  1  0
  8 38  1  0
  8 39  1  0
  9 40  1  0
  9 41  1  0
 10 42  1  0
 10 43  1  0
 11 44  1  0
 11 45  1  0
 19 46  1  0
 19 47  1  0
 20 48  1  0
 20 49  1  0
 21 50  1  0
 21 51  1  0
 22 52  1  0
 22 53  1  0
 24 54  1  0
 24 55  1  0
 26 56  1  0
 26 57  1  0
 28 58  1  0
 29 59  1  0
 30 60  1  0
 31 61  1  0
 32 62  1  0
M  CHG  2  14  -1  18  -1
M  END
>  <UniqueID>  (92) 
88

>  <SMILES>  (92) 
Cn1c(=O)c(C(=O)CCCCn2c([O-])c3c(c2[O-])CCCC3)c(N)n(Cc2ccccc2)c1=O

>  <Energy>  (92) 
105.64514584580473

>  <Genealogy>  (92) 
Cn1c(=O)c(C(=O)CCCCn2c([O-])c3c(c2[O-])CCCC3)c(N)n(Cc2ccccc2)c1=O (protonated)
Cn1c(=O)c(C(=O)CCCCn2c([O-])c3c(c2[O-])CCCC3)c(N)n(Cc2ccccc2)c1=O (3D coordinates assigned)
Cn1c(=O)c(C(=O)CCCCn2c([O-])c3c(c2[O-])CCCC3)c(N)n(Cc2ccccc2)c1=O (nonaromatic ring conformer: 105.64514584580473 kcal/mol)

>  <smiles>  (92) 
Cn1c(=O)c(C(=O)CCCCn2c(O)c3c(c2O)CCCC3)c(N)n(Cc2ccccc2)c1=O

>  <score_type>  (92) 
oracle

>  <origin>  (92) 
adg

>  <m_score__min__energy>  (92) 
-13.93

>  <m_primary>  (92) 
energy

$$$$
