0:0
     RDKit          3D

 37 39  0  0  0  0  0  0  0  0999 V2000
   61.3990   32.0830   47.9830 C   0  0  0  0  0  0  0  0  0  0  0  0
   60.4720   33.1600   48.0770 O   0  0  0  0  0  0  0  0  0  0  0  0
   59.7430   33.6800   46.9960 C   0  0  0  0  0  0  0  0  0  0  0  0
   60.0730   34.9140   46.3980 C   0  0  0  0  0  0  0  0  0  0  0  0
   59.3180   35.4040   45.3310 C   0  0  0  0  0  0  0  0  0  0  0  0
   58.2240   34.6810   44.8570 C   0  0  0  0  0  0  0  0  0  0  0  0
   57.8870   33.4580   45.4400 C   0  0  0  0  0  0  0  0  0  0  0  0
   58.6590   32.9380   46.4970 C   0  0  0  0  0  0  0  0  0  0  0  0
   58.3130   31.6980   47.1400 N   0  0  0  0  0  0  0  0  0  0  0  0
   58.1370   30.5430   46.5660 C   0  0  0  0  0  0  0  0  0  0  0  0
   57.4020   30.4780   45.4250 N   0  0  0  0  0  0  0  0  0  0  0  0
   57.1720   29.2930   44.8030 C   0  0  0  0  0  0  0  0  0  0  0  0
   57.6820   28.1060   45.3410 C   0  0  0  0  0  0  0  0  0  0  0  0
   57.4700   26.7850   44.6520 C   0  0  0  0  0  0  0  0  0  0  0  0
   57.2160   25.6930   45.6660 C   0  0  0  0  0  0  0  0  0  0  0  0
   55.9330   25.4920   46.2080 C   0  0  0  0  0  0  0  0  0  0  0  0
   54.8740   26.3220   45.8480 O   0  0  0  0  0  0  0  0  0  0  0  0
   55.7200   24.4840   47.0930 N   0  0  0  0  0  0  0  0  0  0  0  0
   56.7260   23.6520   47.4670 C   0  0  0  0  0  0  0  0  0  0  0  0
   56.5040   22.7260   48.2880 O   0  0  0  0  0  0  0  0  0  0  0  0
   57.9700   23.8190   46.9530 N   0  0  0  0  0  0  0  0  0  0  0  0
   58.2380   24.8110   46.0650 C   0  0  0  0  0  0  0  0  0  0  0  0
   59.4060   24.9290   45.6100 O   0  0  0  0  0  0  0  0  0  0  0  0
   58.4330   28.1930   46.5200 C   0  0  0  0  0  0  0  0  0  0  0  0
   58.6380   29.3990   47.1070 N   0  0  0  0  0  0  0  0  0  0  0  0
   61.6823   31.7538   48.9936 H   0  0  0  0  0  0  0  0  0  0  0  0
   60.9346   31.2457   47.4414 H   0  0  0  0  0  0  0  0  0  0  0  0
   62.2961   32.4176   47.4414 H   0  0  0  0  0  0  0  0  0  0  0  0
   60.9293   35.4930   46.7742 H   0  0  0  0  0  0  0  0  0  0  0  0
   59.5867   36.3626   44.8631 H   0  0  0  0  0  0  0  0  0  0  0  0
   57.6255   35.0749   44.0223 H   0  0  0  0  0  0  0  0  0  0  0  0
   57.0146   32.8980   45.0721 H   0  0  0  0  0  0  0  0  0  0  0  0
   56.5834   29.2660   43.8741 H   0  0  0  0  0  0  0  0  0  0  0  0
   56.6033   26.8628   43.9792 H   0  0  0  0  0  0  0  0  0  0  0  0
   58.3744   26.5341   44.0784 H   0  0  0  0  0  0  0  0  0  0  0  0
   54.0200   26.3400   46.3920 H   0  0  0  0  0  0  0  0  0  0  0  0
   58.8568   27.2833   46.9703 H   0  0  0  0  0  0  0  0  0  0  0  0
  1  2  1  0
  2  3  1  0
  3  4  2  0
  4  5  1  0
  5  6  2  0
  6  7  1  0
  7  8  2  0
  8  9  1  0
  9 10  2  3
 10 11  1  0
 11 12  2  0
 12 13  1  0
 13 14  1  0
 14 15  1  0
 15 16  2  0
 16 17  1  0
 16 18  1  0
 18 19  1  0
 19 20  2  0
 19 21  1  0
 21 22  1  0
 22 23  2  0
 13 24  2  0
 24 25  1  0
  8  3  1  0
 25 10  1  0
 22 15  1  0
  1 26  1  0
  1 27  1  0
  1 28  1  0
  4 29  1  0
  5 30  1  0
  6 31  1  0
  7 32  1  0
 12 33  1  0
 14 34  1  0
 14 35  1  0
 17 36  1  0
 24 37  1  0
M  CHG  3  18  -1  21  -1  25  -1
M  END
>  <UniqueID>  (1) 
1

>  <SMILES>  (1) 
COc1ccccc1N=c1ncc(Cc2c(O)[n-]c(=O)[n-]c2=O)c[n-]1

>  <Energy>  (1) 
47.89207320755823

>  <Genealogy>  (1) 
COc1ccccc1N=c1ncc(Cc2c(O)[n-]c(=O)[n-]c2=O)c[n-]1 (protonated)
COc1ccccc1N=c1ncc(Cc2c(O)[n-]c(=O)[n-]c2=O)c[n-]1 (3D coordinates assigned)
COc1ccccc1N=c1ncc(Cc2c(O)[n-]c(=O)[n-]c2=O)c[n-]1 (optimized conformer: 47.89207320755823 kcal/mol)

>  <smiles>  (1) 
COc1ccccc1N=c1ncc(Cc2c(O)[nH]c(=O)[nH]c2=O)c[nH]1

>  <score_type>  (1) 
oracle

>  <origin>  (1) 
adg

>  <m_score__min__energy>  (1) 
-13.07

>  <m_primary>  (1) 
energy

$$$$
1:0
     RDKit          3D

 52 54  0  0  0  0  0  0  0  0999 V2000
   56.4248   30.3963   42.3588 H   0  0  0  0  0  0  0  0  0  0  0  0
   56.7840   30.5290   43.3900 C   0  0  0  0  0  0  0  0  0  0  0  0
   56.5480   29.4480   44.3520 C   0  0  0  0  0  0  0  0  0  0  0  0
   55.4170   29.3260   44.8900 O   0  0  0  0  0  0  0  0  0  0  0  0
   57.6160   28.5780   44.7240 N   0  0  0  0  0  0  0  0  0  0  0  0
   58.7920   27.9910   44.0570 C   0  0  0  0  0  0  0  0  0  0  0  0
   59.4452   28.7506   43.6028 H   0  0  0  0  0  0  0  0  0  0  0  0
   58.6014   27.3196   43.2068 H   0  0  0  0  0  0  0  0  0  0  0  0
   59.3850   27.3810   45.2840 C   0  0  0  0  0  0  0  0  0  0  0  0
   60.3495   27.8024   45.6036 H   0  0  0  0  0  0  0  0  0  0  0  0
   59.6793   26.3239   45.3606 H   0  0  0  0  0  0  0  0  0  0  0  0
   58.1680   27.9630   45.9560 C   0  0  2  0  0  0  0  0  0  0  0  0
   57.2280   26.8960   46.5030 C   0  0  0  0  0  0  0  0  0  0  0  0
   57.5990   26.2130   47.4920 O   0  0  0  0  0  0  0  0  0  0  0  0
   55.9130   26.6470   45.9820 N   0  0  0  0  0  0  0  0  0  0  0  0
   55.1410   25.1210   45.6800 S   0  0  0  0  0  0  0  0  0  0  0  0
   53.6550   25.3150   45.5650 O   0  0  0  0  0  0  0  0  0  0  0  0
   55.4470   24.1330   46.7680 O   0  0  0  0  0  0  0  0  0  0  0  0
   55.7660   24.4630   44.1450 C   0  0  0  0  0  0  0  0  0  0  0  0
   54.9859   23.8510   43.6687 H   0  0  0  0  0  0  0  0  0  0  0  0
   56.0459   25.2984   43.4864 H   0  0  0  0  0  0  0  0  0  0  0  0
   56.9790   23.6120   44.3950 C   0  0  0  0  0  0  0  0  0  0  0  0
   58.0630   24.1200   45.1290 C   0  0  0  0  0  0  0  0  0  0  0  0
   58.0135   25.1358   45.5481 H   0  0  0  0  0  0  0  0  0  0  0  0
   59.2060   23.3380   45.3290 C   0  0  0  0  0  0  0  0  0  0  0  0
   60.0509   23.7386   45.9084 H   0  0  0  0  0  0  0  0  0  0  0  0
   59.2760   22.0490   44.7940 C   0  0  0  0  0  0  0  0  0  0  0  0
   60.1741   21.4346   44.9547 H   0  0  0  0  0  0  0  0  0  0  0  0
   58.2050   21.5410   44.0550 C   0  0  0  0  0  0  0  0  0  0  0  0
   58.2609   20.5265   43.6336 H   0  0  0  0  0  0  0  0  0  0  0  0
   57.0620   22.3200   43.8500 C   0  0  0  0  0  0  0  0  0  0  0  0
   56.2246   21.9195   43.2597 H   0  0  0  0  0  0  0  0  0  0  0  0
   58.4870   29.0630   46.9840 C   0  0  0  0  0  0  0  0  0  0  0  0
   58.3701   28.6597   48.0007 H   0  0  0  0  0  0  0  0  0  0  0  0
   59.5221   29.4076   46.8430 H   0  0  0  0  0  0  0  0  0  0  0  0
   57.7969   29.9079   46.8430 H   0  0  0  0  0  0  0  0  0  0  0  0
   57.4130   31.6680   43.7000 C   0  0  0  0  0  0  0  0  0  0  0  0
   58.2656   31.9733   43.0756 H   0  0  0  0  0  0  0  0  0  0  0  0
   57.0260   32.5570   44.8500 C   0  0  0  0  0  0  0  0  0  0  0  0
   56.3809   33.3679   44.4809 H   0  0  0  0  0  0  0  0  0  0  0  0
   56.4871   31.9589   45.5995 H   0  0  0  0  0  0  0  0  0  0  0  0
   58.2540   33.1500   45.4870 C   0  0  0  0  0  0  0  0  0  0  0  0
   59.1180   32.3350   46.2400 C   0  0  0  0  0  0  0  0  0  0  0  0
   58.9012   31.2624   46.3519 H   0  0  0  0  0  0  0  0  0  0  0  0
   60.2520   32.8840   46.8470 C   0  0  0  0  0  0  0  0  0  0  0  0
   60.9261   32.2414   47.4324 H   0  0  0  0  0  0  0  0  0  0  0  0
   60.5310   34.2460   46.7120 C   0  0  0  0  0  0  0  0  0  0  0  0
   61.4242   34.6748   47.1897 H   0  0  0  0  0  0  0  0  0  0  0  0
   59.6750   35.0630   45.9700 C   0  0  0  0  0  0  0  0  0  0  0  0
   59.8947   36.1356   45.8644 H   0  0  0  0  0  0  0  0  0  0  0  0
   58.5390   34.5200   45.3610 C   0  0  0  0  0  0  0  0  0  0  0  0
   57.8658   35.1683   44.7809 H   0  0  0  0  0  0  0  0  0  0  0  0
  1  2  1  0
  2  3  1  0
  3  4  2  0
  3  5  1  0
  5  6  1  0
  6  7  1  0
  6  8  1  0
  6  9  1  0
  9 10  1  0
  9 11  1  0
  9 12  1  0
 12 13  1  0
 13 14  2  0
 13 15  1  0
 15 16  1  0
 16 17  2  0
 16 18  2  0
 16 19  1  0
 19 20  1  0
 19 21  1  0
 19 22  1  0
 22 23  2  0
 23 24  1  0
 23 25  1  0
 25 26  1  0
 25 27  2  0
 27 28  1  0
 27 29  1  0
 29 30  1  0
 29 31  2  0
 31 32  1  0
 12 33  1  1
 33 34  1  0
 33 35  1  0
 33 36  1  0
  2 37  2  0
 37 38  1  0
 37 39  1  0
 39 40  1  0
 39 41  1  0
 39 42  1  0
 42 43  2  0
 43 44  1  0
 43 45  1  0
 45 46  1  0
 45 47  2  0
 47 48  1  0
 47 49  1  0
 49 50  1  0
 49 51  2  0
 51 52  1  0
 12  5  1  0
 31 22  1  0
 51 42  1  0
M  CHG  1  15  -1
M  END
>  <UniqueID>  (2) 
2

>  <SMILES>  (2) 
C[C@]1(C(=O)[N-]S(=O)(=O)Cc2ccccc2)CCN1C(=O)/C=C\Cc1ccccc1

>  <Energy>  (2) 
102.29492992012682

>  <Genealogy>  (2) 
CC1(C(=O)[N-]S(=O)(=O)Cc2ccccc2)CCN1C(=O)C=CCc1ccccc1 (protonated)
C[C@]1(C(=O)[N-]S(=O)(=O)Cc2ccccc2)CCN1C(=O)C=CCc1ccccc1 (chirality)
C[C@]1(C(=O)[N-]S(=O)(=O)Cc2ccccc2)CCN1C(=O)/C=C\Cc1ccccc1 (cis-trans isomerization)
C[C@]1(C(=O)[N-]S(=O)(=O)Cc2ccccc2)CCN1C(=O)/C=C\Cc1ccccc1 (3D coordinates assigned)
C[C@]1(C(=O)[N-]S(=O)(=O)Cc2ccccc2)CCN1C(=O)/C=C\Cc1ccccc1 (nonaromatic ring conformer: 102.29492992012682 kcal/mol)

>  <smiles>  (2) 
CC1(C(=O)NS(=O)(=O)Cc2ccccc2)CCN1C(=O)C=CCc1ccccc1

>  <score_type>  (2) 
oracle

>  <origin>  (2) 
adg

>  <m_score__min__energy>  (2) 
-12.210000000000001

>  <m_primary>  (2) 
energy

$$$$
2:0
     RDKit          3D

 46 48  0  0  0  0  0  0  0  0999 V2000
   55.3520   26.4320   46.0460 N   0  0  0  0  0  0  0  0  0  0  0  0
   57.0710   26.2540   46.0330 S   0  0  0  0  0  0  0  0  0  0  0  0
   57.4920   25.5330   44.7840 O   0  0  0  0  0  0  0  0  0  0  0  0
   57.4810   25.4490   47.2350 O   0  0  0  0  0  0  0  0  0  0  0  0
   57.8390   27.8380   46.0800 C   0  0  0  0  0  0  0  0  0  0  0  0
   59.0600   28.0060   46.7450 C   0  0  0  0  0  0  0  0  0  0  0  0
   59.6580   29.2670   46.8030 C   0  0  0  0  0  0  0  0  0  0  0  0
   59.0460   30.3660   46.1930 C   0  0  0  0  0  0  0  0  0  0  0  0
   57.8270   30.2060   45.5090 C   0  0  0  0  0  0  0  0  0  0  0  0
   57.1440   31.3110   44.9010 N   0  0  0  0  0  0  0  0  0  0  0  0
   57.7320   32.3460   44.1030 C   0  0  0  0  0  0  0  0  0  0  0  0
   57.9790   32.1530   42.8820 O   0  0  0  0  0  0  0  0  0  0  0  0
   57.9690   33.7020   44.7140 C   0  0  0  0  0  0  0  0  0  0  0  0
   57.1590   33.8790   46.0230 C   0  0  0  0  0  0  0  0  0  0  0  0
   57.9460   33.4800   47.2790 C   0  0  0  0  0  0  0  0  0  0  0  0
   59.2680   34.1230   47.3170 N   0  0  0  0  0  0  0  0  0  0  0  0
   59.9720   34.2120   48.5680 C   0  0  0  0  0  0  0  0  0  0  0  0
   59.3540   34.5960   49.5960 O   0  0  0  0  0  0  0  0  0  0  0  0
   61.4040   33.8450   48.6730 C   0  0  0  0  0  0  0  0  0  0  0  0
   62.0280   33.0900   47.6630 C   0  0  0  0  0  0  0  0  0  0  0  0
   63.3750   32.7350   47.7750 C   0  0  0  0  0  0  0  0  0  0  0  0
   64.1120   33.1220   48.8980 C   0  0  0  0  0  0  0  0  0  0  0  0
   65.4170   32.7740   49.0040 F   0  0  0  0  0  0  0  0  0  0  0  0
   63.4980   33.8610   49.9130 C   0  0  0  0  0  0  0  0  0  0  0  0
   62.1510   34.2180   49.8050 C   0  0  0  0  0  0  0  0  0  0  0  0
   59.7930   34.8030   46.1240 C   0  0  0  0  0  0  0  0  0  0  0  0
   59.4880   33.9630   44.8830 C   0  0  0  0  0  0  0  0  0  0  0  0
   57.2210   28.9420   45.4740 C   0  0  0  0  0  0  0  0  0  0  0  0
   55.1510   27.4570   46.0300 H   0  0  0  0  0  0  0  0  0  0  0  0
   59.5487   27.1438   47.2223 H   0  0  0  0  0  0  0  0  0  0  0  0
   60.6144   29.3959   47.3308 H   0  0  0  0  0  0  0  0  0  0  0  0
   59.5185   31.3578   46.2479 H   0  0  0  0  0  0  0  0  0  0  0  0
   57.5939   34.4755   44.0277 H   0  0  0  0  0  0  0  0  0  0  0  0
   56.8678   34.9358   46.1138 H   0  0  0  0  0  0  0  0  0  0  0  0
   56.2852   33.2139   45.9595 H   0  0  0  0  0  0  0  0  0  0  0  0
   57.3756   33.7839   48.1691 H   0  0  0  0  0  0  0  0  0  0  0  0
   58.0941   32.3902   47.2602 H   0  0  0  0  0  0  0  0  0  0  0  0
   61.4520   32.7772   46.7796 H   0  0  0  0  0  0  0  0  0  0  0  0
   63.8564   32.1497   46.9777 H   0  0  0  0  0  0  0  0  0  0  0  0
   64.0762   34.1624   50.7989 H   0  0  0  0  0  0  0  0  0  0  0  0
   61.6721   34.7943   50.6103 H   0  0  0  0  0  0  0  0  0  0  0  0
   59.3169   35.7897   46.0250 H   0  0  0  0  0  0  0  0  0  0  0  0
   60.8812   34.9293   46.2230 H   0  0  0  0  0  0  0  0  0  0  0  0
   59.8573   34.4960   43.9944 H   0  0  0  0  0  0  0  0  0  0  0  0
   59.9877   32.9902   45.0013 H   0  0  0  0  0  0  0  0  0  0  0  0
   56.2530   28.8150   44.9672 H   0  0  0  0  0  0  0  0  0  0  0  0
  1  2  1  0
  2  3  2  0
  2  4  2  0
  2  5  1  0
  5  6  2  0
  6  7  1  0
  7  8  2  0
  8  9  1  0
  9 10  1  0
 10 11  1  0
 11 12  2  0
 11 13  1  0
 13 14  1  0
 14 15  1  0
 15 16  1  0
 16 17  1  0
 17 18  2  0
 17 19  1  0
 19 20  2  0
 20 21  1  0
 21 22  2  0
 22 23  1  0
 22 24  1  0
 24 25  2  0
 16 26  1  0
 26 27  1  0
  9 28  2  0
 28  5  1  0
 27 13  1  0
 25 19  1  0
  1 29  1  0
  6 30  1  0
  7 31  1  0
  8 32  1  0
 13 33  1  0
 14 34  1  0
 14 35  1  0
 15 36  1  0
 15 37  1  0
 20 38  1  0
 21 39  1  0
 24 40  1  0
 25 41  1  0
 26 42  1  0
 26 43  1  0
 27 44  1  0
 27 45  1  0
 28 46  1  0
M  CHG  2   1  -1  10  -1
M  END
>  <UniqueID>  (3) 
3

>  <SMILES>  (3) 
[NH-]S(=O)(=O)c1cccc([N-]C(=O)C2CCN(C(=O)c3ccc(F)cc3)CC2)c1

>  <Energy>  (3) 
58.05085184626405

>  <Genealogy>  (3) 
[NH-]S(=O)(=O)c1cccc([N-]C(=O)C2CCN(C(=O)c3ccc(F)cc3)CC2)c1 (protonated)
[NH-]S(=O)(=O)c1cccc([N-]C(=O)C2CCN(C(=O)c3ccc(F)cc3)CC2)c1 (3D coordinates assigned)
[NH-]S(=O)(=O)c1cccc([N-]C(=O)C2CCN(C(=O)c3ccc(F)cc3)CC2)c1 (nonaromatic ring conformer: 58.05085184626405 kcal/mol)

>  <smiles>  (3) 
NS(=O)(=O)c1cccc(NC(=O)C2CCN(C(=O)c3ccc(F)cc3)CC2)c1

>  <score_type>  (3) 
oracle

>  <origin>  (3) 
adg

>  <m_score__min__energy>  (3) 
-14.039999999999999

>  <m_primary>  (3) 
energy

$$$$
3:0
     RDKit          3D

 63 66  0  0  0  0  0  0  0  0999 V2000
   58.6050   32.0560   52.2700 C   0  0  0  0  0  0  0  0  0  0  0  0
   58.4220   30.6260   51.2260 S   0  0  0  0  0  0  0  0  0  0  0  0
   59.3910   29.5520   51.6340 O   0  0  0  0  0  0  0  0  0  0  0  0
   57.0260   30.0850   51.3690 O   0  0  0  0  0  0  0  0  0  0  0  0
   58.6830   31.0660   49.5690 N   0  0  0  0  0  0  0  0  0  0  0  0
   59.2710   30.1960   48.5880 C   0  0  0  0  0  0  0  0  0  0  0  0
   60.3060   30.6260   47.7350 C   0  0  0  0  0  0  0  0  0  0  0  0
   60.8720   29.7420   46.8090 C   0  0  0  0  0  0  0  0  0  0  0  0
   60.4140   28.4260   46.7200 C   0  0  0  0  0  0  0  0  0  0  0  0
   59.3680   27.9870   47.5470 C   0  0  0  0  0  0  0  0  0  0  0  0
   58.8970   26.5610   47.5010 C   0  0  0  0  0  0  0  0  0  0  0  0
   57.4430   26.5380   47.4830 N   0  0  0  0  0  0  0  0  0  0  0  0
   56.6790   26.1710   46.3330 C   0  0  0  0  0  0  0  0  0  0  0  0
   56.7210   24.9760   45.9300 O   0  0  0  0  0  0  0  0  0  0  0  0
   55.8950   27.1580   45.6430 N   0  0  0  0  0  0  0  0  0  0  0  0
   56.3050   28.3230   45.2320 C   0  0  0  0  0  0  0  0  0  0  0  0
   57.6770   28.5960   45.2020 C   0  0  0  0  0  0  0  0  0  0  0  0
   58.1190   29.8570   44.7960 C   0  0  0  0  0  0  0  0  0  0  0  0
   57.1990   30.8410   44.4230 C   0  0  0  0  0  0  0  0  0  0  0  0
   57.6760   32.1150   44.0730 O   0  0  0  0  0  0  0  0  0  0  0  0
   58.2220   33.0520   44.9610 C   0  0  0  0  0  0  0  0  0  0  0  0
   58.7440   34.2420   44.4470 C   0  0  0  0  0  0  0  0  0  0  0  0
   59.3030   35.1810   45.3170 C   0  0  0  0  0  0  0  0  0  0  0  0
   59.3220   34.9440   46.6550 N   0  0  0  0  0  0  0  0  0  0  0  0
   58.7960   33.8050   47.1900 C   0  0  0  0  0  0  0  0  0  0  0  0
   58.8210   33.5850   48.5700 O   0  0  0  0  0  0  0  0  0  0  0  0
   59.6420   34.3450   49.4540 C   0  0  0  0  0  0  0  0  0  0  0  0
   60.7430   33.4610   50.0380 C   0  0  0  0  0  0  0  0  0  0  0  0
   61.8000   33.1560   49.0050 C   0  0  0  0  0  0  0  0  0  0  0  0
   62.8050   32.2090   49.2680 C   0  0  0  0  0  0  0  0  0  0  0  0
   63.8000   31.9580   48.3180 C   0  0  0  0  0  0  0  0  0  0  0  0
   63.7950   32.6430   47.0990 C   0  0  0  0  0  0  0  0  0  0  0  0
   62.8020   33.5890   46.8320 C   0  0  0  0  0  0  0  0  0  0  0  0
   61.8150   33.8550   47.7860 C   0  0  0  0  0  0  0  0  0  0  0  0
   58.2250   32.8440   46.3500 C   0  0  0  0  0  0  0  0  0  0  0  0
   55.8280   30.5320   44.4710 C   0  0  0  0  0  0  0  0  0  0  0  0
   55.4220   29.2950   44.8670 N   0  0  0  0  0  0  0  0  0  0  0  0
   58.8010   28.8780   48.4750 C   0  0  0  0  0  0  0  0  0  0  0  0
   58.5655   31.7472   53.3250 H   0  0  0  0  0  0  0  0  0  0  0  0
   59.5722   32.5382   52.0651 H   0  0  0  0  0  0  0  0  0  0  0  0
   57.7904   32.7663   52.0651 H   0  0  0  0  0  0  0  0  0  0  0  0
   58.2540   31.9630   49.2520 H   0  0  0  0  0  0  0  0  0  0  0  0
   60.6714   31.6617   47.7968 H   0  0  0  0  0  0  0  0  0  0  0  0
   61.6815   30.0857   46.1482 H   0  0  0  0  0  0  0  0  0  0  0  0
   60.8735   27.7321   46.0007 H   0  0  0  0  0  0  0  0  0  0  0  0
   59.2839   26.0748   46.5933 H   0  0  0  0  0  0  0  0  0  0  0  0
   59.2642   26.0218   48.3867 H   0  0  0  0  0  0  0  0  0  0  0  0
   58.4022   27.8230   45.4961 H   0  0  0  0  0  0  0  0  0  0  0  0
   59.1965   30.0770   44.7696 H   0  0  0  0  0  0  0  0  0  0  0  0
   58.7149   34.4379   43.3650 H   0  0  0  0  0  0  0  0  0  0  0  0
   59.7285   36.1138   44.9185 H   0  0  0  0  0  0  0  0  0  0  0  0
   60.0996   35.1778   48.8999 H   0  0  0  0  0  0  0  0  0  0  0  0
   59.0220   34.7369   50.2738 H   0  0  0  0  0  0  0  0  0  0  0  0
   61.2099   33.9822   50.8867 H   0  0  0  0  0  0  0  0  0  0  0  0
   60.2922   32.5131   50.3671 H   0  0  0  0  0  0  0  0  0  0  0  0
   62.8088   31.6640   50.2235 H   0  0  0  0  0  0  0  0  0  0  0  0
   64.5880   31.2204   48.5301 H   0  0  0  0  0  0  0  0  0  0  0  0
   64.5735   32.4369   46.3496 H   0  0  0  0  0  0  0  0  0  0  0  0
   62.7967   34.1245   45.8712 H   0  0  0  0  0  0  0  0  0  0  0  0
   61.0466   34.6150   47.5814 H   0  0  0  0  0  0  0  0  0  0  0  0
   57.7812   31.9313   46.7742 H   0  0  0  0  0  0  0  0  0  0  0  0
   55.0833   31.2906   44.1883 H   0  0  0  0  0  0  0  0  0  0  0  0
   57.9782   28.5379   49.1211 H   0  0  0  0  0  0  0  0  0  0  0  0
  1  2  1  0
  2  3  2  0
  2  4  2  0
  2  5  1  0
  5  6  1  0
  6  7  2  0
  7  8  1  0
  8  9  2  0
  9 10  1  0
 10 11  1  0
 11 12  1  0
 12 13  1  0
 13 14  2  0
 13 15  1  0
 15 16  2  3
 16 17  1  0
 17 18  2  0
 18 19  1  0
 19 20  1  0
 20 21  1  0
 21 22  2  0
 22 23  1  0
 23 24  2  0
 24 25  1  0
 25 26  1  0
 26 27  1  0
 27 28  1  0
 28 29  1  0
 29 30  2  0
 30 31  1  0
 31 32  2  0
 32 33  1  0
 33 34  2  0
 25 35  2  0
 19 36  2  0
 36 37  1  0
 10 38  2  0
 38  6  1  0
 37 16  1  0
 35 21  1  0
 34 29  1  0
  1 39  1  0
  1 40  1  0
  1 41  1  0
  5 42  1  0
  7 43  1  0
  8 44  1  0
  9 45  1  0
 11 46  1  0
 11 47  1  0
 17 48  1  0
 18 49  1  0
 22 50  1  0
 23 51  1  0
 27 52  1  0
 27 53  1  0
 28 54  1  0
 28 55  1  0
 30 56  1  0
 31 57  1  0
 32 58  1  0
 33 59  1  0
 34 60  1  0
 35 61  1  0
 36 62  1  0
 38 63  1  0
M  CHG  2  12  -1  37  -1
M  END
>  <UniqueID>  (4) 
4

>  <SMILES>  (4) 
CS(=O)(=O)Nc1cccc(C[N-]C(=O)N=c2ccc(Oc3ccnc(OCCc4ccccc4)c3)c[n-]2)c1

>  <Energy>  (4) 
70.34612175513772

>  <Genealogy>  (4) 
CS(=O)(=O)Nc1cccc(C[N-]C(=O)N=c2ccc(Oc3ccnc(OCCc4ccccc4)c3)c[n-]2)c1 (protonated)
CS(=O)(=O)Nc1cccc(C[N-]C(=O)N=c2ccc(Oc3ccnc(OCCc4ccccc4)c3)c[n-]2)c1 (3D coordinates assigned)
CS(=O)(=O)Nc1cccc(C[N-]C(=O)N=c2ccc(Oc3ccnc(OCCc4ccccc4)c3)c[n-]2)c1 (optimized conformer: 70.34612175513772 kcal/mol)

>  <smiles>  (4) 
CS(=O)(=O)Nc1cccc(CNC(=O)N=c2ccc(Oc3ccnc(OCCc4ccccc4)c3)c[nH]2)c1

>  <score_type>  (4) 
oracle

>  <origin>  (4) 
adg

>  <m_score__min__energy>  (4) 
-12.01

>  <m_primary>  (4) 
energy

$$$$
4:0
     RDKit          3D

 46 49  0  0  0  0  0  0  0  0999 V2000
   56.2330   25.0779   47.6834 H   0  0  0  0  0  0  0  0  0  0  0  0
   56.9540   25.7020   47.1350 C   0  0  0  0  0  0  0  0  0  0  0  0
   58.3180   25.5850   47.3950 C   0  0  0  0  0  0  0  0  0  0  0  0
   58.6813   24.8643   48.1424 H   0  0  0  0  0  0  0  0  0  0  0  0
   59.2180   26.3910   46.6980 C   0  0  0  0  0  0  0  0  0  0  0  0
   60.2961   26.3090   46.9005 H   0  0  0  0  0  0  0  0  0  0  0  0
   58.7690   27.2790   45.7680 N   0  0  0  0  0  0  0  0  0  0  0  0
   59.4810   27.8840   45.3060 H   0  0  0  0  0  0  0  0  0  0  0  0
   57.4340   27.3990   45.4770 C   0  0  0  0  0  0  0  0  0  0  0  0
   56.9960   28.2430   44.5820 N   0  0  0  0  0  0  0  0  0  0  0  0
   56.4180   29.5340   44.8250 C   0  0  0  0  0  0  0  0  0  0  0  0
   55.1620   29.6360   44.8520 O   0  0  0  0  0  0  0  0  0  0  0  0
   57.2540   30.7520   44.9590 C   0  0  0  0  0  0  0  0  0  0  0  0
   57.0020   31.8840   44.1370 C   0  0  0  0  0  0  0  0  0  0  0  0
   56.1869   31.8492   43.3991 H   0  0  0  0  0  0  0  0  0  0  0  0
   57.7830   33.0490   44.2560 C   0  0  0  0  0  0  0  0  0  0  0  0
   57.5909   33.9291   43.6247 H   0  0  0  0  0  0  0  0  0  0  0  0
   58.8050   33.0500   45.1980 C   0  0  0  0  0  0  0  0  0  0  0  0
   59.6660   34.0400   45.4760 N   0  0  0  0  0  0  0  0  0  0  0  0
   60.4280   33.4960   46.4590 C   0  0  0  0  0  0  0  0  0  0  0  0
   61.4210   34.1480   46.9890 N   0  0  0  0  0  0  0  0  0  0  0  0
   62.8180   33.8040   46.9480 C   0  0  0  0  0  0  0  0  0  0  0  0
   63.5000   34.2140   45.9710 O   0  0  0  0  0  0  0  0  0  0  0  0
   63.5040   33.0340   48.0630 C   0  0  0  0  0  0  0  0  0  0  0  0
   64.5721   32.9536   47.8128 H   0  0  0  0  0  0  0  0  0  0  0  0
   62.9710   31.5740   48.1700 C   0  0  0  0  0  0  0  0  0  0  0  0
   62.2933   31.3900   47.3233 H   0  0  0  0  0  0  0  0  0  0  0  0
   63.8496   30.9123   48.1599 H   0  0  0  0  0  0  0  0  0  0  0  0
   62.2080   31.2820   49.4730 C   0  0  0  0  0  0  0  0  0  0  0  0
   61.6280   30.3554   49.3502 H   0  0  0  0  0  0  0  0  0  0  0  0
   62.9374   31.1752   50.2894 H   0  0  0  0  0  0  0  0  0  0  0  0
   61.2540   32.4270   49.8190 C   0  0  0  0  0  0  0  0  0  0  0  0
   60.5242   32.5372   49.0034 H   0  0  0  0  0  0  0  0  0  0  0  0
   60.7614   32.1767   50.7702 H   0  0  0  0  0  0  0  0  0  0  0  0
   61.9900   33.7700   50.0100 C   0  0  0  0  0  0  0  0  0  0  0  0
   61.3928   34.5628   49.5359 H   0  0  0  0  0  0  0  0  0  0  0  0
   62.1057   33.9197   51.0936 H   0  0  0  0  0  0  0  0  0  0  0  0
   63.4040   33.7980   49.4010 C   0  0  0  0  0  0  0  0  0  0  0  0
   63.6895   34.8461   49.2276 H   0  0  0  0  0  0  0  0  0  0  0  0
   64.0774   33.2995   50.1138 H   0  0  0  0  0  0  0  0  0  0  0  0
   60.0980   32.2200   46.7940 N   0  0  0  0  0  0  0  0  0  0  0  0
   59.0610   31.9690   45.9820 C   0  0  0  0  0  0  0  0  0  0  0  0
   58.3170   30.7970   45.8940 C   0  0  0  0  0  0  0  0  0  0  0  0
   58.5474   29.9308   46.5317 H   0  0  0  0  0  0  0  0  0  0  0  0
   56.5040   26.6130   46.1770 C   0  0  0  0  0  0  0  0  0  0  0  0
   55.1420   26.7270   45.9210 O   0  0  0  0  0  0  0  0  0  0  0  0
  1  2  1  0
  2  3  1  0
  3  4  1  0
  3  5  2  0
  5  6  1  0
  5  7  1  0
  7  8  1  0
  7  9  1  0
  9 10  2  3
 10 11  1  0
 11 12  2  0
 11 13  1  0
 13 14  2  0
 14 15  1  0
 14 16  1  0
 16 17  1  0
 16 18  2  0
 18 19  1  0
 19 20  1  0
 20 21  2  0
 21 22  1  0
 22 23  2  0
 22 24  1  0
 24 25  1  0
 24 26  1  0
 26 27  1  0
 26 28  1  0
 26 29  1  0
 29 30  1  0
 29 31  1  0
 29 32  1  0
 32 33  1  0
 32 34  1  0
 32 35  1  0
 35 36  1  0
 35 37  1  0
 35 38  1  0
 38 39  1  0
 38 40  1  0
 20 41  1  0
 41 42  1  0
 42 43  2  0
 43 44  1  0
  9 45  1  0
 45 46  1  0
 45  2  2  0
 43 13  1  0
 42 18  1  0
 38 24  1  0
M  CHG  3  19  -1  41  -1  46  -1
M  END
>  <UniqueID>  (5) 
5

>  <SMILES>  (5) 
O=C(N=c1[nH]cccc1[O-])c1ccc2[n-]/c(=N/C(=O)C3CCCCC3)[n-]c2c1

>  <Energy>  (5) 
103.48326886894691

>  <Genealogy>  (5) 
O=C(N=c1[nH]cccc1[O-])c1ccc2[n-]c(=NC(=O)C3CCCCC3)[n-]c2c1 (protonated)
O=C(N=c1[nH]cccc1[O-])c1ccc2[n-]/c(=N/C(=O)C3CCCCC3)[n-]c2c1 (cis-trans isomerization)
O=C(N=c1[nH]cccc1[O-])c1ccc2[n-]/c(=N/C(=O)C3CCCCC3)[n-]c2c1 (3D coordinates assigned)
O=C(N=c1[nH]cccc1[O-])c1ccc2[n-]/c(=N/C(=O)C3CCCCC3)[n-]c2c1 (nonaromatic ring conformer: 103.48326886894691 kcal/mol)

>  <smiles>  (5) 
O=C(N=c1[nH]cccc1O)c1ccc2[nH]c(=NC(=O)C3CCCCC3)[nH]c2c1

>  <score_type>  (5) 
oracle

>  <origin>  (5) 
adg

>  <m_score__min__energy>  (5) 
-14.220000000000001

>  <m_primary>  (5) 
energy

$$$$
5:0
     RDKit          3D

 27 28  0  0  0  0  0  0  0  0999 V2000
   55.1510   29.3730   44.9120 O   0  0  0  0  0  0  0  0  0  0  0  0
   56.3390   28.9700   44.7760 C   0  0  0  0  0  0  0  0  0  0  0  0
   57.2010   29.6290   43.7340 C   0  0  0  0  0  0  0  0  0  0  0  0
   58.4710   30.2460   44.3420 C   0  0  0  0  0  0  0  0  0  0  0  0
   58.1950   31.5730   45.0030 C   0  0  0  0  0  0  0  0  0  0  0  0
   57.7590   32.6710   44.2430 C   0  0  0  0  0  0  0  0  0  0  0  0
   57.5260   33.9060   44.8590 C   0  0  0  0  0  0  0  0  0  0  0  0
   57.7300   34.0530   46.2330 C   0  0  0  0  0  0  0  0  0  0  0  0
   58.1690   32.9660   46.9950 C   0  0  0  0  0  0  0  0  0  0  0  0
   58.4040   31.7310   46.3830 C   0  0  0  0  0  0  0  0  0  0  0  0
   56.7830   27.8180   45.5910 C   0  0  0  0  0  0  0  0  0  0  0  0
   58.0400   27.7320   46.0680 N   0  0  0  0  0  0  0  0  0  0  0  0
   58.0430   26.5880   46.7790 C   0  0  0  0  0  0  0  0  0  0  0  0
   59.0610   26.1690   47.3890 O   0  0  0  0  0  0  0  0  0  0  0  0
   56.8700   25.9260   46.7850 N   0  0  0  0  0  0  0  0  0  0  0  0
   56.0770   26.7010   46.0250 C   0  0  0  0  0  0  0  0  0  0  0  0
   54.7650   26.3420   45.7240 O   0  0  0  0  0  0  0  0  0  0  0  0
   57.4944   28.8758   42.9879 H   0  0  0  0  0  0  0  0  0  0  0  0
   56.6170   30.4395   43.2735 H   0  0  0  0  0  0  0  0  0  0  0  0
   58.8776   29.5530   45.0933 H   0  0  0  0  0  0  0  0  0  0  0  0
   59.1894   30.4161   43.5266 H   0  0  0  0  0  0  0  0  0  0  0  0
   57.6002   32.5598   43.1602 H   0  0  0  0  0  0  0  0  0  0  0  0
   57.1817   34.7621   44.2602 H   0  0  0  0  0  0  0  0  0  0  0  0
   57.5453   35.0241   46.7156 H   0  0  0  0  0  0  0  0  0  0  0  0
   58.3296   33.0825   48.0769 H   0  0  0  0  0  0  0  0  0  0  0  0
   58.7541   30.8794   46.9849 H   0  0  0  0  0  0  0  0  0  0  0  0
   54.0250   26.3300   46.4080 H   0  0  0  0  0  0  0  0  0  0  0  0
  1  2  2  0
  2  3  1  0
  3  4  1  0
  4  5  1  0
  5  6  2  0
  6  7  1  0
  7  8  2  0
  8  9  1  0
  9 10  2  0
  2 11  1  0
 11 12  1  0
 12 13  1  0
 13 14  2  0
 13 15  1  0
 15 16  1  0
 16 17  1  0
 10  5  1  0
 16 11  2  0
  3 18  1  0
  3 19  1  0
  4 20  1  0
  4 21  1  0
  6 22  1  0
  7 23  1  0
  8 24  1  0
  9 25  1  0
 10 26  1  0
 17 27  1  0
M  CHG  2  12  -1  15  -1
M  END
>  <UniqueID>  (6) 
6

>  <SMILES>  (6) 
O=C(CCc1ccccc1)c1[n-]c(=O)[n-]c1O

>  <Energy>  (6) 
57.864597147817946

>  <Genealogy>  (6) 
O=C(CCc1ccccc1)c1[n-]c(=O)[n-]c1O (protonated)
O=C(CCc1ccccc1)c1[n-]c(=O)[n-]c1O (3D coordinates assigned)
O=C(CCc1ccccc1)c1[n-]c(=O)[n-]c1O (optimized conformer: 57.864597147817946 kcal/mol)

>  <smiles>  (6) 
O=C(CCc1ccccc1)c1[nH]c(=O)[nH]c1O

>  <score_type>  (6) 
oracle

>  <origin>  (6) 
adg

>  <m_score__min__energy>  (6) 
-11.1

>  <m_primary>  (6) 
energy

$$$$
6:0
     RDKit          3D

 74 78  0  0  0  0  0  0  0  0999 V2000
   59.5010   29.2240   45.2490 C   0  0  0  0  0  0  0  0  0  0  0  0
   58.8390   30.5660   45.0920 C   0  0  0  0  0  0  0  0  0  0  0  0
   58.0100   30.8070   43.9870 C   0  0  0  0  0  0  0  0  0  0  0  0
   57.3990   32.0480   43.8210 C   0  0  0  0  0  0  0  0  0  0  0  0
   57.6160   33.0670   44.7480 C   0  0  0  0  0  0  0  0  0  0  0  0
   58.4420   32.8560   45.8630 C   0  0  0  0  0  0  0  0  0  0  0  0
   58.7270   34.0270   46.7810 C   0  0  0  0  0  0  0  0  0  0  0  0
   60.1250   34.6050   46.5280 C   0  0  0  0  0  0  0  0  0  0  0  0
   61.1640   33.7320   47.1130 N   0  0  0  0  0  0  0  0  0  0  0  0
   62.4350   33.8470   46.3680 C   0  0  0  0  0  0  0  0  0  0  0  0
   63.5740   33.1730   47.1380 C   0  0  0  0  0  0  0  0  0  0  0  0
   63.8060   33.8380   48.4390 N   0  0  0  0  0  0  0  0  0  0  0  0
   64.5370   32.9920   49.4080 C   0  0  0  0  0  0  0  0  0  0  0  0
   63.8350   31.6570   49.7340 C   0  0  0  0  0  0  0  0  0  0  0  0
   63.1850   31.7280   51.0900 C   0  0  0  0  0  0  0  0  0  0  0  0
   62.9690   32.9700   51.7100 C   0  0  0  0  0  0  0  0  0  0  0  0
   62.4010   33.0290   52.9860 C   0  0  0  0  0  0  0  0  0  0  0  0
   62.0540   31.8520   53.6560 C   0  0  0  0  0  0  0  0  0  0  0  0
   62.2750   30.6130   53.0490 C   0  0  0  0  0  0  0  0  0  0  0  0
   62.8420   30.5480   51.7720 C   0  0  0  0  0  0  0  0  0  0  0  0
   62.6390   34.5610   48.9950 C   0  0  0  0  0  0  0  0  0  0  0  0
   61.3050   33.9140   48.5830 C   0  0  0  0  0  0  0  0  0  0  0  0
   59.0590   31.5910   46.0380 C   0  0  0  0  0  0  0  0  0  0  0  0
   59.9280   31.3450   47.1530 N   0  0  0  0  0  0  0  0  0  0  0  0
   59.5830   30.4200   48.1900 C   0  0  0  0  0  0  0  0  0  0  0  0
   58.4920   29.7870   48.1370 O   0  0  0  0  0  0  0  0  0  0  0  0
   60.5230   30.2190   49.3460 C   0  0  0  0  0  0  0  0  0  0  0  0
   59.8060   30.2040   50.6310 N   0  0  0  0  0  0  0  0  0  0  0  0
   59.7720   28.9860   51.4110 C   0  0  0  0  0  0  0  0  0  0  0  0
   60.4210   27.9710   51.0370 O   0  0  0  0  0  0  0  0  0  0  0  0
   58.9940   28.9220   52.6900 C   0  0  0  0  0  0  0  0  0  0  0  0
   57.3820   29.7170   52.4290 S   0  0  0  0  0  0  0  0  0  0  0  0
   58.1240   31.3120   52.0680 C   0  0  0  0  0  0  0  0  0  0  0  0
   57.6220   32.4590   52.6940 C   0  0  0  0  0  0  0  0  0  0  0  0
   58.1550   33.7120   52.3940 C   0  0  0  0  0  0  0  0  0  0  0  0
   59.2010   33.8250   51.4740 C   0  0  0  0  0  0  0  0  0  0  0  0
   59.7280   32.6820   50.8660 C   0  0  0  0  0  0  0  0  0  0  0  0
   59.1990   31.4080   51.1590 C   0  0  0  0  0  0  0  0  0  0  0  0
   59.6144   28.9940   46.3187 H   0  0  0  0  0  0  0  0  0  0  0  0
   58.8808   28.4511   44.7715 H   0  0  0  0  0  0  0  0  0  0  0  0
   60.4917   29.2458   44.7715 H   0  0  0  0  0  0  0  0  0  0  0  0
   57.8411   30.0112   43.2466 H   0  0  0  0  0  0  0  0  0  0  0  0
   56.7432   32.2247   42.9558 H   0  0  0  0  0  0  0  0  0  0  0  0
   57.1351   34.0458   44.6039 H   0  0  0  0  0  0  0  0  0  0  0  0
   57.9771   34.8121   46.6040 H   0  0  0  0  0  0  0  0  0  0  0  0
   58.6805   33.6725   47.8213 H   0  0  0  0  0  0  0  0  0  0  0  0
   60.2910   34.6875   45.4437 H   0  0  0  0  0  0  0  0  0  0  0  0
   60.1889   35.5965   47.0000 H   0  0  0  0  0  0  0  0  0  0  0  0
   62.3245   33.3611   45.3874 H   0  0  0  0  0  0  0  0  0  0  0  0
   62.6756   34.9127   46.2397 H   0  0  0  0  0  0  0  0  0  0  0  0
   63.3133   32.1191   47.3150 H   0  0  0  0  0  0  0  0  0  0  0  0
   64.4932   33.2493   46.5386 H   0  0  0  0  0  0  0  0  0  0  0  0
   65.5296   32.7674   48.9905 H   0  0  0  0  0  0  0  0  0  0  0  0
   64.5902   33.5603   50.3483 H   0  0  0  0  0  0  0  0  0  0  0  0
   63.0667   31.4554   48.9731 H   0  0  0  0  0  0  0  0  0  0  0  0
   64.5826   30.8501   49.7365 H   0  0  0  0  0  0  0  0  0  0  0  0
   63.2475   33.8985   51.1901 H   0  0  0  0  0  0  0  0  0  0  0  0
   62.2266   34.0041   53.4642 H   0  0  0  0  0  0  0  0  0  0  0  0
   61.6074   31.9013   54.6601 H   0  0  0  0  0  0  0  0  0  0  0  0
   62.0026   29.6869   53.5764 H   0  0  0  0  0  0  0  0  0  0  0  0
   63.0200   29.5704   51.3001 H   0  0  0  0  0  0  0  0  0  0  0  0
   62.7103   34.5579   50.0927 H   0  0  0  0  0  0  0  0  0  0  0  0
   62.6550   35.5860   48.5960 H   0  0  0  0  0  0  0  0  0  0  0  0
   61.2327   32.9277   49.0647 H   0  0  0  0  0  0  0  0  0  0  0  0
   60.5022   34.5941   48.9038 H   0  0  0  0  0  0  0  0  0  0  0  0
   60.9080   31.7030   47.1050 H   0  0  0  0  0  0  0  0  0  0  0  0
   61.0463   29.2599   49.2180 H   0  0  0  0  0  0  0  0  0  0  0  0
   61.2358   31.0567   49.3595 H   0  0  0  0  0  0  0  0  0  0  0  0
   58.8462   27.8717   52.9815 H   0  0  0  0  0  0  0  0  0  0  0  0
   59.5432   29.4402   53.4899 H   0  0  0  0  0  0  0  0  0  0  0  0
   56.8045   32.3715   53.4248 H   0  0  0  0  0  0  0  0  0  0  0  0
   57.7521   34.6119   52.8816 H   0  0  0  0  0  0  0  0  0  0  0  0
   59.6105   34.8158   51.2278 H   0  0  0  0  0  0  0  0  0  0  0  0
   60.5611   32.7769   50.1540 H   0  0  0  0  0  0  0  0  0  0  0  0
  1  2  1  0
  2  3  2  0
  3  4  1  0
  4  5  2  0
  5  6  1  0
  6  7  1  0
  7  8  1  0
  8  9  1  0
  9 10  1  0
 10 11  1  0
 11 12  1  0
 12 13  1  0
 13 14  1  0
 14 15  1  0
 15 16  2  0
 16 17  1  0
 17 18  2  0
 18 19  1  0
 19 20  2  0
 12 21  1  0
 21 22  1  0
  6 23  2  0
 23 24  1  0
 24 25  1  0
 25 26  2  0
 25 27  1  0
 27 28  1  0
 28 29  1  0
 29 30  2  0
 29 31  1  0
 31 32  1  0
 32 33  1  0
 33 34  2  0
 34 35  1  0
 35 36  2  0
 36 37  1  0
 37 38  2  0
 23  2  1  0
 38 28  1  0
 22  9  1  0
 38 33  1  0
 20 15  1  0
  1 39  1  0
  1 40  1  0
  1 41  1  0
  3 42  1  0
  4 43  1  0
  5 44  1  0
  7 45  1  0
  7 46  1  0
  8 47  1  0
  8 48  1  0
 10 49  1  0
 10 50  1  0
 11 51  1  0
 11 52  1  0
 13 53  1  0
 13 54  1  0
 14 55  1  0
 14 56  1  0
 16 57  1  0
 17 58  1  0
 18 59  1  0
 19 60  1  0
 20 61  1  0
 21 62  1  0
 21 63  1  0
 22 64  1  0
 22 65  1  0
 24 66  1  0
 27 67  1  0
 27 68  1  0
 31 69  1  0
 31 70  1  0
 34 71  1  0
 35 72  1  0
 36 73  1  0
 37 74  1  0
M  END
>  <UniqueID>  (7) 
7

>  <SMILES>  (7) 
Cc1cccc(CCN2CCN(CCc3ccccc3)CC2)c1NC(=O)CN1C(=O)CSc2ccccc21

>  <Energy>  (7) 
100.21716579766802

>  <Genealogy>  (7) 
Cc1cccc(CCN2CCN(CCc3ccccc3)CC2)c1NC(=O)CN1C(=O)CSc2ccccc21 (3D coordinates assigned)
Cc1cccc(CCN2CCN(CCc3ccccc3)CC2)c1NC(=O)CN1C(=O)CSc2ccccc21 (nonaromatic ring conformer: 100.21716579766802 kcal/mol)

>  <smiles>  (7) 
Cc1cccc(CCN2CCN(CCc3ccccc3)CC2)c1NC(=O)CN1C(=O)CSc2ccccc21

>  <score_type>  (7) 
oracle

>  <origin>  (7) 
adg

>  <m_score__min__energy>  (7) 
-9.7599999999999998

>  <m_primary>  (7) 
energy

$$$$
7:0
     RDKit          3D

 29 30  0  0  0  0  0  0  0  0999 V2000
   55.0760   26.3500   45.9880 N   0  0  0  0  0  0  0  0  0  0  0  0
   56.2220   25.9120   46.7130 C   0  0  0  0  0  0  0  0  0  0  0  0
   56.1630   24.8360   47.3660 O   0  0  0  0  0  0  0  0  0  0  0  0
   57.4790   26.6900   46.6860 C   0  0  0  0  0  0  0  0  0  0  0  0
   58.5980   26.3430   47.4640 C   0  0  0  0  0  0  0  0  0  0  0  0
   59.7120   27.1420   47.2380 C   0  0  0  0  0  0  0  0  0  0  0  0
   59.3210   28.2910   46.0730 S   0  0  0  0  0  0  0  0  0  0  0  0
   57.7320   27.7920   45.8660 C   0  0  0  0  0  0  0  0  0  0  0  0
   56.8170   28.4230   44.9680 N   0  0  0  0  0  0  0  0  0  0  0  0
   56.7830   29.8310   44.7040 C   0  0  0  0  0  0  0  0  0  0  0  0
   55.6900   30.4440   44.8150 O   0  0  0  0  0  0  0  0  0  0  0  0
   58.0030   30.5850   44.2500 C   0  0  0  0  0  0  0  0  0  0  0  0
   57.5590   32.2430   43.6210 S   0  0  0  0  0  0  0  0  0  0  0  0
   58.1990   33.1300   45.0440 C   0  0  0  0  0  0  0  0  0  0  0  0
   59.0410   34.2350   44.8630 C   0  0  0  0  0  0  0  0  0  0  0  0
   59.5360   34.9270   45.9720 C   0  0  0  0  0  0  0  0  0  0  0  0
   59.1860   34.5210   47.2640 C   0  0  0  0  0  0  0  0  0  0  0  0
   58.3380   33.4240   47.4470 C   0  0  0  0  0  0  0  0  0  0  0  0
   57.8420   32.7300   46.3380 C   0  0  0  0  0  0  0  0  0  0  0  0
   55.1530   27.0930   45.2570 H   0  0  0  0  0  0  0  0  0  0  0  0
   58.5918   25.5136   48.1865 H   0  0  0  0  0  0  0  0  0  0  0  0
   60.6868   27.0403   47.7374 H   0  0  0  0  0  0  0  0  0  0  0  0
   58.6928   30.6964   45.0996 H   0  0  0  0  0  0  0  0  0  0  0  0
   58.4791   30.0194   43.4355 H   0  0  0  0  0  0  0  0  0  0  0  0
   59.3128   34.5583   43.8473 H   0  0  0  0  0  0  0  0  0  0  0  0
   60.2011   35.7913   45.8286 H   0  0  0  0  0  0  0  0  0  0  0  0
   59.5778   35.0647   48.1363 H   0  0  0  0  0  0  0  0  0  0  0  0
   58.0609   33.1067   48.4631 H   0  0  0  0  0  0  0  0  0  0  0  0
   57.1715   31.8700   46.4824 H   0  0  0  0  0  0  0  0  0  0  0  0
  1  2  1  0
  2  3  2  0
  2  4  1  0
  4  5  1  0
  5  6  2  0
  6  7  1  0
  7  8  1  0
  8  9  1  0
  9 10  1  0
 10 11  2  0
 10 12  1  0
 12 13  1  0
 13 14  1  0
 14 15  2  0
 15 16  1  0
 16 17  2  0
 17 18  1  0
 18 19  2  0
  8  4  2  0
 19 14  1  0
  1 20  1  0
  5 21  1  0
  6 22  1  0
 12 23  1  0
 12 24  1  0
 15 25  1  0
 16 26  1  0
 17 27  1  0
 18 28  1  0
 19 29  1  0
M  CHG  2   1  -1   9  -1
M  END
>  <UniqueID>  (8) 
8

>  <SMILES>  (8) 
[NH-]C(=O)c1ccsc1[N-]C(=O)CSc1ccccc1

>  <Energy>  (8) 
58.08914839415334

>  <Genealogy>  (8) 
[NH-]C(=O)c1ccsc1[N-]C(=O)CSc1ccccc1 (protonated)
[NH-]C(=O)c1ccsc1[N-]C(=O)CSc1ccccc1 (3D coordinates assigned)
[NH-]C(=O)c1ccsc1[N-]C(=O)CSc1ccccc1 (optimized conformer: 58.08914839415334 kcal/mol)

>  <smiles>  (8) 
NC(=O)c1ccsc1NC(=O)CSc1ccccc1

>  <score_type>  (8) 
oracle

>  <origin>  (8) 
adg

>  <m_score__min__energy>  (8) 
-12.68

>  <m_primary>  (8) 
energy

$$$$
8:0
     RDKit          3D

 54 57  0  0  0  0  0  0  0  0999 V2000
   56.4029   30.8932   43.4589 H   0  0  0  0  0  0  0  0  0  0  0  0
   57.1930   31.0880   44.1990 C   0  0  0  0  0  0  0  0  0  0  0  0
   57.8390   32.2120   44.1710 N   0  0  0  0  0  0  0  0  0  0  0  0
   57.4670   33.3720   44.9270 C   0  0  0  0  0  0  0  0  0  0  0  0
   56.2680   33.5650   45.2720 O   0  0  0  0  0  0  0  0  0  0  0  0
   58.5230   34.3470   45.3430 C   0  0  0  0  0  0  0  0  0  0  0  0
   58.1208   35.3686   45.2753 H   0  0  0  0  0  0  0  0  0  0  0  0
   59.3919   34.2397   44.6771 H   0  0  0  0  0  0  0  0  0  0  0  0
   58.9540   34.0760   46.7580 C   0  0  0  0  0  0  0  0  0  0  0  0
   59.9930   34.8200   47.3390 C   0  0  0  0  0  0  0  0  0  0  0  0
   60.5049   35.5961   46.7511 H   0  0  0  0  0  0  0  0  0  0  0  0
   60.3810   34.5800   48.6610 C   0  0  0  0  0  0  0  0  0  0  0  0
   61.2020   35.1617   49.1056 H   0  0  0  0  0  0  0  0  0  0  0  0
   59.7240   33.5960   49.4250 C   0  0  0  0  0  0  0  0  0  0  0  0
   60.0760   33.3130   50.7530 O   0  0  0  0  0  0  0  0  0  0  0  0
   59.2040   33.4640   51.8690 C   0  0  0  0  0  0  0  0  0  0  0  0
   59.7802   33.3642   52.8007 H   0  0  0  0  0  0  0  0  0  0  0  0
   58.7324   34.4572   51.8341 H   0  0  0  0  0  0  0  0  0  0  0  0
   58.4259   32.6872   51.8341 H   0  0  0  0  0  0  0  0  0  0  0  0
   58.6770   32.8680   48.8470 C   0  0  0  0  0  0  0  0  0  0  0  0
   58.1539   32.1020   49.4384 H   0  0  0  0  0  0  0  0  0  0  0  0
   58.2910   33.1060   47.5260 C   0  0  0  0  0  0  0  0  0  0  0  0
   57.4635   32.5306   47.0854 H   0  0  0  0  0  0  0  0  0  0  0  0
   57.5100   30.0720   45.2140 C   0  0  0  0  0  0  0  0  0  0  0  0
   56.7610   28.9550   45.5700 C   0  0  0  0  0  0  0  0  0  0  0  0
   55.5480   28.5930   44.9970 O   0  0  0  0  0  0  0  0  0  0  0  0
   57.3470   28.2380   46.5580 N   0  0  0  0  0  0  0  0  0  0  0  0
   58.4800   28.9160   46.8250 C   0  0  0  0  0  0  0  0  0  0  0  0
   59.4400   28.5790   47.7780 C   0  0  0  0  0  0  0  0  0  0  0  0
   59.3239   27.6835   48.4062 H   0  0  0  0  0  0  0  0  0  0  0  0
   60.5610   29.4170   47.9130 C   0  0  0  0  0  0  0  0  0  0  0  0
   61.3367   29.1747   48.6543 H   0  0  0  0  0  0  0  0  0  0  0  0
   60.7000   30.5700   47.1030 C   0  0  0  0  0  0  0  0  0  0  0  0
   62.1040   31.6230   47.2930 S   0  0  0  0  0  0  0  0  0  0  0  0
   61.9010   32.8700   46.4740 O   0  0  0  0  0  0  0  0  0  0  0  0
   63.3260   30.9170   46.7690 O   0  0  0  0  0  0  0  0  0  0  0  0
   62.3630   32.0630   48.9660 N   0  0  0  0  0  0  0  0  0  0  0  0
   61.4350   32.3870   49.3310 H   0  0  0  0  0  0  0  0  0  0  0  0
   62.7650   30.8740   49.7480 C   0  0  0  0  0  0  0  0  0  0  0  0
   61.8709   30.2796   49.9871 H   0  0  0  0  0  0  0  0  0  0  0  0
   63.4698   30.2781   49.1495 H   0  0  0  0  0  0  0  0  0  0  0  0
   63.4580   31.2940   51.0570 C   0  0  0  0  0  0  0  0  0  0  0  0
   62.7397   31.8724   51.6566 H   0  0  0  0  0  0  0  0  0  0  0  0
   63.7814   30.3670   51.5532 H   0  0  0  0  0  0  0  0  0  0  0  0
   64.6280   32.0880   50.8740 O   0  0  0  0  0  0  0  0  0  0  0  0
   64.6990   32.7190   49.6040 C   0  0  0  0  0  0  0  0  0  0  0  0
   65.3612   33.5938   49.6829 H   0  0  0  0  0  0  0  0  0  0  0  0
   65.0841   31.9783   48.8877 H   0  0  0  0  0  0  0  0  0  0  0  0
   63.3230   33.1880   49.0910 C   0  0  0  0  0  0  0  0  0  0  0  0
   62.9142   33.9270   49.7959 H   0  0  0  0  0  0  0  0  0  0  0  0
   63.4643   33.6265   48.0921 H   0  0  0  0  0  0  0  0  0  0  0  0
   59.7140   30.8790   46.1420 C   0  0  0  0  0  0  0  0  0  0  0  0
   59.8104   31.7643   45.4963 H   0  0  0  0  0  0  0  0  0  0  0  0
   58.6140   30.0290   46.0350 C   0  0  0  0  0  0  0  0  0  0  0  0
  1  2  1  0
  2  3  2  0
  3  4  1  0
  4  5  2  0
  4  6  1  0
  6  7  1  0
  6  8  1  0
  6  9  1  0
  9 10  2  0
 10 11  1  0
 10 12  1  0
 12 13  1  0
 12 14  2  0
 14 15  1  0
 15 16  1  0
 16 17  1  0
 16 18  1  0
 16 19  1  0
 14 20  1  0
 20 21  1  0
 20 22  2  0
 22 23  1  0
  2 24  1  0
 24 25  2  0
 25 26  1  0
 25 27  1  0
 27 28  1  0
 28 29  2  0
 29 30  1  0
 29 31  1  0
 31 32  1  0
 31 33  2  0
 33 34  1  0
 34 35  2  0
 34 36  2  0
 34 37  1  0
 37 38  1  0
 37 39  1  0
 39 40  1  0
 39 41  1  0
 39 42  1  0
 42 43  1  0
 42 44  1  0
 42 45  1  0
 45 46  1  0
 46 47  1  0
 46 48  1  0
 46 49  1  0
 49 50  1  0
 49 51  1  0
 33 52  1  0
 52 53  1  0
 52 54  2  0
 22  9  1  0
 54 24  1  0
 54 28  1  0
 49 37  1  0
M  CHG  3  26  -1  27  -1  37   1
M  END
>  <UniqueID>  (9) 
9

>  <SMILES>  (9) 
COc1ccc(CC(=O)/N=C/c2c([O-])[n-]c3ccc(S(=O)(=O)[NH+]4CCOCC4)cc23)cc1

>  <Energy>  (9) 
98.56164929743522

>  <Genealogy>  (9) 
COc1ccc(CC(=O)N=Cc2c([O-])[n-]c3ccc(S(=O)(=O)[NH+]4CCOCC4)cc23)cc1 (protonated)
COc1ccc(CC(=O)/N=C/c2c([O-])[n-]c3ccc(S(=O)(=O)[NH+]4CCOCC4)cc23)cc1 (cis-trans isomerization)
COc1ccc(CC(=O)/N=C/c2c([O-])[n-]c3ccc(S(=O)(=O)[NH+]4CCOCC4)cc23)cc1 (3D coordinates assigned)
COc1ccc(CC(=O)/N=C/c2c([O-])[n-]c3ccc(S(=O)(=O)[NH+]4CCOCC4)cc23)cc1 (nonaromatic ring conformer: 98.56164929743522 kcal/mol)

>  <smiles>  (9) 
COc1ccc(CC(=O)N=Cc2c(O)[nH]c3ccc(S(=O)(=O)N4CCOCC4)cc23)cc1

>  <score_type>  (9) 
oracle

>  <origin>  (9) 
adg

>  <m_score__min__energy>  (9) 
-11.75

>  <m_primary>  (9) 
energy

$$$$
9:0
     RDKit          3D

 43 46  0  0  0  0  0  0  0  0999 V2000
   50.6040   33.8570   51.6090 H   0  0  0  0  0  0  0  0  0  0  0  0
   50.6610   32.9540   52.0640 O   0  0  0  0  0  0  0  0  0  0  0  0
   51.3490   31.8880   51.4860 C   0  0  0  0  0  0  0  0  0  0  0  0
   52.2720   31.1460   52.2380 C   0  0  0  0  0  0  0  0  0  0  0  0
   52.4521   31.4063   53.2915 H   0  0  0  0  0  0  0  0  0  0  0  0
   52.9690   30.0720   51.6560 C   0  0  0  0  0  0  0  0  0  0  0  0
   53.9430   29.2790   52.4420 C   0  0  0  0  0  0  0  0  0  0  0  0
   53.6730   28.1610   53.2250 C   0  0  0  0  0  0  0  0  0  0  0  0
   52.6753   27.7225   53.3743 H   0  0  0  0  0  0  0  0  0  0  0  0
   54.8200   27.6900   53.7780 N   0  0  0  0  0  0  0  0  0  0  0  0
   55.7620   28.5320   53.3100 C   0  0  0  0  0  0  0  0  0  0  0  0
   57.1260   28.4650   53.5610 C   0  0  0  0  0  0  0  0  0  0  0  0
   57.5483   27.6927   54.2206 H   0  0  0  0  0  0  0  0  0  0  0  0
   57.9440   29.4200   52.9410 C   0  0  0  0  0  0  0  0  0  0  0  0
   59.0298   29.4118   53.1167 H   0  0  0  0  0  0  0  0  0  0  0  0
   57.3700   30.3980   52.0860 C   0  0  0  0  0  0  0  0  0  0  0  0
   58.0800   31.3010   51.4710 N   0  0  0  0  0  0  0  0  0  0  0  0
   59.1970   31.0760   50.5510 C   0  0  0  0  0  0  0  0  0  0  0  0
   59.0538   30.1123   50.0403 H   0  0  0  0  0  0  0  0  0  0  0  0
   60.1321   31.0703   51.1303 H   0  0  0  0  0  0  0  0  0  0  0  0
   59.2780   32.1750   49.5180 C   0  0  0  0  0  0  0  0  0  0  0  0
   59.0350   31.8810   48.1660 C   0  0  0  0  0  0  0  0  0  0  0  0
   58.7854   30.8522   47.8672 H   0  0  0  0  0  0  0  0  0  0  0  0
   59.1080   32.8850   47.1990 C   0  0  0  0  0  0  0  0  0  0  0  0
   58.9091   32.6470   46.1436 H   0  0  0  0  0  0  0  0  0  0  0  0
   59.4330   34.1900   47.5700 C   0  0  0  0  0  0  0  0  0  0  0  0
   59.4853   34.9802   46.8066 H   0  0  0  0  0  0  0  0  0  0  0  0
   59.6920   34.4960   48.9070 C   0  0  0  0  0  0  0  0  0  0  0  0
   59.9514   35.5263   49.1920 H   0  0  0  0  0  0  0  0  0  0  0  0
   59.6230   33.4920   49.8940 C   0  0  0  0  0  0  0  0  0  0  0  0
   59.8900   33.7650   51.2460 O   0  0  0  0  0  0  0  0  0  0  0  0
   58.9150   34.1880   52.1940 C   0  0  0  0  0  0  0  0  0  0  0  0
   59.2973   34.0221   53.2120 H   0  0  0  0  0  0  0  0  0  0  0  0
   58.7048   35.2582   52.0511 H   0  0  0  0  0  0  0  0  0  0  0  0
   57.9899   33.6103   52.0511 H   0  0  0  0  0  0  0  0  0  0  0  0
   56.0190   30.3940   51.8950 N   0  0  0  0  0  0  0  0  0  0  0  0
   55.2670   29.4860   52.5140 N   0  0  0  0  0  0  0  0  0  0  0  0
   52.7130   29.7410   50.3130 C   0  0  0  0  0  0  0  0  0  0  0  0
   53.2392   28.8937   49.8491 H   0  0  0  0  0  0  0  0  0  0  0  0
   51.7940   30.4820   49.5640 C   0  0  0  0  0  0  0  0  0  0  0  0
   51.6049   30.2195   48.5126 H   0  0  0  0  0  0  0  0  0  0  0  0
   51.1150   31.5550   50.1470 C   0  0  0  0  0  0  0  0  0  0  0  0
   50.2040   32.2870   49.3950 O   0  0  0  0  0  0  0  0  0  0  0  0
  1  2  1  0
  2  3  1  0
  3  4  2  0
  4  5  1  0
  4  6  1  0
  6  7  1  0
  7  8  2  0
  8  9  1  0
  8 10  1  0
 10 11  2  0
 11 12  1  0
 12 13  1  0
 12 14  2  0
 14 15  1  0
 14 16  1  0
 16 17  2  0
 17 18  1  0
 18 19  1  0
 18 20  1  0
 18 21  1  0
 21 22  2  0
 22 23  1  0
 22 24  1  0
 24 25  1  0
 24 26  2  0
 26 27  1  0
 26 28  1  0
 28 29  1  0
 28 30  2  0
 30 31  1  0
 31 32  1  0
 32 33  1  0
 32 34  1  0
 32 35  1  0
 16 36  1  0
 36 37  1  0
  6 38  2  0
 38 39  1  0
 38 40  1  0
 40 41  1  0
 40 42  2  0
 42 43  1  0
 42  3  1  0
 37  7  1  0
 37 11  1  0
 30 21  1  0
M  CHG  2  36  -1  43  -1
M  END
>  <UniqueID>  (10) 
10

>  <SMILES>  (10) 
COc1ccccc1C/N=c1\ccc2ncc(-c3ccc([O-])c(O)c3)n2[n-]1

>  <Energy>  (10) 
89.32291456453876

>  <Genealogy>  (10) 
COc1ccccc1CN=c1ccc2ncc(-c3ccc([O-])c(O)c3)n2[n-]1 (protonated)
COc1ccccc1C/N=c1\ccc2ncc(-c3ccc([O-])c(O)c3)n2[n-]1 (cis-trans isomerization)
COc1ccccc1C/N=c1\ccc2ncc(-c3ccc([O-])c(O)c3)n2[n-]1 (3D coordinates assigned)
COc1ccccc1C/N=c1\ccc2ncc(-c3ccc([O-])c(O)c3)n2[n-]1 (optimized conformer: 89.32291456453876 kcal/mol)

>  <smiles>  (10) 
COc1ccccc1CN=c1ccc2ncc(-c3ccc(O)c(O)c3)n2[nH]1

>  <score_type>  (10) 
oracle

>  <origin>  (10) 
adg

>  <m_score__min__energy>  (10) 
-13.109999999999999

>  <m_primary>  (10) 
energy

$$$$
10:0
     RDKit          3D

 41 42  0  0  0  0  0  0  0  0999 V2000
   57.2600   23.4540   44.4320 C   0  0  0  0  0  0  0  0  0  0  0  0
   58.3050   23.3840   45.5390 C   0  0  0  0  0  0  0  0  0  0  0  0
   57.7150   23.6690   46.8060 O   0  0  0  0  0  0  0  0  0  0  0  0
   56.6500   24.5620   46.9820 C   0  0  0  0  0  0  0  0  0  0  0  0
   55.5800   24.1640   47.5200 O   0  0  0  0  0  0  0  0  0  0  0  0
   56.7930   25.9710   46.5370 C   0  0  0  0  0  0  0  0  0  0  0  0
   58.0430   26.6050   46.6280 C   0  0  0  0  0  0  0  0  0  0  0  0
   58.2000   27.9380   46.2370 C   0  0  0  0  0  0  0  0  0  0  0  0
   59.4970   28.5420   46.3410 N   0  0  0  0  0  0  0  0  0  0  0  0
   60.1730   28.8310   47.5680 C   0  0  0  0  0  0  0  0  0  0  0  0
   60.5700   27.8790   48.2890 O   0  0  0  0  0  0  0  0  0  0  0  0
   60.3440   30.1860   48.0000 N   0  0  0  0  0  0  0  0  0  0  0  0
   59.2540   31.0210   48.4900 C   0  0  0  0  0  0  0  0  0  0  0  0
   59.1220   32.2570   47.6380 C   0  0  0  0  0  0  0  0  0  0  0  0
   58.5880   32.1640   46.3420 C   0  0  0  0  0  0  0  0  0  0  0  0
   58.4300   33.3060   45.5470 C   0  0  0  0  0  0  0  0  0  0  0  0
   57.8940   33.1540   44.2590 O   0  0  0  0  0  0  0  0  0  0  0  0
   58.0650   31.9950   43.4500 C   0  0  0  0  0  0  0  0  0  0  0  0
   58.8090   34.5600   46.0620 C   0  0  0  0  0  0  0  0  0  0  0  0
   59.3330   34.6600   47.3530 C   0  0  0  0  0  0  0  0  0  0  0  0
   59.4890   33.5170   48.1430 C   0  0  0  0  0  0  0  0  0  0  0  0
   60.0070   33.6420   49.4270 O   0  0  0  0  0  0  0  0  0  0  0  0
   57.0960   28.6170   45.6910 C   0  0  0  0  0  0  0  0  0  0  0  0
   57.2130   29.7890   45.2480 O   0  0  0  0  0  0  0  0  0  0  0  0
   55.8940   27.9920   45.6080 N   0  0  0  0  0  0  0  0  0  0  0  0
   55.7080   26.7110   46.0170 C   0  0  0  0  0  0  0  0  0  0  0  0
   54.4410   26.1500   45.9060 O   0  0  0  0  0  0  0  0  0  0  0  0
   56.2569   23.5212   44.8784 H   0  0  0  0  0  0  0  0  0  0  0  0
   57.4444   24.3418   43.8093 H   0  0  0  0  0  0  0  0  0  0  0  0
   57.3244   22.5495   43.8093 H   0  0  0  0  0  0  0  0  0  0  0  0
   58.7400   22.3739   45.5619 H   0  0  0  0  0  0  0  0  0  0  0  0
   59.0867   24.1309   45.3361 H   0  0  0  0  0  0  0  0  0  0  0  0
   58.9091   26.0458   47.0116 H   0  0  0  0  0  0  0  0  0  0  0  0
   58.3140   30.4510   48.4515 H   0  0  0  0  0  0  0  0  0  0  0  0
   59.4692   31.3206   49.5263 H   0  0  0  0  0  0  0  0  0  0  0  0
   58.2902   31.1817   45.9466 H   0  0  0  0  0  0  0  0  0  0  0  0
   58.1951   31.1135   44.0950 H   0  0  0  0  0  0  0  0  0  0  0  0
   57.1775   31.8569   42.8150 H   0  0  0  0  0  0  0  0  0  0  0  0
   58.9546   32.1191   42.8150 H   0  0  0  0  0  0  0  0  0  0  0  0
   58.6922   35.4638   45.4460 H   0  0  0  0  0  0  0  0  0  0  0  0
   59.6245   35.6434   47.7503 H   0  0  0  0  0  0  0  0  0  0  0  0
  1  2  1  0
  2  3  1  0
  3  4  1  0
  4  5  2  0
  4  6  1  0
  6  7  1  0
  7  8  2  0
  8  9  1  0
  9 10  1  0
 10 11  2  0
 10 12  1  0
 12 13  1  0
 13 14  1  0
 14 15  2  0
 15 16  1  0
 16 17  1  0
 17 18  1  0
 16 19  2  0
 19 20  1  0
 20 21  2  0
 21 22  1  0
  8 23  1  0
 23 24  2  0
 23 25  1  0
 25 26  1  0
 26 27  1  0
 26  6  2  0
 21 14  1  0
  1 28  1  0
  1 29  1  0
  1 30  1  0
  2 31  1  0
  2 32  1  0
  7 33  1  0
 13 34  1  0
 13 35  1  0
 15 36  1  0
 18 37  1  0
 18 38  1  0
 18 39  1  0
 19 40  1  0
 20 41  1  0
M  CHG  5   9  -1  12  -1  22  -1  25  -1  27  -1
M  END
>  <UniqueID>  (11) 
11

>  <SMILES>  (11) 
CCOC(=O)c1cc([N-]C(=O)[N-]Cc2cc(OC)ccc2[O-])c(=O)[n-]c1[O-]

>  <Energy>  (11) 
42.92627226758203

>  <Genealogy>  (11) 
CCOC(=O)c1cc([N-]C(=O)[N-]Cc2cc(OC)ccc2[O-])c(=O)[n-]c1[O-] (protonated)
CCOC(=O)c1cc([N-]C(=O)[N-]Cc2cc(OC)ccc2[O-])c(=O)[n-]c1[O-] (3D coordinates assigned)
CCOC(=O)c1cc([N-]C(=O)[N-]Cc2cc(OC)ccc2[O-])c(=O)[n-]c1[O-] (optimized conformer: 42.92627226758203 kcal/mol)

>  <smiles>  (11) 
CCOC(=O)c1cc(NC(=O)NCc2cc(OC)ccc2O)c(=O)[nH]c1O

>  <score_type>  (11) 
oracle

>  <origin>  (11) 
adg

>  <m_score__min__energy>  (11) 
-15.050000000000001

>  <m_primary>  (11) 
energy

$$$$
11:0
     RDKit          3D

 31 33  0  0  0  0  0  0  0  0999 V2000
   57.7080   31.9650   41.4860 O   0  0  0  0  0  0  0  0  0  0  0  0
   57.3980   31.5560   42.6370 C   0  0  0  0  0  0  0  0  0  0  0  0
   56.6940   30.4020   42.7660 N   0  0  0  0  0  0  0  0  0  0  0  0
   56.3390   29.9240   43.9870 C   0  0  0  0  0  0  0  0  0  0  0  0
   56.6860   30.6000   45.1120 N   0  0  0  0  0  0  0  0  0  0  0  0
   57.3890   31.7610   45.0410 C   0  0  0  0  0  0  0  0  0  0  0  0
   57.7350   32.4420   46.2140 C   0  0  0  0  0  0  0  0  0  0  0  0
   58.4540   33.6500   46.1490 C   0  0  0  0  0  0  0  0  0  0  0  0
   58.8130   34.3790   47.3360 N   0  0  0  0  0  0  0  0  0  0  0  0
   59.7520   33.7020   48.6290 S   0  0  0  0  0  0  0  0  0  0  0  0
   59.6340   34.5890   49.8370 O   0  0  0  0  0  0  0  0  0  0  0  0
   59.2140   32.3430   48.9770 O   0  0  0  0  0  0  0  0  0  0  0  0
   61.4410   33.5320   48.1310 C   0  0  0  0  0  0  0  0  0  0  0  0
   61.8040   33.8290   46.8080 C   0  0  0  0  0  0  0  0  0  0  0  0
   63.1280   33.6800   46.3870 C   0  0  0  0  0  0  0  0  0  0  0  0
   64.1020   33.2370   47.2840 C   0  0  0  0  0  0  0  0  0  0  0  0
   63.7530   32.9430   48.6040 C   0  0  0  0  0  0  0  0  0  0  0  0
   62.4280   33.0880   49.0360 C   0  0  0  0  0  0  0  0  0  0  0  0
   62.0520   32.7050   50.7120 Cl  0  0  0  0  0  0  0  0  0  0  0  0
   58.8410   34.1500   44.8970 C   0  0  0  0  0  0  0  0  0  0  0  0
   58.5010   33.4740   43.7220 C   0  0  0  0  0  0  0  0  0  0  0  0
   57.7700   32.2770   43.7850 C   0  0  0  0  0  0  0  0  0  0  0  0
   55.7688   28.9865   44.0644 H   0  0  0  0  0  0  0  0  0  0  0  0
   57.4434   32.0308   47.1917 H   0  0  0  0  0  0  0  0  0  0  0  0
   58.3820   35.3150   47.5060 H   0  0  0  0  0  0  0  0  0  0  0  0
   61.0412   34.1813   46.0980 H   0  0  0  0  0  0  0  0  0  0  0  0
   63.4033   33.9120   45.3476 H   0  0  0  0  0  0  0  0  0  0  0  0
   65.1438   33.1196   46.9512 H   0  0  0  0  0  0  0  0  0  0  0  0
   64.5229   32.5956   49.3087 H   0  0  0  0  0  0  0  0  0  0  0  0
   59.4185   35.0845   44.8393 H   0  0  0  0  0  0  0  0  0  0  0  0
   58.8065   33.8803   42.7465 H   0  0  0  0  0  0  0  0  0  0  0  0
  1  2  2  0
  2  3  1  0
  3  4  1  0
  4  5  2  0
  5  6  1  0
  6  7  2  0
  7  8  1  0
  8  9  1  0
  9 10  1  0
 10 11  2  0
 10 12  2  0
 10 13  1  0
 13 14  2  0
 14 15  1  0
 15 16  2  0
 16 17  1  0
 17 18  2  0
 18 19  1  0
  8 20  2  0
 20 21  1  0
 21 22  2  0
 22  2  1  0
 22  6  1  0
 18 13  1  0
  4 23  1  0
  7 24  1  0
  9 25  1  0
 14 26  1  0
 15 27  1  0
 16 28  1  0
 17 29  1  0
 20 30  1  0
 21 31  1  0
M  CHG  1   3  -1
M  END
>  <UniqueID>  (12) 
12

>  <SMILES>  (12) 
O=c1[n-]cnc2cc(NS(=O)(=O)c3ccccc3Cl)ccc12

>  <Energy>  (12) 
42.77759960329074

>  <Genealogy>  (12) 
O=c1[n-]cnc2cc(NS(=O)(=O)c3ccccc3Cl)ccc12 (protonated)
O=c1[n-]cnc2cc(NS(=O)(=O)c3ccccc3Cl)ccc12 (3D coordinates assigned)
O=c1[n-]cnc2cc(NS(=O)(=O)c3ccccc3Cl)ccc12 (optimized conformer: 42.77759960329074 kcal/mol)

>  <smiles>  (12) 
O=c1[nH]cnc2cc(NS(=O)(=O)c3ccccc3Cl)ccc12

>  <score_type>  (12) 
oracle

>  <origin>  (12) 
adg

>  <m_score__min__energy>  (12) 
-10.109999999999999

>  <m_primary>  (12) 
energy

$$$$
12:0
     RDKit          3D

 35 36  0  0  0  0  0  0  0  0999 V2000
   58.7199   34.5805   48.7838 H   0  0  0  0  0  0  0  0  0  0  0  0
   59.0250   33.6930   48.2100 C   0  0  0  0  0  0  0  0  0  0  0  0
   59.9130   33.8240   47.1380 C   0  0  0  0  0  0  0  0  0  0  0  0
   60.3109   34.8145   46.8725 H   0  0  0  0  0  0  0  0  0  0  0  0
   60.2960   32.6980   46.4030 C   0  0  0  0  0  0  0  0  0  0  0  0
   61.0008   32.8023   45.5649 H   0  0  0  0  0  0  0  0  0  0  0  0
   59.7830   31.4380   46.7330 C   0  0  0  0  0  0  0  0  0  0  0  0
   60.2820   29.9920   45.7960 S   0  0  0  0  0  0  0  0  0  0  0  0
   58.5960   29.4010   45.5720 C   0  0  0  0  0  0  0  0  0  0  0  0
   58.2940   28.1740   46.0660 N   0  0  0  0  0  0  0  0  0  0  0  0
   57.0670   27.6180   45.9210 C   0  0  0  0  0  0  0  0  0  0  0  0
   56.8560   26.4400   46.4340 N   0  0  0  0  0  0  0  0  0  0  0  0
   55.6710   25.2760   45.9280 S   0  0  0  0  0  0  0  0  0  0  0  0
   54.3640   25.9590   45.6360 O   0  0  0  0  0  0  0  0  0  0  0  0
   55.4590   24.2930   47.0450 O   0  0  0  0  0  0  0  0  0  0  0  0
   56.2470   24.3890   44.4950 C   0  0  0  0  0  0  0  0  0  0  0  0
   56.8200   23.5066   44.8158 H   0  0  0  0  0  0  0  0  0  0  0  0
   55.3851   24.0672   43.8921 H   0  0  0  0  0  0  0  0  0  0  0  0
   56.8916   25.0455   43.8921 H   0  0  0  0  0  0  0  0  0  0  0  0
   56.0980   28.3010   45.2420 N   0  0  0  0  0  0  0  0  0  0  0  0
   55.1450   27.9010   45.1070 H   0  0  0  0  0  0  0  0  0  0  0  0
   56.3480   29.5290   44.7130 C   0  0  0  0  0  0  0  0  0  0  0  0
   55.4340   30.1240   44.0770 O   0  0  0  0  0  0  0  0  0  0  0  0
   57.6130   30.1300   44.8690 C   0  0  0  0  0  0  0  0  0  0  0  0
   57.8740   31.5110   44.2980 C   0  0  0  0  0  0  0  0  0  0  0  0
   57.5614   31.5277   43.2435 H   0  0  0  0  0  0  0  0  0  0  0  0
   58.9488   31.7267   44.3888 H   0  0  0  0  0  0  0  0  0  0  0  0
   57.1010   32.5830   45.0630 C   0  0  0  0  0  0  0  0  0  0  0  0
   57.2193   32.4190   46.1443 H   0  0  0  0  0  0  0  0  0  0  0  0
   57.4920   33.5764   44.7979 H   0  0  0  0  0  0  0  0  0  0  0  0
   56.0350   32.5258   44.7979 H   0  0  0  0  0  0  0  0  0  0  0  0
   58.9070   31.3040   47.8190 C   0  0  0  0  0  0  0  0  0  0  0  0
   58.5201   30.3118   48.0946 H   0  0  0  0  0  0  0  0  0  0  0  0
   58.5250   32.4320   48.5520 C   0  0  0  0  0  0  0  0  0  0  0  0
   57.8305   32.3276   49.3986 H   0  0  0  0  0  0  0  0  0  0  0  0
  1  2  1  0
  2  3  2  0
  3  4  1  0
  3  5  1  0
  5  6  1  0
  5  7  2  0
  7  8  1  0
  8  9  1  0
  9 10  1  0
 10 11  1  0
 11 12  2  0
 12 13  1  0
 13 14  2  0
 13 15  2  0
 13 16  1  0
 16 17  1  0
 16 18  1  0
 16 19  1  0
 11 20  1  0
 20 21  1  0
 20 22  1  0
 22 23  2  0
 22 24  1  0
 24 25  1  0
 25 26  1  0
 25 27  1  0
 25 28  1  0
 28 29  1  0
 28 30  1  0
 28 31  1  0
  7 32  1  0
 32 33  1  0
 32 34  2  0
 34 35  1  0
 34  2  1  0
 24  9  2  0
M  CHG  1  10  -1
M  END
>  <UniqueID>  (13) 
13

>  <SMILES>  (13) 
CCc1c(Sc2ccccc2)[n-]/c(=N/S(C)(=O)=O)[nH]c1=O

>  <Energy>  (13) 
32.54430929858523

>  <Genealogy>  (13) 
CCc1c(Sc2ccccc2)[n-]c(=NS(C)(=O)=O)[nH]c1=O (protonated)
CCc1c(Sc2ccccc2)[n-]/c(=N/S(C)(=O)=O)[nH]c1=O (cis-trans isomerization)
CCc1c(Sc2ccccc2)[n-]/c(=N/S(C)(=O)=O)[nH]c1=O (3D coordinates assigned)
CCc1c(Sc2ccccc2)[n-]/c(=N/S(C)(=O)=O)[nH]c1=O (optimized conformer: 32.54430929858523 kcal/mol)

>  <smiles>  (13) 
CCc1c(Sc2ccccc2)[nH]c(=NS(C)(=O)=O)[nH]c1=O

>  <score_type>  (13) 
oracle

>  <origin>  (13) 
adg

>  <m_score__min__energy>  (13) 
-9.8300000000000001

>  <m_primary>  (13) 
energy

$$$$
13:0
     RDKit          3D

 46 48  0  0  0  0  0  0  0  0999 V2000
   65.2670   32.4970   49.8060 C   0  0  0  0  0  0  0  0  0  0  0  0
   64.1750   31.9340   49.0850 O   0  0  0  0  0  0  0  0  0  0  0  0
   63.1960   32.6840   48.4190 C   0  0  0  0  0  0  0  0  0  0  0  0
   63.3350   33.0880   47.0770 C   0  0  0  0  0  0  0  0  0  0  0  0
   62.3270   33.8300   46.4540 C   0  0  0  0  0  0  0  0  0  0  0  0
   61.1640   34.1750   47.1600 C   0  0  0  0  0  0  0  0  0  0  0  0
   60.0640   34.9550   46.4880 C   0  0  0  0  0  0  0  0  0  0  0  0
   58.7520   34.3730   46.7760 N   0  0  0  0  0  0  0  0  0  0  0  0
   57.9870   33.7770   45.3300 S   0  0  0  0  0  0  0  0  0  0  0  0
   58.8090   34.1830   44.1400 O   0  0  0  0  0  0  0  0  0  0  0  0
   56.6200   34.3850   45.1900 O   0  0  0  0  0  0  0  0  0  0  0  0
   57.8720   32.0180   45.3610 C   0  0  0  0  0  0  0  0  0  0  0  0
   57.0210   31.3400   44.4790 C   0  0  0  0  0  0  0  0  0  0  0  0
   56.9260   29.9460   44.5240 C   0  0  0  0  0  0  0  0  0  0  0  0
   57.6850   29.2070   45.4490 C   0  0  0  0  0  0  0  0  0  0  0  0
   57.5950   27.7290   45.4880 C   0  0  0  0  0  0  0  0  0  0  0  0
   58.3900   27.0330   44.7990 O   0  0  0  0  0  0  0  0  0  0  0  0
   56.5360   27.0910   46.2180 N   0  0  0  0  0  0  0  0  0  0  0  0
   55.9580   25.9400   46.0050 C   0  0  0  0  0  0  0  0  0  0  0  0
   54.6030   25.9330   45.8720 N   0  0  0  0  0  0  0  0  0  0  0  0
   53.8940   24.7990   45.6290 C   0  0  0  0  0  0  0  0  0  0  0  0
   54.5520   23.5790   45.5080 C   0  0  0  0  0  0  0  0  0  0  0  0
   55.9360   23.5330   45.6660 C   0  0  0  0  0  0  0  0  0  0  0  0
   56.6570   24.7040   45.9390 C   0  0  0  0  0  0  0  0  0  0  0  0
   58.0250   24.6120   46.1890 O   0  0  0  0  0  0  0  0  0  0  0  0
   58.5380   29.8960   46.3310 C   0  0  0  0  0  0  0  0  0  0  0  0
   58.6260   31.2910   46.2890 C   0  0  0  0  0  0  0  0  0  0  0  0
   61.0280   33.7800   48.4990 C   0  0  0  0  0  0  0  0  0  0  0  0
   62.0370   33.0400   49.1210 C   0  0  0  0  0  0  0  0  0  0  0  0
   65.0815   32.4014   50.8860 H   0  0  0  0  0  0  0  0  0  0  0  0
   66.1929   31.9639   49.5444 H   0  0  0  0  0  0  0  0  0  0  0  0
   65.3698   33.5605   49.5444 H   0  0  0  0  0  0  0  0  0  0  0  0
   64.2418   32.8182   46.5158 H   0  0  0  0  0  0  0  0  0  0  0  0
   62.4458   34.1446   45.4067 H   0  0  0  0  0  0  0  0  0  0  0  0
   60.0846   35.9924   46.8533 H   0  0  0  0  0  0  0  0  0  0  0  0
   60.2284   34.9240   45.4008 H   0  0  0  0  0  0  0  0  0  0  0  0
   56.4252   31.9065   43.7482 H   0  0  0  0  0  0  0  0  0  0  0  0
   56.2518   29.4227   43.8300 H   0  0  0  0  0  0  0  0  0  0  0  0
   52.7997   24.8458   45.5280 H   0  0  0  0  0  0  0  0  0  0  0  0
   53.9863   22.6611   45.2901 H   0  0  0  0  0  0  0  0  0  0  0  0
   56.4654   22.5730   45.5760 H   0  0  0  0  0  0  0  0  0  0  0  0
   58.6270   25.4270   46.1700 H   0  0  0  0  0  0  0  0  0  0  0  0
   59.1402   29.3329   47.0592 H   0  0  0  0  0  0  0  0  0  0  0  0
   59.2908   31.8191   46.9884 H   0  0  0  0  0  0  0  0  0  0  0  0
   60.1234   34.0539   49.0617 H   0  0  0  0  0  0  0  0  0  0  0  0
   61.9203   32.7343   50.1712 H   0  0  0  0  0  0  0  0  0  0  0  0
  1  2  1  0
  2  3  1  0
  3  4  2  0
  4  5  1  0
  5  6  2  0
  6  7  1  0
  7  8  1  0
  8  9  1  0
  9 10  2  0
  9 11  2  0
  9 12  1  0
 12 13  2  0
 13 14  1  0
 14 15  2  0
 15 16  1  0
 16 17  2  0
 16 18  1  0
 18 19  2  3
 19 20  1  0
 20 21  1  0
 21 22  2  0
 22 23  1  0
 23 24  2  0
 24 25  1  0
 15 26  1  0
 26 27  2  0
  6 28  1  0
 28 29  2  0
 29  3  1  0
 27 12  1  0
 24 19  1  0
  1 30  1  0
  1 31  1  0
  1 32  1  0
  4 33  1  0
  5 34  1  0
  7 35  1  0
  7 36  1  0
 13 37  1  0
 14 38  1  0
 21 39  1  0
 22 40  1  0
 23 41  1  0
 25 42  1  0
 26 43  1  0
 27 44  1  0
 28 45  1  0
 29 46  1  0
M  CHG  2   8  -1  20  -1
M  END
>  <UniqueID>  (14) 
14

>  <SMILES>  (14) 
COc1ccc(C[N-]S(=O)(=O)c2ccc(C(=O)N=c3[n-]cccc3O)cc2)cc1

>  <Energy>  (14) 
59.6100953187768

>  <Genealogy>  (14) 
COc1ccc(C[N-]S(=O)(=O)c2ccc(C(=O)N=c3[n-]cccc3O)cc2)cc1 (protonated)
COc1ccc(C[N-]S(=O)(=O)c2ccc(C(=O)N=c3[n-]cccc3O)cc2)cc1 (3D coordinates assigned)
COc1ccc(C[N-]S(=O)(=O)c2ccc(C(=O)N=c3[n-]cccc3O)cc2)cc1 (optimized conformer: 59.6100953187768 kcal/mol)

>  <smiles>  (14) 
COc1ccc(CNS(=O)(=O)c2ccc(C(=O)N=c3[nH]cccc3O)cc2)cc1

>  <score_type>  (14) 
oracle

>  <origin>  (14) 
adg

>  <m_score__min__energy>  (14) 
-11.91

>  <m_primary>  (14) 
energy

$$$$
14:0
     RDKit          3D

 43 45  0  0  0  0  0  0  0  0999 V2000
   62.4620   31.9740   47.4740 C   0  0  0  0  0  0  0  0  0  0  0  0
   62.6790   33.7280   47.2850 S   0  0  0  0  0  0  0  0  0  0  0  0
   63.4740   34.2540   48.4470 O   0  0  0  0  0  0  0  0  0  0  0  0
   63.4100   33.9960   46.0000 O   0  0  0  0  0  0  0  0  0  0  0  0
   61.1210   34.4870   47.2460 N   0  0  0  0  0  0  0  0  0  0  0  0
   59.9940   34.0250   46.4880 C   0  0  0  0  0  0  0  0  0  0  0  0
   59.3420   34.9290   45.6430 C   0  0  0  0  0  0  0  0  0  0  0  0
   58.2470   34.5200   44.8810 C   0  0  0  0  0  0  0  0  0  0  0  0
   57.7880   33.2040   44.9590 C   0  0  0  0  0  0  0  0  0  0  0  0
   58.4200   32.2800   45.8090 C   0  0  0  0  0  0  0  0  0  0  0  0
   57.9320   30.8810   45.8840 C   0  0  0  0  0  0  0  0  0  0  0  0
   57.0230   30.4980   45.0980 O   0  0  0  0  0  0  0  0  0  0  0  0
   58.4450   29.9740   46.8740 N   0  0  0  0  0  0  0  0  0  0  0  0
   58.3660   28.5420   46.7640 C   0  0  0  0  0  0  0  0  0  0  0  0
   59.2830   27.7450   47.4670 C   0  0  0  0  0  0  0  0  0  0  0  0
   59.2410   26.3520   47.3590 C   0  0  0  0  0  0  0  0  0  0  0  0
   58.2990   25.7350   46.5180 C   0  0  0  0  0  0  0  0  0  0  0  0
   58.2140   24.3080   46.4040 N   0  0  0  0  0  0  0  0  0  0  0  0
   57.0470   23.5100   46.6380 C   0  0  0  0  0  0  0  0  0  0  0  0
   57.0940   22.6070   47.5150 O   0  0  0  0  0  0  0  0  0  0  0  0
   55.7780   23.7700   45.9340 C   0  0  0  0  0  0  0  0  0  0  0  0
   55.3770   23.1830   44.7490 C   0  0  0  0  0  0  0  0  0  0  0  0
   54.1330   23.7100   44.4760 C   0  0  0  0  0  0  0  0  0  0  0  0
   53.8500   24.5800   45.5100 C   0  0  0  0  0  0  0  0  0  0  0  0
   54.8480   24.5920   46.3630 O   0  0  0  0  0  0  0  0  0  0  0  0
   57.3800   26.5270   45.8200 C   0  0  0  0  0  0  0  0  0  0  0  0
   57.4200   27.9200   45.9290 C   0  0  0  0  0  0  0  0  0  0  0  0
   59.5320   32.6970   46.5660 C   0  0  0  0  0  0  0  0  0  0  0  0
   62.4308   31.7216   48.5442 H   0  0  0  0  0  0  0  0  0  0  0  0
   61.5191   31.6677   46.9974 H   0  0  0  0  0  0  0  0  0  0  0  0
   63.3018   31.4472   46.9974 H   0  0  0  0  0  0  0  0  0  0  0  0
   59.6947   35.9689   45.5788 H   0  0  0  0  0  0  0  0  0  0  0  0
   57.7435   35.2374   44.2162 H   0  0  0  0  0  0  0  0  0  0  0  0
   56.9268   32.8883   44.3518 H   0  0  0  0  0  0  0  0  0  0  0  0
   58.7990   30.3750   47.7710 H   0  0  0  0  0  0  0  0  0  0  0  0
   60.0404   28.2202   48.1077 H   0  0  0  0  0  0  0  0  0  0  0  0
   59.9479   25.7363   47.9345 H   0  0  0  0  0  0  0  0  0  0  0  0
   55.9342   22.4486   44.1489 H   0  0  0  0  0  0  0  0  0  0  0  0
   53.4946   23.4832   43.6094 H   0  0  0  0  0  0  0  0  0  0  0  0
   52.9284   25.1730   45.6048 H   0  0  0  0  0  0  0  0  0  0  0  0
   56.6215   26.0503   45.1817 H   0  0  0  0  0  0  0  0  0  0  0  0
   56.7074   28.5336   45.3584 H   0  0  0  0  0  0  0  0  0  0  0  0
   60.0440   31.9793   47.2238 H   0  0  0  0  0  0  0  0  0  0  0  0
  1  2  1  0
  2  3  2  0
  2  4  2  0
  2  5  1  0
  5  6  1  0
  6  7  2  0
  7  8  1  0
  8  9  2  0
  9 10  1  0
 10 11  1  0
 11 12  2  0
 11 13  1  0
 13 14  1  0
 14 15  2  0
 15 16  1  0
 16 17  2  0
 17 18  1  0
 18 19  1  0
 19 20  2  0
 19 21  1  0
 21 22  2  0
 22 23  1  0
 23 24  2  0
 24 25  1  0
 17 26  1  0
 26 27  2  0
 10 28  2  0
 28  6  1  0
 27 14  1  0
 25 21  1  0
  1 29  1  0
  1 30  1  0
  1 31  1  0
  7 32  1  0
  8 33  1  0
  9 34  1  0
 13 35  1  0
 15 36  1  0
 16 37  1  0
 22 38  1  0
 23 39  1  0
 24 40  1  0
 26 41  1  0
 27 42  1  0
 28 43  1  0
M  CHG  2   5  -1  18  -1
M  END
>  <UniqueID>  (15) 
15

>  <SMILES>  (15) 
CS(=O)(=O)[N-]c1cccc(C(=O)Nc2ccc([N-]C(=O)c3ccco3)cc2)c1

>  <Energy>  (15) 
80.04459863692784

>  <Genealogy>  (15) 
CS(=O)(=O)[N-]c1cccc(C(=O)Nc2ccc([N-]C(=O)c3ccco3)cc2)c1 (protonated)
CS(=O)(=O)[N-]c1cccc(C(=O)Nc2ccc([N-]C(=O)c3ccco3)cc2)c1 (3D coordinates assigned)
CS(=O)(=O)[N-]c1cccc(C(=O)Nc2ccc([N-]C(=O)c3ccco3)cc2)c1 (optimized conformer: 80.04459863692784 kcal/mol)

>  <smiles>  (15) 
CS(=O)(=O)Nc1cccc(C(=O)Nc2ccc(NC(=O)c3ccco3)cc2)c1

>  <score_type>  (15) 
oracle

>  <origin>  (15) 
adg

>  <m_score__min__energy>  (15) 
-10.550000000000001

>  <m_primary>  (15) 
energy

$$$$
15:0
     RDKit          3D

 37 39  0  0  0  0  0  0  0  0999 V2000
   59.3510   34.4510   45.9420 C   0  0  0  0  0  0  0  0  0  0  0  0
   58.7030   33.2040   45.4200 C   0  0  0  0  0  0  0  0  0  0  0  0
   58.3040   33.1230   44.0760 C   0  0  0  0  0  0  0  0  0  0  0  0
   57.6660   31.9750   43.5980 C   0  0  0  0  0  0  0  0  0  0  0  0
   57.4120   30.8990   44.4600 C   0  0  0  0  0  0  0  0  0  0  0  0
   56.5940   29.4520   43.8790 S   0  0  0  0  0  0  0  0  0  0  0  0
   55.5840   28.9680   44.8810 O   0  0  0  0  0  0  0  0  0  0  0  0
   55.8880   29.7750   42.5930 O   0  0  0  0  0  0  0  0  0  0  0  0
   57.7560   28.2010   43.5960 N   0  0  0  0  0  0  0  0  0  0  0  0
   58.9250   28.0430   44.4040 C   0  0  0  0  0  0  0  0  0  0  0  0
   59.7510   28.9870   44.5240 O   0  0  0  0  0  0  0  0  0  0  0  0
   59.1380   26.7670   45.1530 C   0  0  0  0  0  0  0  0  0  0  0  0
   57.8490   26.2100   45.5620 N   0  0  0  0  0  0  0  0  0  0  0  0
   57.0720   26.5860   46.6100 C   0  0  0  0  0  0  0  0  0  0  0  0
   57.4060   27.4660   47.4460 O   0  0  0  0  0  0  0  0  0  0  0  0
   55.9200   25.9390   46.6580 O   0  0  0  0  0  0  0  0  0  0  0  0
   55.9250   25.1320   45.6230 C   0  0  0  0  0  0  0  0  0  0  0  0
   54.9390   24.2400   45.2110 C   0  0  0  0  0  0  0  0  0  0  0  0
   55.1810   23.4950   44.0420 C   0  0  0  0  0  0  0  0  0  0  0  0
   56.3890   23.6600   43.3230 C   0  0  0  0  0  0  0  0  0  0  0  0
   57.3660   24.5690   43.7680 C   0  0  0  0  0  0  0  0  0  0  0  0
   57.0960   25.2880   44.9330 C   0  0  0  0  0  0  0  0  0  0  0  0
   57.7930   30.9850   45.8060 C   0  0  0  0  0  0  0  0  0  0  0  0
   58.4290   32.1350   46.2850 C   0  0  0  0  0  0  0  0  0  0  0  0
   59.3430   34.4356   47.0419 H   0  0  0  0  0  0  0  0  0  0  0  0
   60.3897   34.5021   45.5836 H   0  0  0  0  0  0  0  0  0  0  0  0
   58.7958   35.3304   45.5836 H   0  0  0  0  0  0  0  0  0  0  0  0
   58.4944   33.9668   43.3965 H   0  0  0  0  0  0  0  0  0  0  0  0
   57.3623   31.9156   42.5424 H   0  0  0  0  0  0  0  0  0  0  0  0
   59.6581   26.0460   44.5051 H   0  0  0  0  0  0  0  0  0  0  0  0
   59.7461   26.9686   46.0472 H   0  0  0  0  0  0  0  0  0  0  0  0
   54.0043   24.1217   45.7788 H   0  0  0  0  0  0  0  0  0  0  0  0
   54.4260   22.7793   43.6844 H   0  0  0  0  0  0  0  0  0  0  0  0
   56.5651   23.0731   42.4095 H   0  0  0  0  0  0  0  0  0  0  0  0
   58.3083   24.7079   43.2178 H   0  0  0  0  0  0  0  0  0  0  0  0
   57.5913   30.1456   46.4877 H   0  0  0  0  0  0  0  0  0  0  0  0
   58.7155   32.2011   47.3450 H   0  0  0  0  0  0  0  0  0  0  0  0
  1  2  1  0
  2  3  2  0
  3  4  1  0
  4  5  2  0
  5  6  1  0
  6  7  2  0
  6  8  2  0
  6  9  1  0
  9 10  1  0
 10 11  2  0
 10 12  1  0
 12 13  1  0
 13 14  1  0
 14 15  2  0
 14 16  1  0
 16 17  1  0
 17 18  2  0
 18 19  1  0
 19 20  2  0
 20 21  1  0
 21 22  2  0
  5 23  1  0
 23 24  2  0
 24  2  1  0
 22 13  1  0
 22 17  1  0
  1 25  1  0
  1 26  1  0
  1 27  1  0
  3 28  1  0
  4 29  1  0
 12 30  1  0
 12 31  1  0
 18 32  1  0
 19 33  1  0
 20 34  1  0
 21 35  1  0
 23 36  1  0
 24 37  1  0
M  CHG  1   9  -1
M  END
>  <UniqueID>  (16) 
16

>  <SMILES>  (16) 
Cc1ccc(S(=O)(=O)[N-]C(=O)Cn2c(=O)oc3ccccc32)cc1

>  <Energy>  (16) 
79.98741190755462

>  <Genealogy>  (16) 
Cc1ccc(S(=O)(=O)[N-]C(=O)Cn2c(=O)oc3ccccc32)cc1 (protonated)
Cc1ccc(S(=O)(=O)[N-]C(=O)Cn2c(=O)oc3ccccc32)cc1 (3D coordinates assigned)
Cc1ccc(S(=O)(=O)[N-]C(=O)Cn2c(=O)oc3ccccc32)cc1 (optimized conformer: 79.98741190755462 kcal/mol)

>  <smiles>  (16) 
Cc1ccc(S(=O)(=O)NC(=O)Cn2c(=O)oc3ccccc32)cc1

>  <score_type>  (16) 
oracle

>  <origin>  (16) 
adg

>  <m_score__min__energy>  (16) 
-10.01

>  <m_primary>  (16) 
energy

$$$$
16:0
     RDKit          3D

 50 52  0  0  1  0  0  0  0  0999 V2000
   57.3410   33.3420   46.1270 C   0  0  0  0  0  0  0  0  0  0  0  0
   58.3690   32.9170   45.1720 N   0  0  0  0  0  0  0  0  0  0  0  0
   59.4690   33.8220   45.2750 C   0  0  0  0  0  0  0  0  0  0  0  0
   57.7440   32.8890   43.8940 C   0  0  0  0  0  0  0  0  0  0  0  0
   57.9460   31.6490   43.0750 C   0  0  0  0  0  0  0  0  0  0  0  0
   56.6990   30.8090   43.1560 C   0  0  0  0  0  0  0  0  0  0  0  0
   59.8500   29.5850   47.3300 N   0  0  0  0  0  0  0  0  0  0  0  0
   58.9740   29.1020   46.5560 C   0  0  0  0  0  0  0  0  0  0  0  0
   57.0340   28.2590   44.8980 N   0  0  0  0  0  0  0  0  0  0  0  0
   57.8410   27.3480   45.4950 C   0  0  0  0  0  0  0  0  0  0  0  0
   58.8410   27.7510   46.3470 C   0  0  0  0  0  0  0  0  0  0  0  0
   57.1630   29.5910   45.1010 C   0  0  0  0  0  0  0  0  0  0  0  0
   56.3640   30.4410   44.5130 N   0  0  0  0  0  0  0  0  0  0  0  0
   59.6070   30.2830   48.5610 C   0  0  0  0  0  0  0  0  0  0  0  0
   60.0430   31.6770   48.4720 C   0  0  0  0  0  0  0  0  0  0  0  0
   59.1480   32.6580   48.8720 C   0  0  0  0  0  0  0  0  0  0  0  0
   59.4570   34.0100   48.7970 C   0  0  0  0  0  0  0  0  0  0  0  0
   60.6850   34.4330   48.3130 C   0  0  0  0  0  0  0  0  0  0  0  0
   61.5670   33.4600   47.9180 C   0  0  0  0  0  0  0  0  0  0  0  0
   62.7980   33.8370   47.4590 C   0  0  0  0  0  0  0  0  0  0  0  0
   63.7680   32.9380   47.0620 C   0  0  0  0  0  0  0  0  0  0  0  0
   63.4430   31.5900   47.1420 C   0  0  0  0  0  0  0  0  0  0  0  0
   62.1870   31.1830   47.6090 C   0  0  0  0  0  0  0  0  0  0  0  0
   61.2520   32.1140   47.9950 C   0  0  0  0  0  0  0  0  0  0  0  0
   58.1410   29.9740   45.9340 N   0  0  0  0  0  0  0  0  0  0  0  0
   57.7082   33.1902   47.1527 H   0  0  0  0  0  0  0  0  0  0  0  0
   57.1149   34.4074   45.9724 H   0  0  0  0  0  0  0  0  0  0  0  0
   56.4286   32.7473   45.9724 H   0  0  0  0  0  0  0  0  0  0  0  0
   59.6937   34.0068   46.3358 H   0  0  0  0  0  0  0  0  0  0  0  0
   60.3509   33.3845   44.7843 H   0  0  0  0  0  0  0  0  0  0  0  0
   59.2097   34.7717   44.7843 H   0  0  0  0  0  0  0  0  0  0  0  0
   56.6622   33.0143   44.0487 H   0  0  0  0  0  0  0  0  0  0  0  0
   58.2212   33.6968   43.3199 H   0  0  0  0  0  0  0  0  0  0  0  0
   58.1395   31.9244   42.0278 H   0  0  0  0  0  0  0  0  0  0  0  0
   58.8061   31.0814   43.4598 H   0  0  0  0  0  0  0  0  0  0  0  0
   55.8614   31.3798   42.7287 H   0  0  0  0  0  0  0  0  0  0  0  0
   56.8853   29.8811   42.5955 H   0  0  0  0  0  0  0  0  0  0  0  0
   56.2730   27.9290   44.2460 H   0  0  0  0  0  0  0  0  0  0  0  0
   57.6940   26.2763   45.2956 H   0  0  0  0  0  0  0  0  0  0  0  0
   59.5047   27.0248   46.8392 H   0  0  0  0  0  0  0  0  0  0  0  0
   58.5297   30.2571   48.7819 H   0  0  0  0  0  0  0  0  0  0  0  0
   60.1781   29.7891   49.3609 H   0  0  0  0  0  0  0  0  0  0  0  0
   58.1640   32.3563   49.2603 H   0  0  0  0  0  0  0  0  0  0  0  0
   58.7175   34.7549   49.1260 H   0  0  0  0  0  0  0  0  0  0  0  0
   60.9406   35.5010   48.2486 H   0  0  0  0  0  0  0  0  0  0  0  0
   63.0277   34.9113   47.4030 H   0  0  0  0  0  0  0  0  0  0  0  0
   64.7510   33.2734   46.6997 H   0  0  0  0  0  0  0  0  0  0  0  0
   64.1804   30.8336   46.8351 H   0  0  0  0  0  0  0  0  0  0  0  0
   61.9470   30.1111   47.6674 H   0  0  0  0  0  0  0  0  0  0  0  0
   58.2790   30.9680   46.1180 H   0  0  0  0  0  0  0  0  0  0  0  0
  1  2  1  0
  2  3  1  0
  2  4  1  0
  4  5  1  0
  5  6  1  0
  6  7  1  0
  7  8  2  0
  8  9  1  0
  9 10  1  0
 10 11  2  0
 11 12  1  0
 12 13  2  0
 13 14  1  0
 14 15  1  0
 15 16  2  0
 16 17  1  0
 17 18  2  0
 18 19  1  0
 19 20  2  0
 20 21  1  0
 21 22  2  0
 22 23  1  0
 23 24  2  0
 12 25  1  0
 25  8  1  0
 24 15  1  0
 24 19  1  0
  1 26  1  0
  1 27  1  0
  1 28  1  0
  3 29  1  0
  3 30  1  0
  3 31  1  0
  4 32  1  0
  4 33  1  0
  5 34  1  0
  5 35  1  0
  6 36  1  0
  6 37  1  0
  9 38  1  0
 10 39  1  0
 11 40  1  0
 14 41  1  0
 14 42  1  0
 16 43  1  0
 17 44  1  0
 18 45  1  0
 20 46  1  0
 21 47  1  0
 22 48  1  0
 23 49  1  0
 25 50  1  0
M  END
>  <smiles>  (17) 
CN(C)CCCN=c1[nH]ccc(=NCc2cccc3ccccc23)[nH]1

>  <score_type>  (17) 
oracle

>  <origin>  (17) 
adg

>  <m_score__min__energy>  (17) 
-8.3800000000000008

>  <m_primary>  (17) 
energy

$$$$
17:0
     RDKit          3D

 29 29  0  0  0  0  0  0  0  0999 V2000
   55.0810   28.2490   44.5400 H   0  0  0  0  0  0  0  0  0  0  0  0
   55.1330   29.2790   44.3740 N   0  0  0  0  0  0  0  0  0  0  0  0
   56.2400   29.9270   44.5330 C   0  0  0  0  0  0  0  0  0  0  0  0
   57.0060   29.8070   45.6350 N   0  0  0  0  0  0  0  0  0  0  0  0
   58.1160   30.5900   45.5510 C   0  0  0  0  0  0  0  0  0  0  0  0
   59.1030   30.6780   46.6720 C   0  0  0  0  0  0  0  0  0  0  0  0
   60.0691   31.0300   46.2812 H   0  0  0  0  0  0  0  0  0  0  0  0
   58.7304   31.3833   47.4294 H   0  0  0  0  0  0  0  0  0  0  0  0
   59.2810   29.3330   47.2960 C   0  0  0  0  0  0  0  0  0  0  0  0
   58.7080   29.0660   48.3860 O   0  0  0  0  0  0  0  0  0  0  0  0
   60.0650   28.3410   46.6250 N   0  0  0  0  0  0  0  0  0  0  0  0
   60.0750   28.1630   45.1770 C   0  0  0  0  0  0  0  0  0  0  0  0
   60.0328   29.1484   44.6900 H   0  0  0  0  0  0  0  0  0  0  0  0
   60.9976   27.6387   44.8873 H   0  0  0  0  0  0  0  0  0  0  0  0
   58.8640   27.3260   44.7340 C   0  0  0  0  0  0  0  0  0  0  0  0
   58.4902   27.7236   43.7789 H   0  0  0  0  0  0  0  0  0  0  0  0
   59.1965   26.2822   44.6338 H   0  0  0  0  0  0  0  0  0  0  0  0
   57.7690   27.3560   45.7200 N   0  0  0  0  0  0  0  0  0  0  0  0
   56.8990   27.6670   45.2250 H   0  0  0  0  0  0  0  0  0  0  0  0
   57.9830   28.0530   46.4720 H   0  0  0  0  0  0  0  0  0  0  0  0
   57.5210   26.0330   46.3190 C   0  0  0  0  0  0  0  0  0  0  0  0
   58.0067   25.2603   45.7050 H   0  0  0  0  0  0  0  0  0  0  0  0
   57.9334   26.0198   47.3387 H   0  0  0  0  0  0  0  0  0  0  0  0
   56.0500   25.7580   46.3860 C   0  0  0  0  0  0  0  0  0  0  0  0
   55.6330   24.6380   46.7820 O   0  0  0  0  0  0  0  0  0  0  0  0
   55.1430   26.7200   45.9600 O   0  0  0  0  0  0  0  0  0  0  0  0
   58.2210   31.3470   44.3830 C   0  0  0  0  0  0  0  0  0  0  0  0
   59.0352   32.0444   44.1366 H   0  0  0  0  0  0  0  0  0  0  0  0
   56.8850   31.0070   43.4170 S   0  0  0  0  0  0  0  0  0  0  0  0
  1  2  1  0
  2  3  2  0
  3  4  1  0
  4  5  1  0
  5  6  1  0
  6  7  1  0
  6  8  1  0
  6  9  1  0
  9 10  2  0
  9 11  1  0
 11 12  1  0
 12 13  1  0
 12 14  1  0
 12 15  1  0
 15 16  1  0
 15 17  1  0
 15 18  1  0
 18 19  1  0
 18 20  1  0
 18 21  1  0
 21 22  1  0
 21 23  1  0
 21 24  1  0
 24 25  2  0
 24 26  1  0
  5 27  2  0
 27 28  1  0
 27 29  1  0
 29  3  1  0
M  CHG  4   4  -1  11  -1  18   1  26  -1
M  END
>  <UniqueID>  (18) 
17

>  <SMILES>  (18) 
[H]/N=c1/[n-]c(CC(=O)[N-]CC[NH2+]CC(=O)[O-])cs1

>  <Energy>  (18) 
49.715890912547614

>  <Genealogy>  (18) 
N=c1[n-]c(CC(=O)[N-]CC[NH2+]CC(=O)[O-])cs1 (protonated)
[H]/N=c1/[n-]c(CC(=O)[N-]CC[NH2+]CC(=O)[O-])cs1 (cis-trans isomerization)
[H]/N=c1/[n-]c(CC(=O)[N-]CC[NH2+]CC(=O)[O-])cs1 (3D coordinates assigned)
[H]/N=c1/[n-]c(CC(=O)[N-]CC[NH2+]CC(=O)[O-])cs1 (optimized conformer: 49.715890912547614 kcal/mol)

>  <smiles>  (18) 
N=c1[nH]c(CC(=O)NCCNCC(=O)O)cs1

>  <score_type>  (18) 
oracle

>  <origin>  (18) 
adg

>  <m_score__min__energy>  (18) 
-10.34

>  <m_primary>  (18) 
energy

$$$$
18:0
     RDKit          3D

 71 76  0  0  0  0  0  0  0  0999 V2000
   58.0610   32.1380   42.7450 C   0  0  0  0  0  0  0  0  0  0  0  0
   57.3040   30.8610   42.9930 C   0  0  0  0  0  0  0  0  0  0  0  0
   56.5230   30.4790   42.1330 O   0  0  0  0  0  0  0  0  0  0  0  0
   57.4850   30.0220   44.2590 C   0  0  2  0  0  0  0  0  0  0  0  0
   56.0960   29.7020   44.8510 C   0  0  0  0  0  0  0  0  0  0  0  0
   58.2890   30.7510   45.3190 C   0  0  0  0  0  0  0  0  0  0  0  0
   59.1190   30.1150   46.1830 C   0  0  0  0  0  0  0  0  0  0  0  0
   59.7650   30.8440   47.2180 C   0  0  0  0  0  0  0  0  0  0  0  0
   59.7920   32.2450   47.2280 O   0  0  0  0  0  0  0  0  0  0  0  0
   60.4100   30.1610   48.2650 C   0  0  0  0  0  0  0  0  0  0  0  0
   60.5170   28.7580   48.2360 C   0  0  0  0  0  0  0  0  0  0  0  0
   59.9950   28.0360   47.1490 C   0  0  0  0  0  0  0  0  0  0  0  0
   60.2220   26.6630   47.0940 O   0  0  0  0  0  0  0  0  0  0  0  0
   59.2780   28.6960   46.1190 C   0  0  0  0  0  0  0  0  0  0  0  0
   58.7250   27.9990   45.0880 C   0  0  0  0  0  0  0  0  0  0  0  0
   58.6460   26.6030   45.0800 O   0  0  0  0  0  0  0  0  0  0  0  0
   57.4460   25.9210   45.4380 C   0  0  2  0  0  0  0  0  0  0  0  0
   57.7410   25.0140   46.6440 C   0  0  0  0  0  0  0  0  0  0  0  0
   56.4530   24.3100   47.1130 C   0  0  2  0  0  0  0  0  0  0  0  0
   56.7990   23.0750   47.8230 N   0  0  0  0  0  0  0  0  0  0  0  0
   55.4900   24.0350   45.9270 C   0  0  1  0  0  0  0  0  0  0  0  0
   54.5040   25.0340   45.8790 O   0  0  0  0  0  0  0  0  0  0  0  0
   56.2710   24.0090   44.5960 C   0  0  0  0  0  0  0  0  0  0  0  0
   56.9410   25.2270   44.3000 O   0  0  0  0  0  0  0  0  0  0  0  0
   58.2170   28.7230   43.8760 C   0  0  0  0  0  0  0  0  0  0  0  0
   61.0830   28.0360   49.4410 C   0  0  0  0  0  0  0  0  0  0  0  0
   60.1100   28.1660   50.5740 C   0  0  0  0  0  0  0  0  0  0  0  0
   59.6760   29.3400   51.0770 C   0  0  0  0  0  0  0  0  0  0  0  0
   58.3390   29.2390   52.2880 S   0  0  0  0  0  0  0  0  0  0  0  0
   59.2380   30.1740   53.5240 C   0  0  0  0  0  0  0  0  0  0  0  0
   59.8810   29.5550   54.4120 O   0  0  0  0  0  0  0  0  0  0  0  0
   59.1660   31.6560   53.5370 C   0  0  0  0  0  0  0  0  0  0  0  0
   59.0960   32.3120   54.7780 C   0  0  0  0  0  0  0  0  0  0  0  0
   58.9010   33.6900   54.8450 C   0  0  0  0  0  0  0  0  0  0  0  0
   58.7740   34.4350   53.6740 C   0  0  0  0  0  0  0  0  0  0  0  0
   58.8690   33.8140   52.4280 C   0  0  0  0  0  0  0  0  0  0  0  0
   58.7630   34.5920   51.2790 O   0  0  0  0  0  0  0  0  0  0  0  0
   59.0810   32.4220   52.3380 C   0  0  0  0  0  0  0  0  0  0  0  0
   59.2530   31.7980   50.9980 C   0  0  0  0  0  0  0  0  0  0  0  0
   58.4960   32.1420   50.0470 O   0  0  0  0  0  0  0  0  0  0  0  0
   60.2880   30.7160   50.7780 C   0  0  2  0  0  0  0  0  0  0  0  0
   61.0230   30.9210   49.4240 C   0  0  0  0  0  0  0  0  0  0  0  0
   58.3326   32.5961   43.7075 H   0  0  0  0  0  0  0  0  0  0  0  0
   58.9744   31.9176   42.1731 H   0  0  0  0  0  0  0  0  0  0  0  0
   57.4293   32.8336   42.1731 H   0  0  0  0  0  0  0  0  0  0  0  0
   56.1537   29.7153   45.9494 H   0  0  0  0  0  0  0  0  0  0  0  0
   55.3706   30.4565   44.5128 H   0  0  0  0  0  0  0  0  0  0  0  0
   55.7738   28.7061   44.5128 H   0  0  0  0  0  0  0  0  0  0  0  0
   58.1946   31.8446   45.3901 H   0  0  0  0  0  0  0  0  0  0  0  0
   59.4220   32.8140   47.9780 H   0  0  0  0  0  0  0  0  0  0  0  0
   56.6540   26.6190   45.7471 H   0  0  0  0  0  0  0  0  0  0  0  0
   58.4838   24.2560   46.3546 H   0  0  0  0  0  0  0  0  0  0  0  0
   58.1315   25.6301   47.4674 H   0  0  0  0  0  0  0  0  0  0  0  0
   55.9180   24.9769   47.8051 H   0  0  0  0  0  0  0  0  0  0  0  0
   56.1690   22.3010   47.5070 H   0  0  0  0  0  0  0  0  0  0  0  0
   56.6350   23.2170   48.8440 H   0  0  0  0  0  0  0  0  0  0  0  0
   55.0129   23.0551   46.0760 H   0  0  0  0  0  0  0  0  0  0  0  0
   54.7610   25.6590   45.1500 H   0  0  0  0  0  0  0  0  0  0  0  0
   57.0201   23.2052   44.6491 H   0  0  0  0  0  0  0  0  0  0  0  0
   55.5344   23.8459   43.7955 H   0  0  0  0  0  0  0  0  0  0  0  0
   59.0684   28.9713   43.2252 H   0  0  0  0  0  0  0  0  0  0  0  0
   57.5042   28.0663   43.3558 H   0  0  0  0  0  0  0  0  0  0  0  0
   61.2323   26.9731   49.2003 H   0  0  0  0  0  0  0  0  0  0  0  0
   62.0510   28.4756   49.7233 H   0  0  0  0  0  0  0  0  0  0  0  0
   59.7235   27.2407   51.0261 H   0  0  0  0  0  0  0  0  0  0  0  0
   59.1963   31.7311   55.7067 H   0  0  0  0  0  0  0  0  0  0  0  0
   58.8472   34.1904   55.8231 H   0  0  0  0  0  0  0  0  0  0  0  0
   58.5978   35.5192   53.7323 H   0  0  0  0  0  0  0  0  0  0  0  0
   61.1159   30.7830   51.4992 H   0  0  0  0  0  0  0  0  0  0  0  0
   61.0062   31.9937   49.1810 H   0  0  0  0  0  0  0  0  0  0  0  0
   62.0430   30.5305   49.5549 H   0  0  0  0  0  0  0  0  0  0  0  0
  1  2  1  0
  2  3  2  0
  2  4  1  0
  4  5  1  1
  4  6  1  0
  6  7  2  0
  7  8  1  0
  8  9  1  0
  8 10  2  0
 10 11  1  0
 11 12  2  0
 12 13  1  0
 12 14  1  0
 14 15  2  0
 15 16  1  0
 16 17  1  0
 17 18  1  0
 18 19  1  0
 19 20  1  0
 19 21  1  0
 21 22  1  0
 21 23  1  0
 23 24  1  0
 15 25  1  0
 11 26  1  0
 26 27  1  0
 27 28  2  0
 28 29  1  0
 29 30  1  0
 30 31  2  0
 30 32  1  0
 32 33  2  0
 33 34  1  0
 34 35  2  0
 35 36  1  0
 36 37  1  0
 36 38  2  0
 38 39  1  0
 39 40  2  0
 39 41  1  0
 41 42  1  0
 25  4  1  0
 41 28  1  0
 14  7  1  0
 24 17  1  0
 38 32  1  0
 42 10  1  0
  1 43  1  0
  1 44  1  0
  1 45  1  0
  5 46  1  0
  5 47  1  0
  5 48  1  0
  6 49  1  0
  9 50  1  0
 17 51  1  1
 18 52  1  0
 18 53  1  0
 19 54  1  1
 20 55  1  0
 20 56  1  0
 21 57  1  1
 22 58  1  0
 23 59  1  0
 23 60  1  0
 25 61  1  0
 25 62  1  0
 26 63  1  0
 26 64  1  0
 27 65  1  0
 33 66  1  0
 34 67  1  0
 35 68  1  0
 41 69  1  1
 42 70  1  0
 42 71  1  0
M  CHG  2  13  -1  37  -1
M  END
>  <UniqueID>  (19) 
18

>  <SMILES>  (19) 
CC(=O)[C@]1(C)C=c2c(O)c3c(c([O-])c2=C(O[C@@H]2CC(N)C(O)CO2)C1)CC=C1SC(=O)c2cccc([O-])c2C(=O)C1C3

>  <Energy>  (19) 
136.49931457748988

>  <Genealogy>  (19) 
CC(=O)C1(C)C=c2c(O)c3c(c([O-])c2=C(OC2CC(N)C(O)CO2)C1)CC=C1SC(=O)c2cccc([O-])c2C(=O)C1C3 (protonated)
CC(=O)[C@]1(C)C=c2c(O)c3c(c([O-])c2=C(O[C@@H]2CC(N)C(O)CO2)C1)CC=C1SC(=O)c2cccc([O-])c2C(=O)C1C3 (chirality)
CC(=O)[C@]1(C)C=c2c(O)c3c(c([O-])c2=C(O[C@@H]2CC(N)C(O)CO2)C1)CC=C1SC(=O)c2cccc([O-])c2C(=O)C1C3 (3D coordinates assigned)
CC(=O)[C@]1(C)C=c2c(O)c3c(c([O-])c2=C(O[C@@H]2CC(N)C(O)CO2)C1)CC=C1SC(=O)c2cccc([O-])c2C(=O)C1C3 (nonaromatic ring conformer: 136.49931457748988 kcal/mol)

>  <smiles>  (19) 
CC(=O)C1(C)C=c2c(O)c3c(c(O)c2=C(OC2CC(N)C(O)CO2)C1)CC=C1SC(=O)c2cccc(O)c2C(=O)C1C3

>  <score_type>  (19) 
oracle

>  <origin>  (19) 
adg

>  <m_score__min__energy>  (19) 
-8.1899999999999995

>  <m_primary>  (19) 
energy

$$$$
19:0
     RDKit          3D

 37 39  0  0  0  0  0  0  0  0999 V2000
   55.2850   26.7120   45.9940 N   0  0  0  0  0  0  0  0  0  0  0  0
   56.9430   27.0550   45.6560 S   0  0  0  0  0  0  0  0  0  0  0  0
   57.4540   26.0940   44.6190 O   0  0  0  0  0  0  0  0  0  0  0  0
   57.7540   26.8870   46.9100 O   0  0  0  0  0  0  0  0  0  0  0  0
   57.0940   28.7080   45.0670 C   0  0  0  0  0  0  0  0  0  0  0  0
   56.6500   29.0400   43.7810 C   0  0  0  0  0  0  0  0  0  0  0  0
   56.7650   30.3520   43.3160 C   0  0  0  0  0  0  0  0  0  0  0  0
   57.3150   31.3410   44.1350 C   0  0  0  0  0  0  0  0  0  0  0  0
   57.7490   31.0270   45.4340 C   0  0  0  0  0  0  0  0  0  0  0  0
   58.3360   32.0770   46.3010 C   0  0  0  0  0  0  0  0  0  0  0  0
   59.3820   31.7450   47.1810 C   0  0  0  0  0  0  0  0  0  0  0  0
   59.9510   32.7180   48.0160 C   0  0  0  0  0  0  0  0  0  0  0  0
   61.0310   32.3390   48.9920 C   0  0  0  0  0  0  0  0  0  0  0  0
   62.3340   32.7350   48.4670 N   0  0  0  0  0  0  0  0  0  0  0  0
   62.6410   33.0040   47.1880 C   0  0  0  0  0  0  0  0  0  0  0  0
   63.9530   33.4200   47.1490 C   0  0  0  0  0  0  0  0  0  0  0  0
   64.4640   33.4230   48.3980 N   0  0  0  0  0  0  0  0  0  0  0  0
   63.4460   33.0050   49.1770 C   0  0  0  0  0  0  0  0  0  0  0  0
   59.4560   34.0290   47.9850 C   0  0  0  0  0  0  0  0  0  0  0  0
   58.4260   34.3710   47.1080 C   0  0  0  0  0  0  0  0  0  0  0  0
   57.8670   33.4060   46.2580 C   0  0  0  0  0  0  0  0  0  0  0  0
   56.8600   33.7720   45.3640 O   0  0  0  0  0  0  0  0  0  0  0  0
   57.6380   29.7020   45.8920 C   0  0  0  0  0  0  0  0  0  0  0  0
   54.7810   26.7120   45.0790 H   0  0  0  0  0  0  0  0  0  0  0  0
   56.2097   28.2657   43.1356 H   0  0  0  0  0  0  0  0  0  0  0  0
   56.4217   30.6071   42.3026 H   0  0  0  0  0  0  0  0  0  0  0  0
   57.4088   32.3712   43.7610 H   0  0  0  0  0  0  0  0  0  0  0  0
   59.7577   30.7117   47.2147 H   0  0  0  0  0  0  0  0  0  0  0  0
   60.8529   32.8495   49.9499 H   0  0  0  0  0  0  0  0  0  0  0  0
   61.0168   31.2496   49.1439 H   0  0  0  0  0  0  0  0  0  0  0  0
   61.9651   32.9090   46.3253 H   0  0  0  0  0  0  0  0  0  0  0  0
   64.5008   33.7061   46.2390 H   0  0  0  0  0  0  0  0  0  0  0  0
   63.5159   32.8967   50.2694 H   0  0  0  0  0  0  0  0  0  0  0  0
   59.8812   34.7911   48.6546 H   0  0  0  0  0  0  0  0  0  0  0  0
   58.0500   35.4045   47.0833 H   0  0  0  0  0  0  0  0  0  0  0  0
   56.1990   34.5080   45.5790 H   0  0  0  0  0  0  0  0  0  0  0  0
   57.9805   29.4438   46.9049 H   0  0  0  0  0  0  0  0  0  0  0  0
  1  2  1  0
  2  3  2  0
  2  4  2  0
  2  5  1  0
  5  6  2  0
  6  7  1  0
  7  8  2  0
  8  9  1  0
  9 10  1  0
 10 11  2  0
 11 12  1  0
 12 13  1  0
 13 14  1  0
 14 15  1  0
 15 16  2  0
 16 17  1  0
 17 18  2  0
 12 19  2  0
 19 20  1  0
 20 21  2  0
 21 22  1  0
  9 23  2  0
 23  5  1  0
 21 10  1  0
 18 14  1  0
  1 24  1  0
  6 25  1  0
  7 26  1  0
  8 27  1  0
 11 28  1  0
 13 29  1  0
 13 30  1  0
 15 31  1  0
 16 32  1  0
 18 33  1  0
 19 34  1  0
 20 35  1  0
 22 36  1  0
 23 37  1  0
M  CHG  1   1  -1
M  END
>  <UniqueID>  (20) 
19

>  <SMILES>  (20) 
[NH-]S(=O)(=O)c1cccc(-c2cc(Cn3ccnc3)ccc2O)c1

>  <Energy>  (20) 
72.48054631949476

>  <Genealogy>  (20) 
[NH-]S(=O)(=O)c1cccc(-c2cc(Cn3ccnc3)ccc2O)c1 (protonated)
[NH-]S(=O)(=O)c1cccc(-c2cc(Cn3ccnc3)ccc2O)c1 (3D coordinates assigned)
[NH-]S(=O)(=O)c1cccc(-c2cc(Cn3ccnc3)ccc2O)c1 (optimized conformer: 72.48054631949476 kcal/mol)

>  <smiles>  (20) 
NS(=O)(=O)c1cccc(-c2cc(Cn3ccnc3)ccc2O)c1

>  <score_type>  (20) 
oracle

>  <origin>  (20) 
adg

>  <m_score__min__energy>  (20) 
-11.140000000000001

>  <m_primary>  (20) 
energy

$$$$
20:0
     RDKit          3D

 32 33  0  0  0  0  0  0  0  0999 V2000
   55.4207   28.9676   45.1111 H   0  0  0  0  0  0  0  0  0  0  0  0
   56.5070   28.9650   44.9380 C   0  0  0  0  0  0  0  0  0  0  0  0
   57.1670   27.8080   45.1610 C   0  0  0  0  0  0  0  0  0  0  0  0
   58.5050   27.5420   44.5830 C   0  0  0  0  0  0  0  0  0  0  0  0
   58.6060   27.2130   43.3690 O   0  0  0  0  0  0  0  0  0  0  0  0
   59.6720   27.7020   45.4060 N   0  0  0  0  0  0  0  0  0  0  0  0
   59.8350   28.5240   46.4020 C   0  0  0  0  0  0  0  0  0  0  0  0
   60.7280   29.9560   46.3950 S   0  0  0  0  0  0  0  0  0  0  0  0
   60.3920   30.2990   48.0100 C   0  0  0  0  0  0  0  0  0  0  0  0
   60.7453   31.1769   48.5708 H   0  0  0  0  0  0  0  0  0  0  0  0
   59.5910   29.2800   48.5100 C   0  0  0  0  0  0  0  0  0  0  0  0
   59.2297   29.2661   49.5489 H   0  0  0  0  0  0  0  0  0  0  0  0
   59.2880   28.3010   47.6160 N   0  0  0  0  0  0  0  0  0  0  0  0
   58.6960   27.4710   47.8480 H   0  0  0  0  0  0  0  0  0  0  0  0
   56.5710   26.7960   46.0670 C   0  0  0  0  0  0  0  0  0  0  0  0
   57.2880   26.2240   46.9340 O   0  0  0  0  0  0  0  0  0  0  0  0
   55.2120   26.4740   45.9650 O   0  0  0  0  0  0  0  0  0  0  0  0
   54.7550   25.1710   45.6250 C   0  0  0  0  0  0  0  0  0  0  0  0
   54.5551   24.6011   46.5443 H   0  0  0  0  0  0  0  0  0  0  0  0
   53.8307   25.2493   45.0338 H   0  0  0  0  0  0  0  0  0  0  0  0
   55.5257   24.6548   45.0338 H   0  0  0  0  0  0  0  0  0  0  0  0
   57.1230   30.2270   44.4810 C   0  0  0  0  0  0  0  0  0  0  0  0
   57.7840   31.3760   45.5160 S   0  0  0  0  0  0  0  0  0  0  0  0
   58.1260   32.5110   44.3250 C   0  0  0  0  0  0  0  0  0  0  0  0
   58.8270   33.8080   44.5470 C   0  0  0  0  0  0  0  0  0  0  0  0
   58.9260   33.9911   45.6271 H   0  0  0  0  0  0  0  0  0  0  0  0
   59.8262   33.7679   44.0888 H   0  0  0  0  0  0  0  0  0  0  0  0
   58.2460   34.6219   44.0888 H   0  0  0  0  0  0  0  0  0  0  0  0
   57.7260   32.0060   43.0940 C   0  0  0  0  0  0  0  0  0  0  0  0
   57.8549   32.5485   42.1458 H   0  0  0  0  0  0  0  0  0  0  0  0
   57.1420   30.7360   43.1830 C   0  0  0  0  0  0  0  0  0  0  0  0
   56.7384   30.1940   42.3151 H   0  0  0  0  0  0  0  0  0  0  0  0
  1  2  1  0
  2  3  2  0
  3  4  1  0
  4  5  2  0
  4  6  1  0
  6  7  2  3
  7  8  1  0
  8  9  1  0
  9 10  1  0
  9 11  2  0
 11 12  1  0
 11 13  1  0
 13 14  1  0
  3 15  1  0
 15 16  2  0
 15 17  1  0
 17 18  1  0
 18 19  1  0
 18 20  1  0
 18 21  1  0
  2 22  1  0
 22 23  1  0
 23 24  1  0
 24 25  1  0
 25 26  1  0
 25 27  1  0
 25 28  1  0
 24 29  2  0
 29 30  1  0
 29 31  1  0
 31 32  1  0
 13  7  1  0
 31 22  2  0
M  END
>  <UniqueID>  (21) 
20

>  <SMILES>  (21) 
COC(=O)/C(=C/c1ccc(C)s1)C(=O)N=c1[nH]ccs1

>  <Energy>  (21) 
96.34040123424117

>  <Genealogy>  (21) 
COC(=O)/C(=C/c1ccc(C)s1)C(=O)N=c1[nH]ccs1 (cis-trans isomerization)
COC(=O)/C(=C/c1ccc(C)s1)C(=O)N=c1[nH]ccs1 (3D coordinates assigned)
COC(=O)/C(=C/c1ccc(C)s1)C(=O)N=c1[nH]ccs1 (optimized conformer: 96.34040123424117 kcal/mol)

>  <smiles>  (21) 
COC(=O)C(=Cc1ccc(C)s1)C(=O)N=c1[nH]ccs1

>  <score_type>  (21) 
oracle

>  <origin>  (21) 
adg

>  <m_score__min__energy>  (21) 
-6.5800000000000001

>  <m_primary>  (21) 
energy

$$$$
21:0
     RDKit          3D

 23 24  0  0  0  0  0  0  0  0999 V2000
   51.9873   22.3471   44.9553 H   0  0  0  0  0  0  0  0  0  0  0  0
   52.7200   23.0930   45.2970 C   0  0  0  0  0  0  0  0  0  0  0  0
   53.8440   22.8220   45.9890 N   0  0  0  0  0  0  0  0  0  0  0  0
   54.3950   24.0430   46.1610 C   0  0  0  0  0  0  0  0  0  0  0  0
   55.5010   24.2620   46.8070 N   0  0  0  0  0  0  0  0  0  0  0  0
   56.3660   25.3950   46.6410 C   0  0  0  0  0  0  0  0  0  0  0  0
   57.3350   25.5330   47.4340 O   0  0  0  0  0  0  0  0  0  0  0  0
   56.1180   26.3820   45.6240 N   0  0  0  0  0  0  0  0  0  0  0  0
   55.3080   26.2640   44.9770 H   0  0  0  0  0  0  0  0  0  0  0  0
   57.0050   27.4800   45.3710 C   0  0  0  0  0  0  0  0  0  0  0  0
   58.3900   27.2610   45.4020 C   0  0  0  0  0  0  0  0  0  0  0  0
   58.7797   26.2569   45.6256 H   0  0  0  0  0  0  0  0  0  0  0  0
   59.2770   28.3090   45.1510 C   0  0  0  0  0  0  0  0  0  0  0  0
   60.3619   28.1316   45.1902 H   0  0  0  0  0  0  0  0  0  0  0  0
   58.7890   29.5830   44.8500 C   0  0  0  0  0  0  0  0  0  0  0  0
   59.4902   30.4096   44.6630 H   0  0  0  0  0  0  0  0  0  0  0  0
   57.4100   29.8090   44.7860 C   0  0  0  0  0  0  0  0  0  0  0  0
   56.8170   31.4120   44.3780 Cl  0  0  0  0  0  0  0  0  0  0  0  0
   56.5140   28.7580   45.0330 C   0  0  0  0  0  0  0  0  0  0  0  0
   55.1450   28.9770   44.9150 O   0  0  0  0  0  0  0  0  0  0  0  0
   53.6820   25.0100   45.6330 O   0  0  0  0  0  0  0  0  0  0  0  0
   52.6330   24.4510   45.0850 C   0  0  0  0  0  0  0  0  0  0  0  0
   51.8257   24.9729   44.5503 H   0  0  0  0  0  0  0  0  0  0  0  0
  1  2  1  0
  2  3  1  0
  3  4  1  0
  4  5  2  0
  5  6  1  0
  6  7  2  0
  6  8  1  0
  8  9  1  0
  8 10  1  0
 10 11  2  0
 11 12  1  0
 11 13  1  0
 13 14  1  0
 13 15  2  0
 15 16  1  0
 15 17  1  0
 17 18  1  0
 17 19  2  0
 19 20  1  0
  4 21  1  0
 21 22  1  0
 22 23  1  0
 22  2  2  0
 19 10  1  0
M  CHG  2   3  -1  20  -1
M  END
>  <UniqueID>  (22) 
21

>  <SMILES>  (22) 
O=C(/N=c1\[n-]cco1)Nc1cccc(Cl)c1[O-]

>  <Energy>  (22) 
64.19289206975232

>  <Genealogy>  (22) 
O=C(N=c1[n-]cco1)Nc1cccc(Cl)c1[O-] (protonated)
O=C(/N=c1\[n-]cco1)Nc1cccc(Cl)c1[O-] (cis-trans isomerization)
O=C(/N=c1\[n-]cco1)Nc1cccc(Cl)c1[O-] (3D coordinates assigned)
O=C(/N=c1\[n-]cco1)Nc1cccc(Cl)c1[O-] (optimized conformer: 64.19289206975232 kcal/mol)

>  <smiles>  (22) 
O=C(N=c1[nH]cco1)Nc1cccc(Cl)c1O

>  <score_type>  (22) 
oracle

>  <origin>  (22) 
adg

>  <m_score__min__energy>  (22) 
-11.77

>  <m_primary>  (22) 
energy

$$$$
22:0
     RDKit          3D

 25 26  0  0  0  0  0  0  0  0999 V2000
   57.2517   21.9890   45.1437 H   0  0  0  0  0  0  0  0  0  0  0  0
   56.6420   22.8890   45.3120 C   0  0  0  0  0  0  0  0  0  0  0  0
   57.1070   23.8840   46.1130 N   0  0  0  0  0  0  0  0  0  0  0  0
   56.3860   25.0180   46.3510 C   0  0  0  0  0  0  0  0  0  0  0  0
   56.8470   25.9630   47.1200 N   0  0  0  0  0  0  0  0  0  0  0  0
   57.5760   27.1320   46.7130 C   0  0  0  0  0  0  0  0  0  0  0  0
   58.2270   27.8220   47.5430 O   0  0  0  0  0  0  0  0  0  0  0  0
   57.6020   27.5060   45.2640 C   0  0  0  0  0  0  0  0  0  0  0  0
   58.5224   27.1169   44.8041 H   0  0  0  0  0  0  0  0  0  0  0  0
   56.7227   27.0735   44.7643 H   0  0  0  0  0  0  0  0  0  0  0  0
   57.5660   29.0080   45.1160 C   0  0  0  0  0  0  0  0  0  0  0  0
   56.3480   29.6870   44.9400 C   0  0  0  0  0  0  0  0  0  0  0  0
   55.1470   28.9890   44.8700 O   0  0  0  0  0  0  0  0  0  0  0  0
   56.3350   31.0420   44.8390 N   0  0  0  0  0  0  0  0  0  0  0  0
   57.4810   31.7630   44.9150 C   0  0  0  0  0  0  0  0  0  0  0  0
   57.4310   33.3890   44.7900 S   0  0  0  0  0  0  0  0  0  0  0  0
   58.6690   31.1330   45.1020 N   0  0  0  0  0  0  0  0  0  0  0  0
   58.7380   29.7810   45.2080 C   0  0  0  0  0  0  0  0  0  0  0  0
   59.8580   29.2350   45.3930 O   0  0  0  0  0  0  0  0  0  0  0  0
   55.1250   25.1690   45.7530 C   0  0  0  0  0  0  0  0  0  0  0  0
   54.3660   26.3140   45.9750 O   0  0  0  0  0  0  0  0  0  0  0  0
   54.6320   24.1560   44.9270 C   0  0  0  0  0  0  0  0  0  0  0  0
   53.6450   24.2636   44.4535 H   0  0  0  0  0  0  0  0  0  0  0  0
   55.3920   23.0080   44.7030 C   0  0  0  0  0  0  0  0  0  0  0  0
   55.0106   22.2060   44.0540 H   0  0  0  0  0  0  0  0  0  0  0  0
  1  2  1  0
  2  3  1  0
  3  4  1  0
  4  5  2  0
  5  6  1  0
  6  7  2  0
  6  8  1  0
  8  9  1  0
  8 10  1  0
  8 11  1  0
 11 12  2  0
 12 13  1  0
 12 14  1  0
 14 15  1  0
 15 16  2  0
 15 17  1  0
 17 18  1  0
 18 19  2  0
  4 20  1  0
 20 21  1  0
 20 22  2  0
 22 23  1  0
 22 24  1  0
 24 25  1  0
 24  2  2  0
 18 11  1  0
M  CHG  5   3  -1  13  -1  14  -1  17  -1  21  -1
M  END
>  <UniqueID>  (23) 
22

>  <SMILES>  (23) 
O=C(Cc1c([O-])[n-]c(=S)[n-]c1=O)/N=c1\[n-]cccc1[O-]

>  <Energy>  (23) 
30.203103121573534

>  <Genealogy>  (23) 
O=C(Cc1c([O-])[n-]c(=S)[n-]c1=O)N=c1[n-]cccc1[O-] (protonated)
O=C(Cc1c([O-])[n-]c(=S)[n-]c1=O)/N=c1\[n-]cccc1[O-] (cis-trans isomerization)
O=C(Cc1c([O-])[n-]c(=S)[n-]c1=O)/N=c1\[n-]cccc1[O-] (3D coordinates assigned)
O=C(Cc1c([O-])[n-]c(=S)[n-]c1=O)/N=c1\[n-]cccc1[O-] (optimized conformer: 30.203103121573534 kcal/mol)

>  <smiles>  (23) 
O=C(Cc1c(O)[nH]c(=S)[nH]c1=O)N=c1[nH]cccc1O

>  <score_type>  (23) 
oracle

>  <origin>  (23) 
adg

>  <m_score__min__energy>  (23) 
-17.870000000000001

>  <m_primary>  (23) 
energy

$$$$
23:0
     RDKit          3D

 96101  0  0  0  0  0  0  0  0999 V2000
   64.1081   33.0435   45.8725 H   0  0  0  0  0  0  0  0  0  0  0  0
   63.3730   33.2350   46.6680 C   0  0  0  0  0  0  0  0  0  0  0  0
   63.6400   32.8480   47.9410 N   0  0  0  0  0  0  0  0  0  0  0  0
   62.7620   33.0640   48.9540 C   0  0  0  0  0  0  0  0  0  0  0  0
   63.0920   32.6590   50.2520 C   0  0  0  0  0  0  0  0  0  0  0  0
   64.0504   32.1536   50.4420 H   0  0  0  0  0  0  0  0  0  0  0  0
   62.2070   32.8950   51.3080 C   0  0  0  0  0  0  0  0  0  0  0  0
   62.6210   32.3810   52.9320 Cl  0  0  0  0  0  0  0  0  0  0  0  0
   60.9850   33.5290   51.0690 C   0  0  0  0  0  0  0  0  0  0  0  0
   60.2930   33.7166   51.9032 H   0  0  0  0  0  0  0  0  0  0  0  0
   60.6380   33.9260   49.7740 C   0  0  0  0  0  0  0  0  0  0  0  0
   59.6694   34.4148   49.5925 H   0  0  0  0  0  0  0  0  0  0  0  0
   61.5230   33.7030   48.7000 C   0  0  0  0  0  0  0  0  0  0  0  0
   61.2220   34.1130   47.3790 C   0  0  0  0  0  0  0  0  0  0  0  0
   60.0930   34.7260   47.1400 N   0  0  0  0  0  0  0  0  0  0  0  0
   59.6440   35.3270   45.8840 C   0  0  0  0  0  0  0  0  0  0  0  0
   60.5231   35.6653   45.3159 H   0  0  0  0  0  0  0  0  0  0  0  0
   58.9823   36.1723   46.1243 H   0  0  0  0  0  0  0  0  0  0  0  0
   58.8540   34.3270   45.0300 C   0  0  0  0  0  0  0  0  0  0  0  0
   59.5253   33.5225   44.6953 H   0  0  0  0  0  0  0  0  0  0  0  0
   58.4345   34.8476   44.1565 H   0  0  0  0  0  0  0  0  0  0  0  0
   57.7090   33.7240   45.8590 C   0  0  0  0  0  0  0  0  0  0  0  0
   56.7509   34.0952   45.4662 H   0  0  0  0  0  0  0  0  0  0  0  0
   57.8494   34.0260   46.9074 H   0  0  0  0  0  0  0  0  0  0  0  0
   57.7100   32.2350   45.8010 N   0  0  0  0  0  0  0  0  0  0  0  0
   58.5720   31.7470   44.6920 C   0  0  0  0  0  0  0  0  0  0  0  0
   58.1561   32.0989   43.7364 H   0  0  0  0  0  0  0  0  0  0  0  0
   59.5873   32.1398   44.8498 H   0  0  0  0  0  0  0  0  0  0  0  0
   58.6510   30.2380   44.6650 C   0  0  0  0  0  0  0  0  0  0  0  0
   57.7990   29.3640   43.9860 C   0  0  0  0  0  0  0  0  0  0  0  0
   56.5770   29.7180   43.1860 C   0  0  0  0  0  0  0  0  0  0  0  0
   55.7486   29.9580   43.8688 H   0  0  0  0  0  0  0  0  0  0  0  0
   56.7939   30.5902   42.5518 H   0  0  0  0  0  0  0  0  0  0  0  0
   56.2941   28.8649   42.5518 H   0  0  0  0  0  0  0  0  0  0  0  0
   58.2780   28.1040   44.1250 N   0  0  0  0  0  0  0  0  0  0  0  0
   57.7750   26.8670   43.5180 C   0  0  0  0  0  0  0  0  0  0  0  0
   56.8723   27.0925   42.9312 H   0  0  0  0  0  0  0  0  0  0  0  0
   58.5552   26.4471   42.8661 H   0  0  0  0  0  0  0  0  0  0  0  0
   57.4350   25.8590   44.5830 C   0  0  0  0  0  0  0  0  0  0  0  0
   57.7720   24.5060   44.4140 C   0  0  0  0  0  0  0  0  0  0  0  0
   58.2380   24.1715   43.4754 H   0  0  0  0  0  0  0  0  0  0  0  0
   57.5190   23.5840   45.4300 C   0  0  0  0  0  0  0  0  0  0  0  0
   57.7999   22.5292   45.2943 H   0  0  0  0  0  0  0  0  0  0  0  0
   56.9090   23.9950   46.6220 C   0  0  0  0  0  0  0  0  0  0  0  0
   56.6370   22.8330   47.9190 S   0  0  0  0  0  0  0  0  0  0  0  0
   57.1300   21.4730   47.5050 O   0  0  0  0  0  0  0  0  0  0  0  0
   57.3940   23.2600   49.1460 O   0  0  0  0  0  0  0  0  0  0  0  0
   54.9400   22.7900   48.2880 N   0  0  0  0  0  0  0  0  0  0  0  0
   54.2640   21.8560   47.3920 C   0  0  0  0  0  0  0  0  0  0  0  0
   55.0145   21.2997   46.8112 H   0  0  0  0  0  0  0  0  0  0  0  0
   53.6605   21.1551   47.9875 H   0  0  0  0  0  0  0  0  0  0  0  0
   53.3670   22.6070   46.4550 C   0  0  0  0  0  0  0  0  0  0  0  0
   53.9080   23.3570   45.3980 C   0  0  0  0  0  0  0  0  0  0  0  0
   54.9962   23.3742   45.2383 H   0  0  0  0  0  0  0  0  0  0  0  0
   53.0670   24.0820   44.5480 C   0  0  0  0  0  0  0  0  0  0  0  0
   53.4945   24.6680   43.7210 H   0  0  0  0  0  0  0  0  0  0  0  0
   51.6830   24.0630   44.7480 C   0  0  0  0  0  0  0  0  0  0  0  0
   51.0235   24.6438   44.0865 H   0  0  0  0  0  0  0  0  0  0  0  0
   51.1390   23.3070   45.7870 C   0  0  0  0  0  0  0  0  0  0  0  0
   50.0503   23.2941   45.9439 H   0  0  0  0  0  0  0  0  0  0  0  0
   51.9720   22.5670   46.6280 C   0  0  0  0  0  0  0  0  0  0  0  0
   51.5360   21.9509   47.4282 H   0  0  0  0  0  0  0  0  0  0  0  0
   56.5660   25.3450   46.7930 C   0  0  0  0  0  0  0  0  0  0  0  0
   56.0821   25.6744   47.7243 H   0  0  0  0  0  0  0  0  0  0  0  0
   56.8380   26.2730   45.7820 C   0  0  0  0  0  0  0  0  0  0  0  0
   56.5822   27.3327   45.9286 H   0  0  0  0  0  0  0  0  0  0  0  0
   59.3950   28.2320   44.8660 C   0  0  0  0  0  0  0  0  0  0  0  0
   60.1450   27.2620   45.1710 O   0  0  0  0  0  0  0  0  0  0  0  0
   59.6460   29.5060   45.2290 N   0  0  0  0  0  0  0  0  0  0  0  0
   60.7910   29.9650   46.0210 C   0  0  0  0  0  0  0  0  0  0  0  0
   61.7067   29.4833   45.6476 H   0  0  0  0  0  0  0  0  0  0  0  0
   60.8748   31.0579   45.9281 H   0  0  0  0  0  0  0  0  0  0  0  0
   60.6000   29.6110   47.4700 C   0  0  0  0  0  0  0  0  0  0  0  0
   60.8050   30.5720   48.4720 C   0  0  0  0  0  0  0  0  0  0  0  0
   61.0854   31.5990   48.1951 H   0  0  0  0  0  0  0  0  0  0  0  0
   60.6550   30.2320   49.8210 C   0  0  0  0  0  0  0  0  0  0  0  0
   60.8228   30.9905   50.5998 H   0  0  0  0  0  0  0  0  0  0  0  0
   60.2900   28.9220   50.1840 C   0  0  0  0  0  0  0  0  0  0  0  0
   60.1320   28.5260   51.5180 O   0  0  0  0  0  0  0  0  0  0  0  0
   60.2430   29.4020   52.6340 C   0  0  0  0  0  0  0  0  0  0  0  0
   60.1694   28.8209   53.5650 H   0  0  0  0  0  0  0  0  0  0  0  0
   61.2137   29.9182   52.5998 H   0  0  0  0  0  0  0  0  0  0  0  0
   59.4317   30.1440   52.5998 H   0  0  0  0  0  0  0  0  0  0  0  0
   60.0810   27.9700   49.1790 C   0  0  0  0  0  0  0  0  0  0  0  0
   59.7820   26.9472   49.4519 H   0  0  0  0  0  0  0  0  0  0  0  0
   60.2480   28.3050   47.8350 C   0  0  0  0  0  0  0  0  0  0  0  0
   60.1026   27.5400   47.0581 H   0  0  0  0  0  0  0  0  0  0  0  0
   58.1720   31.6760   47.0990 C   0  0  0  0  0  0  0  0  0  0  0  0
   59.2028   31.3107   46.9806 H   0  0  0  0  0  0  0  0  0  0  0  0
   57.4881   30.8610   47.3783 H   0  0  0  0  0  0  0  0  0  0  0  0
   58.1440   32.7160   48.2180 C   0  0  0  0  0  0  0  0  0  0  0  0
   58.1577   32.2063   49.1927 H   0  0  0  0  0  0  0  0  0  0  0  0
   59.0249   33.3694   48.1335 H   0  0  0  0  0  0  0  0  0  0  0  0
   57.2292   33.3210   48.1335 H   0  0  0  0  0  0  0  0  0  0  0  0
   62.1720   33.8740   46.3630 C   0  0  0  0  0  0  0  0  0  0  0  0
   61.9649   34.1919   45.3305 H   0  0  0  0  0  0  0  0  0  0  0  0
  1  2  1  0
  2  3  1  0
  3  4  1  0
  4  5  2  0
  5  6  1  0
  5  7  1  0
  7  8  1  0
  7  9  2  0
  9 10  1  0
  9 11  1  0
 11 12  1  0
 11 13  2  0
 13 14  1  0
 14 15  2  0
 15 16  1  0
 16 17  1  0
 16 18  1  0
 16 19  1  0
 19 20  1  0
 19 21  1  0
 19 22  1  0
 22 23  1  0
 22 24  1  0
 22 25  1  0
 25 26  1  0
 26 27  1  0
 26 28  1  0
 26 29  1  0
 29 30  2  0
 30 31  1  0
 31 32  1  0
 31 33  1  0
 31 34  1  0
 30 35  1  0
 35 36  1  0
 36 37  1  0
 36 38  1  0
 36 39  1  0
 39 40  2  0
 40 41  1  0
 40 42  1  0
 42 43  1  0
 42 44  2  0
 44 45  1  0
 45 46  2  0
 45 47  2  0
 45 48  1  0
 48 49  1  0
 49 50  1  0
 49 51  1  0
 49 52  1  0
 52 53  2  0
 53 54  1  0
 53 55  1  0
 55 56  1  0
 55 57  2  0
 57 58  1  0
 57 59  1  0
 59 60  1  0
 59 61  2  0
 61 62  1  0
 44 63  1  0
 63 64  1  0
 63 65  2  0
 65 66  1  0
 35 67  1  0
 67 68  2  0
 67 69  1  0
 69 70  1  0
 70 71  1  0
 70 72  1  0
 70 73  1  0
 73 74  2  0
 74 75  1  0
 74 76  1  0
 76 77  1  0
 76 78  2  0
 78 79  1  0
 79 80  1  0
 80 81  1  0
 80 82  1  0
 80 83  1  0
 78 84  1  0
 84 85  1  0
 84 86  2  0
 86 87  1  0
 25 88  1  0
 88 89  1  0
 88 90  1  0
 88 91  1  0
 91 92  1  0
 91 93  1  0
 91 94  1  0
 14 95  1  0
 95 96  1  0
 95  2  2  0
 13  4  1  0
 69 29  1  0
 86 73  1  0
 65 39  1  0
 61 52  1  0
M  CHG  2   3  -1  48  -1
M  END
>  <UniqueID>  (24) 
23

>  <SMILES>  (24) 
CCN(CCC/N=c1\cc[n-]c2cc(Cl)ccc12)Cc1c(C)n(Cc2ccc(S(=O)(=O)[N-]Cc3ccccc3)cc2)c(=O)n1Cc1ccc(OC)cc1

>  <Energy>  (24) 
124.55279312595843

>  <Genealogy>  (24) 
CCN(CCCN=c1cc[n-]c2cc(Cl)ccc12)Cc1c(C)n(Cc2ccc(S(=O)(=O)[N-]Cc3ccccc3)cc2)c(=O)n1Cc1ccc(OC)cc1 (protonated)
CCN(CCC/N=c1\cc[n-]c2cc(Cl)ccc12)Cc1c(C)n(Cc2ccc(S(=O)(=O)[N-]Cc3ccccc3)cc2)c(=O)n1Cc1ccc(OC)cc1 (cis-trans isomerization)
CCN(CCC/N=c1\cc[n-]c2cc(Cl)ccc12)Cc1c(C)n(Cc2ccc(S(=O)(=O)[N-]Cc3ccccc3)cc2)c(=O)n1Cc1ccc(OC)cc1 (3D coordinates assigned)
CCN(CCC/N=c1\cc[n-]c2cc(Cl)ccc12)Cc1c(C)n(Cc2ccc(S(=O)(=O)[N-]Cc3ccccc3)cc2)c(=O)n1Cc1ccc(OC)cc1 (optimized conformer: 124.55279312595843 kcal/mol)

>  <smiles>  (24) 
CCN(CCCN=c1cc[nH]c2cc(Cl)ccc12)Cc1c(C)n(Cc2ccc(S(=O)(=O)NCc3ccccc3)cc2)c(=O)n1Cc1ccc(OC)cc1

>  <score_type>  (24) 
oracle

>  <origin>  (24) 
adg

>  <m_score__min__energy>  (24) 
-13.17

>  <m_primary>  (24) 
energy

$$$$
24:0
     RDKit          3D

 27 28  0  0  0  0  0  0  0  0999 V2000
   55.4230   30.0940   45.6450 H   0  0  0  0  0  0  0  0  0  0  0  0
   55.5280   29.2730   45.0620 O   0  0  0  0  0  0  0  0  0  0  0  0
   56.2690   28.1570   45.4540 C   0  0  0  0  0  0  0  0  0  0  0  0
   55.6060   27.0690   45.9240 N   0  0  0  0  0  0  0  0  0  0  0  0
   56.2690   25.9460   46.3000 C   0  0  0  0  0  0  0  0  0  0  0  0
   55.6280   24.9540   46.7330 O   0  0  0  0  0  0  0  0  0  0  0  0
   57.6210   25.8900   46.2040 N   0  0  0  0  0  0  0  0  0  0  0  0
   58.3360   26.9490   45.7440 C   0  0  0  0  0  0  0  0  0  0  0  0
   59.5910   26.8600   45.6650 O   0  0  0  0  0  0  0  0  0  0  0  0
   57.6770   28.1310   45.3700 C   0  0  0  0  0  0  0  0  0  0  0  0
   58.4490   29.2800   44.8460 C   0  0  0  0  0  0  0  0  0  0  0  0
   58.9157   29.1592   43.8573 H   0  0  0  0  0  0  0  0  0  0  0  0
   58.6350   30.4770   45.4780 C   0  0  0  0  0  0  0  0  0  0  0  0
   59.7190   30.6820   46.3890 C   0  0  0  0  0  0  0  0  0  0  0  0
   60.6690   29.7730   46.6640 C   0  0  0  0  0  0  0  0  0  0  0  0
   60.6358   28.7816   46.1885 H   0  0  0  0  0  0  0  0  0  0  0  0
   61.4802   30.0200   47.3647 H   0  0  0  0  0  0  0  0  0  0  0  0
   59.8360   31.8770   47.0180 N   0  0  0  0  0  0  0  0  0  0  0  0
   58.9870   32.9060   46.8070 C   0  0  0  0  0  0  0  0  0  0  0  0
   59.1640   33.9790   47.4440 O   0  0  0  0  0  0  0  0  0  0  0  0
   57.9580   32.7770   45.9200 N   0  0  0  0  0  0  0  0  0  0  0  0
   57.0210   33.8960   45.7150 C   0  0  0  0  0  0  0  0  0  0  0  0
   56.6953   34.2850   46.6910 H   0  0  0  0  0  0  0  0  0  0  0  0
   57.5228   34.6957   45.1505 H   0  0  0  0  0  0  0  0  0  0  0  0
   56.1456   33.5425   45.1505 H   0  0  0  0  0  0  0  0  0  0  0  0
   57.7410   31.5770   45.2890 C   0  0  0  0  0  0  0  0  0  0  0  0
   56.7180   31.4510   44.5590 O   0  0  0  0  0  0  0  0  0  0  0  0
  1  2  1  0
  2  3  1  0
  3  4  1  0
  4  5  1  0
  5  6  2  0
  5  7  1  0
  7  8  1  0
  8  9  2  0
  8 10  1  0
 10 11  1  0
 11 12  1  0
 11 13  2  0
 13 14  1  0
 14 15  2  0
 15 16  1  0
 15 17  1  0
 14 18  1  0
 18 19  1  0
 19 20  2  0
 19 21  1  0
 21 22  1  0
 22 23  1  0
 22 24  1  0
 22 25  1  0
 21 26  1  0
 26 27  2  0
 10  3  2  0
 26 13  1  0
M  CHG  3   4  -1   7  -1  18  -1
M  END
>  <UniqueID>  (25) 
24

>  <SMILES>  (25) 
C=c1[n-]c(=O)n(C)c(=O)/c1=C\c1c(O)[n-]c(=O)[n-]c1=O

>  <Energy>  (25) 
55.72018344892793

>  <Genealogy>  (25) 
C=c1[n-]c(=O)n(C)c(=O)c1=Cc1c(O)[n-]c(=O)[n-]c1=O (protonated)
C=c1[n-]c(=O)n(C)c(=O)/c1=C\c1c(O)[n-]c(=O)[n-]c1=O (cis-trans isomerization)
C=c1[n-]c(=O)n(C)c(=O)/c1=C\c1c(O)[n-]c(=O)[n-]c1=O (3D coordinates assigned)
C=c1[n-]c(=O)n(C)c(=O)/c1=C\c1c(O)[n-]c(=O)[n-]c1=O (optimized conformer: 55.72018344892793 kcal/mol)

>  <smiles>  (25) 
C=c1[nH]c(=O)n(C)c(=O)c1=Cc1c(O)[nH]c(=O)[nH]c1=O

>  <score_type>  (25) 
oracle

>  <origin>  (25) 
adg

>  <m_score__min__energy>  (25) 
-12.220000000000001

>  <m_primary>  (25) 
energy

$$$$
25:0
     RDKit          3D

 43 46  0  0  0  0  0  0  0  0999 V2000
   54.0260   24.4290   44.8800 O   0  0  0  0  0  0  0  0  0  0  0  0
   54.7320   24.9520   45.7810 C   0  0  0  0  0  0  0  0  0  0  0  0
   54.7030   26.3300   45.9650 O   0  0  0  0  0  0  0  0  0  0  0  0
   55.6390   24.1040   46.6140 C   0  0  0  0  0  0  0  0  0  0  0  0
   56.4790   23.2190   45.7310 C   0  0  0  0  0  0  0  0  0  0  0  0
   55.9490   22.0060   45.2580 C   0  0  0  0  0  0  0  0  0  0  0  0
   56.7010   21.1880   44.4120 C   0  0  0  0  0  0  0  0  0  0  0  0
   57.9860   21.5710   44.0280 C   0  0  0  0  0  0  0  0  0  0  0  0
   58.5200   22.7800   44.4800 C   0  0  0  0  0  0  0  0  0  0  0  0
   57.7650   23.6230   45.3170 C   0  0  0  0  0  0  0  0  0  0  0  0
   58.2890   24.8400   45.7820 O   0  0  0  0  0  0  0  0  0  0  0  0
   58.0080   26.1040   45.2430 C   0  0  0  0  0  0  0  0  0  0  0  0
   58.0960   26.3610   43.8640 C   0  0  0  0  0  0  0  0  0  0  0  0
   57.7930   27.6300   43.3620 C   0  0  0  0  0  0  0  0  0  0  0  0
   57.3990   28.6620   44.2300 C   0  0  0  0  0  0  0  0  0  0  0  0
   57.0580   30.0060   43.7100 C   0  0  0  0  0  0  0  0  0  0  0  0
   56.3170   30.1020   42.6950 O   0  0  0  0  0  0  0  0  0  0  0  0
   57.5520   31.2450   44.3430 C   0  0  0  0  0  0  0  0  0  0  0  0
   57.4380   31.4770   45.6780 N   0  0  0  0  0  0  0  0  0  0  0  0
   58.0370   32.6710   45.8270 C   0  0  0  0  0  0  0  0  0  0  0  0
   58.2140   33.3980   47.0030 C   0  0  0  0  0  0  0  0  0  0  0  0
   58.8900   34.6290   46.9150 C   0  0  0  0  0  0  0  0  0  0  0  0
   59.3700   35.0960   45.6690 C   0  0  0  0  0  0  0  0  0  0  0  0
   59.1750   34.3350   44.5000 C   0  0  0  0  0  0  0  0  0  0  0  0
   58.4980   33.1240   44.6270 C   0  0  0  0  0  0  0  0  0  0  0  0
   58.2040   32.2310   43.6750 N   0  0  0  0  0  0  0  0  0  0  0  0
   57.2750   28.3900   45.6020 C   0  0  0  0  0  0  0  0  0  0  0  0
   57.5770   27.1200   46.1020 C   0  0  0  0  0  0  0  0  0  0  0  0
   56.2975   24.7529   47.2100 H   0  0  0  0  0  0  0  0  0  0  0  0
   55.0307   23.4739   47.2796 H   0  0  0  0  0  0  0  0  0  0  0  0
   54.9356   21.6992   45.5561 H   0  0  0  0  0  0  0  0  0  0  0  0
   56.2790   20.2397   44.0477 H   0  0  0  0  0  0  0  0  0  0  0  0
   58.5794   20.9205   43.3687 H   0  0  0  0  0  0  0  0  0  0  0  0
   59.5364   23.0750   44.1801 H   0  0  0  0  0  0  0  0  0  0  0  0
   58.4048   25.5598   43.1765 H   0  0  0  0  0  0  0  0  0  0  0  0
   57.8635   27.8216   42.2811 H   0  0  0  0  0  0  0  0  0  0  0  0
   57.8383   33.0225   47.9663 H   0  0  0  0  0  0  0  0  0  0  0  0
   59.0463   35.2323   47.8214 H   0  0  0  0  0  0  0  0  0  0  0  0
   59.8986   36.0590   45.6128 H   0  0  0  0  0  0  0  0  0  0  0  0
   59.5432   34.6836   43.5238 H   0  0  0  0  0  0  0  0  0  0  0  0
   58.4560   32.2780   42.6620 H   0  0  0  0  0  0  0  0  0  0  0  0
   56.9381   29.1814   46.2877 H   0  0  0  0  0  0  0  0  0  0  0  0
   57.4749   26.9184   47.1785 H   0  0  0  0  0  0  0  0  0  0  0  0
  1  2  2  0
  2  3  1  0
  2  4  1  0
  4  5  1  0
  5  6  2  0
  6  7  1  0
  7  8  2  0
  8  9  1  0
  9 10  2  0
 10 11  1  0
 11 12  1  0
 12 13  2  0
 13 14  1  0
 14 15  2  0
 15 16  1  0
 16 17  2  0
 16 18  1  0
 18 19  2  0
 19 20  1  0
 20 21  2  0
 21 22  1  0
 22 23  2  0
 23 24  1  0
 24 25  2  0
 25 26  1  0
 15 27  1  0
 27 28  2  0
 10  5  1  0
 28 12  1  0
 26 18  1  0
 25 20  1  0
  4 29  1  0
  4 30  1  0
  6 31  1  0
  7 32  1  0
  8 33  1  0
  9 34  1  0
 13 35  1  0
 14 36  1  0
 21 37  1  0
 22 38  1  0
 23 39  1  0
 24 40  1  0
 26 41  1  0
 27 42  1  0
 28 43  1  0
M  CHG  1   3  -1
M  END
>  <UniqueID>  (26) 
25

>  <SMILES>  (26) 
O=C([O-])Cc1ccccc1Oc1ccc(C(=O)c2nc3ccccc3[nH]2)cc1

>  <Energy>  (26) 
93.03656306332265

>  <Genealogy>  (26) 
O=C([O-])Cc1ccccc1Oc1ccc(C(=O)c2nc3ccccc3[nH]2)cc1 (protonated)
O=C([O-])Cc1ccccc1Oc1ccc(C(=O)c2nc3ccccc3[nH]2)cc1 (3D coordinates assigned)
O=C([O-])Cc1ccccc1Oc1ccc(C(=O)c2nc3ccccc3[nH]2)cc1 (optimized conformer: 93.03656306332265 kcal/mol)

>  <smiles>  (26) 
O=C(O)Cc1ccccc1Oc1ccc(C(=O)c2nc3ccccc3[nH]2)cc1

>  <score_type>  (26) 
oracle

>  <origin>  (26) 
adg

>  <m_score__min__energy>  (26) 
-11.449999999999999

>  <m_primary>  (26) 
energy

$$$$
26:0
     RDKit          3D

 41 43  0  0  0  0  0  0  0  0999 V2000
   57.1510   33.5900   45.2840 O   0  0  0  0  0  0  0  0  0  0  0  0
   57.3260   32.3520   45.4300 C   0  0  0  0  0  0  0  0  0  0  0  0
   56.5030   31.4490   44.6830 N   0  0  0  0  0  0  0  0  0  0  0  0
   57.0160   30.4750   43.7290 C   0  0  0  0  0  0  0  0  0  0  0  0
   57.5270   29.2750   44.4700 C   0  0  0  0  0  0  0  0  0  0  0  0
   58.9020   29.0100   44.5290 C   0  0  0  0  0  0  0  0  0  0  0  0
   59.3550   27.8710   45.1940 C   0  0  0  0  0  0  0  0  0  0  0  0
   58.4660   27.0180   45.7690 N   0  0  0  0  0  0  0  0  0  0  0  0
   57.1230   27.2340   45.7200 C   0  0  0  0  0  0  0  0  0  0  0  0
   56.2120   26.2640   46.3580 C   0  0  0  0  0  0  0  0  0  0  0  0
   56.6030   25.5820   47.3440 O   0  0  0  0  0  0  0  0  0  0  0  0
   54.9010   26.0680   45.8120 N   0  0  0  0  0  0  0  0  0  0  0  0
   54.2310   24.8120   45.6270 C   0  0  0  0  0  0  0  0  0  0  0  0
   52.8830   24.8200   45.2520 C   0  0  0  0  0  0  0  0  0  0  0  0
   52.2040   23.6100   45.0860 C   0  0  0  0  0  0  0  0  0  0  0  0
   52.8480   22.4320   45.3050 N   0  0  0  0  0  0  0  0  0  0  0  0
   54.1510   22.3930   45.6910 C   0  0  0  0  0  0  0  0  0  0  0  0
   54.7090   21.2830   45.8960 O   0  0  0  0  0  0  0  0  0  0  0  0
   54.8670   23.5820   45.8660 C   0  0  0  0  0  0  0  0  0  0  0  0
   56.6300   28.3710   45.0590 C   0  0  0  0  0  0  0  0  0  0  0  0
   58.3580   31.8620   46.3050 N   0  0  0  0  0  0  0  0  0  0  0  0
   59.0170   32.6690   47.2960 C   0  0  0  0  0  0  0  0  0  0  0  0
   59.7690   33.8050   46.9390 C   0  0  0  0  0  0  0  0  0  0  0  0
   60.3760   34.5880   47.9260 C   0  0  0  0  0  0  0  0  0  0  0  0
   60.2300   34.2530   49.2750 C   0  0  0  0  0  0  0  0  0  0  0  0
   59.4680   33.1410   49.6390 C   0  0  0  0  0  0  0  0  0  0  0  0
   58.8580   32.3560   48.6560 C   0  0  0  0  0  0  0  0  0  0  0  0
   56.2092   30.1692   43.0467 H   0  0  0  0  0  0  0  0  0  0  0  0
   57.8347   30.9249   43.1481 H   0  0  0  0  0  0  0  0  0  0  0  0
   59.6190   29.6958   44.0540 H   0  0  0  0  0  0  0  0  0  0  0  0
   60.4334   27.6623   45.2534 H   0  0  0  0  0  0  0  0  0  0  0  0
   52.3604   25.7740   45.0887 H   0  0  0  0  0  0  0  0  0  0  0  0
   51.1480   23.6101   44.7780 H   0  0  0  0  0  0  0  0  0  0  0  0
   55.9185   23.5543   46.1878 H   0  0  0  0  0  0  0  0  0  0  0  0
   55.5464   28.5518   45.0034 H   0  0  0  0  0  0  0  0  0  0  0  0
   58.7160   30.8930   46.1550 H   0  0  0  0  0  0  0  0  0  0  0  0
   59.8794   34.0776   45.8790 H   0  0  0  0  0  0  0  0  0  0  0  0
   60.9694   35.4690   47.6401 H   0  0  0  0  0  0  0  0  0  0  0  0
   60.7152   34.8651   50.0496 H   0  0  0  0  0  0  0  0  0  0  0  0
   59.3474   32.8821   50.7013 H   0  0  0  0  0  0  0  0  0  0  0  0
   58.2497   31.4878   48.9495 H   0  0  0  0  0  0  0  0  0  0  0  0
  1  2  2  0
  2  3  1  0
  3  4  1  0
  4  5  1  0
  5  6  2  0
  6  7  1  0
  7  8  2  0
  8  9  1  0
  9 10  1  0
 10 11  2  0
 10 12  1  0
 12 13  1  0
 13 14  1  0
 14 15  2  0
 15 16  1  0
 16 17  1  0
 17 18  2  0
 17 19  1  0
  9 20  2  0
  2 21  1  0
 21 22  1  0
 22 23  2  0
 23 24  1  0
 24 25  2  0
 25 26  1  0
 26 27  2  0
 20  5  1  0
 27 22  1  0
 19 13  2  0
  4 28  1  0
  4 29  1  0
  6 30  1  0
  7 31  1  0
 14 32  1  0
 15 33  1  0
 19 34  1  0
 20 35  1  0
 21 36  1  0
 23 37  1  0
 24 38  1  0
 25 39  1  0
 26 40  1  0
 27 41  1  0
M  CHG  3   3  -1  12  -1  16  -1
M  END
>  <UniqueID>  (27) 
26

>  <SMILES>  (27) 
O=C([N-]Cc1ccnc(C(=O)[N-]c2cc[n-]c(=O)c2)c1)Nc1ccccc1

>  <Energy>  (27) 
49.83423963745712

>  <Genealogy>  (27) 
O=C([N-]Cc1ccnc(C(=O)[N-]c2cc[n-]c(=O)c2)c1)Nc1ccccc1 (protonated)
O=C([N-]Cc1ccnc(C(=O)[N-]c2cc[n-]c(=O)c2)c1)Nc1ccccc1 (3D coordinates assigned)
O=C([N-]Cc1ccnc(C(=O)[N-]c2cc[n-]c(=O)c2)c1)Nc1ccccc1 (optimized conformer: 49.83423963745712 kcal/mol)

>  <smiles>  (27) 
O=C(NCc1ccnc(C(=O)Nc2cc[nH]c(=O)c2)c1)Nc1ccccc1

>  <score_type>  (27) 
oracle

>  <origin>  (27) 
adg

>  <m_score__min__energy>  (27) 
-13.699999999999999

>  <m_primary>  (27) 
energy

$$$$
27:0
     RDKit          3D

 44 46  0  0  0  0  0  0  0  0999 V2000
   56.1530   28.6440   44.9310 N   0  0  0  0  0  0  0  0  0  0  0  0
   56.9220   27.2490   45.6110 S   0  0  0  0  0  0  0  0  0  0  0  0
   57.3760   26.3580   44.4890 O   0  0  0  0  0  0  0  0  0  0  0  0
   55.9220   26.5140   46.4580 O   0  0  0  0  0  0  0  0  0  0  0  0
   58.3200   27.6840   46.6080 C   0  0  0  0  0  0  0  0  0  0  0  0
   59.2250   26.6960   47.0290 C   0  0  0  0  0  0  0  0  0  0  0  0
   60.3230   27.0350   47.8230 C   0  0  0  0  0  0  0  0  0  0  0  0
   60.5260   28.3590   48.2100 C   0  0  0  0  0  0  0  0  0  0  0  0
   59.6350   29.3520   47.7960 C   0  0  0  0  0  0  0  0  0  0  0  0
   58.5220   29.0260   46.9980 C   0  0  0  0  0  0  0  0  0  0  0  0
   57.5900   30.0330   46.5700 N   0  0  0  0  0  0  0  0  0  0  0  0
   57.7420   30.9900   45.1330 S   0  0  0  0  0  0  0  0  0  0  0  0
   56.3830   31.1870   44.5250 O   0  0  0  0  0  0  0  0  0  0  0  0
   58.6210   30.2690   44.1470 O   0  0  0  0  0  0  0  0  0  0  0  0
   58.4160   32.5620   45.5460 C   0  0  0  0  0  0  0  0  0  0  0  0
   58.6640   33.5200   44.5520 C   0  0  0  0  0  0  0  0  0  0  0  0
   59.2260   34.7530   44.8920 C   0  0  0  0  0  0  0  0  0  0  0  0
   59.5450   35.0380   46.2220 C   0  0  0  0  0  0  0  0  0  0  0  0
   59.3020   34.0860   47.2250 C   0  0  0  0  0  0  0  0  0  0  0  0
   59.6050   34.3940   48.6660 C   0  0  0  0  0  0  0  0  0  0  0  0
   59.8340   33.1890   49.3920 O   0  0  0  0  0  0  0  0  0  0  0  0
   61.1030   32.6220   49.5670 C   0  0  0  0  0  0  0  0  0  0  0  0
   61.3490   31.9040   50.5740 O   0  0  0  0  0  0  0  0  0  0  0  0
   62.1240   32.8600   48.5910 N   0  0  0  0  0  0  0  0  0  0  0  0
   62.4460   32.0560   47.5600 C   0  0  0  0  0  0  0  0  0  0  0  0
   63.4730   32.6470   46.8560 C   0  0  0  0  0  0  0  0  0  0  0  0
   63.7270   33.8280   47.5280 C   0  0  0  0  0  0  0  0  0  0  0  0
   62.8930   33.9370   48.5810 N   0  0  0  0  0  0  0  0  0  0  0  0
   58.7280   32.8520   46.8810 C   0  0  0  0  0  0  0  0  0  0  0  0
   55.9990   29.3280   45.7060 H   0  0  0  0  0  0  0  0  0  0  0  0
   56.8210   29.0750   44.2540 H   0  0  0  0  0  0  0  0  0  0  0  0
   59.0681   25.6487   46.7316 H   0  0  0  0  0  0  0  0  0  0  0  0
   61.0295   26.2553   48.1439 H   0  0  0  0  0  0  0  0  0  0  0  0
   61.3877   28.6216   48.8413 H   0  0  0  0  0  0  0  0  0  0  0  0
   59.8043   30.3967   48.0958 H   0  0  0  0  0  0  0  0  0  0  0  0
   58.4156   33.3002   43.5032 H   0  0  0  0  0  0  0  0  0  0  0  0
   59.4180   35.5021   44.1097 H   0  0  0  0  0  0  0  0  0  0  0  0
   59.9875   36.0104   46.4840 H   0  0  0  0  0  0  0  0  0  0  0  0
   60.5031   35.0268   48.7207 H   0  0  0  0  0  0  0  0  0  0  0  0
   58.7458   34.9200   49.1077 H   0  0  0  0  0  0  0  0  0  0  0  0
   61.9711   31.0931   47.3208 H   0  0  0  0  0  0  0  0  0  0  0  0
   63.9789   32.2635   45.9576 H   0  0  0  0  0  0  0  0  0  0  0  0
   64.4927   34.5659   47.2464 H   0  0  0  0  0  0  0  0  0  0  0  0
   58.5218   32.1079   47.6644 H   0  0  0  0  0  0  0  0  0  0  0  0
  1  2  1  0
  2  3  2  0
  2  4  2  0
  2  5  1  0
  5  6  2  0
  6  7  1  0
  7  8  2  0
  8  9  1  0
  9 10  2  0
 10 11  1  0
 11 12  1  0
 12 13  2  0
 12 14  2  0
 12 15  1  0
 15 16  2  0
 16 17  1  0
 17 18  2  0
 18 19  1  0
 19 20  1  0
 20 21  1  0
 21 22  1  0
 22 23  2  0
 22 24  1  0
 24 25  1  0
 25 26  2  0
 26 27  1  0
 27 28  2  0
 19 29  2  0
 10  5  1  0
 29 15  1  0
 28 24  1  0
  1 30  1  0
  1 31  1  0
  6 32  1  0
  7 33  1  0
  8 34  1  0
  9 35  1  0
 16 36  1  0
 17 37  1  0
 18 38  1  0
 20 39  1  0
 20 40  1  0
 25 41  1  0
 26 42  1  0
 27 43  1  0
 29 44  1  0
M  CHG  1  11  -1
M  END
>  <UniqueID>  (28) 
27

>  <SMILES>  (28) 
NS(=O)(=O)c1ccccc1[N-]S(=O)(=O)c1cccc(COC(=O)n2cccn2)c1

>  <Energy>  (28) 
76.32325714949637

>  <Genealogy>  (28) 
NS(=O)(=O)c1ccccc1[N-]S(=O)(=O)c1cccc(COC(=O)n2cccn2)c1 (protonated)
NS(=O)(=O)c1ccccc1[N-]S(=O)(=O)c1cccc(COC(=O)n2cccn2)c1 (3D coordinates assigned)
NS(=O)(=O)c1ccccc1[N-]S(=O)(=O)c1cccc(COC(=O)n2cccn2)c1 (optimized conformer: 76.32325714949637 kcal/mol)

>  <smiles>  (28) 
NS(=O)(=O)c1ccccc1NS(=O)(=O)c1cccc(COC(=O)n2cccn2)c1

>  <score_type>  (28) 
oracle

>  <origin>  (28) 
adg

>  <m_score__min__energy>  (28) 
-9.9800000000000004

>  <m_primary>  (28) 
energy

$$$$
28:0
     RDKit          3D

 29 31  0  0  0  0  0  0  0  0999 V2000
   60.3060   22.5460   45.2840 N   0  0  0  0  0  0  0  0  0  0  0  0
   59.0470   22.4020   45.0640 C   0  0  0  0  0  0  0  0  0  0  0  0
   58.5190   21.4540   44.2390 N   0  0  0  0  0  0  0  0  0  0  0  0
   57.1780   21.5720   44.2310 C   0  0  0  0  0  0  0  0  0  0  0  0
   56.3390   20.7520   43.4850 O   0  0  0  0  0  0  0  0  0  0  0  0
   56.8600   22.6190   45.0740 C   0  0  0  0  0  0  0  0  0  0  0  0
   55.4510   23.0410   45.3330 C   0  0  0  0  0  0  0  0  0  0  0  0
   55.5400   24.2370   46.6950 S   0  0  0  0  0  0  0  0  0  0  0  0
   56.4300   25.7010   46.1800 C   0  0  0  0  0  0  0  0  0  0  0  0
   57.7650   25.8450   45.9780 N   0  0  0  0  0  0  0  0  0  0  0  0
   57.9990   27.1310   45.5780 C   0  0  0  0  0  0  0  0  0  0  0  0
   59.1740   27.8030   45.2410 C   0  0  0  0  0  0  0  0  0  0  0  0
   59.1140   29.1400   44.8630 C   0  0  0  0  0  0  0  0  0  0  0  0
   57.8750   29.7790   44.8300 C   0  0  0  0  0  0  0  0  0  0  0  0
   56.7030   29.1120   45.1640 C   0  0  0  0  0  0  0  0  0  0  0  0
   56.7670   27.7650   45.5460 C   0  0  0  0  0  0  0  0  0  0  0  0
   55.8100   26.8880   45.9150 N   0  0  0  0  0  0  0  0  0  0  0  0
   58.0040   23.1160   45.5750 N   0  0  0  0  0  0  0  0  0  0  0  0
   61.0740   22.1250   44.7460 H   0  0  0  0  0  0  0  0  0  0  0  0
   59.0570   20.7290   43.6790 H   0  0  0  0  0  0  0  0  0  0  0  0
   56.6350   19.7810   43.2990 H   0  0  0  0  0  0  0  0  0  0  0  0
   55.0205   23.5115   44.4367 H   0  0  0  0  0  0  0  0  0  0  0  0
   54.8101   22.1836   45.5864 H   0  0  0  0  0  0  0  0  0  0  0  0
   60.1408   27.2793   45.2740 H   0  0  0  0  0  0  0  0  0  0  0  0
   60.0305   29.6855   44.5940 H   0  0  0  0  0  0  0  0  0  0  0  0
   57.8244   30.8367   44.5323 H   0  0  0  0  0  0  0  0  0  0  0  0
   55.7359   29.6350   45.1291 H   0  0  0  0  0  0  0  0  0  0  0  0
   54.7750   27.0960   45.9810 H   0  0  0  0  0  0  0  0  0  0  0  0
   58.0780   23.9160   46.2430 H   0  0  0  0  0  0  0  0  0  0  0  0
  1  2  2  3
  2  3  1  0
  3  4  1  0
  4  5  1  0
  4  6  2  0
  6  7  1  0
  7  8  1  0
  8  9  1  0
  9 10  2  0
 10 11  1  0
 11 12  2  0
 12 13  1  0
 13 14  2  0
 14 15  1  0
 15 16  2  0
 16 17  1  0
  6 18  1  0
 18  2  1  0
 17  9  1  0
 16 11  1  0
  1 19  1  0
  3 20  1  0
  5 21  1  0
  7 22  1  0
  7 23  1  0
 12 24  1  0
 13 25  1  0
 14 26  1  0
 15 27  1  0
 17 28  1  0
 18 29  1  0
M  END
>  <smiles>  (29) 
N=c1[nH]c(O)c(CSc2nc3ccccc3[nH]2)[nH]1

>  <score_type>  (29) 
oracle

>  <origin>  (29) 
adg

>  <m_score__min__energy>  (29) 
-7.3700000000000001

>  <m_primary>  (29) 
energy

$$$$
29:0
     RDKit          3D

 50 52  0  0  0  0  0  0  0  0999 V2000
   56.6730   34.5910   44.8400 C   0  0  0  0  0  0  0  0  0  0  0  0
   57.5360   33.4560   45.3040 C   0  0  0  0  0  0  0  0  0  0  0  0
   57.3220   32.2230   44.7770 N   0  0  0  0  0  0  0  0  0  0  0  0
   58.0470   31.1570   45.1180 N   0  0  0  0  0  0  0  0  0  0  0  0
   57.7160   29.8690   44.4950 C   0  0  0  0  0  0  0  0  0  0  0  0
   56.2750   29.4960   44.7300 C   0  0  0  0  0  0  0  0  0  0  0  0
   55.3560   30.3130   44.4550 O   0  0  0  0  0  0  0  0  0  0  0  0
   55.9200   28.2120   45.2590 N   0  0  0  0  0  0  0  0  0  0  0  0
   56.8930   27.1900   45.6290 C   0  0  0  0  0  0  0  0  0  0  0  0
   56.1840   25.9830   46.2560 C   0  0  2  0  0  0  0  0  0  0  0  0
   56.7630   24.6530   45.7670 C   0  0  0  0  0  0  0  0  0  0  0  0
   55.6960   24.1160   44.8640 C   0  0  0  0  0  0  0  0  0  0  0  0
   54.4490   24.8010   45.3720 C   0  0  0  0  0  0  0  0  0  0  0  0
   54.8110   26.0410   45.9320 O   0  0  0  0  0  0  0  0  0  0  0  0
   59.0410   31.2620   46.0520 C   0  0  0  0  0  0  0  0  0  0  0  0
   59.6860   30.2360   46.4090 O   0  0  0  0  0  0  0  0  0  0  0  0
   59.3260   32.5100   46.6340 C   0  0  0  0  0  0  0  0  0  0  0  0
   60.3890   32.6200   47.6590 C   0  0  0  0  0  0  0  0  0  0  0  0
   60.2160   33.3860   48.6460 O   0  0  0  0  0  0  0  0  0  0  0  0
   61.5890   31.8370   47.5430 N   0  0  0  0  0  0  0  0  0  0  0  0
   62.7200   31.9700   48.4210 C   0  0  0  0  0  0  0  0  0  0  0  0
   62.8200   31.2110   49.6030 C   0  0  0  0  0  0  0  0  0  0  0  0
   63.9170   31.3720   50.4550 C   0  0  0  0  0  0  0  0  0  0  0  0
   64.9160   32.2970   50.1440 C   0  0  0  0  0  0  0  0  0  0  0  0
   64.8160   33.0710   48.9850 C   0  0  0  0  0  0  0  0  0  0  0  0
   63.7200   32.9150   48.1290 C   0  0  0  0  0  0  0  0  0  0  0  0
   63.6410   33.6710   47.0050 F   0  0  0  0  0  0  0  0  0  0  0  0
   58.5640   33.6330   46.2510 C   0  0  0  0  0  0  0  0  0  0  0  0
   58.8510   34.9390   46.7830 N   0  0  0  0  0  0  0  0  0  0  0  0
   56.2677   35.1240   45.7127 H   0  0  0  0  0  0  0  0  0  0  0  0
   57.2740   35.2844   44.2334 H   0  0  0  0  0  0  0  0  0  0  0  0
   55.8441   34.1972   44.2334 H   0  0  0  0  0  0  0  0  0  0  0  0
   57.8950   29.9393   43.4119 H   0  0  0  0  0  0  0  0  0  0  0  0
   58.3515   29.0934   44.9473 H   0  0  0  0  0  0  0  0  0  0  0  0
   57.4373   26.8646   44.7302 H   0  0  0  0  0  0  0  0  0  0  0  0
   57.5955   27.6131   46.3621 H   0  0  0  0  0  0  0  0  0  0  0  0
   56.3340   26.0294   47.3447 H   0  0  0  0  0  0  0  0  0  0  0  0
   57.7012   24.8121   45.2152 H   0  0  0  0  0  0  0  0  0  0  0  0
   57.0123   23.9668   46.5898 H   0  0  0  0  0  0  0  0  0  0  0  0
   55.8943   24.3817   43.8152 H   0  0  0  0  0  0  0  0  0  0  0  0
   55.6258   23.0183   44.8788 H   0  0  0  0  0  0  0  0  0  0  0  0
   53.7493   24.9615   44.5386 H   0  0  0  0  0  0  0  0  0  0  0  0
   53.9610   24.1744   46.1331 H   0  0  0  0  0  0  0  0  0  0  0  0
   61.6250   31.0920   46.8120 H   0  0  0  0  0  0  0  0  0  0  0  0
   62.0311   30.4878   49.8573 H   0  0  0  0  0  0  0  0  0  0  0  0
   63.9932   30.7690   51.3718 H   0  0  0  0  0  0  0  0  0  0  0  0
   65.7820   32.4163   50.8117 H   0  0  0  0  0  0  0  0  0  0  0  0
   65.6001   33.8042   48.7450 H   0  0  0  0  0  0  0  0  0  0  0  0
   59.1130   35.0810   47.7820 H   0  0  0  0  0  0  0  0  0  0  0  0
   58.8590   35.7910   46.1810 H   0  0  0  0  0  0  0  0  0  0  0  0
  1  2  1  0
  2  3  2  0
  3  4  1  0
  4  5  1  0
  5  6  1  0
  6  7  2  0
  6  8  1  0
  8  9  1  0
  9 10  1  0
 10 11  1  0
 11 12  1  0
 12 13  1  0
 13 14  1  0
  4 15  1  0
 15 16  2  0
 15 17  1  0
 17 18  1  0
 18 19  2  0
 18 20  1  0
 20 21  1  0
 21 22  2  0
 22 23  1  0
 23 24  2  0
 24 25  1  0
 25 26  2  0
 26 27  1  0
 17 28  2  0
 28 29  1  0
 28  2  1  0
 14 10  1  0
 26 21  1  0
  1 30  1  0
  1 31  1  0
  1 32  1  0
  5 33  1  0
  5 34  1  0
  9 35  1  0
  9 36  1  0
 10 37  1  1
 11 38  1  0
 11 39  1  0
 12 40  1  0
 12 41  1  0
 13 42  1  0
 13 43  1  0
 20 44  1  0
 22 45  1  0
 23 46  1  0
 24 47  1  0
 25 48  1  0
 29 49  1  0
 29 50  1  0
M  CHG  1   8  -1
M  END
>  <UniqueID>  (30) 
28

>  <SMILES>  (30) 
Cc1nn(CC(=O)[N-]C[C@@H]2CCCO2)c(=O)c(C(=O)Nc2ccccc2F)c1N

>  <Energy>  (30) 
60.5522100590533

>  <Genealogy>  (30) 
Cc1nn(CC(=O)[N-]CC2CCCO2)c(=O)c(C(=O)Nc2ccccc2F)c1N (protonated)
Cc1nn(CC(=O)[N-]C[C@@H]2CCCO2)c(=O)c(C(=O)Nc2ccccc2F)c1N (chirality)
Cc1nn(CC(=O)[N-]C[C@@H]2CCCO2)c(=O)c(C(=O)Nc2ccccc2F)c1N (3D coordinates assigned)
Cc1nn(CC(=O)[N-]C[C@@H]2CCCO2)c(=O)c(C(=O)Nc2ccccc2F)c1N (nonaromatic ring conformer: 60.5522100590533 kcal/mol)

>  <smiles>  (30) 
Cc1nn(CC(=O)NCC2CCCO2)c(=O)c(C(=O)Nc2ccccc2F)c1N

>  <score_type>  (30) 
oracle

>  <origin>  (30) 
adg

>  <m_score__min__energy>  (30) 
-10.66

>  <m_primary>  (30) 
energy

$$$$
30:0
     RDKit          3D

 59 62  0  0  0  0  0  0  0  0999 V2000
   56.6230   32.3350   52.1840 C   0  0  0  0  0  0  0  0  0  0  0  0
   57.5370   31.1940   51.8740 C   0  0  0  0  0  0  0  0  0  0  0  0
   57.4970   30.0330   52.4850 O   0  0  0  0  0  0  0  0  0  0  0  0
   58.4100   29.2270   52.0240 N   0  0  0  0  0  0  0  0  0  0  0  0
   59.0830   29.8860   51.0590 C   0  0  0  0  0  0  0  0  0  0  0  0
   60.2690   29.3490   50.3530 C   0  0  0  0  0  0  0  0  0  0  0  0
   61.4160   29.6770   50.7530 O   0  0  0  0  0  0  0  0  0  0  0  0
   60.1700   28.4760   49.2180 N   0  0  0  0  0  0  0  0  0  0  0  0
   60.3250   28.8400   47.8120 C   0  0  2  0  0  0  0  0  0  0  0  0
   60.3320   30.3810   47.6610 C   0  0  0  0  0  0  0  0  0  0  0  0
   61.5030   30.9100   46.8140 C   0  0  0  0  0  0  0  0  0  0  0  0
   62.4290   31.7970   47.6060 C   0  0  0  0  0  0  0  0  0  0  0  0
   62.9060   33.0000   47.0570 C   0  0  0  0  0  0  0  0  0  0  0  0
   63.7410   33.8340   47.8080 C   0  0  0  0  0  0  0  0  0  0  0  0
   64.1060   33.4720   49.1090 C   0  0  0  0  0  0  0  0  0  0  0  0
   63.6380   32.2770   49.6600 C   0  0  0  0  0  0  0  0  0  0  0  0
   62.8030   31.4400   48.9120 C   0  0  0  0  0  0  0  0  0  0  0  0
   59.2410   28.1620   47.0000 C   0  0  0  0  0  0  0  0  0  0  0  0
   58.3000   28.8670   46.5470 O   0  0  0  0  0  0  0  0  0  0  0  0
   59.1950   26.7450   46.7830 N   0  0  0  0  0  0  0  0  0  0  0  0
   58.0930   26.0020   46.2490 C   0  0  0  0  0  0  0  0  0  0  0  0
   58.3370   24.7720   45.6370 C   0  0  0  0  0  0  0  0  0  0  0  0
   57.2800   24.0180   45.1230 C   0  0  0  0  0  0  0  0  0  0  0  0
   55.9540   24.4690   45.2370 C   0  0  0  0  0  0  0  0  0  0  0  0
   54.8650   23.5960   44.7470 C   0  0  0  0  0  0  0  0  0  0  0  0
   53.6820   23.7820   45.1380 O   0  0  0  0  0  0  0  0  0  0  0  0
   55.1120   22.6110   43.7980 O   0  0  0  0  0  0  0  0  0  0  0  0
   55.7070   25.7180   45.8590 C   0  0  0  0  0  0  0  0  0  0  0  0
   54.4300   26.2750   45.9470 O   0  0  0  0  0  0  0  0  0  0  0  0
   56.7750   26.4530   46.3870 C   0  0  0  0  0  0  0  0  0  0  0  0
   58.5550   31.1650   50.9390 C   0  0  0  0  0  0  0  0  0  0  0  0
   58.9430   32.2370   49.9990 C   0  0  0  0  0  0  0  0  0  0  0  0
   58.3050   32.3390   48.7540 C   0  0  0  0  0  0  0  0  0  0  0  0
   58.6640   33.3470   47.8520 C   0  0  0  0  0  0  0  0  0  0  0  0
   57.8440   33.4540   46.3030 Cl  0  0  0  0  0  0  0  0  0  0  0  0
   59.6660   34.2650   48.1920 C   0  0  0  0  0  0  0  0  0  0  0  0
   60.0270   35.2740   47.3070 O   0  0  0  0  0  0  0  0  0  0  0  0
   60.3120   34.1670   49.4280 C   0  0  0  0  0  0  0  0  0  0  0  0
   59.9610   33.1540   50.3280 C   0  0  0  0  0  0  0  0  0  0  0  0
   60.6430   33.0560   51.5380 O   0  0  0  0  0  0  0  0  0  0  0  0
   56.5332   32.4470   53.2746 H   0  0  0  0  0  0  0  0  0  0  0  0
   57.0325   33.2604   51.7528 H   0  0  0  0  0  0  0  0  0  0  0  0
   55.6305   32.1374   51.7528 H   0  0  0  0  0  0  0  0  0  0  0  0
   61.2915   28.4872   47.4229 H   0  0  0  0  0  0  0  0  0  0  0  0
   59.3901   30.6882   47.1831 H   0  0  0  0  0  0  0  0  0  0  0  0
   60.4456   30.8042   48.6699 H   0  0  0  0  0  0  0  0  0  0  0  0
   62.0766   30.0536   46.4299 H   0  0  0  0  0  0  0  0  0  0  0  0
   61.0806   31.5113   45.9954 H   0  0  0  0  0  0  0  0  0  0  0  0
   62.6218   33.2864   46.0337 H   0  0  0  0  0  0  0  0  0  0  0  0
   64.1109   34.7752   47.3752 H   0  0  0  0  0  0  0  0  0  0  0  0
   64.7622   34.1291   49.6986 H   0  0  0  0  0  0  0  0  0  0  0  0
   63.9262   31.9937   50.6831 H   0  0  0  0  0  0  0  0  0  0  0  0
   62.4379   30.4986   49.3484 H   0  0  0  0  0  0  0  0  0  0  0  0
   59.3672   24.3944   45.5590 H   0  0  0  0  0  0  0  0  0  0  0  0
   57.4877   23.0603   44.6233 H   0  0  0  0  0  0  0  0  0  0  0  0
   53.6450   25.8000   46.3710 H   0  0  0  0  0  0  0  0  0  0  0  0
   56.5761   27.3963   46.9167 H   0  0  0  0  0  0  0  0  0  0  0  0
   57.5163   31.6211   48.4845 H   0  0  0  0  0  0  0  0  0  0  0  0
   61.0987   34.8883   49.6941 H   0  0  0  0  0  0  0  0  0  0  0  0
  1  2  1  0
  2  3  1  0
  3  4  1  0
  4  5  2  0
  5  6  1  0
  6  7  2  0
  6  8  1  0
  8  9  1  0
  9 10  1  0
 10 11  1  0
 11 12  1  0
 12 13  2  0
 13 14  1  0
 14 15  2  0
 15 16  1  0
 16 17  2  0
  9 18  1  0
 18 19  2  0
 18 20  1  0
 20 21  1  0
 21 22  2  0
 22 23  1  0
 23 24  2  0
 24 25  1  0
 25 26  2  0
 25 27  1  0
 24 28  1  0
 28 29  1  0
 28 30  2  0
  5 31  1  0
 31 32  1  0
 32 33  2  0
 33 34  1  0
 34 35  1  0
 34 36  2  0
 36 37  1  0
 36 38  1  0
 38 39  2  0
 39 40  1  0
 31  2  2  0
 39 32  1  0
 17 12  1  0
 30 21  1  0
  1 41  1  0
  1 42  1  0
  1 43  1  0
  9 44  1  6
 10 45  1  0
 10 46  1  0
 11 47  1  0
 11 48  1  0
 13 49  1  0
 14 50  1  0
 15 51  1  0
 16 52  1  0
 17 53  1  0
 22 54  1  0
 23 55  1  0
 29 56  1  0
 30 57  1  0
 33 58  1  0
 38 59  1  0
M  CHG  5   8  -1  20  -1  27  -1  37  -1  40  -1
M  END
>  <UniqueID>  (31) 
29

>  <SMILES>  (31) 
Cc1onc(C(=O)[N-][C@H](CCc2ccccc2)C(=O)[N-]c2ccc(C(=O)[O-])c(O)c2)c1-c1cc(Cl)c([O-])cc1[O-]

>  <Energy>  (31) 
111.01809687478321

>  <Genealogy>  (31) 
Cc1onc(C(=O)[N-]C(CCc2ccccc2)C(=O)[N-]c2ccc(C(=O)[O-])c(O)c2)c1-c1cc(Cl)c([O-])cc1[O-] (protonated)
Cc1onc(C(=O)[N-][C@H](CCc2ccccc2)C(=O)[N-]c2ccc(C(=O)[O-])c(O)c2)c1-c1cc(Cl)c([O-])cc1[O-] (chirality)
Cc1onc(C(=O)[N-][C@H](CCc2ccccc2)C(=O)[N-]c2ccc(C(=O)[O-])c(O)c2)c1-c1cc(Cl)c([O-])cc1[O-] (3D coordinates assigned)
Cc1onc(C(=O)[N-][C@H](CCc2ccccc2)C(=O)[N-]c2ccc(C(=O)[O-])c(O)c2)c1-c1cc(Cl)c([O-])cc1[O-] (optimized conformer: 111.01809687478321 kcal/mol)

>  <smiles>  (31) 
Cc1onc(C(=O)NC(CCc2ccccc2)C(=O)Nc2ccc(C(=O)O)c(O)c2)c1-c1cc(Cl)c(O)cc1O

>  <score_type>  (31) 
oracle

>  <origin>  (31) 
adg

>  <m_score__min__energy>  (31) 
-18.609999999999999

>  <m_primary>  (31) 
energy

$$$$
31:0
     RDKit          3D

 53 55  0  0  0  0  0  0  0  0999 V2000
   56.2160   30.0850   43.1380 C   0  0  0  0  0  0  0  0  0  0  0  0
   56.3790   30.4740   44.4980 O   0  0  0  0  0  0  0  0  0  0  0  0
   57.3660   29.9840   45.3690 C   0  0  0  0  0  0  0  0  0  0  0  0
   57.5840   28.5980   45.4960 C   0  0  0  0  0  0  0  0  0  0  0  0
   58.5570   28.0950   46.3690 C   0  0  0  0  0  0  0  0  0  0  0  0
   58.7620   26.6310   46.5080 C   0  0  0  0  0  0  0  0  0  0  0  0
   59.9170   26.1460   46.3590 O   0  0  0  0  0  0  0  0  0  0  0  0
   57.6630   25.7880   46.8950 N   0  0  0  0  0  0  0  0  0  0  0  0
   56.7860   25.1800   46.1450 C   0  0  0  0  0  0  0  0  0  0  0  0
   57.1440   24.3060   45.0930 C   0  0  0  0  0  0  0  0  0  0  0  0
   56.1400   23.7050   44.3300 C   0  0  0  0  0  0  0  0  0  0  0  0
   56.4700   22.8660   43.3160 F   0  0  0  0  0  0  0  0  0  0  0  0
   54.7990   23.9760   44.6020 C   0  0  0  0  0  0  0  0  0  0  0  0
   54.4780   24.8560   45.6340 C   0  0  0  0  0  0  0  0  0  0  0  0
   55.4680   25.4310   46.3690 N   0  0  0  0  0  0  0  0  0  0  0  0
   59.3300   28.9940   47.1100 C   0  0  0  0  0  0  0  0  0  0  0  0
   59.1570   30.3760   46.9930 C   0  0  0  0  0  0  0  0  0  0  0  0
   60.0150   31.1700   47.7800 O   0  0  0  0  0  0  0  0  0  0  0  0
   60.0910   31.2500   49.2070 C   0  0  2  0  0  0  0  0  0  0  0  0
   58.9310   32.0850   49.7680 C   0  0  0  0  0  0  0  0  0  0  0  0
   58.1350   32.5660   48.7200 O   0  0  0  0  0  0  0  0  0  0  0  0
   61.3960   31.8870   49.5790 C   0  0  0  0  0  0  0  0  0  0  0  0
   62.4430   31.1850   49.6490 O   0  0  0  0  0  0  0  0  0  0  0  0
   61.4490   33.2680   49.7970 O   0  0  0  0  0  0  0  0  0  0  0  0
   61.5800   34.2150   48.7390 C   0  0  1  0  0  0  0  0  0  0  0  0
   62.4310   33.6530   47.5850 C   0  0  0  0  0  0  0  0  0  0  0  0
   61.4830   33.4720   46.3840 C   0  0  0  0  0  0  0  0  0  0  0  0
   60.2380   34.0130   46.7840 O   0  0  0  0  0  0  0  0  0  0  0  0
   60.2690   34.4260   48.0950 C   0  0  0  0  0  0  0  0  0  0  0  0
   59.2730   34.9340   48.6740 O   0  0  0  0  0  0  0  0  0  0  0  0
   58.1520   30.8900   46.1330 C   0  0  0  0  0  0  0  0  0  0  0  0
   57.9590   32.2820   46.0890 O   0  0  0  0  0  0  0  0  0  0  0  0
   57.9110   33.1120   44.9330 C   0  0  0  0  0  0  0  0  0  0  0  0
   55.7912   29.0712   43.0950 H   0  0  0  0  0  0  0  0  0  0  0  0
   55.5371   30.7887   42.6342 H   0  0  0  0  0  0  0  0  0  0  0  0
   57.1938   30.0945   42.6342 H   0  0  0  0  0  0  0  0  0  0  0  0
   56.9797   27.8988   44.8993 H   0  0  0  0  0  0  0  0  0  0  0  0
   58.2030   24.1012   44.8774 H   0  0  0  0  0  0  0  0  0  0  0  0
   54.0040   23.5006   44.0088 H   0  0  0  0  0  0  0  0  0  0  0  0
   53.4250   25.0855   45.8541 H   0  0  0  0  0  0  0  0  0  0  0  0
   60.0920   28.6046   47.8011 H   0  0  0  0  0  0  0  0  0  0  0  0
   60.0223   30.2378   49.6322 H   0  0  0  0  0  0  0  0  0  0  0  0
   58.3185   31.4574   50.4320 H   0  0  0  0  0  0  0  0  0  0  0  0
   59.3393   32.9371   50.3312 H   0  0  0  0  0  0  0  0  0  0  0  0
   58.7620   32.9090   48.0320 H   0  0  0  0  0  0  0  0  0  0  0  0
   62.0158   35.1181   49.1912 H   0  0  0  0  0  0  0  0  0  0  0  0
   63.2363   34.3575   47.3297 H   0  0  0  0  0  0  0  0  0  0  0  0
   62.8995   32.6985   47.8670 H   0  0  0  0  0  0  0  0  0  0  0  0
   61.8700   34.0116   45.5070 H   0  0  0  0  0  0  0  0  0  0  0  0
   61.3896   32.4132   46.1008 H   0  0  0  0  0  0  0  0  0  0  0  0
   57.8500   34.1663   45.2409 H   0  0  0  0  0  0  0  0  0  0  0  0
   58.8196   32.9573   44.3326 H   0  0  0  0  0  0  0  0  0  0  0  0
   57.0263   32.8536   44.3326 H   0  0  0  0  0  0  0  0  0  0  0  0
  1  2  1  0
  2  3  1  0
  3  4  2  0
  4  5  1  0
  5  6  1  0
  6  7  2  0
  6  8  1  0
  8  9  2  3
  9 10  1  0
 10 11  2  0
 11 12  1  0
 11 13  1  0
 13 14  2  0
 14 15  1  0
  5 16  2  0
 16 17  1  0
 17 18  1  0
 18 19  1  0
 19 20  1  0
 20 21  1  0
 19 22  1  0
 22 23  2  0
 22 24  1  0
 24 25  1  0
 25 26  1  0
 26 27  1  0
 27 28  1  0
 28 29  1  0
 29 30  2  0
 17 31  2  0
 31 32  1  0
 32 33  1  0
 31  3  1  0
 15  9  1  0
 29 25  1  0
  1 34  1  0
  1 35  1  0
  1 36  1  0
  4 37  1  0
 10 38  1  0
 13 39  1  0
 14 40  1  0
 16 41  1  0
 19 42  1  1
 20 43  1  0
 20 44  1  0
 21 45  1  0
 25 46  1  1
 26 47  1  0
 26 48  1  0
 27 49  1  0
 27 50  1  0
 33 51  1  0
 33 52  1  0
 33 53  1  0
M  CHG  1  15  -1
M  END
>  <UniqueID>  (32) 
30

>  <SMILES>  (32) 
COc1cc(C(=O)N=c2cc(F)cc[n-]2)cc(O[C@H](CO)C(=O)O[C@H]2CCOC2=O)c1OC

>  <Energy>  (32) 
73.78135985299141

>  <Genealogy>  (32) 
COc1cc(C(=O)N=c2cc(F)cc[n-]2)cc(OC(CO)C(=O)OC2CCOC2=O)c1OC (protonated)
COc1cc(C(=O)N=c2cc(F)cc[n-]2)cc(O[C@H](CO)C(=O)O[C@H]2CCOC2=O)c1OC (chirality)
COc1cc(C(=O)N=c2cc(F)cc[n-]2)cc(O[C@H](CO)C(=O)O[C@H]2CCOC2=O)c1OC (3D coordinates assigned)
COc1cc(C(=O)N=c2cc(F)cc[n-]2)cc(O[C@H](CO)C(=O)O[C@H]2CCOC2=O)c1OC (nonaromatic ring conformer: 73.78135985299141 kcal/mol)

>  <smiles>  (32) 
COc1cc(C(=O)N=c2cc(F)cc[nH]2)cc(OC(CO)C(=O)OC2CCOC2=O)c1OC

>  <score_type>  (32) 
oracle

>  <origin>  (32) 
adg

>  <m_score__min__energy>  (32) 
-9.6400000000000006

>  <m_primary>  (32) 
energy

$$$$
32:0
     RDKit          3D

 43 45  0  0  0  0  0  0  0  0999 V2000
   59.7170   25.5450   46.7040 O   0  0  0  0  0  0  0  0  0  0  0  0
   58.5040   25.4530   46.3780 C   0  0  0  0  0  0  0  0  0  0  0  0
   57.9740   24.3310   45.8440 N   0  0  0  0  0  0  0  0  0  0  0  0
   56.6750   24.6490   45.6420 C   0  0  0  0  0  0  0  0  0  0  0  0
   56.4630   25.9460   46.0590 C   0  0  0  0  0  0  0  0  0  0  0  0
   55.2530   26.6330   46.0120 O   0  0  0  0  0  0  0  0  0  0  0  0
   57.6130   26.4540   46.5290 N   0  0  0  0  0  0  0  0  0  0  0  0
   57.8570   27.8040   47.0390 C   0  0  0  0  0  0  0  0  0  0  0  0
   57.8510   28.8010   45.9080 C   0  0  0  0  0  0  0  0  0  0  0  0
   56.6520   29.0620   45.2250 C   0  0  0  0  0  0  0  0  0  0  0  0
   56.6120   30.0010   44.1930 C   0  0  0  0  0  0  0  0  0  0  0  0
   55.4490   30.2460   43.5410 F   0  0  0  0  0  0  0  0  0  0  0  0
   57.7690   30.6910   43.8340 C   0  0  0  0  0  0  0  0  0  0  0  0
   58.9680   30.4510   44.5110 C   0  0  0  0  0  0  0  0  0  0  0  0
   59.0220   29.5030   45.5550 C   0  0  0  0  0  0  0  0  0  0  0  0
   60.2100   29.2350   46.2590 O   0  0  0  0  0  0  0  0  0  0  0  0
   60.5530   29.7600   47.5410 C   0  0  0  0  0  0  0  0  0  0  0  0
   61.0020   31.2230   47.4170 C   0  0  0  0  0  0  0  0  0  0  0  0
   59.9930   32.2010   48.0330 C   0  0  0  0  0  0  0  0  0  0  0  0
   59.2020   32.9300   46.9750 C   0  0  0  0  0  0  0  0  0  0  0  0
   59.8560   33.7660   46.0540 C   0  0  0  0  0  0  0  0  0  0  0  0
   59.1280   34.4190   45.0540 C   0  0  0  0  0  0  0  0  0  0  0  0
   57.7440   34.2400   44.9640 C   0  0  0  0  0  0  0  0  0  0  0  0
   57.0880   33.4070   45.8740 C   0  0  0  0  0  0  0  0  0  0  0  0
   57.8110   32.7510   46.8750 C   0  0  0  0  0  0  0  0  0  0  0  0
   55.9121   23.9817   45.2147 H   0  0  0  0  0  0  0  0  0  0  0  0
   55.1460   27.4650   45.4450 H   0  0  0  0  0  0  0  0  0  0  0  0
   57.0683   28.0677   47.7591 H   0  0  0  0  0  0  0  0  0  0  0  0
   58.8406   27.8277   47.5310 H   0  0  0  0  0  0  0  0  0  0  0  0
   55.7360   28.5215   45.5059 H   0  0  0  0  0  0  0  0  0  0  0  0
   57.7382   31.4259   43.0161 H   0  0  0  0  0  0  0  0  0  0  0  0
   59.8755   31.0047   44.2282 H   0  0  0  0  0  0  0  0  0  0  0  0
   59.6755   29.7049   48.2020 H   0  0  0  0  0  0  0  0  0  0  0  0
   61.3794   29.1672   47.9601 H   0  0  0  0  0  0  0  0  0  0  0  0
   61.9670   31.3408   47.9318 H   0  0  0  0  0  0  0  0  0  0  0  0
   61.0841   31.4580   46.3455 H   0  0  0  0  0  0  0  0  0  0  0  0
   59.2975   31.6387   48.6734 H   0  0  0  0  0  0  0  0  0  0  0  0
   60.5523   32.9470   48.6166 H   0  0  0  0  0  0  0  0  0  0  0  0
   60.9449   33.9074   46.1198 H   0  0  0  0  0  0  0  0  0  0  0  0
   59.6448   35.0742   44.3374 H   0  0  0  0  0  0  0  0  0  0  0  0
   57.1723   34.7545   44.1776 H   0  0  0  0  0  0  0  0  0  0  0  0
   55.9993   33.2668   45.8027 H   0  0  0  0  0  0  0  0  0  0  0  0
   57.2901   32.0931   47.5862 H   0  0  0  0  0  0  0  0  0  0  0  0
  1  2  2  0
  2  3  1  0
  3  4  1  0
  4  5  2  0
  5  6  1  0
  5  7  1  0
  7  8  1  0
  8  9  1  0
  9 10  2  0
 10 11  1  0
 11 12  1  0
 11 13  2  0
 13 14  1  0
 14 15  2  0
 15 16  1  0
 16 17  1  0
 17 18  1  0
 18 19  1  0
 19 20  1  0
 20 21  2  0
 21 22  1  0
 22 23  2  0
 23 24  1  0
 24 25  2  0
  7  2  1  0
 15  9  1  0
 25 20  1  0
  4 26  1  0
  6 27  1  0
  8 28  1  0
  8 29  1  0
 10 30  1  0
 13 31  1  0
 14 32  1  0
 17 33  1  0
 17 34  1  0
 18 35  1  0
 18 36  1  0
 19 37  1  0
 19 38  1  0
 21 39  1  0
 22 40  1  0
 23 41  1  0
 24 42  1  0
 25 43  1  0
M  CHG  1   3  -1
M  END
>  <UniqueID>  (33) 
31

>  <SMILES>  (33) 
O=c1[n-]cc(O)n1Cc1cc(F)ccc1OCCCc1ccccc1

>  <Energy>  (33) 
71.30257749743146

>  <Genealogy>  (33) 
O=c1[n-]cc(O)n1Cc1cc(F)ccc1OCCCc1ccccc1 (protonated)
O=c1[n-]cc(O)n1Cc1cc(F)ccc1OCCCc1ccccc1 (3D coordinates assigned)
O=c1[n-]cc(O)n1Cc1cc(F)ccc1OCCCc1ccccc1 (optimized conformer: 71.30257749743146 kcal/mol)

>  <smiles>  (33) 
O=c1[nH]cc(O)n1Cc1cc(F)ccc1OCCCc1ccccc1

>  <score_type>  (33) 
oracle

>  <origin>  (33) 
adg

>  <m_score__min__energy>  (33) 
-10.140000000000001

>  <m_primary>  (33) 
energy

$$$$
33:0
     RDKit          3D

 59 62  0  0  0  0  0  0  0  0999 V2000
   64.0320   33.4730   49.4090 C   0  0  0  0  0  0  0  0  0  0  0  0
   63.0230   32.4110   49.0540 C   0  0  0  0  0  0  0  0  0  0  0  0
   62.7000   31.4270   50.0000 C   0  0  0  0  0  0  0  0  0  0  0  0
   61.7680   30.4310   49.7040 C   0  0  0  0  0  0  0  0  0  0  0  0
   61.1350   30.3960   48.4510 C   0  0  0  0  0  0  0  0  0  0  0  0
   60.1230   29.3600   48.1300 C   0  0  0  0  0  0  0  0  0  0  0  0
   60.3530   28.1070   47.5870 C   0  0  0  0  0  0  0  0  0  0  0  0
   59.0970   27.5470   47.5000 C   0  0  0  0  0  0  0  0  0  0  0  0
   58.7770   26.1750   46.9850 C   0  0  0  0  0  0  0  0  0  0  0  0
   57.2860   25.8350   47.1320 C   0  0  0  0  0  0  0  0  0  0  0  0
   56.4530   26.4070   46.0090 C   0  0  0  0  0  0  0  0  0  0  0  0
   55.1980   26.3690   46.0860 O   0  0  0  0  0  0  0  0  0  0  0  0
   57.0550   27.0280   44.8650 N   0  0  0  0  0  0  0  0  0  0  0  0
   57.2880   28.4320   44.6940 C   0  0  0  0  0  0  0  0  0  0  0  0
   56.2260   29.3410   44.5570 C   0  0  0  0  0  0  0  0  0  0  0  0
   56.4830   30.7060   44.4050 C   0  0  0  0  0  0  0  0  0  0  0  0
   57.8030   31.1850   44.4000 C   0  0  0  0  0  0  0  0  0  0  0  0
   58.0790   32.6630   44.2160 C   0  0  0  0  0  0  0  0  0  0  0  0
   58.7800   33.2920   45.3570 N   0  0  0  0  0  0  0  0  0  0  0  0
   58.1480   33.0140   46.6600 C   0  0  0  0  0  0  0  0  0  0  0  0
   59.0030   33.6250   47.7770 C   0  0  0  0  0  0  0  0  0  0  0  0
   59.1530   35.0210   47.5870 O   0  0  0  0  0  0  0  0  0  0  0  0
   59.8150   35.2730   46.3610 C   0  0  0  0  0  0  0  0  0  0  0  0
   58.9940   34.7390   45.1810 C   0  0  0  0  0  0  0  0  0  0  0  0
   58.8600   30.2800   44.5830 C   0  0  0  0  0  0  0  0  0  0  0  0
   58.6020   28.9140   44.7340 C   0  0  0  0  0  0  0  0  0  0  0  0
   58.1760   28.4100   47.9670 N   0  0  0  0  0  0  0  0  0  0  0  0
   58.8010   29.5140   48.3470 N   0  0  0  0  0  0  0  0  0  0  0  0
   61.4680   31.3700   47.4960 C   0  0  0  0  0  0  0  0  0  0  0  0
   62.4180   32.3670   47.7760 C   0  0  0  0  0  0  0  0  0  0  0  0
   62.7330   33.4000   46.7260 C   0  0  0  0  0  0  0  0  0  0  0  0
   64.1092   33.5543   50.5033 H   0  0  0  0  0  0  0  0  0  0  0  0
   65.0127   33.2013   48.9914 H   0  0  0  0  0  0  0  0  0  0  0  0
   63.7104   34.4385   48.9914 H   0  0  0  0  0  0  0  0  0  0  0  0
   63.1867   31.4404   50.9864 H   0  0  0  0  0  0  0  0  0  0  0  0
   61.5274   29.6674   50.4583 H   0  0  0  0  0  0  0  0  0  0  0  0
   61.3151   27.6620   47.2933 H   0  0  0  0  0  0  0  0  0  0  0  0
   59.0491   26.1235   45.9204 H   0  0  0  0  0  0  0  0  0  0  0  0
   59.3501   25.4482   47.5794 H   0  0  0  0  0  0  0  0  0  0  0  0
   57.1715   24.7410   47.1353 H   0  0  0  0  0  0  0  0  0  0  0  0
   56.9312   26.2794   48.0736 H   0  0  0  0  0  0  0  0  0  0  0  0
   55.1881   28.9769   44.5694 H   0  0  0  0  0  0  0  0  0  0  0  0
   55.6458   31.4100   44.2885 H   0  0  0  0  0  0  0  0  0  0  0  0
   58.6997   32.7894   43.3167 H   0  0  0  0  0  0  0  0  0  0  0  0
   57.1017   33.1605   44.1302 H   0  0  0  0  0  0  0  0  0  0  0  0
   57.1417   33.4577   46.6827 H   0  0  0  0  0  0  0  0  0  0  0  0
   58.0698   31.9268   46.8078 H   0  0  0  0  0  0  0  0  0  0  0  0
   58.5149   33.4430   48.7458 H   0  0  0  0  0  0  0  0  0  0  0  0
   59.9981   33.1567   47.7567 H   0  0  0  0  0  0  0  0  0  0  0  0
   59.9543   36.3577   46.2423 H   0  0  0  0  0  0  0  0  0  0  0  0
   60.7890   34.7619   46.3738 H   0  0  0  0  0  0  0  0  0  0  0  0
   58.0223   35.2533   45.1459 H   0  0  0  0  0  0  0  0  0  0  0  0
   59.5351   34.9215   44.2408 H   0  0  0  0  0  0  0  0  0  0  0  0
   59.8966   30.6471   44.6078 H   0  0  0  0  0  0  0  0  0  0  0  0
   59.4366   28.2136   44.8852 H   0  0  0  0  0  0  0  0  0  0  0  0
   60.9769   31.3523   46.5119 H   0  0  0  0  0  0  0  0  0  0  0  0
   63.0206   34.3430   47.2140 H   0  0  0  0  0  0  0  0  0  0  0  0
   63.5633   33.0437   46.0986 H   0  0  0  0  0  0  0  0  0  0  0  0
   61.8452   33.5677   46.0986 H   0  0  0  0  0  0  0  0  0  0  0  0
  1  2  1  0
  2  3  2  0
  3  4  1  0
  4  5  2  0
  5  6  1  0
  6  7  2  0
  7  8  1  0
  8  9  1  0
  9 10  1  0
 10 11  1  0
 11 12  2  0
 11 13  1  0
 13 14  1  0
 14 15  2  0
 15 16  1  0
 16 17  2  0
 17 18  1  0
 18 19  1  0
 19 20  1  0
 20 21  1  0
 21 22  1  0
 22 23  1  0
 23 24  1  0
 17 25  1  0
 25 26  2  0
  8 27  2  0
 27 28  1  0
  5 29  1  0
 29 30  2  0
 30 31  1  0
 30  2  1  0
 28  6  1  0
 26 14  1  0
 24 19  1  0
  1 32  1  0
  1 33  1  0
  1 34  1  0
  3 35  1  0
  4 36  1  0
  7 37  1  0
  9 38  1  0
  9 39  1  0
 10 40  1  0
 10 41  1  0
 15 42  1  0
 16 43  1  0
 18 44  1  0
 18 45  1  0
 20 46  1  0
 20 47  1  0
 21 48  1  0
 21 49  1  0
 23 50  1  0
 23 51  1  0
 24 52  1  0
 24 53  1  0
 25 54  1  0
 26 55  1  0
 29 56  1  0
 31 57  1  0
 31 58  1  0
 31 59  1  0
M  CHG  2  13  -1  28  -1
M  END
>  <UniqueID>  (34) 
32

>  <SMILES>  (34) 
Cc1ccc(-c2cc(CCC(=O)[N-]c3ccc(CN4CCOCC4)cc3)n[n-]2)cc1C

>  <Energy>  (34) 
99.93703121834919

>  <Genealogy>  (34) 
Cc1ccc(-c2cc(CCC(=O)[N-]c3ccc(CN4CCOCC4)cc3)n[n-]2)cc1C (protonated)
Cc1ccc(-c2cc(CCC(=O)[N-]c3ccc(CN4CCOCC4)cc3)n[n-]2)cc1C (3D coordinates assigned)
Cc1ccc(-c2cc(CCC(=O)[N-]c3ccc(CN4CCOCC4)cc3)n[n-]2)cc1C (nonaromatic ring conformer: 99.93703121834919 kcal/mol)

>  <smiles>  (34) 
Cc1ccc(-c2cc(CCC(=O)Nc3ccc(CN4CCOCC4)cc3)n[nH]2)cc1C

>  <score_type>  (34) 
oracle

>  <origin>  (34) 
adg

>  <m_score__min__energy>  (34) 
-14.08

>  <m_primary>  (34) 
energy

$$$$
34:0
     RDKit          3D

 37 39  0  0  0  0  0  0  0  0999 V2000
   60.4970   28.9720   44.9300 O   0  0  0  0  0  0  0  0  0  0  0  0
   59.4570   29.4430   45.4630 C   0  0  0  0  0  0  0  0  0  0  0  0
   59.4760   30.8440   46.0080 C   0  0  0  0  0  0  0  0  0  0  0  0
   60.8620   31.1350   47.1710 S   0  0  0  0  0  0  0  0  0  0  0  0
   59.8490   31.2490   48.6530 C   0  0  0  0  0  0  0  0  0  0  0  0
   59.3680   30.1650   49.2990 N   0  0  0  0  0  0  0  0  0  0  0  0
   58.6420   30.6790   50.3120 C   0  0  0  0  0  0  0  0  0  0  0  0
   58.6730   32.0540   50.2540 C   0  0  0  0  0  0  0  0  0  0  0  0
   59.4290   32.4100   49.2010 N   0  0  0  0  0  0  0  0  0  0  0  0
   59.6020   33.7700   48.6850 C   0  0  0  0  0  0  0  0  0  0  0  0
   58.9600   33.9210   47.3350 C   0  0  0  0  0  0  0  0  0  0  0  0
   59.6500   34.5520   46.2850 C   0  0  0  0  0  0  0  0  0  0  0  0
   59.0630   34.6550   45.0200 C   0  0  0  0  0  0  0  0  0  0  0  0
   57.7830   34.1420   44.7960 C   0  0  0  0  0  0  0  0  0  0  0  0
   57.0910   33.5140   45.8350 C   0  0  0  0  0  0  0  0  0  0  0  0
   57.6770   33.3970   47.0980 C   0  0  0  0  0  0  0  0  0  0  0  0
   58.2580   28.5770   45.6000 C   0  0  0  0  0  0  0  0  0  0  0  0
   58.3490   27.2570   46.0870 C   0  0  0  0  0  0  0  0  0  0  0  0
   59.5800   26.7070   46.4350 O   0  0  0  0  0  0  0  0  0  0  0  0
   57.2280   26.4970   46.2000 N   0  0  0  0  0  0  0  0  0  0  0  0
   56.0130   26.9770   45.8400 C   0  0  0  0  0  0  0  0  0  0  0  0
   54.9900   26.2520   45.9550 O   0  0  0  0  0  0  0  0  0  0  0  0
   55.8970   28.2370   45.3510 N   0  0  0  0  0  0  0  0  0  0  0  0
   56.9840   29.0420   45.2210 C   0  0  0  0  0  0  0  0  0  0  0  0
   56.8300   30.2080   44.7710 O   0  0  0  0  0  0  0  0  0  0  0  0
   59.5694   31.5470   45.1671 H   0  0  0  0  0  0  0  0  0  0  0  0
   58.5394   30.9955   46.5646 H   0  0  0  0  0  0  0  0  0  0  0  0
   58.1060   30.0890   51.0701 H   0  0  0  0  0  0  0  0  0  0  0  0
   58.1674   32.7414   50.9481 H   0  0  0  0  0  0  0  0  0  0  0  0
   59.1392   34.4815   49.3847 H   0  0  0  0  0  0  0  0  0  0  0  0
   60.6787   33.9718   48.5849 H   0  0  0  0  0  0  0  0  0  0  0  0
   60.6543   34.9657   46.4591 H   0  0  0  0  0  0  0  0  0  0  0  0
   59.6105   35.1412   44.1991 H   0  0  0  0  0  0  0  0  0  0  0  0
   57.3201   34.2324   43.8022 H   0  0  0  0  0  0  0  0  0  0  0  0
   56.0829   33.1110   45.6582 H   0  0  0  0  0  0  0  0  0  0  0  0
   57.1325   32.8930   47.9101 H   0  0  0  0  0  0  0  0  0  0  0  0
   60.4460   27.1190   46.1090 H   0  0  0  0  0  0  0  0  0  0  0  0
  1  2  2  0
  2  3  1  0
  3  4  1  0
  4  5  1  0
  5  6  2  0
  6  7  1  0
  7  8  2  0
  8  9  1  0
  9 10  1  0
 10 11  1  0
 11 12  2  0
 12 13  1  0
 13 14  2  0
 14 15  1  0
 15 16  2  0
  2 17  1  0
 17 18  2  0
 18 19  1  0
 18 20  1  0
 20 21  1  0
 21 22  2  0
 21 23  1  0
 23 24  1  0
 24 25  2  0
  9  5  1  0
 16 11  1  0
 24 17  1  0
  3 26  1  0
  3 27  1  0
  7 28  1  0
  8 29  1  0
 10 30  1  0
 10 31  1  0
 12 32  1  0
 13 33  1  0
 14 34  1  0
 15 35  1  0
 16 36  1  0
 19 37  1  0
M  CHG  2  20  -1  23  -1
M  END
>  <UniqueID>  (35) 
33

>  <SMILES>  (35) 
O=C(CSc1nccn1Cc1ccccc1)c1c(O)[n-]c(=O)[n-]c1=O

>  <Energy>  (35) 
72.67627005449553

>  <Genealogy>  (35) 
O=C(CSc1nccn1Cc1ccccc1)c1c(O)[n-]c(=O)[n-]c1=O (protonated)
O=C(CSc1nccn1Cc1ccccc1)c1c(O)[n-]c(=O)[n-]c1=O (3D coordinates assigned)
O=C(CSc1nccn1Cc1ccccc1)c1c(O)[n-]c(=O)[n-]c1=O (optimized conformer: 72.67627005449553 kcal/mol)

>  <smiles>  (35) 
O=C(CSc1nccn1Cc1ccccc1)c1c(O)[nH]c(=O)[nH]c1=O

>  <score_type>  (35) 
oracle

>  <origin>  (35) 
adg

>  <m_score__min__energy>  (35) 
-12.74

>  <m_primary>  (35) 
energy

$$$$
35:0
     RDKit          3D

 46 48  0  0  0  0  0  0  0  0999 V2000
   58.7770   32.6710   52.7480 C   0  0  0  0  0  0  0  0  0  0  0  0
   58.9250   32.3360   51.2610 C   0  0  2  0  0  0  0  0  0  0  0  0
   60.1910   31.5070   50.9860 C   0  0  0  0  0  0  0  0  0  0  0  0
   59.9080   30.4380   50.0290 N   0  0  0  0  0  0  0  0  0  0  0  0
   58.7050   30.0760   49.5540 C   0  0  0  0  0  0  0  0  0  0  0  0
   58.9050   29.0790   48.6270 C   0  0  0  0  0  0  0  0  0  0  0  0
   60.2250   28.8160   48.5210 N   0  0  0  0  0  0  0  0  0  0  0  0
   60.8060   29.6620   49.3940 C   0  0  0  0  0  0  0  0  0  0  0  0
   58.8930   33.5520   50.4440 N   0  0  0  0  0  0  0  0  0  0  0  0
   59.6470   33.7830   49.2460 C   0  0  0  0  0  0  0  0  0  0  0  0
   60.6520   34.5470   49.2680 O   0  0  0  0  0  0  0  0  0  0  0  0
   59.2540   33.1190   47.9820 C   0  0  0  0  0  0  0  0  0  0  0  0
   57.9540   33.2660   47.4670 C   0  0  0  0  0  0  0  0  0  0  0  0
   57.5870   32.6320   46.2750 C   0  0  0  0  0  0  0  0  0  0  0  0
   58.5070   31.8410   45.5800 C   0  0  0  0  0  0  0  0  0  0  0  0
   58.0840   31.2030   44.3650 N   0  0  0  0  0  0  0  0  0  0  0  0
   57.0900   29.7840   44.2760 S   0  0  0  0  0  0  0  0  0  0  0  0
   55.7720   30.0860   44.9270 O   0  0  0  0  0  0  0  0  0  0  0  0
   56.8640   29.4450   42.8310 O   0  0  0  0  0  0  0  0  0  0  0  0
   57.8430   28.4200   45.1100 C   0  0  0  0  0  0  0  0  0  0  0  0
   59.2430   28.3670   45.2230 C   0  0  0  0  0  0  0  0  0  0  0  0
   59.8650   27.2760   45.8300 C   0  0  0  0  0  0  0  0  0  0  0  0
   59.0990   26.2250   46.3360 C   0  0  0  0  0  0  0  0  0  0  0  0
   57.7080   26.2720   46.2480 C   0  0  0  0  0  0  0  0  0  0  0  0
   57.0700   27.3650   45.6490 C   0  0  0  0  0  0  0  0  0  0  0  0
   55.6750   27.3690   45.6190 O   0  0  0  0  0  0  0  0  0  0  0  0
   59.8050   31.6850   46.0930 C   0  0  0  0  0  0  0  0  0  0  0  0
   60.1730   32.3220   47.2810 C   0  0  0  0  0  0  0  0  0  0  0  0
   59.1485   31.8301   53.3520 H   0  0  0  0  0  0  0  0  0  0  0  0
   59.3596   33.5747   52.9800 H   0  0  0  0  0  0  0  0  0  0  0  0
   57.7166   32.8488   52.9800 H   0  0  0  0  0  0  0  0  0  0  0  0
   58.0644   31.7136   50.9745 H   0  0  0  0  0  0  0  0  0  0  0  0
   60.9710   32.1641   50.5739 H   0  0  0  0  0  0  0  0  0  0  0  0
   60.5324   31.0570   51.9299 H   0  0  0  0  0  0  0  0  0  0  0  0
   57.7348   30.5001   49.8522 H   0  0  0  0  0  0  0  0  0  0  0  0
   58.1104   28.5733   48.0588 H   0  0  0  0  0  0  0  0  0  0  0  0
   61.8910   29.7128   49.5680 H   0  0  0  0  0  0  0  0  0  0  0  0
   57.2201   33.8839   48.0052 H   0  0  0  0  0  0  0  0  0  0  0  0
   56.5673   32.7567   45.8817 H   0  0  0  0  0  0  0  0  0  0  0  0
   59.8534   29.1931   44.8293 H   0  0  0  0  0  0  0  0  0  0  0  0
   60.9616   27.2440   45.9100 H   0  0  0  0  0  0  0  0  0  0  0  0
   59.5920   25.3601   46.8039 H   0  0  0  0  0  0  0  0  0  0  0  0
   57.1073   25.4439   46.6523 H   0  0  0  0  0  0  0  0  0  0  0  0
   55.1350   27.9850   45.0290 H   0  0  0  0  0  0  0  0  0  0  0  0
   60.5344   31.0593   45.5578 H   0  0  0  0  0  0  0  0  0  0  0  0
   61.1939   32.1977   47.6713 H   0  0  0  0  0  0  0  0  0  0  0  0
  1  2  1  0
  2  3  1  0
  3  4  1  0
  4  5  1  0
  5  6  2  0
  6  7  1  0
  7  8  2  0
  2  9  1  0
  9 10  1  0
 10 11  2  0
 10 12  1  0
 12 13  2  0
 13 14  1  0
 14 15  2  0
 15 16  1  0
 16 17  1  0
 17 18  2  0
 17 19  2  0
 17 20  1  0
 20 21  2  0
 21 22  1  0
 22 23  2  0
 23 24  1  0
 24 25  2  0
 25 26  1  0
 15 27  1  0
 27 28  2  0
  8  4  1  0
 28 12  1  0
 25 20  1  0
  1 29  1  0
  1 30  1  0
  1 31  1  0
  2 32  1  6
  3 33  1  0
  3 34  1  0
  5 35  1  0
  6 36  1  0
  8 37  1  0
 13 38  1  0
 14 39  1  0
 21 40  1  0
 22 41  1  0
 23 42  1  0
 24 43  1  0
 26 44  1  0
 27 45  1  0
 28 46  1  0
M  CHG  2   9  -1  16  -1
M  END
>  <UniqueID>  (36) 
34

>  <SMILES>  (36) 
C[C@H](Cn1ccnc1)[N-]C(=O)c1ccc([N-]S(=O)(=O)c2ccccc2O)cc1

>  <Energy>  (36) 
78.06140900051459

>  <Genealogy>  (36) 
CC(Cn1ccnc1)[N-]C(=O)c1ccc([N-]S(=O)(=O)c2ccccc2O)cc1 (protonated)
C[C@H](Cn1ccnc1)[N-]C(=O)c1ccc([N-]S(=O)(=O)c2ccccc2O)cc1 (chirality)
C[C@H](Cn1ccnc1)[N-]C(=O)c1ccc([N-]S(=O)(=O)c2ccccc2O)cc1 (3D coordinates assigned)
C[C@H](Cn1ccnc1)[N-]C(=O)c1ccc([N-]S(=O)(=O)c2ccccc2O)cc1 (optimized conformer: 78.06140900051459 kcal/mol)

>  <smiles>  (36) 
CC(Cn1ccnc1)NC(=O)c1ccc(NS(=O)(=O)c2ccccc2O)cc1

>  <score_type>  (36) 
oracle

>  <origin>  (36) 
adg

>  <m_score__min__energy>  (36) 
-11.26

>  <m_primary>  (36) 
energy

$$$$
36:0
     RDKit          3D

 54 57  0  0  0  0  0  0  0  0999 V2000
   56.2710   26.9720   45.9050 N   0  0  0  0  0  0  0  0  0  0  0  0
   57.3070   27.8330   45.4150 C   0  0  0  0  0  0  0  0  0  0  0  0
   56.9580   28.9640   44.6650 C   0  0  0  0  0  0  0  0  0  0  0  0
   57.9470   29.8050   44.1480 C   0  0  0  0  0  0  0  0  0  0  0  0
   59.2930   29.5290   44.3750 C   0  0  0  0  0  0  0  0  0  0  0  0
   59.6550   28.4090   45.1230 C   0  0  0  0  0  0  0  0  0  0  0  0
   58.6710   27.5580   45.6530 C   0  0  0  0  0  0  0  0  0  0  0  0
   59.1920   26.1360   46.6230 S   0  0  0  0  0  0  0  0  0  0  0  0
   59.6490   27.1440   48.0330 C   0  0  0  0  0  0  0  0  0  0  0  0
   60.3910   26.5950   49.0850 C   0  0  0  0  0  0  0  0  0  0  0  0
   60.7290   27.3830   50.1880 C   0  0  0  0  0  0  0  0  0  0  0  0
   60.3370   28.7250   50.2380 C   0  0  0  0  0  0  0  0  0  0  0  0
   59.6090   29.2910   49.1820 C   0  0  0  0  0  0  0  0  0  0  0  0
   59.1780   30.6590   49.2710 N   0  0  0  0  0  0  0  0  0  0  0  0
   58.9470   31.5010   48.1330 C   0  0  0  0  0  0  0  0  0  0  0  0
   59.4690   31.2270   47.0180 O   0  0  0  0  0  0  0  0  0  0  0  0
   58.1450   32.7620   48.2750 C   0  0  0  0  0  0  0  0  0  0  0  0
   58.4780   33.7410   47.1710 C   0  0  0  0  0  0  0  0  0  0  0  0
   57.7160   33.7060   45.9870 C   0  0  0  0  0  0  0  0  0  0  0  0
   58.0520   34.5010   44.8930 C   0  0  0  0  0  0  0  0  0  0  0  0
   59.1650   35.3390   44.9550 C   0  0  0  0  0  0  0  0  0  0  0  0
   59.9370   35.3910   46.1150 C   0  0  0  0  0  0  0  0  0  0  0  0
   59.5970   34.6200   47.2380 C   0  0  0  0  0  0  0  0  0  0  0  0
   60.4270   34.7300   48.4070 N   0  0  0  0  0  0  0  0  0  0  0  0
   61.3300   33.7120   48.8860 C   0  0  0  0  0  0  0  0  0  0  0  0
   62.4510   33.2770   48.1250 C   0  0  0  0  0  0  0  0  0  0  0  0
   62.7760   33.8410   46.4850 Cl  0  0  0  0  0  0  0  0  0  0  0  0
   63.3180   32.3070   48.6470 C   0  0  0  0  0  0  0  0  0  0  0  0
   63.0740   31.7400   49.8980 C   0  0  0  0  0  0  0  0  0  0  0  0
   61.9480   32.1270   50.6330 C   0  0  0  0  0  0  0  0  0  0  0  0
   61.0730   33.0980   50.1330 C   0  0  0  0  0  0  0  0  0  0  0  0
   59.6650   33.5320   51.1040 Cl  0  0  0  0  0  0  0  0  0  0  0  0
   59.2560   28.4860   48.0840 C   0  0  0  0  0  0  0  0  0  0  0  0
   55.9660   27.0310   46.9000 H   0  0  0  0  0  0  0  0  0  0  0  0
   55.7610   26.3090   45.2850 H   0  0  0  0  0  0  0  0  0  0  0  0
   55.8975   29.1916   44.4818 H   0  0  0  0  0  0  0  0  0  0  0  0
   57.6611   30.6890   43.5591 H   0  0  0  0  0  0  0  0  0  0  0  0
   60.0687   30.1927   43.9654 H   0  0  0  0  0  0  0  0  0  0  0  0
   60.7186   28.1904   45.2992 H   0  0  0  0  0  0  0  0  0  0  0  0
   60.7082   25.5426   49.0434 H   0  0  0  0  0  0  0  0  0  0  0  0
   61.3042   26.9476   51.0184 H   0  0  0  0  0  0  0  0  0  0  0  0
   60.6015   29.3397   51.1110 H   0  0  0  0  0  0  0  0  0  0  0  0
   59.0390   31.0740   50.2220 H   0  0  0  0  0  0  0  0  0  0  0  0
   57.0742   32.5151   48.2265 H   0  0  0  0  0  0  0  0  0  0  0  0
   58.3889   33.2265   49.2418 H   0  0  0  0  0  0  0  0  0  0  0  0
   56.8421   33.0408   45.9249 H   0  0  0  0  0  0  0  0  0  0  0  0
   57.4391   34.4676   43.9802 H   0  0  0  0  0  0  0  0  0  0  0  0
   59.4342   35.9597   44.0877 H   0  0  0  0  0  0  0  0  0  0  0  0
   60.8221   36.0432   46.1506 H   0  0  0  0  0  0  0  0  0  0  0  0
   60.2830   35.5710   49.0100 H   0  0  0  0  0  0  0  0  0  0  0  0
   64.1969   31.9907   48.0661 H   0  0  0  0  0  0  0  0  0  0  0  0
   63.7664   30.9891   50.3064 H   0  0  0  0  0  0  0  0  0  0  0  0
   61.7491   31.6646   51.6111 H   0  0  0  0  0  0  0  0  0  0  0  0
   58.6669   28.9143   47.2597 H   0  0  0  0  0  0  0  0  0  0  0  0
  1  2  1  0
  2  3  2  0
  3  4  1  0
  4  5  2  0
  5  6  1  0
  6  7  2  0
  7  8  1  0
  8  9  1  0
  9 10  2  0
 10 11  1  0
 11 12  2  0
 12 13  1  0
 13 14  1  0
 14 15  1  0
 15 16  2  0
 15 17  1  0
 17 18  1  0
 18 19  2  0
 19 20  1  0
 20 21  2  0
 21 22  1  0
 22 23  2  0
 23 24  1  0
 24 25  1  0
 25 26  2  0
 26 27  1  0
 26 28  1  0
 28 29  2  0
 29 30  1  0
 30 31  2  0
 31 32  1  0
 13 33  2  0
  7  2  1  0
 33  9  1  0
 23 18  1  0
 31 25  1  0
  1 34  1  0
  1 35  1  0
  3 36  1  0
  4 37  1  0
  5 38  1  0
  6 39  1  0
 10 40  1  0
 11 41  1  0
 12 42  1  0
 14 43  1  0
 17 44  1  0
 17 45  1  0
 19 46  1  0
 20 47  1  0
 21 48  1  0
 22 49  1  0
 24 50  1  0
 28 51  1  0
 29 52  1  0
 30 53  1  0
 33 54  1  0
M  END
>  <UniqueID>  (37) 
35

>  <SMILES>  (37) 
Nc1ccccc1Sc1cccc(NC(=O)Cc2ccccc2Nc2c(Cl)cccc2Cl)c1

>  <Energy>  (37) 
66.2507041409242

>  <Genealogy>  (37) 
Nc1ccccc1Sc1cccc(NC(=O)Cc2ccccc2Nc2c(Cl)cccc2Cl)c1 (3D coordinates assigned)
Nc1ccccc1Sc1cccc(NC(=O)Cc2ccccc2Nc2c(Cl)cccc2Cl)c1 (optimized conformer: 66.2507041409242 kcal/mol)

>  <smiles>  (37) 
Nc1ccccc1Sc1cccc(NC(=O)Cc2ccccc2Nc2c(Cl)cccc2Cl)c1

>  <score_type>  (37) 
oracle

>  <origin>  (37) 
adg

>  <m_score__min__energy>  (37) 
-10.640000000000001

>  <m_primary>  (37) 
energy

$$$$
37:0
     RDKit          3D

 46 49  0  0  0  0  0  0  0  0999 V2000
   59.7810   33.3770   50.4490 C   0  0  0  0  0  0  0  0  0  0  0  0
   59.9920   32.8490   49.0600 C   0  0  0  0  0  0  0  0  0  0  0  0
   60.7110   33.5930   48.1770 N   0  0  0  0  0  0  0  0  0  0  0  0
   60.9450   33.1590   46.9140 C   0  0  0  0  0  0  0  0  0  0  0  0
   61.6160   33.8660   46.1200 O   0  0  0  0  0  0  0  0  0  0  0  0
   60.4520   31.9640   46.5040 N   0  0  0  0  0  0  0  0  0  0  0  0
   59.7180   31.1770   47.3360 C   0  0  0  0  0  0  0  0  0  0  0  0
   59.2110   29.9230   46.8490 N   0  0  0  0  0  0  0  0  0  0  0  0
   57.7640   29.7720   46.6290 C   0  0  0  0  0  0  0  0  0  0  0  0
   57.4060   30.1030   45.2020 C   0  0  0  0  0  0  0  0  0  0  0  0
   58.1520   31.0640   44.5000 C   0  0  0  0  0  0  0  0  0  0  0  0
   57.8080   31.4090   43.1900 C   0  0  0  0  0  0  0  0  0  0  0  0
   56.7130   30.8010   42.5710 C   0  0  0  0  0  0  0  0  0  0  0  0
   55.9610   29.8470   43.2610 C   0  0  0  0  0  0  0  0  0  0  0  0
   56.3000   29.4960   44.5720 C   0  0  0  0  0  0  0  0  0  0  0  0
   55.5360   28.5450   45.2400 O   0  0  0  0  0  0  0  0  0  0  0  0
   60.1480   29.0000   46.1950 C   0  0  0  0  0  0  0  0  0  0  0  0
   59.5240   27.6960   45.9870 N   0  0  0  0  0  0  0  0  0  0  0  0
   59.0170   26.8240   47.0010 C   0  0  0  0  0  0  0  0  0  0  0  0
   59.2620   26.9460   48.2300 O   0  0  0  0  0  0  0  0  0  0  0  0
   58.1670   25.8020   46.4010 C   0  0  0  0  0  0  0  0  0  0  0  0
   57.4730   24.7410   46.9800 C   0  0  0  0  0  0  0  0  0  0  0  0
   56.7090   23.9140   46.1370 C   0  0  0  0  0  0  0  0  0  0  0  0
   56.6520   24.1660   44.7480 C   0  0  0  0  0  0  0  0  0  0  0  0
   57.3580   25.2450   44.1890 C   0  0  0  0  0  0  0  0  0  0  0  0
   58.1120   26.0470   45.0450 C   0  0  0  0  0  0  0  0  0  0  0  0
   58.9260   27.2260   44.7760 C   0  0  0  0  0  0  0  0  0  0  0  0
   59.0660   27.7800   43.6530 O   0  0  0  0  0  0  0  0  0  0  0  0
   59.4760   31.6020   48.6570 C   0  0  0  0  0  0  0  0  0  0  0  0
   58.7590   30.7600   49.5860 C   0  0  0  0  0  0  0  0  0  0  0  0
   58.1820   30.0850   50.3290 N   0  0  0  0  0  0  0  0  0  0  0  0
   60.0856   32.6147   51.1812 H   0  0  0  0  0  0  0  0  0  0  0  0
   60.3854   34.2849   50.5919 H   0  0  0  0  0  0  0  0  0  0  0  0
   58.7174   33.6183   50.5919 H   0  0  0  0  0  0  0  0  0  0  0  0
   57.4724   28.7332   46.8431 H   0  0  0  0  0  0  0  0  0  0  0  0
   57.2299   30.4631   47.2977 H   0  0  0  0  0  0  0  0  0  0  0  0
   59.0127   31.5483   44.9844 H   0  0  0  0  0  0  0  0  0  0  0  0
   58.3999   32.1598   42.6460 H   0  0  0  0  0  0  0  0  0  0  0  0
   56.4429   31.0735   41.5401 H   0  0  0  0  0  0  0  0  0  0  0  0
   55.0991   29.3700   42.7715 H   0  0  0  0  0  0  0  0  0  0  0  0
   60.4466   29.4172   45.2220 H   0  0  0  0  0  0  0  0  0  0  0  0
   61.0292   28.8725   46.8409 H   0  0  0  0  0  0  0  0  0  0  0  0
   57.5213   24.5560   48.0633 H   0  0  0  0  0  0  0  0  0  0  0  0
   56.1524   23.0657   46.5618 H   0  0  0  0  0  0  0  0  0  0  0  0
   56.0504   23.5126   44.0990 H   0  0  0  0  0  0  0  0  0  0  0  0
   57.3170   25.4506   43.1092 H   0  0  0  0  0  0  0  0  0  0  0  0
  1  2  1  0
  2  3  1  0
  3  4  1  0
  4  5  2  0
  4  6  1  0
  6  7  2  0
  7  8  1  0
  8  9  1  0
  9 10  1  0
 10 11  2  0
 11 12  1  0
 12 13  2  0
 13 14  1  0
 14 15  2  0
 15 16  1  0
  8 17  1  0
 17 18  1  0
 18 19  1  0
 19 20  2  0
 19 21  1  0
 21 22  2  0
 22 23  1  0
 23 24  2  0
 24 25  1  0
 25 26  2  0
 26 27  1  0
 27 28  2  0
  7 29  1  0
 29 30  1  0
 30 31  3  0
 29  2  2  0
 15 10  1  0
 27 18  1  0
 26 21  1  0
  1 32  1  0
  1 33  1  0
  1 34  1  0
  9 35  1  0
  9 36  1  0
 11 37  1  0
 12 38  1  0
 13 39  1  0
 14 40  1  0
 17 41  1  0
 17 42  1  0
 22 43  1  0
 23 44  1  0
 24 45  1  0
 25 46  1  0
M  CHG  2   3  -1  16  -1
M  END
>  <UniqueID>  (38) 
36

>  <SMILES>  (38) 
Cc1[n-]c(=O)nc(N(Cc2ccccc2[O-])CN2C(=O)c3ccccc3C2=O)c1C#N

>  <Energy>  (38) 
85.74169962298824

>  <Genealogy>  (38) 
Cc1[n-]c(=O)nc(N(Cc2ccccc2[O-])CN2C(=O)c3ccccc3C2=O)c1C#N (protonated)
Cc1[n-]c(=O)nc(N(Cc2ccccc2[O-])CN2C(=O)c3ccccc3C2=O)c1C#N (3D coordinates assigned)
Cc1[n-]c(=O)nc(N(Cc2ccccc2[O-])CN2C(=O)c3ccccc3C2=O)c1C#N (nonaromatic ring conformer: 85.74169962298824 kcal/mol)

>  <smiles>  (38) 
Cc1[nH]c(=O)nc(N(Cc2ccccc2O)CN2C(=O)c3ccccc3C2=O)c1C#N

>  <score_type>  (38) 
oracle

>  <origin>  (38) 
adg

>  <m_score__min__energy>  (38) 
-13.039999999999999

>  <m_primary>  (38) 
energy

$$$$
38:0
     RDKit          3D

 44 46  0  0  0  0  0  0  0  0999 V2000
   64.2560   32.9710   49.2490 C   0  0  0  0  0  0  0  0  0  0  0  0
   62.9650   33.8990   50.1320 S   0  0  0  0  0  0  0  0  0  0  0  0
   61.8470   33.9180   48.7300 C   0  0  0  0  0  0  0  0  0  0  0  0
   62.3320   33.6640   47.4410 C   0  0  0  0  0  0  0  0  0  0  0  0
   61.4660   33.7050   46.3460 C   0  0  0  0  0  0  0  0  0  0  0  0
   60.1060   33.9910   46.5240 C   0  0  0  0  0  0  0  0  0  0  0  0
   59.2750   34.0490   45.3930 O   0  0  0  0  0  0  0  0  0  0  0  0
   58.4560   33.0100   44.9280 C   0  0  0  0  0  0  0  0  0  0  0  0
   58.2090   32.8040   43.5610 C   0  0  0  0  0  0  0  0  0  0  0  0
   57.3920   31.7520   43.1490 C   0  0  0  0  0  0  0  0  0  0  0  0
   56.8050   30.9200   44.1120 C   0  0  0  0  0  0  0  0  0  0  0  0
   55.8850   29.8040   43.7120 C   0  0  0  0  0  0  0  0  0  0  0  0
   55.5400   28.9900   44.8710 N   0  0  0  0  0  0  0  0  0  0  0  0
   56.2780   27.8320   45.2720 C   0  0  0  0  0  0  0  0  0  0  0  0
   55.7340   26.9360   45.9720 O   0  0  0  0  0  0  0  0  0  0  0  0
   57.6900   27.6560   44.8090 C   0  0  0  0  0  0  0  0  0  0  0  0
   58.6110   28.3680   45.7120 N   0  0  0  0  0  0  0  0  0  0  0  0
   59.4740   29.2860   45.1770 C   0  0  0  0  0  0  0  0  0  0  0  0
   60.3170   30.0300   45.9980 C   0  0  0  0  0  0  0  0  0  0  0  0
   60.2690   29.8090   47.3720 C   0  0  0  0  0  0  0  0  0  0  0  0
   61.0140   30.4660   48.1460 O   0  0  0  0  0  0  0  0  0  0  0  0
   59.4170   28.8820   47.8780 N   0  0  0  0  0  0  0  0  0  0  0  0
   58.5930   28.1670   47.0700 C   0  0  0  0  0  0  0  0  0  0  0  0
   57.8130   27.3220   47.5910 O   0  0  0  0  0  0  0  0  0  0  0  0
   57.0280   31.1600   45.4330 N   0  0  0  0  0  0  0  0  0  0  0  0
   57.8290   32.1730   45.8550 C   0  0  0  0  0  0  0  0  0  0  0  0
   59.6270   34.2650   47.8190 C   0  0  0  0  0  0  0  0  0  0  0  0
   60.4930   34.2210   48.9160 C   0  0  0  0  0  0  0  0  0  0  0  0
   64.9251   32.4900   49.9776 H   0  0  0  0  0  0  0  0  0  0  0  0
   63.7876   32.2016   48.6176 H   0  0  0  0  0  0  0  0  0  0  0  0
   64.8361   33.6601   48.6176 H   0  0  0  0  0  0  0  0  0  0  0  0
   63.3967   33.4318   47.2907 H   0  0  0  0  0  0  0  0  0  0  0  0
   61.8549   33.5111   45.3355 H   0  0  0  0  0  0  0  0  0  0  0  0
   58.6607   33.4736   42.8142 H   0  0  0  0  0  0  0  0  0  0  0  0
   57.2099   31.5767   42.0784 H   0  0  0  0  0  0  0  0  0  0  0  0
   54.9664   30.2284   43.2808 H   0  0  0  0  0  0  0  0  0  0  0  0
   56.3934   29.1710   42.9698 H   0  0  0  0  0  0  0  0  0  0  0  0
   57.9406   26.5849   44.8043 H   0  0  0  0  0  0  0  0  0  0  0  0
   57.7903   28.0682   43.7941 H   0  0  0  0  0  0  0  0  0  0  0  0
   59.5017   29.4373   44.0878 H   0  0  0  0  0  0  0  0  0  0  0  0
   61.0048   30.7749   45.5713 H   0  0  0  0  0  0  0  0  0  0  0  0
   57.9848   32.3352   46.9318 H   0  0  0  0  0  0  0  0  0  0  0  0
   58.5663   34.5149   47.9687 H   0  0  0  0  0  0  0  0  0  0  0  0
   60.1097   34.4248   49.9267 H   0  0  0  0  0  0  0  0  0  0  0  0
  1  2  1  0
  2  3  1  0
  3  4  2  0
  4  5  1  0
  5  6  2  0
  6  7  1  0
  7  8  1  0
  8  9  2  0
  9 10  1  0
 10 11  2  0
 11 12  1  0
 12 13  1  0
 13 14  1  0
 14 15  2  0
 14 16  1  0
 16 17  1  0
 17 18  1  0
 18 19  2  0
 19 20  1  0
 20 21  2  0
 20 22  1  0
 22 23  1  0
 23 24  2  0
 11 25  1  0
 25 26  2  0
  6 27  1  0
 27 28  2  0
 28  3  1  0
 26  8  1  0
 23 17  1  0
  1 29  1  0
  1 30  1  0
  1 31  1  0
  4 32  1  0
  5 33  1  0
  9 34  1  0
 10 35  1  0
 12 36  1  0
 12 37  1  0
 16 38  1  0
 16 39  1  0
 18 40  1  0
 19 41  1  0
 26 42  1  0
 27 43  1  0
 28 44  1  0
M  CHG  2  13  -1  22  -1
M  END
>  <UniqueID>  (39) 
37

>  <SMILES>  (39) 
CSc1ccc(Oc2ccc(C[N-]C(=O)Cn3ccc(=O)[n-]c3=O)nc2)cc1

>  <Energy>  (39) 
48.946762334298924

>  <Genealogy>  (39) 
CSc1ccc(Oc2ccc(C[N-]C(=O)Cn3ccc(=O)[n-]c3=O)nc2)cc1 (protonated)
CSc1ccc(Oc2ccc(C[N-]C(=O)Cn3ccc(=O)[n-]c3=O)nc2)cc1 (3D coordinates assigned)
CSc1ccc(Oc2ccc(C[N-]C(=O)Cn3ccc(=O)[n-]c3=O)nc2)cc1 (optimized conformer: 48.946762334298924 kcal/mol)

>  <smiles>  (39) 
CSc1ccc(Oc2ccc(CNC(=O)Cn3ccc(=O)[nH]c3=O)nc2)cc1

>  <score_type>  (39) 
oracle

>  <origin>  (39) 
adg

>  <m_score__min__energy>  (39) 
-12.93

>  <m_primary>  (39) 
energy

$$$$
39:0
     RDKit          3D

 55 57  0  0  0  0  0  0  0  0999 V2000
   55.0280   29.3500   44.4450 O   0  0  0  0  0  0  0  0  0  0  0  0
   56.2670   29.5800   44.4670 C   0  0  0  0  0  0  0  0  0  0  0  0
   56.9580   30.1330   43.2410 C   0  0  0  0  0  0  0  0  0  0  0  0
   57.3980   31.5980   43.3870 C   0  0  0  0  0  0  0  0  0  0  0  0
   57.8820   31.8560   44.7440 N   0  0  0  0  0  0  0  0  0  0  0  0
   58.3210   33.1490   45.1930 C   0  0  0  0  0  0  0  0  0  0  0  0
   58.3010   34.1320   44.4040 O   0  0  0  0  0  0  0  0  0  0  0  0
   58.7440   33.3490   46.5950 C   0  0  0  0  0  0  0  0  0  0  0  0
   59.8080   34.2120   46.9070 C   0  0  0  0  0  0  0  0  0  0  0  0
   60.2930   34.2920   48.2140 C   0  0  0  0  0  0  0  0  0  0  0  0
   59.7280   33.5050   49.2230 C   0  0  0  0  0  0  0  0  0  0  0  0
   60.5010   33.4480   50.8040 S   0  0  0  0  0  0  0  0  0  0  0  0
   61.8470   34.1070   50.7100 O   0  0  0  0  0  0  0  0  0  0  0  0
   59.6720   34.1780   51.8250 O   0  0  0  0  0  0  0  0  0  0  0  0
   60.7120   31.7850   51.2840 N   0  0  0  0  0  0  0  0  0  0  0  0
   60.1520   31.5260   52.6140 C   0  0  0  0  0  0  0  0  0  0  0  0
   58.6990   31.1310   52.5360 C   0  0  0  0  0  0  0  0  0  0  0  0
   57.6990   32.1100   52.4050 C   0  0  0  0  0  0  0  0  0  0  0  0
   56.3580   31.7360   52.2630 C   0  0  0  0  0  0  0  0  0  0  0  0
   56.0070   30.3850   52.2520 C   0  0  0  0  0  0  0  0  0  0  0  0
   56.9910   29.4060   52.4090 C   0  0  0  0  0  0  0  0  0  0  0  0
   58.3310   29.7740   52.5630 C   0  0  0  0  0  0  0  0  0  0  0  0
   58.6170   32.6980   48.9340 C   0  0  0  0  0  0  0  0  0  0  0  0
   58.1250   32.6240   47.6270 C   0  0  0  0  0  0  0  0  0  0  0  0
   57.0050   29.2160   45.6400 N   0  0  0  0  0  0  0  0  0  0  0  0
   58.2850   28.5130   45.6570 C   0  0  0  0  0  0  0  0  0  0  0  0
   59.2180   29.1520   46.6510 C   0  0  0  0  0  0  0  0  0  0  0  0
   60.2660   29.9700   46.1970 C   0  0  0  0  0  0  0  0  0  0  0  0
   61.1290   30.5830   47.1110 C   0  0  0  0  0  0  0  0  0  0  0  0
   60.9520   30.3840   48.4820 C   0  0  0  0  0  0  0  0  0  0  0  0
   59.9120   29.5700   48.9430 C   0  0  0  0  0  0  0  0  0  0  0  0
   59.0450   28.9560   48.0320 C   0  0  0  0  0  0  0  0  0  0  0  0
   57.8497   29.5212   43.0395 H   0  0  0  0  0  0  0  0  0  0  0  0
   56.2291   30.0971   42.4180 H   0  0  0  0  0  0  0  0  0  0  0  0
   58.2050   31.8067   42.6692 H   0  0  0  0  0  0  0  0  0  0  0  0
   56.5347   32.2499   43.1877 H   0  0  0  0  0  0  0  0  0  0  0  0
   57.8500   31.0610   45.4250 H   0  0  0  0  0  0  0  0  0  0  0  0
   60.2617   34.8283   46.1169 H   0  0  0  0  0  0  0  0  0  0  0  0
   61.1215   34.9757   48.4508 H   0  0  0  0  0  0  0  0  0  0  0  0
   60.7188   30.7109   53.0876 H   0  0  0  0  0  0  0  0  0  0  0  0
   60.2264   32.4507   53.2051 H   0  0  0  0  0  0  0  0  0  0  0  0
   57.9719   33.1756   52.4141 H   0  0  0  0  0  0  0  0  0  0  0  0
   55.5802   32.5070   52.1600 H   0  0  0  0  0  0  0  0  0  0  0  0
   54.9553   30.0912   52.1197 H   0  0  0  0  0  0  0  0  0  0  0  0
   56.7107   28.3423   52.4115 H   0  0  0  0  0  0  0  0  0  0  0  0
   59.0995   29.0000   52.7057 H   0  0  0  0  0  0  0  0  0  0  0  0
   58.1324   32.1228   49.7366 H   0  0  0  0  0  0  0  0  0  0  0  0
   57.2497   31.9955   47.4061 H   0  0  0  0  0  0  0  0  0  0  0  0
   58.1186   27.4627   45.9385 H   0  0  0  0  0  0  0  0  0  0  0  0
   58.7368   28.5673   44.6555 H   0  0  0  0  0  0  0  0  0  0  0  0
   60.4084   30.1291   45.1179 H   0  0  0  0  0  0  0  0  0  0  0  0
   61.9479   31.2224   46.7498 H   0  0  0  0  0  0  0  0  0  0  0  0
   61.6309   30.8677   49.1998 H   0  0  0  0  0  0  0  0  0  0  0  0
   59.7754   29.4123   50.0230 H   0  0  0  0  0  0  0  0  0  0  0  0
   58.2264   28.3186   48.3976 H   0  0  0  0  0  0  0  0  0  0  0  0
  1  2  2  0
  2  3  1  0
  3  4  1  0
  4  5  1  0
  5  6  1  0
  6  7  2  0
  6  8  1  0
  8  9  2  0
  9 10  1  0
 10 11  2  0
 11 12  1  0
 12 13  2  0
 12 14  2  0
 12 15  1  0
 15 16  1  0
 16 17  1  0
 17 18  2  0
 18 19  1  0
 19 20  2  0
 20 21  1  0
 21 22  2  0
 11 23  1  0
 23 24  2  0
  2 25  1  0
 25 26  1  0
 26 27  1  0
 27 28  2  0
 28 29  1  0
 29 30  2  0
 30 31  1  0
 31 32  2  0
 24  8  1  0
 32 27  1  0
 22 17  1  0
  3 33  1  0
  3 34  1  0
  4 35  1  0
  4 36  1  0
  5 37  1  0
  9 38  1  0
 10 39  1  0
 16 40  1  0
 16 41  1  0
 18 42  1  0
 19 43  1  0
 20 44  1  0
 21 45  1  0
 22 46  1  0
 23 47  1  0
 24 48  1  0
 26 49  1  0
 26 50  1  0
 28 51  1  0
 29 52  1  0
 30 53  1  0
 31 54  1  0
 32 55  1  0
M  CHG  2  15  -1  25  -1
M  END
>  <UniqueID>  (40) 
38

>  <SMILES>  (40) 
O=C(CCNC(=O)c1ccc(S(=O)(=O)[N-]Cc2ccccc2)cc1)[N-]Cc1ccccc1

>  <Energy>  (40) 
47.430399181851364

>  <Genealogy>  (40) 
O=C(CCNC(=O)c1ccc(S(=O)(=O)[N-]Cc2ccccc2)cc1)[N-]Cc1ccccc1 (protonated)
O=C(CCNC(=O)c1ccc(S(=O)(=O)[N-]Cc2ccccc2)cc1)[N-]Cc1ccccc1 (3D coordinates assigned)
O=C(CCNC(=O)c1ccc(S(=O)(=O)[N-]Cc2ccccc2)cc1)[N-]Cc1ccccc1 (optimized conformer: 47.430399181851364 kcal/mol)

>  <smiles>  (40) 
O=C(CCNC(=O)c1ccc(S(=O)(=O)NCc2ccccc2)cc1)NCc1ccccc1

>  <score_type>  (40) 
oracle

>  <origin>  (40) 
adg

>  <m_score__min__energy>  (40) 
-12.199999999999999

>  <m_primary>  (40) 
energy

$$$$
40:0
     RDKit          3D

 35 37  0  0  0  0  0  0  0  0999 V2000
   59.6530   32.9960   49.9700 O   0  0  0  0  0  0  0  0  0  0  0  0
   59.6630   33.1430   48.7180 C   0  0  0  0  0  0  0  0  0  0  0  0
   58.4350   33.2320   47.9830 N   0  0  0  0  0  0  0  0  0  0  0  0
   58.2010   32.7160   46.6660 C   0  0  0  0  0  0  0  0  0  0  0  0
   57.9820   33.6160   45.6160 C   0  0  0  0  0  0  0  0  0  0  0  0
   57.7380   33.1480   44.3230 C   0  0  0  0  0  0  0  0  0  0  0  0
   57.7100   31.7750   44.0680 C   0  0  0  0  0  0  0  0  0  0  0  0
   57.9240   30.8600   45.1050 C   0  0  0  0  0  0  0  0  0  0  0  0
   57.8700   29.4550   44.8130 N   0  0  0  0  0  0  0  0  0  0  0  0
   56.8360   28.5430   45.2110 C   0  0  0  0  0  0  0  0  0  0  0  0
   55.6370   28.9210   45.1340 O   0  0  0  0  0  0  0  0  0  0  0  0
   57.1360   27.1580   45.6500 C   0  0  0  0  0  0  0  0  0  0  0  0
   58.4670   26.7030   45.6810 C   0  0  0  0  0  0  0  0  0  0  0  0
   58.7630   25.4050   46.1060 C   0  0  0  0  0  0  0  0  0  0  0  0
   60.0530   24.9840   46.1370 F   0  0  0  0  0  0  0  0  0  0  0  0
   57.7340   24.5430   46.4950 C   0  0  0  0  0  0  0  0  0  0  0  0
   58.0270   23.2530   46.9200 O   0  0  0  0  0  0  0  0  0  0  0  0
   56.4070   24.9800   46.4570 C   0  0  0  0  0  0  0  0  0  0  0  0
   56.1030   26.2800   46.0370 C   0  0  0  0  0  0  0  0  0  0  0  0
   54.7750   26.6940   46.0260 O   0  0  0  0  0  0  0  0  0  0  0  0
   58.1330   31.3350   46.4120 C   0  0  0  0  0  0  0  0  0  0  0  0
   60.9430   33.1720   47.9990 C   0  0  0  0  0  0  0  0  0  0  0  0
   61.2510   33.9800   46.9110 C   0  0  0  0  0  0  0  0  0  0  0  0
   62.5520   33.7850   46.4310 C   0  0  0  0  0  0  0  0  0  0  0  0
   63.2700   32.8270   47.1350 C   0  0  0  0  0  0  0  0  0  0  0  0
   62.2840   32.2210   48.3560 S   0  0  0  0  0  0  0  0  0  0  0  0
   58.0023   34.6984   45.8107 H   0  0  0  0  0  0  0  0  0  0  0  0
   57.5675   33.8621   43.5038 H   0  0  0  0  0  0  0  0  0  0  0  0
   57.5189   31.4113   43.0476 H   0  0  0  0  0  0  0  0  0  0  0  0
   59.2807   27.3739   45.3684 H   0  0  0  0  0  0  0  0  0  0  0  0
   55.5976   24.2989   46.7587 H   0  0  0  0  0  0  0  0  0  0  0  0
   58.2440   30.6210   47.2414 H   0  0  0  0  0  0  0  0  0  0  0  0
   60.5446   34.6996   46.4715 H   0  0  0  0  0  0  0  0  0  0  0  0
   62.9667   34.3390   45.5760 H   0  0  0  0  0  0  0  0  0  0  0  0
   64.3054   32.5176   46.9295 H   0  0  0  0  0  0  0  0  0  0  0  0
  1  2  2  0
  2  3  1  0
  3  4  1  0
  4  5  2  0
  5  6  1  0
  6  7  2  0
  7  8  1  0
  8  9  1  0
  9 10  1  0
 10 11  2  0
 10 12  1  0
 12 13  2  0
 13 14  1  0
 14 15  1  0
 14 16  2  0
 16 17  1  0
 16 18  1  0
 18 19  2  0
 19 20  1  0
  8 21  2  0
  2 22  1  0
 22 23  2  0
 23 24  1  0
 24 25  2  0
 25 26  1  0
 21  4  1  0
 26 22  1  0
 19 12  1  0
  5 27  1  0
  6 28  1  0
  7 29  1  0
 13 30  1  0
 18 31  1  0
 21 32  1  0
 23 33  1  0
 24 34  1  0
 25 35  1  0
M  CHG  4   3  -1   9  -1  17  -1  20  -1
M  END
>  <UniqueID>  (41) 
39

>  <SMILES>  (41) 
O=C([N-]c1cccc([N-]C(=O)c2cc(F)c([O-])cc2[O-])c1)c1cccs1

>  <Energy>  (41) 
73.54830967311952

>  <Genealogy>  (41) 
O=C([N-]c1cccc([N-]C(=O)c2cc(F)c([O-])cc2[O-])c1)c1cccs1 (protonated)
O=C([N-]c1cccc([N-]C(=O)c2cc(F)c([O-])cc2[O-])c1)c1cccs1 (3D coordinates assigned)
O=C([N-]c1cccc([N-]C(=O)c2cc(F)c([O-])cc2[O-])c1)c1cccs1 (optimized conformer: 73.54830967311952 kcal/mol)

>  <smiles>  (41) 
O=C(Nc1cccc(NC(=O)c2cc(F)c(O)cc2O)c1)c1cccs1

>  <score_type>  (41) 
oracle

>  <origin>  (41) 
adg

>  <m_score__min__energy>  (41) 
-16.370000000000001

>  <m_primary>  (41) 
energy

$$$$
41:0
     RDKit          3D

 31 32  0  0  0  0  0  0  0  0999 V2000
   55.0990   29.4410   45.1440 O   0  0  0  0  0  0  0  0  0  0  0  0
   56.3200   29.5890   44.8670 C   0  0  0  0  0  0  0  0  0  0  0  0
   56.8900   30.9020   44.8150 N   0  0  0  0  0  0  0  0  0  0  0  0
   58.3240   31.1610   44.8780 C   0  0  0  0  0  0  0  0  0  0  0  0
   58.6340   32.1130   46.0020 C   0  0  0  0  0  0  0  0  0  0  0  0
   58.6510   31.6650   47.3330 C   0  0  0  0  0  0  0  0  0  0  0  0
   58.9640   32.5500   48.3690 C   0  0  0  0  0  0  0  0  0  0  0  0
   59.2660   33.8840   48.0840 C   0  0  0  0  0  0  0  0  0  0  0  0
   59.2580   34.3400   46.7620 C   0  0  0  0  0  0  0  0  0  0  0  0
   59.5650   35.6720   46.4920 O   0  0  0  0  0  0  0  0  0  0  0  0
   58.9440   33.4530   45.7220 C   0  0  0  0  0  0  0  0  0  0  0  0
   57.1630   28.4190   44.5610 C   0  0  0  0  0  0  0  0  0  0  0  0
   57.6180   28.2900   43.3920 O   0  0  0  0  0  0  0  0  0  0  0  0
   57.4860   27.3930   45.5820 C   0  0  0  0  0  0  0  0  0  0  0  0
   58.8140   27.2080   46.0090 C   0  0  0  0  0  0  0  0  0  0  0  0
   59.1260   26.2290   46.9560 C   0  0  0  0  0  0  0  0  0  0  0  0
   58.1190   25.4180   47.4830 C   0  0  0  0  0  0  0  0  0  0  0  0
   56.7980   25.5830   47.0620 C   0  0  0  0  0  0  0  0  0  0  0  0
   56.4770   26.5620   46.1150 C   0  0  0  0  0  0  0  0  0  0  0  0
   55.1500   26.7120   45.7220 O   0  0  0  0  0  0  0  0  0  0  0  0
   58.8568   30.2137   45.0475 H   0  0  0  0  0  0  0  0  0  0  0  0
   58.6484   31.6110   43.9281 H   0  0  0  0  0  0  0  0  0  0  0  0
   58.4173   30.6146   47.5610 H   0  0  0  0  0  0  0  0  0  0  0  0
   58.9725   32.1955   49.4103 H   0  0  0  0  0  0  0  0  0  0  0  0
   59.5108   34.5777   48.9019 H   0  0  0  0  0  0  0  0  0  0  0  0
   59.2990   36.4150   47.1280 H   0  0  0  0  0  0  0  0  0  0  0  0
   58.9407   33.8094   44.6813 H   0  0  0  0  0  0  0  0  0  0  0  0
   59.6133   27.8394   45.5938 H   0  0  0  0  0  0  0  0  0  0  0  0
   60.1667   26.0970   47.2869 H   0  0  0  0  0  0  0  0  0  0  0  0
   58.3664   24.6492   48.2298 H   0  0  0  0  0  0  0  0  0  0  0  0
   56.0066   24.9410   47.4763 H   0  0  0  0  0  0  0  0  0  0  0  0
  1  2  2  0
  2  3  1  0
  3  4  1  0
  4  5  1  0
  5  6  2  0
  6  7  1  0
  7  8  2  0
  8  9  1  0
  9 10  1  0
  9 11  2  0
  2 12  1  0
 12 13  2  0
 12 14  1  0
 14 15  2  0
 15 16  1  0
 16 17  2  0
 17 18  1  0
 18 19  2  0
 19 20  1  0
 11  5  1  0
 19 14  1  0
  4 21  1  0
  4 22  1  0
  6 23  1  0
  7 24  1  0
  8 25  1  0
 10 26  1  0
 11 27  1  0
 15 28  1  0
 16 29  1  0
 17 30  1  0
 18 31  1  0
M  CHG  2   3  -1  20  -1
M  END
>  <UniqueID>  (42) 
40

>  <SMILES>  (42) 
O=C([N-]Cc1cccc(O)c1)C(=O)c1ccccc1[O-]

>  <Energy>  (42) 
33.55540185640427

>  <Genealogy>  (42) 
O=C([N-]Cc1cccc(O)c1)C(=O)c1ccccc1[O-] (protonated)
O=C([N-]Cc1cccc(O)c1)C(=O)c1ccccc1[O-] (3D coordinates assigned)
O=C([N-]Cc1cccc(O)c1)C(=O)c1ccccc1[O-] (optimized conformer: 33.55540185640427 kcal/mol)

>  <smiles>  (42) 
O=C(NCc1cccc(O)c1)C(=O)c1ccccc1O

>  <score_type>  (42) 
oracle

>  <origin>  (42) 
adg

>  <m_score__min__energy>  (42) 
-12.4

>  <m_primary>  (42) 
energy

$$$$
42:0
     RDKit          3D

 59 62  0  0  0  0  0  0  0  0999 V2000
   55.2630   26.7350   45.9780 O   0  0  0  0  0  0  0  0  0  0  0  0
   55.2710   25.4780   45.8750 C   0  0  0  0  0  0  0  0  0  0  0  0
   54.0670   24.7940   45.9890 O   0  0  0  0  0  0  0  0  0  0  0  0
   56.5450   24.7270   45.7150 C   0  0  0  0  0  0  0  0  0  0  0  0
   56.4800   23.3220   45.6050 C   0  0  0  0  0  0  0  0  0  0  0  0
   57.6440   22.5540   45.5300 C   0  0  0  0  0  0  0  0  0  0  0  0
   58.8930   23.1710   45.5580 C   0  0  0  0  0  0  0  0  0  0  0  0
   58.9820   24.5600   45.6540 C   0  0  0  0  0  0  0  0  0  0  0  0
   57.8220   25.3530   45.7240 C   0  0  0  0  0  0  0  0  0  0  0  0
   57.9880   26.8210   45.7480 C   0  0  0  0  0  0  0  0  0  0  0  0
   58.6520   27.3520   46.6790 O   0  0  0  0  0  0  0  0  0  0  0  0
   57.3350   27.6350   44.7580 N   0  0  0  0  0  0  0  0  0  0  0  0
   57.4910   29.0600   44.6530 C   0  0  0  0  0  0  0  0  0  0  0  0
   56.8050   29.8050   43.6780 C   0  0  0  0  0  0  0  0  0  0  0  0
   56.9670   31.1920   43.6070 C   0  0  0  0  0  0  0  0  0  0  0  0
   57.7990   31.8490   44.5130 C   0  0  0  0  0  0  0  0  0  0  0  0
   58.4680   31.1230   45.5120 C   0  0  0  0  0  0  0  0  0  0  0  0
   59.3120   31.7930   46.4620 N   0  0  0  0  0  0  0  0  0  0  0  0
   60.5610   31.1610   46.8920 C   0  0  0  0  0  0  0  0  0  0  0  0
   60.4030   30.6120   48.2830 C   0  0  0  0  0  0  0  0  0  0  0  0
   61.4730   30.6730   49.1920 C   0  0  0  0  0  0  0  0  0  0  0  0
   61.3480   30.1120   50.4660 C   0  0  0  0  0  0  0  0  0  0  0  0
   60.1570   29.4810   50.8400 C   0  0  0  0  0  0  0  0  0  0  0  0
   59.0900   29.4090   49.9390 C   0  0  0  0  0  0  0  0  0  0  0  0
   59.2130   29.9670   48.6630 C   0  0  0  0  0  0  0  0  0  0  0  0
   58.7180   33.1790   47.3330 S   0  0  0  0  0  0  0  0  0  0  0  0
   58.5470   32.8270   48.7860 O   0  0  0  0  0  0  0  0  0  0  0  0
   57.3840   33.5880   46.7720 O   0  0  0  0  0  0  0  0  0  0  0  0
   59.8560   34.5550   47.2120 C   0  0  0  0  0  0  0  0  0  0  0  0
   61.2440   34.1600   47.6420 C   0  0  0  0  0  0  0  0  0  0  0  0
   62.2150   33.8090   46.6860 C   0  0  0  0  0  0  0  0  0  0  0  0
   63.5070   33.4550   47.0870 C   0  0  0  0  0  0  0  0  0  0  0  0
   63.8380   33.4390   48.4450 C   0  0  0  0  0  0  0  0  0  0  0  0
   62.8770   33.7800   49.4030 C   0  0  0  0  0  0  0  0  0  0  0  0
   61.5830   34.1340   49.0060 C   0  0  0  0  0  0  0  0  0  0  0  0
   58.2970   29.7310   45.5840 C   0  0  0  0  0  0  0  0  0  0  0  0
   55.4992   22.8247   45.5779 H   0  0  0  0  0  0  0  0  0  0  0  0
   57.5746   21.4592   45.4486 H   0  0  0  0  0  0  0  0  0  0  0  0
   59.8083   22.5633   45.5044 H   0  0  0  0  0  0  0  0  0  0  0  0
   59.9711   25.0409   45.6752 H   0  0  0  0  0  0  0  0  0  0  0  0
   56.6550   27.1710   44.1100 H   0  0  0  0  0  0  0  0  0  0  0  0
   56.1378   29.2945   42.9678 H   0  0  0  0  0  0  0  0  0  0  0  0
   56.4363   31.7669   42.8338 H   0  0  0  0  0  0  0  0  0  0  0  0
   57.9317   32.9389   44.4451 H   0  0  0  0  0  0  0  0  0  0  0  0
   60.8115   30.3414   46.2024 H   0  0  0  0  0  0  0  0  0  0  0  0
   61.3668   31.9098   46.8870 H   0  0  0  0  0  0  0  0  0  0  0  0
   62.4128   31.1643   48.8996 H   0  0  0  0  0  0  0  0  0  0  0  0
   62.1870   30.1667   51.1752 H   0  0  0  0  0  0  0  0  0  0  0  0
   60.0596   29.0411   51.8435 H   0  0  0  0  0  0  0  0  0  0  0  0
   58.1536   28.9132   50.2343 H   0  0  0  0  0  0  0  0  0  0  0  0
   58.3751   29.9011   47.9533 H   0  0  0  0  0  0  0  0  0  0  0  0
   59.8896   34.9009   46.1683 H   0  0  0  0  0  0  0  0  0  0  0  0
   59.5023   35.3561   47.8777 H   0  0  0  0  0  0  0  0  0  0  0  0
   61.9562   33.8131   45.6169 H   0  0  0  0  0  0  0  0  0  0  0  0
   64.2631   33.1891   46.3336 H   0  0  0  0  0  0  0  0  0  0  0  0
   64.8538   33.1584   48.7604 H   0  0  0  0  0  0  0  0  0  0  0  0
   63.1396   33.7697   50.4712 H   0  0  0  0  0  0  0  0  0  0  0  0
   60.8286   34.3928   49.7635 H   0  0  0  0  0  0  0  0  0  0  0  0
   58.8005   29.1611   46.3788 H   0  0  0  0  0  0  0  0  0  0  0  0
  1  2  2  0
  2  3  1  0
  2  4  1  0
  4  5  2  0
  5  6  1  0
  6  7  2  0
  7  8  1  0
  8  9  2  0
  9 10  1  0
 10 11  2  0
 10 12  1  0
 12 13  1  0
 13 14  2  0
 14 15  1  0
 15 16  2  0
 16 17  1  0
 17 18  1  0
 18 19  1  0
 19 20  1  0
 20 21  2  0
 21 22  1  0
 22 23  2  0
 23 24  1  0
 24 25  2  0
 18 26  1  0
 26 27  2  0
 26 28  2  0
 26 29  1  0
 29 30  1  0
 30 31  2  0
 31 32  1  0
 32 33  2  0
 33 34  1  0
 34 35  2  0
 17 36  2  0
  9  4  1  0
 36 13  1  0
 25 20  1  0
 35 30  1  0
  5 37  1  0
  6 38  1  0
  7 39  1  0
  8 40  1  0
 12 41  1  0
 14 42  1  0
 15 43  1  0
 16 44  1  0
 19 45  1  0
 19 46  1  0
 21 47  1  0
 22 48  1  0
 23 49  1  0
 24 50  1  0
 25 51  1  0
 29 52  1  0
 29 53  1  0
 31 54  1  0
 32 55  1  0
 33 56  1  0
 34 57  1  0
 35 58  1  0
 36 59  1  0
M  CHG  1   3  -1
M  END
>  <UniqueID>  (43) 
41

>  <SMILES>  (43) 
O=C([O-])c1ccccc1C(=O)Nc1cccc(N(Cc2ccccc2)S(=O)(=O)Cc2ccccc2)c1

>  <Energy>  (43) 
73.05207382172979

>  <Genealogy>  (43) 
O=C([O-])c1ccccc1C(=O)Nc1cccc(N(Cc2ccccc2)S(=O)(=O)Cc2ccccc2)c1 (protonated)
O=C([O-])c1ccccc1C(=O)Nc1cccc(N(Cc2ccccc2)S(=O)(=O)Cc2ccccc2)c1 (3D coordinates assigned)
O=C([O-])c1ccccc1C(=O)Nc1cccc(N(Cc2ccccc2)S(=O)(=O)Cc2ccccc2)c1 (optimized conformer: 73.05207382172979 kcal/mol)

>  <smiles>  (43) 
O=C(O)c1ccccc1C(=O)Nc1cccc(N(Cc2ccccc2)S(=O)(=O)Cc2ccccc2)c1

>  <score_type>  (43) 
oracle

>  <origin>  (43) 
adg

>  <m_score__min__energy>  (43) 
-13.58

>  <m_primary>  (43) 
energy

$$$$
43:0
     RDKit          3D

 30 31  0  0  0  0  0  0  0  0999 V2000
   58.4190   22.0800   44.4300 C   0  0  0  0  0  0  0  0  0  0  0  0
   57.6790   22.8130   45.5030 C   0  0  0  0  0  0  0  0  0  0  0  0
   57.0050   24.0070   45.2100 C   0  0  0  0  0  0  0  0  0  0  0  0
   56.3170   24.6880   46.2280 C   0  0  0  0  0  0  0  0  0  0  0  0
   55.6000   25.9520   45.9400 C   0  0  0  0  0  0  0  0  0  0  0  0
   54.3750   25.9290   45.6380 O   0  0  0  0  0  0  0  0  0  0  0  0
   56.2900   27.2030   46.0050 N   0  0  0  0  0  0  0  0  0  0  0  0
   57.7220   27.5260   45.0860 S   0  0  0  0  0  0  0  0  0  0  0  0
   58.9270   27.3190   45.9580 O   0  0  0  0  0  0  0  0  0  0  0  0
   57.7820   26.5710   43.9260 O   0  0  0  0  0  0  0  0  0  0  0  0
   57.7040   29.1900   44.5130 C   0  0  0  0  0  0  0  0  0  0  0  0
   58.4080   30.1870   45.2050 C   0  0  0  0  0  0  0  0  0  0  0  0
   58.3880   31.5080   44.7460 C   0  0  0  0  0  0  0  0  0  0  0  0
   57.6650   31.8390   43.5960 C   0  0  0  0  0  0  0  0  0  0  0  0
   56.9570   30.8500   42.9060 C   0  0  0  0  0  0  0  0  0  0  0  0
   56.9740   29.5290   43.3640 C   0  0  0  0  0  0  0  0  0  0  0  0
   56.3250   24.1510   47.5270 C   0  0  0  0  0  0  0  0  0  0  0  0
   57.0100   22.9590   47.7790 C   0  0  0  0  0  0  0  0  0  0  0  0
   57.0230   22.4700   48.9390 O   0  0  0  0  0  0  0  0  0  0  0  0
   57.6660   22.3230   46.7720 N   0  0  0  0  0  0  0  0  0  0  0  0
   59.1291   21.3766   44.8893 H   0  0  0  0  0  0  0  0  0  0  0  0
   57.7040   21.5240   43.8057 H   0  0  0  0  0  0  0  0  0  0  0  0
   58.9682   22.8002   43.8057 H   0  0  0  0  0  0  0  0  0  0  0  0
   57.0149   24.4092   44.1862 H   0  0  0  0  0  0  0  0  0  0  0  0
   58.9769   29.9292   46.1105 H   0  0  0  0  0  0  0  0  0  0  0  0
   58.9416   32.2873   45.2903 H   0  0  0  0  0  0  0  0  0  0  0  0
   57.6531   32.8776   43.2339 H   0  0  0  0  0  0  0  0  0  0  0  0
   56.3865   31.1114   42.0026 H   0  0  0  0  0  0  0  0  0  0  0  0
   56.4133   28.7533   42.8218 H   0  0  0  0  0  0  0  0  0  0  0  0
   55.7947   24.6664   48.3413 H   0  0  0  0  0  0  0  0  0  0  0  0
  1  2  1  0
  2  3  2  0
  3  4  1  0
  4  5  1  0
  5  6  2  0
  5  7  1  0
  7  8  1  0
  8  9  2  0
  8 10  2  0
  8 11  1  0
 11 12  2  0
 12 13  1  0
 13 14  2  0
 14 15  1  0
 15 16  2  0
  4 17  2  0
 17 18  1  0
 18 19  2  0
 18 20  1  0
 20  2  1  0
 16 11  1  0
  1 21  1  0
  1 22  1  0
  1 23  1  0
  3 24  1  0
 12 25  1  0
 13 26  1  0
 14 27  1  0
 15 28  1  0
 16 29  1  0
 17 30  1  0
M  CHG  2   7  -1  20  -1
M  END
>  <UniqueID>  (44) 
42

>  <SMILES>  (44) 
Cc1cc(C(=O)[N-]S(=O)(=O)c2ccccc2)cc(=O)[n-]1

>  <Energy>  (44) 
32.93043082462796

>  <Genealogy>  (44) 
Cc1cc(C(=O)[N-]S(=O)(=O)c2ccccc2)cc(=O)[n-]1 (protonated)
Cc1cc(C(=O)[N-]S(=O)(=O)c2ccccc2)cc(=O)[n-]1 (3D coordinates assigned)
Cc1cc(C(=O)[N-]S(=O)(=O)c2ccccc2)cc(=O)[n-]1 (optimized conformer: 32.93043082462796 kcal/mol)

>  <smiles>  (44) 
Cc1cc(C(=O)NS(=O)(=O)c2ccccc2)cc(=O)[nH]1

>  <score_type>  (44) 
oracle

>  <origin>  (44) 
adg

>  <m_score__min__energy>  (44) 
-10.84

>  <m_primary>  (44) 
energy

$$$$
44:0
     RDKit          3D

 54 58  0  0  0  0  0  0  0  0999 V2000
   56.5580   21.5350   42.6210 C   0  0  0  0  0  0  0  0  0  0  0  0
   56.3390   22.6760   43.5000 N   0  0  0  0  0  0  0  0  0  0  0  0
   57.2880   23.5170   43.9480 C   0  0  0  0  0  0  0  0  0  0  0  0
   56.6690   24.5060   44.6910 C   0  0  0  0  0  0  0  0  0  0  0  0
   57.3240   25.6310   45.4020 C   0  0  0  0  0  0  0  0  0  0  0  0
   58.7260   25.6660   45.4970 C   0  0  0  0  0  0  0  0  0  0  0  0
   59.3700   26.7070   46.1700 C   0  0  0  0  0  0  0  0  0  0  0  0
   58.6260   27.7440   46.7540 C   0  0  0  0  0  0  0  0  0  0  0  0
   59.3140   28.8420   47.4790 C   0  0  0  0  0  0  0  0  0  0  0  0
   59.7960   28.6190   48.7720 C   0  0  0  0  0  0  0  0  0  0  0  0
   60.4490   29.6400   49.4600 C   0  0  0  0  0  0  0  0  0  0  0  0
   60.9590   29.4460   50.7460 C   0  0  0  0  0  0  0  0  0  0  0  0
   61.6000   30.4610   51.3850 N   0  0  0  0  0  0  0  0  0  0  0  0
   61.7580   31.6800   50.7880 C   0  0  0  0  0  0  0  0  0  0  0  0
   62.4360   32.7630   51.4670 N   0  0  0  0  0  0  0  0  0  0  0  0
   62.5580   32.7570   52.9310 C   0  0  0  0  0  0  0  0  0  0  0  0
   63.0590   34.1090   53.4460 C   0  0  0  0  0  0  0  0  0  0  0  0
   64.2770   34.5150   52.7330 N   0  0  0  0  0  0  0  0  0  0  0  0
   64.1170   34.5800   51.2640 C   0  0  0  0  0  0  0  0  0  0  0  0
   62.8010   33.9800   50.7290 C   0  0  0  0  0  0  0  0  0  0  0  0
   61.2610   31.8760   49.5350 N   0  0  0  0  0  0  0  0  0  0  0  0
   60.6080   30.8960   48.8530 C   0  0  0  0  0  0  0  0  0  0  0  0
   60.1170   31.1250   47.5900 N   0  0  0  0  0  0  0  0  0  0  0  0
   60.3200   32.4400   46.9560 C   0  0  0  0  0  0  0  0  0  0  0  0
   59.5050   30.1110   46.8890 C   0  0  0  0  0  0  0  0  0  0  0  0
   59.1280   30.3030   45.7000 O   0  0  0  0  0  0  0  0  0  0  0  0
   57.2260   27.7160   46.6590 C   0  0  0  0  0  0  0  0  0  0  0  0
   56.5760   26.6770   45.9830 C   0  0  0  0  0  0  0  0  0  0  0  0
   55.1900   26.7110   45.8810 O   0  0  0  0  0  0  0  0  0  0  0  0
   55.3190   24.1900   44.6450 C   0  0  0  0  0  0  0  0  0  0  0  0
   55.1450   23.0760   43.9060 N   0  0  0  0  0  0  0  0  0  0  0  0
   56.7311   20.6333   43.2268 H   0  0  0  0  0  0  0  0  0  0  0  0
   55.6721   21.3858   41.9862 H   0  0  0  0  0  0  0  0  0  0  0  0
   57.4362   21.7244   41.9862 H   0  0  0  0  0  0  0  0  0  0  0  0
   58.3680   23.4330   43.7569 H   0  0  0  0  0  0  0  0  0  0  0  0
   59.3226   24.8648   45.0363 H   0  0  0  0  0  0  0  0  0  0  0  0
   60.4676   26.7141   46.2427 H   0  0  0  0  0  0  0  0  0  0  0  0
   59.6597   27.6363   49.2471 H   0  0  0  0  0  0  0  0  0  0  0  0
   60.8420   28.4713   51.2422 H   0  0  0  0  0  0  0  0  0  0  0  0
   61.9790   30.2730   52.3380 H   0  0  0  0  0  0  0  0  0  0  0  0
   61.5730   32.5464   53.3731 H   0  0  0  0  0  0  0  0  0  0  0  0
   63.2836   31.9819   53.2188 H   0  0  0  0  0  0  0  0  0  0  0  0
   62.2782   34.8676   53.2886 H   0  0  0  0  0  0  0  0  0  0  0  0
   63.2896   34.0168   54.5176 H   0  0  0  0  0  0  0  0  0  0  0  0
   65.0320   33.8250   52.9610 H   0  0  0  0  0  0  0  0  0  0  0  0
   64.1589   35.6368   50.9618 H   0  0  0  0  0  0  0  0  0  0  0  0
   64.9295   33.9736   50.8372 H   0  0  0  0  0  0  0  0  0  0  0  0
   61.9966   34.7221   50.8397 H   0  0  0  0  0  0  0  0  0  0  0  0
   62.9418   33.7175   49.6701 H   0  0  0  0  0  0  0  0  0  0  0  0
   60.4386   33.2080   47.7345 H   0  0  0  0  0  0  0  0  0  0  0  0
   61.2241   32.4097   46.3302 H   0  0  0  0  0  0  0  0  0  0  0  0
   59.4488   32.6837   46.3302 H   0  0  0  0  0  0  0  0  0  0  0  0
   56.6332   28.5193   47.1208 H   0  0  0  0  0  0  0  0  0  0  0  0
   54.5157   24.7596   45.1351 H   0  0  0  0  0  0  0  0  0  0  0  0
  1  2  1  0
  2  3  1  0
  3  4  2  0
  4  5  1  0
  5  6  2  0
  6  7  1  0
  7  8  2  0
  8  9  1  0
  9 10  2  0
 10 11  1  0
 11 12  2  0
 12 13  1  0
 13 14  2  0
 14 15  1  0
 15 16  1  0
 16 17  1  0
 17 18  1  0
 18 19  1  0
 19 20  1  0
 14 21  1  0
 21 22  2  0
 22 23  1  0
 23 24  1  0
 23 25  1  0
 25 26  2  0
  8 27  1  0
 27 28  2  0
 28 29  1  0
  4 30  1  0
 30 31  2  0
 31  2  1  0
 28  5  1  0
 25  9  1  0
 22 11  1  0
 20 15  1  0
  1 32  1  0
  1 33  1  0
  1 34  1  0
  3 35  1  0
  6 36  1  0
  7 37  1  0
 10 38  1  0
 12 39  1  0
 13 40  1  0
 16 41  1  0
 16 42  1  0
 17 43  1  0
 17 44  1  0
 18 45  1  0
 19 46  1  0
 19 47  1  0
 20 48  1  0
 20 49  1  0
 24 50  1  0
 24 51  1  0
 24 52  1  0
 27 53  1  0
 30 54  1  0
M  CHG  2  13   1  29  -1
M  END
>  <UniqueID>  (45) 
43

>  <SMILES>  (45) 
Cn1cc(-c2ccc(-c3cc4c[nH+]c(N5CCNCC5)nc4n(C)c3=O)cc2[O-])cn1

>  <Energy>  (45) 
112.25660677363477

>  <Genealogy>  (45) 
Cn1cc(-c2ccc(-c3cc4c[nH+]c(N5CCNCC5)nc4n(C)c3=O)cc2[O-])cn1 (protonated)
Cn1cc(-c2ccc(-c3cc4c[nH+]c(N5CCNCC5)nc4n(C)c3=O)cc2[O-])cn1 (3D coordinates assigned)
Cn1cc(-c2ccc(-c3cc4c[nH+]c(N5CCNCC5)nc4n(C)c3=O)cc2[O-])cn1 (nonaromatic ring conformer: 112.25660677363477 kcal/mol)

>  <smiles>  (45) 
Cn1cc(-c2ccc(-c3cc4cnc(N5CCNCC5)nc4n(C)c3=O)cc2O)cn1

>  <score_type>  (45) 
oracle

>  <origin>  (45) 
adg

>  <m_score__min__energy>  (45) 
-9.0600000000000005

>  <m_primary>  (45) 
energy

$$$$
45:0
     RDKit          3D

 48 50  0  0  0  0  0  0  0  0999 V2000
   59.0690   27.3330   42.8100 O   0  0  0  0  0  0  0  0  0  0  0  0
   58.0240   26.9100   43.3750 C   0  0  0  0  0  0  0  0  0  0  0  0
   57.4800   25.5630   43.0110 C   0  0  0  0  0  0  0  0  0  0  0  0
   57.7090   24.6400   44.0710 O   0  0  0  0  0  0  0  0  0  0  0  0
   56.9810   24.6480   45.2690 C   0  0  0  0  0  0  0  0  0  0  0  0
   57.5810   24.8410   46.3620 O   0  0  0  0  0  0  0  0  0  0  0  0
   55.5080   24.4270   45.2510 C   0  0  0  0  0  0  0  0  0  0  0  0
   54.6050   25.4480   45.6210 C   0  0  0  0  0  0  0  0  0  0  0  0
   55.0580   26.7080   45.9980 O   0  0  0  0  0  0  0  0  0  0  0  0
   53.2670   25.2140   45.6080 N   0  0  0  0  0  0  0  0  0  0  0  0
   52.7680   24.0080   45.2400 C   0  0  0  0  0  0  0  0  0  0  0  0
   51.5240   23.8180   45.2350 O   0  0  0  0  0  0  0  0  0  0  0  0
   53.6080   23.0080   44.8760 N   0  0  0  0  0  0  0  0  0  0  0  0
   54.9550   23.1850   44.8700 C   0  0  0  0  0  0  0  0  0  0  0  0
   55.6920   22.2210   44.5290 O   0  0  0  0  0  0  0  0  0  0  0  0
   57.3680   27.6930   44.3830 N   0  0  0  0  0  0  0  0  0  0  0  0
   57.5350   29.1140   44.5370 C   0  0  0  0  0  0  0  0  0  0  0  0
   58.7020   29.6060   45.1400 C   0  0  0  0  0  0  0  0  0  0  0  0
   58.8720   30.9780   45.3430 C   0  0  0  0  0  0  0  0  0  0  0  0
   57.8650   31.8770   44.9630 C   0  0  0  0  0  0  0  0  0  0  0  0
   58.0550   33.6060   45.2650 S   0  0  0  0  0  0  0  0  0  0  0  0
   59.2390   34.1180   44.4900 O   0  0  0  0  0  0  0  0  0  0  0  0
   56.8320   34.3310   44.7770 O   0  0  0  0  0  0  0  0  0  0  0  0
   58.2820   33.9390   46.9670 N   0  0  0  0  0  0  0  0  0  0  0  0
   58.1200   32.7140   47.7900 C   0  0  0  0  0  0  0  0  0  0  0  0
   59.4600   32.1190   48.2470 C   0  0  0  0  0  0  0  0  0  0  0  0
   60.2660   33.1370   49.0740 C   0  0  0  0  0  0  0  0  0  0  0  0
   59.9980   34.5930   48.6490 C   0  0  0  0  0  0  0  0  0  0  0  0
   59.5520   34.6670   47.1850 C   0  0  0  0  0  0  0  0  0  0  0  0
   56.6960   31.3900   44.3660 C   0  0  0  0  0  0  0  0  0  0  0  0
   56.5250   30.0170   44.1630 C   0  0  0  0  0  0  0  0  0  0  0  0
   56.3986   25.6449   42.8272 H   0  0  0  0  0  0  0  0  0  0  0  0
   57.9876   25.2028   42.1040 H   0  0  0  0  0  0  0  0  0  0  0  0
   56.7490   27.1930   45.0600 H   0  0  0  0  0  0  0  0  0  0  0  0
   59.4897   28.9061   45.4556 H   0  0  0  0  0  0  0  0  0  0  0  0
   59.7982   31.3539   45.8021 H   0  0  0  0  0  0  0  0  0  0  0  0
   57.5258   32.9658   48.6808 H   0  0  0  0  0  0  0  0  0  0  0  0
   57.6204   31.9598   47.1642 H   0  0  0  0  0  0  0  0  0  0  0  0
   59.2661   31.2288   48.8633 H   0  0  0  0  0  0  0  0  0  0  0  0
   60.0457   31.8520   47.3550 H   0  0  0  0  0  0  0  0  0  0  0  0
   59.9937   33.0239   50.1337 H   0  0  0  0  0  0  0  0  0  0  0  0
   61.3334   32.9324   48.9043 H   0  0  0  0  0  0  0  0  0  0  0  0
   59.2071   35.0138   49.2872 H   0  0  0  0  0  0  0  0  0  0  0  0
   60.9301   35.1665   48.7597 H   0  0  0  0  0  0  0  0  0  0  0  0
   59.4114   35.7220   46.9072 H   0  0  0  0  0  0  0  0  0  0  0  0
   60.3293   34.1984   46.5635 H   0  0  0  0  0  0  0  0  0  0  0  0
   55.9077   32.0913   44.0549 H   0  0  0  0  0  0  0  0  0  0  0  0
   55.5960   29.6421   43.7086 H   0  0  0  0  0  0  0  0  0  0  0  0
  1  2  2  0
  2  3  1  0
  3  4  1  0
  4  5  1  0
  5  6  2  0
  5  7  1  0
  7  8  2  0
  8  9  1  0
  8 10  1  0
 10 11  1  0
 11 12  2  0
 11 13  1  0
 13 14  1  0
 14 15  2  0
  2 16  1  0
 16 17  1  0
 17 18  2  0
 18 19  1  0
 19 20  2  0
 20 21  1  0
 21 22  2  0
 21 23  2  0
 21 24  1  0
 24 25  1  0
 25 26  1  0
 26 27  1  0
 27 28  1  0
 28 29  1  0
 20 30  1  0
 30 31  2  0
 14  7  1  0
 31 17  1  0
 29 24  1  0
  3 32  1  0
  3 33  1  0
 16 34  1  0
 18 35  1  0
 19 36  1  0
 25 37  1  0
 25 38  1  0
 26 39  1  0
 26 40  1  0
 27 41  1  0
 27 42  1  0
 28 43  1  0
 28 44  1  0
 29 45  1  0
 29 46  1  0
 30 47  1  0
 31 48  1  0
M  CHG  3   9  -1  10  -1  13  -1
M  END
>  <UniqueID>  (46) 
44

>  <SMILES>  (46) 
O=C(COC(=O)c1c([O-])[n-]c(=O)[n-]c1=O)Nc1ccc(S(=O)(=O)N2CCCCC2)cc1

>  <Energy>  (46) 
59.523381983864425

>  <Genealogy>  (46) 
O=C(COC(=O)c1c([O-])[n-]c(=O)[n-]c1=O)Nc1ccc(S(=O)(=O)N2CCCCC2)cc1 (protonated)
O=C(COC(=O)c1c([O-])[n-]c(=O)[n-]c1=O)Nc1ccc(S(=O)(=O)N2CCCCC2)cc1 (3D coordinates assigned)
O=C(COC(=O)c1c([O-])[n-]c(=O)[n-]c1=O)Nc1ccc(S(=O)(=O)N2CCCCC2)cc1 (nonaromatic ring conformer: 59.523381983864425 kcal/mol)

>  <smiles>  (46) 
O=C(COC(=O)c1c(O)[nH]c(=O)[nH]c1=O)Nc1ccc(S(=O)(=O)N2CCCCC2)cc1

>  <score_type>  (46) 
oracle

>  <origin>  (46) 
adg

>  <m_score__min__energy>  (46) 
-16.739999999999998

>  <m_primary>  (46) 
energy

$$$$
46:0
     RDKit          3D

 22 23  0  0  0  0  0  0  0  0999 V2000
   55.1450   29.1010   44.8510 O   0  0  0  0  0  0  0  0  0  0  0  0
   56.3500   29.4660   44.8600 C   0  0  0  0  0  0  0  0  0  0  0  0
   56.6580   30.8190   44.9400 O   0  0  0  0  0  0  0  0  0  0  0  0
   57.4430   28.4490   44.8140 C   0  0  0  0  0  0  0  0  0  0  0  0
   57.5840   27.5810   46.4130 S   0  0  0  0  0  0  0  0  0  0  0  0
   56.4580   26.2570   45.9650 C   0  0  0  0  0  0  0  0  0  0  0  0
   55.1110   26.3630   46.0450 N   0  0  0  0  0  0  0  0  0  0  0  0
   54.6280   25.1710   45.6260 C   0  0  0  0  0  0  0  0  0  0  0  0
   53.2680   24.8810   45.5600 O   0  0  0  0  0  0  0  0  0  0  0  0
   55.6570   24.3180   45.2860 C   0  0  0  0  0  0  0  0  0  0  0  0
   55.6580   23.0050   44.8100 C   0  0  0  0  0  0  0  0  0  0  0  0
   56.9040   22.4030   44.5580 C   0  0  0  0  0  0  0  0  0  0  0  0
   58.1040   23.1150   44.7860 C   0  0  0  0  0  0  0  0  0  0  0  0
   58.0690   24.4350   45.2680 C   0  0  0  0  0  0  0  0  0  0  0  0
   56.8180   25.0070   45.5040 C   0  0  0  0  0  0  0  0  0  0  0  0
   57.2217   27.7165   44.0238 H   0  0  0  0  0  0  0  0  0  0  0  0
   58.3938   28.9609   44.6044 H   0  0  0  0  0  0  0  0  0  0  0  0
   52.6780   25.2830   44.8430 H   0  0  0  0  0  0  0  0  0  0  0  0
   54.7176   22.4609   44.6382 H   0  0  0  0  0  0  0  0  0  0  0  0
   56.9451   21.3705   44.1807 H   0  0  0  0  0  0  0  0  0  0  0  0
   59.0719   22.6326   44.5848 H   0  0  0  0  0  0  0  0  0  0  0  0
   58.9958   24.9978   45.4528 H   0  0  0  0  0  0  0  0  0  0  0  0
  1  2  2  0
  2  3  1  0
  2  4  1  0
  4  5  1  0
  5  6  1  0
  6  7  1  0
  7  8  1  0
  8  9  1  0
  8 10  2  0
 10 11  1  0
 11 12  2  0
 12 13  1  0
 13 14  2  0
 14 15  1  0
 15  6  2  0
 15 10  1  0
  4 16  1  0
  4 17  1  0
  9 18  1  0
 11 19  1  0
 12 20  1  0
 13 21  1  0
 14 22  1  0
M  CHG  2   3  -1   7  -1
M  END
>  <UniqueID>  (47) 
45

>  <SMILES>  (47) 
O=C([O-])CSc1[n-]c(O)c2ccccc12

>  <Energy>  (47) 
51.28826609904953

>  <Genealogy>  (47) 
O=C([O-])CSc1[n-]c(O)c2ccccc12 (protonated)
O=C([O-])CSc1[n-]c(O)c2ccccc12 (3D coordinates assigned)
O=C([O-])CSc1[n-]c(O)c2ccccc12 (optimized conformer: 51.28826609904953 kcal/mol)

>  <smiles>  (47) 
O=C(O)CSc1[nH]c(O)c2ccccc12

>  <score_type>  (47) 
oracle

>  <origin>  (47) 
adg

>  <m_score__min__energy>  (47) 
-10.890000000000001

>  <m_primary>  (47) 
energy

$$$$
47:0
     RDKit          3D

 51 54  0  0  0  0  0  0  0  0999 V2000
   61.3860   34.0050   49.7510 C   0  0  0  0  0  0  0  0  0  0  0  0
   59.9460   33.8270   49.5000 N   0  0  0  0  0  0  0  0  0  0  0  0
   59.5740   34.4980   48.2450 C   0  0  0  0  0  0  0  0  0  0  0  0
   59.5930   32.3940   49.4450 C   0  0  0  0  0  0  0  0  0  0  0  0
   58.6690   32.0520   50.5840 C   0  0  0  0  0  0  0  0  0  0  0  0
   57.8580   30.9060   50.5310 C   0  0  0  0  0  0  0  0  0  0  0  0
   57.0840   30.5410   51.6360 C   0  0  0  0  0  0  0  0  0  0  0  0
   57.1250   31.3030   52.8150 C   0  0  0  0  0  0  0  0  0  0  0  0
   56.3860   30.8470   54.0500 C   0  0  0  0  0  0  0  0  0  0  0  0
   55.9660   29.3850   53.9530 C   0  0  0  0  0  0  0  0  0  0  0  0
   54.7160   29.0070   53.3950 C   0  0  0  0  0  0  0  0  0  0  0  0
   53.7610   29.9930   52.8530 C   0  0  0  0  0  0  0  0  0  0  0  0
   53.8720   30.4040   51.5160 C   0  0  0  0  0  0  0  0  0  0  0  0
   52.9540   31.3130   50.9800 C   0  0  0  0  0  0  0  0  0  0  0  0
   51.9310   31.8280   51.7820 C   0  0  0  0  0  0  0  0  0  0  0  0
   51.0150   32.7270   51.2460 O   0  0  0  0  0  0  0  0  0  0  0  0
   51.8280   31.4400   53.1220 C   0  0  0  0  0  0  0  0  0  0  0  0
   52.7440   30.5290   53.6600 C   0  0  0  0  0  0  0  0  0  0  0  0
   54.3300   27.7040   53.4170 N   0  0  0  0  0  0  0  0  0  0  0  0
   55.1130   26.7180   53.9230 C   0  0  0  0  0  0  0  0  0  0  0  0
   54.6550   25.3960   53.9170 C   0  0  0  0  0  0  0  0  0  0  0  0
   55.4550   24.3730   54.4380 C   0  0  0  0  0  0  0  0  0  0  0  0
   56.7160   24.6690   54.9600 C   0  0  0  0  0  0  0  0  0  0  0  0
   57.1830   25.9890   54.9690 C   0  0  0  0  0  0  0  0  0  0  0  0
   56.3830   27.0280   54.4520 C   0  0  0  0  0  0  0  0  0  0  0  0
   56.8050   28.3700   54.4670 C   0  0  0  0  0  0  0  0  0  0  0  0
   57.9330   28.6660   54.9540 O   0  0  0  0  0  0  0  0  0  0  0  0
   57.8950   32.4780   52.8460 C   0  0  0  0  0  0  0  0  0  0  0  0
   58.6700   32.8420   51.7430 C   0  0  0  0  0  0  0  0  0  0  0  0
   61.5691   34.0276   50.8354 H   0  0  0  0  0  0  0  0  0  0  0  0
   61.9425   33.1688   49.3025 H   0  0  0  0  0  0  0  0  0  0  0  0
   61.7221   34.9515   49.3025 H   0  0  0  0  0  0  0  0  0  0  0  0
   59.0522   35.4391   48.4731 H   0  0  0  0  0  0  0  0  0  0  0  0
   60.4813   34.7138   47.6617 H   0  0  0  0  0  0  0  0  0  0  0  0
   58.9103   33.8428   47.6617 H   0  0  0  0  0  0  0  0  0  0  0  0
   59.0912   32.1779   48.4903 H   0  0  0  0  0  0  0  0  0  0  0  0
   60.5093   31.7909   49.5271 H   0  0  0  0  0  0  0  0  0  0  0  0
   57.8321   30.2942   49.6172 H   0  0  0  0  0  0  0  0  0  0  0  0
   56.4389   29.6517   51.5819 H   0  0  0  0  0  0  0  0  0  0  0  0
   57.0427   30.9712   54.9237 H   0  0  0  0  0  0  0  0  0  0  0  0
   55.4762   31.4575   54.1481 H   0  0  0  0  0  0  0  0  0  0  0  0
   54.6839   30.0099   50.8871 H   0  0  0  0  0  0  0  0  0  0  0  0
   53.0368   31.6227   49.9277 H   0  0  0  0  0  0  0  0  0  0  0  0
   51.0265   31.8512   53.7532 H   0  0  0  0  0  0  0  0  0  0  0  0
   52.6674   30.2323   54.7164 H   0  0  0  0  0  0  0  0  0  0  0  0
   53.6640   25.1603   53.5019 H   0  0  0  0  0  0  0  0  0  0  0  0
   55.0905   23.3352   54.4364 H   0  0  0  0  0  0  0  0  0  0  0  0
   57.3445   23.8624   55.3655 H   0  0  0  0  0  0  0  0  0  0  0  0
   58.1774   26.2159   55.3809 H   0  0  0  0  0  0  0  0  0  0  0  0
   57.8872   33.1141   53.7434 H   0  0  0  0  0  0  0  0  0  0  0  0
   59.2847   33.7533   51.7832 H   0  0  0  0  0  0  0  0  0  0  0  0
  1  2  1  0
  2  3  1  0
  2  4  1  0
  4  5  1  0
  5  6  2  0
  6  7  1  0
  7  8  2  0
  8  9  1  0
  9 10  1  0
 10 11  2  0
 11 12  1  0
 12 13  2  0
 13 14  1  0
 14 15  2  0
 15 16  1  0
 15 17  1  0
 17 18  2  0
 11 19  1  0
 19 20  1  0
 20 21  2  0
 21 22  1  0
 22 23  2  0
 23 24  1  0
 24 25  2  0
 25 26  1  0
 26 27  2  0
  8 28  1  0
 28 29  2  0
 29  5  1  0
 26 10  1  0
 18 12  1  0
 25 20  1  0
  1 30  1  0
  1 31  1  0
  1 32  1  0
  3 33  1  0
  3 34  1  0
  3 35  1  0
  4 36  1  0
  4 37  1  0
  6 38  1  0
  7 39  1  0
  9 40  1  0
  9 41  1  0
 13 42  1  0
 14 43  1  0
 17 44  1  0
 18 45  1  0
 21 46  1  0
 22 47  1  0
 23 48  1  0
 24 49  1  0
 28 50  1  0
 29 51  1  0
M  CHG  2  16  -1  19  -1
M  END
>  <UniqueID>  (48) 
46

>  <SMILES>  (48) 
CN(C)Cc1ccc(Cc2c(-c3ccc([O-])cc3)[n-]c3ccccc3c2=O)cc1

>  <Energy>  (48) 
65.60078813395258

>  <Genealogy>  (48) 
CN(C)Cc1ccc(Cc2c(-c3ccc([O-])cc3)[n-]c3ccccc3c2=O)cc1 (protonated)
CN(C)Cc1ccc(Cc2c(-c3ccc([O-])cc3)[n-]c3ccccc3c2=O)cc1 (3D coordinates assigned)
CN(C)Cc1ccc(Cc2c(-c3ccc([O-])cc3)[n-]c3ccccc3c2=O)cc1 (optimized conformer: 65.60078813395258 kcal/mol)

>  <smiles>  (48) 
CN(C)Cc1ccc(Cc2c(-c3ccc(O)cc3)[nH]c3ccccc3c2=O)cc1

>  <score_type>  (48) 
oracle

>  <origin>  (48) 
adg

>  <m_score__min__energy>  (48) 
-11.6

>  <m_primary>  (48) 
energy

$$$$
48:0
     RDKit          3D

 40 43  0  0  0  0  0  0  0  0999 V2000
   60.3622   26.1609   46.6381 H   0  0  0  0  0  0  0  0  0  0  0  0
   59.2770   26.2770   46.5010 C   0  0  0  0  0  0  0  0  0  0  0  0
   58.8000   27.0870   45.5200 N   0  0  0  0  0  0  0  0  0  0  0  0
   57.4630   27.2670   45.3160 C   0  0  0  0  0  0  0  0  0  0  0  0
   57.0240   28.0470   44.3700 N   0  0  0  0  0  0  0  0  0  0  0  0
   56.4020   29.3340   44.5300 C   0  0  0  0  0  0  0  0  0  0  0  0
   55.1940   29.3750   44.8820 O   0  0  0  0  0  0  0  0  0  0  0  0
   57.1330   30.6100   44.3320 C   0  0  0  0  0  0  0  0  0  0  0  0
   57.1310   31.2000   43.0560 C   0  0  0  0  0  0  0  0  0  0  0  0
   56.5901   30.7137   42.2308 H   0  0  0  0  0  0  0  0  0  0  0  0
   57.8100   32.3980   42.8280 C   0  0  0  0  0  0  0  0  0  0  0  0
   57.8035   32.8504   41.8254 H   0  0  0  0  0  0  0  0  0  0  0  0
   58.4960   33.0220   43.8680 C   0  0  0  0  0  0  0  0  0  0  0  0
   59.0431   33.9579   43.6814 H   0  0  0  0  0  0  0  0  0  0  0  0
   58.4900   32.4610   45.1470 C   0  0  0  0  0  0  0  0  0  0  0  0
   59.0394   32.9543   45.9623 H   0  0  0  0  0  0  0  0  0  0  0  0
   57.7860   31.2690   45.4000 C   0  0  0  0  0  0  0  0  0  0  0  0
   57.7570   30.6890   46.7160 N   0  0  0  0  0  0  0  0  0  0  0  0
   58.8640   30.1360   47.4370 C   0  0  0  0  0  0  0  0  0  0  0  0
   58.8270   28.9470   47.8540 O   0  0  0  0  0  0  0  0  0  0  0  0
   60.0690   30.9530   47.6450 C   0  0  0  0  0  0  0  0  0  0  0  0
   61.5330   30.7320   46.8230 S   0  0  0  0  0  0  0  0  0  0  0  0
   62.3320   31.9990   47.5820 C   0  0  0  0  0  0  0  0  0  0  0  0
   63.6430   32.4300   47.3920 C   0  0  0  0  0  0  0  0  0  0  0  0
   64.3040   31.9281   46.6700 H   0  0  0  0  0  0  0  0  0  0  0  0
   64.0970   33.5220   48.1470 C   0  0  0  0  0  0  0  0  0  0  0  0
   65.1277   33.8845   48.0193 H   0  0  0  0  0  0  0  0  0  0  0  0
   63.2400   34.1570   49.0680 C   0  0  0  0  0  0  0  0  0  0  0  0
   63.6058   35.0127   49.6545 H   0  0  0  0  0  0  0  0  0  0  0  0
   61.9210   33.7040   49.2420 C   0  0  0  0  0  0  0  0  0  0  0  0
   61.2497   34.1974   49.9603 H   0  0  0  0  0  0  0  0  0  0  0  0
   61.4770   32.6140   48.4850 C   0  0  0  0  0  0  0  0  0  0  0  0
   60.2040   32.0320   48.5240 C   0  0  0  0  0  0  0  0  0  0  0  0
   59.1840   32.4830   49.3530 O   0  0  0  0  0  0  0  0  0  0  0  0
   56.5460   26.5810   46.1270 C   0  0  0  0  0  0  0  0  0  0  0  0
   55.1760   26.7290   45.9340 O   0  0  0  0  0  0  0  0  0  0  0  0
   57.0180   25.7450   47.1410 C   0  0  0  0  0  0  0  0  0  0  0  0
   56.3077   25.2074   47.7864 H   0  0  0  0  0  0  0  0  0  0  0  0
   58.3920   25.5920   47.3350 C   0  0  0  0  0  0  0  0  0  0  0  0
   58.7723   24.9398   48.1350 H   0  0  0  0  0  0  0  0  0  0  0  0
  1  2  1  0
  2  3  1  0
  3  4  1  0
  4  5  2  0
  5  6  1  0
  6  7  2  0
  6  8  1  0
  8  9  2  0
  9 10  1  0
  9 11  1  0
 11 12  1  0
 11 13  2  0
 13 14  1  0
 13 15  1  0
 15 16  1  0
 15 17  2  0
 17 18  1  0
 18 19  1  0
 19 20  2  0
 19 21  1  0
 21 22  1  0
 22 23  1  0
 23 24  2  0
 24 25  1  0
 24 26  1  0
 26 27  1  0
 26 28  2  0
 28 29  1  0
 28 30  1  0
 30 31  1  0
 30 32  2  0
 32 33  1  0
 33 34  1  0
  4 35  1  0
 35 36  1  0
 35 37  2  0
 37 38  1  0
 37 39  1  0
 39 40  1  0
 39  2  2  0
 17  8  1  0
 33 21  2  0
 32 23  1  0
M  CHG  4   3  -1  18  -1  34  -1  36  -1
M  END
>  <UniqueID>  (49) 
47

>  <SMILES>  (49) 
O=C(/N=c1\[n-]cccc1[O-])c1ccccc1[N-]C(=O)c1sc2ccccc2c1[O-]

>  <Energy>  (49) 
89.03447176147967

>  <Genealogy>  (49) 
O=C(N=c1[n-]cccc1[O-])c1ccccc1[N-]C(=O)c1sc2ccccc2c1[O-] (protonated)
O=C(/N=c1\[n-]cccc1[O-])c1ccccc1[N-]C(=O)c1sc2ccccc2c1[O-] (cis-trans isomerization)
O=C(/N=c1\[n-]cccc1[O-])c1ccccc1[N-]C(=O)c1sc2ccccc2c1[O-] (3D coordinates assigned)
O=C(/N=c1\[n-]cccc1[O-])c1ccccc1[N-]C(=O)c1sc2ccccc2c1[O-] (optimized conformer: 89.03447176147967 kcal/mol)

>  <smiles>  (49) 
O=C(N=c1[nH]cccc1O)c1ccccc1NC(=O)c1sc2ccccc2c1O

>  <score_type>  (49) 
oracle

>  <origin>  (49) 
adg

>  <m_score__min__energy>  (49) 
-16.48

>  <m_primary>  (49) 
energy

$$$$
49:0
     RDKit          3D

 41 43  0  0  0  0  0  0  0  0999 V2000
   56.5680   30.4890   43.5310 C   0  0  0  0  0  0  0  0  0  0  0  0
   56.7910   30.8540   44.8880 O   0  0  0  0  0  0  0  0  0  0  0  0
   57.5510   31.9590   45.2940 C   0  0  0  0  0  0  0  0  0  0  0  0
   57.0630   33.2760   45.2300 C   0  0  0  0  0  0  0  0  0  0  0  0
   57.8670   34.3240   45.6850 C   0  0  0  0  0  0  0  0  0  0  0  0
   59.1410   34.0630   46.1930 C   0  0  0  0  0  0  0  0  0  0  0  0
   59.6010   32.7400   46.2310 C   0  0  0  0  0  0  0  0  0  0  0  0
   60.9260   32.4060   46.8530 C   0  0  0  0  0  0  0  0  0  0  0  0
   60.7440   31.5820   48.0500 N   0  0  0  0  0  0  0  0  0  0  0  0
   60.6400   30.1490   48.0770 C   0  0  0  0  0  0  0  0  0  0  0  0
   60.9360   29.5380   49.1380 O   0  0  0  0  0  0  0  0  0  0  0  0
   60.1400   29.3790   46.9220 C   0  0  0  0  0  0  0  0  0  0  0  0
   60.8730   29.3460   45.7340 C   0  0  0  0  0  0  0  0  0  0  0  0
   60.4530   28.5900   44.6850 N   0  0  0  0  0  0  0  0  0  0  0  0
   59.3070   27.8470   44.7440 C   0  0  0  0  0  0  0  0  0  0  0  0
   58.8710   27.1050   43.6360 O   0  0  0  0  0  0  0  0  0  0  0  0
   57.7730   27.4630   42.8030 C   0  0  0  0  0  0  0  0  0  0  0  0
   58.5370   27.8460   45.9270 C   0  0  0  0  0  0  0  0  0  0  0  0
   57.3140   27.0170   46.0630 C   0  0  0  0  0  0  0  0  0  0  0  0
   57.1680   25.8210   46.7390 C   0  0  0  0  0  0  0  0  0  0  0  0
   55.8810   25.4340   46.6720 N   0  0  0  0  0  0  0  0  0  0  0  0
   55.1980   26.3370   45.9840 N   0  0  0  0  0  0  0  0  0  0  0  0
   56.0420   27.3150   45.6090 C   0  0  0  0  0  0  0  0  0  0  0  0
   58.9560   28.6430   47.0040 C   0  0  0  0  0  0  0  0  0  0  0  0
   58.7980   31.7370   45.7830 N   0  0  0  0  0  0  0  0  0  0  0  0
   55.9949   29.5509   43.4931 H   0  0  0  0  0  0  0  0  0  0  0  0
   56.0020   31.2852   43.0254 H   0  0  0  0  0  0  0  0  0  0  0  0
   57.5348   30.3487   43.0254 H   0  0  0  0  0  0  0  0  0  0  0  0
   56.0600   33.4788   44.8264 H   0  0  0  0  0  0  0  0  0  0  0  0
   57.4950   35.3583   45.6429 H   0  0  0  0  0  0  0  0  0  0  0  0
   59.7748   34.8845   46.5583 H   0  0  0  0  0  0  0  0  0  0  0  0
   61.5378   31.8539   46.1244 H   0  0  0  0  0  0  0  0  0  0  0  0
   61.4269   33.3420   47.1413 H   0  0  0  0  0  0  0  0  0  0  0  0
   61.7972   29.9361   45.6462 H   0  0  0  0  0  0  0  0  0  0  0  0
   61.0390   28.5970   43.8220 H   0  0  0  0  0  0  0  0  0  0  0  0
   56.9135   27.7432   43.4296 H   0  0  0  0  0  0  0  0  0  0  0  0
   58.0571   28.3151   42.1679 H   0  0  0  0  0  0  0  0  0  0  0  0
   57.5003   26.6072   42.1679 H   0  0  0  0  0  0  0  0  0  0  0  0
   57.9739   25.2734   47.2496 H   0  0  0  0  0  0  0  0  0  0  0  0
   55.7645   28.2099   45.0326 H   0  0  0  0  0  0  0  0  0  0  0  0
   58.3473   28.6881   47.9191 H   0  0  0  0  0  0  0  0  0  0  0  0
  1  2  1  0
  2  3  1  0
  3  4  2  0
  4  5  1  0
  5  6  2  0
  6  7  1  0
  7  8  1  0
  8  9  1  0
  9 10  1  0
 10 11  2  0
 10 12  1  0
 12 13  2  0
 13 14  1  0
 14 15  2  0
 15 16  1  0
 16 17  1  0
 15 18  1  0
 18 19  1  0
 19 20  1  0
 20 21  2  0
 21 22  1  0
 22 23  1  0
 18 24  2  0
  7 25  2  0
 25  3  1  0
 24 12  1  0
 23 19  2  0
  1 26  1  0
  1 27  1  0
  1 28  1  0
  4 29  1  0
  5 30  1  0
  6 31  1  0
  8 32  1  0
  8 33  1  0
 13 34  1  0
 14 35  1  0
 17 36  1  0
 17 37  1  0
 17 38  1  0
 20 39  1  0
 23 40  1  0
 24 41  1  0
M  CHG  3   9  -1  14   1  22  -1
M  END
>  <UniqueID>  (50) 
48

>  <SMILES>  (50) 
COc1cccc(C[N-]C(=O)c2c[nH+]c(OC)c(-c3cn[n-]c3)c2)n1

>  <Energy>  (50) 
76.90408541366281

>  <Genealogy>  (50) 
COc1cccc(C[N-]C(=O)c2c[nH+]c(OC)c(-c3cn[n-]c3)c2)n1 (protonated)
COc1cccc(C[N-]C(=O)c2c[nH+]c(OC)c(-c3cn[n-]c3)c2)n1 (3D coordinates assigned)
COc1cccc(C[N-]C(=O)c2c[nH+]c(OC)c(-c3cn[n-]c3)c2)n1 (optimized conformer: 76.90408541366281 kcal/mol)

>  <smiles>  (50) 
COc1cccc(CNC(=O)c2cnc(OC)c(-c3cn[nH]c3)c2)n1

>  <score_type>  (50) 
oracle

>  <origin>  (50) 
adg

>  <m_score__min__energy>  (50) 
-9.0299999999999994

>  <m_primary>  (50) 
energy

$$$$
50:0
     RDKit          3D

 37 39  0  0  0  0  0  0  0  0999 V2000
   60.7310   26.3240   46.5700 C   0  0  0  0  0  0  0  0  0  0  0  0
   59.3130   26.3740   46.0030 C   0  0  0  0  0  0  0  0  0  0  0  0
   58.9280   27.7530   45.6630 N   0  0  0  0  0  0  0  0  0  0  0  0
   57.9840   27.9520   44.5520 C   0  0  0  0  0  0  0  0  0  0  0  0
   57.4970   29.3680   44.5150 C   0  0  0  0  0  0  0  0  0  0  0  0
   56.2510   29.7450   44.8610 N   0  0  0  0  0  0  0  0  0  0  0  0
   56.1910   31.0520   44.6650 N   0  0  0  0  0  0  0  0  0  0  0  0
   57.4040   31.4210   44.2100 C   0  0  0  0  0  0  0  0  0  0  0  0
   57.7690   32.8100   43.8100 C   0  0  0  0  0  0  0  0  0  0  0  0
   58.3370   33.5390   44.9840 C   0  0  0  0  0  0  0  0  0  0  0  0
   59.2520   34.5840   44.9330 C   0  0  0  0  0  0  0  0  0  0  0  0
   59.5570   35.1310   46.1400 N   0  0  0  0  0  0  0  0  0  0  0  0
   58.8860   34.5400   47.1530 C   0  0  0  0  0  0  0  0  0  0  0  0
   57.8790   33.3160   46.5860 S   0  0  0  0  0  0  0  0  0  0  0  0
   58.2110   30.3930   44.1130 O   0  0  0  0  0  0  0  0  0  0  0  0
   59.3970   28.8780   46.4550 C   0  0  0  0  0  0  0  0  0  0  0  0
   60.4650   29.6850   46.0060 C   0  0  0  0  0  0  0  0  0  0  0  0
   60.9050   30.7740   46.7640 C   0  0  0  0  0  0  0  0  0  0  0  0
   60.2930   31.0740   47.9820 C   0  0  0  0  0  0  0  0  0  0  0  0
   59.2390   30.2830   48.4460 C   0  0  0  0  0  0  0  0  0  0  0  0
   58.7930   29.1950   47.6900 C   0  0  0  0  0  0  0  0  0  0  0  0
   60.6867   26.3256   47.6691 H   0  0  0  0  0  0  0  0  0  0  0  0
   61.2319   25.4076   46.2245 H   0  0  0  0  0  0  0  0  0  0  0  0
   61.2952   27.2028   46.2245 H   0  0  0  0  0  0  0  0  0  0  0  0
   59.2665   25.7537   45.0957 H   0  0  0  0  0  0  0  0  0  0  0  0
   58.6175   25.9946   46.7661 H   0  0  0  0  0  0  0  0  0  0  0  0
   58.4896   27.7196   43.6031 H   0  0  0  0  0  0  0  0  0  0  0  0
   57.1209   27.2860   44.6991 H   0  0  0  0  0  0  0  0  0  0  0  0
   58.5176   32.7739   43.0048 H   0  0  0  0  0  0  0  0  0  0  0  0
   56.8700   33.3352   43.4551 H   0  0  0  0  0  0  0  0  0  0  0  0
   59.6943   34.9403   43.9910 H   0  0  0  0  0  0  0  0  0  0  0  0
   58.9850   34.8223   48.2116 H   0  0  0  0  0  0  0  0  0  0  0  0
   60.9562   29.4543   45.0492 H   0  0  0  0  0  0  0  0  0  0  0  0
   61.7357   31.3961   46.3996 H   0  0  0  0  0  0  0  0  0  0  0  0
   60.6402   31.9323   48.5760 H   0  0  0  0  0  0  0  0  0  0  0  0
   58.7593   30.5167   49.4079 H   0  0  0  0  0  0  0  0  0  0  0  0
   57.9614   28.5788   48.0624 H   0  0  0  0  0  0  0  0  0  0  0  0
  1  2  1  0
  2  3  1  0
  3  4  1  0
  4  5  1  0
  5  6  2  0
  6  7  1  0
  7  8  2  0
  8  9  1  0
  9 10  1  0
 10 11  2  0
 11 12  1  0
 12 13  2  0
 13 14  1  0
  8 15  1  0
  3 16  1  0
 16 17  2  0
 17 18  1  0
 18 19  2  0
 19 20  1  0
 20 21  2  0
 15  5  1  0
 21 16  1  0
 14 10  1  0
  1 22  1  0
  1 23  1  0
  1 24  1  0
  2 25  1  0
  2 26  1  0
  4 27  1  0
  4 28  1  0
  9 29  1  0
  9 30  1  0
 11 31  1  0
 13 32  1  0
 17 33  1  0
 18 34  1  0
 19 35  1  0
 20 36  1  0
 21 37  1  0
M  END
>  <UniqueID>  (51) 
49

>  <SMILES>  (51) 
CCN(Cc1nnc(Cc2cncs2)o1)c1ccccc1

>  <Energy>  (51) 
99.81834982238428

>  <Genealogy>  (51) 
CCN(Cc1nnc(Cc2cncs2)o1)c1ccccc1 (3D coordinates assigned)
CCN(Cc1nnc(Cc2cncs2)o1)c1ccccc1 (optimized conformer: 99.81834982238428 kcal/mol)

>  <smiles>  (51) 
CCN(Cc1nnc(Cc2cncs2)o1)c1ccccc1

>  <score_type>  (51) 
oracle

>  <origin>  (51) 
adg

>  <m_score__min__energy>  (51) 
-6.6200000000000001

>  <m_primary>  (51) 
energy

$$$$
51:0
     RDKit          3D

 57 61  0  0  0  0  0  0  0  0999 V2000
   56.7450   22.1830   43.4640 C   0  0  0  0  0  0  0  0  0  0  0  0
   56.0490   23.0510   44.3510 O   0  0  0  0  0  0  0  0  0  0  0  0
   56.4560   24.3580   44.6590 C   0  0  0  0  0  0  0  0  0  0  0  0
   55.9240   25.0780   45.7460 C   0  0  0  0  0  0  0  0  0  0  0  0
   56.3650   26.3780   46.0140 C   0  0  0  0  0  0  0  0  0  0  0  0
   57.3530   26.9740   45.2110 C   0  0  0  0  0  0  0  0  0  0  0  0
   57.8050   28.3180   45.4670 N   0  0  0  0  0  0  0  0  0  0  0  0
   58.3520   28.5780   46.6650 N   0  0  0  0  0  0  0  0  0  0  0  0
   58.8040   29.8130   47.0240 C   0  0  0  0  0  0  0  0  0  0  0  0
   59.5130   29.9590   48.3020 C   0  0  0  0  0  0  0  0  0  0  0  0
   60.7680   29.8290   48.3360 O   0  0  0  0  0  0  0  0  0  0  0  0
   58.7970   30.3630   49.4750 N   0  0  0  0  0  0  0  0  0  0  0  0
   58.5580   31.7550   49.8390 C   0  0  0  0  0  0  0  0  0  0  0  0
   59.6740   32.2670   50.6890 C   0  0  0  0  0  0  0  0  0  0  0  0
   60.0820   31.5820   51.6670 O   0  0  0  0  0  0  0  0  0  0  0  0
   60.2230   33.5240   50.4110 O   0  0  0  0  0  0  0  0  0  0  0  0
   61.6220   33.7960   50.4570 C   0  0  0  0  0  0  0  0  0  0  0  0
   62.2930   33.2590   49.2320 C   0  0  0  0  0  0  0  0  0  0  0  0
   62.3690   33.9060   48.0040 C   0  0  0  0  0  0  0  0  0  0  0  0
   62.9960   33.1370   47.0130 C   0  0  0  0  0  0  0  0  0  0  0  0
   63.4020   31.8840   47.4520 C   0  0  0  0  0  0  0  0  0  0  0  0
   62.9770   31.7300   49.0760 S   0  0  0  0  0  0  0  0  0  0  0  0
   58.6560   30.8480   46.0950 C   0  0  0  0  0  0  0  0  0  0  0  0
   58.8660   32.2180   46.1500 C   0  0  0  0  0  0  0  0  0  0  0  0
   59.2200   33.0680   47.2010 C   0  0  0  0  0  0  0  0  0  0  0  0
   59.2830   34.4480   46.9480 C   0  0  0  0  0  0  0  0  0  0  0  0
   58.9590   34.9560   45.6730 C   0  0  0  0  0  0  0  0  0  0  0  0
   58.5530   34.0940   44.6430 C   0  0  0  0  0  0  0  0  0  0  0  0
   58.5120   32.7170   44.9080 C   0  0  0  0  0  0  0  0  0  0  0  0
   58.0790   31.7260   44.0900 N   0  0  0  0  0  0  0  0  0  0  0  0
   57.5550   31.8620   42.7290 C   0  0  0  0  0  0  0  0  0  0  0  0
   58.1370   30.5940   44.8430 C   0  0  0  0  0  0  0  0  0  0  0  0
   57.6790   29.3110   44.5230 C   0  0  0  0  0  0  0  0  0  0  0  0
   57.1260   29.0820   43.4110 O   0  0  0  0  0  0  0  0  0  0  0  0
   57.8670   26.2600   44.1180 C   0  0  0  0  0  0  0  0  0  0  0  0
   57.4250   24.9610   43.8500 C   0  0  0  0  0  0  0  0  0  0  0  0
   57.3288   21.4549   44.0464 H   0  0  0  0  0  0  0  0  0  0  0  0
   56.0214   21.6497   42.8300 H   0  0  0  0  0  0  0  0  0  0  0  0
   57.4228   22.7734   42.8300 H   0  0  0  0  0  0  0  0  0  0  0  0
   55.1585   24.6162   46.3869 H   0  0  0  0  0  0  0  0  0  0  0  0
   55.9361   26.9375   46.8584 H   0  0  0  0  0  0  0  0  0  0  0  0
   58.4900   32.3627   48.9246 H   0  0  0  0  0  0  0  0  0  0  0  0
   57.6174   31.8204   50.4056 H   0  0  0  0  0  0  0  0  0  0  0  0
   61.7793   34.8834   50.5104 H   0  0  0  0  0  0  0  0  0  0  0  0
   62.0533   33.3103   51.3448 H   0  0  0  0  0  0  0  0  0  0  0  0
   61.9771   34.9185   47.8275 H   0  0  0  0  0  0  0  0  0  0  0  0
   63.1516   33.4933   45.9840 H   0  0  0  0  0  0  0  0  0  0  0  0
   63.9131   31.1226   46.8445 H   0  0  0  0  0  0  0  0  0  0  0  0
   59.4435   32.6667   48.2005 H   0  0  0  0  0  0  0  0  0  0  0  0
   59.5871   35.1371   47.7496 H   0  0  0  0  0  0  0  0  0  0  0  0
   59.0251   36.0377   45.4843 H   0  0  0  0  0  0  0  0  0  0  0  0
   58.2743   34.4874   43.6543 H   0  0  0  0  0  0  0  0  0  0  0  0
   56.4911   32.1381   42.7716 H   0  0  0  0  0  0  0  0  0  0  0  0
   58.1158   32.6443   42.1966 H   0  0  0  0  0  0  0  0  0  0  0  0
   57.6646   30.9057   42.1966 H   0  0  0  0  0  0  0  0  0  0  0  0
   58.6225   26.7252   43.4678 H   0  0  0  0  0  0  0  0  0  0  0  0
   57.8428   24.4083   42.9956 H   0  0  0  0  0  0  0  0  0  0  0  0
  1  2  1  0
  2  3  1  0
  3  4  2  0
  4  5  1  0
  5  6  2  0
  6  7  1  0
  7  8  1  0
  8  9  2  0
  9 10  1  0
 10 11  2  0
 10 12  1  0
 12 13  1  0
 13 14  1  0
 14 15  2  0
 14 16  1  0
 16 17  1  0
 17 18  1  0
 18 19  2  0
 19 20  1  0
 20 21  2  0
 21 22  1  0
  9 23  1  0
 23 24  1  0
 24 25  2  0
 25 26  1  0
 26 27  2  0
 27 28  1  0
 28 29  2  0
 29 30  1  0
 30 31  1  0
 30 32  1  0
 32 33  1  0
 33 34  2  0
  6 35  1  0
 35 36  2  0
 36  3  1  0
 33  7  1  0
 22 18  1  0
 32 23  2  0
 29 24  1  0
  1 37  1  0
  1 38  1  0
  1 39  1  0
  4 40  1  0
  5 41  1  0
 13 42  1  0
 13 43  1  0
 17 44  1  0
 17 45  1  0
 19 46  1  0
 20 47  1  0
 21 48  1  0
 25 49  1  0
 26 50  1  0
 27 51  1  0
 28 52  1  0
 31 53  1  0
 31 54  1  0
 31 55  1  0
 35 56  1  0
 36 57  1  0
M  CHG  1  12  -1
M  END
>  <UniqueID>  (52) 
50

>  <SMILES>  (52) 
COc1ccc(-n2nc(C(=O)[N-]CC(=O)OCc3cccs3)c3c4ccccc4n(C)c3c2=O)cc1

>  <Energy>  (52) 
141.00799488945248

>  <Genealogy>  (52) 
COc1ccc(-n2nc(C(=O)[N-]CC(=O)OCc3cccs3)c3c4ccccc4n(C)c3c2=O)cc1 (protonated)
COc1ccc(-n2nc(C(=O)[N-]CC(=O)OCc3cccs3)c3c4ccccc4n(C)c3c2=O)cc1 (3D coordinates assigned)
COc1ccc(-n2nc(C(=O)[N-]CC(=O)OCc3cccs3)c3c4ccccc4n(C)c3c2=O)cc1 (optimized conformer: 141.00799488945248 kcal/mol)

>  <smiles>  (52) 
COc1ccc(-n2nc(C(=O)NCC(=O)OCc3cccs3)c3c4ccccc4n(C)c3c2=O)cc1

>  <score_type>  (52) 
oracle

>  <origin>  (52) 
adg

>  <m_score__min__energy>  (52) 
-10.539999999999999

>  <m_primary>  (52) 
energy

$$$$
52:0
     RDKit          3D

 45 47  0  0  1  0  0  0  0  0999 V2000
   63.6800   33.5710   46.3710 C   0  0  0  0  0  0  0  0  0  0  0  0
   63.4370   33.0510   47.7560 C   0  0  0  0  0  0  0  0  0  0  0  0
   62.1770   32.7260   48.1840 C   0  0  0  0  0  0  0  0  0  0  0  0
   62.0230   32.2520   49.4780 C   0  0  0  0  0  0  0  0  0  0  0  0
   60.8250   31.9570   49.8430 N   0  0  0  0  0  0  0  0  0  0  0  0
   59.4850   32.9300   49.7970 S   0  0  0  0  0  0  0  0  0  0  0  0
   58.1450   32.4920   50.1220 O   0  0  0  0  0  0  0  0  0  0  0  0
   59.7490   34.1000   50.7160 O   0  0  0  0  0  0  0  0  0  0  0  0
   59.4310   33.6280   48.1830 C   0  0  0  0  0  0  0  0  0  0  0  0
   59.6890   34.9640   47.9480 C   0  0  0  0  0  0  0  0  0  0  0  0
   59.6410   35.4910   46.6730 C   0  0  0  0  0  0  0  0  0  0  0  0
   59.3340   34.7020   45.5890 C   0  0  0  0  0  0  0  0  0  0  0  0
   59.0750   33.3620   45.8240 C   0  0  0  0  0  0  0  0  0  0  0  0
   58.7580   32.5450   44.7010 N   0  0  0  0  0  0  0  0  0  0  0  0
   57.9340   31.4050   44.7590 C   0  0  0  0  0  0  0  0  0  0  0  0
   57.3940   30.9930   45.8200 O   0  0  0  0  0  0  0  0  0  0  0  0
   57.6990   30.6810   43.5670 N   0  0  0  0  0  0  0  0  0  0  0  0
   56.8620   29.4850   43.5130 C   0  0  0  0  0  0  0  0  0  0  0  0
   56.9540   28.6010   44.7280 C   0  0  0  0  0  0  0  0  0  0  0  0
   55.5690   28.5880   44.8840 O   0  0  0  0  0  0  0  0  0  0  0  0
   55.4880   29.7370   44.1280 C   0  0  0  0  0  0  0  0  0  0  0  0
   59.1230   32.8390   47.0950 C   0  0  0  0  0  0  0  0  0  0  0  0
   63.0850   32.1250   50.2590 N   0  0  0  0  0  0  0  0  0  0  0  0
   64.3330   32.4370   49.8620 C   0  0  0  0  0  0  0  0  0  0  0  0
   65.5090   32.2770   50.7830 C   0  0  0  0  0  0  0  0  0  0  0  0
   64.4750   32.8990   48.6020 N   0  0  0  0  0  0  0  0  0  0  0  0
   64.1450   34.5662   46.4293 H   0  0  0  0  0  0  0  0  0  0  0  0
   64.3503   32.8839   45.8337 H   0  0  0  0  0  0  0  0  0  0  0  0
   62.7229   33.6444   45.8337 H   0  0  0  0  0  0  0  0  0  0  0  0
   61.3089   32.8382   47.5178 H   0  0  0  0  0  0  0  0  0  0  0  0
   59.9378   35.6217   48.7939 H   0  0  0  0  0  0  0  0  0  0  0  0
   59.8518   36.5599   46.5214 H   0  0  0  0  0  0  0  0  0  0  0  0
   59.2956   35.1202   44.5723 H   0  0  0  0  0  0  0  0  0  0  0  0
   59.1750   32.8310   43.7840 H   0  0  0  0  0  0  0  0  0  0  0  0
   58.1240   30.9820   42.6640 H   0  0  0  0  0  0  0  0  0  0  0  0
   57.0812   29.1583   42.4858 H   0  0  0  0  0  0  0  0  0  0  0  0
   57.3839   27.6099   44.5209 H   0  0  0  0  0  0  0  0  0  0  0  0
   57.5883   28.9097   45.5720 H   0  0  0  0  0  0  0  0  0  0  0  0
   54.6673   29.7275   43.3957 H   0  0  0  0  0  0  0  0  0  0  0  0
   55.2850   30.6977   44.6238 H   0  0  0  0  0  0  0  0  0  0  0  0
   58.9115   31.7702   47.2466 H   0  0  0  0  0  0  0  0  0  0  0  0
   65.1660   32.3237   51.8271 H   0  0  0  0  0  0  0  0  0  0  0  0
   65.9900   31.3051   50.5981 H   0  0  0  0  0  0  0  0  0  0  0  0
   66.2321   33.0850   50.5981 H   0  0  0  0  0  0  0  0  0  0  0  0
   65.4410   33.1430   48.2890 H   0  0  0  0  0  0  0  0  0  0  0  0
  1  2  1  0
  2  3  2  0
  3  4  1  0
  4  5  2  0
  5  6  1  0
  6  7  2  0
  6  8  2  0
  6  9  1  0
  9 10  2  0
 10 11  1  0
 11 12  2  0
 12 13  1  0
 13 14  1  0
 14 15  1  0
 15 16  2  0
 15 17  1  0
 17 18  1  0
 18 19  1  0
 19 20  1  0
 20 21  1  0
 13 22  2  0
  4 23  1  0
 23 24  2  0
 24 25  1  0
 24 26  1  0
 26  2  1  0
 22  9  1  0
 21 18  1  0
  1 27  1  0
  1 28  1  0
  1 29  1  0
  3 30  1  0
 10 31  1  0
 11 32  1  0
 12 33  1  0
 14 34  1  0
 17 35  1  0
 18 36  1  0
 19 37  1  0
 19 38  1  0
 21 39  1  0
 21 40  1  0
 22 41  1  0
 25 42  1  0
 25 43  1  0
 25 44  1  0
 26 45  1  0
M  END
>  <smiles>  (53) 
Cc1cc(=NS(=O)(=O)c2cccc(NC(=O)NC3COC3)c2)nc(C)[nH]1

>  <score_type>  (53) 
oracle

>  <origin>  (53) 
adg

>  <m_score__min__energy>  (53) 
-9.1099999999999994

>  <m_primary>  (53) 
energy

$$$$
53:0
     RDKit          3D

 42 44  0  0  0  0  0  0  0  0999 V2000
   51.8160   24.4220   44.7810 C   0  0  0  0  0  0  0  0  0  0  0  0
   53.2120   24.1410   45.2460 C   0  0  0  0  0  0  0  0  0  0  0  0
   53.6280   22.9530   45.2390 O   0  0  0  0  0  0  0  0  0  0  0  0
   54.1020   25.1850   45.6600 N   0  0  0  0  0  0  0  0  0  0  0  0
   55.5360   25.1530   45.6230 C   0  0  0  0  0  0  0  0  0  0  0  0
   56.2310   24.3970   44.6650 C   0  0  0  0  0  0  0  0  0  0  0  0
   57.6270   24.4080   44.6400 C   0  0  0  0  0  0  0  0  0  0  0  0
   58.3410   25.1910   45.5520 C   0  0  0  0  0  0  0  0  0  0  0  0
   57.6560   25.9910   46.4840 C   0  0  0  0  0  0  0  0  0  0  0  0
   58.3460   26.7970   47.4490 N   0  0  0  0  0  0  0  0  0  0  0  0
   59.7070   27.2380   47.3800 C   0  0  0  0  0  0  0  0  0  0  0  0
   60.5110   27.0010   48.3210 O   0  0  0  0  0  0  0  0  0  0  0  0
   60.2050   27.8930   46.1300 C   0  0  0  0  0  0  0  0  0  0  0  0
   59.4210   29.1070   45.8470 N   0  0  0  0  0  0  0  0  0  0  0  0
   58.1920   28.9710   45.2680 C   0  0  0  0  0  0  0  0  0  0  0  0
   57.3910   30.0850   44.9770 C   0  0  0  0  0  0  0  0  0  0  0  0
   56.1090   29.8530   44.2720 C   0  0  0  0  0  0  0  0  0  0  0  0
   55.1450   29.3110   44.8760 O   0  0  0  0  0  0  0  0  0  0  0  0
   55.9750   30.1590   42.9230 O   0  0  0  0  0  0  0  0  0  0  0  0
   57.8530   31.3720   45.3430 C   0  0  0  0  0  0  0  0  0  0  0  0
   57.0660   32.5330   45.1660 C   0  0  0  0  0  0  0  0  0  0  0  0
   57.5540   33.7870   45.5350 C   0  0  0  0  0  0  0  0  0  0  0  0
   58.8200   33.9090   46.1000 C   0  0  0  0  0  0  0  0  0  0  0  0
   59.6040   32.7750   46.3140 C   0  0  0  0  0  0  0  0  0  0  0  0
   59.1300   31.4990   45.9490 C   0  0  0  0  0  0  0  0  0  0  0  0
   59.8990   30.3450   46.1940 C   0  0  0  0  0  0  0  0  0  0  0  0
   61.0310   30.4530   46.7440 O   0  0  0  0  0  0  0  0  0  0  0  0
   56.2560   25.9570   46.5160 C   0  0  0  0  0  0  0  0  0  0  0  0
   51.1587   24.5543   45.6530 H   0  0  0  0  0  0  0  0  0  0  0  0
   51.8093   25.3395   44.1742 H   0  0  0  0  0  0  0  0  0  0  0  0
   51.4549   23.5785   44.1742 H   0  0  0  0  0  0  0  0  0  0  0  0
   55.6740   23.7945   43.9323 H   0  0  0  0  0  0  0  0  0  0  0  0
   58.1668   23.7986   43.9003 H   0  0  0  0  0  0  0  0  0  0  0  0
   59.4409   25.1813   45.5406 H   0  0  0  0  0  0  0  0  0  0  0  0
   61.2630   28.1651   46.2587 H   0  0  0  0  0  0  0  0  0  0  0  0
   60.0981   27.1917   45.2893 H   0  0  0  0  0  0  0  0  0  0  0  0
   57.8215   27.9644   45.0241 H   0  0  0  0  0  0  0  0  0  0  0  0
   56.0585   32.4469   44.7329 H   0  0  0  0  0  0  0  0  0  0  0  0
   56.9354   34.6831   45.3787 H   0  0  0  0  0  0  0  0  0  0  0  0
   59.2033   34.9017   46.3785 H   0  0  0  0  0  0  0  0  0  0  0  0
   60.5993   32.8776   46.7709 H   0  0  0  0  0  0  0  0  0  0  0  0
   55.7149   26.5697   47.2520 H   0  0  0  0  0  0  0  0  0  0  0  0
  1  2  1  0
  2  3  2  0
  2  4  1  0
  4  5  1  0
  5  6  2  0
  6  7  1  0
  7  8  2  0
  8  9  1  0
  9 10  1  0
 10 11  1  0
 11 12  2  0
 11 13  1  0
 13 14  1  0
 14 15  1  0
 15 16  2  0
 16 17  1  0
 17 18  2  0
 17 19  1  0
 16 20  1  0
 20 21  2  0
 21 22  1  0
 22 23  2  0
 23 24  1  0
 24 25  2  0
 25 26  1  0
 26 27  2  0
  9 28  2  0
 28  5  1  0
 26 14  1  0
 25 20  1  0
  1 29  1  0
  1 30  1  0
  1 31  1  0
  6 32  1  0
  7 33  1  0
  8 34  1  0
 13 35  1  0
 13 36  1  0
 15 37  1  0
 21 38  1  0
 22 39  1  0
 23 40  1  0
 24 41  1  0
 28 42  1  0
M  CHG  3   4  -1  10  -1  19  -1
M  END
>  <UniqueID>  (54) 
51

>  <SMILES>  (54) 
CC(=O)[N-]c1cccc([N-]C(=O)Cn2cc(C(=O)[O-])c3ccccc3c2=O)c1

>  <Energy>  (54) 
64.16409930423443

>  <Genealogy>  (54) 
CC(=O)[N-]c1cccc([N-]C(=O)Cn2cc(C(=O)[O-])c3ccccc3c2=O)c1 (protonated)
CC(=O)[N-]c1cccc([N-]C(=O)Cn2cc(C(=O)[O-])c3ccccc3c2=O)c1 (3D coordinates assigned)
CC(=O)[N-]c1cccc([N-]C(=O)Cn2cc(C(=O)[O-])c3ccccc3c2=O)c1 (optimized conformer: 64.16409930423443 kcal/mol)

>  <smiles>  (54) 
CC(=O)Nc1cccc(NC(=O)Cn2cc(C(=O)O)c3ccccc3c2=O)c1

>  <score_type>  (54) 
oracle

>  <origin>  (54) 
adg

>  <m_score__min__energy>  (54) 
-13.59

>  <m_primary>  (54) 
energy

$$$$
54:0
     RDKit          3D

 31 32  0  0  0  0  0  0  0  0999 V2000
   60.4470   27.2070   46.0270 C   0  0  0  0  0  0  0  0  0  0  0  0
   59.0570   27.6800   45.7240 C   0  0  0  0  0  0  0  0  0  0  0  0
   57.9670   26.8090   45.8700 C   0  0  0  0  0  0  0  0  0  0  0  0
   56.6700   27.2560   45.6100 C   0  0  0  0  0  0  0  0  0  0  0  0
   56.4450   28.5810   45.2260 C   0  0  0  0  0  0  0  0  0  0  0  0
   55.1510   28.9870   44.9190 O   0  0  0  0  0  0  0  0  0  0  0  0
   57.5250   29.4800   45.1260 C   0  0  0  0  0  0  0  0  0  0  0  0
   57.3290   30.8490   44.7380 N   0  0  0  0  0  0  0  0  0  0  0  0
   57.5480   31.9570   45.6220 C   0  0  0  0  0  0  0  0  0  0  0  0
   57.9770   31.7710   46.7920 O   0  0  0  0  0  0  0  0  0  0  0  0
   57.2890   33.3540   45.1480 C   0  0  0  0  0  0  0  0  0  0  0  0
   58.8240   34.1020   44.5050 S   0  0  0  0  0  0  0  0  0  0  0  0
   59.5940   34.2660   46.1160 C   0  0  0  0  0  0  0  0  0  0  0  0
   58.9120   34.5800   47.1490 N   0  0  0  0  0  0  0  0  0  0  0  0
   59.6410   34.5950   48.3870 C   0  0  0  0  0  0  0  0  0  0  0  0
   60.9050   33.7670   48.1720 C   0  0  0  0  0  0  0  0  0  0  0  0
   61.3040   33.8470   46.3960 S   0  0  0  0  0  0  0  0  0  0  0  0
   58.8280   29.0150   45.3600 C   0  0  0  0  0  0  0  0  0  0  0  0
   60.5885   27.1588   47.1168 H   0  0  0  0  0  0  0  0  0  0  0  0
   60.5968   26.2073   45.5933 H   0  0  0  0  0  0  0  0  0  0  0  0
   61.1755   27.9078   45.5933 H   0  0  0  0  0  0  0  0  0  0  0  0
   58.1347   25.7702   46.1905 H   0  0  0  0  0  0  0  0  0  0  0  0
   55.8218   26.5625   45.7078 H   0  0  0  0  0  0  0  0  0  0  0  0
   57.1880   31.0530   43.7220 H   0  0  0  0  0  0  0  0  0  0  0  0
   56.5341   33.3313   44.3482 H   0  0  0  0  0  0  0  0  0  0  0  0
   56.9255   33.9562   45.9937 H   0  0  0  0  0  0  0  0  0  0  0  0
   59.9074   35.6279   48.6558 H   0  0  0  0  0  0  0  0  0  0  0  0
   59.0340   34.1788   49.2045 H   0  0  0  0  0  0  0  0  0  0  0  0
   61.7336   34.1832   48.7638 H   0  0  0  0  0  0  0  0  0  0  0  0
   60.7495   32.7259   48.4913 H   0  0  0  0  0  0  0  0  0  0  0  0
   59.6787   29.7046   45.2569 H   0  0  0  0  0  0  0  0  0  0  0  0
  1  2  1  0
  2  3  2  0
  3  4  1  0
  4  5  2  0
  5  6  1  0
  5  7  1  0
  7  8  1  0
  8  9  1  0
  9 10  2  0
  9 11  1  0
 11 12  1  0
 12 13  1  0
 13 14  2  0
 14 15  1  0
 15 16  1  0
 16 17  1  0
  7 18  2  0
 18  2  1  0
 17 13  1  0
  1 19  1  0
  1 20  1  0
  1 21  1  0
  3 22  1  0
  4 23  1  0
  8 24  1  0
 11 25  1  0
 11 26  1  0
 15 27  1  0
 15 28  1  0
 16 29  1  0
 16 30  1  0
 18 31  1  0
M  CHG  1   6  -1
M  END
>  <UniqueID>  (55) 
52

>  <SMILES>  (55) 
Cc1ccc([O-])c(NC(=O)CSC2=NCCS2)c1

>  <Energy>  (55) 
35.44909950975915

>  <Genealogy>  (55) 
Cc1ccc([O-])c(NC(=O)CSC2=NCCS2)c1 (protonated)
Cc1ccc([O-])c(NC(=O)CSC2=NCCS2)c1 (3D coordinates assigned)
Cc1ccc([O-])c(NC(=O)CSC2=NCCS2)c1 (nonaromatic ring conformer: 35.44909950975915 kcal/mol)

>  <smiles>  (55) 
Cc1ccc(O)c(NC(=O)CSC2=NCCS2)c1

>  <score_type>  (55) 
oracle

>  <origin>  (55) 
adg

>  <m_score__min__energy>  (55) 
-11.35

>  <m_primary>  (55) 
energy

$$$$
55:0
     RDKit          3D

 49 52  0  0  0  0  0  0  0  0999 V2000
   57.2770   29.0210   43.1100 O   0  0  0  0  0  0  0  0  0  0  0  0
   56.5380   29.5880   44.2910 S   0  0  0  0  0  0  0  0  0  0  0  0
   55.4040   30.4380   43.7920 O   0  0  0  0  0  0  0  0  0  0  0  0
   55.9020   28.2870   45.2430 N   0  0  0  0  0  0  0  0  0  0  0  0
   56.6200   27.1010   45.6090 C   0  0  0  0  0  0  0  0  0  0  0  0
   58.0270   27.0650   45.6710 C   0  0  0  0  0  0  0  0  0  0  0  0
   58.6850   25.8920   46.0520 C   0  0  0  0  0  0  0  0  0  0  0  0
   57.9490   24.7470   46.3710 C   0  0  0  0  0  0  0  0  0  0  0  0
   56.5520   24.7730   46.3090 C   0  0  0  0  0  0  0  0  0  0  0  0
   55.8890   25.9440   45.9260 C   0  0  0  0  0  0  0  0  0  0  0  0
   54.5330   25.9560   45.8770 F   0  0  0  0  0  0  0  0  0  0  0  0
   57.6010   30.5860   45.2810 C   0  0  0  0  0  0  0  0  0  0  0  0
   58.2340   30.0300   46.3950 C   0  0  0  0  0  0  0  0  0  0  0  0
   59.0900   30.8070   47.1830 C   0  0  0  0  0  0  0  0  0  0  0  0
   59.3320   32.1580   46.8660 C   0  0  0  0  0  0  0  0  0  0  0  0
   60.2400   32.9900   47.7050 C   0  0  0  0  0  0  0  0  0  0  0  0
   59.9080   34.1530   48.3890 C   0  0  0  0  0  0  0  0  0  0  0  0
   61.0530   34.5780   49.0280 C   0  0  0  0  0  0  0  0  0  0  0  0
   62.0690   33.7290   48.7680 N   0  0  0  0  0  0  0  0  0  0  0  0
   63.4560   33.8350   49.2440 C   0  0  0  0  0  0  0  0  0  0  0  0
   63.5020   34.2100   50.7470 C   0  0  0  0  0  0  0  0  0  0  0  0
   63.8330   32.9960   51.6310 C   0  0  0  0  0  0  0  0  0  0  0  0
   65.1290   32.3790   51.2780 N   0  0  0  0  0  0  0  0  0  0  0  0
   65.4750   32.4380   49.8410 C   0  0  0  0  0  0  0  0  0  0  0  0
   64.2400   32.5420   48.9360 C   0  0  0  0  0  0  0  0  0  0  0  0
   61.5850   32.7620   47.9620 C   0  0  0  0  0  0  0  0  0  0  0  0
   58.6910   32.7050   45.7370 C   0  0  0  0  0  0  0  0  0  0  0  0
   57.8320   31.9280   44.9540 C   0  0  0  0  0  0  0  0  0  0  0  0
   58.6099   27.9631   45.4187 H   0  0  0  0  0  0  0  0  0  0  0  0
   59.7837   25.8698   46.1009 H   0  0  0  0  0  0  0  0  0  0  0  0
   58.4689   23.8252   46.6709 H   0  0  0  0  0  0  0  0  0  0  0  0
   55.9739   23.8719   46.5616 H   0  0  0  0  0  0  0  0  0  0  0  0
   58.0586   28.9755   46.6542 H   0  0  0  0  0  0  0  0  0  0  0  0
   59.5795   30.3579   48.0598 H   0  0  0  0  0  0  0  0  0  0  0  0
   58.9222   34.6403   48.4154 H   0  0  0  0  0  0  0  0  0  0  0  0
   61.1275   35.4771   49.6574 H   0  0  0  0  0  0  0  0  0  0  0  0
   63.9518   34.6514   48.6983 H   0  0  0  0  0  0  0  0  0  0  0  0
   64.2725   34.9804   50.8979 H   0  0  0  0  0  0  0  0  0  0  0  0
   62.5078   34.5814   51.0363 H   0  0  0  0  0  0  0  0  0  0  0  0
   63.8716   33.3232   52.6805 H   0  0  0  0  0  0  0  0  0  0  0  0
   63.0481   32.2417   51.4728 H   0  0  0  0  0  0  0  0  0  0  0  0
   65.0940   31.3730   51.5720 H   0  0  0  0  0  0  0  0  0  0  0  0
   66.1121   33.3180   49.6687 H   0  0  0  0  0  0  0  0  0  0  0  0
   65.9943   31.5023   49.5866 H   0  0  0  0  0  0  0  0  0  0  0  0
   64.5613   32.5546   47.8841 H   0  0  0  0  0  0  0  0  0  0  0  0
   63.5875   31.6759   49.1211 H   0  0  0  0  0  0  0  0  0  0  0  0
   62.1693   31.9179   47.5669 H   0  0  0  0  0  0  0  0  0  0  0  0
   58.8686   33.7567   45.4681 H   0  0  0  0  0  0  0  0  0  0  0  0
   57.3360   32.3722   44.0784 H   0  0  0  0  0  0  0  0  0  0  0  0
  1  2  2  0
  2  3  2  0
  2  4  1  0
  4  5  1  0
  5  6  2  0
  6  7  1  0
  7  8  2  0
  8  9  1  0
  9 10  2  0
 10 11  1  0
  2 12  1  0
 12 13  2  0
 13 14  1  0
 14 15  2  0
 15 16  1  0
 16 17  1  0
 17 18  2  0
 18 19  1  0
 19 20  1  0
 20 21  1  0
 21 22  1  0
 22 23  1  0
 23 24  1  0
 24 25  1  0
 19 26  1  0
 15 27  1  0
 27 28  2  0
 10  5  1  0
 28 12  1  0
 26 16  2  0
 25 20  1  0
  6 29  1  0
  7 30  1  0
  8 31  1  0
  9 32  1  0
 13 33  1  0
 14 34  1  0
 17 35  1  0
 18 36  1  0
 20 37  1  0
 21 38  1  0
 21 39  1  0
 22 40  1  0
 22 41  1  0
 23 42  1  0
 24 43  1  0
 24 44  1  0
 25 45  1  0
 25 46  1  0
 26 47  1  0
 27 48  1  0
 28 49  1  0
M  CHG  1   4  -1
M  END
>  <UniqueID>  (56) 
53

>  <SMILES>  (56) 
O=S(=O)([N-]c1ccccc1F)c1ccc(-c2ccn(C3CCNCC3)c2)cc1

>  <Energy>  (56) 
89.72681673961742

>  <Genealogy>  (56) 
O=S(=O)([N-]c1ccccc1F)c1ccc(-c2ccn(C3CCNCC3)c2)cc1 (protonated)
O=S(=O)([N-]c1ccccc1F)c1ccc(-c2ccn(C3CCNCC3)c2)cc1 (3D coordinates assigned)
O=S(=O)([N-]c1ccccc1F)c1ccc(-c2ccn(C3CCNCC3)c2)cc1 (nonaromatic ring conformer: 89.72681673961742 kcal/mol)

>  <smiles>  (56) 
O=S(=O)(Nc1ccccc1F)c1ccc(-c2ccn(C3CCNCC3)c2)cc1

>  <score_type>  (56) 
oracle

>  <origin>  (56) 
adg

>  <m_score__min__energy>  (56) 
-10.300000000000001

>  <m_primary>  (56) 
energy

$$$$
56:0
     RDKit          3D

 46 47  0  0  0  0  0  0  0  0999 V2000
   69.1080   34.5510   50.0890 C   0  0  0  0  0  0  0  0  0  0  0  0
   68.1590   34.7490   51.2660 C   0  0  0  0  0  0  0  0  0  0  0  0
   67.2520   33.5980   51.3950 N   0  0  0  0  0  0  0  0  0  0  0  0
   67.8220   32.2530   51.5330 C   0  0  0  0  0  0  0  0  0  0  0  0
   65.8230   33.8070   51.4470 C   0  0  0  0  0  0  0  0  0  0  0  0
   65.3730   34.9730   51.6230 O   0  0  0  0  0  0  0  0  0  0  0  0
   64.8520   32.6490   51.3740 C   0  0  0  0  0  0  0  0  0  0  0  0
   64.9140   31.8970   50.0380 C   0  0  0  0  0  0  0  0  0  0  0  0
   64.7010   32.8180   48.9170 N   0  0  0  0  0  0  0  0  0  0  0  0
   63.4130   33.0790   48.3340 C   0  0  0  0  0  0  0  0  0  0  0  0
   62.2790   33.1090   49.1600 C   0  0  0  0  0  0  0  0  0  0  0  0
   61.0110   33.3450   48.6200 C   0  0  0  0  0  0  0  0  0  0  0  0
   60.8560   33.5510   47.2390 C   0  0  0  0  0  0  0  0  0  0  0  0
   59.6030   33.7800   46.6510 O   0  0  0  0  0  0  0  0  0  0  0  0
   58.7890   32.7990   46.0700 C   0  0  0  0  0  0  0  0  0  0  0  0
   59.0450   31.4540   46.3400 C   0  0  0  0  0  0  0  0  0  0  0  0
   58.2530   30.4690   45.7470 C   0  0  0  0  0  0  0  0  0  0  0  0
   57.2080   30.8290   44.8790 C   0  0  0  0  0  0  0  0  0  0  0  0
   56.3600   29.7950   44.2430 C   0  0  0  0  0  0  0  0  0  0  0  0
   55.1580   29.3560   44.8740 N   0  0  0  0  0  0  0  0  0  0  0  0
   56.6920   29.2920   43.1360 O   0  0  0  0  0  0  0  0  0  0  0  0
   56.9930   32.1950   44.6270 C   0  0  0  0  0  0  0  0  0  0  0  0
   57.7810   33.1340   45.2180 N   0  0  0  0  0  0  0  0  0  0  0  0
   61.9800   33.4790   46.4080 C   0  0  0  0  0  0  0  0  0  0  0  0
   63.2490   33.2460   46.9470 C   0  0  0  0  0  0  0  0  0  0  0  0
   70.1198   34.3399   50.4653 H   0  0  0  0  0  0  0  0  0  0  0  0
   68.7609   33.7059   49.4763 H   0  0  0  0  0  0  0  0  0  0  0  0
   69.1278   35.4643   49.4763 H   0  0  0  0  0  0  0  0  0  0  0  0
   68.7457   34.8531   52.1906 H   0  0  0  0  0  0  0  0  0  0  0  0
   67.5610   35.6558   51.0925 H   0  0  0  0  0  0  0  0  0  0  0  0
   67.9264   32.0067   52.6000 H   0  0  0  0  0  0  0  0  0  0  0  0
   67.1565   31.5215   51.0512 H   0  0  0  0  0  0  0  0  0  0  0  0
   68.8104   32.2224   51.0512 H   0  0  0  0  0  0  0  0  0  0  0  0
   65.0867   31.9433   52.1845 H   0  0  0  0  0  0  0  0  0  0  0  0
   63.8378   33.0638   51.4710 H   0  0  0  0  0  0  0  0  0  0  0  0
   65.9018   31.4242   49.9348 H   0  0  0  0  0  0  0  0  0  0  0  0
   64.1231   31.1327   50.0242 H   0  0  0  0  0  0  0  0  0  0  0  0
   65.5480   33.0830   48.3630 H   0  0  0  0  0  0  0  0  0  0  0  0
   62.3886   32.9454   50.2422 H   0  0  0  0  0  0  0  0  0  0  0  0
   60.1309   33.3695   49.2794 H   0  0  0  0  0  0  0  0  0  0  0  0
   59.8657   31.1717   47.0158 H   0  0  0  0  0  0  0  0  0  0  0  0
   58.4476   29.4075   45.9599 H   0  0  0  0  0  0  0  0  0  0  0  0
   55.1820   28.6400   45.6340 H   0  0  0  0  0  0  0  0  0  0  0  0
   56.1844   32.5063   43.9493 H   0  0  0  0  0  0  0  0  0  0  0  0
   61.8640   33.6068   45.3216 H   0  0  0  0  0  0  0  0  0  0  0  0
   64.1241   33.1930   46.2826 H   0  0  0  0  0  0  0  0  0  0  0  0
  1  2  1  0
  2  3  1  0
  3  4  1  0
  3  5  1  0
  5  6  2  0
  5  7  1  0
  7  8  1  0
  8  9  1  0
  9 10  1  0
 10 11  2  0
 11 12  1  0
 12 13  2  0
 13 14  1  0
 14 15  1  0
 15 16  2  0
 16 17  1  0
 17 18  2  0
 18 19  1  0
 19 20  1  0
 19 21  2  0
 18 22  1  0
 22 23  2  0
 13 24  1  0
 24 25  2  0
 25 10  1  0
 23 15  1  0
  1 26  1  0
  1 27  1  0
  1 28  1  0
  2 29  1  0
  2 30  1  0
  4 31  1  0
  4 32  1  0
  4 33  1  0
  7 34  1  0
  7 35  1  0
  8 36  1  0
  8 37  1  0
  9 38  1  0
 11 39  1  0
 12 40  1  0
 16 41  1  0
 17 42  1  0
 20 43  1  0
 22 44  1  0
 24 45  1  0
 25 46  1  0
M  CHG  1  20  -1
M  END
>  <UniqueID>  (57) 
54

>  <SMILES>  (57) 
CCN(C)C(=O)CCNc1ccc(Oc2ccc(C([NH-])=O)cn2)cc1

>  <Energy>  (57) 
47.95739588943388

>  <Genealogy>  (57) 
CCN(C)C(=O)CCNc1ccc(Oc2ccc(C([NH-])=O)cn2)cc1 (protonated)
CCN(C)C(=O)CCNc1ccc(Oc2ccc(C([NH-])=O)cn2)cc1 (3D coordinates assigned)
CCN(C)C(=O)CCNc1ccc(Oc2ccc(C([NH-])=O)cn2)cc1 (optimized conformer: 47.95739588943388 kcal/mol)

>  <smiles>  (57) 
CCN(C)C(=O)CCNc1ccc(Oc2ccc(C(N)=O)cn2)cc1

>  <score_type>  (57) 
oracle

>  <origin>  (57) 
adg

>  <m_score__min__energy>  (57) 
-9.5299999999999994

>  <m_primary>  (57) 
energy

$$$$
57:0
     RDKit          3D

 41 43  0  0  0  0  0  0  0  0999 V2000
   59.8581   33.9857   49.6476 H   0  0  0  0  0  0  0  0  0  0  0  0
   59.5100   33.7070   48.6420 C   0  0  0  0  0  0  0  0  0  0  0  0
   59.6370   34.6100   47.5830 C   0  0  0  0  0  0  0  0  0  0  0  0
   60.0920   35.5967   47.7546 H   0  0  0  0  0  0  0  0  0  0  0  0
   59.1870   34.2620   46.3060 C   0  0  0  0  0  0  0  0  0  0  0  0
   59.2954   34.9750   45.4754 H   0  0  0  0  0  0  0  0  0  0  0  0
   58.5960   33.0050   46.0760 C   0  0  0  0  0  0  0  0  0  0  0  0
   58.1140   32.6090   44.7330 C   0  0  0  0  0  0  0  0  0  0  0  0
   58.2910   33.3580   43.6140 N   0  0  0  0  0  0  0  0  0  0  0  0
   57.7560   32.6800   42.6030 N   0  0  0  0  0  0  0  0  0  0  0  0
   57.7440   32.9950   41.6080 H   0  0  0  0  0  0  0  0  0  0  0  0
   57.2710   31.5330   43.1040 C   0  0  0  0  0  0  0  0  0  0  0  0
   56.6630   30.4860   42.4240 C   0  0  0  0  0  0  0  0  0  0  0  0
   56.4811   30.5328   41.3401 H   0  0  0  0  0  0  0  0  0  0  0  0
   56.2910   29.3650   43.1830 C   0  0  0  0  0  0  0  0  0  0  0  0
   55.7968   28.5107   42.6972 H   0  0  0  0  0  0  0  0  0  0  0  0
   56.5520   29.3350   44.5720 C   0  0  0  0  0  0  0  0  0  0  0  0
   56.2170   28.2910   45.2680 N   0  0  0  0  0  0  0  0  0  0  0  0
   57.1710   27.4510   45.9910 C   0  0  0  0  0  0  0  0  0  0  0  0
   57.0028   27.5593   47.0727 H   0  0  0  0  0  0  0  0  0  0  0  0
   58.1927   27.7681   45.7348 H   0  0  0  0  0  0  0  0  0  0  0  0
   56.9920   25.9840   45.5970 C   0  0  0  0  0  0  0  0  0  0  0  0
   57.9376   25.4505   45.7738 H   0  0  0  0  0  0  0  0  0  0  0  0
   56.7090   25.9488   44.5346 H   0  0  0  0  0  0  0  0  0  0  0  0
   55.8810   25.3050   46.4070 C   0  0  0  0  0  0  0  0  0  0  0  0
   55.7227   25.8593   47.3438 H   0  0  0  0  0  0  0  0  0  0  0  0
   56.1790   24.2701   46.6311 H   0  0  0  0  0  0  0  0  0  0  0  0
   54.6370   25.2900   45.6370 N   0  0  0  0  0  0  0  0  0  0  0  0
   54.3440   23.7260   44.9330 S   0  0  0  0  0  0  0  0  0  0  0  0
   52.9300   23.6760   44.4270 O   0  0  0  0  0  0  0  0  0  0  0  0
   54.5390   22.6420   45.9560 O   0  0  0  0  0  0  0  0  0  0  0  0
   55.4530   23.4610   43.5660 C   0  0  0  0  0  0  0  0  0  0  0  0
   56.4560   23.2213   43.9487 H   0  0  0  0  0  0  0  0  0  0  0  0
   55.0854   22.6254   42.9523 H   0  0  0  0  0  0  0  0  0  0  0  0
   55.5029   24.3725   42.9523 H   0  0  0  0  0  0  0  0  0  0  0  0
   57.1610   30.4080   45.1640 N   0  0  0  0  0  0  0  0  0  0  0  0
   57.4780   31.4640   44.4180 N   0  0  0  0  0  0  0  0  0  0  0  0
   58.4900   32.0980   47.1470 C   0  0  0  0  0  0  0  0  0  0  0  0
   58.0492   31.1042   46.9793 H   0  0  0  0  0  0  0  0  0  0  0  0
   58.9410   32.4510   48.4230 C   0  0  0  0  0  0  0  0  0  0  0  0
   58.8473   31.7379   49.2553 H   0  0  0  0  0  0  0  0  0  0  0  0
  1  2  1  0
  2  3  2  0
  3  4  1  0
  3  5  1  0
  5  6  1  0
  5  7  2  0
  7  8  1  0
  8  9  2  0
  9 10  1  0
 10 11  1  0
 10 12  2  0
 12 13  1  0
 13 14  1  0
 13 15  2  0
 15 16  1  0
 15 17  1  0
 17 18  2  0
 18 19  1  0
 19 20  1  0
 19 21  1  0
 19 22  1  0
 22 23  1  0
 22 24  1  0
 22 25  1  0
 25 26  1  0
 25 27  1  0
 25 28  1  0
 28 29  1  0
 29 30  2  0
 29 31  2  0
 29 32  1  0
 32 33  1  0
 32 34  1  0
 32 35  1  0
 17 36  1  0
 36 37  1  0
  7 38  1  0
 38 39  1  0
 38 40  2  0
 40 41  1  0
 40  2  1  0
 37  8  1  0
 37 12  1  0
M  CHG  3  10   1  28  -1  36  -1
M  END
>  <UniqueID>  (58) 
55

>  <SMILES>  (58) 
CS(=O)(=O)[N-]CCC/N=c1/ccc2[nH+]nc(-c3ccccc3)n2[n-]1

>  <Energy>  (58) 
80.56336469894732

>  <Genealogy>  (58) 
CS(=O)(=O)[N-]CCCN=c1ccc2[nH+]nc(-c3ccccc3)n2[n-]1 (protonated)
CS(=O)(=O)[N-]CCC/N=c1/ccc2[nH+]nc(-c3ccccc3)n2[n-]1 (cis-trans isomerization)
CS(=O)(=O)[N-]CCC/N=c1/ccc2[nH+]nc(-c3ccccc3)n2[n-]1 (3D coordinates assigned)
CS(=O)(=O)[N-]CCC/N=c1/ccc2[nH+]nc(-c3ccccc3)n2[n-]1 (optimized conformer: 80.56336469894732 kcal/mol)

>  <smiles>  (58) 
CS(=O)(=O)NCCCN=c1ccc2nnc(-c3ccccc3)n2[nH]1

>  <score_type>  (58) 
oracle

>  <origin>  (58) 
adg

>  <m_score__min__energy>  (58) 
-10.48

>  <m_primary>  (58) 
energy

$$$$
58:0
     RDKit          3D

 49 51  0  0  0  0  0  0  0  0999 V2000
   56.2880   29.9910   42.5110 C   0  0  0  0  0  0  0  0  0  0  0  0
   56.7760   29.8230   43.9140 C   0  0  0  0  0  0  0  0  0  0  0  0
   55.9800   30.0120   44.8720 O   0  0  0  0  0  0  0  0  0  0  0  0
   58.1630   29.5410   44.1580 N   0  0  0  0  0  0  0  0  0  0  0  0
   58.7000   29.1840   45.4440 C   0  0  0  0  0  0  0  0  0  0  0  0
   58.3050   27.9810   46.0450 C   0  0  0  0  0  0  0  0  0  0  0  0
   58.7980   27.6230   47.3020 C   0  0  0  0  0  0  0  0  0  0  0  0
   59.6820   28.4620   47.9870 C   0  0  0  0  0  0  0  0  0  0  0  0
   60.1540   28.0470   49.2430 O   0  0  0  0  0  0  0  0  0  0  0  0
   60.7280   28.9030   50.2320 C   0  0  0  0  0  0  0  0  0  0  0  0
   59.7220   29.9130   50.7180 C   0  0  0  0  0  0  0  0  0  0  0  0
   58.5270   29.4940   51.3210 C   0  0  0  0  0  0  0  0  0  0  0  0
   57.6010   30.4370   51.7730 C   0  0  0  0  0  0  0  0  0  0  0  0
   57.8650   31.8010   51.6420 C   0  0  0  0  0  0  0  0  0  0  0  0
   59.0700   32.2400   51.0680 C   0  0  0  0  0  0  0  0  0  0  0  0
   59.3710   33.6850   50.9320 C   0  0  0  0  0  0  0  0  0  0  0  0
   58.8320   34.5020   51.7250 O   0  0  0  0  0  0  0  0  0  0  0  0
   60.2780   34.1880   49.9430 N   0  0  0  0  0  0  0  0  0  0  0  0
   60.2040   33.9400   48.5310 C   0  0  0  0  0  0  0  0  0  0  0  0
   58.9340   33.8200   47.9490 C   0  0  0  0  0  0  0  0  0  0  0  0
   58.8000   33.6180   46.5730 C   0  0  0  0  0  0  0  0  0  0  0  0
   57.2040   33.5020   45.8550 Cl  0  0  0  0  0  0  0  0  0  0  0  0
   59.9370   33.5190   45.7680 C   0  0  0  0  0  0  0  0  0  0  0  0
   61.2080   33.5980   46.3400 C   0  0  0  0  0  0  0  0  0  0  0  0
   61.3590   33.7810   47.7250 C   0  0  0  0  0  0  0  0  0  0  0  0
   62.7490   33.7930   48.3020 C   0  0  0  0  0  0  0  0  0  0  0  0
   59.9900   31.2870   50.5990 C   0  0  0  0  0  0  0  0  0  0  0  0
   60.0580   29.6840   47.3990 C   0  0  0  0  0  0  0  0  0  0  0  0
   59.5680   30.0440   46.1410 C   0  0  0  0  0  0  0  0  0  0  0  0
   55.2480   30.3490   42.5249 H   0  0  0  0  0  0  0  0  0  0  0  0
   56.9208   30.7230   41.9879 H   0  0  0  0  0  0  0  0  0  0  0  0
   56.3361   29.0246   41.9879 H   0  0  0  0  0  0  0  0  0  0  0  0
   58.8330   29.6850   43.3690 H   0  0  0  0  0  0  0  0  0  0  0  0
   57.6023   27.3145   45.5235 H   0  0  0  0  0  0  0  0  0  0  0  0
   58.4875   26.6711   47.7576 H   0  0  0  0  0  0  0  0  0  0  0  0
   61.0666   28.2937   51.0830 H   0  0  0  0  0  0  0  0  0  0  0  0
   61.5762   29.4401   49.7824 H   0  0  0  0  0  0  0  0  0  0  0  0
   58.3186   28.4203   51.4382 H   0  0  0  0  0  0  0  0  0  0  0  0
   56.6598   30.1031   52.2341 H   0  0  0  0  0  0  0  0  0  0  0  0
   57.1253   32.5369   51.9902 H   0  0  0  0  0  0  0  0  0  0  0  0
   58.0359   33.8854   48.5808 H   0  0  0  0  0  0  0  0  0  0  0  0
   59.8309   33.3786   44.6822 H   0  0  0  0  0  0  0  0  0  0  0  0
   62.0994   33.5162   45.7007 H   0  0  0  0  0  0  0  0  0  0  0  0
   62.6901   33.7925   49.4004 H   0  0  0  0  0  0  0  0  0  0  0  0
   63.2942   32.8995   47.9636 H   0  0  0  0  0  0  0  0  0  0  0  0
   63.2787   34.6958   47.9636 H   0  0  0  0  0  0  0  0  0  0  0  0
   60.9296   31.6201   50.1340 H   0  0  0  0  0  0  0  0  0  0  0  0
   60.7419   30.3600   47.9331 H   0  0  0  0  0  0  0  0  0  0  0  0
   59.8625   31.0047   45.6934 H   0  0  0  0  0  0  0  0  0  0  0  0
  1  2  1  0
  2  3  2  0
  2  4  1  0
  4  5  1  0
  5  6  2  0
  6  7  1  0
  7  8  2  0
  8  9  1  0
  9 10  1  0
 10 11  1  0
 11 12  2  0
 12 13  1  0
 13 14  2  0
 14 15  1  0
 15 16  1  0
 16 17  2  0
 16 18  1  0
 18 19  1  0
 19 20  2  0
 20 21  1  0
 21 22  1  0
 21 23  2  0
 23 24  1  0
 24 25  2  0
 25 26  1  0
 15 27  2  0
  8 28  1  0
 28 29  2  0
 29  5  1  0
 27 11  1  0
 25 19  1  0
  1 30  1  0
  1 31  1  0
  1 32  1  0
  4 33  1  0
  6 34  1  0
  7 35  1  0
 10 36  1  0
 10 37  1  0
 12 38  1  0
 13 39  1  0
 14 40  1  0
 20 41  1  0
 23 42  1  0
 24 43  1  0
 26 44  1  0
 26 45  1  0
 26 46  1  0
 27 47  1  0
 28 48  1  0
 29 49  1  0
M  CHG  1  18  -1
M  END
>  <UniqueID>  (59) 
56

>  <SMILES>  (59) 
CC(=O)Nc1ccc(OCc2cccc(C(=O)[N-]c3cc(Cl)ccc3C)c2)cc1

>  <Energy>  (59) 
61.8740663321156

>  <Genealogy>  (59) 
CC(=O)Nc1ccc(OCc2cccc(C(=O)[N-]c3cc(Cl)ccc3C)c2)cc1 (protonated)
CC(=O)Nc1ccc(OCc2cccc(C(=O)[N-]c3cc(Cl)ccc3C)c2)cc1 (3D coordinates assigned)
CC(=O)Nc1ccc(OCc2cccc(C(=O)[N-]c3cc(Cl)ccc3C)c2)cc1 (optimized conformer: 61.8740663321156 kcal/mol)

>  <smiles>  (59) 
CC(=O)Nc1ccc(OCc2cccc(C(=O)Nc3cc(Cl)ccc3C)c2)cc1

>  <score_type>  (59) 
oracle

>  <origin>  (59) 
adg

>  <m_score__min__energy>  (59) 
-11.199999999999999

>  <m_primary>  (59) 
energy

$$$$
59:0
     RDKit          3D

 46 50  0  0  0  0  0  0  0  0999 V2000
   58.6221   25.5674   45.2554 H   0  0  0  0  0  0  0  0  0  0  0  0
   58.0080   26.0090   46.0540 C   0  0  0  0  0  0  0  0  0  0  0  0
   56.6040   25.5690   46.1480 C   0  0  0  0  0  0  0  0  0  0  0  0
   56.1960   24.3010   46.3370 N   0  0  0  0  0  0  0  0  0  0  0  0
   54.8510   24.3860   46.2310 C   0  0  0  0  0  0  0  0  0  0  0  0
   54.0980   23.3870   46.3580 O   0  0  0  0  0  0  0  0  0  0  0  0
   54.3800   25.6230   45.9650 N   0  0  0  0  0  0  0  0  0  0  0  0
   55.5020   26.3560   45.9040 C   0  0  0  0  0  0  0  0  0  0  0  0
   55.5210   27.7160   45.6190 O   0  0  0  0  0  0  0  0  0  0  0  0
   58.6000   26.9040   46.8620 C   0  0  0  0  0  0  0  0  0  0  0  0
   59.3890   26.5910   47.9700 C   0  0  0  0  0  0  0  0  0  0  0  0
   59.6080   25.5709   48.3186 H   0  0  0  0  0  0  0  0  0  0  0  0
   59.8460   27.7240   48.5540 N   0  0  0  0  0  0  0  0  0  0  0  0
   59.3770   28.7350   47.8410 N   0  0  0  0  0  0  0  0  0  0  0  0
   59.6010   30.0570   48.0330 C   0  0  0  0  0  0  0  0  0  0  0  0
   60.3230   30.4510   49.0450 N   0  0  0  0  0  0  0  0  0  0  0  0
   61.6330   31.0870   48.9430 C   0  0  0  0  0  0  0  0  0  0  0  0
   62.0707   30.6720   49.8629 H   0  0  0  0  0  0  0  0  0  0  0  0
   62.0950   31.2620   47.5100 C   0  0  0  0  0  0  0  0  0  0  0  0
   63.1629   31.1733   47.2614 H   0  0  0  0  0  0  0  0  0  0  0  0
   61.8327   30.8018   46.5459 H   0  0  0  0  0  0  0  0  0  0  0  0
   61.5950   32.4610   48.3020 C   0  0  0  0  0  0  0  0  0  0  0  0
   62.3011   33.2395   48.6266 H   0  0  0  0  0  0  0  0  0  0  0  0
   60.8212   33.2276   48.1487 H   0  0  0  0  0  0  0  0  0  0  0  0
   59.0580   30.9390   47.1370 N   0  0  0  0  0  0  0  0  0  0  0  0
   59.2170   31.9590   47.2680 H   0  0  0  0  0  0  0  0  0  0  0  0
   58.3320   30.4840   46.0570 C   0  0  0  0  0  0  0  0  0  0  0  0
   57.7810   31.4040   45.0770 N   0  0  0  0  0  0  0  0  0  0  0  0
   57.3220   32.7460   45.4810 C   0  0  0  0  0  0  0  0  0  0  0  0
   57.6734   32.9567   46.5019 H   0  0  0  0  0  0  0  0  0  0  0  0
   56.2229   32.7718   45.4455 H   0  0  0  0  0  0  0  0  0  0  0  0
   57.8790   33.8210   44.5190 C   0  0  0  0  0  0  0  0  0  0  0  0
   58.5776   34.4622   45.0765 H   0  0  0  0  0  0  0  0  0  0  0  0
   57.0218   34.3895   44.1291 H   0  0  0  0  0  0  0  0  0  0  0  0
   58.5630   33.2680   43.4060 O   0  0  0  0  0  0  0  0  0  0  0  0
   57.7430   32.3070   42.7710 C   0  0  0  0  0  0  0  0  0  0  0  0
   58.1832   32.0367   41.7998 H   0  0  0  0  0  0  0  0  0  0  0  0
   56.7394   32.7311   42.6197 H   0  0  0  0  0  0  0  0  0  0  0  0
   57.6330   31.0430   43.6530 C   0  0  2  0  0  0  0  0  0  0  0  0
   58.4419   30.3495   43.3796 H   0  0  0  0  0  0  0  0  0  0  0  0
   56.2900   30.3360   43.4130 C   0  0  0  0  0  0  0  0  0  0  0  0
   55.8262   30.0918   44.3801 H   0  0  0  0  0  0  0  0  0  0  0  0
   55.6228   30.9998   42.8435 H   0  0  0  0  0  0  0  0  0  0  0  0
   56.4596   29.4103   42.8435 H   0  0  0  0  0  0  0  0  0  0  0  0
   58.1260   29.1400   45.9080 N   0  0  0  0  0  0  0  0  0  0  0  0
   58.6380   28.2890   46.8240 C   0  0  0  0  0  0  0  0  0  0  0  0
  1  2  1  0
  2  3  1  0
  3  4  1  0
  4  5  1  0
  5  6  2  0
  5  7  1  0
  7  8  1  0
  8  9  1  0
  2 10  2  0
 10 11  1  0
 11 12  1  0
 11 13  2  0
 13 14  1  0
 14 15  1  0
 15 16  2  3
 16 17  1  0
 17 18  1  0
 17 19  1  0
 19 20  1  0
 19 21  1  0
 19 22  1  0
 22 23  1  0
 22 24  1  0
 15 25  1  0
 25 26  1  0
 25 27  2  0
 27 28  1  0
 28 29  1  0
 29 30  1  0
 29 31  1  0
 29 32  1  0
 32 33  1  0
 32 34  1  0
 32 35  1  0
 35 36  1  0
 36 37  1  0
 36 38  1  0
 36 39  1  0
 39 40  1  6
 39 41  1  0
 41 42  1  0
 41 43  1  0
 41 44  1  0
 27 45  1  0
 45 46  2  0
  8  3  2  0
 46 10  1  0
 46 14  1  0
 22 17  1  0
 39 28  1  0
M  CHG  4   4  -1   7  -1   9  -1  25   1
M  END
>  <UniqueID>  (60) 
57

>  <SMILES>  (60) 
C[C@H]1COCCN1c1nc2/c(=C\c3[n-]c(=O)[n-]c3[O-])cnn2c(=NC2CC2)[nH+]1

>  <Energy>  (60) 
395.608447751922

>  <Genealogy>  (60) 
CC1COCCN1c1nc2c(=Cc3[n-]c(=O)[n-]c3[O-])cnn2c(=NC2CC2)[nH+]1 (protonated)
C[C@H]1COCCN1c1nc2c(=Cc3[n-]c(=O)[n-]c3[O-])cnn2c(=NC2CC2)[nH+]1 (chirality)
C[C@H]1COCCN1c1nc2/c(=C\c3[n-]c(=O)[n-]c3[O-])cnn2c(=NC2CC2)[nH+]1 (cis-trans isomerization)
C[C@H]1COCCN1c1nc2/c(=C\c3[n-]c(=O)[n-]c3[O-])cnn2c(=NC2CC2)[nH+]1 (3D coordinates assigned)
C[C@H]1COCCN1c1nc2/c(=C\c3[n-]c(=O)[n-]c3[O-])cnn2c(=NC2CC2)[nH+]1 (nonaromatic ring conformer: 395.608447751922 kcal/mol)

>  <smiles>  (60) 
CC1COCCN1c1nc(=NC2CC2)n2ncc(=Cc3[nH]c(=O)[nH]c3O)c2n1

>  <score_type>  (60) 
oracle

>  <origin>  (60) 
adg

>  <m_score__min__energy>  (60) 
-14.57

>  <m_primary>  (60) 
energy

$$$$
60:0
     RDKit          3D

 37 39  0  0  0  0  0  0  0  0999 V2000
   59.1420   35.4410   45.9930 H   0  0  0  0  0  0  0  0  0  0  0  0
   60.0760   35.2860   46.3560 O   0  0  0  0  0  0  0  0  0  0  0  0
   60.4920   34.0230   46.7780 C   0  0  0  0  0  0  0  0  0  0  0  0
   61.8080   33.8160   47.2100 C   0  0  0  0  0  0  0  0  0  0  0  0
   62.5231   34.6519   47.2161 H   0  0  0  0  0  0  0  0  0  0  0  0
   62.2120   32.5480   47.6330 C   0  0  0  0  0  0  0  0  0  0  0  0
   63.2452   32.3770   47.9695 H   0  0  0  0  0  0  0  0  0  0  0  0
   61.2910   31.5010   47.6240 C   0  0  0  0  0  0  0  0  0  0  0  0
   61.5960   30.4979   47.9569 H   0  0  0  0  0  0  0  0  0  0  0  0
   60.0160   31.7190   47.2040 N   0  0  0  0  0  0  0  0  0  0  0  0
   59.5950   32.9440   46.7730 C   0  0  0  0  0  0  0  0  0  0  0  0
   58.3650   33.1310   46.3860 N   0  0  0  0  0  0  0  0  0  0  0  0
   57.9220   33.3170   45.0310 C   0  0  0  0  0  0  0  0  0  0  0  0
   58.0120   34.4650   44.5220 O   0  0  0  0  0  0  0  0  0  0  0  0
   57.4220   32.1940   44.2010 C   0  0  0  0  0  0  0  0  0  0  0  0
   57.4750   32.2750   42.8010 C   0  0  0  0  0  0  0  0  0  0  0  0
   57.8826   33.1766   42.3205 H   0  0  0  0  0  0  0  0  0  0  0  0
   57.0130   31.2170   42.0140 C   0  0  0  0  0  0  0  0  0  0  0  0
   57.0576   31.2889   40.9173 H   0  0  0  0  0  0  0  0  0  0  0  0
   56.4950   30.0690   42.6160 C   0  0  0  0  0  0  0  0  0  0  0  0
   56.1353   29.2381   41.9914 H   0  0  0  0  0  0  0  0  0  0  0  0
   56.4310   29.9700   44.0160 C   0  0  0  0  0  0  0  0  0  0  0  0
   55.9300   28.7850   44.6580 N   0  0  0  0  0  0  0  0  0  0  0  0
   54.9070   28.5860   44.5840 H   0  0  0  0  0  0  0  0  0  0  0  0
   56.7540   27.8410   45.3660 C   0  0  0  0  0  0  0  0  0  0  0  0
   58.1550   27.9700   45.3760 C   0  0  0  0  0  0  0  0  0  0  0  0
   58.6305   28.8151   44.8567 H   0  0  0  0  0  0  0  0  0  0  0  0
   58.9460   27.0290   46.0430 C   0  0  0  0  0  0  0  0  0  0  0  0
   60.0401   27.1424   46.0563 H   0  0  0  0  0  0  0  0  0  0  0  0
   58.3500   25.9460   46.6920 C   0  0  0  0  0  0  0  0  0  0  0  0
   58.9737   25.2098   47.2203 H   0  0  0  0  0  0  0  0  0  0  0  0
   56.9610   25.7980   46.6700 C   0  0  0  0  0  0  0  0  0  0  0  0
   56.4929   24.9408   47.1761 H   0  0  0  0  0  0  0  0  0  0  0  0
   56.1630   26.7370   46.0060 C   0  0  0  0  0  0  0  0  0  0  0  0
   54.7830   26.5720   45.9950 O   0  0  0  0  0  0  0  0  0  0  0  0
   56.9210   31.0240   44.8010 C   0  0  0  0  0  0  0  0  0  0  0  0
   56.9136   30.9350   45.8974 H   0  0  0  0  0  0  0  0  0  0  0  0
  1  2  1  0
  2  3  1  0
  3  4  2  0
  4  5  1  0
  4  6  1  0
  6  7  1  0
  6  8  2  0
  8  9  1  0
  8 10  1  0
 10 11  1  0
 11 12  2  0
 12 13  1  0
 13 14  2  0
 13 15  1  0
 15 16  2  0
 16 17  1  0
 16 18  1  0
 18 19  1  0
 18 20  2  0
 20 21  1  0
 20 22  1  0
 22 23  1  0
 23 24  1  0
 23 25  1  0
 25 26  2  0
 26 27  1  0
 26 28  1  0
 28 29  1  0
 28 30  2  0
 30 31  1  0
 30 32  1  0
 32 33  1  0
 32 34  2  0
 34 35  1  0
 22 36  2  0
 36 37  1  0
 11  3  1  0
 36 15  1  0
 34 25  1  0
M  CHG  2  10  -1  35  -1
M  END
>  <UniqueID>  (61) 
58

>  <SMILES>  (61) 
O=C(/N=c1\[n-]cccc1O)c1cccc(Nc2ccccc2[O-])c1

>  <Energy>  (61) 
54.29594893526433

>  <Genealogy>  (61) 
O=C(N=c1[n-]cccc1O)c1cccc(Nc2ccccc2[O-])c1 (protonated)
O=C(/N=c1\[n-]cccc1O)c1cccc(Nc2ccccc2[O-])c1 (cis-trans isomerization)
O=C(/N=c1\[n-]cccc1O)c1cccc(Nc2ccccc2[O-])c1 (3D coordinates assigned)
O=C(/N=c1\[n-]cccc1O)c1cccc(Nc2ccccc2[O-])c1 (optimized conformer: 54.29594893526433 kcal/mol)

>  <smiles>  (61) 
O=C(N=c1[nH]cccc1O)c1cccc(Nc2ccccc2O)c1

>  <score_type>  (61) 
oracle

>  <origin>  (61) 
adg

>  <m_score__min__energy>  (61) 
-12.69

>  <m_primary>  (61) 
energy

$$$$
61:0
     RDKit          3D

 40 42  0  0  0  0  0  0  0  0999 V2000
   56.7770   31.8360   43.1640 O   0  0  0  0  0  0  0  0  0  0  0  0
   56.6220   30.6850   43.6510 C   0  0  0  0  0  0  0  0  0  0  0  0
   57.6660   29.7980   43.8090 C   0  0  0  0  0  0  0  0  0  0  0  0
   57.1400   28.6440   44.3660 C   0  0  0  0  0  0  0  0  0  0  0  0
   57.9660   27.4610   44.6890 C   0  0  0  0  0  0  0  0  0  0  0  0
   57.7110   26.8990   45.9900 N   0  0  0  0  0  0  0  0  0  0  0  0
   58.5400   27.3810   47.0680 C   0  0  0  0  0  0  0  0  0  0  0  0
   58.4580   28.7080   47.4660 C   0  0  0  0  0  0  0  0  0  0  0  0
   59.2690   29.1380   48.5060 C   0  0  0  0  0  0  0  0  0  0  0  0
   60.1230   28.2640   49.1110 C   0  0  0  0  0  0  0  0  0  0  0  0
   60.9440   28.6680   50.1530 O   0  0  0  0  0  0  0  0  0  0  0  0
   60.1890   26.9480   48.7000 C   0  0  0  0  0  0  0  0  0  0  0  0
   61.0380   26.0500   49.2930 F   0  0  0  0  0  0  0  0  0  0  0  0
   59.3950   26.4770   47.6630 C   0  0  0  0  0  0  0  0  0  0  0  0
   56.5150   25.7190   46.3360 S   0  0  0  0  0  0  0  0  0  0  0  0
   55.1210   26.3080   46.2690 O   0  0  0  0  0  0  0  0  0  0  0  0
   56.6520   25.2270   47.7700 O   0  0  0  0  0  0  0  0  0  0  0  0
   56.5410   24.3410   45.3000 C   0  0  0  0  0  0  0  0  0  0  0  0
   57.5220   23.3890   45.4930 C   0  0  0  0  0  0  0  0  0  0  0  0
   57.5900   22.2490   44.6920 C   0  0  0  0  0  0  0  0  0  0  0  0
   56.6660   22.0610   43.6880 C   0  0  0  0  0  0  0  0  0  0  0  0
   56.6600   20.9570   42.8460 O   0  0  0  0  0  0  0  0  0  0  0  0
   55.6750   23.0060   43.4800 C   0  0  0  0  0  0  0  0  0  0  0  0
   55.6400   24.1040   44.2820 C   0  0  0  0  0  0  0  0  0  0  0  0
   55.8340   28.8810   44.5130 N   0  0  0  0  0  0  0  0  0  0  0  0
   55.5100   30.0920   44.0930 N   0  0  0  0  0  0  0  0  0  0  0  0
   58.7187   29.9739   43.5427 H   0  0  0  0  0  0  0  0  0  0  0  0
   57.7683   26.6859   43.9339 H   0  0  0  0  0  0  0  0  0  0  0  0
   59.0131   27.7982   44.6906 H   0  0  0  0  0  0  0  0  0  0  0  0
   57.7657   29.4029   46.9681 H   0  0  0  0  0  0  0  0  0  0  0  0
   59.2232   30.1842   48.8427 H   0  0  0  0  0  0  0  0  0  0  0  0
   61.4940   27.9950   50.6690 H   0  0  0  0  0  0  0  0  0  0  0  0
   59.4456   25.4296   47.3308 H   0  0  0  0  0  0  0  0  0  0  0  0
   58.2634   23.5320   46.2929 H   0  0  0  0  0  0  0  0  0  0  0  0
   58.3795   21.5021   44.8617 H   0  0  0  0  0  0  0  0  0  0  0  0
   57.1480   20.1350   43.2160 H   0  0  0  0  0  0  0  0  0  0  0  0
   54.9305   22.8711   42.6815 H   0  0  0  0  0  0  0  0  0  0  0  0
   54.8471   24.8465   44.1090 H   0  0  0  0  0  0  0  0  0  0  0  0
   55.1450   28.2120   44.9110 H   0  0  0  0  0  0  0  0  0  0  0  0
   54.5420   30.5210   44.1020 H   0  0  0  0  0  0  0  0  0  0  0  0
  1  2  2  0
  2  3  1  0
  3  4  2  0
  4  5  1  0
  5  6  1  0
  6  7  1  0
  7  8  2  0
  8  9  1  0
  9 10  2  0
 10 11  1  0
 10 12  1  0
 12 13  1  0
 12 14  2  0
  6 15  1  0
 15 16  2  0
 15 17  2  0
 15 18  1  0
 18 19  2  0
 19 20  1  0
 20 21  2  0
 21 22  1  0
 21 23  1  0
 23 24  2  0
  4 25  1  0
 25 26  1  0
 26  2  1  0
 14  7  1  0
 24 18  1  0
  3 27  1  0
  5 28  1  0
  5 29  1  0
  8 30  1  0
  9 31  1  0
 11 32  1  0
 14 33  1  0
 19 34  1  0
 20 35  1  0
 22 36  1  0
 23 37  1  0
 24 38  1  0
 25 39  1  0
 26 40  1  0
M  END
>  <smiles>  (62) 
O=c1cc(CN(c2ccc(O)c(F)c2)S(=O)(=O)c2ccc(O)cc2)[nH][nH]1

>  <score_type>  (62) 
oracle

>  <origin>  (62) 
adg

>  <m_score__min__energy>  (62) 
-8.1300000000000008

>  <m_primary>  (62) 
energy

$$$$
62:0
     RDKit          3D

 41 43  0  0  0  0  0  0  0  0999 V2000
   63.7590   33.0490   46.7840 C   0  0  0  0  0  0  0  0  0  0  0  0
   62.4090   33.4910   46.6930 O   0  0  0  0  0  0  0  0  0  0  0  0
   61.4200   33.2250   47.6520 C   0  0  0  0  0  0  0  0  0  0  0  0
   60.7770   34.2460   48.3730 C   0  0  0  0  0  0  0  0  0  0  0  0
   59.7980   33.9330   49.3180 C   0  0  0  0  0  0  0  0  0  0  0  0
   59.4440   32.5970   49.5610 C   0  0  0  0  0  0  0  0  0  0  0  0
   58.4860   32.3010   50.4860 N   0  0  0  0  0  0  0  0  0  0  0  0
   58.1080   31.0160   50.7470 C   0  0  0  0  0  0  0  0  0  0  0  0
   57.0600   30.7360   51.7540 C   0  0  0  0  0  0  0  0  0  0  0  0
   56.5220   31.6740   52.4010 O   0  0  0  0  0  0  0  0  0  0  0  0
   56.6530   29.4300   52.0000 O   0  0  0  0  0  0  0  0  0  0  0  0
   58.7220   29.9630   50.0540 C   0  0  0  0  0  0  0  0  0  0  0  0
   59.7220   30.2250   49.1140 C   0  0  0  0  0  0  0  0  0  0  0  0
   60.4880   28.8200   48.2810 S   0  0  0  0  0  0  0  0  0  0  0  0
   59.7900   29.2010   46.6330 C   0  0  0  0  0  0  0  0  0  0  0  0
   58.3420   28.8290   46.5560 C   0  0  0  0  0  0  0  0  0  0  0  0
   57.9720   27.6880   46.9450 O   0  0  0  0  0  0  0  0  0  0  0  0
   57.4040   29.7470   45.9830 N   0  0  0  0  0  0  0  0  0  0  0  0
   57.7140   31.0100   45.3740 C   0  0  0  0  0  0  0  0  0  0  0  0
   58.3380   32.0450   46.0970 C   0  0  0  0  0  0  0  0  0  0  0  0
   58.6620   33.2500   45.4690 C   0  0  0  0  0  0  0  0  0  0  0  0
   58.3750   33.4330   44.1140 C   0  0  0  0  0  0  0  0  0  0  0  0
   57.7750   32.4050   43.3830 C   0  0  0  0  0  0  0  0  0  0  0  0
   57.4500   31.1940   44.0050 C   0  0  0  0  0  0  0  0  0  0  0  0
   56.6390   29.8050   42.9650 Br  0  0  0  0  0  0  0  0  0  0  0  0
   60.0880   31.5600   48.8440 C   0  0  0  0  0  0  0  0  0  0  0  0
   61.0730   31.8910   47.8920 C   0  0  0  0  0  0  0  0  0  0  0  0
   64.0437   32.9558   47.8424 H   0  0  0  0  0  0  0  0  0  0  0  0
   63.8588   32.0713   46.2900 H   0  0  0  0  0  0  0  0  0  0  0  0
   64.4177   33.7784   46.2900 H   0  0  0  0  0  0  0  0  0  0  0  0
   61.0465   35.2970   48.1918 H   0  0  0  0  0  0  0  0  0  0  0  0
   59.3004   34.7397   49.8762 H   0  0  0  0  0  0  0  0  0  0  0  0
   58.0240   33.0840   51.0050 H   0  0  0  0  0  0  0  0  0  0  0  0
   58.4148   28.9254   50.2514 H   0  0  0  0  0  0  0  0  0  0  0  0
   59.8937   30.2791   46.4405 H   0  0  0  0  0  0  0  0  0  0  0  0
   60.3390   28.6165   45.8800 H   0  0  0  0  0  0  0  0  0  0  0  0
   58.5717   31.9037   47.1626 H   0  0  0  0  0  0  0  0  0  0  0  0
   59.1438   34.0559   46.0421 H   0  0  0  0  0  0  0  0  0  0  0  0
   58.6214   34.3861   43.6231 H   0  0  0  0  0  0  0  0  0  0  0  0
   57.5571   32.5477   42.3143 H   0  0  0  0  0  0  0  0  0  0  0  0
   61.5757   31.0900   47.3302 H   0  0  0  0  0  0  0  0  0  0  0  0
  1  2  1  0
  2  3  1  0
  3  4  2  0
  4  5  1  0
  5  6  2  0
  6  7  1  0
  7  8  2  0
  8  9  1  0
  9 10  2  0
  9 11  1  0
  8 12  1  0
 12 13  2  0
 13 14  1  0
 14 15  1  0
 15 16  1  0
 16 17  2  0
 16 18  1  0
 18 19  1  0
 19 20  2  0
 20 21  1  0
 21 22  2  0
 22 23  1  0
 23 24  2  0
 24 25  1  0
 13 26  1  0
 26 27  2  0
 27  3  1  0
 26  6  1  0
 24 19  1  0
  1 28  1  0
  1 29  1  0
  1 30  1  0
  4 31  1  0
  5 32  1  0
  7 33  1  0
 12 34  1  0
 15 35  1  0
 15 36  1  0
 20 37  1  0
 21 38  1  0
 22 39  1  0
 23 40  1  0
 27 41  1  0
M  CHG  3   7   1  11  -1  18  -1
M  END
>  <UniqueID>  (63) 
59

>  <SMILES>  (63) 
COc1ccc2[nH+]c(C(=O)[O-])cc(SCC(=O)[N-]c3ccccc3Br)c2c1

>  <Energy>  (63) 
45.50618496919716

>  <Genealogy>  (63) 
COc1ccc2[nH+]c(C(=O)[O-])cc(SCC(=O)[N-]c3ccccc3Br)c2c1 (protonated)
COc1ccc2[nH+]c(C(=O)[O-])cc(SCC(=O)[N-]c3ccccc3Br)c2c1 (3D coordinates assigned)
COc1ccc2[nH+]c(C(=O)[O-])cc(SCC(=O)[N-]c3ccccc3Br)c2c1 (optimized conformer: 45.50618496919716 kcal/mol)

>  <smiles>  (63) 
COc1ccc2nc(C(=O)O)cc(SCC(=O)Nc3ccccc3Br)c2c1

>  <score_type>  (63) 
oracle

>  <origin>  (63) 
adg

>  <m_score__min__energy>  (63) 
-9.9399999999999995

>  <m_primary>  (63) 
energy

$$$$
63:0
     RDKit          3D

 62 65  0  0  0  0  0  0  0  0999 V2000
   58.3041   32.3298   48.8691 H   0  0  0  0  0  0  0  0  0  0  0  0
   58.4200   32.8720   47.9190 C   0  0  0  0  0  0  0  0  0  0  0  0
   57.8930   32.3580   46.7770 N   0  0  0  0  0  0  0  0  0  0  0  0
   58.0090   32.9860   45.5750 C   0  0  0  0  0  0  0  0  0  0  0  0
   57.4730   32.4230   44.5290 N   0  0  0  0  0  0  0  0  0  0  0  0
   58.1460   32.0170   43.2920 C   0  0  0  0  0  0  0  0  0  0  0  0
   58.8116   31.1685   43.5088 H   0  0  0  0  0  0  0  0  0  0  0  0
   58.7187   32.8759   42.9120 H   0  0  0  0  0  0  0  0  0  0  0  0
   57.1370   31.5970   42.2170 C   0  0  0  0  0  0  0  0  0  0  0  0
   57.6866   31.2962   41.3129 H   0  0  0  0  0  0  0  0  0  0  0  0
   56.4785   32.4550   42.0167 H   0  0  0  0  0  0  0  0  0  0  0  0
   56.2590   30.4240   42.6760 C   0  0  0  0  0  0  0  0  0  0  0  0
   55.4283   30.2948   41.9665 H   0  0  0  0  0  0  0  0  0  0  0  0
   55.8700   30.6441   43.6811 H   0  0  0  0  0  0  0  0  0  0  0  0
   57.0210   29.2180   42.7310 O   0  0  0  0  0  0  0  0  0  0  0  0
   57.3950   28.5410   43.9030 C   0  0  0  0  0  0  0  0  0  0  0  0
   57.3310   29.1310   45.1800 C   0  0  0  0  0  0  0  0  0  0  0  0
   56.9846   30.1695   45.2870 H   0  0  0  0  0  0  0  0  0  0  0  0
   57.7060   28.4020   46.3120 C   0  0  0  0  0  0  0  0  0  0  0  0
   57.6429   28.8675   47.3067 H   0  0  0  0  0  0  0  0  0  0  0  0
   58.1630   27.0790   46.1890 C   0  0  0  0  0  0  0  0  0  0  0  0
   58.5850   26.3090   47.3790 C   0  0  0  0  0  0  0  0  0  0  0  0
   58.0090   25.2200   47.6530 O   0  0  0  0  0  0  0  0  0  0  0  0
   59.6670   26.7430   48.2120 N   0  0  0  0  0  0  0  0  0  0  0  0
   60.0410   28.1050   48.4630 C   0  0  0  0  0  0  0  0  0  0  0  0
   60.0790   28.6360   49.7850 C   0  0  0  0  0  0  0  0  0  0  0  0
   59.7558   28.0123   50.6315 H   0  0  0  0  0  0  0  0  0  0  0  0
   60.5260   29.9510   50.0190 C   0  0  0  0  0  0  0  0  0  0  0  0
   60.5574   30.3729   51.0344 H   0  0  0  0  0  0  0  0  0  0  0  0
   60.9260   30.6940   48.9140 C   0  0  0  0  0  0  0  0  0  0  0  0
   60.9050   30.1900   47.6490 C   0  0  0  0  0  0  0  0  0  0  0  0
   61.4210   31.1020   46.8050 N   0  0  0  0  0  0  0  0  0  0  0  0
   61.7280   32.1440   47.5750 N   0  0  0  0  0  0  0  0  0  0  0  0
   62.4500   33.3190   47.0840 C   0  0  0  0  0  0  0  0  0  0  0  0
   61.8574   34.2223   47.2913 H   0  0  0  0  0  0  0  0  0  0  0  0
   62.6100   33.2148   46.0007 H   0  0  0  0  0  0  0  0  0  0  0  0
   63.8100   33.4350   47.7810 C   0  0  0  0  0  0  0  0  0  0  0  0
   64.2483   34.4188   47.5575 H   0  0  0  0  0  0  0  0  0  0  0  0
   64.4674   32.6337   47.4126 H   0  0  0  0  0  0  0  0  0  0  0  0
   63.6570   33.2920   49.2450 N   0  0  0  0  0  0  0  0  0  0  0  0
   64.9640   33.0870   49.8930 C   0  0  0  0  0  0  0  0  0  0  0  0
   64.8386   33.1067   50.9857 H   0  0  0  0  0  0  0  0  0  0  0  0
   65.3755   32.1133   49.5886 H   0  0  0  0  0  0  0  0  0  0  0  0
   65.6538   33.8879   49.5886 H   0  0  0  0  0  0  0  0  0  0  0  0
   62.9940   34.4740   49.8240 C   0  0  0  0  0  0  0  0  0  0  0  0
   63.0284   34.4127   50.9218 H   0  0  0  0  0  0  0  0  0  0  0  0
   63.5127   35.3851   49.4912 H   0  0  0  0  0  0  0  0  0  0  0  0
   61.9460   34.5064   49.4912 H   0  0  0  0  0  0  0  0  0  0  0  0
   61.4480   31.9260   48.8570 N   0  0  0  0  0  0  0  0  0  0  0  0
   61.6570   32.5720   49.6510 H   0  0  0  0  0  0  0  0  0  0  0  0
   60.4750   28.8960   47.3770 C   0  0  0  0  0  0  0  0  0  0  0  0
   60.4730   28.5018   46.3501 H   0  0  0  0  0  0  0  0  0  0  0  0
   58.2350   26.4960   44.9130 C   0  0  0  0  0  0  0  0  0  0  0  0
   58.6023   25.4651   44.8019 H   0  0  0  0  0  0  0  0  0  0  0  0
   57.8420   27.2200   43.7840 C   0  0  0  0  0  0  0  0  0  0  0  0
   57.8844   26.7469   42.7919 H   0  0  0  0  0  0  0  0  0  0  0  0
   58.6940   34.2190   45.5110 C   0  0  0  0  0  0  0  0  0  0  0  0
   58.7955   34.7483   44.5521 H   0  0  0  0  0  0  0  0  0  0  0  0
   59.2420   34.7610   46.6770 C   0  0  0  0  0  0  0  0  0  0  0  0
   59.7791   35.7202   46.6379 H   0  0  0  0  0  0  0  0  0  0  0  0
   59.1080   34.0860   47.8900 C   0  0  0  0  0  0  0  0  0  0  0  0
   59.5387   34.5047   48.8115 H   0  0  0  0  0  0  0  0  0  0  0  0
  1  2  1  0
  2  3  1  0
  3  4  1  0
  4  5  2  0
  5  6  1  0
  6  7  1  0
  6  8  1  0
  6  9  1  0
  9 10  1  0
  9 11  1  0
  9 12  1  0
 12 13  1  0
 12 14  1  0
 12 15  1  0
 15 16  1  0
 16 17  2  0
 17 18  1  0
 17 19  1  0
 19 20  1  0
 19 21  2  0
 21 22  1  0
 22 23  2  0
 22 24  1  0
 24 25  1  0
 25 26  1  0
 26 27  1  0
 26 28  2  0
 28 29  1  0
 28 30  1  0
 30 31  1  0
 31 32  2  0
 32 33  1  0
 33 34  1  0
 34 35  1  0
 34 36  1  0
 34 37  1  0
 37 38  1  0
 37 39  1  0
 37 40  1  0
 40 41  1  0
 41 42  1  0
 41 43  1  0
 41 44  1  0
 40 45  1  0
 45 46  1  0
 45 47  1  0
 45 48  1  0
 33 49  1  0
 49 50  1  0
 31 51  1  0
 51 52  1  0
 21 53  1  0
 53 54  1  0
 53 55  2  0
 55 56  1  0
  4 57  1  0
 57 58  1  0
 57 59  2  0
 59 60  1  0
 59 61  1  0
 61 62  1  0
 61  2  2  0
 55 16  1  0
 51 25  2  0
 49 30  2  0
M  CHG  3   3  -1  24  -1  49   1
M  END
>  <UniqueID>  (64) 
60

>  <SMILES>  (64) 
CN(C)CCn1nc2cc([N-]C(=O)c3ccc(OCCC/N=c4\cccc[n-]4)cc3)ccc2[nH+]1

>  <Energy>  (64) 
113.62948931698608

>  <Genealogy>  (64) 
CN(C)CCn1nc2cc([N-]C(=O)c3ccc(OCCCN=c4cccc[n-]4)cc3)ccc2[nH+]1 (protonated)
CN(C)CCn1nc2cc([N-]C(=O)c3ccc(OCCC/N=c4\cccc[n-]4)cc3)ccc2[nH+]1 (cis-trans isomerization)
CN(C)CCn1nc2cc([N-]C(=O)c3ccc(OCCC/N=c4\cccc[n-]4)cc3)ccc2[nH+]1 (3D coordinates assigned)
CN(C)CCn1nc2cc([N-]C(=O)c3ccc(OCCC/N=c4\cccc[n-]4)cc3)ccc2[nH+]1 (optimized conformer: 113.62948931698608 kcal/mol)

>  <smiles>  (64) 
CN(C)CCn1nc2ccc(NC(=O)c3ccc(OCCCN=c4cccc[nH]4)cc3)cc2n1

>  <score_type>  (64) 
oracle

>  <origin>  (64) 
adg

>  <m_score__min__energy>  (64) 
-10.06

>  <m_primary>  (64) 
energy

$$$$
64:0
     RDKit          3D

 34 35  0  0  0  0  0  0  0  0999 V2000
   58.4040   27.8630   43.6190 O   0  0  0  0  0  0  0  0  0  0  0  0
   57.5710   27.7300   44.5540 C   0  0  0  0  0  0  0  0  0  0  0  0
   57.4110   26.3870   45.2160 C   0  0  0  0  0  0  0  0  0  0  0  0
   56.3770   26.4410   46.3410 C   0  0  0  0  0  0  0  0  0  0  0  0
   55.3730   25.3950   46.1460 N   0  0  0  0  0  0  0  0  0  0  0  0
   56.0080   23.8640   46.6660 S   0  0  0  0  0  0  0  0  0  0  0  0
   54.9250   23.0970   47.3700 O   0  0  0  0  0  0  0  0  0  0  0  0
   57.1400   24.0850   47.6300 O   0  0  0  0  0  0  0  0  0  0  0  0
   56.5640   22.9310   45.2790 C   0  0  0  0  0  0  0  0  0  0  0  0
   56.1510   23.2580   43.9810 C   0  0  0  0  0  0  0  0  0  0  0  0
   56.5900   22.4940   42.9000 C   0  0  0  0  0  0  0  0  0  0  0  0
   57.4350   21.4060   43.1280 C   0  0  0  0  0  0  0  0  0  0  0  0
   57.8250   21.0970   44.3950 N   0  0  0  0  0  0  0  0  0  0  0  0
   57.4070   21.8290   45.4640 C   0  0  0  0  0  0  0  0  0  0  0  0
   56.8860   28.8890   45.0480 N   0  0  0  0  0  0  0  0  0  0  0  0
   57.3800   30.0840   45.2100 C   0  0  0  0  0  0  0  0  0  0  0  0
   58.6270   30.3130   45.8300 C   0  0  0  0  0  0  0  0  0  0  0  0
   59.0880   31.6230   45.9820 C   0  0  0  0  0  0  0  0  0  0  0  0
   58.3130   32.6930   45.5320 C   0  0  0  0  0  0  0  0  0  0  0  0
   58.9300   34.4880   45.7380 Br  0  0  0  0  0  0  0  0  0  0  0  0
   57.0750   32.4340   44.9400 C   0  0  0  0  0  0  0  0  0  0  0  0
   56.6430   31.1520   44.7980 N   0  0  0  0  0  0  0  0  0  0  0  0
   57.0842   25.6537   44.4640 H   0  0  0  0  0  0  0  0  0  0  0  0
   58.3795   26.0960   45.6487 H   0  0  0  0  0  0  0  0  0  0  0  0
   56.8806   26.2875   47.3068 H   0  0  0  0  0  0  0  0  0  0  0  0
   55.8825   27.4235   46.3312 H   0  0  0  0  0  0  0  0  0  0  0  0
   55.4821   24.1153   43.8148 H   0  0  0  0  0  0  0  0  0  0  0  0
   56.2735   22.7462   41.8772 H   0  0  0  0  0  0  0  0  0  0  0  0
   57.7863   20.7972   42.2818 H   0  0  0  0  0  0  0  0  0  0  0  0
   58.4550   20.2790   44.5510 H   0  0  0  0  0  0  0  0  0  0  0  0
   57.7332   21.5532   46.4777 H   0  0  0  0  0  0  0  0  0  0  0  0
   59.2308   29.4672   46.1905 H   0  0  0  0  0  0  0  0  0  0  0  0
   60.0623   31.8113   46.4566 H   0  0  0  0  0  0  0  0  0  0  0  0
   56.4488   33.2672   44.5883 H   0  0  0  0  0  0  0  0  0  0  0  0
  1  2  2  0
  2  3  1  0
  3  4  1  0
  4  5  1  0
  5  6  1  0
  6  7  2  0
  6  8  2  0
  6  9  1  0
  9 10  2  0
 10 11  1  0
 11 12  2  0
 12 13  1  0
 13 14  2  0
  2 15  1  0
 15 16  2  3
 16 17  1  0
 17 18  2  0
 18 19  1  0
 19 20  1  0
 19 21  2  0
 21 22  1  0
 14  9  1  0
 22 16  1  0
  3 23  1  0
  3 24  1  0
  4 25  1  0
  4 26  1  0
 10 27  1  0
 11 28  1  0
 12 29  1  0
 13 30  1  0
 14 31  1  0
 17 32  1  0
 18 33  1  0
 21 34  1  0
M  CHG  3   5  -1  13   1  22  -1
M  END
>  <UniqueID>  (65) 
61

>  <SMILES>  (65) 
O=C(CC[N-]S(=O)(=O)c1ccc[nH+]c1)N=c1ccc(Br)c[n-]1

>  <Energy>  (65) 
39.92783763308752

>  <Genealogy>  (65) 
O=C(CC[N-]S(=O)(=O)c1ccc[nH+]c1)N=c1ccc(Br)c[n-]1 (protonated)
O=C(CC[N-]S(=O)(=O)c1ccc[nH+]c1)N=c1ccc(Br)c[n-]1 (3D coordinates assigned)
O=C(CC[N-]S(=O)(=O)c1ccc[nH+]c1)N=c1ccc(Br)c[n-]1 (optimized conformer: 39.92783763308752 kcal/mol)

>  <smiles>  (65) 
O=C(CCNS(=O)(=O)c1cccnc1)N=c1ccc(Br)c[nH]1

>  <score_type>  (65) 
oracle

>  <origin>  (65) 
adg

>  <m_score__min__energy>  (65) 
-10.5

>  <m_primary>  (65) 
energy

$$$$
65:0
     RDKit          3D

 48 49  0  0  0  0  0  0  0  0999 V2000
   57.4320   29.5580   46.3360 N   0  0  0  0  0  0  0  0  0  0  0  0
   57.2340   28.2280   45.2500 S   0  0  0  0  0  0  0  0  0  0  0  0
   58.4320   27.3250   45.3460 O   0  0  0  0  0  0  0  0  0  0  0  0
   55.9990   27.4610   45.6280 O   0  0  0  0  0  0  0  0  0  0  0  0
   57.0740   28.8550   43.5830 C   0  0  0  0  0  0  0  0  0  0  0  0
   56.2060   30.1180   43.5210 C   0  0  0  0  0  0  0  0  0  0  0  0
   56.6100   31.1040   44.5220 N   0  0  0  0  0  0  0  0  0  0  0  0
   57.4180   32.2650   44.2850 C   0  0  0  0  0  0  0  0  0  0  0  0
   57.5010   32.7170   43.1130 O   0  0  0  0  0  0  0  0  0  0  0  0
   58.1770   32.9310   45.3620 C   0  0  0  0  0  0  0  0  0  0  0  0
   59.3360   33.6660   45.0750 C   0  0  0  0  0  0  0  0  0  0  0  0
   60.0450   34.2930   46.1040 C   0  0  0  0  0  0  0  0  0  0  0  0
   59.6160   34.1870   47.4320 C   0  0  0  0  0  0  0  0  0  0  0  0
   60.3650   34.8480   48.4200 O   0  0  0  0  0  0  0  0  0  0  0  0
   61.1130   34.2210   49.4680 C   0  0  0  0  0  0  0  0  0  0  0  0
   60.2050   33.1850   50.1800 C   0  0  0  0  0  0  0  0  0  0  0  0
   60.5900   31.7190   49.9190 C   0  0  0  0  0  0  0  0  0  0  0  0
   61.0170   31.5190   48.5250 N   0  0  0  0  0  0  0  0  0  0  0  0
   60.5940   30.3450   47.7950 C   0  0  0  0  0  0  0  0  0  0  0  0
   59.9630   29.4280   48.3900 O   0  0  0  0  0  0  0  0  0  0  0  0
   60.9140   30.1800   46.3310 C   0  0  0  0  0  0  0  0  0  0  0  0
   60.0280   29.2820   45.7160 O   0  0  0  0  0  0  0  0  0  0  0  0
   62.0140   32.4300   47.9360 C   0  0  0  0  0  0  0  0  0  0  0  0
   62.3830   33.5670   48.8950 C   0  0  0  0  0  0  0  0  0  0  0  0
   58.4690   33.4230   47.7230 C   0  0  0  0  0  0  0  0  0  0  0  0
   57.7600   32.7960   46.6940 C   0  0  0  0  0  0  0  0  0  0  0  0
   58.1010   30.2230   45.8860 H   0  0  0  0  0  0  0  0  0  0  0  0
   56.5110   30.0490   46.3870 H   0  0  0  0  0  0  0  0  0  0  0  0
   58.0758   29.0941   43.1966 H   0  0  0  0  0  0  0  0  0  0  0  0
   56.5857   28.0790   42.9752 H   0  0  0  0  0  0  0  0  0  0  0  0
   56.3007   30.5664   42.5210 H   0  0  0  0  0  0  0  0  0  0  0  0
   55.1651   29.8281   43.7273 H   0  0  0  0  0  0  0  0  0  0  0  0
   59.6887   33.7496   44.0365 H   0  0  0  0  0  0  0  0  0  0  0  0
   60.9481   34.8749   45.8677 H   0  0  0  0  0  0  0  0  0  0  0  0
   61.4363   34.9703   50.2056 H   0  0  0  0  0  0  0  0  0  0  0  0
   60.2586   33.3674   51.2635 H   0  0  0  0  0  0  0  0  0  0  0  0
   59.1925   33.3216   49.7724 H   0  0  0  0  0  0  0  0  0  0  0  0
   61.4156   31.4403   50.5903 H   0  0  0  0  0  0  0  0  0  0  0  0
   59.7075   31.0895   50.1058 H   0  0  0  0  0  0  0  0  0  0  0  0
   60.8358   31.1583   45.8341 H   0  0  0  0  0  0  0  0  0  0  0  0
   61.9345   29.7796   46.2405 H   0  0  0  0  0  0  0  0  0  0  0  0
   59.4760   28.8860   46.4400 H   0  0  0  0  0  0  0  0  0  0  0  0
   62.9221   31.8572   47.6967 H   0  0  0  0  0  0  0  0  0  0  0  0
   61.5771   32.8752   47.0300 H   0  0  0  0  0  0  0  0  0  0  0  0
   62.9864   33.1626   49.7211 H   0  0  0  0  0  0  0  0  0  0  0  0
   62.9568   34.3262   48.3433 H   0  0  0  0  0  0  0  0  0  0  0  0
   58.1297   33.3192   48.7642 H   0  0  0  0  0  0  0  0  0  0  0  0
   56.8705   32.1937   46.9305 H   0  0  0  0  0  0  0  0  0  0  0  0
  1  2  1  0
  2  3  2  0
  2  4  2  0
  2  5  1  0
  5  6  1  0
  6  7  1  0
  7  8  1  0
  8  9  2  0
  8 10  1  0
 10 11  2  0
 11 12  1  0
 12 13  2  0
 13 14  1  0
 14 15  1  0
 15 16  1  0
 16 17  1  0
 17 18  1  0
 18 19  1  0
 19 20  2  0
 19 21  1  0
 21 22  1  0
 18 23  1  0
 23 24  1  0
 13 25  1  0
 25 26  2  0
 26 10  1  0
 24 15  1  0
  1 27  1  0
  1 28  1  0
  5 29  1  0
  5 30  1  0
  6 31  1  0
  6 32  1  0
 11 33  1  0
 12 34  1  0
 15 35  1  0
 16 36  1  0
 16 37  1  0
 17 38  1  0
 17 39  1  0
 21 40  1  0
 21 41  1  0
 22 42  1  0
 23 43  1  0
 23 44  1  0
 24 45  1  0
 24 46  1  0
 25 47  1  0
 26 48  1  0
M  CHG  1   7  -1
M  END
>  <UniqueID>  (66) 
62

>  <SMILES>  (66) 
NS(=O)(=O)CC[N-]C(=O)c1ccc(OC2CCN(C(=O)CO)CC2)cc1

>  <Energy>  (66) 
45.79465638473437

>  <Genealogy>  (66) 
NS(=O)(=O)CC[N-]C(=O)c1ccc(OC2CCN(C(=O)CO)CC2)cc1 (protonated)
NS(=O)(=O)CC[N-]C(=O)c1ccc(OC2CCN(C(=O)CO)CC2)cc1 (3D coordinates assigned)
NS(=O)(=O)CC[N-]C(=O)c1ccc(OC2CCN(C(=O)CO)CC2)cc1 (nonaromatic ring conformer: 45.79465638473437 kcal/mol)

>  <smiles>  (66) 
NS(=O)(=O)CCNC(=O)c1ccc(OC2CCN(C(=O)CO)CC2)cc1

>  <score_type>  (66) 
oracle

>  <origin>  (66) 
adg

>  <m_score__min__energy>  (66) 
-9.2599999999999998

>  <m_primary>  (66) 
energy

$$$$
66:0
     RDKit          3D

 64 67  0  0  1  0  0  0  0  0999 V2000
   60.1650   26.8130   49.1210 O   0  0  0  0  0  0  0  0  0  0  0  0
   60.3260   27.8700   48.4790 C   0  0  0  0  0  0  0  0  0  0  0  0
   61.0680   29.0120   49.1220 C   0  0  0  0  0  0  0  0  0  0  0  0
   60.1330   29.9840   49.7180 C   0  0  0  0  0  0  0  0  0  0  0  0
   58.9760   29.5820   50.3530 C   0  0  0  0  0  0  0  0  0  0  0  0
   58.1560   30.5510   50.8830 C   0  0  0  0  0  0  0  0  0  0  0  0
   57.0200   30.1620   51.5070 F   0  0  0  0  0  0  0  0  0  0  0  0
   58.5130   31.8920   50.7670 C   0  0  0  0  0  0  0  0  0  0  0  0
   59.6570   32.3020   50.1390 C   0  0  0  0  0  0  0  0  0  0  0  0
   60.0340   33.5840   50.0080 F   0  0  0  0  0  0  0  0  0  0  0  0
   60.4830   31.3320   49.6050 C   0  0  0  0  0  0  0  0  0  0  0  0
   59.8480   28.0810   47.1540 N   0  0  0  0  0  0  0  0  0  0  0  0
   58.6950   27.6320   46.7850 C   0  0  0  0  0  0  0  0  0  0  0  0
   57.9290   28.4600   46.0540 N   0  0  0  0  0  0  0  0  0  0  0  0
   56.7160   28.0590   45.6340 C   0  0  0  0  0  0  0  0  0  0  0  0
   55.9690   28.9560   44.8810 O   0  0  0  0  0  0  0  0  0  0  0  0
   56.4960   29.3380   43.6240 C   0  0  0  0  0  0  0  0  0  0  0  0
   57.4150   30.5420   43.7840 C   0  0  0  0  0  0  0  0  0  0  0  0
   57.0900   31.1340   45.0750 N   0  0  0  0  0  0  0  0  0  0  0  0
   58.5550   31.3690   45.9840 S   0  0  0  0  0  0  0  0  0  0  0  0
   58.2880   30.9130   47.3980 O   0  0  0  0  0  0  0  0  0  0  0  0
   59.6310   30.5000   45.4110 O   0  0  0  0  0  0  0  0  0  0  0  0
   58.9870   33.0580   45.9580 C   0  0  0  0  0  0  0  0  0  0  0  0
   58.7840   33.8740   44.8640 C   0  0  0  0  0  0  0  0  0  0  0  0
   59.1340   35.2070   44.8680 C   0  0  0  0  0  0  0  0  0  0  0  0
   59.7100   35.7290   46.0220 C   0  0  0  0  0  0  0  0  0  0  0  0
   59.9300   34.9460   47.1340 C   0  0  0  0  0  0  0  0  0  0  0  0
   59.5680   33.6120   47.0980 C   0  0  0  0  0  0  0  0  0  0  0  0
   56.2660   26.7960   45.9590 C   0  0  0  0  0  0  0  0  0  0  0  0
   57.0980   25.9730   46.7210 C   0  0  0  0  0  0  0  0  0  0  0  0
   56.6790   24.8020   47.0220 N   0  0  0  0  0  0  0  0  0  0  0  0
   55.6510   24.1150   46.2670 C   0  0  0  0  0  0  0  0  0  0  0  0
   56.3890   23.2330   45.2940 C   0  0  0  0  0  0  0  0  0  0  0  0
   57.5930   22.7020   45.7180 C   0  0  0  0  0  0  0  0  0  0  0  0
   58.3300   21.8850   44.8860 C   0  0  0  0  0  0  0  0  0  0  0  0
   57.8380   21.6120   43.6260 C   0  0  0  0  0  0  0  0  0  0  0  0
   56.6440   22.1450   43.2210 C   0  0  0  0  0  0  0  0  0  0  0  0
   56.2100   21.8390   41.9650 F   0  0  0  0  0  0  0  0  0  0  0  0
   55.8810   22.9710   44.0380 C   0  0  0  0  0  0  0  0  0  0  0  0
   58.3110   26.3890   47.1340 N   0  0  0  0  0  0  0  0  0  0  0  0
   61.7246   28.6153   49.9103 H   0  0  0  0  0  0  0  0  0  0  0  0
   61.6587   29.5245   48.3484 H   0  0  0  0  0  0  0  0  0  0  0  0
   58.7164   28.5161   50.4333 H   0  0  0  0  0  0  0  0  0  0  0  0
   57.8470   32.6537   51.1986 H   0  0  0  0  0  0  0  0  0  0  0  0
   61.4129   31.6198   49.0927 H   0  0  0  0  0  0  0  0  0  0  0  0
   58.2660   29.4350   45.7970 H   0  0  0  0  0  0  0  0  0  0  0  0
   57.0666   28.4991   43.1989 H   0  0  0  0  0  0  0  0  0  0  0  0
   55.6665   29.6057   42.9529 H   0  0  0  0  0  0  0  0  0  0  0  0
   58.4676   30.2232   43.7650 H   0  0  0  0  0  0  0  0  0  0  0  0
   57.2752   31.2639   42.9659 H   0  0  0  0  0  0  0  0  0  0  0  0
   56.4770   30.4670   45.5910 H   0  0  0  0  0  0  0  0  0  0  0  0
   58.3278   33.4465   43.9589 H   0  0  0  0  0  0  0  0  0  0  0  0
   58.9630   35.8398   43.9846 H   0  0  0  0  0  0  0  0  0  0  0  0
   59.9962   36.7908   46.0470 H   0  0  0  0  0  0  0  0  0  0  0  0
   60.3871   35.3759   48.0375 H   0  0  0  0  0  0  0  0  0  0  0  0
   59.7408   32.9791   47.9809 H   0  0  0  0  0  0  0  0  0  0  0  0
   55.2775   26.4463   45.6265 H   0  0  0  0  0  0  0  0  0  0  0  0
   55.0231   23.5083   46.9361 H   0  0  0  0  0  0  0  0  0  0  0  0
   54.9819   24.8204   45.7524 H   0  0  0  0  0  0  0  0  0  0  0  0
   57.9662   22.9328   46.7267 H   0  0  0  0  0  0  0  0  0  0  0  0
   59.2885   21.4606   45.2195 H   0  0  0  0  0  0  0  0  0  0  0  0
   58.4076   20.9634   42.9442 H   0  0  0  0  0  0  0  0  0  0  0  0
   54.9229   23.3935   43.7012 H   0  0  0  0  0  0  0  0  0  0  0  0
   58.9110   25.7620   47.6980 H   0  0  0  0  0  0  0  0  0  0  0  0
  1  2  2  0
  2  3  1  0
  3  4  1  0
  4  5  2  0
  5  6  1  0
  6  7  1  0
  6  8  2  0
  8  9  1  0
  9 10  1  0
  9 11  2  0
  2 12  1  0
 12 13  2  0
 13 14  1  0
 14 15  1  0
 15 16  1  0
 16 17  1  0
 17 18  1  0
 18 19  1  0
 19 20  1  0
 20 21  2  0
 20 22  2  0
 20 23  1  0
 23 24  2  0
 24 25  1  0
 25 26  2  0
 26 27  1  0
 27 28  2  0
 15 29  2  0
 29 30  1  0
 30 31  2  0
 31 32  1  0
 32 33  1  0
 33 34  2  0
 34 35  1  0
 35 36  2  0
 36 37  1  0
 37 38  1  0
 37 39  2  0
 30 40  1  0
 11  4  1  0
 40 13  1  0
 28 23  1  0
 39 33  1  0
  3 41  1  0
  3 42  1  0
  5 43  1  0
  8 44  1  0
 11 45  1  0
 14 46  1  0
 17 47  1  0
 17 48  1  0
 18 49  1  0
 18 50  1  0
 19 51  1  0
 24 52  1  0
 25 53  1  0
 26 54  1  0
 27 55  1  0
 28 56  1  0
 29 57  1  0
 32 58  1  0
 32 59  1  0
 34 60  1  0
 35 61  1  0
 36 62  1  0
 39 63  1  0
 40 64  1  0
M  END
>  <smiles>  (67) 
O=C(Cc1cc(F)cc(F)c1)N=c1[nH]c(OCCNS(=O)(=O)c2ccccc2)cc(=NCc2cccc(F)c2)[nH]1

>  <score_type>  (67) 
oracle

>  <origin>  (67) 
adg

>  <m_score__min__energy>  (67) 
-10.31

>  <m_primary>  (67) 
energy

$$$$
67:0
     RDKit          3D

 33 35  0  0  0  0  0  0  0  0999 V2000
   56.8160   29.5530   43.0330 C   0  0  0  0  0  0  0  0  0  0  0  0
   57.3440   30.5690   43.9430 N   0  0  0  0  0  0  0  0  0  0  0  0
   57.5960   31.8580   43.6160 C   0  0  0  0  0  0  0  0  0  0  0  0
   57.3990   32.4020   42.3510 O   0  0  0  0  0  0  0  0  0  0  0  0
   58.0690   32.5400   44.7100 C   0  0  0  0  0  0  0  0  0  0  0  0
   58.4620   33.8680   44.8530 C   0  0  0  0  0  0  0  0  0  0  0  0
   58.9240   34.2860   46.1140 C   0  0  0  0  0  0  0  0  0  0  0  0
   59.3250   35.6090   46.2920 O   0  0  0  0  0  0  0  0  0  0  0  0
   58.9840   33.3680   47.1890 C   0  0  0  0  0  0  0  0  0  0  0  0
   58.5800   32.0310   47.0130 C   0  0  0  0  0  0  0  0  0  0  0  0
   58.1160   31.6440   45.7510 C   0  0  0  0  0  0  0  0  0  0  0  0
   57.6670   30.4190   45.2600 C   0  0  0  0  0  0  0  0  0  0  0  0
   57.5460   29.1600   46.0310 C   0  0  0  0  0  0  0  0  0  0  0  0
   58.3140   28.9440   47.0070 O   0  0  0  0  0  0  0  0  0  0  0  0
   56.5990   28.1600   45.6390 N   0  0  0  0  0  0  0  0  0  0  0  0
   56.7790   26.7430   45.7670 C   0  0  0  0  0  0  0  0  0  0  0  0
   58.0720   26.2180   45.6400 C   0  0  0  0  0  0  0  0  0  0  0  0
   58.2910   24.8420   45.7480 C   0  0  0  0  0  0  0  0  0  0  0  0
   57.2150   23.9780   45.9660 C   0  0  0  0  0  0  0  0  0  0  0  0
   55.9180   24.4870   46.0590 C   0  0  0  0  0  0  0  0  0  0  0  0
   55.6910   25.8640   45.9460 C   0  0  0  0  0  0  0  0  0  0  0  0
   54.3840   26.3370   45.9760 O   0  0  0  0  0  0  0  0  0  0  0  0
   56.3861   28.7257   43.6168 H   0  0  0  0  0  0  0  0  0  0  0  0
   56.0355   29.9987   42.3989 H   0  0  0  0  0  0  0  0  0  0  0  0
   57.6294   29.1704   42.3989 H   0  0  0  0  0  0  0  0  0  0  0  0
   58.4127   34.5684   44.0062 H   0  0  0  0  0  0  0  0  0  0  0  0
   59.0670   36.1330   47.1190 H   0  0  0  0  0  0  0  0  0  0  0  0
   59.3497   33.7021   48.1712 H   0  0  0  0  0  0  0  0  0  0  0  0
   58.6277   31.3114   47.8436 H   0  0  0  0  0  0  0  0  0  0  0  0
   58.9201   26.8934   45.4541 H   0  0  0  0  0  0  0  0  0  0  0  0
   59.3109   24.4391   45.6613 H   0  0  0  0  0  0  0  0  0  0  0  0
   57.3896   22.8964   46.0644 H   0  0  0  0  0  0  0  0  0  0  0  0
   55.0715   23.8036   46.2216 H   0  0  0  0  0  0  0  0  0  0  0  0
  1  2  1  0
  2  3  1  0
  3  4  1  0
  3  5  2  0
  5  6  1  0
  6  7  2  0
  7  8  1  0
  7  9  1  0
  9 10  2  0
 10 11  1  0
 11 12  2  0
 12 13  1  0
 13 14  2  0
 13 15  1  0
 15 16  1  0
 16 17  2  0
 17 18  1  0
 18 19  2  0
 19 20  1  0
 20 21  2  0
 21 22  1  0
 12  2  1  0
 21 16  1  0
 11  5  1  0
  1 23  1  0
  1 24  1  0
  1 25  1  0
  6 26  1  0
  8 27  1  0
  9 28  1  0
 10 29  1  0
 17 30  1  0
 18 31  1  0
 19 32  1  0
 20 33  1  0
M  CHG  3   4  -1  15  -1  22  -1
M  END
>  <UniqueID>  (68) 
63

>  <SMILES>  (68) 
Cn1c([O-])c2cc(O)ccc2c1C(=O)[N-]c1ccccc1[O-]

>  <Energy>  (68) 
78.96838033953894

>  <Genealogy>  (68) 
Cn1c([O-])c2cc(O)ccc2c1C(=O)[N-]c1ccccc1[O-] (protonated)
Cn1c([O-])c2cc(O)ccc2c1C(=O)[N-]c1ccccc1[O-] (3D coordinates assigned)
Cn1c([O-])c2cc(O)ccc2c1C(=O)[N-]c1ccccc1[O-] (optimized conformer: 78.96838033953894 kcal/mol)

>  <smiles>  (68) 
Cn1c(O)c2cc(O)ccc2c1C(=O)Nc1ccccc1O

>  <score_type>  (68) 
oracle

>  <origin>  (68) 
adg

>  <m_score__min__energy>  (68) 
-14.94

>  <m_primary>  (68) 
energy

$$$$
68:0
     RDKit          3D

 48 51  0  0  0  0  0  0  0  0999 V2000
   49.9504   34.0181   54.4433 H   0  0  0  0  0  0  0  0  0  0  0  0
   50.2550   33.2540   53.7130 C   0  0  0  0  0  0  0  0  0  0  0  0
   50.3330   33.4330   52.3820 N   0  0  0  0  0  0  0  0  0  0  0  0
   50.7370   32.2280   51.9260 C   0  0  0  0  0  0  0  0  0  0  0  0
   50.9280   31.9930   50.7060 O   0  0  0  0  0  0  0  0  0  0  0  0
   50.9180   31.2950   52.8840 N   0  0  0  0  0  0  0  0  0  0  0  0
   50.6180   31.9600   54.0140 C   0  0  0  0  0  0  0  0  0  0  0  0
   50.6210   31.3410   55.3760 C   0  0  0  0  0  0  0  0  0  0  0  0
   49.5901   31.0861   55.6627 H   0  0  0  0  0  0  0  0  0  0  0  0
   51.0423   32.0567   56.0973 H   0  0  0  0  0  0  0  0  0  0  0  0
   51.4550   30.1000   55.3710 C   0  0  0  0  0  0  0  0  0  0  0  0
   50.9170   28.9930   55.0920 O   0  0  0  0  0  0  0  0  0  0  0  0
   52.8620   30.1980   55.6500 N   0  0  0  0  0  0  0  0  0  0  0  0
   53.8170   30.4080   54.7890 C   0  0  0  0  0  0  0  0  0  0  0  0
   55.1280   30.3640   55.1590 N   0  0  0  0  0  0  0  0  0  0  0  0
   56.1360   30.5800   54.2740 C   0  0  0  0  0  0  0  0  0  0  0  0
   57.1811   30.5386   54.6146 H   0  0  0  0  0  0  0  0  0  0  0  0
   55.8510   30.8560   52.9260 C   0  0  0  0  0  0  0  0  0  0  0  0
   56.9450   31.0980   51.9500 C   0  0  0  0  0  0  0  0  0  0  0  0
   57.3990   32.4030   51.6910 C   0  0  0  0  0  0  0  0  0  0  0  0
   56.9355   33.2549   52.2100 H   0  0  0  0  0  0  0  0  0  0  0  0
   58.4350   32.6270   50.7790 C   0  0  0  0  0  0  0  0  0  0  0  0
   58.7883   33.6520   50.5929 H   0  0  0  0  0  0  0  0  0  0  0  0
   59.0270   31.5490   50.0990 C   0  0  0  0  0  0  0  0  0  0  0  0
   60.1240   31.7410   49.1960 N   0  0  0  0  0  0  0  0  0  0  0  0
   60.0310   31.8420   47.7710 C   0  0  0  0  0  0  0  0  0  0  0  0
   61.0890   32.0000   47.1060 O   0  0  0  0  0  0  0  0  0  0  0  0
   58.7580   31.7340   47.1060 N   0  0  0  0  0  0  0  0  0  0  0  0
   57.9000   31.6230   47.6900 H   0  0  0  0  0  0  0  0  0  0  0  0
   58.5750   31.8600   45.6860 C   0  0  0  0  0  0  0  0  0  0  0  0
   58.7200   33.1200   45.0860 C   0  0  0  0  0  0  0  0  0  0  0  0
   58.9939   33.9894   45.7017 H   0  0  0  0  0  0  0  0  0  0  0  0
   58.5190   33.2790   43.7110 C   0  0  0  0  0  0  0  0  0  0  0  0
   58.6432   34.2691   43.2481 H   0  0  0  0  0  0  0  0  0  0  0  0
   58.1600   32.1790   42.9240 C   0  0  0  0  0  0  0  0  0  0  0  0
   57.9110   32.3780   41.1980 Cl  0  0  0  0  0  0  0  0  0  0  0  0
   57.9880   30.9240   43.5180 C   0  0  0  0  0  0  0  0  0  0  0  0
   57.6948   30.0610   42.9021 H   0  0  0  0  0  0  0  0  0  0  0  0
   58.1880   30.7640   44.8930 C   0  0  0  0  0  0  0  0  0  0  0  0
   58.0421   29.7771   45.3564 H   0  0  0  0  0  0  0  0  0  0  0  0
   58.5920   30.2470   50.3700 C   0  0  0  0  0  0  0  0  0  0  0  0
   59.0706   29.3952   49.8647 H   0  0  0  0  0  0  0  0  0  0  0  0
   57.5550   30.0210   51.2770 C   0  0  0  0  0  0  0  0  0  0  0  0
   57.2114   28.9936   51.4678 H   0  0  0  0  0  0  0  0  0  0  0  0
   54.5040   30.9020   52.5280 C   0  0  0  0  0  0  0  0  0  0  0  0
   54.2498   31.1156   51.4793 H   0  0  0  0  0  0  0  0  0  0  0  0
   53.4880   30.6780   53.4570 C   0  0  0  0  0  0  0  0  0  0  0  0
   52.4342   30.7135   53.1437 H   0  0  0  0  0  0  0  0  0  0  0  0
  1  2  1  0
  2  3  1  0
  3  4  1  0
  4  5  2  0
  4  6  1  0
  6  7  1  0
  7  8  1  0
  8  9  1  0
  8 10  1  0
  8 11  1  0
 11 12  2  0
 11 13  1  0
 13 14  2  0
 14 15  1  0
 15 16  1  0
 16 17  1  0
 16 18  2  0
 18 19  1  0
 19 20  2  0
 20 21  1  0
 20 22  1  0
 22 23  1  0
 22 24  2  0
 24 25  1  0
 25 26  1  0
 26 27  2  0
 26 28  1  0
 28 29  1  0
 28 30  1  0
 30 31  2  0
 31 32  1  0
 31 33  1  0
 33 34  1  0
 33 35  2  0
 35 36  1  0
 35 37  1  0
 37 38  1  0
 37 39  2  0
 39 40  1  0
 24 41  1  0
 41 42  1  0
 41 43  2  0
 43 44  1  0
 18 45  1  0
 45 46  1  0
 45 47  2  0
 47 48  1  0
  7  2  2  0
 47 14  1  0
 43 19  1  0
 39 30  1  0
M  CHG  4   3  -1   6  -1  15  -1  25  -1
M  END
>  <UniqueID>  (69) 
64

>  <SMILES>  (69) 
O=C(Cc1c[n-]c(=O)[n-]1)/N=c1/ccc(-c2ccc([N-]C(=O)Nc3ccc(Cl)cc3)cc2)c[n-]1

>  <Energy>  (69) 
95.20255271719941

>  <Genealogy>  (69) 
O=C(Cc1c[n-]c(=O)[n-]1)N=c1ccc(-c2ccc([N-]C(=O)Nc3ccc(Cl)cc3)cc2)c[n-]1 (protonated)
O=C(Cc1c[n-]c(=O)[n-]1)/N=c1/ccc(-c2ccc([N-]C(=O)Nc3ccc(Cl)cc3)cc2)c[n-]1 (cis-trans isomerization)
O=C(Cc1c[n-]c(=O)[n-]1)/N=c1/ccc(-c2ccc([N-]C(=O)Nc3ccc(Cl)cc3)cc2)c[n-]1 (3D coordinates assigned)
O=C(Cc1c[n-]c(=O)[n-]1)/N=c1/ccc(-c2ccc([N-]C(=O)Nc3ccc(Cl)cc3)cc2)c[n-]1 (optimized conformer: 95.20255271719941 kcal/mol)

>  <smiles>  (69) 
O=C(Cc1c[nH]c(=O)[nH]1)N=c1ccc(-c2ccc(NC(=O)Nc3ccc(Cl)cc3)cc2)c[nH]1

>  <score_type>  (69) 
oracle

>  <origin>  (69) 
adg

>  <m_score__min__energy>  (69) 
-14.02

>  <m_primary>  (69) 
energy

$$$$
69:0
     RDKit          3D

 56 58  0  0  0  0  0  0  0  0999 V2000
   58.8960   29.7310   49.2760 C   0  0  0  0  0  0  0  0  0  0  0  0
   60.3140   30.0320   48.7950 C   0  0  0  0  0  0  0  0  0  0  0  0
   60.7500   29.0480   47.7030 C   0  0  0  0  0  0  0  0  0  0  0  0
   60.9450   29.7640   46.3630 C   0  0  0  0  0  0  0  0  0  0  0  0
   59.6290   30.2680   45.8370 C   0  0  0  0  0  0  0  0  0  0  0  0
   59.1780   31.5080   46.1260 N   0  0  0  0  0  0  0  0  0  0  0  0
   58.0210   31.6050   45.4450 C   0  0  0  0  0  0  0  0  0  0  0  0
   56.9790   33.0630   45.4780 S   0  0  0  0  0  0  0  0  0  0  0  0
   58.3710   34.1910   45.7940 C   0  0  0  0  0  0  0  0  0  0  0  0
   57.7730   30.4290   44.7710 C   0  0  0  0  0  0  0  0  0  0  0  0
   56.5840   30.1450   43.9450 C   0  0  0  0  0  0  0  0  0  0  0  0
   56.7150   29.8270   42.5600 N   0  0  0  0  0  0  0  0  0  0  0  0
   55.4420   30.1320   44.4790 O   0  0  0  0  0  0  0  0  0  0  0  0
   58.7970   29.5800   45.0130 N   0  0  0  0  0  0  0  0  0  0  0  0
   59.0460   28.2720   44.3900 C   0  0  0  0  0  0  0  0  0  0  0  0
   58.2940   27.1840   45.1120 C   0  0  0  0  0  0  0  0  0  0  0  0
   58.1610   27.2290   46.5100 C   0  0  0  0  0  0  0  0  0  0  0  0
   57.5110   26.1980   47.1910 C   0  0  0  0  0  0  0  0  0  0  0  0
   56.9790   25.1100   46.4840 C   0  0  0  0  0  0  0  0  0  0  0  0
   56.3370   23.9980   47.2090 C   0  0  0  0  0  0  0  0  0  0  0  0
   57.0370   23.4060   48.2720 C   0  0  0  0  0  0  0  0  0  0  0  0
   56.4930   22.3260   48.9670 C   0  0  0  0  0  0  0  0  0  0  0  0
   55.2420   21.8240   48.6090 C   0  0  0  0  0  0  0  0  0  0  0  0
   54.5270   22.4100   47.5620 C   0  0  0  0  0  0  0  0  0  0  0  0
   55.0560   23.5050   46.8590 C   0  0  0  0  0  0  0  0  0  0  0  0
   54.0770   24.2350   45.5760 S   0  0  0  0  0  0  0  0  0  0  0  0
   54.2330   25.9560   45.6300 N   0  0  0  0  0  0  0  0  0  0  0  0
   54.5570   23.7460   44.2380 O   0  0  0  0  0  0  0  0  0  0  0  0
   52.6350   23.8420   45.7280 O   0  0  0  0  0  0  0  0  0  0  0  0
   57.1180   25.0580   45.0900 C   0  0  0  0  0  0  0  0  0  0  0  0
   57.7660   26.0920   44.4070 C   0  0  0  0  0  0  0  0  0  0  0  0
   58.8751   29.7266   50.3758 H   0  0  0  0  0  0  0  0  0  0  0  0
   58.2093   30.5034   48.8993 H   0  0  0  0  0  0  0  0  0  0  0  0
   58.5823   28.7463   48.8993 H   0  0  0  0  0  0  0  0  0  0  0  0
   60.3461   31.0543   48.3903 H   0  0  0  0  0  0  0  0  0  0  0  0
   61.0001   29.9310   49.6488 H   0  0  0  0  0  0  0  0  0  0  0  0
   61.6988   28.5779   48.0008 H   0  0  0  0  0  0  0  0  0  0  0  0
   59.9638   28.2882   47.5825 H   0  0  0  0  0  0  0  0  0  0  0  0
   61.6281   30.6147   46.5034 H   0  0  0  0  0  0  0  0  0  0  0  0
   61.3681   29.0526   45.6385 H   0  0  0  0  0  0  0  0  0  0  0  0
   58.5116   34.3049   46.8790 H   0  0  0  0  0  0  0  0  0  0  0  0
   59.2870   33.7772   45.3470 H   0  0  0  0  0  0  0  0  0  0  0  0
   58.1561   35.1728   45.3470 H   0  0  0  0  0  0  0  0  0  0  0  0
   57.6570   29.6940   42.1290 H   0  0  0  0  0  0  0  0  0  0  0  0
   55.8660   29.6510   41.9780 H   0  0  0  0  0  0  0  0  0  0  0  0
   58.7162   28.3034   43.3411 H   0  0  0  0  0  0  0  0  0  0  0  0
   60.1227   28.0537   44.4463 H   0  0  0  0  0  0  0  0  0  0  0  0
   58.5714   28.0815   47.0712 H   0  0  0  0  0  0  0  0  0  0  0  0
   57.4158   26.2393   48.2861 H   0  0  0  0  0  0  0  0  0  0  0  0
   58.0239   23.7976   48.5596 H   0  0  0  0  0  0  0  0  0  0  0  0
   57.0510   21.8699   49.7980 H   0  0  0  0  0  0  0  0  0  0  0  0
   54.8182   20.9661   49.1515 H   0  0  0  0  0  0  0  0  0  0  0  0
   53.5403   22.0102   47.2853 H   0  0  0  0  0  0  0  0  0  0  0  0
   53.3400   26.3390   46.0110 H   0  0  0  0  0  0  0  0  0  0  0  0
   56.7157   24.2002   44.5311 H   0  0  0  0  0  0  0  0  0  0  0  0
   57.8622   26.0490   43.3121 H   0  0  0  0  0  0  0  0  0  0  0  0
  1  2  1  0
  2  3  1  0
  3  4  1  0
  4  5  1  0
  5  6  2  0
  6  7  1  0
  7  8  1  0
  8  9  1  0
  7 10  2  0
 10 11  1  0
 11 12  1  0
 11 13  2  0
 10 14  1  0
 14 15  1  0
 15 16  1  0
 16 17  2  0
 17 18  1  0
 18 19  2  0
 19 20  1  0
 20 21  2  0
 21 22  1  0
 22 23  2  0
 23 24  1  0
 24 25  2  0
 25 26  1  0
 26 27  1  0
 26 28  2  0
 26 29  2  0
 19 30  1  0
 30 31  2  0
 14  5  1  0
 31 16  1  0
 25 20  1  0
  1 32  1  0
  1 33  1  0
  1 34  1  0
  2 35  1  0
  2 36  1  0
  3 37  1  0
  3 38  1  0
  4 39  1  0
  4 40  1  0
  9 41  1  0
  9 42  1  0
  9 43  1  0
 12 44  1  0
 12 45  1  0
 15 46  1  0
 15 47  1  0
 17 48  1  0
 18 49  1  0
 21 50  1  0
 22 51  1  0
 23 52  1  0
 24 53  1  0
 27 54  1  0
 30 55  1  0
 31 56  1  0
M  CHG  1  27  -1
M  END
>  <UniqueID>  (70) 
65

>  <SMILES>  (70) 
CCCCc1nc(SC)c(C(N)=O)n1Cc1ccc(-c2ccccc2S([NH-])(=O)=O)cc1

>  <Energy>  (70) 
84.79511767820817

>  <Genealogy>  (70) 
CCCCc1nc(SC)c(C(N)=O)n1Cc1ccc(-c2ccccc2S([NH-])(=O)=O)cc1 (protonated)
CCCCc1nc(SC)c(C(N)=O)n1Cc1ccc(-c2ccccc2S([NH-])(=O)=O)cc1 (3D coordinates assigned)
CCCCc1nc(SC)c(C(N)=O)n1Cc1ccc(-c2ccccc2S([NH-])(=O)=O)cc1 (optimized conformer: 84.79511767820817 kcal/mol)

>  <smiles>  (70) 
CCCCc1nc(SC)c(C(N)=O)n1Cc1ccc(-c2ccccc2S(N)(=O)=O)cc1

>  <score_type>  (70) 
oracle

>  <origin>  (70) 
adg

>  <m_score__min__energy>  (70) 
-11.83

>  <m_primary>  (70) 
energy

$$$$
70:0
     RDKit          3D

 51 54  0  0  0  0  0  0  0  0999 V2000
   53.7940   23.2780   44.9870 O   0  0  0  0  0  0  0  0  0  0  0  0
   55.0210   23.2350   44.7090 C   0  0  0  0  0  0  0  0  0  0  0  0
   55.5190   22.2290   43.8250 N   0  0  0  0  0  0  0  0  0  0  0  0
   56.8780   22.3180   43.2970 C   0  0  0  0  0  0  0  0  0  0  0  0
   57.8560   22.7850   44.3860 C   0  0  0  0  0  0  0  0  0  0  0  0
   57.3420   24.0200   45.0950 C   0  0  0  0  0  0  0  0  0  0  0  0
   58.2320   24.9390   45.6650 C   0  0  0  0  0  0  0  0  0  0  0  0
   57.7400   26.0330   46.3820 C   0  0  0  0  0  0  0  0  0  0  0  0
   58.8680   27.2170   47.1160 S   0  0  0  0  0  0  0  0  0  0  0  0
   59.4500   27.8530   45.5050 C   0  0  0  0  0  0  0  0  0  0  0  0
   58.2670   28.2770   44.6330 C   0  0  0  0  0  0  0  0  0  0  0  0
   57.3620   29.1530   45.3860 N   0  0  0  0  0  0  0  0  0  0  0  0
   56.9970   30.5710   44.4470 S   0  0  0  0  0  0  0  0  0  0  0  0
   57.3680   30.3060   43.0140 O   0  0  0  0  0  0  0  0  0  0  0  0
   55.5210   30.8450   44.5210 O   0  0  0  0  0  0  0  0  0  0  0  0
   57.8700   31.9840   45.0640 C   0  0  0  0  0  0  0  0  0  0  0  0
   57.5490   33.2590   44.5730 C   0  0  0  0  0  0  0  0  0  0  0  0
   58.2200   34.3860   45.0480 C   0  0  0  0  0  0  0  0  0  0  0  0
   59.2220   34.2520   46.0150 C   0  0  0  0  0  0  0  0  0  0  0  0
   59.5700   32.9780   46.5030 C   0  0  0  0  0  0  0  0  0  0  0  0
   60.5760   32.7910   47.4610 O   0  0  0  0  0  0  0  0  0  0  0  0
   61.2240   33.8450   48.1650 C   0  0  0  0  0  0  0  0  0  0  0  0
   62.7370   33.7340   47.9460 C   0  0  0  0  0  0  0  0  0  0  0  0
   63.1990   32.4890   47.2070 C   0  0  0  0  0  0  0  0  0  0  0  0
   63.1960   33.8370   46.4980 C   0  0  0  0  0  0  0  0  0  0  0  0
   58.8950   31.8470   46.0180 C   0  0  0  0  0  0  0  0  0  0  0  0
   59.2520   30.6210   46.4790 F   0  0  0  0  0  0  0  0  0  0  0  0
   56.3600   26.1810   46.5440 C   0  0  0  0  0  0  0  0  0  0  0  0
   55.5080   25.2710   46.0020 N   0  0  0  0  0  0  0  0  0  0  0  0
   55.9630   24.2040   45.2900 C   0  0  0  0  0  0  0  0  0  0  0  0
   57.1893   21.3277   42.9331 H   0  0  0  0  0  0  0  0  0  0  0  0
   56.8901   23.0487   42.4749 H   0  0  0  0  0  0  0  0  0  0  0  0
   57.9853   21.9774   45.1216 H   0  0  0  0  0  0  0  0  0  0  0  0
   58.8149   23.0334   43.9077 H   0  0  0  0  0  0  0  0  0  0  0  0
   59.3169   24.7998   45.5485 H   0  0  0  0  0  0  0  0  0  0  0  0
   60.1036   28.7214   45.6742 H   0  0  0  0  0  0  0  0  0  0  0  0
   60.0028   27.0548   44.9880 H   0  0  0  0  0  0  0  0  0  0  0  0
   58.6424   28.8165   43.7509 H   0  0  0  0  0  0  0  0  0  0  0  0
   57.7147   27.3784   44.3209 H   0  0  0  0  0  0  0  0  0  0  0  0
   57.8390   29.4720   46.2590 H   0  0  0  0  0  0  0  0  0  0  0  0
   56.7645   33.3702   43.8099 H   0  0  0  0  0  0  0  0  0  0  0  0
   57.9606   35.3825   44.6612 H   0  0  0  0  0  0  0  0  0  0  0  0
   59.7397   35.1449   46.3953 H   0  0  0  0  0  0  0  0  0  0  0  0
   60.8668   34.8147   47.7880 H   0  0  0  0  0  0  0  0  0  0  0  0
   60.9971   33.7697   49.2387 H   0  0  0  0  0  0  0  0  0  0  0  0
   63.0148   34.2285   48.8885 H   0  0  0  0  0  0  0  0  0  0  0  0
   64.1526   32.0116   47.4766 H   0  0  0  0  0  0  0  0  0  0  0  0
   62.7626   31.5007   47.0002 H   0  0  0  0  0  0  0  0  0  0  0  0
   64.1472   34.3338   46.2562 H   0  0  0  0  0  0  0  0  0  0  0  0
   62.7567   34.2265   45.5678 H   0  0  0  0  0  0  0  0  0  0  0  0
   55.9624   27.0355   47.1112 H   0  0  0  0  0  0  0  0  0  0  0  0
  1  2  2  0
  2  3  1  0
  3  4  1  0
  4  5  1  0
  5  6  1  0
  6  7  2  0
  7  8  1  0
  8  9  1  0
  9 10  1  0
 10 11  1  0
 11 12  1  0
 12 13  1  0
 13 14  2  0
 13 15  2  0
 13 16  1  0
 16 17  2  0
 17 18  1  0
 18 19  2  0
 19 20  1  0
 20 21  1  0
 21 22  1  0
 22 23  1  0
 23 24  1  0
 24 25  1  0
 20 26  2  0
 26 27  1  0
  8 28  2  0
 28 29  1  0
 29 30  2  0
 30  2  1  0
 30  6  1  0
 26 16  1  0
 25 23  1  0
  4 31  1  0
  4 32  1  0
  5 33  1  0
  5 34  1  0
  7 35  1  0
 10 36  1  0
 10 37  1  0
 11 38  1  0
 11 39  1  0
 12 40  1  0
 17 41  1  0
 18 42  1  0
 19 43  1  0
 22 44  1  0
 22 45  1  0
 23 46  1  0
 24 47  1  0
 24 48  1  0
 25 49  1  0
 25 50  1  0
 28 51  1  0
M  CHG  1   3  -1
M  END
>  <UniqueID>  (71) 
66

>  <SMILES>  (71) 
O=C1[N-]CCc2cc(SCCNS(=O)(=O)c3cccc(OCC4CC4)c3F)cnc21

>  <Energy>  (71) 
309.833837760819

>  <Genealogy>  (71) 
O=C1[N-]CCc2cc(SCCNS(=O)(=O)c3cccc(OCC4CC4)c3F)cnc21 (protonated)
O=C1[N-]CCc2cc(SCCNS(=O)(=O)c3cccc(OCC4CC4)c3F)cnc21 (3D coordinates assigned)
O=C1[N-]CCc2cc(SCCNS(=O)(=O)c3cccc(OCC4CC4)c3F)cnc21 (nonaromatic ring conformer: 309.833837760819 kcal/mol)

>  <smiles>  (71) 
O=C1NCCc2cc(SCCNS(=O)(=O)c3cccc(OCC4CC4)c3F)cnc21

>  <score_type>  (71) 
oracle

>  <origin>  (71) 
adg

>  <m_score__min__energy>  (71) 
-11.789999999999999

>  <m_primary>  (71) 
energy

$$$$
71:0
     RDKit          3D

 43 44  0  0  0  0  0  0  0  0999 V2000
   59.9490   34.0710   48.6880 C   0  0  0  0  0  0  0  0  0  0  0  0
   59.3910   34.2070   47.2990 C   0  0  0  0  0  0  0  0  0  0  0  0
   59.8070   35.2690   46.4780 C   0  0  0  0  0  0  0  0  0  0  0  0
   59.2830   35.4180   45.1930 C   0  0  0  0  0  0  0  0  0  0  0  0
   58.3340   34.5120   44.7160 C   0  0  0  0  0  0  0  0  0  0  0  0
   57.9170   33.4450   45.5160 C   0  0  0  0  0  0  0  0  0  0  0  0
   58.4450   33.2760   46.8130 C   0  0  0  0  0  0  0  0  0  0  0  0
   58.0330   32.1900   47.6600 N   0  0  0  0  0  0  0  0  0  0  0  0
   58.9900   30.8000   48.0590 S   0  0  0  0  0  0  0  0  0  0  0  0
   58.3300   29.5590   47.5270 O   0  0  0  0  0  0  0  0  0  0  0  0
   59.0910   30.6930   49.5550 O   0  0  0  0  0  0  0  0  0  0  0  0
   60.6310   30.9960   47.3800 C   0  0  0  0  0  0  0  0  0  0  0  0
   60.9990   29.8200   46.4760 C   0  0  0  0  0  0  0  0  0  0  0  0
   60.0070   29.6470   45.4140 N   0  0  0  0  0  0  0  0  0  0  0  0
   59.6600   28.5250   44.8490 C   0  0  0  0  0  0  0  0  0  0  0  0
   58.6900   27.5810   45.4440 C   0  0  0  0  0  0  0  0  0  0  0  0
   59.1500   26.3750   46.0040 C   0  0  0  0  0  0  0  0  0  0  0  0
   60.4720   26.0620   45.9840 F   0  0  0  0  0  0  0  0  0  0  0  0
   58.2480   25.4660   46.5610 C   0  0  0  0  0  0  0  0  0  0  0  0
   56.8810   25.7400   46.5460 C   0  0  0  0  0  0  0  0  0  0  0  0
   56.4080   26.9200   45.9700 C   0  0  0  0  0  0  0  0  0  0  0  0
   57.3010   27.8460   45.4080 C   0  0  0  0  0  0  0  0  0  0  0  0
   56.6610   29.3220   44.6690 S   0  0  0  0  0  0  0  0  0  0  0  0
   57.4410   30.6960   45.3690 N   0  0  0  0  0  0  0  0  0  0  0  0
   55.1780   29.4110   44.9010 O   0  0  0  0  0  0  0  0  0  0  0  0
   56.9150   29.3160   43.1880 O   0  0  0  0  0  0  0  0  0  0  0  0
   59.1540   34.2648   49.4231 H   0  0  0  0  0  0  0  0  0  0  0  0
   60.3380   33.0517   48.8287 H   0  0  0  0  0  0  0  0  0  0  0  0
   60.7634   34.7970   48.8287 H   0  0  0  0  0  0  0  0  0  0  0  0
   60.5511   35.9882   46.8509 H   0  0  0  0  0  0  0  0  0  0  0  0
   59.6179   36.2497   44.5558 H   0  0  0  0  0  0  0  0  0  0  0  0
   57.9133   34.6385   43.7075 H   0  0  0  0  0  0  0  0  0  0  0  0
   57.1723   32.7323   45.1319 H   0  0  0  0  0  0  0  0  0  0  0  0
   60.6676   31.9253   46.7926 H   0  0  0  0  0  0  0  0  0  0  0  0
   61.3499   31.0343   48.2117 H   0  0  0  0  0  0  0  0  0  0  0  0
   61.9831   30.0088   46.0223 H   0  0  0  0  0  0  0  0  0  0  0  0
   61.0257   28.9040   47.0845 H   0  0  0  0  0  0  0  0  0  0  0  0
   60.1119   28.2671   43.8798 H   0  0  0  0  0  0  0  0  0  0  0  0
   58.6164   24.5328   47.0121 H   0  0  0  0  0  0  0  0  0  0  0  0
   56.1733   25.0241   46.9894 H   0  0  0  0  0  0  0  0  0  0  0  0
   55.3275   27.1259   45.9563 H   0  0  0  0  0  0  0  0  0  0  0  0
   58.4440   30.4370   45.5130 H   0  0  0  0  0  0  0  0  0  0  0  0
   57.0230   30.8330   46.3210 H   0  0  0  0  0  0  0  0  0  0  0  0
  1  2  1  0
  2  3  2  0
  3  4  1  0
  4  5  2  0
  5  6  1  0
  6  7  2  0
  7  8  1  0
  8  9  1  0
  9 10  2  0
  9 11  2  0
  9 12  1  0
 12 13  1  0
 13 14  1  0
 14 15  2  3
 15 16  1  0
 16 17  2  0
 17 18  1  0
 17 19  1  0
 19 20  2  0
 20 21  1  0
 21 22  2  0
 22 23  1  0
 23 24  1  0
 23 25  2  0
 23 26  2  0
  7  2  1  0
 22 16  1  0
  1 27  1  0
  1 28  1  0
  1 29  1  0
  3 30  1  0
  4 31  1  0
  5 32  1  0
  6 33  1  0
 12 34  1  0
 12 35  1  0
 13 36  1  0
 13 37  1  0
 15 38  1  0
 19 39  1  0
 20 40  1  0
 21 41  1  0
 24 42  1  0
 24 43  1  0
M  CHG  1   8  -1
M  END
>  <UniqueID>  (72) 
67

>  <SMILES>  (72) 
Cc1ccccc1[N-]S(=O)(=O)CCN=Cc1c(F)cccc1S(N)(=O)=O

>  <Energy>  (72) 
44.81031649670735

>  <Genealogy>  (72) 
Cc1ccccc1[N-]S(=O)(=O)CCN=Cc1c(F)cccc1S(N)(=O)=O (protonated)
Cc1ccccc1[N-]S(=O)(=O)CCN=Cc1c(F)cccc1S(N)(=O)=O (3D coordinates assigned)
Cc1ccccc1[N-]S(=O)(=O)CCN=Cc1c(F)cccc1S(N)(=O)=O (optimized conformer: 44.81031649670735 kcal/mol)

>  <smiles>  (72) 
Cc1ccccc1NS(=O)(=O)CCN=Cc1c(F)cccc1S(N)(=O)=O

>  <score_type>  (72) 
oracle

>  <origin>  (72) 
adg

>  <m_score__min__energy>  (72) 
-10.01

>  <m_primary>  (72) 
energy

$$$$
72:0
     RDKit          3D

 46 48  0  0  0  0  0  0  0  0999 V2000
   56.8580   21.9860   43.6770 C   0  0  0  0  0  0  0  0  0  0  0  0
   55.5730   22.5890   43.5800 O   0  0  0  0  0  0  0  0  0  0  0  0
   54.9170   23.1470   44.6810 C   0  0  0  0  0  0  0  0  0  0  0  0
   53.9870   22.5210   45.2590 O   0  0  0  0  0  0  0  0  0  0  0  0
   55.3060   24.4750   45.1650 C   0  0  0  0  0  0  0  0  0  0  0  0
   56.5770   25.0110   45.1310 C   0  0  0  0  0  0  0  0  0  0  0  0
   56.4070   26.2690   45.6710 C   0  0  0  0  0  0  0  0  0  0  0  0
   57.4700   27.3040   45.8670 C   0  0  0  0  0  0  0  0  0  0  0  0
   57.5250   28.1930   44.7490 O   0  0  0  0  0  0  0  0  0  0  0  0
   57.6680   29.5880   44.8340 C   0  0  0  0  0  0  0  0  0  0  0  0
   57.3170   30.3610   43.7210 C   0  0  0  0  0  0  0  0  0  0  0  0
   57.3830   31.7560   43.7760 C   0  0  0  0  0  0  0  0  0  0  0  0
   57.7880   32.4000   44.9530 C   0  0  0  0  0  0  0  0  0  0  0  0
   57.8140   33.8770   45.0030 C   0  0  0  0  0  0  0  0  0  0  0  0
   58.8360   34.5740   45.4170 N   0  0  0  0  0  0  0  0  0  0  0  0
   59.6580   34.3050   46.5650 C   0  0  0  0  0  0  0  0  0  0  0  0
   59.2200   34.6050   47.8680 C   0  0  0  0  0  0  0  0  0  0  0  0
   60.0410   34.3330   48.9650 C   0  0  0  0  0  0  0  0  0  0  0  0
   61.3110   33.7810   48.7700 C   0  0  0  0  0  0  0  0  0  0  0  0
   61.7700   33.5110   47.4720 C   0  0  0  0  0  0  0  0  0  0  0  0
   63.3740   32.8340   47.2080 S   0  0  0  0  0  0  0  0  0  0  0  0
   64.3720   33.1710   48.5780 N   0  0  0  0  0  0  0  0  0  0  0  0
   63.9770   33.4510   45.9780 O   0  0  0  0  0  0  0  0  0  0  0  0
   63.2840   31.3460   47.0090 O   0  0  0  0  0  0  0  0  0  0  0  0
   60.9450   33.7890   46.3740 C   0  0  0  0  0  0  0  0  0  0  0  0
   58.2040   31.6250   46.0500 C   0  0  0  0  0  0  0  0  0  0  0  0
   58.1390   30.2310   45.9950 C   0  0  0  0  0  0  0  0  0  0  0  0
   55.1440   26.4270   45.9950 O   0  0  0  0  0  0  0  0  0  0  0  0
   54.4490   25.3660   45.7010 N   0  0  0  0  0  0  0  0  0  0  0  0
   57.1252   21.8606   44.7367 H   0  0  0  0  0  0  0  0  0  0  0  0
   56.8396   21.0025   43.1847 H   0  0  0  0  0  0  0  0  0  0  0  0
   57.6027   22.6287   43.1847 H   0  0  0  0  0  0  0  0  0  0  0  0
   57.5034   24.5467   44.7619 H   0  0  0  0  0  0  0  0  0  0  0  0
   57.2477   27.8815   46.7764 H   0  0  0  0  0  0  0  0  0  0  0  0
   58.4418   26.7976   45.9630 H   0  0  0  0  0  0  0  0  0  0  0  0
   56.9866   29.8665   42.7956 H   0  0  0  0  0  0  0  0  0  0  0  0
   57.1156   32.3516   42.8907 H   0  0  0  0  0  0  0  0  0  0  0  0
   56.9175   34.4213   44.6711 H   0  0  0  0  0  0  0  0  0  0  0  0
   58.2283   35.0550   48.0233 H   0  0  0  0  0  0  0  0  0  0  0  0
   59.6881   34.5533   49.9833 H   0  0  0  0  0  0  0  0  0  0  0  0
   61.9514   33.5580   49.6361 H   0  0  0  0  0  0  0  0  0  0  0  0
   65.3640   33.0700   48.2670 H   0  0  0  0  0  0  0  0  0  0  0  0
   64.2320   34.1780   48.8180 H   0  0  0  0  0  0  0  0  0  0  0  0
   61.3116   33.6003   45.3542 H   0  0  0  0  0  0  0  0  0  0  0  0
   58.5828   32.1195   46.9567 H   0  0  0  0  0  0  0  0  0  0  0  0
   58.4569   29.6330   46.8618 H   0  0  0  0  0  0  0  0  0  0  0  0
  1  2  1  0
  2  3  1  0
  3  4  2  0
  3  5  1  0
  5  6  1  0
  6  7  2  0
  7  8  1  0
  8  9  1  0
  9 10  1  0
 10 11  2  0
 11 12  1  0
 12 13  2  0
 13 14  1  0
 14 15  2  3
 15 16  1  0
 16 17  2  0
 17 18  1  0
 18 19  2  0
 19 20  1  0
 20 21  1  0
 21 22  1  0
 21 23  2  0
 21 24  2  0
 20 25  2  0
 13 26  1  0
 26 27  2  0
  7 28  1  0
 28 29  1  0
 29  5  2  0
 27 10  1  0
 25 16  1  0
  1 30  1  0
  1 31  1  0
  1 32  1  0
  6 33  1  0
  8 34  1  0
  8 35  1  0
 11 36  1  0
 12 37  1  0
 14 38  1  0
 17 39  1  0
 18 40  1  0
 19 41  1  0
 22 42  1  0
 22 43  1  0
 25 44  1  0
 26 45  1  0
 27 46  1  0
M  END
>  <UniqueID>  (73) 
68

>  <SMILES>  (73) 
COC(=O)c1cc(COc2ccc(C=Nc3cccc(S(N)(=O)=O)c3)cc2)on1

>  <Energy>  (73) 
83.4535324192065

>  <Genealogy>  (73) 
COC(=O)c1cc(COc2ccc(C=Nc3cccc(S(N)(=O)=O)c3)cc2)on1 (3D coordinates assigned)
COC(=O)c1cc(COc2ccc(C=Nc3cccc(S(N)(=O)=O)c3)cc2)on1 (optimized conformer: 83.4535324192065 kcal/mol)

>  <smiles>  (73) 
COC(=O)c1cc(COc2ccc(C=Nc3cccc(S(N)(=O)=O)c3)cc2)on1

>  <score_type>  (73) 
oracle

>  <origin>  (73) 
adg

>  <m_score__min__energy>  (73) 
-10.039999999999999

>  <m_primary>  (73) 
energy

$$$$
73:0
     RDKit          3D

 44 46  0  0  0  0  0  0  0  0999 V2000
   55.5370   27.0660   45.6580 N   0  0  0  0  0  0  0  0  0  0  0  0
   56.2010   28.2580   45.2450 C   0  0  0  0  0  0  0  0  0  0  0  0
   55.5190   29.1910   44.7430 O   0  0  0  0  0  0  0  0  0  0  0  0
   57.6680   28.4230   45.4230 C   0  0  0  0  0  0  0  0  0  0  0  0
   58.4880   27.2770   45.4590 C   0  0  0  0  0  0  0  0  0  0  0  0
   59.8750   27.3950   45.5860 C   0  0  0  0  0  0  0  0  0  0  0  0
   60.4650   28.6550   45.6740 C   0  0  0  0  0  0  0  0  0  0  0  0
   59.6700   29.8020   45.6500 C   0  0  0  0  0  0  0  0  0  0  0  0
   58.2770   29.6970   45.5420 C   0  0  0  0  0  0  0  0  0  0  0  0
   57.5210   30.8730   45.5730 O   0  0  0  0  0  0  0  0  0  0  0  0
   58.0680   32.1430   45.8120 C   0  0  0  0  0  0  0  0  0  0  0  0
   58.0010   33.0990   44.7970 C   0  0  0  0  0  0  0  0  0  0  0  0
   58.5270   34.3770   44.9930 C   0  0  0  0  0  0  0  0  0  0  0  0
   59.1190   34.7170   46.2130 C   0  0  0  0  0  0  0  0  0  0  0  0
   59.6380   35.9970   46.3780 O   0  0  0  0  0  0  0  0  0  0  0  0
   59.1870   33.7700   47.2560 C   0  0  0  0  0  0  0  0  0  0  0  0
   59.8150   34.1230   48.5930 C   0  0  0  0  0  0  0  0  0  0  0  0
   61.1690   33.5550   48.7860 N   0  0  0  0  0  0  0  0  0  0  0  0
   62.2290   34.1870   47.9600 C   0  0  0  0  0  0  0  0  0  0  0  0
   62.7720   33.2440   46.8780 C   0  0  0  0  0  0  0  0  0  0  0  0
   63.3480   31.9580   47.4980 C   0  0  0  0  0  0  0  0  0  0  0  0
   62.6330   31.5480   48.8000 C   0  0  0  0  0  0  0  0  0  0  0  0
   61.1950   32.0740   48.8290 C   0  0  0  0  0  0  0  0  0  0  0  0
   58.6760   32.4790   47.0370 C   0  0  0  0  0  0  0  0  0  0  0  0
   54.7730   27.0950   46.3690 H   0  0  0  0  0  0  0  0  0  0  0  0
   58.0314   26.2789   45.3864 H   0  0  0  0  0  0  0  0  0  0  0  0
   60.5022   26.4919   45.6166 H   0  0  0  0  0  0  0  0  0  0  0  0
   61.5577   28.7453   45.7624 H   0  0  0  0  0  0  0  0  0  0  0  0
   60.1399   30.7944   45.7163 H   0  0  0  0  0  0  0  0  0  0  0  0
   57.5305   32.8434   43.8361 H   0  0  0  0  0  0  0  0  0  0  0  0
   58.4755   35.1202   44.1837 H   0  0  0  0  0  0  0  0  0  0  0  0
   59.8850   35.2184   48.6648 H   0  0  0  0  0  0  0  0  0  0  0  0
   59.1718   33.6901   49.3733 H   0  0  0  0  0  0  0  0  0  0  0  0
   61.8107   35.0798   47.4722 H   0  0  0  0  0  0  0  0  0  0  0  0
   63.0640   34.4447   48.6281 H   0  0  0  0  0  0  0  0  0  0  0  0
   61.9547   32.9767   46.1920 H   0  0  0  0  0  0  0  0  0  0  0  0
   63.5784   33.7616   46.3377 H   0  0  0  0  0  0  0  0  0  0  0  0
   63.2459   31.1406   46.7690 H   0  0  0  0  0  0  0  0  0  0  0  0
   64.4011   32.1546   47.7474 H   0  0  0  0  0  0  0  0  0  0  0  0
   62.6154   30.4504   48.8698 H   0  0  0  0  0  0  0  0  0  0  0  0
   63.1804   31.9810   49.6502 H   0  0  0  0  0  0  0  0  0  0  0  0
   60.6503   31.6795   47.9586 H   0  0  0  0  0  0  0  0  0  0  0  0
   60.7200   31.7427   49.7642 H   0  0  0  0  0  0  0  0  0  0  0  0
   58.7519   31.7223   47.8318 H   0  0  0  0  0  0  0  0  0  0  0  0
  1  2  1  0
  2  3  2  0
  2  4  1  0
  4  5  2  0
  5  6  1  0
  6  7  2  0
  7  8  1  0
  8  9  2  0
  9 10  1  0
 10 11  1  0
 11 12  2  0
 12 13  1  0
 13 14  2  0
 14 15  1  0
 14 16  1  0
 16 17  1  0
 17 18  1  0
 18 19  1  0
 19 20  1  0
 20 21  1  0
 21 22  1  0
 22 23  1  0
 16 24  2  0
  9  4  1  0
 24 11  1  0
 23 18  1  0
  1 25  1  0
  5 26  1  0
  6 27  1  0
  7 28  1  0
  8 29  1  0
 12 30  1  0
 13 31  1  0
 17 32  1  0
 17 33  1  0
 19 34  1  0
 19 35  1  0
 20 36  1  0
 20 37  1  0
 21 38  1  0
 21 39  1  0
 22 40  1  0
 22 41  1  0
 23 42  1  0
 23 43  1  0
 24 44  1  0
M  CHG  2   1  -1  15  -1
M  END
>  <UniqueID>  (74) 
69

>  <SMILES>  (74) 
[NH-]C(=O)c1ccccc1Oc1ccc([O-])c(CN2CCCCC2)c1

>  <Energy>  (74) 
64.87819619719572

>  <Genealogy>  (74) 
[NH-]C(=O)c1ccccc1Oc1ccc([O-])c(CN2CCCCC2)c1 (protonated)
[NH-]C(=O)c1ccccc1Oc1ccc([O-])c(CN2CCCCC2)c1 (3D coordinates assigned)
[NH-]C(=O)c1ccccc1Oc1ccc([O-])c(CN2CCCCC2)c1 (nonaromatic ring conformer: 64.87819619719572 kcal/mol)

>  <smiles>  (74) 
NC(=O)c1ccccc1Oc1ccc(O)c(CN2CCCCC2)c1

>  <score_type>  (74) 
oracle

>  <origin>  (74) 
adg

>  <m_score__min__energy>  (74) 
-12.5

>  <m_primary>  (74) 
energy

$$$$
74:0
     RDKit          3D

 29 31  0  0  0  0  0  0  0  0999 V2000
   55.1630   24.8310   46.7420 O   0  0  0  0  0  0  0  0  0  0  0  0
   55.9800   25.7030   46.3500 C   0  0  0  0  0  0  0  0  0  0  0  0
   57.3170   25.5910   46.5570 N   0  0  0  0  0  0  0  0  0  0  0  0
   57.7820   26.7130   45.9880 C   0  0  0  0  0  0  0  0  0  0  0  0
   59.1040   27.1360   45.9010 C   0  0  0  0  0  0  0  0  0  0  0  0
   59.3590   28.3600   45.2530 C   0  0  0  0  0  0  0  0  0  0  0  0
   58.2940   29.1300   44.7050 C   0  0  0  0  0  0  0  0  0  0  0  0
   58.5290   30.3800   44.0330 N   0  0  0  0  0  0  0  0  0  0  0  0
   57.5860   31.8130   44.2950 S   0  0  0  0  0  0  0  0  0  0  0  0
   56.2400   31.4240   44.8380 O   0  0  0  0  0  0  0  0  0  0  0  0
   57.3960   32.5260   42.9860 O   0  0  0  0  0  0  0  0  0  0  0  0
   58.4210   32.8920   45.4090 C   0  0  0  0  0  0  0  0  0  0  0  0
   58.5460   32.5410   46.7610 C   0  0  0  0  0  0  0  0  0  0  0  0
   59.1990   33.3990   47.6510 C   0  0  0  0  0  0  0  0  0  0  0  0
   59.7310   34.6080   47.1950 C   0  0  0  0  0  0  0  0  0  0  0  0
   59.6150   34.9590   45.8470 C   0  0  0  0  0  0  0  0  0  0  0  0
   58.9620   34.1030   44.9540 C   0  0  0  0  0  0  0  0  0  0  0  0
   56.9670   28.6580   44.8260 C   0  0  0  0  0  0  0  0  0  0  0  0
   56.7570   27.4440   45.4740 C   0  0  0  0  0  0  0  0  0  0  0  0
   55.5870   26.8220   45.6900 N   0  0  0  0  0  0  0  0  0  0  0  0
   59.9225   26.5350   46.3239 H   0  0  0  0  0  0  0  0  0  0  0  0
   60.3931   28.7255   45.1692 H   0  0  0  0  0  0  0  0  0  0  0  0
   59.3550   30.4670   43.4000 H   0  0  0  0  0  0  0  0  0  0  0  0
   58.1296   31.5890   47.1219 H   0  0  0  0  0  0  0  0  0  0  0  0
   59.2941   33.1221   48.7113 H   0  0  0  0  0  0  0  0  0  0  0  0
   60.2413   35.2837   47.8971 H   0  0  0  0  0  0  0  0  0  0  0  0
   60.0376   35.9091   45.4882 H   0  0  0  0  0  0  0  0  0  0  0  0
   58.8728   34.3802   43.8933 H   0  0  0  0  0  0  0  0  0  0  0  0
   56.1231   29.2345   44.4191 H   0  0  0  0  0  0  0  0  0  0  0  0
  1  2  2  0
  2  3  1  0
  3  4  1  0
  4  5  2  0
  5  6  1  0
  6  7  2  0
  7  8  1  0
  8  9  1  0
  9 10  2  0
  9 11  2  0
  9 12  1  0
 12 13  2  0
 13 14  1  0
 14 15  2  0
 15 16  1  0
 16 17  2  0
  7 18  1  0
 18 19  2  0
 19 20  1  0
 20  2  1  0
 19  4  1  0
 17 12  1  0
  5 21  1  0
  6 22  1  0
  8 23  1  0
 13 24  1  0
 14 25  1  0
 15 26  1  0
 16 27  1  0
 17 28  1  0
 18 29  1  0
M  CHG  2   3  -1  20  -1
M  END
>  <UniqueID>  (75) 
70

>  <SMILES>  (75) 
O=c1[n-]c2ccc(NS(=O)(=O)c3ccccc3)cc2[n-]1

>  <Energy>  (75) 
69.66979377997012

>  <Genealogy>  (75) 
O=c1[n-]c2ccc(NS(=O)(=O)c3ccccc3)cc2[n-]1 (protonated)
O=c1[n-]c2ccc(NS(=O)(=O)c3ccccc3)cc2[n-]1 (3D coordinates assigned)
O=c1[n-]c2ccc(NS(=O)(=O)c3ccccc3)cc2[n-]1 (optimized conformer: 69.66979377997012 kcal/mol)

>  <smiles>  (75) 
O=c1[nH]c2ccc(NS(=O)(=O)c3ccccc3)cc2[nH]1

>  <score_type>  (75) 
oracle

>  <origin>  (75) 
adg

>  <m_score__min__energy>  (75) 
-11.9

>  <m_primary>  (75) 
energy

$$$$
75:0
     RDKit          3D

 55 58  0  0  0  0  0  0  0  0999 V2000
   54.5140   29.3560   45.6110 H   0  0  0  0  0  0  0  0  0  0  0  0
   55.1540   29.3200   44.7860 N   0  0  0  0  0  0  0  0  0  0  0  0
   56.5700   29.3510   44.9560 C   0  0  0  0  0  0  0  0  0  0  0  0
   57.2170   28.2690   44.9200 O   0  0  0  0  0  0  0  0  0  0  0  0
   57.2750   30.6360   45.1730 C   0  0  0  0  0  0  0  0  0  0  0  0
   57.0710   31.7170   44.2950 C   0  0  0  0  0  0  0  0  0  0  0  0
   56.3845   31.6060   43.4427 H   0  0  0  0  0  0  0  0  0  0  0  0
   57.7340   32.9300   44.4980 C   0  0  0  0  0  0  0  0  0  0  0  0
   57.5598   33.7695   43.8089 H   0  0  0  0  0  0  0  0  0  0  0  0
   58.6200   33.0850   45.5740 C   0  0  0  0  0  0  0  0  0  0  0  0
   59.3290   34.3960   45.8020 C   0  0  0  0  0  0  0  0  0  0  0  0
   59.2173   35.0258   44.9071 H   0  0  0  0  0  0  0  0  0  0  0  0
   58.8819   34.8887   46.6780 H   0  0  0  0  0  0  0  0  0  0  0  0
   60.7540   34.1830   46.0630 N   0  0  0  0  0  0  0  0  0  0  0  0
   61.2990   33.7550   47.1680 C   0  0  0  0  0  0  0  0  0  0  0  0
   60.5260   33.6630   48.2820 N   0  0  0  0  0  0  0  0  0  0  0  0
   61.0130   33.2190   49.4740 C   0  0  0  0  0  0  0  0  0  0  0  0
   60.1120   33.1470   50.6520 C   0  0  0  0  0  0  0  0  0  0  0  0
   60.4450   33.8380   51.8290 C   0  0  0  0  0  0  0  0  0  0  0  0
   61.3777   34.4193   51.8758 H   0  0  0  0  0  0  0  0  0  0  0  0
   59.6000   33.7920   52.9400 C   0  0  0  0  0  0  0  0  0  0  0  0
   59.8707   34.3351   53.8575 H   0  0  0  0  0  0  0  0  0  0  0  0
   58.4130   33.0590   52.8900 C   0  0  0  0  0  0  0  0  0  0  0  0
   57.7486   33.0326   53.7663 H   0  0  0  0  0  0  0  0  0  0  0  0
   58.0630   32.3550   51.7260 C   0  0  0  0  0  0  0  0  0  0  0  0
   56.8240   31.6320   51.6340 N   0  0  0  0  0  0  0  0  0  0  0  0
   55.9820   32.1340   51.2740 H   0  0  0  0  0  0  0  0  0  0  0  0
   56.6840   30.2320   51.9160 C   0  0  0  0  0  0  0  0  0  0  0  0
   57.7000   29.4930   52.0240 O   0  0  0  0  0  0  0  0  0  0  0  0
   55.3750   29.6700   52.0340 N   0  0  0  0  0  0  0  0  0  0  0  0
   54.5210   29.8910   53.1940 C   0  0  0  0  0  0  0  0  0  0  0  0
   54.2299   28.9220   53.6256 H   0  0  0  0  0  0  0  0  0  0  0  0
   55.0681   30.4769   53.9473 H   0  0  0  0  0  0  0  0  0  0  0  0
   53.2910   30.6410   52.7710 C   0  0  0  0  0  0  0  0  0  0  0  0
   53.2070   31.1910   51.4810 C   0  0  0  0  0  0  0  0  0  0  0  0
   54.0319   31.0457   50.7679 H   0  0  0  0  0  0  0  0  0  0  0  0
   52.0770   31.9230   51.1010 C   0  0  0  0  0  0  0  0  0  0  0  0
   52.0114   32.3455   50.0875 H   0  0  0  0  0  0  0  0  0  0  0  0
   51.0320   32.1180   52.0070 C   0  0  0  0  0  0  0  0  0  0  0  0
   50.1422   32.6897   51.7048 H   0  0  0  0  0  0  0  0  0  0  0  0
   51.1160   31.5870   53.2980 C   0  0  0  0  0  0  0  0  0  0  0  0
   50.2943   31.7456   54.0119 H   0  0  0  0  0  0  0  0  0  0  0  0
   52.2430   30.8550   53.6820 C   0  0  0  0  0  0  0  0  0  0  0  0
   52.3097   30.4452   54.7006 H   0  0  0  0  0  0  0  0  0  0  0  0
   58.9060   32.4200   50.6060 C   0  0  0  0  0  0  0  0  0  0  0  0
   58.6218   31.8970   49.6810 H   0  0  0  0  0  0  0  0  0  0  0  0
   62.3680   32.8600   49.5510 C   0  0  0  0  0  0  0  0  0  0  0  0
   62.7928   32.5031   50.5008 H   0  0  0  0  0  0  0  0  0  0  0  0
   63.1510   32.9560   48.4460 N   0  0  0  0  0  0  0  0  0  0  0  0
   62.6550   33.3880   47.2590 C   0  0  0  0  0  0  0  0  0  0  0  0
   63.3071   33.4509   46.3753 H   0  0  0  0  0  0  0  0  0  0  0  0
   58.8160   32.0140   46.4590 C   0  0  0  0  0  0  0  0  0  0  0  0
   59.4955   32.1310   47.3161 H   0  0  0  0  0  0  0  0  0  0  0  0
   58.1540   30.8000   46.2590 C   0  0  0  0  0  0  0  0  0  0  0  0
   58.3215   29.9658   46.9562 H   0  0  0  0  0  0  0  0  0  0  0  0
  1  2  1  0
  2  3  1  0
  3  4  2  0
  3  5  1  0
  5  6  2  0
  6  7  1  0
  6  8  1  0
  8  9  1  0
  8 10  2  0
 10 11  1  0
 11 12  1  0
 11 13  1  0
 11 14  1  0
 14 15  2  0
 15 16  1  0
 16 17  1  0
 17 18  1  0
 18 19  2  0
 19 20  1  0
 19 21  1  0
 21 22  1  0
 21 23  2  0
 23 24  1  0
 23 25  1  0
 25 26  1  0
 26 27  1  0
 26 28  1  0
 28 29  2  0
 28 30  1  0
 30 31  1  0
 31 32  1  0
 31 33  1  0
 31 34  1  0
 34 35  2  0
 35 36  1  0
 35 37  1  0
 37 38  1  0
 37 39  2  0
 39 40  1  0
 39 41  1  0
 41 42  1  0
 41 43  2  0
 43 44  1  0
 25 45  2  0
 45 46  1  0
 17 47  2  0
 47 48  1  0
 47 49  1  0
 49 50  2  0
 50 51  1  0
 10 52  1  0
 52 53  1  0
 52 54  2  0
 54 55  1  0
 54  5  1  0
 50 15  1  0
 45 18  1  0
 43 34  1  0
M  CHG  3   2  -1  16  -1  30  -1
M  END
>  <UniqueID>  (76) 
71

>  <SMILES>  (76) 
[NH-]C(=O)c1ccc(C/N=c2\cncc(-c3cccc(NC(=O)[N-]Cc4ccccc4)c3)[n-]2)cc1

>  <Energy>  (76) 
67.82052609158796

>  <Genealogy>  (76) 
[NH-]C(=O)c1ccc(CN=c2cncc(-c3cccc(NC(=O)[N-]Cc4ccccc4)c3)[n-]2)cc1 (protonated)
[NH-]C(=O)c1ccc(C/N=c2\cncc(-c3cccc(NC(=O)[N-]Cc4ccccc4)c3)[n-]2)cc1 (cis-trans isomerization)
[NH-]C(=O)c1ccc(C/N=c2\cncc(-c3cccc(NC(=O)[N-]Cc4ccccc4)c3)[n-]2)cc1 (3D coordinates assigned)
[NH-]C(=O)c1ccc(C/N=c2\cncc(-c3cccc(NC(=O)[N-]Cc4ccccc4)c3)[n-]2)cc1 (optimized conformer: 67.82052609158796 kcal/mol)

>  <smiles>  (76) 
NC(=O)c1ccc(CN=c2cncc(-c3cccc(NC(=O)NCc4ccccc4)c3)[nH]2)cc1

>  <score_type>  (76) 
oracle

>  <origin>  (76) 
adg

>  <m_score__min__energy>  (76) 
-16.300000000000001

>  <m_primary>  (76) 
energy

$$$$
76:0
     RDKit          3D

 36 37  0  0  0  0  0  0  0  0999 V2000
   55.1540   26.7180   45.9370 O   0  0  0  0  0  0  0  0  0  0  0  0
   56.0640   25.9260   46.2970 C   0  0  0  0  0  0  0  0  0  0  0  0
   55.7520   24.8430   47.1090 O   0  0  0  0  0  0  0  0  0  0  0  0
   57.4790   26.1620   45.8700 C   0  0  0  0  0  0  0  0  0  0  0  0
   57.5940   26.0990   44.4040 N   0  0  0  0  0  0  0  0  0  0  0  0
   58.5160   27.1130   43.8670 C   0  0  0  0  0  0  0  0  0  0  0  0
   58.0330   28.5040   44.1820 C   0  0  0  0  0  0  0  0  0  0  0  0
   58.6770   29.2660   45.1680 C   0  0  0  0  0  0  0  0  0  0  0  0
   58.2180   30.5490   45.4820 C   0  0  0  0  0  0  0  0  0  0  0  0
   57.1060   31.0900   44.8080 C   0  0  0  0  0  0  0  0  0  0  0  0
   56.6050   32.3740   45.0810 O   0  0  0  0  0  0  0  0  0  0  0  0
   57.3050   33.5980   44.8550 C   0  0  0  0  0  0  0  0  0  0  0  0
   58.2990   33.8580   45.9550 C   0  0  0  0  0  0  0  0  0  0  0  0
   58.1010   33.3020   47.2300 C   0  0  0  0  0  0  0  0  0  0  0  0
   59.0280   33.5330   48.2520 C   0  0  0  0  0  0  0  0  0  0  0  0
   60.1620   34.3120   48.0050 C   0  0  0  0  0  0  0  0  0  0  0  0
   61.0590   34.5340   48.9970 F   0  0  0  0  0  0  0  0  0  0  0  0
   60.3720   34.8590   46.7360 C   0  0  0  0  0  0  0  0  0  0  0  0
   59.4480   34.6300   45.7120 C   0  0  0  0  0  0  0  0  0  0  0  0
   56.4650   30.3250   43.8280 C   0  0  0  0  0  0  0  0  0  0  0  0
   56.9220   29.0420   43.5140 C   0  0  0  0  0  0  0  0  0  0  0  0
   57.8002   27.1557   46.2156 H   0  0  0  0  0  0  0  0  0  0  0  0
   58.1175   25.3819   46.3101 H   0  0  0  0  0  0  0  0  0  0  0  0
   56.6480   26.3050   44.0070 H   0  0  0  0  0  0  0  0  0  0  0  0
   59.5103   26.9678   44.3145 H   0  0  0  0  0  0  0  0  0  0  0  0
   58.5642   26.9984   42.7740 H   0  0  0  0  0  0  0  0  0  0  0  0
   59.5480   28.8520   45.6972 H   0  0  0  0  0  0  0  0  0  0  0  0
   58.7276   31.1382   46.2587 H   0  0  0  0  0  0  0  0  0  0  0  0
   57.8381   33.5362   43.8948 H   0  0  0  0  0  0  0  0  0  0  0  0
   56.5764   34.4219   44.8370 H   0  0  0  0  0  0  0  0  0  0  0  0
   57.2133   32.6824   47.4255 H   0  0  0  0  0  0  0  0  0  0  0  0
   58.8644   33.1014   49.2505 H   0  0  0  0  0  0  0  0  0  0  0  0
   61.2656   35.4706   46.5427 H   0  0  0  0  0  0  0  0  0  0  0  0
   59.6210   35.0556   44.7125 H   0  0  0  0  0  0  0  0  0  0  0  0
   55.5928   30.7371   43.2993 H   0  0  0  0  0  0  0  0  0  0  0  0
   56.4090   28.4517   42.7404 H   0  0  0  0  0  0  0  0  0  0  0  0
  1  2  2  0
  2  3  1  0
  2  4  1  0
  4  5  1  0
  5  6  1  0
  6  7  1  0
  7  8  2  0
  8  9  1  0
  9 10  2  0
 10 11  1  0
 11 12  1  0
 12 13  1  0
 13 14  2  0
 14 15  1  0
 15 16  2  0
 16 17  1  0
 16 18  1  0
 18 19  2  0
 10 20  1  0
 20 21  2  0
 21  7  1  0
 19 13  1  0
  4 22  1  0
  4 23  1  0
  5 24  1  0
  6 25  1  0
  6 26  1  0
  8 27  1  0
  9 28  1  0
 12 29  1  0
 12 30  1  0
 14 31  1  0
 15 32  1  0
 18 33  1  0
 19 34  1  0
 20 35  1  0
 21 36  1  0
M  CHG  1   3  -1
M  END
>  <UniqueID>  (77) 
72

>  <SMILES>  (77) 
O=C([O-])CNCc1ccc(OCc2ccc(F)cc2)cc1

>  <Energy>  (77) 
34.730584429151904

>  <Genealogy>  (77) 
O=C([O-])CNCc1ccc(OCc2ccc(F)cc2)cc1 (protonated)
O=C([O-])CNCc1ccc(OCc2ccc(F)cc2)cc1 (3D coordinates assigned)
O=C([O-])CNCc1ccc(OCc2ccc(F)cc2)cc1 (optimized conformer: 34.730584429151904 kcal/mol)

>  <smiles>  (77) 
O=C(O)CNCc1ccc(OCc2ccc(F)cc2)cc1

>  <score_type>  (77) 
oracle

>  <origin>  (77) 
adg

>  <m_score__min__energy>  (77) 
-10.25

>  <m_primary>  (77) 
energy

$$$$
77:0
     RDKit          3D

 40 43  0  0  0  0  0  0  0  0999 V2000
   58.4200   27.3760   47.9160 H   0  0  0  0  0  0  0  0  0  0  0  0
   58.9970   28.1070   48.2620 O   0  0  0  0  0  0  0  0  0  0  0  0
   60.3230   27.7080   48.0460 C   0  0  0  0  0  0  0  0  0  0  0  0
   60.6193   27.0023   48.8361 H   0  0  0  0  0  0  0  0  0  0  0  0
   60.9647   28.6012   48.0656 H   0  0  0  0  0  0  0  0  0  0  0  0
   60.4780   27.0260   46.6810 C   0  0  0  0  0  0  0  0  0  0  0  0
   59.9586   26.0569   46.7137 H   0  0  0  0  0  0  0  0  0  0  0  0
   61.5560   26.9119   46.4939 H   0  0  0  0  0  0  0  0  0  0  0  0
   59.8990   27.8510   45.5210 C   0  0  0  0  0  0  0  0  0  0  0  0
   60.2610   27.4334   44.5699 H   0  0  0  0  0  0  0  0  0  0  0  0
   60.2279   28.8937   45.6415 H   0  0  0  0  0  0  0  0  0  0  0  0
   58.4330   27.8280   45.5240 N   0  0  0  0  0  0  0  0  0  0  0  0
   57.5910   28.7760   45.0720 C   0  0  0  0  0  0  0  0  0  0  0  0
   57.9930   30.0250   44.4050 C   0  0  0  0  0  0  0  0  0  0  0  0
   58.2599   29.9776   43.3389 H   0  0  0  0  0  0  0  0  0  0  0  0
   58.0540   31.2150   45.0150 C   0  0  0  0  0  0  0  0  0  0  0  0
   57.0770   32.3030   44.8710 C   0  0  0  0  0  0  0  0  0  0  0  0
   56.1991   32.2707   44.2089 H   0  0  0  0  0  0  0  0  0  0  0  0
   57.3900   33.3060   45.6300 N   0  0  0  0  0  0  0  0  0  0  0  0
   58.5750   33.0010   46.3060 N   0  0  0  0  0  0  0  0  0  0  0  0
   59.0190   31.7780   45.9640 C   0  0  0  0  0  0  0  0  0  0  0  0
   60.2590   31.3150   46.4100 C   0  0  0  0  0  0  0  0  0  0  0  0
   60.6515   30.3409   46.0827 H   0  0  0  0  0  0  0  0  0  0  0  0
   60.9910   32.1330   47.2910 C   0  0  0  0  0  0  0  0  0  0  0  0
   62.2310   31.7120   47.7930 C   0  0  0  0  0  0  0  0  0  0  0  0
   62.6374   30.7323   47.5014 H   0  0  0  0  0  0  0  0  0  0  0  0
   62.9520   32.5360   48.6640 C   0  0  0  0  0  0  0  0  0  0  0  0
   63.9230   32.2004   49.0571 H   0  0  0  0  0  0  0  0  0  0  0  0
   62.4440   33.7840   49.0370 C   0  0  0  0  0  0  0  0  0  0  0  0
   63.0163   34.4246   49.7241 H   0  0  0  0  0  0  0  0  0  0  0  0
   61.2120   34.2220   48.5410 C   0  0  0  0  0  0  0  0  0  0  0  0
   60.8194   35.2068   48.8345 H   0  0  0  0  0  0  0  0  0  0  0  0
   60.4770   33.4050   47.6690 C   0  0  0  0  0  0  0  0  0  0  0  0
   59.2470   33.8320   47.1430 C   0  0  0  0  0  0  0  0  0  0  0  0
   58.8368   34.8188   47.4037 H   0  0  0  0  0  0  0  0  0  0  0  0
   56.3040   28.3100   45.2400 C   0  0  0  0  0  0  0  0  0  0  0  0
   55.1450   28.9740   44.8570 O   0  0  0  0  0  0  0  0  0  0  0  0
   56.3110   27.0950   45.8210 N   0  0  0  0  0  0  0  0  0  0  0  0
   57.6270   26.8410   45.9780 C   0  0  0  0  0  0  0  0  0  0  0  0
   58.0580   25.7780   46.5000 O   0  0  0  0  0  0  0  0  0  0  0  0
  1  2  1  0
  2  3  1  0
  3  4  1  0
  3  5  1  0
  3  6  1  0
  6  7  1  0
  6  8  1  0
  6  9  1  0
  9 10  1  0
  9 11  1  0
  9 12  1  0
 12 13  1  0
 13 14  1  0
 14 15  1  0
 14 16  2  0
 16 17  1  0
 17 18  1  0
 17 19  2  0
 19 20  1  0
 20 21  2  0
 21 22  1  0
 22 23  1  0
 22 24  2  0
 24 25  1  0
 25 26  1  0
 25 27  2  0
 27 28  1  0
 27 29  1  0
 29 30  1  0
 29 31  2  0
 31 32  1  0
 31 33  1  0
 33 34  2  0
 34 35  1  0
 13 36  2  0
 36 37  1  0
 36 38  1  0
 38 39  1  0
 39 40  2  0
 39 12  1  0
 21 16  1  0
 33 24  1  0
 34 20  1  0
M  CHG  3  20   1  37  -1  38  -1
M  END
>  <UniqueID>  (78) 
73

>  <SMILES>  (78) 
O=c1[n-]c([O-])c(/C=C2/C=N[n+]3cc4ccccc4cc32)n1CCCO

>  <Energy>  (78) 
115.87405033135134

>  <Genealogy>  (78) 
O=c1[n-]c([O-])c(C=C2C=N[n+]3cc4ccccc4cc32)n1CCCO (protonated)
O=c1[n-]c([O-])c(/C=C2/C=N[n+]3cc4ccccc4cc32)n1CCCO (cis-trans isomerization)
O=c1[n-]c([O-])c(/C=C2/C=N[n+]3cc4ccccc4cc32)n1CCCO (3D coordinates assigned)
O=c1[n-]c([O-])c(/C=C2/C=N[n+]3cc4ccccc4cc32)n1CCCO (nonaromatic ring conformer: 115.87405033135134 kcal/mol)

>  <smiles>  (78) 
O=c1[nH]c(O)c(C=C2C=N[n+]3cc4ccccc4cc32)n1CCCO

>  <score_type>  (78) 
oracle

>  <origin>  (78) 
adg

>  <m_score__min__energy>  (78) 
-12.99

>  <m_primary>  (78) 
energy

$$$$
78:0
     RDKit          3D

 44 45  0  0  0  0  0  0  0  0999 V2000
   57.4100   28.2520   45.3240 C   0  0  0  0  0  0  0  0  0  0  0  0
   57.7050   29.7210   45.3860 C   0  0  0  0  0  0  0  0  0  0  0  0
   56.8060   30.5870   44.8430 N   0  0  0  0  0  0  0  0  0  0  0  0
   56.9940   31.9310   44.8520 C   0  0  0  0  0  0  0  0  0  0  0  0
   58.1430   32.4770   45.4360 C   0  0  0  0  0  0  0  0  0  0  0  0
   58.4020   33.9590   45.3900 C   0  0  0  0  0  0  0  0  0  0  0  0
   58.6250   34.4960   46.7410 N   0  0  0  0  0  0  0  0  0  0  0  0
   60.0180   34.9290   46.9550 C   0  0  0  0  0  0  0  0  0  0  0  0
   60.6060   34.2080   48.1690 C   0  0  0  0  0  0  0  0  0  0  0  0
   61.7270   33.3680   47.7590 N   0  0  0  0  0  0  0  0  0  0  0  0
   62.9010   33.8010   47.2610 C   0  0  0  0  0  0  0  0  0  0  0  0
   63.7230   32.7070   47.0680 C   0  0  0  0  0  0  0  0  0  0  0  0
   62.9760   31.6190   47.4850 C   0  0  0  0  0  0  0  0  0  0  0  0
   61.7740   32.0540   47.9040 N   0  0  0  0  0  0  0  0  0  0  0  0
   59.0850   31.6130   46.0040 C   0  0  0  0  0  0  0  0  0  0  0  0
   58.8810   30.2250   45.9910 C   0  0  0  0  0  0  0  0  0  0  0  0
   59.9360   29.3130   46.5760 C   0  0  0  0  0  0  0  0  0  0  0  0
   60.1600   29.6210   48.0040 N   0  0  0  0  0  0  0  0  0  0  0  0
   58.8980   29.9980   48.6660 C   0  0  0  0  0  0  0  0  0  0  0  0
   60.7430   28.4550   48.6850 C   0  0  0  0  0  0  0  0  0  0  0  0
   57.3294   27.8508   46.3450 H   0  0  0  0  0  0  0  0  0  0  0  0
   56.4615   28.0907   44.7907 H   0  0  0  0  0  0  0  0  0  0  0  0
   58.2227   27.7370   44.7907 H   0  0  0  0  0  0  0  0  0  0  0  0
   56.2414   32.5931   44.3991 H   0  0  0  0  0  0  0  0  0  0  0  0
   59.2940   34.1496   44.7751 H   0  0  0  0  0  0  0  0  0  0  0  0
   57.5219   34.4558   44.9556 H   0  0  0  0  0  0  0  0  0  0  0  0
   58.0040   35.3330   46.8460 H   0  0  0  0  0  0  0  0  0  0  0  0
   60.6157   34.6890   46.0633 H   0  0  0  0  0  0  0  0  0  0  0  0
   60.0368   36.0142   47.1339 H   0  0  0  0  0  0  0  0  0  0  0  0
   60.9569   34.9520   48.8993 H   0  0  0  0  0  0  0  0  0  0  0  0
   59.8292   33.5753   48.6231 H   0  0  0  0  0  0  0  0  0  0  0  0
   63.1614   34.8476   47.0446 H   0  0  0  0  0  0  0  0  0  0  0  0
   64.7483   32.7020   46.6695 H   0  0  0  0  0  0  0  0  0  0  0  0
   63.3102   30.5710   47.4754 H   0  0  0  0  0  0  0  0  0  0  0  0
   61.0040   31.4650   48.2920 H   0  0  0  0  0  0  0  0  0  0  0  0
   59.9944   32.0257   46.4652 H   0  0  0  0  0  0  0  0  0  0  0  0
   59.6041   28.2687   46.4797 H   0  0  0  0  0  0  0  0  0  0  0  0
   60.8782   29.4663   46.0294 H   0  0  0  0  0  0  0  0  0  0  0  0
   59.0303   29.9585   49.7573 H   0  0  0  0  0  0  0  0  0  0  0  0
   58.6180   31.0190   48.3673 H   0  0  0  0  0  0  0  0  0  0  0  0
   58.1039   29.2979   48.3673 H   0  0  0  0  0  0  0  0  0  0  0  0
   60.6736   28.5938   49.7740 H   0  0  0  0  0  0  0  0  0  0  0  0
   60.1924   27.5479   48.3952 H   0  0  0  0  0  0  0  0  0  0  0  0
   61.7990   28.3512   48.3952 H   0  0  0  0  0  0  0  0  0  0  0  0
  1  2  1  0
  2  3  2  0
  3  4  1  0
  4  5  2  0
  5  6  1  0
  6  7  1  0
  7  8  1  0
  8  9  1  0
  9 10  1  0
 10 11  1  0
 11 12  2  0
 12 13  1  0
 13 14  2  0
  5 15  1  0
 15 16  2  0
 16 17  1  0
 17 18  1  0
 18 19  1  0
 18 20  1  0
 16  2  1  0
 14 10  1  0
  1 21  1  0
  1 22  1  0
  1 23  1  0
  4 24  1  0
  6 25  1  0
  6 26  1  0
  7 27  1  0
  8 28  1  0
  8 29  1  0
  9 30  1  0
  9 31  1  0
 11 32  1  0
 12 33  1  0
 13 34  1  0
 14 35  1  0
 15 36  1  0
 17 37  1  0
 17 38  1  0
 19 39  1  0
 19 40  1  0
 19 41  1  0
 20 42  1  0
 20 43  1  0
 20 44  1  0
M  CHG  1  14   1
M  END
>  <UniqueID>  (79) 
74

>  <SMILES>  (79) 
Cc1ncc(CNCCn2ccc[nH+]2)cc1CN(C)C

>  <Energy>  (79) 
69.17126134257174

>  <Genealogy>  (79) 
Cc1ncc(CNCCn2ccc[nH+]2)cc1CN(C)C (protonated)
Cc1ncc(CNCCn2ccc[nH+]2)cc1CN(C)C (3D coordinates assigned)
Cc1ncc(CNCCn2ccc[nH+]2)cc1CN(C)C (optimized conformer: 69.17126134257174 kcal/mol)

>  <smiles>  (79) 
Cc1ncc(CNCCn2cccn2)cc1CN(C)C

>  <score_type>  (79) 
oracle

>  <origin>  (79) 
adg

>  <m_score__min__energy>  (79) 
-4.4299999999999997

>  <m_primary>  (79) 
energy

$$$$
79:0
     RDKit          3D

 35 36  0  0  0  0  0  0  0  0999 V2000
   60.3560   30.4440   45.9860 N   0  0  0  0  0  0  0  0  0  0  0  0
   59.3500   29.6760   46.6480 C   0  0  0  0  0  0  0  0  0  0  0  0
   58.4800   30.2540   47.4180 N   0  0  0  0  0  0  0  0  0  0  0  0
   59.2980   27.8960   46.4130 S   0  0  0  0  0  0  0  0  0  0  0  0
   58.1950   27.9600   44.9550 C   0  0  0  0  0  0  0  0  0  0  0  0
   56.8660   28.5840   45.2820 C   0  0  0  0  0  0  0  0  0  0  0  0
   55.8990   27.8370   45.5820 O   0  0  0  0  0  0  0  0  0  0  0  0
   56.6540   30.0010   45.2370 N   0  0  0  0  0  0  0  0  0  0  0  0
   56.9850   30.8640   44.1440 C   0  0  0  0  0  0  0  0  0  0  0  0
   56.6460   30.5640   42.5230 S   0  0  0  0  0  0  0  0  0  0  0  0
   57.3980   31.9400   41.9230 C   0  0  0  0  0  0  0  0  0  0  0  0
   57.9360   32.6470   42.9920 C   0  0  0  0  0  0  0  0  0  0  0  0
   57.7160   32.0440   44.2440 C   0  0  0  0  0  0  0  0  0  0  0  0
   58.1600   32.6440   45.5170 C   0  0  0  0  0  0  0  0  0  0  0  0
   57.4370   32.5590   46.5450 O   0  0  0  0  0  0  0  0  0  0  0  0
   59.4230   33.3200   45.5750 N   0  0  0  0  0  0  0  0  0  0  0  0
   60.1790   33.6280   46.7570 C   0  0  0  0  0  0  0  0  0  0  0  0
   61.5820   33.5120   46.8010 C   0  0  0  0  0  0  0  0  0  0  0  0
   62.2720   33.7610   47.9910 C   0  0  0  0  0  0  0  0  0  0  0  0
   61.5690   34.1080   49.1500 C   0  0  0  0  0  0  0  0  0  0  0  0
   62.2390   34.3200   50.3100 F   0  0  0  0  0  0  0  0  0  0  0  0
   60.1760   34.2160   49.1160 C   0  0  0  0  0  0  0  0  0  0  0  0
   59.4850   33.9730   47.9240 C   0  0  0  0  0  0  0  0  0  0  0  0
   60.4060   31.4810   46.0970 H   0  0  0  0  0  0  0  0  0  0  0  0
   61.0680   29.9670   45.3930 H   0  0  0  0  0  0  0  0  0  0  0  0
   57.6340   30.7190   47.0220 H   0  0  0  0  0  0  0  0  0  0  0  0
   58.6020   30.2550   48.4530 H   0  0  0  0  0  0  0  0  0  0  0  0
   58.6818   28.5533   44.1670 H   0  0  0  0  0  0  0  0  0  0  0  0
   58.0132   26.9280   44.6204 H   0  0  0  0  0  0  0  0  0  0  0  0
   57.4552   32.2323   40.8641 H   0  0  0  0  0  0  0  0  0  0  0  0
   58.4844   33.5927   42.8701 H   0  0  0  0  0  0  0  0  0  0  0  0
   62.1368   33.2244   45.8957 H   0  0  0  0  0  0  0  0  0  0  0  0
   63.3690   33.6840   48.0163 H   0  0  0  0  0  0  0  0  0  0  0  0
   59.6231   34.4919   50.0261 H   0  0  0  0  0  0  0  0  0  0  0  0
   58.3881   34.0535   47.9030 H   0  0  0  0  0  0  0  0  0  0  0  0
  1  2  1  0
  2  3  2  0
  2  4  1  0
  4  5  1  0
  5  6  1  0
  6  7  2  0
  6  8  1  0
  8  9  1  0
  9 10  1  0
 10 11  1  0
 11 12  2  0
 12 13  1  0
 13 14  1  0
 14 15  2  0
 14 16  1  0
 16 17  1  0
 17 18  2  0
 18 19  1  0
 19 20  2  0
 20 21  1  0
 20 22  1  0
 22 23  2  0
 13  9  2  0
 23 17  1  0
  1 24  1  0
  1 25  1  0
  3 26  1  0
  3 27  1  0
  5 28  1  0
  5 29  1  0
 11 30  1  0
 12 31  1  0
 18 32  1  0
 19 33  1  0
 22 34  1  0
 23 35  1  0
M  CHG  3   3   1   8  -1  16  -1
M  END
>  <UniqueID>  (80) 
75

>  <SMILES>  (80) 
NC(=[NH2+])SCC(=O)[N-]c1sccc1C(=O)[N-]c1ccc(F)cc1

>  <Energy>  (80) 
62.9015559437595

>  <Genealogy>  (80) 
NC(=[NH2+])SCC(=O)[N-]c1sccc1C(=O)[N-]c1ccc(F)cc1 (protonated)
NC(=[NH2+])SCC(=O)[N-]c1sccc1C(=O)[N-]c1ccc(F)cc1 (3D coordinates assigned)
NC(=[NH2+])SCC(=O)[N-]c1sccc1C(=O)[N-]c1ccc(F)cc1 (optimized conformer: 62.9015559437595 kcal/mol)

>  <smiles>  (80) 
N=C(N)SCC(=O)Nc1sccc1C(=O)Nc1ccc(F)cc1

>  <score_type>  (80) 
oracle

>  <origin>  (80) 
adg

>  <m_score__min__energy>  (80) 
-10.09

>  <m_primary>  (80) 
energy

$$$$
80:0
     RDKit          3D

 40 43  0  0  0  0  0  0  0  0999 V2000
   56.3680   22.0680   46.8510 H   0  0  0  0  0  0  0  0  0  0  0  0
   57.2300   22.6000   46.8640 O   0  0  0  0  0  0  0  0  0  0  0  0
   57.2380   23.9770   46.6520 C   0  0  0  0  0  0  0  0  0  0  0  0
   56.0170   24.6530   46.4330 C   0  0  0  0  0  0  0  0  0  0  0  0
   55.0731   24.0882   46.4316 H   0  0  0  0  0  0  0  0  0  0  0  0
   55.9990   26.0410   46.2170 C   0  0  0  0  0  0  0  0  0  0  0  0
   54.8010   26.7120   45.9970 O   0  0  0  0  0  0  0  0  0  0  0  0
   57.2140   26.7230   46.2310 C   0  0  0  0  0  0  0  0  0  0  0  0
   58.4100   26.0690   46.4420 C   0  0  0  0  0  0  0  0  0  0  0  0
   58.4530   24.6930   46.6570 C   0  0  0  0  0  0  0  0  0  0  0  0
   59.4103   24.1783   46.8263 H   0  0  0  0  0  0  0  0  0  0  0  0
   59.4940   26.9430   46.4040 O   0  0  0  0  0  0  0  0  0  0  0  0
   58.9890   28.2240   46.1690 C   0  0  0  0  0  0  0  0  0  0  0  0
   59.7680   29.3060   46.0680 C   0  0  0  0  0  0  0  0  0  0  0  0
   60.8442   29.1898   46.2639 H   0  0  0  0  0  0  0  0  0  0  0  0
   59.2690   30.6430   45.7100 C   0  0  0  0  0  0  0  0  0  0  0  0
   58.6920   30.9950   44.4960 C   0  0  0  0  0  0  0  0  0  0  0  0
   58.4846   30.2967   43.6718 H   0  0  0  0  0  0  0  0  0  0  0  0
   58.4220   32.3210   44.4740 N   0  0  0  0  0  0  0  0  0  0  0  0
   57.7640   33.0450   43.3860 C   0  0  0  0  0  0  0  0  0  0  0  0
   58.4467   33.8138   42.9949 H   0  0  0  0  0  0  0  0  0  0  0  0
   56.8485   33.5190   43.7697 H   0  0  0  0  0  0  0  0  0  0  0  0
   57.4000   32.0920   42.2790 C   0  0  0  0  0  0  0  0  0  0  0  0
   56.7900   31.0680   42.5460 O   0  0  0  0  0  0  0  0  0  0  0  0
   57.7710   32.3710   40.8530 C   0  0  0  0  0  0  0  0  0  0  0  0
   58.6499   33.0319   40.8254 H   0  0  0  0  0  0  0  0  0  0  0  0
   58.0074   31.4250   40.3438 H   0  0  0  0  0  0  0  0  0  0  0  0
   56.9278   32.8607   40.3438 H   0  0  0  0  0  0  0  0  0  0  0  0
   58.8360   32.8150   45.6600 C   0  0  0  0  0  0  0  0  0  0  0  0
   58.7900   34.1400   46.1070 C   0  0  0  0  0  0  0  0  0  0  0  0
   58.3461   34.9326   45.4868 H   0  0  0  0  0  0  0  0  0  0  0  0
   59.3290   34.4270   47.3740 C   0  0  0  0  0  0  0  0  0  0  0  0
   59.3020   35.4576   47.7576 H   0  0  0  0  0  0  0  0  0  0  0  0
   59.9040   33.4040   48.1570 C   0  0  0  0  0  0  0  0  0  0  0  0
   60.3278   33.6438   49.1434 H   0  0  0  0  0  0  0  0  0  0  0  0
   59.9390   32.0800   47.6850 C   0  0  0  0  0  0  0  0  0  0  0  0
   60.3962   31.2768   48.2816 H   0  0  0  0  0  0  0  0  0  0  0  0
   59.3750   31.8170   46.4350 C   0  0  0  0  0  0  0  0  0  0  0  0
   57.5290   28.1270   46.0340 C   0  0  0  0  0  0  0  0  0  0  0  0
   56.7190   29.0390   45.7240 O   0  0  0  0  0  0  0  0  0  0  0  0
  1  2  1  0
  2  3  1  0
  3  4  2  0
  4  5  1  0
  4  6  1  0
  6  7  1  0
  6  8  2  0
  8  9  1  0
  9 10  2  0
 10 11  1  0
  9 12  1  0
 12 13  1  0
 13 14  2  0
 14 15  1  0
 14 16  1  0
 16 17  2  0
 17 18  1  0
 17 19  1  0
 19 20  1  0
 20 21  1  0
 20 22  1  0
 20 23  1  0
 23 24  2  0
 23 25  1  0
 25 26  1  0
 25 27  1  0
 25 28  1  0
 19 29  1  0
 29 30  2  0
 30 31  1  0
 30 32  1  0
 32 33  1  0
 32 34  2  0
 34 35  1  0
 34 36  1  0
 36 37  1  0
 36 38  2  0
 13 39  1  0
 39 40  2  0
 10  3  1  0
 38 16  1  0
 39  8  1  0
 38 29  1  0
M  CHG  1   7  -1
M  END
>  <UniqueID>  (81) 
76

>  <SMILES>  (81) 
CC(=O)Cn1cc(/C=C2/Oc3cc(O)cc([O-])c3C2=O)c2ccccc21

>  <Energy>  (81) 
111.48359954887366

>  <Genealogy>  (81) 
CC(=O)Cn1cc(C=C2Oc3cc(O)cc([O-])c3C2=O)c2ccccc21 (protonated)
CC(=O)Cn1cc(/C=C2/Oc3cc(O)cc([O-])c3C2=O)c2ccccc21 (cis-trans isomerization)
CC(=O)Cn1cc(/C=C2/Oc3cc(O)cc([O-])c3C2=O)c2ccccc21 (3D coordinates assigned)
CC(=O)Cn1cc(/C=C2/Oc3cc(O)cc([O-])c3C2=O)c2ccccc21 (nonaromatic ring conformer: 111.48359954887366 kcal/mol)

>  <smiles>  (81) 
CC(=O)Cn1cc(C=C2Oc3cc(O)cc(O)c3C2=O)c2ccccc21

>  <score_type>  (81) 
oracle

>  <origin>  (81) 
adg

>  <m_score__min__energy>  (81) 
-12.23

>  <m_primary>  (81) 
energy

$$$$
81:0
     RDKit          3D

 42 44  0  0  0  0  0  0  0  0999 V2000
   59.6480   33.4500   49.7570 C   0  0  0  0  0  0  0  0  0  0  0  0
   59.4010   33.6450   48.3330 N   0  0  0  0  0  0  0  0  0  0  0  0
   59.9320   34.6120   47.5620 C   0  0  0  0  0  0  0  0  0  0  0  0
   59.3900   34.5500   46.2940 C   0  0  0  0  0  0  0  0  0  0  0  0
   58.4850   33.4990   46.3070 C   0  0  0  0  0  0  0  0  0  0  0  0
   57.5960   33.0570   45.2100 C   0  0  0  0  0  0  0  0  0  0  0  0
   57.0240   33.9350   44.5100 O   0  0  0  0  0  0  0  0  0  0  0  0
   57.3470   31.6250   44.9190 C   0  0  0  0  0  0  0  0  0  0  0  0
   58.4140   30.7130   44.8450 C   0  0  0  0  0  0  0  0  0  0  0  0
   58.1570   29.3560   44.5580 C   0  0  0  0  0  0  0  0  0  0  0  0
   59.0990   28.4570   44.4850 N   0  0  0  0  0  0  0  0  0  0  0  0
   60.2490   28.3150   45.3320 C   0  0  0  0  0  0  0  0  0  0  0  0
   61.3820   28.6200   44.8740 O   0  0  0  0  0  0  0  0  0  0  0  0
   60.1480   27.7240   46.7140 C   0  0  0  0  0  0  0  0  0  0  0  0
   58.7780   27.9500   47.2960 C   0  0  0  0  0  0  0  0  0  0  0  0
   58.4700   29.1190   47.6530 O   0  0  0  0  0  0  0  0  0  0  0  0
   57.7910   26.9130   47.4540 N   0  0  0  0  0  0  0  0  0  0  0  0
   57.2780   26.1110   46.5630 C   0  0  0  0  0  0  0  0  0  0  0  0
   58.1290   25.4950   45.6370 C   0  0  0  0  0  0  0  0  0  0  0  0
   57.5940   24.6410   44.6690 C   0  0  0  0  0  0  0  0  0  0  0  0
   56.2170   24.4100   44.6330 C   0  0  0  0  0  0  0  0  0  0  0  0
   55.5270   23.3390   43.4270 Cl  0  0  0  0  0  0  0  0  0  0  0  0
   55.3940   25.0460   45.5660 C   0  0  0  0  0  0  0  0  0  0  0  0
   55.9380   25.8740   46.4970 N   0  0  0  0  0  0  0  0  0  0  0  0
   56.8400   28.9590   44.3030 C   0  0  0  0  0  0  0  0  0  0  0  0
   55.8070   29.8940   44.3770 C   0  0  0  0  0  0  0  0  0  0  0  0
   56.0810   31.1900   44.6790 N   0  0  0  0  0  0  0  0  0  0  0  0
   58.5030   32.9740   47.5870 C   0  0  0  0  0  0  0  0  0  0  0  0
   58.9153   34.0285   50.3388 H   0  0  0  0  0  0  0  0  0  0  0  0
   59.5510   32.3823   50.0031 H   0  0  0  0  0  0  0  0  0  0  0  0
   60.6640   33.7922   50.0031 H   0  0  0  0  0  0  0  0  0  0  0  0
   60.6851   35.3423   47.8928 H   0  0  0  0  0  0  0  0  0  0  0  0
   59.6285   35.2042   45.4424 H   0  0  0  0  0  0  0  0  0  0  0  0
   59.4459   31.0563   45.0103 H   0  0  0  0  0  0  0  0  0  0  0  0
   60.3418   26.6426   46.6583 H   0  0  0  0  0  0  0  0  0  0  0  0
   60.8901   28.2144   47.3611 H   0  0  0  0  0  0  0  0  0  0  0  0
   59.2124   25.6823   45.6715 H   0  0  0  0  0  0  0  0  0  0  0  0
   58.2550   24.1524   43.9380 H   0  0  0  0  0  0  0  0  0  0  0  0
   54.3072   24.8770   45.5473 H   0  0  0  0  0  0  0  0  0  0  0  0
   56.6195   27.9127   44.0449 H   0  0  0  0  0  0  0  0  0  0  0  0
   54.7690   29.5813   44.1905 H   0  0  0  0  0  0  0  0  0  0  0  0
   57.8807   32.1386   47.9402 H   0  0  0  0  0  0  0  0  0  0  0  0
  1  2  1  0
  2  3  1  0
  3  4  2  0
  4  5  1  0
  5  6  1  0
  6  7  2  0
  6  8  1  0
  8  9  2  0
  9 10  1  0
 10 11  2  3
 11 12  1  0
 12 13  2  0
 12 14  1  0
 14 15  1  0
 15 16  2  0
 15 17  1  0
 17 18  2  3
 18 19  1  0
 19 20  2  0
 20 21  1  0
 21 22  1  0
 21 23  2  0
 23 24  1  0
 10 25  1  0
 25 26  2  0
 26 27  1  0
  5 28  2  0
 28  2  1  0
 27  8  1  0
 24 18  1  0
  1 29  1  0
  1 30  1  0
  1 31  1  0
  3 32  1  0
  4 33  1  0
  9 34  1  0
 14 35  1  0
 14 36  1  0
 19 37  1  0
 20 38  1  0
 23 39  1  0
 25 40  1  0
 26 41  1  0
 28 42  1  0
M  CHG  2  24  -1  27  -1
M  END
>  <UniqueID>  (82) 
77

>  <SMILES>  (82) 
Cn1ccc(C(=O)c2cc(=NC(=O)CC(=O)N=c3ccc(Cl)c[n-]3)cc[n-]2)c1

>  <Energy>  (82) 
84.87166946528342

>  <Genealogy>  (82) 
Cn1ccc(C(=O)c2cc(=NC(=O)CC(=O)N=c3ccc(Cl)c[n-]3)cc[n-]2)c1 (protonated)
Cn1ccc(C(=O)c2cc(=NC(=O)CC(=O)N=c3ccc(Cl)c[n-]3)cc[n-]2)c1 (3D coordinates assigned)
Cn1ccc(C(=O)c2cc(=NC(=O)CC(=O)N=c3ccc(Cl)c[n-]3)cc[n-]2)c1 (optimized conformer: 84.87166946528342 kcal/mol)

>  <smiles>  (82) 
Cn1ccc(C(=O)c2cc(=NC(=O)CC(=O)N=c3ccc(Cl)c[nH]3)cc[nH]2)c1

>  <score_type>  (82) 
oracle

>  <origin>  (82) 
adg

>  <m_score__min__energy>  (82) 
-11.970000000000001

>  <m_primary>  (82) 
energy

$$$$
82:0
     RDKit          3D

 38 40  0  0  0  0  0  0  0  0999 V2000
   52.1270   21.9590   46.1620 C   0  0  0  0  0  0  0  0  0  0  0  0
   53.3950   22.7170   45.9550 C   0  0  0  0  0  0  0  0  0  0  0  0
   54.6200   22.1750   46.2240 N   0  0  0  0  0  0  0  0  0  0  0  0
   55.4190   23.2160   45.9640 C   0  0  0  0  0  0  0  0  0  0  0  0
   56.6010   23.6180   46.5380 C   0  0  0  0  0  0  0  0  0  0  0  0
   57.5520   22.7620   47.0910 O   0  0  0  0  0  0  0  0  0  0  0  0
   56.6410   24.9840   46.5470 N   0  0  0  0  0  0  0  0  0  0  0  0
   57.6680   25.8550   47.1300 C   0  0  0  0  0  0  0  0  0  0  0  0
   58.9470   25.7990   46.3350 C   0  0  0  0  0  0  0  0  0  0  0  0
   59.5620   24.7050   46.2450 O   0  0  0  0  0  0  0  0  0  0  0  0
   59.4750   26.9420   45.6480 N   0  0  0  0  0  0  0  0  0  0  0  0
   58.6970   28.0560   45.1920 C   0  0  0  0  0  0  0  0  0  0  0  0
   58.0330   28.0120   43.9430 C   0  0  0  0  0  0  0  0  0  0  0  0
   58.1030   26.8050   43.0440 C   0  0  0  0  0  0  0  0  0  0  0  0
   57.2970   29.1260   43.5130 C   0  0  0  0  0  0  0  0  0  0  0  0
   57.1750   30.2500   44.3290 C   0  0  0  0  0  0  0  0  0  0  0  0
   57.7790   30.2760   45.5850 C   0  0  0  0  0  0  0  0  0  0  0  0
   58.5430   29.1860   46.0280 C   0  0  0  0  0  0  0  0  0  0  0  0
   59.1350   29.2170   47.4110 C   0  0  0  0  0  0  0  0  0  0  0  0
   55.4530   25.3970   46.0250 C   0  0  0  0  0  0  0  0  0  0  0  0
   55.0160   26.7160   45.9930 O   0  0  0  0  0  0  0  0  0  0  0  0
   54.7210   24.2960   45.6500 C   0  0  0  0  0  0  0  0  0  0  0  0
   53.4060   24.0560   45.6810 N   0  0  0  0  0  0  0  0  0  0  0  0
   51.9388   21.8465   47.2399 H   0  0  0  0  0  0  0  0  0  0  0  0
   51.2927   22.5067   45.6993 H   0  0  0  0  0  0  0  0  0  0  0  0
   52.2144   20.9649   45.6993 H   0  0  0  0  0  0  0  0  0  0  0  0
   58.5360   22.9860   47.1190 H   0  0  0  0  0  0  0  0  0  0  0  0
   57.2968   26.8904   47.1396 H   0  0  0  0  0  0  0  0  0  0  0  0
   57.8785   25.5084   48.1525 H   0  0  0  0  0  0  0  0  0  0  0  0
   58.1559   25.8935   43.6574 H   0  0  0  0  0  0  0  0  0  0  0  0
   57.2055   26.7681   42.4091 H   0  0  0  0  0  0  0  0  0  0  0  0
   58.9988   26.8721   42.4091 H   0  0  0  0  0  0  0  0  0  0  0  0
   56.8128   29.1128   42.5254 H   0  0  0  0  0  0  0  0  0  0  0  0
   56.5995   31.1201   43.9800 H   0  0  0  0  0  0  0  0  0  0  0  0
   57.6558   31.1565   46.2327 H   0  0  0  0  0  0  0  0  0  0  0  0
   58.3273   29.1747   48.1566 H   0  0  0  0  0  0  0  0  0  0  0  0
   59.8022   28.3526   47.5437 H   0  0  0  0  0  0  0  0  0  0  0  0
   59.7082   30.1464   47.5437 H   0  0  0  0  0  0  0  0  0  0  0  0
  1  2  1  0
  2  3  2  0
  3  4  1  0
  4  5  2  0
  5  6  1  0
  5  7  1  0
  7  8  1  0
  8  9  1  0
  9 10  2  0
  9 11  1  0
 11 12  1  0
 12 13  2  0
 13 14  1  0
 13 15  1  0
 15 16  2  0
 16 17  1  0
 17 18  2  0
 18 19  1  0
  7 20  1  0
 20 21  1  0
 20 22  2  0
 22 23  1  0
 23  2  1  0
 22  4  1  0
 18 12  1  0
  1 24  1  0
  1 25  1  0
  1 26  1  0
  6 27  1  0
  8 28  1  0
  8 29  1  0
 14 30  1  0
 14 31  1  0
 14 32  1  0
 15 33  1  0
 16 34  1  0
 17 35  1  0
 19 36  1  0
 19 37  1  0
 19 38  1  0
M  CHG  3  11  -1  21  -1  23  -1
M  END
>  <UniqueID>  (83) 
78

>  <SMILES>  (83) 
Cc1nc2c(O)n(CC(=O)[N-]c3c(C)cccc3C)c([O-])c2[n-]1

>  <Energy>  (83) 
132.48840052508692

>  <Genealogy>  (83) 
Cc1nc2c(O)n(CC(=O)[N-]c3c(C)cccc3C)c([O-])c2[n-]1 (protonated)
Cc1nc2c(O)n(CC(=O)[N-]c3c(C)cccc3C)c([O-])c2[n-]1 (3D coordinates assigned)
Cc1nc2c(O)n(CC(=O)[N-]c3c(C)cccc3C)c([O-])c2[n-]1 (optimized conformer: 132.48840052508692 kcal/mol)

>  <smiles>  (83) 
Cc1nc2c(O)n(CC(=O)Nc3c(C)cccc3C)c(O)c2[nH]1

>  <score_type>  (83) 
oracle

>  <origin>  (83) 
adg

>  <m_score__min__energy>  (83) 
-13.619999999999999

>  <m_primary>  (83) 
energy

$$$$
83:0
     RDKit          3D

 26 27  0  0  0  0  0  0  0  0999 V2000
   57.8760   21.5070   43.5320 C   0  0  0  0  0  0  0  0  0  0  0  0
   58.1630   21.2770   44.9490 N   0  0  0  0  0  0  0  0  0  0  0  0
   59.3030   22.0500   45.3490 C   0  0  0  0  0  0  0  0  0  0  0  0
   60.3950   21.4750   45.6050 O   0  0  0  0  0  0  0  0  0  0  0  0
   59.1840   23.4680   45.4930 N   0  0  0  0  0  0  0  0  0  0  0  0
   57.7670   24.2190   46.1460 S   0  0  0  0  0  0  0  0  0  0  0  0
   57.7560   24.0240   47.6370 O   0  0  0  0  0  0  0  0  0  0  0  0
   56.5480   23.5710   45.5540 O   0  0  0  0  0  0  0  0  0  0  0  0
   57.7580   25.9340   45.7480 C   0  0  0  0  0  0  0  0  0  0  0  0
   58.9790   26.6400   45.6090 C   0  0  0  0  0  0  0  0  0  0  0  0
   58.9790   28.0100   45.2930 C   0  0  0  0  0  0  0  0  0  0  0  0
   57.7470   28.6370   45.1250 C   0  0  0  0  0  0  0  0  0  0  0  0
   57.5150   29.9230   44.8240 N   0  0  0  0  0  0  0  0  0  0  0  0
   56.1580   29.9650   44.7920 C   0  0  0  0  0  0  0  0  0  0  0  0
   55.5230   31.0200   44.5370 O   0  0  0  0  0  0  0  0  0  0  0  0
   55.5350   28.7880   45.0550 N   0  0  0  0  0  0  0  0  0  0  0  0
   56.5720   27.9630   45.2620 C   0  0  0  0  0  0  0  0  0  0  0  0
   56.5310   26.6060   45.5760 C   0  0  0  0  0  0  0  0  0  0  0  0
   57.0208   22.1924   43.4376 H   0  0  0  0  0  0  0  0  0  0  0  0
   58.7574   21.9516   43.0468 H   0  0  0  0  0  0  0  0  0  0  0  0
   57.6341   20.5499   43.0468 H   0  0  0  0  0  0  0  0  0  0  0  0
   57.3310   21.5530   45.5210 H   0  0  0  0  0  0  0  0  0  0  0  0
   58.3590   20.2610   45.1030 H   0  0  0  0  0  0  0  0  0  0  0  0
   59.9338   26.1122   45.7494 H   0  0  0  0  0  0  0  0  0  0  0  0
   59.9206   28.5678   45.1822 H   0  0  0  0  0  0  0  0  0  0  0  0
   55.5729   26.0768   45.6860 H   0  0  0  0  0  0  0  0  0  0  0  0
  1  2  1  0
  2  3  1  0
  3  4  2  0
  3  5  1  0
  5  6  1  0
  6  7  2  0
  6  8  2  0
  6  9  1  0
  9 10  2  0
 10 11  1  0
 11 12  2  0
 12 13  1  0
 13 14  1  0
 14 15  2  0
 14 16  1  0
 16 17  1  0
 17 18  2  0
 18  9  1  0
 17 12  1  0
  1 19  1  0
  1 20  1  0
  1 21  1  0
  2 22  1  0
  2 23  1  0
 10 24  1  0
 11 25  1  0
 18 26  1  0
M  CHG  4   2   1   5  -1  13  -1  16  -1
M  END
>  <UniqueID>  (84) 
79

>  <SMILES>  (84) 
C[NH2+]C(=O)[N-]S(=O)(=O)c1ccc2[n-]c(=O)[n-]c2c1

>  <Energy>  (84) 
62.05385319035547

>  <Genealogy>  (84) 
C[NH2+]C(=O)[N-]S(=O)(=O)c1ccc2[n-]c(=O)[n-]c2c1 (protonated)
C[NH2+]C(=O)[N-]S(=O)(=O)c1ccc2[n-]c(=O)[n-]c2c1 (3D coordinates assigned)
C[NH2+]C(=O)[N-]S(=O)(=O)c1ccc2[n-]c(=O)[n-]c2c1 (optimized conformer: 62.05385319035547 kcal/mol)

>  <smiles>  (84) 
CNC(=O)NS(=O)(=O)c1ccc2[nH]c(=O)[nH]c2c1

>  <score_type>  (84) 
oracle

>  <origin>  (84) 
adg

>  <m_score__min__energy>  (84) 
-10.24

>  <m_primary>  (84) 
energy

$$$$
84:0
     RDKit          3D

 34 36  0  0  0  0  0  0  0  0999 V2000
   61.3660   33.8250   51.0100 O   0  0  0  0  0  0  0  0  0  0  0  0
   60.9400   33.8980   49.8300 C   0  0  0  0  0  0  0  0  0  0  0  0
   59.6260   34.1050   49.5630 N   0  0  0  0  0  0  0  0  0  0  0  0
   59.1690   34.1840   48.3440 N   0  0  0  0  0  0  0  0  0  0  0  0
   59.9530   34.0680   47.2260 C   0  0  0  0  0  0  0  0  0  0  0  0
   59.3300   34.2140   45.9030 C   0  0  0  0  0  0  0  0  0  0  0  0
   58.6030   33.0340   45.4140 C   0  0  0  0  0  0  0  0  0  0  0  0
   58.6930   31.8750   46.1950 C   0  0  0  0  0  0  0  0  0  0  0  0
   58.0650   30.7050   45.8180 C   0  0  0  0  0  0  0  0  0  0  0  0
   57.3130   30.6240   44.6480 C   0  0  0  0  0  0  0  0  0  0  0  0
   56.6300   29.3880   44.2240 C   0  0  0  0  0  0  0  0  0  0  0  0
   55.4880   29.1250   44.9780 O   0  0  0  0  0  0  0  0  0  0  0  0
   57.2250   31.7810   43.8720 C   0  0  0  0  0  0  0  0  0  0  0  0
   57.8640   32.9370   44.2720 C   0  0  0  0  0  0  0  0  0  0  0  0
   61.2870   33.8560   47.4690 C   0  0  0  0  0  0  0  0  0  0  0  0
   62.1490   33.7140   46.4360 C   0  0  0  0  0  0  0  0  0  0  0  0
   63.4880   33.4930   46.6350 C   0  0  0  0  0  0  0  0  0  0  0  0
   64.0240   33.4030   47.9020 C   0  0  0  0  0  0  0  0  0  0  0  0
   63.1600   33.5440   48.9680 C   0  0  0  0  0  0  0  0  0  0  0  0
   61.8120   33.7660   48.7610 C   0  0  0  0  0  0  0  0  0  0  0  0
   58.9840   34.2010   50.3940 H   0  0  0  0  0  0  0  0  0  0  0  0
   58.6204   35.0530   45.9530 H   0  0  0  0  0  0  0  0  0  0  0  0
   60.1566   34.3751   45.1953 H   0  0  0  0  0  0  0  0  0  0  0  0
   59.2759   31.8975   47.1276 H   0  0  0  0  0  0  0  0  0  0  0  0
   58.1606   29.8148   46.4570 H   0  0  0  0  0  0  0  0  0  0  0  0
   56.3400   29.4895   43.1678 H   0  0  0  0  0  0  0  0  0  0  0  0
   57.3289   28.5516   44.3723 H   0  0  0  0  0  0  0  0  0  0  0  0
   55.1530   28.1990   44.8870 H   0  0  0  0  0  0  0  0  0  0  0  0
   56.6440   31.7713   42.9380 H   0  0  0  0  0  0  0  0  0  0  0  0
   57.7722   33.8289   43.6348 H   0  0  0  0  0  0  0  0  0  0  0  0
   61.7651   33.7776   45.4071 H   0  0  0  0  0  0  0  0  0  0  0  0
   64.1498   33.3850   45.7630 H   0  0  0  0  0  0  0  0  0  0  0  0
   65.0985   33.2257   48.0568 H   0  0  0  0  0  0  0  0  0  0  0  0
   63.5487   33.4789   49.9950 H   0  0  0  0  0  0  0  0  0  0  0  0
  1  2  2  0
  2  3  1  0
  3  4  1  0
  4  5  2  0
  5  6  1  0
  6  7  1  0
  7  8  2  0
  8  9  1  0
  9 10  2  0
 10 11  1  0
 11 12  1  0
 10 13  1  0
 13 14  2  0
  5 15  1  0
 15 16  2  0
 16 17  1  0
 17 18  2  0
 18 19  1  0
 19 20  2  0
 20  2  1  0
 14  7  1  0
 20 15  1  0
  3 21  1  0
  6 22  1  0
  6 23  1  0
  8 24  1  0
  9 25  1  0
 11 26  1  0
 11 27  1  0
 12 28  1  0
 13 29  1  0
 14 30  1  0
 16 31  1  0
 17 32  1  0
 18 33  1  0
 19 34  1  0
M  END
>  <smiles>  (85) 
O=c1[nH]nc(Cc2ccc(CO)cc2)c2ccccc12

>  <score_type>  (85) 
oracle

>  <origin>  (85) 
adg

>  <m_score__min__energy>  (85) 
-8.4399999999999995

>  <m_primary>  (85) 
energy

$$$$
85:0
     RDKit          3D

 61 65  0  0  0  0  0  0  0  0999 V2000
   55.9300   29.6030   43.1920 O   0  0  0  0  0  0  0  0  0  0  0  0
   56.8950   29.7170   43.9930 C   0  0  0  0  0  0  0  0  0  0  0  0
   58.1400   28.8920   43.7510 C   0  0  0  0  0  0  0  0  0  0  0  0
   58.3120   27.8160   44.7630 N   0  0  0  0  0  0  0  0  0  0  0  0
   57.8700   26.5430   44.4730 C   0  0  0  0  0  0  0  0  0  0  0  0
   57.4500   26.2730   43.3120 O   0  0  0  0  0  0  0  0  0  0  0  0
   57.8670   25.5600   45.4310 N   0  0  0  0  0  0  0  0  0  0  0  0
   57.3340   24.2200   45.1100 C   0  0  0  0  0  0  0  0  0  0  0  0
   55.8390   24.2540   45.0850 C   0  0  0  0  0  0  0  0  0  0  0  0
   55.0280   23.4940   44.2670 C   0  0  0  0  0  0  0  0  0  0  0  0
   53.7370   23.8290   44.6130 C   0  0  0  0  0  0  0  0  0  0  0  0
   53.8410   24.7670   45.6210 C   0  0  0  0  0  0  0  0  0  0  0  0
   55.1080   24.9970   45.8820 O   0  0  0  0  0  0  0  0  0  0  0  0
   58.3890   25.8020   46.6710 C   0  0  0  0  0  0  0  0  0  0  0  0
   58.4050   24.8870   47.5420 O   0  0  0  0  0  0  0  0  0  0  0  0
   58.9220   27.0600   46.9770 C   0  0  0  0  0  0  0  0  0  0  0  0
   59.4780   27.3240   48.2450 C   0  0  0  0  0  0  0  0  0  0  0  0
   60.0250   28.5720   48.5300 C   0  0  0  0  0  0  0  0  0  0  0  0
   60.0350   29.5660   47.5580 C   0  0  0  0  0  0  0  0  0  0  0  0
   59.4830   29.3240   46.2990 C   0  0  0  0  0  0  0  0  0  0  0  0
   58.8950   28.0720   45.9880 C   0  0  0  0  0  0  0  0  0  0  0  0
   56.7730   30.6390   45.0850 N   0  0  0  0  0  0  0  0  0  0  0  0
   57.6070   31.7820   45.2890 C   0  0  0  0  0  0  0  0  0  0  0  0
   58.1440   32.0150   46.5590 C   0  0  0  0  0  0  0  0  0  0  0  0
   58.9210   33.1570   46.8030 C   0  0  0  0  0  0  0  0  0  0  0  0
   59.5430   33.4770   48.4240 S   0  0  0  0  0  0  0  0  0  0  0  0
   59.4880   34.9550   48.6930 O   0  0  0  0  0  0  0  0  0  0  0  0
   58.6680   32.7880   49.4350 O   0  0  0  0  0  0  0  0  0  0  0  0
   61.1870   32.9100   48.6080 N   0  0  0  0  0  0  0  0  0  0  0  0
   62.0060   33.9220   49.3010 C   0  0  0  0  0  0  0  0  0  0  0  0
   63.5010   33.6940   49.0200 C   0  0  0  0  0  0  0  0  0  0  0  0
   63.8480   33.7750   47.6420 O   0  0  0  0  0  0  0  0  0  0  0  0
   62.7650   33.5140   46.7610 C   0  0  0  0  0  0  0  0  0  0  0  0
   61.7640   32.4830   47.3140 C   0  0  0  0  0  0  0  0  0  0  0  0
   59.1810   34.0510   45.7560 C   0  0  0  0  0  0  0  0  0  0  0  0
   58.6780   33.8020   44.4760 C   0  0  0  0  0  0  0  0  0  0  0  0
   57.8900   32.6680   44.2350 C   0  0  0  0  0  0  0  0  0  0  0  0
   57.3870   32.4190   42.9600 O   0  0  0  0  0  0  0  0  0  0  0  0
   58.0708   28.4319   42.7543 H   0  0  0  0  0  0  0  0  0  0  0  0
   59.0076   29.5641   43.8250 H   0  0  0  0  0  0  0  0  0  0  0  0
   57.7073   23.9066   44.1239 H   0  0  0  0  0  0  0  0  0  0  0  0
   57.6651   23.5070   45.8795 H   0  0  0  0  0  0  0  0  0  0  0  0
   55.3455   22.7724   43.4999 H   0  0  0  0  0  0  0  0  0  0  0  0
   52.8105   23.4298   44.1747 H   0  0  0  0  0  0  0  0  0  0  0  0
   52.9921   25.2485   46.1284 H   0  0  0  0  0  0  0  0  0  0  0  0
   59.4797   26.5383   49.0149 H   0  0  0  0  0  0  0  0  0  0  0  0
   60.4496   28.7718   49.5249 H   0  0  0  0  0  0  0  0  0  0  0  0
   60.4796   30.5469   47.7820 H   0  0  0  0  0  0  0  0  0  0  0  0
   59.5045   30.1167   45.5366 H   0  0  0  0  0  0  0  0  0  0  0  0
   57.9559   31.2981   47.3718 H   0  0  0  0  0  0  0  0  0  0  0  0
   61.7201   34.9232   48.9461 H   0  0  0  0  0  0  0  0  0  0  0  0
   61.8320   33.8379   50.3839 H   0  0  0  0  0  0  0  0  0  0  0  0
   64.0763   34.4553   49.5673 H   0  0  0  0  0  0  0  0  0  0  0  0
   63.7350   32.6706   49.3484 H   0  0  0  0  0  0  0  0  0  0  0  0
   62.2292   34.4570   46.5776 H   0  0  0  0  0  0  0  0  0  0  0  0
   63.1903   33.0923   45.8384 H   0  0  0  0  0  0  0  0  0  0  0  0
   60.9488   32.3540   46.5868 H   0  0  0  0  0  0  0  0  0  0  0  0
   62.3040   31.5388   47.4776 H   0  0  0  0  0  0  0  0  0  0  0  0
   59.7834   34.9524   45.9421 H   0  0  0  0  0  0  0  0  0  0  0  0
   58.9014   34.4986   43.6545 H   0  0  0  0  0  0  0  0  0  0  0  0
   56.8220   31.6020   42.7630 H   0  0  0  0  0  0  0  0  0  0  0  0
  1  2  2  0
  2  3  1  0
  3  4  1  0
  4  5  1  0
  5  6  2  0
  5  7  1  0
  7  8  1  0
  8  9  1  0
  9 10  2  0
 10 11  1  0
 11 12  2  0
 12 13  1  0
  7 14  1  0
 14 15  2  0
 14 16  1  0
 16 17  2  0
 17 18  1  0
 18 19  2  0
 19 20  1  0
 20 21  2  0
  2 22  1  0
 22 23  1  0
 23 24  2  0
 24 25  1  0
 25 26  1  0
 26 27  2  0
 26 28  2  0
 26 29  1  0
 29 30  1  0
 30 31  1  0
 31 32  1  0
 32 33  1  0
 33 34  1  0
 25 35  2  0
 35 36  1  0
 36 37  2  0
 37 38  1  0
 21  4  1  0
 37 23  1  0
 13  9  1  0
 21 16  1  0
 34 29  1  0
  3 39  1  0
  3 40  1  0
  8 41  1  0
  8 42  1  0
 10 43  1  0
 11 44  1  0
 12 45  1  0
 17 46  1  0
 18 47  1  0
 19 48  1  0
 20 49  1  0
 24 50  1  0
 30 51  1  0
 30 52  1  0
 31 53  1  0
 31 54  1  0
 33 55  1  0
 33 56  1  0
 34 57  1  0
 34 58  1  0
 35 59  1  0
 36 60  1  0
 38 61  1  0
M  CHG  1  22  -1
M  END
>  <UniqueID>  (86) 
80

>  <SMILES>  (86) 
O=C(Cn1c(=O)n(Cc2ccco2)c(=O)c2ccccc21)[N-]c1cc(S(=O)(=O)N2CCOCC2)ccc1O

>  <Energy>  (86) 
119.51563087687038

>  <Genealogy>  (86) 
O=C(Cn1c(=O)n(Cc2ccco2)c(=O)c2ccccc21)[N-]c1cc(S(=O)(=O)N2CCOCC2)ccc1O (protonated)
O=C(Cn1c(=O)n(Cc2ccco2)c(=O)c2ccccc21)[N-]c1cc(S(=O)(=O)N2CCOCC2)ccc1O (3D coordinates assigned)
O=C(Cn1c(=O)n(Cc2ccco2)c(=O)c2ccccc21)[N-]c1cc(S(=O)(=O)N2CCOCC2)ccc1O (nonaromatic ring conformer: 119.51563087687038 kcal/mol)

>  <smiles>  (86) 
O=C(Cn1c(=O)n(Cc2ccco2)c(=O)c2ccccc21)Nc1cc(S(=O)(=O)N2CCOCC2)ccc1O

>  <score_type>  (86) 
oracle

>  <origin>  (86) 
adg

>  <m_score__min__energy>  (86) 
-11.42

>  <m_primary>  (86) 
energy

$$$$
86:0
     RDKit          3D

 14 15  0  0  0  0  0  0  0  0999 V2000
   56.3300   30.9700   44.4990 O   0  0  0  0  0  0  0  0  0  0  0  0
   56.5650   29.8120   44.9310 C   0  0  0  0  0  0  0  0  0  0  0  0
   57.8240   29.3750   45.1920 N   0  0  0  0  0  0  0  0  0  0  0  0
   57.6030   28.1230   45.6180 C   0  0  0  0  0  0  0  0  0  0  0  0
   58.5460   27.1850   46.0320 C   0  0  0  0  0  0  0  0  0  0  0  0
   58.0770   25.9220   46.4400 C   0  0  0  0  0  0  0  0  0  0  0  0
   56.6930   25.6330   46.4270 C   0  0  0  0  0  0  0  0  0  0  0  0
   55.7700   26.6070   46.0020 C   0  0  0  0  0  0  0  0  0  0  0  0
   54.4060   26.3400   45.9810 O   0  0  0  0  0  0  0  0  0  0  0  0
   56.2680   27.8460   45.6040 C   0  0  0  0  0  0  0  0  0  0  0  0
   55.5770   28.9110   45.1670 N   0  0  0  0  0  0  0  0  0  0  0  0
   59.6199   27.4230   46.0398 H   0  0  0  0  0  0  0  0  0  0  0  0
   58.7922   25.1546   46.7712 H   0  0  0  0  0  0  0  0  0  0  0  0
   56.3364   24.6438   46.7501 H   0  0  0  0  0  0  0  0  0  0  0  0
  1  2  2  0
  2  3  1  0
  3  4  1  0
  4  5  2  0
  5  6  1  0
  6  7  2  0
  7  8  1  0
  8  9  1  0
  8 10  2  0
 10 11  1  0
 11  2  1  0
 10  4  1  0
  5 12  1  0
  6 13  1  0
  7 14  1  0
M  CHG  3   3  -1   9  -1  11  -1
M  END
>  <UniqueID>  (87) 
81

>  <SMILES>  (87) 
O=c1[n-]c2cccc([O-])c2[n-]1

>  <Energy>  (87) 
50.306759939409474

>  <Genealogy>  (87) 
O=c1[n-]c2cccc([O-])c2[n-]1 (protonated)
O=c1[n-]c2cccc([O-])c2[n-]1 (3D coordinates assigned)
O=c1[n-]c2cccc([O-])c2[n-]1 (optimized conformer: 50.306759939409474 kcal/mol)

>  <smiles>  (87) 
O=c1[nH]c2cccc(O)c2[nH]1

>  <score_type>  (87) 
oracle

>  <origin>  (87) 
adg

>  <m_score__min__energy>  (87) 
-14.210000000000001

>  <m_primary>  (87) 
energy

$$$$
87:0
     RDKit          3D

 55 58  0  0  0  0  0  0  0  0999 V2000
   60.7470   26.6840   46.1910 O   0  0  0  0  0  0  0  0  0  0  0  0
   59.6400   27.2700   46.3460 C   0  0  0  0  0  0  0  0  0  0  0  0
   59.6020   28.7010   46.4630 N   0  0  0  0  0  0  0  0  0  0  0  0
   60.8060   29.5250   46.4140 C   0  0  0  0  0  0  0  0  0  0  0  0
   61.1690   29.9750   47.8020 C   0  0  0  0  0  0  0  0  0  0  0  0
   62.2440   30.8570   47.9960 C   0  0  0  0  0  0  0  0  0  0  0  0
   62.5570   31.3140   49.2800 C   0  0  0  0  0  0  0  0  0  0  0  0
   61.7950   30.8990   50.3760 C   0  0  0  0  0  0  0  0  0  0  0  0
   60.7160   30.0310   50.1890 C   0  0  0  0  0  0  0  0  0  0  0  0
   60.3980   29.5740   48.9070 C   0  0  0  0  0  0  0  0  0  0  0  0
   58.4040   26.4570   46.4600 C   0  0  0  0  0  0  0  0  0  0  0  0
   58.4920   25.2070   47.1010 C   0  0  0  0  0  0  0  0  0  0  0  0
   57.3600   24.4130   47.2740 C   0  0  0  0  0  0  0  0  0  0  0  0
   56.1240   24.8430   46.7980 C   0  0  0  0  0  0  0  0  0  0  0  0
   56.0120   26.0680   46.1360 C   0  0  0  0  0  0  0  0  0  0  0  0
   54.7730   26.4450   45.6280 O   0  0  0  0  0  0  0  0  0  0  0  0
   57.1450   26.8940   45.9660 C   0  0  0  0  0  0  0  0  0  0  0  0
   57.0040   28.1650   45.2160 C   0  0  0  0  0  0  0  0  0  0  0  0
   57.0490   28.1400   43.9570 O   0  0  0  0  0  0  0  0  0  0  0  0
   56.7570   29.4170   45.8720 N   0  0  0  0  0  0  0  0  0  0  0  0
   57.5480   30.6150   45.7990 C   0  0  0  0  0  0  0  0  0  0  0  0
   58.1170   31.1130   46.9770 C   0  0  0  0  0  0  0  0  0  0  0  0
   58.8790   32.2840   46.9590 C   0  0  0  0  0  0  0  0  0  0  0  0
   59.0770   32.9800   45.7560 C   0  0  0  0  0  0  0  0  0  0  0  0
   59.8580   34.2660   45.7420 C   0  0  0  0  0  0  0  0  0  0  0  0
   60.9830   34.2010   46.7380 C   0  0  0  0  0  0  0  0  0  0  0  0
   60.7580   34.5350   48.0840 C   0  0  0  0  0  0  0  0  0  0  0  0
   61.8130   34.5120   49.0010 C   0  0  0  0  0  0  0  0  0  0  0  0
   63.1000   34.1630   48.5810 C   0  0  0  0  0  0  0  0  0  0  0  0
   63.3340   33.8400   47.2420 C   0  0  0  0  0  0  0  0  0  0  0  0
   62.2820   33.8620   46.3200 C   0  0  0  0  0  0  0  0  0  0  0  0
   58.4800   32.5030   44.5800 C   0  0  0  0  0  0  0  0  0  0  0  0
   57.7170   31.3320   44.6000 C   0  0  0  0  0  0  0  0  0  0  0  0
   58.7160   29.1670   46.7590 H   0  0  0  0  0  0  0  0  0  0  0  0
   61.6344   28.9372   45.9918 H   0  0  0  0  0  0  0  0  0  0  0  0
   60.6189   30.4061   45.7826 H   0  0  0  0  0  0  0  0  0  0  0  0
   62.8422   31.1897   47.1349 H   0  0  0  0  0  0  0  0  0  0  0  0
   63.4036   32.0007   49.4277 H   0  0  0  0  0  0  0  0  0  0  0  0
   62.0449   31.2559   51.3861 H   0  0  0  0  0  0  0  0  0  0  0  0
   60.1160   29.7069   51.0521 H   0  0  0  0  0  0  0  0  0  0  0  0
   59.5419   28.8986   48.7623 H   0  0  0  0  0  0  0  0  0  0  0  0
   59.4659   24.8527   47.4698 H   0  0  0  0  0  0  0  0  0  0  0  0
   57.4430   23.4440   47.7879 H   0  0  0  0  0  0  0  0  0  0  0  0
   55.2323   24.2156   46.9439 H   0  0  0  0  0  0  0  0  0  0  0  0
   57.9628   30.5776   47.9255 H   0  0  0  0  0  0  0  0  0  0  0  0
   59.3253   32.6619   47.8907 H   0  0  0  0  0  0  0  0  0  0  0  0
   60.2722   34.4287   44.7360 H   0  0  0  0  0  0  0  0  0  0  0  0
   59.1880   35.0959   46.0108 H   0  0  0  0  0  0  0  0  0  0  0  0
   59.7480   34.8156   48.4175 H   0  0  0  0  0  0  0  0  0  0  0  0
   61.6302   34.7690   50.0548 H   0  0  0  0  0  0  0  0  0  0  0  0
   63.9282   34.1427   49.3046 H   0  0  0  0  0  0  0  0  0  0  0  0
   64.3474   33.5678   46.9120 H   0  0  0  0  0  0  0  0  0  0  0  0
   62.4716   33.6135   45.2653 H   0  0  0  0  0  0  0  0  0  0  0  0
   58.6129   33.0533   43.6369 H   0  0  0  0  0  0  0  0  0  0  0  0
   57.2465   30.9693   43.6742 H   0  0  0  0  0  0  0  0  0  0  0  0
  1  2  2  0
  2  3  1  0
  3  4  1  0
  4  5  1  0
  5  6  2  0
  6  7  1  0
  7  8  2  0
  8  9  1  0
  9 10  2  0
  2 11  1  0
 11 12  2  0
 12 13  1  0
 13 14  2  0
 14 15  1  0
 15 16  1  0
 15 17  2  0
 17 18  1  0
 18 19  2  0
 18 20  1  0
 20 21  1  0
 21 22  2  0
 22 23  1  0
 23 24  2  0
 24 25  1  0
 25 26  1  0
 26 27  2  0
 27 28  1  0
 28 29  2  0
 29 30  1  0
 30 31  2  0
 24 32  1  0
 32 33  2  0
 10  5  1  0
 17 11  1  0
 33 21  1  0
 31 26  1  0
  3 34  1  0
  4 35  1  0
  4 36  1  0
  6 37  1  0
  7 38  1  0
  8 39  1  0
  9 40  1  0
 10 41  1  0
 12 42  1  0
 13 43  1  0
 14 44  1  0
 22 45  1  0
 23 46  1  0
 25 47  1  0
 25 48  1  0
 27 49  1  0
 28 50  1  0
 29 51  1  0
 30 52  1  0
 31 53  1  0
 32 54  1  0
 33 55  1  0
M  CHG  2  16  -1  20  -1
M  END
>  <UniqueID>  (88) 
82

>  <SMILES>  (88) 
O=C(NCc1ccccc1)c1cccc([O-])c1C(=O)[N-]c1ccc(Cc2ccccc2)cc1

>  <Energy>  (88) 
70.56173178225211

>  <Genealogy>  (88) 
O=C(NCc1ccccc1)c1cccc([O-])c1C(=O)[N-]c1ccc(Cc2ccccc2)cc1 (protonated)
O=C(NCc1ccccc1)c1cccc([O-])c1C(=O)[N-]c1ccc(Cc2ccccc2)cc1 (3D coordinates assigned)
O=C(NCc1ccccc1)c1cccc([O-])c1C(=O)[N-]c1ccc(Cc2ccccc2)cc1 (optimized conformer: 70.56173178225211 kcal/mol)

>  <smiles>  (88) 
O=C(NCc1ccccc1)c1cccc(O)c1C(=O)Nc1ccc(Cc2ccccc2)cc1

>  <score_type>  (88) 
oracle

>  <origin>  (88) 
adg

>  <m_score__min__energy>  (88) 
-13.68

>  <m_primary>  (88) 
energy

$$$$
88:0
     RDKit          3D

 26 28  0  0  0  0  0  0  0  0999 V2000
   62.0413   29.3737   45.7260 H   0  0  0  0  0  0  0  0  0  0  0  0
   61.1260   29.7640   46.1950 C   0  0  0  0  0  0  0  0  0  0  0  0
   60.0450   28.9770   46.2230 C   0  0  0  0  0  0  0  0  0  0  0  0
   59.9720   27.7180   46.8280 O   0  0  0  0  0  0  0  0  0  0  0  0
   58.6790   27.2410   46.6290 C   0  0  0  0  0  0  0  0  0  0  0  0
   58.1590   26.0230   47.0610 C   0  0  0  0  0  0  0  0  0  0  0  0
   58.7802   25.3119   47.6254 H   0  0  0  0  0  0  0  0  0  0  0  0
   56.8180   25.7270   46.7560 C   0  0  0  0  0  0  0  0  0  0  0  0
   56.3812   24.7727   47.0853 H   0  0  0  0  0  0  0  0  0  0  0  0
   56.0280   26.6460   46.0300 C   0  0  0  0  0  0  0  0  0  0  0  0
   54.7050   26.3400   45.7360 O   0  0  0  0  0  0  0  0  0  0  0  0
   56.5740   27.8700   45.6030 C   0  0  0  0  0  0  0  0  0  0  0  0
   55.9698   28.5942   45.0369 H   0  0  0  0  0  0  0  0  0  0  0  0
   57.9050   28.1360   45.9200 C   0  0  0  0  0  0  0  0  0  0  0  0
   58.7420   29.2840   45.6310 C   0  0  0  0  0  0  0  0  0  0  0  0
   58.4140   30.3230   45.0000 O   0  0  0  0  0  0  0  0  0  0  0  0
   61.1580   31.1300   46.7600 C   0  0  0  0  0  0  0  0  0  0  0  0
   60.2270   32.0580   46.4050 N   0  0  0  0  0  0  0  0  0  0  0  0
   60.2490   33.3150   46.9200 C   0  0  0  0  0  0  0  0  0  0  0  0
   58.9200   34.5750   46.3850 Br  0  0  0  0  0  0  0  0  0  0  0  0
   61.2140   33.6700   47.8100 N   0  0  0  0  0  0  0  0  0  0  0  0
   61.2290   34.6360   48.2040 H   0  0  0  0  0  0  0  0  0  0  0  0
   62.1640   32.7760   48.1940 C   0  0  0  0  0  0  0  0  0  0  0  0
   62.9397   33.0742   48.9147 H   0  0  0  0  0  0  0  0  0  0  0  0
   62.1560   31.4810   47.6750 C   0  0  0  0  0  0  0  0  0  0  0  0
   62.9197   30.7502   47.9795 H   0  0  0  0  0  0  0  0  0  0  0  0
  1  2  1  0
  2  3  2  0
  3  4  1  0
  4  5  1  0
  5  6  2  0
  6  7  1  0
  6  8  1  0
  8  9  1  0
  8 10  2  0
 10 11  1  0
 10 12  1  0
 12 13  1  0
 12 14  2  0
 14 15  1  0
 15 16  2  0
  2 17  1  0
 17 18  2  0
 18 19  1  0
 19 20  1  0
 19 21  2  0
 21 22  1  0
 21 23  1  0
 23 24  1  0
 23 25  2  0
 25 26  1  0
 15  3  1  0
 25 17  1  0
 14  5  1  0
M  CHG  2  11  -1  21   1
M  END
>  <UniqueID>  (89) 
83

>  <SMILES>  (89) 
O=C1/C(=C/c2cc[nH+]c(Br)n2)Oc2ccc([O-])cc21

>  <Energy>  (89) 
60.75260500844123

>  <Genealogy>  (89) 
O=C1C(=Cc2cc[nH+]c(Br)n2)Oc2ccc([O-])cc21 (protonated)
O=C1/C(=C/c2cc[nH+]c(Br)n2)Oc2ccc([O-])cc21 (cis-trans isomerization)
O=C1/C(=C/c2cc[nH+]c(Br)n2)Oc2ccc([O-])cc21 (3D coordinates assigned)
O=C1/C(=C/c2cc[nH+]c(Br)n2)Oc2ccc([O-])cc21 (nonaromatic ring conformer: 60.75260500844123 kcal/mol)

>  <smiles>  (89) 
O=C1C(=Cc2ccnc(Br)n2)Oc2ccc(O)cc21

>  <score_type>  (89) 
oracle

>  <origin>  (89) 
adg

>  <m_score__min__energy>  (89) 
-8.8100000000000005

>  <m_primary>  (89) 
energy

$$$$
89:0
     RDKit          3D

 56 58  0  0  0  0  0  0  0  0999 V2000
   55.4780   29.7280   43.5620 C   0  0  0  0  0  0  0  0  0  0  0  0
   55.9180   29.4600   44.8900 O   0  0  0  0  0  0  0  0  0  0  0  0
   57.2420   29.6010   45.3360 C   0  0  0  0  0  0  0  0  0  0  0  0
   57.9820   28.5010   45.8150 C   0  0  0  0  0  0  0  0  0  0  0  0
   59.3190   28.6570   46.1900 C   0  0  0  0  0  0  0  0  0  0  0  0
   59.9340   29.9050   46.0860 C   0  0  0  0  0  0  0  0  0  0  0  0
   59.2080   31.0050   45.6240 C   0  0  0  0  0  0  0  0  0  0  0  0
   57.8580   30.8710   45.2760 C   0  0  0  0  0  0  0  0  0  0  0  0
   57.1510   32.0350   44.8260 N   0  0  0  0  0  0  0  0  0  0  0  0
   57.2330   33.3450   45.4030 C   0  0  0  0  0  0  0  0  0  0  0  0
   56.3620   34.1980   45.0890 O   0  0  0  0  0  0  0  0  0  0  0  0
   58.2980   33.7090   46.3050 N   0  0  0  0  0  0  0  0  0  0  0  0
   59.2480   34.7770   45.9590 C   0  0  0  0  0  0  0  0  0  0  0  0
   60.6670   34.3760   46.3850 C   0  0  0  0  0  0  0  0  0  0  0  0
   60.7520   33.8700   47.8440 C   0  0  0  0  0  0  0  0  0  0  0  0
   59.3820   33.8010   48.5500 C   0  0  2  0  0  0  0  0  0  0  0  0
   59.4770   33.1630   49.9190 C   0  0  0  0  0  0  0  0  0  0  0  0
   59.7970   33.8900   50.8980 O   0  0  0  0  0  0  0  0  0  0  0  0
   59.1710   31.7740   50.1460 N   0  0  0  0  0  0  0  0  0  0  0  0
   58.1570   31.3900   51.1320 C   0  0  0  0  0  0  0  0  0  0  0  0
   59.7970   30.7490   49.2990 C   0  0  0  0  0  0  0  0  0  0  0  0
   61.2410   30.4450   49.7290 C   0  0  0  0  0  0  0  0  0  0  0  0
   62.2230   31.3880   49.0990 C   0  0  0  0  0  0  0  0  0  0  0  0
   62.9080   32.3380   49.8730 C   0  0  0  0  0  0  0  0  0  0  0  0
   63.8390   33.1780   49.2600 C   0  0  0  0  0  0  0  0  0  0  0  0
   64.0810   33.0660   47.8900 C   0  0  0  0  0  0  0  0  0  0  0  0
   63.3870   32.1050   47.1500 C   0  0  0  0  0  0  0  0  0  0  0  0
   62.4850   31.2940   47.7640 N   0  0  0  0  0  0  0  0  0  0  0  0
   58.3090   33.1370   47.6630 C   0  0  0  0  0  0  0  0  0  0  0  0
   54.5390   30.3000   43.5953 H   0  0  0  0  0  0  0  0  0  0  0  0
   56.2448   30.3126   43.0326 H   0  0  0  0  0  0  0  0  0  0  0  0
   55.3104   28.7784   43.0326 H   0  0  0  0  0  0  0  0  0  0  0  0
   57.5039   27.5135   45.8941 H   0  0  0  0  0  0  0  0  0  0  0  0
   59.8876   27.7944   46.5678 H   0  0  0  0  0  0  0  0  0  0  0  0
   60.9907   30.0226   46.3679 H   0  0  0  0  0  0  0  0  0  0  0  0
   59.7004   31.9844   45.5327 H   0  0  0  0  0  0  0  0  0  0  0  0
   59.2277   34.9445   44.8720 H   0  0  0  0  0  0  0  0  0  0  0  0
   58.9607   35.6998   46.4842 H   0  0  0  0  0  0  0  0  0  0  0  0
   61.0179   33.5752   45.7175 H   0  0  0  0  0  0  0  0  0  0  0  0
   61.2926   35.2783   46.3179 H   0  0  0  0  0  0  0  0  0  0  0  0
   61.1923   32.8620   47.8383 H   0  0  0  0  0  0  0  0  0  0  0  0
   61.3686   34.5902   48.4018 H   0  0  0  0  0  0  0  0  0  0  0  0
   59.0543   34.8381   48.7145 H   0  0  0  0  0  0  0  0  0  0  0  0
   58.5558   31.5410   52.1460 H   0  0  0  0  0  0  0  0  0  0  0  0
   57.2590   32.0103   50.9950 H   0  0  0  0  0  0  0  0  0  0  0  0
   57.8951   30.3304   50.9950 H   0  0  0  0  0  0  0  0  0  0  0  0
   59.2051   29.8242   49.3656 H   0  0  0  0  0  0  0  0  0  0  0  0
   59.8246   31.1325   48.2684 H   0  0  0  0  0  0  0  0  0  0  0  0
   61.3128   30.5355   50.8229 H   0  0  0  0  0  0  0  0  0  0  0  0
   61.4875   29.4253   49.3982 H   0  0  0  0  0  0  0  0  0  0  0  0
   62.7128   32.4196   50.9525 H   0  0  0  0  0  0  0  0  0  0  0  0
   64.3812   33.9271   49.8557 H   0  0  0  0  0  0  0  0  0  0  0  0
   64.8100   33.7269   47.3982 H   0  0  0  0  0  0  0  0  0  0  0  0
   63.5706   32.0047   46.0701 H   0  0  0  0  0  0  0  0  0  0  0  0
   58.5191   32.0594   47.5948 H   0  0  0  0  0  0  0  0  0  0  0  0
   57.3249   33.3172   48.1202 H   0  0  0  0  0  0  0  0  0  0  0  0
  1  2  1  0
  2  3  1  0
  3  4  2  0
  4  5  1  0
  5  6  2  0
  6  7  1  0
  7  8  2  0
  8  9  1  0
  9 10  1  0
 10 11  2  0
 10 12  1  0
 12 13  1  0
 13 14  1  0
 14 15  1  0
 15 16  1  0
 16 17  1  0
 17 18  2  0
 17 19  1  0
 19 20  1  0
 19 21  1  0
 21 22  1  0
 22 23  1  0
 23 24  2  0
 24 25  1  0
 25 26  2  0
 26 27  1  0
 27 28  2  0
 16 29  1  0
  8  3  1  0
 29 12  1  0
 28 23  1  0
  1 30  1  0
  1 31  1  0
  1 32  1  0
  4 33  1  0
  5 34  1  0
  6 35  1  0
  7 36  1  0
 13 37  1  0
 13 38  1  0
 14 39  1  0
 14 40  1  0
 15 41  1  0
 15 42  1  0
 16 43  1  1
 20 44  1  0
 20 45  1  0
 20 46  1  0
 21 47  1  0
 21 48  1  0
 22 49  1  0
 22 50  1  0
 24 51  1  0
 25 52  1  0
 26 53  1  0
 27 54  1  0
 29 55  1  0
 29 56  1  0
M  CHG  1   9  -1
M  END
>  <UniqueID>  (90) 
84

>  <SMILES>  (90) 
COc1ccccc1[N-]C(=O)N1CCC[C@H](C(=O)N(C)CCc2ccccn2)C1

>  <Energy>  (90) 
64.1725514616895

>  <Genealogy>  (90) 
COc1ccccc1[N-]C(=O)N1CCCC(C(=O)N(C)CCc2ccccn2)C1 (protonated)
COc1ccccc1[N-]C(=O)N1CCC[C@H](C(=O)N(C)CCc2ccccn2)C1 (chirality)
COc1ccccc1[N-]C(=O)N1CCC[C@H](C(=O)N(C)CCc2ccccn2)C1 (3D coordinates assigned)
COc1ccccc1[N-]C(=O)N1CCC[C@H](C(=O)N(C)CCc2ccccn2)C1 (nonaromatic ring conformer: 64.1725514616895 kcal/mol)

>  <smiles>  (90) 
COc1ccccc1NC(=O)N1CCCC(C(=O)N(C)CCc2ccccn2)C1

>  <score_type>  (90) 
oracle

>  <origin>  (90) 
adg

>  <m_score__min__energy>  (90) 
-10.52

>  <m_primary>  (90) 
energy

$$$$
90:0
     RDKit          3D

 42 44  0  0  0  0  0  0  0  0999 V2000
   56.5210   28.9960   42.3300 N   0  0  0  0  0  0  0  0  0  0  0  0
   56.7790   30.0020   43.7120 S   0  0  0  0  0  0  0  0  0  0  0  0
   55.5150   30.0600   44.5250 O   0  0  0  0  0  0  0  0  0  0  0  0
   57.1300   31.3920   43.2650 O   0  0  0  0  0  0  0  0  0  0  0  0
   58.0950   29.3450   44.6800 C   0  0  0  0  0  0  0  0  0  0  0  0
   58.5390   28.0310   44.4840 C   0  0  0  0  0  0  0  0  0  0  0  0
   59.5980   27.5290   45.2450 C   0  0  0  0  0  0  0  0  0  0  0  0
   60.2270   28.3380   46.1940 C   0  0  0  0  0  0  0  0  0  0  0  0
   59.8060   29.6650   46.3850 C   0  0  0  0  0  0  0  0  0  0  0  0
   60.4800   30.5250   47.3810 C   0  0  0  0  0  0  0  0  0  0  0  0
   61.7040   30.7930   47.2420 O   0  0  0  0  0  0  0  0  0  0  0  0
   59.7780   31.0380   48.5250 N   0  0  0  0  0  0  0  0  0  0  0  0
   60.1190   30.7290   49.9030 C   0  0  0  0  0  0  0  0  0  0  0  0
   59.2010   31.6480   50.7230 C   0  0  0  0  0  0  0  0  0  0  0  0
   58.5450   32.5020   49.7420 N   0  0  0  0  0  0  0  0  0  0  0  0
   58.8790   32.1370   48.5540 C   0  0  0  0  0  0  0  0  0  0  0  0
   58.3400   33.0550   47.1050 S   0  0  0  0  0  0  0  0  0  0  0  0
   59.3290   34.5440   47.4810 C   0  0  0  0  0  0  0  0  0  0  0  0
   60.7740   34.1930   47.7080 C   0  0  0  0  0  0  0  0  0  0  0  0
   61.5940   33.8190   46.6310 C   0  0  0  0  0  0  0  0  0  0  0  0
   62.9270   33.4600   46.8510 C   0  0  0  0  0  0  0  0  0  0  0  0
   63.4500   33.4710   48.1480 C   0  0  0  0  0  0  0  0  0  0  0  0
   64.7420   33.1210   48.3600 F   0  0  0  0  0  0  0  0  0  0  0  0
   62.6380   33.8390   49.2250 C   0  0  0  0  0  0  0  0  0  0  0  0
   61.3050   34.1970   49.0090 C   0  0  0  0  0  0  0  0  0  0  0  0
   58.7250   30.1560   45.6320 C   0  0  0  0  0  0  0  0  0  0  0  0
   56.6620   28.0080   42.6400 H   0  0  0  0  0  0  0  0  0  0  0  0
   55.5130   29.0880   42.0690 H   0  0  0  0  0  0  0  0  0  0  0  0
   58.0535   27.3937   43.7303 H   0  0  0  0  0  0  0  0  0  0  0  0
   59.9374   26.4933   45.0962 H   0  0  0  0  0  0  0  0  0  0  0  0
   61.0556   27.9346   46.7946 H   0  0  0  0  0  0  0  0  0  0  0  0
   59.9176   29.6714   50.1288 H   0  0  0  0  0  0  0  0  0  0  0  0
   61.1852   30.8870   50.1229 H   0  0  0  0  0  0  0  0  0  0  0  0
   58.4582   31.0563   51.2781 H   0  0  0  0  0  0  0  0  0  0  0  0
   59.7612   32.2315   51.4685 H   0  0  0  0  0  0  0  0  0  0  0  0
   59.2582   35.2448   46.6361 H   0  0  0  0  0  0  0  0  0  0  0  0
   58.9332   35.0029   48.3990 H   0  0  0  0  0  0  0  0  0  0  0  0
   61.1855   33.8085   45.6097 H   0  0  0  0  0  0  0  0  0  0  0  0
   63.5649   33.1687   46.0035 H   0  0  0  0  0  0  0  0  0  0  0  0
   63.0498   33.8467   50.2450 H   0  0  0  0  0  0  0  0  0  0  0  0
   60.6692   34.4829   49.8599 H   0  0  0  0  0  0  0  0  0  0  0  0
   58.3713   31.1852   45.7919 H   0  0  0  0  0  0  0  0  0  0  0  0
  1  2  1  0
  2  3  2  0
  2  4  2  0
  2  5  1  0
  5  6  2  0
  6  7  1  0
  7  8  2  0
  8  9  1  0
  9 10  1  0
 10 11  2  0
 10 12  1  0
 12 13  1  0
 13 14  1  0
 14 15  1  0
 15 16  2  0
 16 17  1  0
 17 18  1  0
 18 19  1  0
 19 20  2  0
 20 21  1  0
 21 22  2  0
 22 23  1  0
 22 24  1  0
 24 25  2  0
  9 26  2  0
 26  5  1  0
 16 12  1  0
 25 19  1  0
  1 27  1  0
  1 28  1  0
  6 29  1  0
  7 30  1  0
  8 31  1  0
 13 32  1  0
 13 33  1  0
 14 34  1  0
 14 35  1  0
 18 36  1  0
 18 37  1  0
 20 38  1  0
 21 39  1  0
 24 40  1  0
 25 41  1  0
 26 42  1  0
M  END
>  <UniqueID>  (91) 
85

>  <SMILES>  (91) 
NS(=O)(=O)c1cccc(C(=O)N2CCN=C2SCc2ccc(F)cc2)c1

>  <Energy>  (91) 
53.81564121203347

>  <Genealogy>  (91) 
NS(=O)(=O)c1cccc(C(=O)N2CCN=C2SCc2ccc(F)cc2)c1 (3D coordinates assigned)
NS(=O)(=O)c1cccc(C(=O)N2CCN=C2SCc2ccc(F)cc2)c1 (nonaromatic ring conformer: 53.81564121203347 kcal/mol)

>  <smiles>  (91) 
NS(=O)(=O)c1cccc(C(=O)N2CCN=C2SCc2ccc(F)cc2)c1

>  <score_type>  (91) 
oracle

>  <origin>  (91) 
adg

>  <m_score__min__energy>  (91) 
-9.2200000000000006

>  <m_primary>  (91) 
energy

$$$$
91:0
     RDKit          3D

 84 88  0  0  0  0  0  0  0  0999 V2000
   63.0260   30.7370   51.6340 C   0  0  0  0  0  0  0  0  0  0  0  0
   61.9160   31.2650   50.8430 N   0  0  0  0  0  0  0  0  0  0  0  0
   61.8910   30.9390   49.4410 C   0  0  0  0  0  0  0  0  0  0  0  0
   61.5230   29.7880   49.0800 O   0  0  0  0  0  0  0  0  0  0  0  0
   62.2780   31.9260   48.4200 C   0  0  0  0  0  0  0  0  0  0  0  0
   63.6330   32.1830   48.1660 C   0  0  0  0  0  0  0  0  0  0  0  0
   64.0000   33.1060   47.1830 C   0  0  0  0  0  0  0  0  0  0  0  0
   63.0180   33.7950   46.4630 C   0  0  0  0  0  0  0  0  0  0  0  0
   61.6570   33.5800   46.7460 C   0  0  0  0  0  0  0  0  0  0  0  0
   60.6180   34.2660   46.0340 N   0  0  0  0  0  0  0  0  0  0  0  0
   59.2090   34.0050   46.1070 C   0  0  0  0  0  0  0  0  0  0  0  0
   58.5190   34.6900   46.9050 O   0  0  0  0  0  0  0  0  0  0  0  0
   58.5450   33.0160   45.2160 C   0  0  0  0  0  0  0  0  0  0  0  0
   58.3720   33.3160   43.8510 C   0  0  0  0  0  0  0  0  0  0  0  0
   57.7720   32.3950   42.9900 C   0  0  0  0  0  0  0  0  0  0  0  0
   57.3220   31.1700   43.4770 C   0  0  0  0  0  0  0  0  0  0  0  0
   57.4590   30.8650   44.8310 C   0  0  0  0  0  0  0  0  0  0  0  0
   58.0470   31.7850   45.7100 C   0  0  0  0  0  0  0  0  0  0  0  0
   58.1780   31.4280   47.0880 N   0  0  0  0  0  0  0  0  0  0  0  0
   58.9500   30.3140   47.5560 C   0  0  0  0  0  0  0  0  0  0  0  0
   58.8690   29.9860   48.7700 O   0  0  0  0  0  0  0  0  0  0  0  0
   59.8350   29.5110   46.6390 C   0  0  0  0  0  0  0  0  0  0  0  0
   59.0330   28.4900   45.8680 C   0  0  0  0  0  0  0  0  0  0  0  0
   59.2810   28.3050   44.4980 C   0  0  0  0  0  0  0  0  0  0  0  0
   58.5450   27.3740   43.7640 C   0  0  0  0  0  0  0  0  0  0  0  0
   57.5530   26.6190   44.3870 C   0  0  0  0  0  0  0  0  0  0  0  0
   57.3000   26.7730   45.7570 C   0  0  0  0  0  0  0  0  0  0  0  0
   56.2340   25.9640   46.3750 C   0  0  0  0  0  0  0  0  0  0  0  0
   56.5330   25.1600   47.2950 O   0  0  0  0  0  0  0  0  0  0  0  0
   54.8640   26.0810   45.9740 N   0  0  0  0  0  0  0  0  0  0  0  0
   54.0200   24.9680   45.5510 C   0  0  0  0  0  0  0  0  0  0  0  0
   54.6050   23.6020   45.9710 C   0  0  0  0  0  0  0  0  0  0  0  0
   55.2730   22.8270   44.8970 N   0  0  0  0  0  0  0  0  0  0  0  0
   56.1500   21.7480   45.3940 C   0  0  0  0  0  0  0  0  0  0  0  0
   56.8370   21.0240   44.2190 C   0  0  0  0  0  0  0  0  0  0  0  0
   56.2170   21.3490   42.9900 O   0  0  0  0  0  0  0  0  0  0  0  0
   56.4060   22.7250   42.7040 C   0  0  0  0  0  0  0  0  0  0  0  0
   55.9390   23.6340   43.8630 C   0  0  0  0  0  0  0  0  0  0  0  0
   58.0360   27.7220   46.5040 C   0  0  0  0  0  0  0  0  0  0  0  0
   57.7780   27.9310   47.8630 O   0  0  0  0  0  0  0  0  0  0  0  0
   61.2970   32.6390   47.7160 C   0  0  0  0  0  0  0  0  0  0  0  0
   60.8140   31.9950   51.5120 C   0  0  0  0  0  0  0  0  0  0  0  0
   60.6660   33.4270   50.9880 C   0  0  0  0  0  0  0  0  0  0  0  0
   59.3190   33.4900   50.2850 C   0  0  0  0  0  0  0  0  0  0  0  0
   58.4700   32.4130   50.9330 C   0  0  0  0  0  0  0  0  0  0  0  0
   59.4410   31.3160   51.3510 C   0  0  0  0  0  0  0  0  0  0  0  0
   62.7976   30.8456   52.7045 H   0  0  0  0  0  0  0  0  0  0  0  0
   63.1720   29.6730   51.3964 H   0  0  0  0  0  0  0  0  0  0  0  0
   63.9437   31.2951   51.3964 H   0  0  0  0  0  0  0  0  0  0  0  0
   64.4087   31.6569   48.7418 H   0  0  0  0  0  0  0  0  0  0  0  0
   65.0641   33.2914   46.9747 H   0  0  0  0  0  0  0  0  0  0  0  0
   63.3103   34.5051   45.6754 H   0  0  0  0  0  0  0  0  0  0  0  0
   58.7130   34.2856   43.4592 H   0  0  0  0  0  0  0  0  0  0  0  0
   57.6543   32.6376   41.9236 H   0  0  0  0  0  0  0  0  0  0  0  0
   56.8586   30.4432   42.7937 H   0  0  0  0  0  0  0  0  0  0  0  0
   57.1033   29.8962   45.2116 H   0  0  0  0  0  0  0  0  0  0  0  0
   60.3284   30.1912   45.9291 H   0  0  0  0  0  0  0  0  0  0  0  0
   60.5818   28.9814   47.2488 H   0  0  0  0  0  0  0  0  0  0  0  0
   60.0615   28.8987   43.9997 H   0  0  0  0  0  0  0  0  0  0  0  0
   58.7482   27.2358   42.6918 H   0  0  0  0  0  0  0  0  0  0  0  0
   56.9651   25.8979   43.8001 H   0  0  0  0  0  0  0  0  0  0  0  0
   53.0259   25.0834   46.0075 H   0  0  0  0  0  0  0  0  0  0  0  0
   53.9600   24.9872   44.4528 H   0  0  0  0  0  0  0  0  0  0  0  0
   55.3432   23.7814   46.7665 H   0  0  0  0  0  0  0  0  0  0  0  0
   53.7448   22.9936   46.2870 H   0  0  0  0  0  0  0  0  0  0  0  0
   56.9186   22.1805   46.0514 H   0  0  0  0  0  0  0  0  0  0  0  0
   55.5391   21.0217   45.9502 H   0  0  0  0  0  0  0  0  0  0  0  0
   57.8940   21.3258   44.1793 H   0  0  0  0  0  0  0  0  0  0  0  0
   56.7512   19.9390   44.3782 H   0  0  0  0  0  0  0  0  0  0  0  0
   57.4759   22.9049   42.5223 H   0  0  0  0  0  0  0  0  0  0  0  0
   55.8014   22.9710   41.8186 H   0  0  0  0  0  0  0  0  0  0  0  0
   56.8106   24.1416   44.3020 H   0  0  0  0  0  0  0  0  0  0  0  0
   55.2302   24.3800   43.4743 H   0  0  0  0  0  0  0  0  0  0  0  0
   58.4130   28.4280   48.4730 H   0  0  0  0  0  0  0  0  0  0  0  0
   60.2334   32.4563   47.9289 H   0  0  0  0  0  0  0  0  0  0  0  0
   61.1026   31.9937   52.5735 H   0  0  0  0  0  0  0  0  0  0  0  0
   60.6931   34.1424   51.8232 H   0  0  0  0  0  0  0  0  0  0  0  0
   61.4860   33.6875   50.3027 H   0  0  0  0  0  0  0  0  0  0  0  0
   58.8582   34.4788   50.4259 H   0  0  0  0  0  0  0  0  0  0  0  0
   59.4180   33.3329   49.2008 H   0  0  0  0  0  0  0  0  0  0  0  0
   57.9453   32.8157   51.8119 H   0  0  0  0  0  0  0  0  0  0  0  0
   57.7017   32.0331   50.2436 H   0  0  0  0  0  0  0  0  0  0  0  0
   59.1230   30.8683   52.3041 H   0  0  0  0  0  0  0  0  0  0  0  0
   59.4785   30.5086   50.6049 H   0  0  0  0  0  0  0  0  0  0  0  0
  1  2  1  0
  2  3  1  0
  3  4  2  0
  3  5  1  0
  5  6  2  0
  6  7  1  0
  7  8  2  0
  8  9  1  0
  9 10  1  0
 10 11  1  0
 11 12  2  0
 11 13  1  0
 13 14  2  0
 14 15  1  0
 15 16  2  0
 16 17  1  0
 17 18  2  0
 18 19  1  0
 19 20  1  0
 20 21  2  0
 20 22  1  0
 22 23  1  0
 23 24  2  0
 24 25  1  0
 25 26  2  0
 26 27  1  0
 27 28  1  0
 28 29  2  0
 28 30  1  0
 30 31  1  0
 31 32  1  0
 32 33  1  0
 33 34  1  0
 34 35  1  0
 35 36  1  0
 36 37  1  0
 37 38  1  0
 27 39  2  0
 39 40  1  0
  9 41  2  0
  2 42  1  0
 42 43  1  0
 43 44  1  0
 44 45  1  0
 45 46  1  0
 41  5  1  0
 46 42  1  0
 18 13  1  0
 39 23  1  0
 38 33  1  0
  1 47  1  0
  1 48  1  0
  1 49  1  0
  6 50  1  0
  7 51  1  0
  8 52  1  0
 14 53  1  0
 15 54  1  0
 16 55  1  0
 17 56  1  0
 22 57  1  0
 22 58  1  0
 24 59  1  0
 25 60  1  0
 26 61  1  0
 31 62  1  0
 31 63  1  0
 32 64  1  0
 32 65  1  0
 34 66  1  0
 34 67  1  0
 35 68  1  0
 35 69  1  0
 37 70  1  0
 37 71  1  0
 38 72  1  0
 38 73  1  0
 40 74  1  0
 41 75  1  0
 42 76  1  0
 43 77  1  0
 43 78  1  0
 44 79  1  0
 44 80  1  0
 45 81  1  0
 45 82  1  0
 46 83  1  0
 46 84  1  0
M  CHG  3  10  -1  19  -1  30  -1
M  END
>  <UniqueID>  (92) 
86

>  <SMILES>  (92) 
CN(C(=O)c1cccc([N-]C(=O)c2ccccc2[N-]C(=O)Cc2cccc(C(=O)[N-]CCN3CCOCC3)c2O)c1)C1CCCC1

>  <Energy>  (92) 
130.18466775907655

>  <Genealogy>  (92) 
CN(C(=O)c1cccc([N-]C(=O)c2ccccc2[N-]C(=O)Cc2cccc(C(=O)[N-]CCN3CCOCC3)c2O)c1)C1CCCC1 (protonated)
CN(C(=O)c1cccc([N-]C(=O)c2ccccc2[N-]C(=O)Cc2cccc(C(=O)[N-]CCN3CCOCC3)c2O)c1)C1CCCC1 (3D coordinates assigned)
CN(C(=O)c1cccc([N-]C(=O)c2ccccc2[N-]C(=O)Cc2cccc(C(=O)[N-]CCN3CCOCC3)c2O)c1)C1CCCC1 (nonaromatic ring conformer: 130.18466775907655 kcal/mol)

>  <smiles>  (92) 
CN(C(=O)c1cccc(NC(=O)c2ccccc2NC(=O)Cc2cccc(C(=O)NCCN3CCOCC3)c2O)c1)C1CCCC1

>  <score_type>  (92) 
oracle

>  <origin>  (92) 
adg

>  <m_score__min__energy>  (92) 
-17.280000000000001

>  <m_primary>  (92) 
energy

$$$$
92:0
     RDKit          3D

 47 49  0  0  0  0  0  0  0  0999 V2000
   60.2060   29.2200   46.0750 C   0  0  0  0  0  0  0  0  0  0  0  0
   58.9510   29.8190   45.5280 C   0  0  0  0  0  0  0  0  0  0  0  0
   57.7770   29.0620   45.4500 C   0  0  0  0  0  0  0  0  0  0  0  0
   56.6230   29.6700   44.9520 C   0  0  0  0  0  0  0  0  0  0  0  0
   55.5510   29.0180   44.8650 O   0  0  0  0  0  0  0  0  0  0  0  0
   56.6580   30.9710   44.5640 N   0  0  0  0  0  0  0  0  0  0  0  0
   57.8050   31.6950   44.6500 C   0  0  0  0  0  0  0  0  0  0  0  0
   57.8210   33.4080   44.1360 S   0  0  0  0  0  0  0  0  0  0  0  0
   57.4780   34.0350   45.8110 C   0  0  0  0  0  0  0  0  0  0  0  0
   58.7540   34.0980   46.5850 C   0  0  0  0  0  0  0  0  0  0  0  0
   58.7950   34.7540   47.6600 O   0  0  0  0  0  0  0  0  0  0  0  0
   59.9210   33.4170   46.0990 N   0  0  0  0  0  0  0  0  0  0  0  0
   61.1080   33.1980   46.8810 C   0  0  0  0  0  0  0  0  0  0  0  0
   62.3510   33.6100   46.3750 C   0  0  0  0  0  0  0  0  0  0  0  0
   63.5190   33.3940   47.1120 C   0  0  0  0  0  0  0  0  0  0  0  0
   63.4590   32.7480   48.3490 C   0  0  0  0  0  0  0  0  0  0  0  0
   62.2310   32.3030   48.8510 C   0  0  0  0  0  0  0  0  0  0  0  0
   62.1420   31.4910   50.4120 S   0  0  0  0  0  0  0  0  0  0  0  0
   63.2170   30.4410   50.4740 O   0  0  0  0  0  0  0  0  0  0  0  0
   62.3780   32.4830   51.5180 O   0  0  0  0  0  0  0  0  0  0  0  0
   60.5770   30.7420   50.5970 N   0  0  0  0  0  0  0  0  0  0  0  0
   60.3160   29.8340   49.4650 C   0  0  0  0  0  0  0  0  0  0  0  0
   58.8390   29.3900   49.4450 C   0  0  0  0  0  0  0  0  0  0  0  0
   58.1970   29.7090   50.6630 O   0  0  0  0  0  0  0  0  0  0  0  0
   58.1450   31.1170   50.8220 C   0  0  0  0  0  0  0  0  0  0  0  0
   59.5350   31.7760   50.6720 C   0  0  0  0  0  0  0  0  0  0  0  0
   61.0580   32.5280   48.1160 C   0  0  0  0  0  0  0  0  0  0  0  0
   58.9370   31.1220   45.1340 N   0  0  0  0  0  0  0  0  0  0  0  0
   60.1713   29.2365   47.1743 H   0  0  0  0  0  0  0  0  0  0  0  0
   60.2984   28.1807   45.7267 H   0  0  0  0  0  0  0  0  0  0  0  0
   61.0721   29.8018   45.7267 H   0  0  0  0  0  0  0  0  0  0  0  0
   57.7634   28.0109   45.7739 H   0  0  0  0  0  0  0  0  0  0  0  0
   57.0388   35.0413   45.7440 H   0  0  0  0  0  0  0  0  0  0  0  0
   56.7715   33.3621   46.3190 H   0  0  0  0  0  0  0  0  0  0  0  0
   59.9340   33.1270   45.0950 H   0  0  0  0  0  0  0  0  0  0  0  0
   62.4061   34.1050   45.3942 H   0  0  0  0  0  0  0  0  0  0  0  0
   64.4878   33.7336   46.7168 H   0  0  0  0  0  0  0  0  0  0  0  0
   64.3794   32.5887   48.9300 H   0  0  0  0  0  0  0  0  0  0  0  0
   60.5483   30.3550   48.5244 H   0  0  0  0  0  0  0  0  0  0  0  0
   60.9498   28.9419   49.5766 H   0  0  0  0  0  0  0  0  0  0  0  0
   58.3208   29.9017   48.6206 H   0  0  0  0  0  0  0  0  0  0  0  0
   58.8031   28.2995   49.3054 H   0  0  0  0  0  0  0  0  0  0  0  0
   57.4714   31.5345   50.0591 H   0  0  0  0  0  0  0  0  0  0  0  0
   57.7806   31.3276   51.8383 H   0  0  0  0  0  0  0  0  0  0  0  0
   59.5544   32.3798   49.7528 H   0  0  0  0  0  0  0  0  0  0  0  0
   59.7259   32.4179   51.5446 H   0  0  0  0  0  0  0  0  0  0  0  0
   60.0920   32.1778   48.5086 H   0  0  0  0  0  0  0  0  0  0  0  0
  1  2  1  0
  2  3  2  0
  3  4  1  0
  4  5  2  0
  4  6  1  0
  6  7  1  0
  7  8  1  0
  8  9  1  0
  9 10  1  0
 10 11  2  0
 10 12  1  0
 12 13  1  0
 13 14  2  0
 14 15  1  0
 15 16  2  0
 16 17  1  0
 17 18  1  0
 18 19  2  0
 18 20  2  0
 18 21  1  0
 21 22  1  0
 22 23  1  0
 23 24  1  0
 24 25  1  0
 25 26  1  0
 17 27  2  0
  7 28  2  0
 28  2  1  0
 27 13  1  0
 26 21  1  0
  1 29  1  0
  1 30  1  0
  1 31  1  0
  3 32  1  0
  9 33  1  0
  9 34  1  0
 12 35  1  0
 14 36  1  0
 15 37  1  0
 16 38  1  0
 22 39  1  0
 22 40  1  0
 23 41  1  0
 23 42  1  0
 25 43  1  0
 25 44  1  0
 26 45  1  0
 26 46  1  0
 27 47  1  0
M  CHG  1   6  -1
M  END
>  <UniqueID>  (93) 
87

>  <SMILES>  (93) 
Cc1cc(=O)[n-]c(SCC(=O)Nc2cccc(S(=O)(=O)N3CCOCC3)c2)n1

>  <Energy>  (93) 
53.02127393608677

>  <Genealogy>  (93) 
Cc1cc(=O)[n-]c(SCC(=O)Nc2cccc(S(=O)(=O)N3CCOCC3)c2)n1 (protonated)
Cc1cc(=O)[n-]c(SCC(=O)Nc2cccc(S(=O)(=O)N3CCOCC3)c2)n1 (3D coordinates assigned)
Cc1cc(=O)[n-]c(SCC(=O)Nc2cccc(S(=O)(=O)N3CCOCC3)c2)n1 (nonaromatic ring conformer: 53.02127393608677 kcal/mol)

>  <smiles>  (93) 
Cc1cc(=O)[nH]c(SCC(=O)Nc2cccc(S(=O)(=O)N3CCOCC3)c2)n1

>  <score_type>  (93) 
oracle

>  <origin>  (93) 
adg

>  <m_score__min__energy>  (93) 
-10.859999999999999

>  <m_primary>  (93) 
energy

$$$$
