0:0
     RDKit          3D

 64 67  0  0  1  0  0  0  0  0999 V2000
   57.0090   32.6380   44.8980 C   0  0  0  0  0  0  0  0  0  0  0  0
   57.5350   31.2390   45.0370 C   0  0  0  0  0  0  0  0  0  0  0  0
   56.6880   30.3380   45.2250 O   0  0  0  0  0  0  0  0  0  0  0  0
   58.9150   30.9760   44.9570 N   0  0  0  0  0  0  0  0  0  0  0  0
   59.3630   29.6050   45.0990 C   0  0  2  0  0  0  0  0  0  0  0  0
   58.4700   28.6000   44.4380 C   0  0  0  0  0  0  0  0  0  0  0  0
   59.5400   29.2030   46.5230 C   0  0  0  0  0  0  0  0  0  0  0  0
   60.0040   27.9420   46.8680 C   0  0  0  0  0  0  0  0  0  0  0  0
   60.1770   27.5460   48.1800 C   0  0  0  0  0  0  0  0  0  0  0  0
   59.8900   28.4080   49.2110 C   0  0  0  0  0  0  0  0  0  0  0  0
   60.0240   28.1230   50.5490 O   0  0  0  0  0  0  0  0  0  0  0  0
   61.0150   28.5580   51.4260 C   0  0  1  0  0  0  0  0  0  0  0  0
   62.0300   27.4740   51.7380 C   0  0  0  0  0  0  0  0  0  0  0  0
   63.3050   28.2370   52.1200 C   0  0  0  0  0  0  0  0  0  0  0  0
   63.2000   29.4700   51.3840 N   0  0  0  0  0  0  0  0  0  0  0  0
   64.2650   30.4000   51.1890 C   0  0  0  0  0  0  0  0  0  0  0  0
   64.1470   31.3960   50.2930 N   0  0  0  0  0  0  0  0  0  0  0  0
   65.1590   32.2640   50.1190 C   0  0  0  0  0  0  0  0  0  0  0  0
   65.0130   33.2070   49.2520 N   0  0  0  0  0  0  0  0  0  0  0  0
   63.7940   33.4790   48.5670 C   0  0  0  0  0  0  0  0  0  0  0  0
   62.7060   33.9050   49.3080 C   0  0  0  0  0  0  0  0  0  0  0  0
   61.5050   34.1750   48.6450 C   0  0  0  0  0  0  0  0  0  0  0  0
   61.4280   34.0120   47.2790 C   0  0  0  0  0  0  0  0  0  0  0  0
   59.8830   34.3690   46.5100 S   0  0  0  0  0  0  0  0  0  0  0  0
   58.5800   33.6660   47.4850 C   0  0  0  0  0  0  0  0  0  0  0  0
   59.8140   33.8330   45.1210 O   0  0  0  0  0  0  0  0  0  0  0  0
   59.6680   35.8680   46.4230 O   0  0  0  0  0  0  0  0  0  0  0  0
   62.5150   33.5840   46.5290 C   0  0  0  0  0  0  0  0  0  0  0  0
   63.7170   33.3150   47.1940 C   0  0  0  0  0  0  0  0  0  0  0  0
   66.3170   32.2060   50.8000 N   0  0  0  0  0  0  0  0  0  0  0  0
   66.4880   31.2300   51.7090 C   0  0  0  0  0  0  0  0  0  0  0  0
   65.4530   30.3370   51.8910 C   0  0  0  0  0  0  0  0  0  0  0  0
   65.6460   29.3620   52.8120 F   0  0  0  0  0  0  0  0  0  0  0  0
   61.8690   29.6640   50.8520 C   0  0  0  0  0  0  0  0  0  0  0  0
   59.4260   29.6710   48.8760 C   0  0  0  0  0  0  0  0  0  0  0  0
   59.2550   30.0600   47.5670 C   0  0  0  0  0  0  0  0  0  0  0  0
   56.8467   33.0696   45.8967 H   0  0  0  0  0  0  0  0  0  0  0  0
   57.7381   33.2509   44.3477 H   0  0  0  0  0  0  0  0  0  0  0  0
   56.0567   32.6187   44.3477 H   0  0  0  0  0  0  0  0  0  0  0  0
   59.6250   31.7210   44.8010 H   0  0  0  0  0  0  0  0  0  0  0  0
   60.3351   29.5984   44.5843 H   0  0  0  0  0  0  0  0  0  0  0  0
   57.9475   28.0120   45.2069 H   0  0  0  0  0  0  0  0  0  0  0  0
   57.7320   29.1216   43.8109 H   0  0  0  0  0  0  0  0  0  0  0  0
   59.0748   27.9285   43.8109 H   0  0  0  0  0  0  0  0  0  0  0  0
   60.2436   27.2293   46.0651 H   0  0  0  0  0  0  0  0  0  0  0  0
   60.5470   26.5339   48.4010 H   0  0  0  0  0  0  0  0  0  0  0  0
   60.4417   28.8809   52.3075 H   0  0  0  0  0  0  0  0  0  0  0  0
   61.6858   26.8489   52.5752 H   0  0  0  0  0  0  0  0  0  0  0  0
   62.1892   26.7941   50.8880 H   0  0  0  0  0  0  0  0  0  0  0  0
   63.3378   28.4283   53.2027 H   0  0  0  0  0  0  0  0  0  0  0  0
   64.2225   27.6776   51.8848 H   0  0  0  0  0  0  0  0  0  0  0  0
   62.7844   34.0289   50.3982 H   0  0  0  0  0  0  0  0  0  0  0  0
   60.6257   34.5159   49.2113 H   0  0  0  0  0  0  0  0  0  0  0  0
   58.8125   33.7914   48.5528 H   0  0  0  0  0  0  0  0  0  0  0  0
   57.6330   34.1756   47.2536 H   0  0  0  0  0  0  0  0  0  0  0  0
   58.4860   32.5947   47.2536 H   0  0  0  0  0  0  0  0  0  0  0  0
   62.4337   33.4593   45.4391 H   0  0  0  0  0  0  0  0  0  0  0  0
   64.5969   32.9747   46.6283 H   0  0  0  0  0  0  0  0  0  0  0  0
   67.0670   32.9100   50.6200 H   0  0  0  0  0  0  0  0  0  0  0  0
   67.4203   31.1468   52.2869 H   0  0  0  0  0  0  0  0  0  0  0  0
   61.4765   30.6452   51.1573 H   0  0  0  0  0  0  0  0  0  0  0  0
   61.8711   29.6364   49.7523 H   0  0  0  0  0  0  0  0  0  0  0  0
   59.1876   30.3828   49.6800 H   0  0  0  0  0  0  0  0  0  0  0  0
   58.8844   31.0724   47.3486 H   0  0  0  0  0  0  0  0  0  0  0  0
  1  2  1  0
  2  3  2  0
  2  4  1  0
  4  5  1  0
  5  6  1  0
  5  7  1  0
  7  8  2  0
  8  9  1  0
  9 10  2  0
 10 11  1  0
 11 12  1  0
 12 13  1  0
 13 14  1  0
 14 15  1  0
 15 16  1  0
 16 17  2  0
 17 18  1  0
 18 19  2  0
 19 20  1  0
 20 21  2  0
 21 22  1  0
 22 23  2  0
 23 24  1  0
 24 25  1  0
 24 26  2  0
 24 27  2  0
 23 28  1  0
 28 29  2  0
 18 30  1  0
 30 31  1  0
 31 32  2  0
 32 33  1  0
 15 34  1  0
 10 35  1  0
 35 36  2  0
 36  7  1  0
 34 12  1  0
 32 16  1  0
 29 20  1  0
  1 37  1  0
  1 38  1  0
  1 39  1  0
  4 40  1  0
  5 41  1  6
  6 42  1  0
  6 43  1  0
  6 44  1  0
  8 45  1  0
  9 46  1  0
 12 47  1  1
 13 48  1  0
 13 49  1  0
 14 50  1  0
 14 51  1  0
 21 52  1  0
 22 53  1  0
 25 54  1  0
 25 55  1  0
 25 56  1  0
 28 57  1  0
 29 58  1  0
 30 59  1  0
 31 60  1  0
 34 61  1  0
 34 62  1  0
 35 63  1  0
 36 64  1  0
M  END
>  <smiles>  (1) 
CC(=O)NC(C)c1ccc(OC2CCN(c3nc(=Nc4ccc(S(C)(=O)=O)cc4)[nH]cc3F)C2)cc1

>  <score_type>  (1) 
oracle

>  <origin>  (1) 
adg

>  <m_score__min__energy>  (1) 
-10.720000000000001

>  <m_primary>  (1) 
energy

$$$$
1:0
     RDKit          3D

 48 51  0  0  0  0  0  0  0  0999 V2000
   56.9121   20.9680   41.6962 H   0  0  0  0  0  0  0  0  0  0  0  0
   56.7920   21.4900   42.6570 C   0  0  0  0  0  0  0  0  0  0  0  0
   55.6840   22.2170   42.9580 N   0  0  0  0  0  0  0  0  0  0  0  0
   55.7710   22.7690   44.1890 C   0  0  0  0  0  0  0  0  0  0  0  0
   54.8530   23.5080   44.7380 N   0  0  0  0  0  0  0  0  0  0  0  0
   55.0160   24.6350   45.6190 C   0  0  0  0  0  0  0  0  0  0  0  0
   54.1150   25.5170   45.6290 O   0  0  0  0  0  0  0  0  0  0  0  0
   56.1780   24.7910   46.5640 C   0  0  0  0  0  0  0  0  0  0  0  0
   55.7983   25.0610   47.5605 H   0  0  0  0  0  0  0  0  0  0  0  0
   56.7265   23.8385   46.6075 H   0  0  0  0  0  0  0  0  0  0  0  0
   57.0900   25.8350   46.1000 N   0  0  0  0  0  0  0  0  0  0  0  0
   56.7460   27.1020   45.9340 N   0  0  0  0  0  0  0  0  0  0  0  0
   57.8190   27.7550   45.4400 C   0  0  0  0  0  0  0  0  0  0  0  0
   57.8260   29.2040   45.1290 C   0  0  0  0  0  0  0  0  0  0  0  0
   56.8330   29.7820   44.3150 C   0  0  0  0  0  0  0  0  0  0  0  0
   56.0314   29.1522   43.9017 H   0  0  0  0  0  0  0  0  0  0  0  0
   56.8580   31.1500   44.0280 C   0  0  0  0  0  0  0  0  0  0  0  0
   56.0757   31.5890   43.3913 H   0  0  0  0  0  0  0  0  0  0  0  0
   57.8730   31.9660   44.5460 C   0  0  0  0  0  0  0  0  0  0  0  0
   57.8820   33.4390   44.2460 C   0  0  0  0  0  0  0  0  0  0  0  0
   58.2450   33.5982   43.2199 H   0  0  0  0  0  0  0  0  0  0  0  0
   56.8596   33.8315   44.3490 H   0  0  0  0  0  0  0  0  0  0  0  0
   58.7570   34.1410   45.1810 N   0  0  0  0  0  0  0  0  0  0  0  0
   59.6060   34.6210   44.8050 H   0  0  0  0  0  0  0  0  0  0  0  0
   58.4940   34.1960   46.5900 C   0  0  0  0  0  0  0  0  0  0  0  0
   57.5100   33.5790   47.0790 O   0  0  0  0  0  0  0  0  0  0  0  0
   59.4150   34.9520   47.4970 C   0  0  0  0  0  0  0  0  0  0  0  0
   59.6053   35.9492   47.0736 H   0  0  0  0  0  0  0  0  0  0  0  0
   58.9459   35.0498   48.4871 H   0  0  0  0  0  0  0  0  0  0  0  0
   60.7140   34.2170   47.6390 C   0  0  0  0  0  0  0  0  0  0  0  0
   61.4810   33.8110   46.5520 C   0  0  0  0  0  0  0  0  0  0  0  0
   61.2231   33.9463   45.4913 H   0  0  0  0  0  0  0  0  0  0  0  0
   62.8720   33.0770   47.1460 S   0  0  0  0  0  0  0  0  0  0  0  0
   62.5230   33.2760   48.7780 C   0  0  0  0  0  0  0  0  0  0  0  0
   63.1531   32.9483   49.6180 H   0  0  0  0  0  0  0  0  0  0  0  0
   61.3010   33.9260   48.8810 C   0  0  0  0  0  0  0  0  0  0  0  0
   60.8369   34.1880   49.8432 H   0  0  0  0  0  0  0  0  0  0  0  0
   58.8640   31.3950   45.3610 C   0  0  0  0  0  0  0  0  0  0  0  0
   59.6618   32.0278   45.7771 H   0  0  0  0  0  0  0  0  0  0  0  0
   58.8420   30.0280   45.6460 C   0  0  0  0  0  0  0  0  0  0  0  0
   59.6269   29.5914   46.2810 H   0  0  0  0  0  0  0  0  0  0  0  0
   58.8650   26.8590   45.2720 C   0  0  0  0  0  0  0  0  0  0  0  0
   59.8744   27.0688   44.8885 H   0  0  0  0  0  0  0  0  0  0  0  0
   58.3590   25.6480   45.6920 C   0  0  0  0  0  0  0  0  0  0  0  0
   58.9005   24.6905   45.6936 H   0  0  0  0  0  0  0  0  0  0  0  0
   57.2110   22.3700   44.9510 S   0  0  0  0  0  0  0  0  0  0  0  0
   57.7620   21.4540   43.6510 C   0  0  0  0  0  0  0  0  0  0  0  0
   58.7223   20.9201   43.5977 H   0  0  0  0  0  0  0  0  0  0  0  0
  1  2  1  0
  2  3  1  0
  3  4  1  0
  4  5  2  0
  5  6  1  0
  6  7  2  0
  6  8  1  0
  8  9  1  0
  8 10  1  0
  8 11  1  0
 11 12  1  0
 12 13  2  0
 13 14  1  0
 14 15  2  0
 15 16  1  0
 15 17  1  0
 17 18  1  0
 17 19  2  0
 19 20  1  0
 20 21  1  0
 20 22  1  0
 20 23  1  0
 23 24  1  0
 23 25  1  0
 25 26  2  0
 25 27  1  0
 27 28  1  0
 27 29  1  0
 27 30  1  0
 30 31  2  0
 31 32  1  0
 31 33  1  0
 33 34  1  0
 34 35  1  0
 34 36  2  0
 36 37  1  0
 19 38  1  0
 38 39  1  0
 38 40  2  0
 40 41  1  0
 13 42  1  0
 42 43  1  0
 42 44  2  0
 44 45  1  0
  4 46  1  0
 46 47  1  0
 47 48  1  0
 47  2  2  0
 44 11  1  0
 40 14  1  0
 36 30  1  0
M  CHG  1   3  -1
M  END
>  <UniqueID>  (2) 
1

>  <SMILES>  (2) 
O=C(Cn1ccc(-c2ccc(CNC(=O)Cc3ccsc3)cc2)n1)/N=c1\[n-]ccs1

>  <Energy>  (2) 
135.32962869656154

>  <Genealogy>  (2) 
O=C(Cn1ccc(-c2ccc(CNC(=O)Cc3ccsc3)cc2)n1)N=c1[n-]ccs1 (protonated)
O=C(Cn1ccc(-c2ccc(CNC(=O)Cc3ccsc3)cc2)n1)/N=c1\[n-]ccs1 (cis-trans isomerization)
O=C(Cn1ccc(-c2ccc(CNC(=O)Cc3ccsc3)cc2)n1)/N=c1\[n-]ccs1 (3D coordinates assigned)
O=C(Cn1ccc(-c2ccc(CNC(=O)Cc3ccsc3)cc2)n1)/N=c1\[n-]ccs1 (optimized conformer: 135.32962869656154 kcal/mol)

>  <smiles>  (2) 
O=C(Cn1ccc(-c2ccc(CNC(=O)Cc3ccsc3)cc2)n1)N=c1[nH]ccs1

>  <score_type>  (2) 
oracle

>  <origin>  (2) 
adg

>  <m_score__min__energy>  (2) 
-11.26

>  <m_primary>  (2) 
energy

$$$$
2:0
     RDKit          3D

 56 59  0  0  0  0  0  0  0  0999 V2000
   67.7003   32.4496   50.7735 H   0  0  0  0  0  0  0  0  0  0  0  0
   66.6520   32.1220   50.7120 C   0  0  0  0  0  0  0  0  0  0  0  0
   66.2080   31.1190   51.5110 N   0  0  0  0  0  0  0  0  0  0  0  0
   64.9150   30.6830   51.4620 C   0  0  0  0  0  0  0  0  0  0  0  0
   64.5889   29.8594   52.1143 H   0  0  0  0  0  0  0  0  0  0  0  0
   64.0060   31.2790   50.5870 C   0  0  0  0  0  0  0  0  0  0  0  0
   62.9638   30.9285   50.5559 H   0  0  0  0  0  0  0  0  0  0  0  0
   64.4220   32.3340   49.7390 C   0  0  0  0  0  0  0  0  0  0  0  0
   63.4890   33.0010   48.8370 N   0  0  0  0  0  0  0  0  0  0  0  0
   62.1430   33.3370   49.3510 C   0  0  0  0  0  0  0  0  0  0  0  0
   62.2628   33.8671   50.3074 H   0  0  0  0  0  0  0  0  0  0  0  0
   61.5999   32.3857   49.4518 H   0  0  0  0  0  0  0  0  0  0  0  0
   61.3080   34.2190   48.4160 C   0  0  0  0  0  0  0  0  0  0  0  0
   61.6830   35.2515   48.4735 H   0  0  0  0  0  0  0  0  0  0  0  0
   60.2584   34.1572   48.7394 H   0  0  0  0  0  0  0  0  0  0  0  0
   61.3820   33.7470   46.9610 C   0  0  0  0  0  0  0  0  0  0  0  0
   60.7768   34.3853   46.3005 H   0  0  0  0  0  0  0  0  0  0  0  0
   60.7580   32.3390   46.7780 C   0  0  0  0  0  0  0  0  0  0  0  0
   60.8198   31.8030   47.7366 H   0  0  0  0  0  0  0  0  0  0  0  0
   61.3244   31.8339   45.9817 H   0  0  0  0  0  0  0  0  0  0  0  0
   59.0460   32.3820   46.2620 S   0  0  0  0  0  0  0  0  0  0  0  0
   58.7450   33.6790   45.5570 O   0  0  0  0  0  0  0  0  0  0  0  0
   58.1770   32.2460   47.4830 O   0  0  0  0  0  0  0  0  0  0  0  0
   58.7710   31.0380   45.1950 N   0  0  0  0  0  0  0  0  0  0  0  0
   57.6470   30.4080   44.9860 C   0  0  0  0  0  0  0  0  0  0  0  0
   56.6040   30.9740   44.2220 C   0  0  0  0  0  0  0  0  0  0  0  0
   56.7079   31.9892   43.8115 H   0  0  0  0  0  0  0  0  0  0  0  0
   55.4410   30.2400   43.9900 C   0  0  0  0  0  0  0  0  0  0  0  0
   54.6266   30.6776   43.3940 H   0  0  0  0  0  0  0  0  0  0  0  0
   55.3100   28.9850   44.4980 N   0  0  0  0  0  0  0  0  0  0  0  0
   56.2880   28.4100   45.2460 C   0  0  0  0  0  0  0  0  0  0  0  0
   56.1484   27.3923   45.6394 H   0  0  0  0  0  0  0  0  0  0  0  0
   57.4770   29.1080   45.5200 C   0  0  0  0  0  0  0  0  0  0  0  0
   58.5360   28.4430   46.3220 C   0  0  0  0  0  0  0  0  0  0  0  0
   58.9040   28.9940   47.5630 C   0  0  0  0  0  0  0  0  0  0  0  0
   58.4029   29.9030   47.9271 H   0  0  0  0  0  0  0  0  0  0  0  0
   59.9010   28.3950   48.3360 C   0  0  0  0  0  0  0  0  0  0  0  0
   60.1692   28.8230   49.3132 H   0  0  0  0  0  0  0  0  0  0  0  0
   60.5570   27.2560   47.8720 C   0  0  0  0  0  0  0  0  0  0  0  0
   61.3590   26.8015   48.4722 H   0  0  0  0  0  0  0  0  0  0  0  0
   60.1980   26.6910   46.6470 C   0  0  0  0  0  0  0  0  0  0  0  0
   60.7054   25.7807   46.2949 H   0  0  0  0  0  0  0  0  0  0  0  0
   59.1880   27.2810   45.8580 C   0  0  0  0  0  0  0  0  0  0  0  0
   58.8140   26.7440   44.6190 O   0  0  0  0  0  0  0  0  0  0  0  0
   57.8040   25.7530   44.4450 C   0  0  0  0  0  0  0  0  0  0  0  0
   57.4539   25.4095   45.4296 H   0  0  0  0  0  0  0  0  0  0  0  0
   56.9604   26.1835   43.8856 H   0  0  0  0  0  0  0  0  0  0  0  0
   58.2184   24.9014   43.8856 H   0  0  0  0  0  0  0  0  0  0  0  0
   62.8480   33.8450   46.5360 C   0  0  0  0  0  0  0  0  0  0  0  0
   63.1774   34.8887   46.6467 H   0  0  0  0  0  0  0  0  0  0  0  0
   62.9144   33.5059   45.4917 H   0  0  0  0  0  0  0  0  0  0  0  0
   63.7680   32.9490   47.3730 C   0  0  0  0  0  0  0  0  0  0  0  0
   64.8076   33.2675   47.2065 H   0  0  0  0  0  0  0  0  0  0  0  0
   63.5881   31.9133   47.0490 H   0  0  0  0  0  0  0  0  0  0  0  0
   65.7810   32.7390   49.8120 C   0  0  0  0  0  0  0  0  0  0  0  0
   66.1491   33.5422   49.1567 H   0  0  0  0  0  0  0  0  0  0  0  0
  1  2  1  0
  2  3  2  0
  3  4  1  0
  4  5  1  0
  4  6  2  0
  6  7  1  0
  6  8  1  0
  8  9  1  0
  9 10  1  0
 10 11  1  0
 10 12  1  0
 10 13  1  0
 13 14  1  0
 13 15  1  0
 13 16  1  0
 16 17  1  0
 16 18  1  0
 18 19  1  0
 18 20  1  0
 18 21  1  0
 21 22  2  0
 21 23  2  0
 21 24  1  0
 24 25  2  0
 25 26  1  0
 26 27  1  0
 26 28  2  0
 28 29  1  0
 28 30  1  0
 30 31  1  0
 31 32  1  0
 31 33  2  0
 33 34  1  0
 34 35  2  0
 35 36  1  0
 35 37  1  0
 37 38  1  0
 37 39  2  0
 39 40  1  0
 39 41  1  0
 41 42  1  0
 41 43  2  0
 43 44  1  0
 44 45  1  0
 45 46  1  0
 45 47  1  0
 45 48  1  0
 16 49  1  0
 49 50  1  0
 49 51  1  0
 49 52  1  0
 52 53  1  0
 52 54  1  0
  8 55  2  0
 55 56  1  0
 55  2  1  0
 52  9  1  0
 33 25  1  0
 43 34  1  0
M  CHG  1  30  -1
M  END
>  <UniqueID>  (3) 
2

>  <SMILES>  (3) 
COc1ccccc1-c1c[n-]cc/c1=N\S(=O)(=O)CC1CCN(c2ccncc2)CC1

>  <Energy>  (3) 
71.29693028230595

>  <Genealogy>  (3) 
COc1ccccc1-c1c[n-]ccc1=NS(=O)(=O)CC1CCN(c2ccncc2)CC1 (protonated)
COc1ccccc1-c1c[n-]cc/c1=N\S(=O)(=O)CC1CCN(c2ccncc2)CC1 (cis-trans isomerization)
COc1ccccc1-c1c[n-]cc/c1=N\S(=O)(=O)CC1CCN(c2ccncc2)CC1 (3D coordinates assigned)
COc1ccccc1-c1c[n-]cc/c1=N\S(=O)(=O)CC1CCN(c2ccncc2)CC1 (nonaromatic ring conformer: 71.29693028230595 kcal/mol)

>  <smiles>  (3) 
COc1ccccc1-c1c[nH]ccc1=NS(=O)(=O)CC1CCN(c2ccncc2)CC1

>  <score_type>  (3) 
oracle

>  <origin>  (3) 
adg

>  <m_score__min__energy>  (3) 
-10.710000000000001

>  <m_primary>  (3) 
energy

$$$$
3:0
     RDKit          3D

 58 61  0  0  0  0  0  0  0  0999 V2000
   59.9140   28.1450   46.3810 C   0  0  0  0  0  0  0  0  0  0  0  0
   58.7450   27.1970   46.3810 C   0  0  0  0  0  0  0  0  0  0  0  0
   58.8230   25.9910   47.0930 C   0  0  0  0  0  0  0  0  0  0  0  0
   57.7470   25.1030   47.1050 C   0  0  0  0  0  0  0  0  0  0  0  0
   56.5740   25.4040   46.3990 C   0  0  0  0  0  0  0  0  0  0  0  0
   55.4290   24.4260   46.3650 C   0  0  0  0  0  0  0  0  0  0  0  0
   55.8380   23.1660   45.6650 C   0  0  0  0  0  0  0  0  0  0  0  0
   55.6160   22.9330   44.3600 N   0  0  0  0  0  0  0  0  0  0  0  0
   56.2100   21.7390   44.1510 C   0  0  0  0  0  0  0  0  0  0  0  0
   56.2150   21.1730   43.0270 O   0  0  0  0  0  0  0  0  0  0  0  0
   56.8060   21.2030   45.2380 N   0  0  0  0  0  0  0  0  0  0  0  0
   56.5680   22.1190   46.1890 C   0  0  0  0  0  0  0  0  0  0  0  0
   57.0180   21.9930   47.5010 O   0  0  0  0  0  0  0  0  0  0  0  0
   56.4870   26.6120   45.6900 C   0  0  0  0  0  0  0  0  0  0  0  0
   57.5580   27.5250   45.6950 C   0  0  0  0  0  0  0  0  0  0  0  0
   57.4940   28.7570   44.9600 N   0  0  0  0  0  0  0  0  0  0  0  0
   56.4160   29.7040   44.9460 C   0  0  0  0  0  0  0  0  0  0  0  0
   55.2370   29.3330   44.7070 O   0  0  0  0  0  0  0  0  0  0  0  0
   56.6650   31.0910   45.2040 N   0  0  0  0  0  0  0  0  0  0  0  0
   57.9100   31.6590   45.6350 C   0  0  0  0  0  0  0  0  0  0  0  0
   58.7610   30.9940   46.5360 C   0  0  0  0  0  0  0  0  0  0  0  0
   59.9520   31.5950   46.9580 C   0  0  0  0  0  0  0  0  0  0  0  0
   60.2960   32.8800   46.5120 C   0  0  0  0  0  0  0  0  0  0  0  0
   61.5570   33.5170   46.9480 C   0  0  0  0  0  0  0  0  0  0  0  0
   62.2600   34.1280   46.0960 O   0  0  0  0  0  0  0  0  0  0  0  0
   61.9960   33.4570   48.3190 N   0  0  0  0  0  0  0  0  0  0  0  0
   61.0070   33.6810   49.3850 C   0  0  0  0  0  0  0  0  0  0  0  0
   61.6710   33.8050   50.7510 C   0  0  0  0  0  0  0  0  0  0  0  0
   62.6730   32.7380   50.8750 N   0  0  0  0  0  0  0  0  0  0  0  0
   63.0970   32.5940   52.2770 C   0  0  0  0  0  0  0  0  0  0  0  0
   63.8360   33.0360   50.0150 C   0  0  0  0  0  0  0  0  0  0  0  0
   63.4460   33.4870   48.5850 C   0  0  0  0  0  0  0  0  0  0  0  0
   59.4440   33.5430   45.6130 C   0  0  0  0  0  0  0  0  0  0  0  0
   58.2540   32.9420   45.1930 C   0  0  0  0  0  0  0  0  0  0  0  0
   60.1988   28.3759   47.4181 H   0  0  0  0  0  0  0  0  0  0  0  0
   60.7645   27.6784   45.8625 H   0  0  0  0  0  0  0  0  0  0  0  0
   59.6331   29.0735   45.8625 H   0  0  0  0  0  0  0  0  0  0  0  0
   59.7406   25.7432   47.6468 H   0  0  0  0  0  0  0  0  0  0  0  0
   57.8194   24.1625   47.6710 H   0  0  0  0  0  0  0  0  0  0  0  0
   55.1265   24.1864   47.3951 H   0  0  0  0  0  0  0  0  0  0  0  0
   54.5884   24.8800   45.8197 H   0  0  0  0  0  0  0  0  0  0  0  0
   57.7740   22.5600   47.8590 H   0  0  0  0  0  0  0  0  0  0  0  0
   55.5730   26.8475   45.1250 H   0  0  0  0  0  0  0  0  0  0  0  0
   58.4888   29.9963   46.9108 H   0  0  0  0  0  0  0  0  0  0  0  0
   60.6228   31.0567   47.6437 H   0  0  0  0  0  0  0  0  0  0  0  0
   60.4556   34.6084   49.1709 H   0  0  0  0  0  0  0  0  0  0  0  0
   60.3277   32.8162   49.4105 H   0  0  0  0  0  0  0  0  0  0  0  0
   62.1598   34.7865   50.8393 H   0  0  0  0  0  0  0  0  0  0  0  0
   60.9185   33.7130   51.5481 H   0  0  0  0  0  0  0  0  0  0  0  0
   62.2672   32.8758   52.9418 H   0  0  0  0  0  0  0  0  0  0  0  0
   63.3815   31.5488   52.4685 H   0  0  0  0  0  0  0  0  0  0  0  0
   63.9592   33.2497   52.4685 H   0  0  0  0  0  0  0  0  0  0  0  0
   64.4211   33.8394   50.4863 H   0  0  0  0  0  0  0  0  0  0  0  0
   64.4125   32.1045   49.9152 H   0  0  0  0  0  0  0  0  0  0  0  0
   63.8029   34.5171   48.4382 H   0  0  0  0  0  0  0  0  0  0  0  0
   63.9111   32.7731   47.8892 H   0  0  0  0  0  0  0  0  0  0  0  0
   59.7149   34.5408   45.2375 H   0  0  0  0  0  0  0  0  0  0  0  0
   57.5821   33.4817   44.5094 H   0  0  0  0  0  0  0  0  0  0  0  0
  1  2  1  0
  2  3  2  0
  3  4  1  0
  4  5  2  0
  5  6  1  0
  6  7  1  0
  7  8  1  0
  8  9  1  0
  9 10  2  0
  9 11  1  0
 11 12  1  0
 12 13  1  0
  5 14  1  0
 14 15  2  0
 15 16  1  0
 16 17  1  0
 17 18  2  0
 17 19  1  0
 19 20  1  0
 20 21  2  0
 21 22  1  0
 22 23  2  0
 23 24  1  0
 24 25  2  0
 24 26  1  0
 26 27  1  0
 27 28  1  0
 28 29  1  0
 29 30  1  0
 29 31  1  0
 31 32  1  0
 23 33  1  0
 33 34  2  0
 15  2  1  0
 34 20  1  0
 12  7  2  0
 32 26  1  0
  1 35  1  0
  1 36  1  0
  1 37  1  0
  3 38  1  0
  4 39  1  0
  6 40  1  0
  6 41  1  0
 13 42  1  0
 14 43  1  0
 21 44  1  0
 22 45  1  0
 27 46  1  0
 27 47  1  0
 28 48  1  0
 28 49  1  0
 30 50  1  0
 30 51  1  0
 30 52  1  0
 31 53  1  0
 31 54  1  0
 32 55  1  0
 32 56  1  0
 33 57  1  0
 34 58  1  0
M  CHG  4   8  -1  11  -1  16  -1  19  -1
M  END
>  <UniqueID>  (4) 
3

>  <SMILES>  (4) 
Cc1ccc(Cc2[n-]c(=O)[n-]c2O)cc1[N-]C(=O)[N-]c1ccc(C(=O)N2CCN(C)CC2)cc1

>  <Energy>  (4) 
104.75536697886434

>  <Genealogy>  (4) 
Cc1ccc(Cc2[n-]c(=O)[n-]c2O)cc1[N-]C(=O)[N-]c1ccc(C(=O)N2CCN(C)CC2)cc1 (protonated)
Cc1ccc(Cc2[n-]c(=O)[n-]c2O)cc1[N-]C(=O)[N-]c1ccc(C(=O)N2CCN(C)CC2)cc1 (3D coordinates assigned)
Cc1ccc(Cc2[n-]c(=O)[n-]c2O)cc1[N-]C(=O)[N-]c1ccc(C(=O)N2CCN(C)CC2)cc1 (nonaromatic ring conformer: 104.75536697886434 kcal/mol)

>  <smiles>  (4) 
Cc1ccc(Cc2[nH]c(=O)[nH]c2O)cc1NC(=O)Nc1ccc(C(=O)N2CCN(C)CC2)cc1

>  <score_type>  (4) 
oracle

>  <origin>  (4) 
adg

>  <m_score__min__energy>  (4) 
-16.280000000000001

>  <m_primary>  (4) 
energy

$$$$
4:0
     RDKit          3D

 33 35  0  0  0  0  0  0  0  0999 V2000
   53.9346   28.3681   53.5209 H   0  0  0  0  0  0  0  0  0  0  0  0
   54.3860   29.1970   52.9560 C   0  0  0  0  0  0  0  0  0  0  0  0
   56.0310   29.4440   52.7040 S   0  0  0  0  0  0  0  0  0  0  0  0
   55.7910   30.8540   51.8090 C   0  0  0  0  0  0  0  0  0  0  0  0
   56.7120   31.6070   51.2820 N   0  0  0  0  0  0  0  0  0  0  0  0
   58.1260   31.3550   51.2290 C   0  0  0  0  0  0  0  0  0  0  0  0
   58.8490   31.4380   52.2580 O   0  0  0  0  0  0  0  0  0  0  0  0
   58.7590   31.0350   49.9120 C   0  0  0  0  0  0  0  0  0  0  0  0
   59.7506   30.5906   50.0828 H   0  0  0  0  0  0  0  0  0  0  0  0
   58.1203   30.3238   49.3676 H   0  0  0  0  0  0  0  0  0  0  0  0
   58.9090   32.2880   49.0960 C   0  0  0  0  0  0  0  0  0  0  0  0
   58.2810   32.3980   47.8430 C   0  0  0  0  0  0  0  0  0  0  0  0
   57.6552   31.5741   47.4694 H   0  0  0  0  0  0  0  0  0  0  0  0
   58.4490   33.5510   47.0700 C   0  0  0  0  0  0  0  0  0  0  0  0
   57.9485   33.6361   46.0942 H   0  0  0  0  0  0  0  0  0  0  0  0
   59.2520   34.5950   47.5360 C   0  0  0  0  0  0  0  0  0  0  0  0
   59.3816   35.5022   46.9276 H   0  0  0  0  0  0  0  0  0  0  0  0
   59.8900   34.4880   48.7730 C   0  0  0  0  0  0  0  0  0  0  0  0
   60.5245   35.3098   49.1364 H   0  0  0  0  0  0  0  0  0  0  0  0
   59.7240   33.3380   49.5510 C   0  0  0  0  0  0  0  0  0  0  0  0
   60.2332   33.2552   50.5225 H   0  0  0  0  0  0  0  0  0  0  0  0
   54.4790   31.1510   51.6960 N   0  0  0  0  0  0  0  0  0  0  0  0
   53.6970   30.2290   52.3220 C   0  0  0  0  0  0  0  0  0  0  0  0
   52.2080   30.3710   52.3790 C   0  0  0  0  0  0  0  0  0  0  0  0
   51.7586   29.3981   52.6272 H   0  0  0  0  0  0  0  0  0  0  0  0
   51.9452   31.1109   53.1494 H   0  0  0  0  0  0  0  0  0  0  0  0
   51.6870   30.8340   51.0560 C   0  0  0  0  0  0  0  0  0  0  0  0
   51.6080   30.0560   49.9610 N   0  0  0  0  0  0  0  0  0  0  0  0
   51.0250   30.8640   49.0480 C   0  0  0  0  0  0  0  0  0  0  0  0
   50.7810   30.4910   47.8710 O   0  0  0  0  0  0  0  0  0  0  0  0
   50.7160   32.0990   49.4980 N   0  0  0  0  0  0  0  0  0  0  0  0
   51.1370   32.0610   50.7720 C   0  0  0  0  0  0  0  0  0  0  0  0
   51.0150   33.1230   51.6610 O   0  0  0  0  0  0  0  0  0  0  0  0
  1  2  1  0
  2  3  1  0
  3  4  1  0
  4  5  2  0
  5  6  1  0
  6  7  2  0
  6  8  1  0
  8  9  1  0
  8 10  1  0
  8 11  1  0
 11 12  2  0
 12 13  1  0
 12 14  1  0
 14 15  1  0
 14 16  2  0
 16 17  1  0
 16 18  1  0
 18 19  1  0
 18 20  2  0
 20 21  1  0
  4 22  1  0
 22 23  1  0
 23 24  1  0
 24 25  1  0
 24 26  1  0
 24 27  1  0
 27 28  1  0
 28 29  1  0
 29 30  2  0
 29 31  1  0
 31 32  1  0
 32 33  1  0
 23  2  2  0
 32 27  2  0
 20 11  1  0
M  CHG  4  22  -1  28  -1  31  -1  33  -1
M  END
>  <UniqueID>  (5) 
4

>  <SMILES>  (5) 
O=C(Cc1ccccc1)/N=c1/[n-]c(Cc2[n-]c(=O)[n-]c2[O-])cs1

>  <Energy>  (5) 
93.71338420053752

>  <Genealogy>  (5) 
O=C(Cc1ccccc1)N=c1[n-]c(Cc2[n-]c(=O)[n-]c2[O-])cs1 (protonated)
O=C(Cc1ccccc1)/N=c1/[n-]c(Cc2[n-]c(=O)[n-]c2[O-])cs1 (cis-trans isomerization)
O=C(Cc1ccccc1)/N=c1/[n-]c(Cc2[n-]c(=O)[n-]c2[O-])cs1 (3D coordinates assigned)
O=C(Cc1ccccc1)/N=c1/[n-]c(Cc2[n-]c(=O)[n-]c2[O-])cs1 (optimized conformer: 93.71338420053752 kcal/mol)

>  <smiles>  (5) 
O=C(Cc1ccccc1)N=c1[nH]c(Cc2[nH]c(=O)[nH]c2O)cs1

>  <score_type>  (5) 
oracle

>  <origin>  (5) 
adg

>  <m_score__min__energy>  (5) 
-17.300000000000001

>  <m_primary>  (5) 
energy

$$$$
5:0
     RDKit          3D

 63 66  0  0  0  0  0  0  0  0999 V2000
   49.9070   31.0600   53.2080 N   0  0  0  0  0  0  0  0  0  0  0  0
   51.0420   30.8620   53.1000 C   0  0  0  0  0  0  0  0  0  0  0  0
   52.4550   30.6170   52.9660 C   0  0  0  0  0  0  0  0  0  0  0  0
   53.1640   31.1630   51.8890 C   0  0  0  0  0  0  0  0  0  0  0  0
   54.5360   30.9250   51.7580 C   0  0  0  0  0  0  0  0  0  0  0  0
   55.2090   30.1310   52.7000 C   0  0  0  0  0  0  0  0  0  0  0  0
   56.6860   29.8790   52.5520 C   0  0  0  0  0  0  0  0  0  0  0  0
   57.2930   30.8560   51.6240 N   0  0  0  0  0  0  0  0  0  0  0  0
   58.1880   30.1650   50.6750 C   0  0  0  0  0  0  0  0  0  0  0  0
   58.8900   31.1610   49.7240 C   0  0  0  0  0  0  0  0  0  0  0  0
   58.4780   32.5540   49.9900 N   0  0  0  0  0  0  0  0  0  0  0  0
   59.1970   33.4590   49.1130 C   0  0  0  0  0  0  0  0  0  0  0  0
   60.0700   34.2370   49.5940 O   0  0  0  0  0  0  0  0  0  0  0  0
   58.9440   33.4920   47.6510 C   0  0  0  0  0  0  0  0  0  0  0  0
   59.2540   34.6260   46.8790 C   0  0  0  0  0  0  0  0  0  0  0  0
   59.0120   34.6290   45.5010 C   0  0  0  0  0  0  0  0  0  0  0  0
   58.4570   33.5080   44.8820 C   0  0  0  0  0  0  0  0  0  0  0  0
   58.1320   32.3770   45.6400 C   0  0  0  0  0  0  0  0  0  0  0  0
   57.4320   30.9540   44.8740 S   0  0  0  0  0  0  0  0  0  0  0  0
   56.0030   31.2040   44.4710 O   0  0  0  0  0  0  0  0  0  0  0  0
   58.2320   30.6200   43.6470 O   0  0  0  0  0  0  0  0  0  0  0  0
   57.4850   29.6090   45.9670 N   0  0  0  0  0  0  0  0  0  0  0  0
   58.6810   29.0610   46.5340 C   0  0  0  0  0  0  0  0  0  0  0  0
   58.5970   27.9670   47.1530 O   0  0  0  0  0  0  0  0  0  0  0  0
   59.9810   29.7740   46.4390 C   0  0  0  0  0  0  0  0  0  0  0  0
   60.8840   29.8840   47.4260 C   0  0  0  0  0  0  0  0  0  0  0  0
   61.6560   31.1030   47.7390 C   0  0  0  0  0  0  0  0  0  0  0  0
   62.2460   31.2400   49.0040 C   0  0  0  0  0  0  0  0  0  0  0  0
   62.9380   32.4090   49.3370 C   0  0  0  0  0  0  0  0  0  0  0  0
   63.0240   33.4580   48.4170 C   0  0  0  0  0  0  0  0  0  0  0  0
   62.4260   33.3350   47.1580 C   0  0  0  0  0  0  0  0  0  0  0  0
   61.7340   32.1650   46.8210 C   0  0  0  0  0  0  0  0  0  0  0  0
   58.3710   32.3740   47.0210 C   0  0  0  0  0  0  0  0  0  0  0  0
   58.7200   32.9000   51.4060 C   0  0  0  0  0  0  0  0  0  0  0  0
   58.0360   31.8990   52.3640 C   0  0  0  0  0  0  0  0  0  0  0  0
   54.4950   29.5920   53.7840 C   0  0  0  0  0  0  0  0  0  0  0  0
   53.1230   29.8330   53.9140 C   0  0  0  0  0  0  0  0  0  0  0  0
   52.6407   31.7806   51.1442 H   0  0  0  0  0  0  0  0  0  0  0  0
   55.0897   31.3616   50.9137 H   0  0  0  0  0  0  0  0  0  0  0  0
   57.1680   29.9689   53.5367 H   0  0  0  0  0  0  0  0  0  0  0  0
   56.8329   28.8674   52.1457 H   0  0  0  0  0  0  0  0  0  0  0  0
   58.9527   29.6143   51.2424 H   0  0  0  0  0  0  0  0  0  0  0  0
   57.5798   29.4797   50.0663 H   0  0  0  0  0  0  0  0  0  0  0  0
   59.9782   31.0787   49.8619 H   0  0  0  0  0  0  0  0  0  0  0  0
   58.6030   30.9099   48.6922 H   0  0  0  0  0  0  0  0  0  0  0  0
   57.4490   32.6500   49.8140 H   0  0  0  0  0  0  0  0  0  0  0  0
   59.6886   35.5143   47.3607 H   0  0  0  0  0  0  0  0  0  0  0  0
   59.2601   35.5184   44.9031 H   0  0  0  0  0  0  0  0  0  0  0  0
   58.2748   33.5133   43.7972 H   0  0  0  0  0  0  0  0  0  0  0  0
   60.2240   30.2522   45.4786 H   0  0  0  0  0  0  0  0  0  0  0  0
   61.0629   28.9964   48.0506 H   0  0  0  0  0  0  0  0  0  0  0  0
   62.1641   30.4244   49.7376 H   0  0  0  0  0  0  0  0  0  0  0  0
   63.4150   32.5030   50.3237 H   0  0  0  0  0  0  0  0  0  0  0  0
   63.5617   34.3801   48.6828 H   0  0  0  0  0  0  0  0  0  0  0  0
   62.4995   34.1582   46.4321 H   0  0  0  0  0  0  0  0  0  0  0  0
   61.2508   32.0768   45.8367 H   0  0  0  0  0  0  0  0  0  0  0  0
   58.1076   31.4881   47.6175 H   0  0  0  0  0  0  0  0  0  0  0  0
   59.8036   32.8907   51.5950 H   0  0  0  0  0  0  0  0  0  0  0  0
   58.2958   33.8976   51.5925 H   0  0  0  0  0  0  0  0  0  0  0  0
   58.8055   31.4164   52.9845 H   0  0  0  0  0  0  0  0  0  0  0  0
   57.3195   32.4545   52.9869 H   0  0  0  0  0  0  0  0  0  0  0  0
   55.0169   28.9783   54.5330 H   0  0  0  0  0  0  0  0  0  0  0  0
   52.5683   29.4058   54.7624 H   0  0  0  0  0  0  0  0  0  0  0  0
  1  2  3  0
  2  3  1  0
  3  4  2  0
  4  5  1  0
  5  6  2  0
  6  7  1  0
  7  8  1  0
  8  9  1  0
  9 10  1  0
 10 11  1  0
 11 12  1  0
 12 13  2  0
 12 14  1  0
 14 15  2  0
 15 16  1  0
 16 17  2  0
 17 18  1  0
 18 19  1  0
 19 20  2  0
 19 21  2  0
 19 22  1  0
 22 23  1  0
 23 24  2  0
 23 25  1  0
 25 26  2  3
 26 27  1  0
 27 28  2  0
 28 29  1  0
 29 30  2  0
 30 31  1  0
 31 32  2  0
 18 33  2  0
 11 34  1  0
 34 35  1  0
  6 36  1  0
 36 37  2  0
 37  3  1  0
 35  8  1  0
 33 14  1  0
 32 27  1  0
  4 38  1  0
  5 39  1  0
  7 40  1  0
  7 41  1  0
  9 42  1  0
  9 43  1  0
 10 44  1  0
 10 45  1  0
 11 46  1  0
 15 47  1  0
 16 48  1  0
 17 49  1  0
 25 50  1  0
 26 51  1  0
 28 52  1  0
 29 53  1  0
 30 54  1  0
 31 55  1  0
 32 56  1  0
 33 57  1  0
 34 58  1  0
 34 59  1  0
 35 60  1  0
 35 61  1  0
 36 62  1  0
 37 63  1  0
M  CHG  2  11   1  22  -1
M  END
>  <UniqueID>  (6) 
5

>  <SMILES>  (6) 
N#Cc1ccc(CN2CC[NH+](C(=O)c3cccc(S(=O)(=O)[N-]C(=O)C=Cc4ccccc4)c3)CC2)cc1

>  <Energy>  (6) 
88.98653771455984

>  <Genealogy>  (6) 
N#Cc1ccc(CN2CC[NH+](C(=O)c3cccc(S(=O)(=O)[N-]C(=O)C=Cc4ccccc4)c3)CC2)cc1 (protonated)
N#Cc1ccc(CN2CC[NH+](C(=O)c3cccc(S(=O)(=O)[N-]C(=O)C=Cc4ccccc4)c3)CC2)cc1 (3D coordinates assigned)
N#Cc1ccc(CN2CC[NH+](C(=O)c3cccc(S(=O)(=O)[N-]C(=O)C=Cc4ccccc4)c3)CC2)cc1 (nonaromatic ring conformer: 88.98653771455984 kcal/mol)

>  <smiles>  (6) 
N#Cc1ccc(CN2CCN(C(=O)c3cccc(S(=O)(=O)NC(=O)C=Cc4ccccc4)c3)CC2)cc1

>  <score_type>  (6) 
oracle

>  <origin>  (6) 
adg

>  <m_score__min__energy>  (6) 
-10.48

>  <m_primary>  (6) 
energy

$$$$
6:0
     RDKit          3D

 52 54  0  0  0  0  0  0  0  0999 V2000
   60.5930   33.0340   52.6070 C   0  0  0  0  0  0  0  0  0  0  0  0
   59.1210   32.8620   52.6410 N   0  0  0  0  0  0  0  0  0  0  0  0
   58.7000   32.4660   54.0070 C   0  0  0  0  0  0  0  0  0  0  0  0
   58.4890   34.1630   52.3140 C   0  0  0  0  0  0  0  0  0  0  0  0
   58.6750   31.8580   51.6290 C   0  0  0  0  0  0  0  0  0  0  0  0
   59.0760   32.1920   50.2110 C   0  0  0  0  0  0  0  0  0  0  0  0
   60.2610   31.9770   49.8380 O   0  0  0  0  0  0  0  0  0  0  0  0
   58.1040   32.7160   49.2920 N   0  0  0  0  0  0  0  0  0  0  0  0
   58.4110   33.1410   47.9540 C   0  0  0  0  0  0  0  0  0  0  0  0
   57.9510   32.4210   46.8370 C   0  0  0  0  0  0  0  0  0  0  0  0
   58.2920   32.8230   45.5340 C   0  0  0  0  0  0  0  0  0  0  0  0
   57.7890   32.0540   44.3380 C   0  0  0  0  0  0  0  0  0  0  0  0
   57.3180   30.6740   44.7290 C   0  0  0  0  0  0  0  0  0  0  0  0
   56.0110   30.3630   44.5180 N   0  0  0  0  0  0  0  0  0  0  0  0
   55.5090   29.1660   44.8200 N   0  0  0  0  0  0  0  0  0  0  0  0
   56.2790   28.1840   45.3500 C   0  0  0  0  0  0  0  0  0  0  0  0
   55.7590   27.0730   45.6330 O   0  0  0  0  0  0  0  0  0  0  0  0
   57.6430   28.4250   45.5750 C   0  0  0  0  0  0  0  0  0  0  0  0
   58.1750   29.6870   45.2660 C   0  0  0  0  0  0  0  0  0  0  0  0
   59.6340   29.9230   45.5890 C   0  0  0  0  0  0  0  0  0  0  0  0
   60.4950   28.7380   45.1220 C   0  0  0  0  0  0  0  0  0  0  0  0
   59.9050   27.3450   45.4640 C   0  0  0  0  0  0  0  0  0  0  0  0
   58.5510   27.3890   46.1930 C   0  0  0  0  0  0  0  0  0  0  0  0
   59.0840   33.9700   45.3570 C   0  0  0  0  0  0  0  0  0  0  0  0
   59.5580   34.6780   46.4620 C   0  0  0  0  0  0  0  0  0  0  0  0
   59.2360   34.2610   47.7550 C   0  0  0  0  0  0  0  0  0  0  0  0
   59.7060   34.9630   48.8170 F   0  0  0  0  0  0  0  0  0  0  0  0
   60.9807   33.0793   53.6354 H   0  0  0  0  0  0  0  0  0  0  0  0
   61.0495   32.1831   52.0802 H   0  0  0  0  0  0  0  0  0  0  0  0
   60.8410   33.9672   52.0802 H   0  0  0  0  0  0  0  0  0  0  0  0
   59.2916   33.0225   54.7488 H   0  0  0  0  0  0  0  0  0  0  0  0
   57.6327   32.6951   54.1426 H   0  0  0  0  0  0  0  0  0  0  0  0
   58.8634   31.3867   54.1426 H   0  0  0  0  0  0  0  0  0  0  0  0
   58.2328   34.6904   53.2447 H   0  0  0  0  0  0  0  0  0  0  0  0
   59.1906   34.7743   51.7274 H   0  0  0  0  0  0  0  0  0  0  0  0
   57.5748   33.9894   51.7274 H   0  0  0  0  0  0  0  0  0  0  0  0
   59.1137   30.8841   51.8919 H   0  0  0  0  0  0  0  0  0  0  0  0
   57.5753   31.8490   51.6541 H   0  0  0  0  0  0  0  0  0  0  0  0
   57.1000   32.7070   49.5840 H   0  0  0  0  0  0  0  0  0  0  0  0
   57.3176   31.5338   46.9846 H   0  0  0  0  0  0  0  0  0  0  0  0
   56.9503   32.6037   43.8859 H   0  0  0  0  0  0  0  0  0  0  0  0
   58.6170   31.9473   43.6217 H   0  0  0  0  0  0  0  0  0  0  0  0
   59.9727   30.8375   45.0802 H   0  0  0  0  0  0  0  0  0  0  0  0
   59.7413   30.0291   46.6786 H   0  0  0  0  0  0  0  0  0  0  0  0
   60.6094   28.8048   44.0300 H   0  0  0  0  0  0  0  0  0  0  0  0
   61.4524   28.8143   45.6582 H   0  0  0  0  0  0  0  0  0  0  0  0
   59.7720   26.7879   44.5249 H   0  0  0  0  0  0  0  0  0  0  0  0
   60.6159   26.8636   46.1517 H   0  0  0  0  0  0  0  0  0  0  0  0
   58.0715   26.4015   46.1232 H   0  0  0  0  0  0  0  0  0  0  0  0
   58.7257   27.6561   47.2457 H   0  0  0  0  0  0  0  0  0  0  0  0
   59.3318   34.3119   44.3413 H   0  0  0  0  0  0  0  0  0  0  0  0
   60.1876   35.5678   46.3139 H   0  0  0  0  0  0  0  0  0  0  0  0
  1  2  1  0
  2  3  1  0
  2  4  1  0
  2  5  1  0
  5  6  1  0
  6  7  2  0
  6  8  1  0
  8  9  1  0
  9 10  2  0
 10 11  1  0
 11 12  1  0
 12 13  1  0
 13 14  2  0
 14 15  1  0
 15 16  1  0
 16 17  2  0
 16 18  1  0
 18 19  2  0
 19 20  1  0
 20 21  1  0
 21 22  1  0
 22 23  1  0
 11 24  2  0
 24 25  1  0
 25 26  2  0
 26 27  1  0
 26  9  1  0
 19 13  1  0
 23 18  1  0
  1 28  1  0
  1 29  1  0
  1 30  1  0
  3 31  1  0
  3 32  1  0
  3 33  1  0
  4 34  1  0
  4 35  1  0
  4 36  1  0
  5 37  1  0
  5 38  1  0
  8 39  1  0
 10 40  1  0
 12 41  1  0
 12 42  1  0
 20 43  1  0
 20 44  1  0
 21 45  1  0
 21 46  1  0
 22 47  1  0
 22 48  1  0
 23 49  1  0
 23 50  1  0
 24 51  1  0
 25 52  1  0
M  CHG  2   2   1  15  -1
M  END
>  <UniqueID>  (7) 
6

>  <SMILES>  (7) 
C[N+](C)(C)CC(=O)Nc1cc(Cc2n[n-]c(=O)c3c2CCCC3)ccc1F

>  <Energy>  (7) 
68.31184341894728

>  <Genealogy>  (7) 
C[N+](C)(C)CC(=O)Nc1cc(Cc2n[n-]c(=O)c3c2CCCC3)ccc1F (protonated)
C[N+](C)(C)CC(=O)Nc1cc(Cc2n[n-]c(=O)c3c2CCCC3)ccc1F (3D coordinates assigned)
C[N+](C)(C)CC(=O)Nc1cc(Cc2n[n-]c(=O)c3c2CCCC3)ccc1F (nonaromatic ring conformer: 68.31184341894728 kcal/mol)

>  <smiles>  (7) 
C[N+](C)(C)CC(=O)Nc1cc(Cc2n[nH]c(=O)c3c2CCCC3)ccc1F

>  <score_type>  (7) 
oracle

>  <origin>  (7) 
adg

>  <m_score__min__energy>  (7) 
-9.5899999999999999

>  <m_primary>  (7) 
energy

$$$$
7:0
     RDKit          3D

 38 40  0  0  0  0  0  0  0  0999 V2000
   59.3970   33.7960   47.9990 C   0  0  0  0  0  0  0  0  0  0  0  0
   59.3930   32.3270   48.2890 C   0  0  0  0  0  0  0  0  0  0  0  0
   58.5130   31.6190   47.8240 O   0  0  0  0  0  0  0  0  0  0  0  0
   60.4600   31.7160   49.1570 C   0  0  0  0  0  0  0  0  0  0  0  0
   60.2030   32.0220   50.5780 N   0  0  0  0  0  0  0  0  0  0  0  0
   60.7210   33.1600   51.1430 C   0  0  0  0  0  0  0  0  0  0  0  0
   61.4320   33.9510   50.4680 O   0  0  0  0  0  0  0  0  0  0  0  0
   60.4700   33.4530   52.4410 N   0  0  0  0  0  0  0  0  0  0  0  0
   59.7030   32.6540   53.2200 C   0  0  0  0  0  0  0  0  0  0  0  0
   59.4960   33.0170   54.5470 O   0  0  0  0  0  0  0  0  0  0  0  0
   59.1350   31.4870   52.6810 C   0  0  0  0  0  0  0  0  0  0  0  0
   58.2750   30.5750   53.4830 C   0  0  0  0  0  0  0  0  0  0  0  0
   57.1680   30.9850   54.0250 N   0  0  0  0  0  0  0  0  0  0  0  0
   55.8610   30.8260   53.4460 C   0  0  0  0  0  0  0  0  0  0  0  0
   54.9370   30.2510   54.2490 N   0  0  0  0  0  0  0  0  0  0  0  0
   53.6340   29.9390   54.0920 C   0  0  0  0  0  0  0  0  0  0  0  0
   52.8350   30.2220   52.9980 C   0  0  0  0  0  0  0  0  0  0  0  0
   53.1970   30.8300   51.7980 C   0  0  0  0  0  0  0  0  0  0  0  0
   52.1640   31.0520   50.7610 C   0  0  0  0  0  0  0  0  0  0  0  0
   52.0530   30.2890   49.6560 N   0  0  0  0  0  0  0  0  0  0  0  0
   51.0280   30.8490   48.9810 C   0  0  0  0  0  0  0  0  0  0  0  0
   50.6160   30.4000   47.8800 O   0  0  0  0  0  0  0  0  0  0  0  0
   50.4860   31.9320   49.5730 N   0  0  0  0  0  0  0  0  0  0  0  0
   51.2150   32.0550   50.6940 C   0  0  0  0  0  0  0  0  0  0  0  0
   51.0390   33.0870   51.6070 O   0  0  0  0  0  0  0  0  0  0  0  0
   54.4620   31.1680   51.4540 N   0  0  0  0  0  0  0  0  0  0  0  0
   55.6530   31.1670   52.0940 C   0  0  0  0  0  0  0  0  0  0  0  0
   56.6540   31.5110   51.4110 O   0  0  0  0  0  0  0  0  0  0  0  0
   59.4040   31.1940   51.3280 C   0  0  0  0  0  0  0  0  0  0  0  0
   58.9010   30.1590   50.8050 O   0  0  0  0  0  0  0  0  0  0  0  0
   59.3985   34.3566   48.9454 H   0  0  0  0  0  0  0  0  0  0  0  0
   60.2958   34.0529   47.4193 H   0  0  0  0  0  0  0  0  0  0  0  0
   58.4996   34.0577   47.4193 H   0  0  0  0  0  0  0  0  0  0  0  0
   60.4621   30.6251   49.0155 H   0  0  0  0  0  0  0  0  0  0  0  0
   61.4362   32.1353   48.8719 H   0  0  0  0  0  0  0  0  0  0  0  0
   58.5842   29.5283   53.6202 H   0  0  0  0  0  0  0  0  0  0  0  0
   53.1547   29.4015   54.9235 H   0  0  0  0  0  0  0  0  0  0  0  0
   51.7784   29.9293   53.0875 H   0  0  0  0  0  0  0  0  0  0  0  0
  1  2  1  0
  2  3  2  0
  2  4  1  0
  4  5  1  0
  5  6  1  0
  6  7  2  0
  6  8  1  0
  8  9  1  0
  9 10  1  0
  9 11  2  0
 11 12  1  0
 12 13  2  3
 13 14  1  0
 14 15  2  0
 15 16  1  0
 16 17  2  0
 17 18  1  0
 18 19  1  0
 19 20  1  0
 20 21  1  0
 21 22  2  0
 21 23  1  0
 23 24  1  0
 24 25  1  0
 18 26  2  0
 26 27  1  0
 27 28  2  0
 11 29  1  0
 29 30  2  0
 29  5  1  0
 27 14  1  0
 24 19  2  0
  1 31  1  0
  1 32  1  0
  1 33  1  0
  4 34  1  0
  4 35  1  0
 12 36  1  0
 16 37  1  0
 17 38  1  0
M  CHG  5   8  -1  10  -1  20  -1  23  -1  25  -1
M  END
>  <UniqueID>  (8) 
7

>  <SMILES>  (8) 
CC(=O)Cn1c(=O)[n-]c([O-])c(C=Nc2nccc(-c3[n-]c(=O)[n-]c3[O-])nc2=O)c1=O

>  <Energy>  (8) 
105.71319778907882

>  <Genealogy>  (8) 
CC(=O)Cn1c(=O)[n-]c([O-])c(C=Nc2nccc(-c3[n-]c(=O)[n-]c3[O-])nc2=O)c1=O (protonated)
CC(=O)Cn1c(=O)[n-]c([O-])c(C=Nc2nccc(-c3[n-]c(=O)[n-]c3[O-])nc2=O)c1=O (3D coordinates assigned)
CC(=O)Cn1c(=O)[n-]c([O-])c(C=Nc2nccc(-c3[n-]c(=O)[n-]c3[O-])nc2=O)c1=O (optimized conformer: 105.71319778907882 kcal/mol)

>  <smiles>  (8) 
CC(=O)Cn1c(=O)[nH]c(O)c(C=Nc2nccc(-c3[nH]c(=O)[nH]c3O)nc2=O)c1=O

>  <score_type>  (8) 
oracle

>  <origin>  (8) 
adg

>  <m_score__min__energy>  (8) 
-17.280000000000001

>  <m_primary>  (8) 
energy

$$$$
8:0
     RDKit          3D

 51 54  0  0  0  0  0  0  0  0999 V2000
   61.2010   30.8610   46.9000 C   0  0  0  0  0  0  0  0  0  0  0  0
   62.0140   31.8790   47.6490 C   0  0  0  0  0  0  0  0  0  0  0  0
   63.3710   32.0650   47.3310 C   0  0  0  0  0  0  0  0  0  0  0  0
   64.1370   32.9990   48.0310 C   0  0  0  0  0  0  0  0  0  0  0  0
   63.5610   33.7480   49.0570 C   0  0  0  0  0  0  0  0  0  0  0  0
   62.2170   33.5650   49.3890 C   0  0  0  0  0  0  0  0  0  0  0  0
   61.4300   32.6260   48.6910 C   0  0  0  0  0  0  0  0  0  0  0  0
   60.0750   32.4090   48.9990 O   0  0  0  0  0  0  0  0  0  0  0  0
   58.9890   33.2420   48.5900 C   0  0  1  0  0  0  0  0  0  0  0  0
   59.4810   34.5940   48.0720 C   0  0  0  0  0  0  0  0  0  0  0  0
   59.0350   34.6580   46.6180 C   0  0  0  0  0  0  0  0  0  0  0  0
   57.9370   33.6910   46.4790 N   0  0  1  0  0  0  0  0  0  0  0  0
   57.7540   33.1970   45.1280 C   0  0  0  0  0  0  0  0  0  0  0  0
   57.9580   33.9480   44.1340 O   0  0  0  0  0  0  0  0  0  0  0  0
   57.4120   31.7850   44.8760 C   0  0  0  0  0  0  0  0  0  0  0  0
   58.2820   30.7420   44.6350 C   0  0  0  0  0  0  0  0  0  0  0  0
   57.4480   29.6560   44.4600 C   0  0  0  0  0  0  0  0  0  0  0  0
   57.8440   28.2540   44.2270 C   0  0  0  0  0  0  0  0  0  0  0  0
   57.7640   27.7990   43.0540 O   0  0  0  0  0  0  0  0  0  0  0  0
   58.3310   27.4050   45.2830 N   0  0  0  0  0  0  0  0  0  0  0  0
   59.0040   27.8890   46.4790 C   0  0  0  0  0  0  0  0  0  0  0  0
   59.7990   26.7040   47.0080 C   0  0  0  0  0  0  0  0  0  0  0  0
   59.1590   25.4710   46.3810 C   0  0  0  0  0  0  0  0  0  0  0  0
   58.4810   25.9680   45.1120 C   0  0  0  0  0  0  0  0  0  0  0  0
   56.1670   30.0450   44.6110 N   0  0  0  0  0  0  0  0  0  0  0  0
   56.1830   31.3230   44.8500 O   0  0  0  0  0  0  0  0  0  0  0  0
   58.2590   32.6050   47.4080 C   0  0  0  0  0  0  0  0  0  0  0  0
   60.6801   30.2087   47.6163 H   0  0  0  0  0  0  0  0  0  0  0  0
   60.4621   31.3750   46.2677 H   0  0  0  0  0  0  0  0  0  0  0  0
   61.8657   30.2541   46.2677 H   0  0  0  0  0  0  0  0  0  0  0  0
   63.8312   31.4719   46.5270 H   0  0  0  0  0  0  0  0  0  0  0  0
   65.1964   33.1444   47.7730 H   0  0  0  0  0  0  0  0  0  0  0  0
   64.1666   34.4843   49.6057 H   0  0  0  0  0  0  0  0  0  0  0  0
   61.7692   34.1574   50.2005 H   0  0  0  0  0  0  0  0  0  0  0  0
   58.3435   33.3657   49.4721 H   0  0  0  0  0  0  0  0  0  0  0  0
   59.0296   35.4144   48.6492 H   0  0  0  0  0  0  0  0  0  0  0  0
   60.5719   34.6965   48.1696 H   0  0  0  0  0  0  0  0  0  0  0  0
   58.6836   35.6709   46.3719 H   0  0  0  0  0  0  0  0  0  0  0  0
   59.8643   34.4213   45.9352 H   0  0  0  0  0  0  0  0  0  0  0  0
   57.0610   34.1660   46.8010 H   0  0  0  0  0  0  0  0  0  0  0  0
   59.3808   30.7692   44.5923 H   0  0  0  0  0  0  0  0  0  0  0  0
   59.6770   28.7228   46.2303 H   0  0  0  0  0  0  0  0  0  0  0  0
   58.2885   28.2653   47.2250 H   0  0  0  0  0  0  0  0  0  0  0  0
   60.8541   26.7842   46.7076 H   0  0  0  0  0  0  0  0  0  0  0  0
   59.7810   26.6587   48.1069 H   0  0  0  0  0  0  0  0  0  0  0  0
   59.9258   24.7204   46.1389 H   0  0  0  0  0  0  0  0  0  0  0  0
   58.4445   24.9889   47.0644 H   0  0  0  0  0  0  0  0  0  0  0  0
   59.1050   25.7494   44.2329 H   0  0  0  0  0  0  0  0  0  0  0  0
   57.5112   25.4749   44.9499 H   0  0  0  0  0  0  0  0  0  0  0  0
   57.3367   32.1139   47.7518 H   0  0  0  0  0  0  0  0  0  0  0  0
   58.8830   31.8402   46.9225 H   0  0  0  0  0  0  0  0  0  0  0  0
  1  2  1  0
  2  3  2  0
  3  4  1  0
  4  5  2  0
  5  6  1  0
  6  7  2  0
  7  8  1  0
  8  9  1  0
  9 10  1  0
 10 11  1  0
 11 12  1  0
 12 13  1  0
 13 14  2  0
 13 15  1  0
 15 16  2  0
 16 17  1  0
 17 18  1  0
 18 19  2  0
 18 20  1  0
 20 21  1  0
 21 22  1  0
 22 23  1  0
 23 24  1  0
 17 25  2  0
 25 26  1  0
 12 27  1  0
  7  2  1  0
 27  9  1  0
 26 15  1  0
 24 20  1  0
  1 28  1  0
  1 29  1  0
  1 30  1  0
  3 31  1  0
  4 32  1  0
  5 33  1  0
  6 34  1  0
  9 35  1  1
 10 36  1  0
 10 37  1  0
 11 38  1  0
 11 39  1  0
 12 40  1  1
 16 41  1  0
 21 42  1  0
 21 43  1  0
 22 44  1  0
 22 45  1  0
 23 46  1  0
 23 47  1  0
 24 48  1  0
 24 49  1  0
 27 50  1  0
 27 51  1  0
M  CHG  1  12   1
M  END
>  <UniqueID>  (9) 
8

>  <SMILES>  (9) 
Cc1ccccc1O[C@H]1CC[N@@H+](C(=O)c2cc(C(=O)N3CCCC3)no2)C1

>  <Energy>  (9) 
90.51511651617736

>  <Genealogy>  (9) 
Cc1ccccc1OC1CC[NH+](C(=O)c2cc(C(=O)N3CCCC3)no2)C1 (protonated)
Cc1ccccc1O[C@H]1CC[N@@H+](C(=O)c2cc(C(=O)N3CCCC3)no2)C1 (chirality)
Cc1ccccc1O[C@H]1CC[N@@H+](C(=O)c2cc(C(=O)N3CCCC3)no2)C1 (3D coordinates assigned)
Cc1ccccc1O[C@H]1CC[N@@H+](C(=O)c2cc(C(=O)N3CCCC3)no2)C1 (nonaromatic ring conformer: 90.51511651617736 kcal/mol)

>  <smiles>  (9) 
Cc1ccccc1OC1CCN(C(=O)c2cc(C(=O)N3CCCC3)no2)C1

>  <score_type>  (9) 
oracle

>  <origin>  (9) 
adg

>  <m_score__min__energy>  (9) 
-7.46

>  <m_primary>  (9) 
energy

$$$$
9:0
     RDKit          3D

 75 80  0  0  0  0  0  0  0  0999 V2000
   55.8450   26.3710   46.3920 O   0  0  0  0  0  0  0  0  0  0  0  0
   57.0620   26.2170   46.0850 C   0  0  0  0  0  0  0  0  0  0  0  0
   57.6420   24.9150   46.2240 N   0  0  0  0  0  0  0  0  0  0  0  0
   57.2230   23.7430   45.4970 C   0  0  0  0  0  0  0  0  0  0  0  0
   57.4010   23.6680   44.1050 C   0  0  0  0  0  0  0  0  0  0  0  0
   56.9470   22.5620   43.3940 C   0  0  0  0  0  0  0  0  0  0  0  0
   56.3310   21.5040   44.0580 C   0  0  0  0  0  0  0  0  0  0  0  0
   56.1640   21.5370   45.4510 C   0  0  0  0  0  0  0  0  0  0  0  0
   55.6050   20.3360   46.1100 C   0  0  0  0  0  0  0  0  0  0  0  0
   56.3940   19.4330   46.5120 O   0  0  0  0  0  0  0  0  0  0  0  0
   54.1890   20.1850   46.3000 N   0  0  0  0  0  0  0  0  0  0  0  0
   53.5750   18.9460   46.7480 C   0  0  0  0  0  0  0  0  0  0  0  0
   52.0800   19.2390   46.8140 C   0  0  0  0  0  0  0  0  0  0  0  0
   51.9690   20.7580   46.8890 C   0  0  0  0  0  0  0  0  0  0  0  0
   53.2490   21.2930   46.2570 C   0  0  0  0  0  0  0  0  0  0  0  0
   56.6020   22.6700   46.1880 C   0  0  0  0  0  0  0  0  0  0  0  0
   56.3900   22.7570   47.6600 C   0  0  0  0  0  0  0  0  0  0  0  0
   57.3710   22.6760   48.4480 O   0  0  0  0  0  0  0  0  0  0  0  0
   55.0770   22.9790   48.1800 N   0  0  0  0  0  0  0  0  0  0  0  0
   54.3880   22.1980   49.1700 C   0  0  0  0  0  0  0  0  0  0  0  0
   53.1340   22.6440   49.6080 C   0  0  0  0  0  0  0  0  0  0  0  0
   52.3980   21.8930   50.5250 C   0  0  0  0  0  0  0  0  0  0  0  0
   52.9070   20.6880   51.0180 C   0  0  0  0  0  0  0  0  0  0  0  0
   54.1480   20.2230   50.5740 C   0  0  0  0  0  0  0  0  0  0  0  0
   54.8840   20.9580   49.6370 C   0  0  0  0  0  0  0  0  0  0  0  0
   56.0800   20.4360   49.1430 O   0  0  0  0  0  0  0  0  0  0  0  0
   57.8390   27.3560   45.5360 C   0  0  0  0  0  0  0  0  0  0  0  0
   59.2300   27.2400   45.3680 C   0  0  0  0  0  0  0  0  0  0  0  0
   59.9780   28.3180   44.8860 C   0  0  0  0  0  0  0  0  0  0  0  0
   59.3470   29.5200   44.5610 C   0  0  0  0  0  0  0  0  0  0  0  0
   57.9610   29.6510   44.7110 C   0  0  0  0  0  0  0  0  0  0  0  0
   57.1650   31.1620   44.2810 S   0  0  0  0  0  0  0  0  0  0  0  0
   57.4130   31.4700   42.8280 O   0  0  0  0  0  0  0  0  0  0  0  0
   55.6790   31.0320   44.4880 O   0  0  0  0  0  0  0  0  0  0  0  0
   57.7610   32.4540   45.2940 N   0  0  0  0  0  0  0  0  0  0  0  0
   57.5310   33.8390   44.8820 C   0  0  0  0  0  0  0  0  0  0  0  0
   58.8750   34.5400   44.7130 C   0  0  0  0  0  0  0  0  0  0  0  0
   59.6660   34.5240   46.0280 C   0  0  0  0  0  0  0  0  0  0  0  0
   59.6150   33.1920   46.7450 C   0  0  0  0  0  0  0  0  0  0  0  0
   60.4820   32.9670   47.8260 C   0  0  0  0  0  0  0  0  0  0  0  0
   60.3900   31.7880   48.5690 C   0  0  0  0  0  0  0  0  0  0  0  0
   59.4210   30.8350   48.2560 C   0  0  0  0  0  0  0  0  0  0  0  0
   58.5460   31.0480   47.1890 C   0  0  0  0  0  0  0  0  0  0  0  0
   58.6460   32.2160   46.4090 C   0  0  0  0  0  0  0  0  0  0  0  0
   57.2110   28.5700   45.1960 C   0  0  0  0  0  0  0  0  0  0  0  0
   57.9031   24.4900   43.5738 H   0  0  0  0  0  0  0  0  0  0  0  0
   57.0751   22.5228   42.3022 H   0  0  0  0  0  0  0  0  0  0  0  0
   55.9725   20.6355   43.4860 H   0  0  0  0  0  0  0  0  0  0  0  0
   53.7775   18.1350   46.0330 H   0  0  0  0  0  0  0  0  0  0  0  0
   53.9723   18.6194   47.7204 H   0  0  0  0  0  0  0  0  0  0  0  0
   51.5733   18.8599   45.9143 H   0  0  0  0  0  0  0  0  0  0  0  0
   51.6047   18.7506   47.6775 H   0  0  0  0  0  0  0  0  0  0  0  0
   51.0890   21.1070   46.3289 H   0  0  0  0  0  0  0  0  0  0  0  0
   51.8493   21.1072   47.9252 H   0  0  0  0  0  0  0  0  0  0  0  0
   53.0655   21.6027   45.2176 H   0  0  0  0  0  0  0  0  0  0  0  0
   53.6313   22.1766   46.7891 H   0  0  0  0  0  0  0  0  0  0  0  0
   52.7273   23.5922   49.2265 H   0  0  0  0  0  0  0  0  0  0  0  0
   51.4135   22.2504   50.8613 H   0  0  0  0  0  0  0  0  0  0  0  0
   52.3319   20.1069   51.7540 H   0  0  0  0  0  0  0  0  0  0  0  0
   54.5483   19.2750   50.9626 H   0  0  0  0  0  0  0  0  0  0  0  0
   56.4600   20.7290   48.2530 H   0  0  0  0  0  0  0  0  0  0  0  0
   59.7333   26.2943   45.6176 H   0  0  0  0  0  0  0  0  0  0  0  0
   61.0665   28.2189   44.7625 H   0  0  0  0  0  0  0  0  0  0  0  0
   59.9404   30.3669   44.1859 H   0  0  0  0  0  0  0  0  0  0  0  0
   56.9856   33.8533   43.9268 H   0  0  0  0  0  0  0  0  0  0  0  0
   56.9359   34.3589   45.6472 H   0  0  0  0  0  0  0  0  0  0  0  0
   59.4566   34.0226   43.9358 H   0  0  0  0  0  0  0  0  0  0  0  0
   58.6938   35.5854   44.4227 H   0  0  0  0  0  0  0  0  0  0  0  0
   60.7171   34.7599   45.8054 H   0  0  0  0  0  0  0  0  0  0  0  0
   59.2042   35.2684   46.6933 H   0  0  0  0  0  0  0  0  0  0  0  0
   61.2370   33.7225   48.0889 H   0  0  0  0  0  0  0  0  0  0  0  0
   61.0840   31.6105   49.4037 H   0  0  0  0  0  0  0  0  0  0  0  0
   59.3459   29.9131   48.8513 H   0  0  0  0  0  0  0  0  0  0  0  0
   57.7744   30.2993   46.9565 H   0  0  0  0  0  0  0  0  0  0  0  0
   56.1218   28.6711   45.3120 H   0  0  0  0  0  0  0  0  0  0  0  0
  1  2  2  0
  2  3  1  0
  3  4  1  0
  4  5  2  0
  5  6  1  0
  6  7  2  0
  7  8  1  0
  8  9  1  0
  9 10  2  0
  9 11  1  0
 11 12  1  0
 12 13  1  0
 13 14  1  0
 14 15  1  0
  8 16  2  0
 16 17  1  0
 17 18  2  0
 17 19  1  0
 19 20  1  0
 20 21  2  0
 21 22  1  0
 22 23  2  0
 23 24  1  0
 24 25  2  0
 25 26  1  0
  2 27  1  0
 27 28  2  0
 28 29  1  0
 29 30  2  0
 30 31  1  0
 31 32  1  0
 32 33  2  0
 32 34  2  0
 32 35  1  0
 35 36  1  0
 36 37  1  0
 37 38  1  0
 38 39  1  0
 39 40  2  0
 40 41  1  0
 41 42  2  0
 42 43  1  0
 43 44  2  0
 31 45  2  0
 16  4  1  0
 25 20  1  0
 45 27  1  0
 15 11  1  0
 44 35  1  0
 44 39  1  0
  5 46  1  0
  6 47  1  0
  7 48  1  0
 12 49  1  0
 12 50  1  0
 13 51  1  0
 13 52  1  0
 14 53  1  0
 14 54  1  0
 15 55  1  0
 15 56  1  0
 21 57  1  0
 22 58  1  0
 23 59  1  0
 24 60  1  0
 26 61  1  0
 28 62  1  0
 29 63  1  0
 30 64  1  0
 36 65  1  0
 36 66  1  0
 37 67  1  0
 37 68  1  0
 38 69  1  0
 38 70  1  0
 40 71  1  0
 41 72  1  0
 42 73  1  0
 43 74  1  0
 45 75  1  0
M  CHG  2   3  -1  19  -1
M  END
>  <UniqueID>  (10) 
9

>  <SMILES>  (10) 
O=C([N-]c1cccc(C(=O)N2CCCC2)c1C(=O)[N-]c1ccccc1O)c1cccc(S(=O)(=O)N2CCCc3ccccc32)c1

>  <Energy>  (10) 
112.56924072922993

>  <Genealogy>  (10) 
O=C([N-]c1cccc(C(=O)N2CCCC2)c1C(=O)[N-]c1ccccc1O)c1cccc(S(=O)(=O)N2CCCc3ccccc32)c1 (protonated)
O=C([N-]c1cccc(C(=O)N2CCCC2)c1C(=O)[N-]c1ccccc1O)c1cccc(S(=O)(=O)N2CCCc3ccccc32)c1 (3D coordinates assigned)
O=C([N-]c1cccc(C(=O)N2CCCC2)c1C(=O)[N-]c1ccccc1O)c1cccc(S(=O)(=O)N2CCCc3ccccc32)c1 (nonaromatic ring conformer: 112.56924072922993 kcal/mol)

>  <smiles>  (10) 
O=C(Nc1cccc(C(=O)N2CCCC2)c1C(=O)Nc1ccccc1O)c1cccc(S(=O)(=O)N2CCCc3ccccc32)c1

>  <score_type>  (10) 
oracle

>  <origin>  (10) 
adg

>  <m_score__min__energy>  (10) 
-15.119999999999999

>  <m_primary>  (10) 
energy

$$$$
10:0
     RDKit          3D

 47 50  0  0  0  0  0  0  0  0999 V2000
   55.5060   29.6460   44.8910 O   0  0  0  0  0  0  0  0  0  0  0  0
   56.7360   29.7560   44.6390 C   0  0  0  0  0  0  0  0  0  0  0  0
   57.6370   28.5640   44.8210 C   0  0  0  0  0  0  0  0  0  0  0  0
   57.3750   27.8720   46.1630 C   0  0  0  0  0  0  0  0  0  0  0  0
   58.1170   26.5350   46.2480 C   0  0  0  0  0  0  0  0  0  0  0  0
   57.1690   25.4270   46.1440 N   0  0  0  0  0  0  0  0  0  0  0  0
   57.4540   24.1090   46.2130 C   0  0  0  0  0  0  0  0  0  0  0  0
   58.7360   23.5910   46.3560 O   0  0  0  0  0  0  0  0  0  0  0  0
   56.2950   23.3610   46.1380 C   0  0  0  0  0  0  0  0  0  0  0  0
   55.2550   24.2610   46.0700 C   0  0  0  0  0  0  0  0  0  0  0  0
   55.8230   25.5190   46.0600 C   0  0  0  0  0  0  0  0  0  0  0  0
   55.1240   26.7190   45.9870 O   0  0  0  0  0  0  0  0  0  0  0  0
   53.8150   23.8700   45.9360 C   0  0  0  0  0  0  0  0  0  0  0  0
   53.6150   22.4050   46.3790 C   0  0  0  0  0  0  0  0  0  0  0  0
   54.6990   21.4750   45.7920 C   0  0  0  0  0  0  0  0  0  0  0  0
   56.1140   21.8800   46.2570 C   0  0  0  0  0  0  0  0  0  0  0  0
   57.2430   31.0060   44.1500 N   0  0  0  0  0  0  0  0  0  0  0  0
   57.3340   31.3390   42.7280 C   0  0  0  0  0  0  0  0  0  0  0  0
   58.0940   32.6860   42.6520 C   0  0  0  0  0  0  0  0  0  0  0  0
   58.2950   33.0500   44.0820 C   0  0  0  0  0  0  0  0  0  0  0  0
   58.8540   34.2200   44.5980 C   0  0  0  0  0  0  0  0  0  0  0  0
   58.8840   34.3920   45.9910 C   0  0  0  0  0  0  0  0  0  0  0  0
   58.3420   33.4060   46.8370 C   0  0  0  0  0  0  0  0  0  0  0  0
   57.7790   32.2390   46.2950 C   0  0  0  0  0  0  0  0  0  0  0  0
   57.7970   32.0740   44.9050 C   0  0  0  0  0  0  0  0  0  0  0  0
   57.4540   27.8480   44.0062 H   0  0  0  0  0  0  0  0  0  0  0  0
   58.6809   28.9104   44.8053 H   0  0  0  0  0  0  0  0  0  0  0  0
   57.7189   28.5262   46.9777 H   0  0  0  0  0  0  0  0  0  0  0  0
   56.2957   27.6789   46.2517 H   0  0  0  0  0  0  0  0  0  0  0  0
   58.8446   26.4697   45.4256 H   0  0  0  0  0  0  0  0  0  0  0  0
   58.6383   26.4733   47.2146 H   0  0  0  0  0  0  0  0  0  0  0  0
   53.2000   24.5275   46.5680 H   0  0  0  0  0  0  0  0  0  0  0  0
   53.5132   23.9701   44.8829 H   0  0  0  0  0  0  0  0  0  0  0  0
   53.6602   22.3558   47.4770 H   0  0  0  0  0  0  0  0  0  0  0  0
   52.6365   22.0662   46.0078 H   0  0  0  0  0  0  0  0  0  0  0  0
   54.4984   20.4438   46.1183 H   0  0  0  0  0  0  0  0  0  0  0  0
   54.6627   21.5566   44.6956 H   0  0  0  0  0  0  0  0  0  0  0  0
   56.2507   21.5807   47.3066 H   0  0  0  0  0  0  0  0  0  0  0  0
   56.8576   21.3761   45.6220 H   0  0  0  0  0  0  0  0  0  0  0  0
   57.8873   30.5571   42.1871 H   0  0  0  0  0  0  0  0  0  0  0  0
   56.3379   31.4122   42.2671 H   0  0  0  0  0  0  0  0  0  0  0  0
   59.0586   32.5652   42.1372 H   0  0  0  0  0  0  0  0  0  0  0  0
   57.5488   33.4553   42.0856 H   0  0  0  0  0  0  0  0  0  0  0  0
   59.2623   34.9908   43.9277 H   0  0  0  0  0  0  0  0  0  0  0  0
   59.3320   35.2993   46.4224 H   0  0  0  0  0  0  0  0  0  0  0  0
   58.3595   33.5502   47.9274 H   0  0  0  0  0  0  0  0  0  0  0  0
   57.3345   31.4729   46.9472 H   0  0  0  0  0  0  0  0  0  0  0  0
  1  2  2  0
  2  3  1  0
  3  4  1  0
  4  5  1  0
  5  6  1  0
  6  7  1  0
  7  8  1  0
  7  9  2  0
  9 10  1  0
 10 11  2  0
 11 12  1  0
 10 13  1  0
 13 14  1  0
 14 15  1  0
 15 16  1  0
  2 17  1  0
 17 18  1  0
 18 19  1  0
 19 20  1  0
 20 21  2  0
 21 22  1  0
 22 23  2  0
 23 24  1  0
 24 25  2  0
 11  6  1  0
 25 17  1  0
 16  9  1  0
 25 20  1  0
  3 26  1  0
  3 27  1  0
  4 28  1  0
  4 29  1  0
  5 30  1  0
  5 31  1  0
 13 32  1  0
 13 33  1  0
 14 34  1  0
 14 35  1  0
 15 36  1  0
 15 37  1  0
 16 38  1  0
 16 39  1  0
 18 40  1  0
 18 41  1  0
 19 42  1  0
 19 43  1  0
 21 44  1  0
 22 45  1  0
 23 46  1  0
 24 47  1  0
M  CHG  2   8  -1  12  -1
M  END
>  <UniqueID>  (11) 
10

>  <SMILES>  (11) 
O=C(CCCn1c([O-])c2c(c1[O-])CCCC2)N1CCc2ccccc21

>  <Energy>  (11) 
91.26906914087733

>  <Genealogy>  (11) 
O=C(CCCn1c([O-])c2c(c1[O-])CCCC2)N1CCc2ccccc21 (protonated)
O=C(CCCn1c([O-])c2c(c1[O-])CCCC2)N1CCc2ccccc21 (3D coordinates assigned)
O=C(CCCn1c([O-])c2c(c1[O-])CCCC2)N1CCc2ccccc21 (nonaromatic ring conformer: 91.26906914087733 kcal/mol)

>  <smiles>  (11) 
O=C(CCCn1c(O)c2c(c1O)CCCC2)N1CCc2ccccc21

>  <score_type>  (11) 
oracle

>  <origin>  (11) 
adg

>  <m_score__min__energy>  (11) 
-14.17

>  <m_primary>  (11) 
energy

$$$$
11:0
     RDKit          3D

 47 49  0  0  0  0  0  0  0  0999 V2000
   59.0700   35.4370   47.0260 O   0  0  0  0  0  0  0  0  0  0  0  0
   59.5410   34.6290   46.1810 C   0  0  0  0  0  0  0  0  0  0  0  0
   58.9570   34.5860   44.8050 C   0  0  0  0  0  0  0  0  0  0  0  0
   58.0950   33.4190   44.6690 N   0  0  0  0  0  0  0  0  0  0  0  0
   57.7670   32.5530   45.7610 C   0  0  0  0  0  0  0  0  0  0  0  0
   57.1030   32.9840   46.7420 O   0  0  0  0  0  0  0  0  0  0  0  0
   58.1890   31.1130   45.7250 C   0  0  2  0  0  0  0  0  0  0  0  0
   57.0340   30.2440   45.9330 N   0  0  0  0  0  0  0  0  0  0  0  0
   56.8060   29.0320   45.2040 C   0  0  0  0  0  0  0  0  0  0  0  0
   56.1300   29.0670   44.1410 O   0  0  0  0  0  0  0  0  0  0  0  0
   57.3630   27.7480   45.7060 C   0  0  0  0  0  0  0  0  0  0  0  0
   58.7590   27.6000   45.8480 C   0  0  0  0  0  0  0  0  0  0  0  0
   59.3070   26.4060   46.3240 C   0  0  0  0  0  0  0  0  0  0  0  0
   58.4750   25.3410   46.6650 C   0  0  0  0  0  0  0  0  0  0  0  0
   57.0910   25.4670   46.5320 C   0  0  0  0  0  0  0  0  0  0  0  0
   56.5290   26.6590   46.0580 C   0  0  0  0  0  0  0  0  0  0  0  0
   55.1440   26.7460   45.9440 O   0  0  0  0  0  0  0  0  0  0  0  0
   59.2290   30.8570   46.7890 C   0  0  0  0  0  0  0  0  0  0  0  0
   58.8400   30.6900   48.1290 C   0  0  0  0  0  0  0  0  0  0  0  0
   59.7940   30.4250   49.1170 C   0  0  0  0  0  0  0  0  0  0  0  0
   61.1450   30.3180   48.7740 C   0  0  0  0  0  0  0  0  0  0  0  0
   61.5420   30.4590   47.4420 C   0  0  0  0  0  0  0  0  0  0  0  0
   60.5900   30.7220   46.4530 C   0  0  0  0  0  0  0  0  0  0  0  0
   60.6390   33.7620   46.5060 N   0  0  0  0  0  0  0  0  0  0  0  0
   61.3360   33.7640   47.6060 C   0  0  0  0  0  0  0  0  0  0  0  0
   62.7020   33.8190   47.5790 N   0  0  0  0  0  0  0  0  0  0  0  0
   63.4470   33.8240   48.7160 C   0  0  0  0  0  0  0  0  0  0  0  0
   62.8190   33.7740   49.9620 C   0  0  0  0  0  0  0  0  0  0  0  0
   61.4250   33.7200   50.0230 C   0  0  0  0  0  0  0  0  0  0  0  0
   60.6720   33.7110   48.8410 C   0  0  0  0  0  0  0  0  0  0  0  0
   59.2770   33.6530   48.8900 O   0  0  0  0  0  0  0  0  0  0  0  0
   58.3669   35.4978   44.6304 H   0  0  0  0  0  0  0  0  0  0  0  0
   59.7709   34.5233   44.0677 H   0  0  0  0  0  0  0  0  0  0  0  0
   58.6229   30.8925   44.7385 H   0  0  0  0  0  0  0  0  0  0  0  0
   59.4239   28.4346   45.5808 H   0  0  0  0  0  0  0  0  0  0  0  0
   60.3974   26.3063   46.4298 H   0  0  0  0  0  0  0  0  0  0  0  0
   58.9087   24.4017   47.0387 H   0  0  0  0  0  0  0  0  0  0  0  0
   56.4374   24.6242   46.8014 H   0  0  0  0  0  0  0  0  0  0  0  0
   57.7775   30.7683   48.4029 H   0  0  0  0  0  0  0  0  0  0  0  0
   59.4811   30.3007   50.1642 H   0  0  0  0  0  0  0  0  0  0  0  0
   61.8961   30.1226   49.5535 H   0  0  0  0  0  0  0  0  0  0  0  0
   62.6039   30.3630   47.1715 H   0  0  0  0  0  0  0  0  0  0  0  0
   60.9062   30.8243   45.4044 H   0  0  0  0  0  0  0  0  0  0  0  0
   64.5444   33.8674   48.6544 H   0  0  0  0  0  0  0  0  0  0  0  0
   63.4161   33.7771   50.8859 H   0  0  0  0  0  0  0  0  0  0  0  0
   60.9180   33.6845   50.9985 H   0  0  0  0  0  0  0  0  0  0  0  0
   58.7170   33.5790   48.0470 H   0  0  0  0  0  0  0  0  0  0  0  0
  1  2  2  0
  2  3  1  0
  3  4  1  0
  4  5  1  0
  5  6  2  0
  5  7  1  0
  7  8  1  0
  8  9  1  0
  9 10  2  0
  9 11  1  0
 11 12  2  0
 12 13  1  0
 13 14  2  0
 14 15  1  0
 15 16  2  0
 16 17  1  0
  7 18  1  0
 18 19  2  0
 19 20  1  0
 20 21  2  0
 21 22  1  0
 22 23  2  0
  2 24  1  0
 24 25  2  3
 25 26  1  0
 26 27  1  0
 27 28  2  0
 28 29  1  0
 29 30  2  0
 30 31  1  0
 16 11  1  0
 23 18  1  0
 30 25  1  0
  3 32  1  0
  3 33  1  0
  7 34  1  6
 12 35  1  0
 13 36  1  0
 14 37  1  0
 15 38  1  0
 19 39  1  0
 20 40  1  0
 21 41  1  0
 22 42  1  0
 23 43  1  0
 27 44  1  0
 28 45  1  0
 29 46  1  0
 31 47  1  0
M  CHG  4   4  -1   8  -1  17  -1  26  -1
M  END
>  <UniqueID>  (12) 
11

>  <SMILES>  (12) 
O=C(C[N-]C(=O)[C@H]([N-]C(=O)c1ccccc1[O-])c1ccccc1)N=c1[n-]cccc1O

>  <Energy>  (12) 
49.444644114141305

>  <Genealogy>  (12) 
O=C(C[N-]C(=O)C([N-]C(=O)c1ccccc1[O-])c1ccccc1)N=c1[n-]cccc1O (protonated)
O=C(C[N-]C(=O)[C@H]([N-]C(=O)c1ccccc1[O-])c1ccccc1)N=c1[n-]cccc1O (chirality)
O=C(C[N-]C(=O)[C@H]([N-]C(=O)c1ccccc1[O-])c1ccccc1)N=c1[n-]cccc1O (3D coordinates assigned)
O=C(C[N-]C(=O)[C@H]([N-]C(=O)c1ccccc1[O-])c1ccccc1)N=c1[n-]cccc1O (optimized conformer: 49.444644114141305 kcal/mol)

>  <smiles>  (12) 
O=C(CNC(=O)C(NC(=O)c1ccccc1O)c1ccccc1)N=c1[nH]cccc1O

>  <score_type>  (12) 
oracle

>  <origin>  (12) 
adg

>  <m_score__min__energy>  (12) 
-15.81

>  <m_primary>  (12) 
energy

$$$$
12:0
     RDKit          3D

 57 60  0  0  0  0  0  0  0  0999 V2000
   59.2920   35.6140   44.8310 C   0  0  0  0  0  0  0  0  0  0  0  0
   58.8320   34.1860   44.9660 C   0  0  0  0  0  0  0  0  0  0  0  0
   58.5060   33.4560   43.8120 C   0  0  0  0  0  0  0  0  0  0  0  0
   58.0580   32.1380   43.9080 C   0  0  0  0  0  0  0  0  0  0  0  0
   57.9230   31.5270   45.1600 C   0  0  0  0  0  0  0  0  0  0  0  0
   57.3980   30.1870   45.2510 N   0  0  0  0  0  0  0  0  0  0  0  0
   56.1160   29.9210   44.8520 C   0  0  0  0  0  0  0  0  0  0  0  0
   55.4110   30.8170   44.3130 O   0  0  0  0  0  0  0  0  0  0  0  0
   55.5890   28.6830   45.0280 N   0  0  0  0  0  0  0  0  0  0  0  0
   56.2930   27.6890   45.6220 C   0  0  0  0  0  0  0  0  0  0  0  0
   55.6890   26.4530   45.8150 O   0  0  0  0  0  0  0  0  0  0  0  0
   57.6050   27.9250   46.0560 C   0  0  0  0  0  0  0  0  0  0  0  0
   58.3480   26.8850   46.8160 C   0  0  0  0  0  0  0  0  0  0  0  0
   58.7210   25.8360   46.2260 O   0  0  0  0  0  0  0  0  0  0  0  0
   58.6730   27.0500   48.2060 N   0  0  0  0  0  0  0  0  0  0  0  0
   59.3270   28.1960   48.7700 C   0  0  0  0  0  0  0  0  0  0  0  0
   58.6730   29.4340   48.8700 C   0  0  0  0  0  0  0  0  0  0  0  0
   59.3760   30.5710   49.2760 C   0  0  0  0  0  0  0  0  0  0  0  0
   60.7400   30.4850   49.6050 C   0  0  0  0  0  0  0  0  0  0  0  0
   61.4880   31.6800   49.9090 N   0  0  0  0  0  0  0  0  0  0  0  0
   62.9350   31.6470   50.1420 C   0  0  0  0  0  0  0  0  0  0  0  0
   63.6590   32.4650   49.0560 C   0  0  0  0  0  0  0  0  0  0  0  0
   62.8850   33.6380   48.5710 N   0  0  0  0  0  0  0  0  0  0  0  0
   62.3220   33.4090   47.2290 C   0  0  0  0  0  0  0  0  0  0  0  0
   61.8540   34.0990   49.5260 C   0  0  0  0  0  0  0  0  0  0  0  0
   60.8320   32.9910   49.8430 C   0  0  0  0  0  0  0  0  0  0  0  0
   61.3730   29.2290   49.5600 C   0  0  0  0  0  0  0  0  0  0  0  0
   60.6650   28.0930   49.1600 C   0  0  0  0  0  0  0  0  0  0  0  0
   58.1620   29.1940   45.8060 C   0  0  0  0  0  0  0  0  0  0  0  0
   59.3690   29.4170   46.1040 O   0  0  0  0  0  0  0  0  0  0  0  0
   58.2450   32.2460   46.3190 C   0  0  0  0  0  0  0  0  0  0  0  0
   58.6930   33.5760   46.2360 C   0  0  0  0  0  0  0  0  0  0  0  0
   59.0240   34.3210   47.5020 C   0  0  0  0  0  0  0  0  0  0  0  0
   59.4325   36.0501   45.8311 H   0  0  0  0  0  0  0  0  0  0  0  0
   60.2446   35.6420   44.2817 H   0  0  0  0  0  0  0  0  0  0  0  0
   58.5348   36.1928   44.2817 H   0  0  0  0  0  0  0  0  0  0  0  0
   58.6046   33.9274   42.8230 H   0  0  0  0  0  0  0  0  0  0  0  0
   57.8097   31.5765   42.9953 H   0  0  0  0  0  0  0  0  0  0  0  0
   57.6027   29.5092   48.6277 H   0  0  0  0  0  0  0  0  0  0  0  0
   58.8588   31.5398   49.3386 H   0  0  0  0  0  0  0  0  0  0  0  0
   63.1553   32.0769   51.1302 H   0  0  0  0  0  0  0  0  0  0  0  0
   63.2845   30.6047   50.1040 H   0  0  0  0  0  0  0  0  0  0  0  0
   64.6115   32.8259   49.4713 H   0  0  0  0  0  0  0  0  0  0  0  0
   63.8012   31.7969   48.1938 H   0  0  0  0  0  0  0  0  0  0  0  0
   61.3068   32.9961   47.3229 H   0  0  0  0  0  0  0  0  0  0  0  0
   62.2810   34.3619   46.6811 H   0  0  0  0  0  0  0  0  0  0  0  0
   62.9578   32.6980   46.6811 H   0  0  0  0  0  0  0  0  0  0  0  0
   62.3463   34.4073   50.4602 H   0  0  0  0  0  0  0  0  0  0  0  0
   61.3146   34.9407   49.0671 H   0  0  0  0  0  0  0  0  0  0  0  0
   60.3565   33.2054   50.8114 H   0  0  0  0  0  0  0  0  0  0  0  0
   60.0777   32.9678   49.0427 H   0  0  0  0  0  0  0  0  0  0  0  0
   62.4327   29.1410   49.8417 H   0  0  0  0  0  0  0  0  0  0  0  0
   61.1633   27.1124   49.1520 H   0  0  0  0  0  0  0  0  0  0  0  0
   58.1462   31.7650   47.3033 H   0  0  0  0  0  0  0  0  0  0  0  0
   58.7506   33.7056   48.3718 H   0  0  0  0  0  0  0  0  0  0  0  0
   60.1024   34.5362   47.5295 H   0  0  0  0  0  0  0  0  0  0  0  0
   58.4608   35.2655   47.5295 H   0  0  0  0  0  0  0  0  0  0  0  0
  1  2  1  0
  2  3  2  0
  3  4  1  0
  4  5  2  0
  5  6  1  0
  6  7  1  0
  7  8  2  0
  7  9  1  0
  9 10  1  0
 10 11  1  0
 10 12  2  0
 12 13  1  0
 13 14  2  0
 13 15  1  0
 15 16  1  0
 16 17  2  0
 17 18  1  0
 18 19  2  0
 19 20  1  0
 20 21  1  0
 21 22  1  0
 22 23  1  0
 23 24  1  0
 23 25  1  0
 25 26  1  0
 19 27  1  0
 27 28  2  0
 12 29  1  0
 29 30  2  0
  5 31  1  0
 31 32  2  0
 32 33  1  0
 32  2  1  0
 29  6  1  0
 28 16  1  0
 26 20  1  0
  1 34  1  0
  1 35  1  0
  1 36  1  0
  3 37  1  0
  4 38  1  0
 17 39  1  0
 18 40  1  0
 21 41  1  0
 21 42  1  0
 22 43  1  0
 22 44  1  0
 24 45  1  0
 24 46  1  0
 24 47  1  0
 25 48  1  0
 25 49  1  0
 26 50  1  0
 26 51  1  0
 27 52  1  0
 28 53  1  0
 31 54  1  0
 33 55  1  0
 33 56  1  0
 33 57  1  0
M  CHG  3   9  -1  11  -1  15  -1
M  END
>  <UniqueID>  (13) 
12

>  <SMILES>  (13) 
Cc1ccc(-n2c(=O)[n-]c([O-])c(C(=O)[N-]c3ccc(N4CCN(C)CC4)cc3)c2=O)cc1C

>  <Energy>  (13) 
90.18341194985439

>  <Genealogy>  (13) 
Cc1ccc(-n2c(=O)[n-]c([O-])c(C(=O)[N-]c3ccc(N4CCN(C)CC4)cc3)c2=O)cc1C (protonated)
Cc1ccc(-n2c(=O)[n-]c([O-])c(C(=O)[N-]c3ccc(N4CCN(C)CC4)cc3)c2=O)cc1C (3D coordinates assigned)
Cc1ccc(-n2c(=O)[n-]c([O-])c(C(=O)[N-]c3ccc(N4CCN(C)CC4)cc3)c2=O)cc1C (nonaromatic ring conformer: 90.18341194985439 kcal/mol)

>  <smiles>  (13) 
Cc1ccc(-n2c(=O)[nH]c(O)c(C(=O)Nc3ccc(N4CCN(C)CC4)cc3)c2=O)cc1C

>  <score_type>  (13) 
oracle

>  <origin>  (13) 
adg

>  <m_score__min__energy>  (13) 
-13.779999999999999

>  <m_primary>  (13) 
energy

$$$$
13:0
     RDKit          3D

 57 59  0  0  0  0  0  0  0  0999 V2000
   58.5320   31.9110   52.8800 C   0  0  0  0  0  0  0  0  0  0  0  0
   58.2100   31.0560   51.3570 S   0  0  0  0  0  0  0  0  0  0  0  0
   57.3780   29.8330   51.6250 O   0  0  0  0  0  0  0  0  0  0  0  0
   57.4530   31.9690   50.4340 O   0  0  0  0  0  0  0  0  0  0  0  0
   59.6910   30.5910   50.5940 N   0  0  0  0  0  0  0  0  0  0  0  0
   59.7070   29.7330   49.4530 C   0  0  0  0  0  0  0  0  0  0  0  0
   59.0310   30.1090   48.2820 C   0  0  0  0  0  0  0  0  0  0  0  0
   59.0190   29.2650   47.1580 C   0  0  0  0  0  0  0  0  0  0  0  0
   58.2890   29.6500   45.9190 C   0  0  0  0  0  0  0  0  0  0  0  0
   57.5320   28.6950   45.2180 C   0  0  0  0  0  0  0  0  0  0  0  0
   56.8720   29.0390   44.0380 C   0  0  0  0  0  0  0  0  0  0  0  0
   56.9510   30.3410   43.5460 C   0  0  0  0  0  0  0  0  0  0  0  0
   57.6810   31.3200   44.2350 C   0  0  0  0  0  0  0  0  0  0  0  0
   57.7290   32.6580   43.7030 N   0  0  0  0  0  0  0  0  0  0  0  0
   57.4710   33.8650   44.4880 C   0  0  0  0  0  0  0  0  0  0  0  0
   58.3010   33.8740   45.7450 C   0  0  0  0  0  0  0  0  0  0  0  0
   57.7460   33.4600   46.9640 C   0  0  0  0  0  0  0  0  0  0  0  0
   58.5140   33.4660   48.1320 C   0  0  0  0  0  0  0  0  0  0  0  0
   59.8580   33.8830   48.1010 C   0  0  0  0  0  0  0  0  0  0  0  0
   60.6790   33.9000   49.3370 C   0  0  0  0  0  0  0  0  0  0  0  0
   60.1490   33.5410   50.4640 N   0  0  0  0  0  0  0  0  0  0  0  0
   62.0580   34.2890   49.2990 N   0  0  0  0  0  0  0  0  0  0  0  0
   60.4200   34.2670   46.8690 C   0  0  0  0  0  0  0  0  0  0  0  0
   59.6490   34.2590   45.7030 C   0  0  0  0  0  0  0  0  0  0  0  0
   58.3520   30.9670   45.4230 C   0  0  0  0  0  0  0  0  0  0  0  0
   59.7070   28.0400   47.2230 C   0  0  0  0  0  0  0  0  0  0  0  0
   60.3650   27.6560   48.3920 C   0  0  0  0  0  0  0  0  0  0  0  0
   60.3520   28.4850   49.5240 C   0  0  0  0  0  0  0  0  0  0  0  0
   61.0620   28.1070   50.7180 N   0  0  0  0  0  0  0  0  0  0  0  0
   60.4390   27.8850   51.9950 C   0  0  0  0  0  0  0  0  0  0  0  0
   61.0570   26.9940   52.9260 N   0  0  0  0  0  0  0  0  0  0  0  0
   59.3650   28.5340   52.3380 N   0  0  0  0  0  0  0  0  0  0  0  0
   58.2850   31.2552   53.7279 H   0  0  0  0  0  0  0  0  0  0  0  0
   59.5957   32.1871   52.9277 H   0  0  0  0  0  0  0  0  0  0  0  0
   57.9147   32.8202   52.9277 H   0  0  0  0  0  0  0  0  0  0  0  0
   58.5050   31.0743   48.2434 H   0  0  0  0  0  0  0  0  0  0  0  0
   57.4594   27.6673   45.6034 H   0  0  0  0  0  0  0  0  0  0  0  0
   56.2881   28.2814   43.4947 H   0  0  0  0  0  0  0  0  0  0  0  0
   56.4364   30.6024   42.6096 H   0  0  0  0  0  0  0  0  0  0  0  0
   57.8480   32.7780   42.6700 H   0  0  0  0  0  0  0  0  0  0  0  0
   57.7227   34.7489   43.8835 H   0  0  0  0  0  0  0  0  0  0  0  0
   56.4074   33.8824   44.7680 H   0  0  0  0  0  0  0  0  0  0  0  0
   56.6980   33.1278   47.0017 H   0  0  0  0  0  0  0  0  0  0  0  0
   58.0646   33.1424   49.0825 H   0  0  0  0  0  0  0  0  0  0  0  0
   59.4780   32.7440   50.5300 H   0  0  0  0  0  0  0  0  0  0  0  0
   62.6130   34.3640   50.1800 H   0  0  0  0  0  0  0  0  0  0  0  0
   62.5590   34.4340   48.3960 H   0  0  0  0  0  0  0  0  0  0  0  0
   61.4747   34.5760   46.8233 H   0  0  0  0  0  0  0  0  0  0  0  0
   60.1026   34.5567   44.7461 H   0  0  0  0  0  0  0  0  0  0  0  0
   58.9305   31.7273   45.9683 H   0  0  0  0  0  0  0  0  0  0  0  0
   59.7265   27.3786   46.3443 H   0  0  0  0  0  0  0  0  0  0  0  0
   60.8987   26.6948   48.4264 H   0  0  0  0  0  0  0  0  0  0  0  0
   62.0920   27.9520   50.6530 H   0  0  0  0  0  0  0  0  0  0  0  0
   61.9290   26.4820   52.6650 H   0  0  0  0  0  0  0  0  0  0  0  0
   60.6440   26.8300   53.8710 H   0  0  0  0  0  0  0  0  0  0  0  0
   59.3890   29.5680   52.4810 H   0  0  0  0  0  0  0  0  0  0  0  0
   58.4470   28.0490   52.4500 H   0  0  0  0  0  0  0  0  0  0  0  0
  1  2  1  0
  2  3  2  0
  2  4  2  0
  2  5  1  0
  5  6  1  0
  6  7  2  0
  7  8  1  0
  8  9  1  0
  9 10  2  0
 10 11  1  0
 11 12  2  0
 12 13  1  0
 13 14  1  0
 14 15  1  0
 15 16  1  0
 16 17  2  0
 17 18  1  0
 18 19  2  0
 19 20  1  0
 20 21  2  3
 20 22  1  0
 19 23  1  0
 23 24  2  0
 13 25  2  0
  8 26  2  0
 26 27  1  0
 27 28  2  0
 28 29  1  0
 29 30  1  0
 30 31  1  0
 30 32  2  0
 28  6  1  0
 25  9  1  0
 24 16  1  0
  1 33  1  0
  1 34  1  0
  1 35  1  0
  7 36  1  0
 10 37  1  0
 11 38  1  0
 12 39  1  0
 14 40  1  0
 15 41  1  0
 15 42  1  0
 17 43  1  0
 18 44  1  0
 21 45  1  0
 22 46  1  0
 22 47  1  0
 23 48  1  0
 24 49  1  0
 25 50  1  0
 26 51  1  0
 27 52  1  0
 29 53  1  0
 31 54  1  0
 31 55  1  0
 32 56  1  0
 32 57  1  0
M  CHG  2   5  -1  32   1
M  END
>  <UniqueID>  (14) 
13

>  <SMILES>  (14) 
CS(=O)(=O)[N-]c1cc(-c2cccc(NCc3ccc(C(=N)N)cc3)c2)ccc1NC(N)=[NH2+]

>  <Energy>  (14) 
70.57048156511411

>  <Genealogy>  (14) 
CS(=O)(=O)[N-]c1cc(-c2cccc(NCc3ccc(C(=N)N)cc3)c2)ccc1NC(N)=[NH2+] (protonated)
CS(=O)(=O)[N-]c1cc(-c2cccc(NCc3ccc(C(=N)N)cc3)c2)ccc1NC(N)=[NH2+] (3D coordinates assigned)
CS(=O)(=O)[N-]c1cc(-c2cccc(NCc3ccc(C(=N)N)cc3)c2)ccc1NC(N)=[NH2+] (optimized conformer: 70.57048156511411 kcal/mol)

>  <smiles>  (14) 
CS(=O)(=O)Nc1cc(-c2cccc(NCc3ccc(C(=N)N)cc3)c2)ccc1NC(=N)N

>  <score_type>  (14) 
oracle

>  <origin>  (14) 
adg

>  <m_score__min__energy>  (14) 
-8.0500000000000007

>  <m_primary>  (14) 
energy

$$$$
14:0
     RDKit          3D

 55 57  0  0  0  0  0  0  0  0999 V2000
   57.0510   28.9800   43.2920 C   0  0  0  0  0  0  0  0  0  0  0  0
   56.6100   29.4850   44.6300 C   0  0  0  0  0  0  0  0  0  0  0  0
   55.3870   29.3890   44.9350 O   0  0  0  0  0  0  0  0  0  0  0  0
   57.5980   30.0450   45.6000 C   0  0  0  0  0  0  0  0  0  0  0  0
   58.2670   29.1540   46.4510 C   0  0  0  0  0  0  0  0  0  0  0  0
   59.2910   29.3840   47.3820 C   0  0  0  0  0  0  0  0  0  0  0  0
   59.7870   28.1510   48.1260 C   0  0  0  0  0  0  0  0  0  0  0  0
   59.9400   26.9950   47.1850 C   0  0  0  0  0  0  0  0  0  0  0  0
   60.8600   27.0160   46.3230 O   0  0  0  0  0  0  0  0  0  0  0  0
   59.0680   25.8610   47.2820 N   0  0  0  0  0  0  0  0  0  0  0  0
   59.0310   24.8160   46.2630 C   0  0  0  0  0  0  0  0  0  0  0  0
   57.6300   24.6620   45.7390 C   0  0  0  0  0  0  0  0  0  0  0  0
   57.2970   23.5540   44.9430 C   0  0  0  0  0  0  0  0  0  0  0  0
   55.9840   23.3800   44.4930 C   0  0  0  0  0  0  0  0  0  0  0  0
   54.9930   24.3030   44.8410 C   0  0  0  0  0  0  0  0  0  0  0  0
   55.3160   25.4060   45.6390 C   0  0  0  0  0  0  0  0  0  0  0  0
   54.3310   26.3240   45.9850 O   0  0  0  0  0  0  0  0  0  0  0  0
   56.6300   25.5850   46.0880 C   0  0  0  0  0  0  0  0  0  0  0  0
   59.9150   30.6180   47.6490 C   0  0  0  0  0  0  0  0  0  0  0  0
   60.8880   30.6380   48.4550 O   0  0  0  0  0  0  0  0  0  0  0  0
   59.5600   31.8070   47.1220 N   0  0  0  0  0  0  0  0  0  0  0  0
   58.6160   32.2220   46.2460 C   0  0  0  0  0  0  0  0  0  0  0  0
   58.5400   33.6310   45.9570 N   0  0  0  0  0  0  0  0  0  0  0  0
   57.2320   34.2140   45.6290 C   0  0  0  0  0  0  0  0  0  0  0  0
   59.7640   34.3860   45.6460 C   0  0  0  0  0  0  0  0  0  0  0  0
   60.7980   34.2180   46.7300 C   0  0  0  0  0  0  0  0  0  0  0  0
   60.4600   34.4310   48.0780 C   0  0  0  0  0  0  0  0  0  0  0  0
   61.4230   34.2510   49.0810 C   0  0  0  0  0  0  0  0  0  0  0  0
   62.7310   33.8680   48.7460 C   0  0  0  0  0  0  0  0  0  0  0  0
   63.0730   33.6570   47.4080 C   0  0  0  0  0  0  0  0  0  0  0  0
   62.1100   33.8280   46.4030 C   0  0  0  0  0  0  0  0  0  0  0  0
   57.7830   31.3870   45.5780 N   0  0  0  0  0  0  0  0  0  0  0  0
   57.7689   28.1579   43.4288 H   0  0  0  0  0  0  0  0  0  0  0  0
   56.1776   28.6147   42.7319 H   0  0  0  0  0  0  0  0  0  0  0  0
   57.5306   29.7962   42.7319 H   0  0  0  0  0  0  0  0  0  0  0  0
   57.9362   28.1075   46.3769 H   0  0  0  0  0  0  0  0  0  0  0  0
   60.7607   28.3738   48.5867 H   0  0  0  0  0  0  0  0  0  0  0  0
   59.0527   27.8840   48.9003 H   0  0  0  0  0  0  0  0  0  0  0  0
   58.3880   25.8050   48.0730 H   0  0  0  0  0  0  0  0  0  0  0  0
   59.7020   25.0896   45.4354 H   0  0  0  0  0  0  0  0  0  0  0  0
   59.3581   23.8646   46.7077 H   0  0  0  0  0  0  0  0  0  0  0  0
   58.0710   22.8207   44.6725 H   0  0  0  0  0  0  0  0  0  0  0  0
   55.7303   22.5144   43.8634 H   0  0  0  0  0  0  0  0  0  0  0  0
   53.9608   24.1622   44.4879 H   0  0  0  0  0  0  0  0  0  0  0  0
   56.8805   26.4521   46.7168 H   0  0  0  0  0  0  0  0  0  0  0  0
   56.6941   34.4538   46.5581 H   0  0  0  0  0  0  0  0  0  0  0  0
   57.3769   35.1327   45.0417 H   0  0  0  0  0  0  0  0  0  0  0  0
   56.6456   33.4920   45.0417 H   0  0  0  0  0  0  0  0  0  0  0  0
   60.1788   34.0211   44.6948 H   0  0  0  0  0  0  0  0  0  0  0  0
   59.5062   35.4528   45.5727 H   0  0  0  0  0  0  0  0  0  0  0  0
   59.4387   34.7393   48.3461 H   0  0  0  0  0  0  0  0  0  0  0  0
   61.1522   34.4107   50.1351 H   0  0  0  0  0  0  0  0  0  0  0  0
   63.4853   33.7342   49.5353 H   0  0  0  0  0  0  0  0  0  0  0  0
   64.0975   33.3568   47.1428 H   0  0  0  0  0  0  0  0  0  0  0  0
   62.3822   33.6560   45.3512 H   0  0  0  0  0  0  0  0  0  0  0  0
  1  2  1  0
  2  3  2  0
  2  4  1  0
  4  5  1  0
  5  6  2  0
  6  7  1  0
  7  8  1  0
  8  9  2  0
  8 10  1  0
 10 11  1  0
 11 12  1  0
 12 13  2  0
 13 14  1  0
 14 15  2  0
 15 16  1  0
 16 17  1  0
 16 18  2  0
  6 19  1  0
 19 20  2  0
 19 21  1  0
 21 22  2  0
 22 23  1  0
 23 24  1  0
 23 25  1  0
 25 26  1  0
 26 27  2  0
 27 28  1  0
 28 29  2  0
 29 30  1  0
 30 31  2  0
 22 32  1  0
 32  4  2  0
 18 12  1  0
 31 26  1  0
  1 33  1  0
  1 34  1  0
  1 35  1  0
  5 36  1  0
  7 37  1  0
  7 38  1  0
 10 39  1  0
 11 40  1  0
 11 41  1  0
 13 42  1  0
 14 43  1  0
 15 44  1  0
 18 45  1  0
 24 46  1  0
 24 47  1  0
 24 48  1  0
 25 49  1  0
 25 50  1  0
 27 51  1  0
 28 52  1  0
 29 53  1  0
 30 54  1  0
 31 55  1  0
M  CHG  1  17  -1
M  END
>  <UniqueID>  (15) 
14

>  <SMILES>  (15) 
CC(=O)c1cc(CC(=O)NCc2cccc([O-])c2)c(=O)nc(N(C)Cc2ccccc2)n1

>  <Energy>  (15) 
78.215234019525

>  <Genealogy>  (15) 
CC(=O)c1cc(CC(=O)NCc2cccc([O-])c2)c(=O)nc(N(C)Cc2ccccc2)n1 (protonated)
CC(=O)c1cc(CC(=O)NCc2cccc([O-])c2)c(=O)nc(N(C)Cc2ccccc2)n1 (3D coordinates assigned)
CC(=O)c1cc(CC(=O)NCc2cccc([O-])c2)c(=O)nc(N(C)Cc2ccccc2)n1 (optimized conformer: 78.215234019525 kcal/mol)

>  <smiles>  (15) 
CC(=O)c1cc(CC(=O)NCc2cccc(O)c2)c(=O)nc(N(C)Cc2ccccc2)n1

>  <score_type>  (15) 
oracle

>  <origin>  (15) 
adg

>  <m_score__min__energy>  (15) 
-13.859999999999999

>  <m_primary>  (15) 
energy

$$$$
15:0
     RDKit          3D

 56 59  0  0  0  0  0  0  0  0999 V2000
   55.3920   29.3460   44.8570 O   0  0  0  0  0  0  0  0  0  0  0  0
   56.6020   29.2020   44.5430 C   0  0  0  0  0  0  0  0  0  0  0  0
   57.1010   29.8820   43.3810 N   0  0  0  0  0  0  0  0  0  0  0  0
   57.0020   31.3190   43.1270 C   0  0  0  0  0  0  0  0  0  0  0  0
   57.6070   32.0980   44.2580 C   0  0  0  0  0  0  0  0  0  0  0  0
   58.5400   33.1120   44.0090 C   0  0  0  0  0  0  0  0  0  0  0  0
   59.1560   33.7560   45.0830 C   0  0  0  0  0  0  0  0  0  0  0  0
   58.8520   33.3770   46.3980 C   0  0  0  0  0  0  0  0  0  0  0  0
   59.5320   34.0240   47.5400 C   0  0  0  0  0  0  0  0  0  0  0  0
   60.0350   35.1690   47.3760 O   0  0  0  0  0  0  0  0  0  0  0  0
   59.6360   33.3830   48.8290 N   0  0  0  0  0  0  0  0  0  0  0  0
   59.6580   31.9200   48.9580 C   0  0  0  0  0  0  0  0  0  0  0  0
   60.7420   31.4530   49.9520 C   0  0  0  0  0  0  0  0  0  0  0  0
   61.0340   32.4150   51.0490 N   0  0  0  0  0  0  0  0  0  0  0  0
   62.3500   33.0690   50.8630 C   0  0  0  0  0  0  0  0  0  0  0  0
   62.7860   33.0580   49.4200 C   0  0  0  0  0  0  0  0  0  0  0  0
   62.6150   34.2020   48.6240 C   0  0  0  0  0  0  0  0  0  0  0  0
   63.0130   34.1940   47.2830 C   0  0  0  0  0  0  0  0  0  0  0  0
   63.5870   33.0450   46.7300 C   0  0  0  0  0  0  0  0  0  0  0  0
   63.7610   31.9030   47.5160 C   0  0  0  0  0  0  0  0  0  0  0  0
   63.3630   31.9050   48.8560 C   0  0  0  0  0  0  0  0  0  0  0  0
   59.9270   33.3690   51.2810 C   0  0  0  0  0  0  0  0  0  0  0  0
   59.6390   34.2130   50.0370 C   0  0  0  0  0  0  0  0  0  0  0  0
   57.8830   32.3830   46.6030 C   0  0  0  0  0  0  0  0  0  0  0  0
   57.2960   31.7700   45.5410 N   0  0  0  0  0  0  0  0  0  0  0  0
   57.4560   28.3210   45.3620 C   0  0  0  0  0  0  0  0  0  0  0  0
   58.8220   28.6090   45.5240 C   0  0  0  0  0  0  0  0  0  0  0  0
   59.6380   27.7550   46.2740 C   0  0  0  0  0  0  0  0  0  0  0  0
   59.0950   26.6160   46.8740 C   0  0  0  0  0  0  0  0  0  0  0  0
   57.7330   26.3340   46.7360 C   0  0  0  0  0  0  0  0  0  0  0  0
   56.9110   27.1840   45.9880 C   0  0  0  0  0  0  0  0  0  0  0  0
   55.5960   26.8810   45.8470 F   0  0  0  0  0  0  0  0  0  0  0  0
   57.5363   31.5592   42.1960 H   0  0  0  0  0  0  0  0  0  0  0  0
   55.9399   31.5910   43.0371 H   0  0  0  0  0  0  0  0  0  0  0  0
   58.7853   33.3985   42.9757 H   0  0  0  0  0  0  0  0  0  0  0  0
   59.8811   34.5621   44.8974 H   0  0  0  0  0  0  0  0  0  0  0  0
   58.6753   31.5784   49.3152 H   0  0  0  0  0  0  0  0  0  0  0  0
   59.8885   31.4913   47.9715 H   0  0  0  0  0  0  0  0  0  0  0  0
   60.4077   30.5079   50.4047 H   0  0  0  0  0  0  0  0  0  0  0  0
   61.6715   31.3498   49.3729 H   0  0  0  0  0  0  0  0  0  0  0  0
   62.2799   34.1121   51.2051 H   0  0  0  0  0  0  0  0  0  0  0  0
   63.0942   32.5083   51.4476 H   0  0  0  0  0  0  0  0  0  0  0  0
   62.1662   35.1083   49.0567 H   0  0  0  0  0  0  0  0  0  0  0  0
   62.8744   35.0921   46.6631 H   0  0  0  0  0  0  0  0  0  0  0  0
   63.9016   33.0402   45.6760 H   0  0  0  0  0  0  0  0  0  0  0  0
   64.2124   31.0000   47.0792 H   0  0  0  0  0  0  0  0  0  0  0  0
   63.5011   31.0034   49.4709 H   0  0  0  0  0  0  0  0  0  0  0  0
   59.0206   32.8057   51.5476 H   0  0  0  0  0  0  0  0  0  0  0  0
   60.2227   34.0469   52.0952 H   0  0  0  0  0  0  0  0  0  0  0  0
   58.6548   34.6919   50.1470 H   0  0  0  0  0  0  0  0  0  0  0  0
   60.4281   34.9730   49.9384 H   0  0  0  0  0  0  0  0  0  0  0  0
   57.5974   32.0988   47.6265 H   0  0  0  0  0  0  0  0  0  0  0  0
   59.2512   29.5090   45.0595 H   0  0  0  0  0  0  0  0  0  0  0  0
   60.7082   27.9806   46.3914 H   0  0  0  0  0  0  0  0  0  0  0  0
   59.7399   25.9407   47.4554 H   0  0  0  0  0  0  0  0  0  0  0  0
   57.3062   25.4414   47.2168 H   0  0  0  0  0  0  0  0  0  0  0  0
  1  2  2  0
  2  3  1  0
  3  4  1  0
  4  5  1  0
  5  6  2  0
  6  7  1  0
  7  8  2  0
  8  9  1  0
  9 10  2  0
  9 11  1  0
 11 12  1  0
 12 13  1  0
 13 14  1  0
 14 15  1  0
 15 16  1  0
 16 17  2  0
 17 18  1  0
 18 19  2  0
 19 20  1  0
 20 21  2  0
 14 22  1  0
 22 23  1  0
  8 24  1  0
 24 25  2  0
  2 26  1  0
 26 27  2  0
 27 28  1  0
 28 29  2  0
 29 30  1  0
 30 31  2  0
 31 32  1  0
 25  5  1  0
 31 26  1  0
 23 11  1  0
 21 16  1  0
  4 33  1  0
  4 34  1  0
  6 35  1  0
  7 36  1  0
 12 37  1  0
 12 38  1  0
 13 39  1  0
 13 40  1  0
 15 41  1  0
 15 42  1  0
 17 43  1  0
 18 44  1  0
 19 45  1  0
 20 46  1  0
 21 47  1  0
 22 48  1  0
 22 49  1  0
 23 50  1  0
 23 51  1  0
 24 52  1  0
 27 53  1  0
 28 54  1  0
 29 55  1  0
 30 56  1  0
M  CHG  1   3  -1
M  END
>  <UniqueID>  (16) 
15

>  <SMILES>  (16) 
O=C([N-]Cc1ccc(C(=O)N2CCN(Cc3ccccc3)CC2)cn1)c1ccccc1F

>  <Energy>  (16) 
74.89309318944997

>  <Genealogy>  (16) 
O=C([N-]Cc1ccc(C(=O)N2CCN(Cc3ccccc3)CC2)cn1)c1ccccc1F (protonated)
O=C([N-]Cc1ccc(C(=O)N2CCN(Cc3ccccc3)CC2)cn1)c1ccccc1F (3D coordinates assigned)
O=C([N-]Cc1ccc(C(=O)N2CCN(Cc3ccccc3)CC2)cn1)c1ccccc1F (nonaromatic ring conformer: 74.89309318944997 kcal/mol)

>  <smiles>  (16) 
O=C(NCc1ccc(C(=O)N2CCN(Cc3ccccc3)CC2)cn1)c1ccccc1F

>  <score_type>  (16) 
oracle

>  <origin>  (16) 
adg

>  <m_score__min__energy>  (16) 
-11.24

>  <m_primary>  (16) 
energy

$$$$
16:0
     RDKit          3D

 51 53  0  0  0  0  0  0  0  0999 V2000
   55.6020   23.8940   45.0050 C   0  0  0  0  0  0  0  0  0  0  0  0
   55.8320   25.2320   45.6420 C   0  0  0  0  0  0  0  0  0  0  0  0
   54.8270   25.9150   45.9780 O   0  0  0  0  0  0  0  0  0  0  0  0
   57.1990   25.7650   45.8720 C   0  0  0  0  0  0  0  0  0  0  0  0
   58.3110   24.9040   45.8130 C   0  0  0  0  0  0  0  0  0  0  0  0
   59.6020   25.3950   46.0270 C   0  0  0  0  0  0  0  0  0  0  0  0
   59.8010   26.7450   46.3150 C   0  0  0  0  0  0  0  0  0  0  0  0
   58.7080   27.6160   46.3810 C   0  0  0  0  0  0  0  0  0  0  0  0
   58.9050   28.9950   46.7330 N   0  0  0  0  0  0  0  0  0  0  0  0
   57.7620   29.9100   46.5990 C   0  0  0  0  0  0  0  0  0  0  0  0
   57.4890   30.1870   45.1420 C   0  0  0  0  0  0  0  0  0  0  0  0
   58.3890   30.9740   44.4020 C   0  0  0  0  0  0  0  0  0  0  0  0
   58.1150   31.2990   43.0710 C   0  0  0  0  0  0  0  0  0  0  0  0
   56.9380   30.8480   42.4680 C   0  0  0  0  0  0  0  0  0  0  0  0
   56.0310   30.0730   43.1960 C   0  0  0  0  0  0  0  0  0  0  0  0
   56.2980   29.7460   44.5310 C   0  0  0  0  0  0  0  0  0  0  0  0
   55.3750   28.9850   45.2410 O   0  0  0  0  0  0  0  0  0  0  0  0
   60.2090   29.4720   47.1370 C   0  0  0  0  0  0  0  0  0  0  0  0
   60.8320   28.8980   48.0720 O   0  0  0  0  0  0  0  0  0  0  0  0
   60.8680   30.6290   46.4440 C   0  0  0  0  0  0  0  0  0  0  0  0
   61.7670   31.3030   47.3780 N   0  0  0  0  0  0  0  0  0  0  0  0
   61.5340   33.0200   47.2910 S   0  0  0  0  0  0  0  0  0  0  0  0
   62.5690   33.6080   46.3740 O   0  0  0  0  0  0  0  0  0  0  0  0
   61.7020   33.6370   48.6530 O   0  0  0  0  0  0  0  0  0  0  0  0
   59.9290   33.3850   46.6590 C   0  0  0  0  0  0  0  0  0  0  0  0
   59.7930   34.0200   45.4160 C   0  0  0  0  0  0  0  0  0  0  0  0
   58.5210   34.3270   44.9190 C   0  0  0  0  0  0  0  0  0  0  0  0
   57.3830   33.9860   45.6550 C   0  0  0  0  0  0  0  0  0  0  0  0
   57.5130   33.3420   46.8870 C   0  0  0  0  0  0  0  0  0  0  0  0
   58.7830   33.0420   47.3900 C   0  0  0  0  0  0  0  0  0  0  0  0
   57.4140   27.1270   46.1610 C   0  0  0  0  0  0  0  0  0  0  0  0
   55.4711   23.1327   45.7881 H   0  0  0  0  0  0  0  0  0  0  0  0
   54.6979   23.9361   44.3798 H   0  0  0  0  0  0  0  0  0  0  0  0
   56.4682   23.6318   44.3798 H   0  0  0  0  0  0  0  0  0  0  0  0
   58.1627   23.8357   45.5966 H   0  0  0  0  0  0  0  0  0  0  0  0
   60.4641   24.7143   45.9681 H   0  0  0  0  0  0  0  0  0  0  0  0
   60.8181   27.1253   46.4904 H   0  0  0  0  0  0  0  0  0  0  0  0
   56.8726   29.4506   47.0550 H   0  0  0  0  0  0  0  0  0  0  0  0
   57.9965   30.8565   47.1080 H   0  0  0  0  0  0  0  0  0  0  0  0
   59.3144   31.3360   44.8738 H   0  0  0  0  0  0  0  0  0  0  0  0
   58.8268   31.9107   42.4972 H   0  0  0  0  0  0  0  0  0  0  0  0
   56.7251   31.1031   41.4194 H   0  0  0  0  0  0  0  0  0  0  0  0
   55.1051   29.7191   42.7190 H   0  0  0  0  0  0  0  0  0  0  0  0
   61.4428   30.2615   45.5812 H   0  0  0  0  0  0  0  0  0  0  0  0
   60.1004   31.3360   46.0963 H   0  0  0  0  0  0  0  0  0  0  0  0
   60.6879   34.2774   44.8304 H   0  0  0  0  0  0  0  0  0  0  0  0
   58.4172   34.8364   43.9496 H   0  0  0  0  0  0  0  0  0  0  0  0
   56.3834   34.2253   45.2631 H   0  0  0  0  0  0  0  0  0  0  0  0
   56.6158   33.0704   47.4625 H   0  0  0  0  0  0  0  0  0  0  0  0
   58.8829   32.5357   48.3614 H   0  0  0  0  0  0  0  0  0  0  0  0
   56.5564   27.8138   46.2144 H   0  0  0  0  0  0  0  0  0  0  0  0
  1  2  1  0
  2  3  2  0
  2  4  1  0
  4  5  2  0
  5  6  1  0
  6  7  2  0
  7  8  1  0
  8  9  1  0
  9 10  1  0
 10 11  1  0
 11 12  2  0
 12 13  1  0
 13 14  2  0
 14 15  1  0
 15 16  2  0
 16 17  1  0
  9 18  1  0
 18 19  2  0
 18 20  1  0
 20 21  1  0
 21 22  1  0
 22 23  2  0
 22 24  2  0
 22 25  1  0
 25 26  2  0
 26 27  1  0
 27 28  2  0
 28 29  1  0
 29 30  2  0
  8 31  2  0
 31  4  1  0
 16 11  1  0
 30 25  1  0
  1 32  1  0
  1 33  1  0
  1 34  1  0
  5 35  1  0
  6 36  1  0
  7 37  1  0
 10 38  1  0
 10 39  1  0
 12 40  1  0
 13 41  1  0
 14 42  1  0
 15 43  1  0
 20 44  1  0
 20 45  1  0
 26 46  1  0
 27 47  1  0
 28 48  1  0
 29 49  1  0
 30 50  1  0
 31 51  1  0
M  CHG  2  17  -1  21  -1
M  END
>  <UniqueID>  (17) 
16

>  <SMILES>  (17) 
CC(=O)c1cccc(N(Cc2ccccc2[O-])C(=O)C[N-]S(=O)(=O)c2ccccc2)c1

>  <Energy>  (17) 
50.9386826898193

>  <Genealogy>  (17) 
CC(=O)c1cccc(N(Cc2ccccc2[O-])C(=O)C[N-]S(=O)(=O)c2ccccc2)c1 (protonated)
CC(=O)c1cccc(N(Cc2ccccc2[O-])C(=O)C[N-]S(=O)(=O)c2ccccc2)c1 (3D coordinates assigned)
CC(=O)c1cccc(N(Cc2ccccc2[O-])C(=O)C[N-]S(=O)(=O)c2ccccc2)c1 (optimized conformer: 50.9386826898193 kcal/mol)

>  <smiles>  (17) 
CC(=O)c1cccc(N(Cc2ccccc2O)C(=O)CNS(=O)(=O)c2ccccc2)c1

>  <score_type>  (17) 
oracle

>  <origin>  (17) 
adg

>  <m_score__min__energy>  (17) 
-13.859999999999999

>  <m_primary>  (17) 
energy

$$$$
17:0
     RDKit          3D

 66 69  0  0  0  0  0  0  0  0999 V2000
   58.8930   27.7050   46.9560 C   0  0  0  0  0  0  0  0  0  0  0  0
   58.3690   28.3340   45.8920 C   0  0  0  0  0  0  0  0  0  0  0  0
   57.7900   27.7290   44.7720 C   0  0  0  0  0  0  0  0  0  0  0  0
   57.6410   26.4110   44.5370 C   0  0  0  0  0  0  0  0  0  0  0  0
   57.1690   25.4480   45.5580 C   0  0  0  0  0  0  0  0  0  0  0  0
   55.9420   25.6210   46.2240 C   0  0  0  0  0  0  0  0  0  0  0  0
   55.1240   26.7080   45.9400 O   0  0  0  0  0  0  0  0  0  0  0  0
   55.5350   24.7060   47.1420 N   0  0  0  0  0  0  0  0  0  0  0  0
   56.2850   23.6100   47.4190 C   0  0  0  0  0  0  0  0  0  0  0  0
   55.8900   22.7790   48.2770 O   0  0  0  0  0  0  0  0  0  0  0  0
   57.4570   23.4050   46.7670 N   0  0  0  0  0  0  0  0  0  0  0  0
   57.9110   24.2900   45.8420 C   0  0  0  0  0  0  0  0  0  0  0  0
   59.0010   24.0640   45.2530 O   0  0  0  0  0  0  0  0  0  0  0  0
   57.3510   28.7620   43.9530 C   0  0  0  0  0  0  0  0  0  0  0  0
   57.6900   29.9410   44.5880 C   0  0  0  0  0  0  0  0  0  0  0  0
   57.3940   31.3100   44.0550 C   0  0  0  0  0  0  0  0  0  0  0  0
   58.3040   29.6840   45.7650 N   0  0  0  0  0  0  0  0  0  0  0  0
   58.8120   30.6710   46.6780 C   0  0  0  0  0  0  0  0  0  0  0  0
   58.8740   30.3990   48.0490 C   0  0  0  0  0  0  0  0  0  0  0  0
   59.3590   31.3600   48.9410 C   0  0  0  0  0  0  0  0  0  0  0  0
   59.7930   32.6170   48.4750 C   0  0  0  0  0  0  0  0  0  0  0  0
   60.3280   33.6710   49.3800 C   0  0  0  0  0  0  0  0  0  0  0  0
   59.6640   34.7350   49.5260 O   0  0  0  0  0  0  0  0  0  0  0  0
   61.5060   33.4810   50.1910 N   0  0  0  0  0  0  0  0  0  0  0  0
   61.4040   33.8180   51.6180 C   0  0  0  0  0  0  0  0  0  0  0  0
   62.5800   33.2440   52.4180 C   0  0  0  0  0  0  0  0  0  0  0  0
   63.8710   33.5540   51.7850 N   0  0  0  0  0  0  0  0  0  0  0  0
   65.0870   33.4280   52.5470 C   0  0  0  0  0  0  0  0  0  0  0  0
   65.0460   32.9680   53.7200 O   0  0  0  0  0  0  0  0  0  0  0  0
   66.3090   33.8190   51.9750 O   0  0  0  0  0  0  0  0  0  0  0  0
   67.2890   32.9570   51.3780 C   0  0  0  0  0  0  0  0  0  0  0  0
   68.0490   32.2710   52.5240 C   0  0  0  0  0  0  0  0  0  0  0  0
   66.6050   31.8770   50.5180 C   0  0  0  0  0  0  0  0  0  0  0  0
   68.2890   33.7710   50.5350 C   0  0  0  0  0  0  0  0  0  0  0  0
   63.9140   34.0450   50.4010 C   0  0  0  0  0  0  0  0  0  0  0  0
   62.8320   33.3590   49.5640 C   0  0  0  0  0  0  0  0  0  0  0  0
   59.7290   32.8780   47.0920 C   0  0  0  0  0  0  0  0  0  0  0  0
   59.2400   31.9170   46.2030 C   0  0  0  0  0  0  0  0  0  0  0  0
   59.3235   28.2887   47.7830 H   0  0  0  0  0  0  0  0  0  0  0  0
   58.8918   26.6059   47.0008 H   0  0  0  0  0  0  0  0  0  0  0  0
   57.8827   26.0300   43.5338 H   0  0  0  0  0  0  0  0  0  0  0  0
   56.8342   28.6607   42.9872 H   0  0  0  0  0  0  0  0  0  0  0  0
   57.2436   32.0055   44.8939 H   0  0  0  0  0  0  0  0  0  0  0  0
   58.2384   31.6545   43.4399 H   0  0  0  0  0  0  0  0  0  0  0  0
   56.4827   31.2749   43.4399 H   0  0  0  0  0  0  0  0  0  0  0  0
   58.5388   29.4222   48.4277 H   0  0  0  0  0  0  0  0  0  0  0  0
   59.4022   31.1328   50.0164 H   0  0  0  0  0  0  0  0  0  0  0  0
   61.3983   34.9126   51.7270 H   0  0  0  0  0  0  0  0  0  0  0  0
   60.4742   33.3799   52.0099 H   0  0  0  0  0  0  0  0  0  0  0  0
   62.5667   33.6746   53.4301 H   0  0  0  0  0  0  0  0  0  0  0  0
   62.4693   32.1502   52.4536 H   0  0  0  0  0  0  0  0  0  0  0  0
   67.6562   32.6255   53.4884 H   0  0  0  0  0  0  0  0  0  0  0  0
   67.9156   31.1815   52.4520 H   0  0  0  0  0  0  0  0  0  0  0  0
   69.1192   32.5149   52.4520 H   0  0  0  0  0  0  0  0  0  0  0  0
   66.1325   31.1309   51.1738 H   0  0  0  0  0  0  0  0  0  0  0  0
   65.8383   32.3451   49.8831 H   0  0  0  0  0  0  0  0  0  0  0  0
   67.3559   31.3839   49.8831 H   0  0  0  0  0  0  0  0  0  0  0  0
   68.9671   34.3230   51.2024 H   0  0  0  0  0  0  0  0  0  0  0  0
   68.8739   33.0891   49.9003 H   0  0  0  0  0  0  0  0  0  0  0  0
   67.7400   34.4822   49.9003 H   0  0  0  0  0  0  0  0  0  0  0  0
   63.7435   35.1317   50.3953 H   0  0  0  0  0  0  0  0  0  0  0  0
   64.9000   33.8177   49.9696 H   0  0  0  0  0  0  0  0  0  0  0  0
   62.8008   33.8258   48.5684 H   0  0  0  0  0  0  0  0  0  0  0  0
   63.0806   32.2902   49.4881 H   0  0  0  0  0  0  0  0  0  0  0  0
   60.0684   33.8509   46.7069 H   0  0  0  0  0  0  0  0  0  0  0  0
   59.1911   32.1399   45.1269 H   0  0  0  0  0  0  0  0  0  0  0  0
  1  2  2  0
  2  3  1  0
  3  4  2  3
  4  5  1  0
  5  6  2  0
  6  7  1  0
  6  8  1  0
  8  9  1  0
  9 10  2  0
  9 11  1  0
 11 12  1  0
 12 13  2  0
  3 14  1  0
 14 15  2  0
 15 16  1  0
 15 17  1  0
 17 18  1  0
 18 19  2  0
 19 20  1  0
 20 21  2  0
 21 22  1  0
 22 23  2  0
 22 24  1  0
 24 25  1  0
 25 26  1  0
 26 27  1  0
 27 28  1  0
 28 29  2  0
 28 30  1  0
 30 31  1  0
 31 32  1  0
 31 33  1  0
 31 34  1  0
 27 35  1  0
 35 36  1  0
 21 37  1  0
 37 38  2  0
 17  2  1  0
 38 18  1  0
 12  5  1  0
 36 24  1  0
  1 39  1  0
  1 40  1  0
  4 41  1  0
 14 42  1  0
 16 43  1  0
 16 44  1  0
 16 45  1  0
 19 46  1  0
 20 47  1  0
 25 48  1  0
 25 49  1  0
 26 50  1  0
 26 51  1  0
 32 52  1  0
 32 53  1  0
 32 54  1  0
 33 55  1  0
 33 56  1  0
 33 57  1  0
 34 58  1  0
 34 59  1  0
 34 60  1  0
 35 61  1  0
 35 62  1  0
 36 63  1  0
 36 64  1  0
 37 65  1  0
 38 66  1  0
M  CHG  3   7  -1   8  -1  11  -1
M  END
>  <UniqueID>  (18) 
17

>  <SMILES>  (18) 
C=c1c(=Cc2c([O-])[n-]c(=O)[n-]c2=O)cc(C)n1-c1ccc(C(=O)N2CCN(C(=O)OC(C)(C)C)CC2)cc1

>  <Energy>  (18) 
119.3866990866741

>  <Genealogy>  (18) 
C=c1c(=Cc2c([O-])[n-]c(=O)[n-]c2=O)cc(C)n1-c1ccc(C(=O)N2CCN(C(=O)OC(C)(C)C)CC2)cc1 (protonated)
C=c1c(=Cc2c([O-])[n-]c(=O)[n-]c2=O)cc(C)n1-c1ccc(C(=O)N2CCN(C(=O)OC(C)(C)C)CC2)cc1 (3D coordinates assigned)
C=c1c(=Cc2c([O-])[n-]c(=O)[n-]c2=O)cc(C)n1-c1ccc(C(=O)N2CCN(C(=O)OC(C)(C)C)CC2)cc1 (nonaromatic ring conformer: 119.3866990866741 kcal/mol)

>  <smiles>  (18) 
C=c1c(=Cc2c(O)[nH]c(=O)[nH]c2=O)cc(C)n1-c1ccc(C(=O)N2CCN(C(=O)OC(C)(C)C)CC2)cc1

>  <score_type>  (18) 
oracle

>  <origin>  (18) 
adg

>  <m_score__min__energy>  (18) 
-16.199999999999999

>  <m_primary>  (18) 
energy

$$$$
18:0
     RDKit          3D

 50 53  0  0  0  0  0  0  0  0999 V2000
   56.4810   25.3720   46.3530 C   0  0  0  0  0  0  0  0  0  0  0  0
   57.2330   26.5450   45.8130 C   0  0  0  0  0  0  0  0  0  0  0  0
   58.5900   26.4320   45.4820 C   0  0  0  0  0  0  0  0  0  0  0  0
   59.2570   27.5340   44.9470 C   0  0  0  0  0  0  0  0  0  0  0  0
   58.5670   28.7260   44.7270 C   0  0  0  0  0  0  0  0  0  0  0  0
   57.2000   28.7970   45.0340 C   0  0  0  0  0  0  0  0  0  0  0  0
   56.4170   30.0190   44.7770 C   0  0  0  0  0  0  0  0  0  0  0  0
   55.1720   29.9160   44.6190 O   0  0  0  0  0  0  0  0  0  0  0  0
   57.0080   31.3260   44.7350 N   0  0  0  0  0  0  0  0  0  0  0  0
   57.7210   32.0130   45.7790 C   0  0  0  0  0  0  0  0  0  0  0  0
   57.9710   33.3800   45.6240 C   0  0  0  0  0  0  0  0  0  0  0  0
   58.6750   34.0860   46.6000 C   0  0  0  0  0  0  0  0  0  0  0  0
   59.1430   33.4260   47.7380 C   0  0  0  0  0  0  0  0  0  0  0  0
   58.9310   32.0540   47.9080 C   0  0  0  0  0  0  0  0  0  0  0  0
   59.4060   31.4680   49.0960 O   0  0  0  0  0  0  0  0  0  0  0  0
   58.7770   31.4210   50.3500 C   0  0  0  0  0  0  0  0  0  0  0  0
   59.2790   32.2070   51.3890 C   0  0  0  0  0  0  0  0  0  0  0  0
   58.6610   32.1410   52.6370 C   0  0  0  0  0  0  0  0  0  0  0  0
   57.5920   31.3240   52.8230 N   0  0  0  0  0  0  0  0  0  0  0  0
   57.1160   30.5530   51.8110 C   0  0  0  0  0  0  0  0  0  0  0  0
   56.0620   29.8180   52.0130 N   0  0  0  0  0  0  0  0  0  0  0  0
   54.7220   30.2750   52.2670 C   0  0  0  0  0  0  0  0  0  0  0  0
   53.9980   30.8390   51.2110 C   0  0  0  0  0  0  0  0  0  0  0  0
   52.6950   31.3050   51.4090 C   0  0  0  0  0  0  0  0  0  0  0  0
   52.0990   31.2360   52.6810 C   0  0  0  0  0  0  0  0  0  0  0  0
   50.7160   31.7250   52.8900 C   0  0  0  0  0  0  0  0  0  0  0  0
   50.1560   32.7080   52.0210 N   0  0  0  0  0  0  0  0  0  0  0  0
   50.0210   31.2800   53.8440 O   0  0  0  0  0  0  0  0  0  0  0  0
   52.8390   30.7000   53.7490 C   0  0  0  0  0  0  0  0  0  0  0  0
   54.1420   30.2360   53.5480 C   0  0  0  0  0  0  0  0  0  0  0  0
   57.7150   30.6080   50.5900 N   0  0  0  0  0  0  0  0  0  0  0  0
   58.2200   31.3460   46.9150 C   0  0  0  0  0  0  0  0  0  0  0  0
   56.5770   27.7130   45.5750 N   0  0  0  0  0  0  0  0  0  0  0  0
   56.4987   25.3997   47.4525 H   0  0  0  0  0  0  0  0  0  0  0  0
   55.4392   25.4112   46.0020 H   0  0  0  0  0  0  0  0  0  0  0  0
   56.9515   24.4417   46.0020 H   0  0  0  0  0  0  0  0  0  0  0  0
   59.1238   25.4837   45.6425 H   0  0  0  0  0  0  0  0  0  0  0  0
   60.3263   27.4630   44.6988 H   0  0  0  0  0  0  0  0  0  0  0  0
   59.0899   29.6024   44.3165 H   0  0  0  0  0  0  0  0  0  0  0  0
   57.6100   33.9026   44.7259 H   0  0  0  0  0  0  0  0  0  0  0  0
   58.8614   35.1626   46.4730 H   0  0  0  0  0  0  0  0  0  0  0  0
   59.6849   33.9919   48.5101 H   0  0  0  0  0  0  0  0  0  0  0  0
   60.1450   32.8654   51.2261 H   0  0  0  0  0  0  0  0  0  0  0  0
   59.0391   32.7505   53.4710 H   0  0  0  0  0  0  0  0  0  0  0  0
   54.4586   30.9165   50.2151 H   0  0  0  0  0  0  0  0  0  0  0  0
   52.1320   31.7285   50.5642 H   0  0  0  0  0  0  0  0  0  0  0  0
   49.9290   33.6650   52.3700 H   0  0  0  0  0  0  0  0  0  0  0  0
   52.3890   30.6452   54.7512 H   0  0  0  0  0  0  0  0  0  0  0  0
   54.7175   29.8379   54.3967 H   0  0  0  0  0  0  0  0  0  0  0  0
   58.0543   30.2646   47.0293 H   0  0  0  0  0  0  0  0  0  0  0  0
  1  2  1  0
  2  3  2  0
  3  4  1  0
  4  5  2  0
  5  6  1  0
  6  7  1  0
  7  8  2  0
  7  9  1  0
  9 10  1  0
 10 11  2  0
 11 12  1  0
 12 13  2  0
 13 14  1  0
 14 15  1  0
 15 16  1  0
 16 17  1  0
 17 18  2  0
 18 19  1  0
 19 20  1  0
 20 21  2  3
 21 22  1  0
 22 23  2  0
 23 24  1  0
 24 25  2  0
 25 26  1  0
 26 27  1  0
 26 28  2  0
 25 29  1  0
 29 30  2  0
 20 31  1  0
 14 32  2  0
  6 33  2  0
 33  2  1  0
 32 10  1  0
 31 16  2  0
 30 22  1  0
  1 34  1  0
  1 35  1  0
  1 36  1  0
  3 37  1  0
  4 38  1  0
  5 39  1  0
 11 40  1  0
 12 41  1  0
 13 42  1  0
 17 43  1  0
 18 44  1  0
 23 45  1  0
 24 46  1  0
 27 47  1  0
 29 48  1  0
 30 49  1  0
 32 50  1  0
M  CHG  3   9  -1  19  -1  27  -1
M  END
>  <UniqueID>  (19) 
18

>  <SMILES>  (19) 
Cc1cccc(C(=O)[N-]c2cccc(Oc3cc[n-]c(=Nc4ccc(C([NH-])=O)cc4)n3)c2)n1

>  <Energy>  (19) 
67.48014794531335

>  <Genealogy>  (19) 
Cc1cccc(C(=O)[N-]c2cccc(Oc3cc[n-]c(=Nc4ccc(C([NH-])=O)cc4)n3)c2)n1 (protonated)
Cc1cccc(C(=O)[N-]c2cccc(Oc3cc[n-]c(=Nc4ccc(C([NH-])=O)cc4)n3)c2)n1 (3D coordinates assigned)
Cc1cccc(C(=O)[N-]c2cccc(Oc3cc[n-]c(=Nc4ccc(C([NH-])=O)cc4)n3)c2)n1 (optimized conformer: 67.48014794531335 kcal/mol)

>  <smiles>  (19) 
Cc1cccc(C(=O)Nc2cccc(Oc3cc[nH]c(=Nc4ccc(C(N)=O)cc4)n3)c2)n1

>  <score_type>  (19) 
oracle

>  <origin>  (19) 
adg

>  <m_score__min__energy>  (19) 
-16.41

>  <m_primary>  (19) 
energy

$$$$
19:0
     RDKit          3D

 42 44  0  0  0  0  0  0  0  0999 V2000
   55.5120   26.3410   47.4860 H   0  0  0  0  0  0  0  0  0  0  0  0
   55.5630   26.3560   46.4750 O   0  0  0  0  0  0  0  0  0  0  0  0
   55.2940   25.2350   45.6900 C   0  0  0  0  0  0  0  0  0  0  0  0
   54.0220   24.7610   45.6430 N   0  0  0  0  0  0  0  0  0  0  0  0
   53.6990   23.6770   44.8930 C   0  0  0  0  0  0  0  0  0  0  0  0
   52.5130   23.2600   44.8720 O   0  0  0  0  0  0  0  0  0  0  0  0
   54.6520   23.0480   44.1610 N   0  0  0  0  0  0  0  0  0  0  0  0
   55.9400   23.4780   44.1690 C   0  0  0  0  0  0  0  0  0  0  0  0
   56.7980   22.8760   43.4680 O   0  0  0  0  0  0  0  0  0  0  0  0
   56.3050   24.5850   44.9550 C   0  0  0  0  0  0  0  0  0  0  0  0
   57.6890   25.0900   44.9550 C   0  0  0  0  0  0  0  0  0  0  0  0
   58.4894   24.3611   44.7602 H   0  0  0  0  0  0  0  0  0  0  0  0
   58.0600   26.3680   45.1730 C   0  0  0  0  0  0  0  0  0  0  0  0
   57.5440   27.4210   44.4400 C   0  0  0  0  0  0  0  0  0  0  0  0
   56.8030   27.3537   43.6298 H   0  0  0  0  0  0  0  0  0  0  0  0
   58.1350   28.5710   44.9180 C   0  0  0  0  0  0  0  0  0  0  0  0
   57.8420   29.9500   44.4070 C   0  0  0  0  0  0  0  0  0  0  0  0
   57.6969   30.6329   45.2571 H   0  0  0  0  0  0  0  0  0  0  0  0
   58.6856   30.3010   43.7945 H   0  0  0  0  0  0  0  0  0  0  0  0
   56.9285   29.9277   43.7945 H   0  0  0  0  0  0  0  0  0  0  0  0
   58.9980   28.2830   45.9190 N   0  0  0  0  0  0  0  0  0  0  0  0
   59.7160   29.2810   46.7280 C   0  0  0  0  0  0  0  0  0  0  0  0
   60.6864   28.8648   47.0364 H   0  0  0  0  0  0  0  0  0  0  0  0
   59.8635   30.1868   46.1215 H   0  0  0  0  0  0  0  0  0  0  0  0
   58.9250   29.6440   47.9510 C   0  0  0  0  0  0  0  0  0  0  0  0
   58.3060   28.7530   48.5890 O   0  0  0  0  0  0  0  0  0  0  0  0
   58.8160   31.0090   48.3640 N   0  0  0  0  0  0  0  0  0  0  0  0
   59.3240   32.1200   47.6100 C   0  0  0  0  0  0  0  0  0  0  0  0
   58.4550   33.0000   46.9400 C   0  0  0  0  0  0  0  0  0  0  0  0
   57.3704   32.8178   46.9585 H   0  0  0  0  0  0  0  0  0  0  0  0
   58.9620   34.1030   46.2520 C   0  0  0  0  0  0  0  0  0  0  0  0
   58.2762   34.7907   45.7356 H   0  0  0  0  0  0  0  0  0  0  0  0
   60.3370   34.3350   46.2180 C   0  0  0  0  0  0  0  0  0  0  0  0
   60.7322   35.2074   45.6769 H   0  0  0  0  0  0  0  0  0  0  0  0
   61.2150   33.4630   46.8690 C   0  0  0  0  0  0  0  0  0  0  0  0
   62.9400   33.7980   46.8110 Cl  0  0  0  0  0  0  0  0  0  0  0  0
   60.7110   32.3480   47.5630 C   0  0  0  0  0  0  0  0  0  0  0  0
   61.8060   31.2550   48.4080 Cl  0  0  0  0  0  0  0  0  0  0  0  0
   58.9520   26.9330   46.1030 C   0  0  0  0  0  0  0  0  0  0  0  0
   59.6080   26.2990   47.0890 C   0  0  0  0  0  0  0  0  0  0  0  0
   60.2815   26.8618   47.7521 H   0  0  0  0  0  0  0  0  0  0  0  0
   59.4716   25.2171   47.2334 H   0  0  0  0  0  0  0  0  0  0  0  0
  1  2  1  0
  2  3  1  0
  3  4  1  0
  4  5  1  0
  5  6  2  0
  5  7  1  0
  7  8  1  0
  8  9  2  0
  8 10  1  0
 10 11  1  0
 11 12  1  0
 11 13  2  0
 13 14  1  0
 14 15  1  0
 14 16  2  0
 16 17  1  0
 17 18  1  0
 17 19  1  0
 17 20  1  0
 16 21  1  0
 21 22  1  0
 22 23  1  0
 22 24  1  0
 22 25  1  0
 25 26  2  0
 25 27  1  0
 27 28  1  0
 28 29  2  0
 29 30  1  0
 29 31  1  0
 31 32  1  0
 31 33  2  0
 33 34  1  0
 33 35  1  0
 35 36  1  0
 35 37  2  0
 37 38  1  0
 21 39  1  0
 39 40  2  0
 40 41  1  0
 40 42  1  0
 10  3  2  0
 39 13  1  0
 37 28  1  0
M  CHG  3   4  -1   7  -1  27  -1
M  END
>  <UniqueID>  (20) 
19

>  <SMILES>  (20) 
C=c1/c(=C\c2c(O)[n-]c(=O)[n-]c2=O)cc(C)n1CC(=O)[N-]c1cccc(Cl)c1Cl

>  <Energy>  (20) 
92.28516265681172

>  <Genealogy>  (20) 
C=c1c(=Cc2c(O)[n-]c(=O)[n-]c2=O)cc(C)n1CC(=O)[N-]c1cccc(Cl)c1Cl (protonated)
C=c1/c(=C\c2c(O)[n-]c(=O)[n-]c2=O)cc(C)n1CC(=O)[N-]c1cccc(Cl)c1Cl (cis-trans isomerization)
C=c1/c(=C\c2c(O)[n-]c(=O)[n-]c2=O)cc(C)n1CC(=O)[N-]c1cccc(Cl)c1Cl (3D coordinates assigned)
C=c1/c(=C\c2c(O)[n-]c(=O)[n-]c2=O)cc(C)n1CC(=O)[N-]c1cccc(Cl)c1Cl (optimized conformer: 92.28516265681172 kcal/mol)

>  <smiles>  (20) 
C=c1c(=Cc2c(O)[nH]c(=O)[nH]c2=O)cc(C)n1CC(=O)Nc1cccc(Cl)c1Cl

>  <score_type>  (20) 
oracle

>  <origin>  (20) 
adg

>  <m_score__min__energy>  (20) 
-14.94

>  <m_primary>  (20) 
energy

$$$$
20:0
     RDKit          3D

 39 41  0  0  0  0  0  0  0  0999 V2000
   55.5040   29.0320   44.9840 O   0  0  0  0  0  0  0  0  0  0  0  0
   56.5260   29.6650   44.6090 C   0  0  0  0  0  0  0  0  0  0  0  0
   57.7340   28.8940   44.1480 C   0  0  0  0  0  0  0  0  0  0  0  0
   57.9130   27.6310   44.9340 C   0  0  0  0  0  0  0  0  0  0  0  0
   58.5350   27.6640   46.1430 N   0  0  0  0  0  0  0  0  0  0  0  0
   58.7190   26.5300   46.8660 C   0  0  0  0  0  0  0  0  0  0  0  0
   59.2870   26.5890   47.9870 O   0  0  0  0  0  0  0  0  0  0  0  0
   58.2760   25.3040   46.3650 C   0  0  0  0  0  0  0  0  0  0  0  0
   57.6500   25.2740   45.1070 C   0  0  0  0  0  0  0  0  0  0  0  0
   57.1710   24.0410   44.5290 N   0  0  0  0  0  0  0  0  0  0  0  0
   57.7400   22.7450   44.9270 C   0  0  0  0  0  0  0  0  0  0  0  0
   57.5640   21.7180   43.8050 C   0  0  0  0  0  0  0  0  0  0  0  0
   56.2210   21.6740   43.3660 O   0  0  0  0  0  0  0  0  0  0  0  0
   55.8810   22.9070   42.7630 C   0  0  0  0  0  0  0  0  0  0  0  0
   55.8990   24.0390   43.7940 C   0  0  0  0  0  0  0  0  0  0  0  0
   57.4880   26.4430   44.4280 N   0  0  0  0  0  0  0  0  0  0  0  0
   56.4670   31.0960   44.5450 N   0  0  0  0  0  0  0  0  0  0  0  0
   57.3960   32.0050   45.1470 C   0  0  0  0  0  0  0  0  0  0  0  0
   58.1660   31.6300   46.2610 C   0  0  0  0  0  0  0  0  0  0  0  0
   59.0480   32.5450   46.8460 C   0  0  0  0  0  0  0  0  0  0  0  0
   59.1510   33.8420   46.3380 C   0  0  0  0  0  0  0  0  0  0  0  0
   60.0040   34.7290   46.9070 F   0  0  0  0  0  0  0  0  0  0  0  0
   58.3620   34.2300   45.2490 C   0  0  0  0  0  0  0  0  0  0  0  0
   57.4800   33.3160   44.6630 C   0  0  0  0  0  0  0  0  0  0  0  0
   57.6109   28.6390   43.0851 H   0  0  0  0  0  0  0  0  0  0  0  0
   58.6233   29.5234   44.2996 H   0  0  0  0  0  0  0  0  0  0  0  0
   58.4144   24.3791   46.9441 H   0  0  0  0  0  0  0  0  0  0  0  0
   58.8121   22.8697   45.1394 H   0  0  0  0  0  0  0  0  0  0  0  0
   57.2161   22.3858   45.8251 H   0  0  0  0  0  0  0  0  0  0  0  0
   58.2103   21.9948   42.9590 H   0  0  0  0  0  0  0  0  0  0  0  0
   57.8396   20.7256   44.1912 H   0  0  0  0  0  0  0  0  0  0  0  0
   56.6068   23.1319   41.9676 H   0  0  0  0  0  0  0  0  0  0  0  0
   54.8670   22.8272   42.3442 H   0  0  0  0  0  0  0  0  0  0  0  0
   55.7774   25.0023   43.2770 H   0  0  0  0  0  0  0  0  0  0  0  0
   55.0750   23.8863   44.5065 H   0  0  0  0  0  0  0  0  0  0  0  0
   58.0751   30.6146   46.6741 H   0  0  0  0  0  0  0  0  0  0  0  0
   59.6614   32.2424   47.7075 H   0  0  0  0  0  0  0  0  0  0  0  0
   58.4355   35.2539   44.8539 H   0  0  0  0  0  0  0  0  0  0  0  0
   56.8493   33.6288   43.8178 H   0  0  0  0  0  0  0  0  0  0  0  0
  1  2  2  0
  2  3  1  0
  3  4  1  0
  4  5  2  0
  5  6  1  0
  6  7  2  0
  6  8  1  0
  8  9  2  0
  9 10  1  0
 10 11  1  0
 11 12  1  0
 12 13  1  0
 13 14  1  0
 14 15  1  0
  9 16  1  0
  2 17  1  0
 17 18  1  0
 18 19  2  0
 19 20  1  0
 20 21  2  0
 21 22  1  0
 21 23  1  0
 23 24  2  0
 16  4  1  0
 24 18  1  0
 15 10  1  0
  3 25  1  0
  3 26  1  0
  8 27  1  0
 11 28  1  0
 11 29  1  0
 12 30  1  0
 12 31  1  0
 14 32  1  0
 14 33  1  0
 15 34  1  0
 15 35  1  0
 19 36  1  0
 20 37  1  0
 23 38  1  0
 24 39  1  0
M  CHG  2  16  -1  17  -1
M  END
>  <UniqueID>  (21) 
20

>  <SMILES>  (21) 
O=C(Cc1nc(=O)cc(N2CCOCC2)[n-]1)[N-]c1ccc(F)cc1

>  <Energy>  (21) 
48.77219472426535

>  <Genealogy>  (21) 
O=C(Cc1nc(=O)cc(N2CCOCC2)[n-]1)[N-]c1ccc(F)cc1 (protonated)
O=C(Cc1nc(=O)cc(N2CCOCC2)[n-]1)[N-]c1ccc(F)cc1 (3D coordinates assigned)
O=C(Cc1nc(=O)cc(N2CCOCC2)[n-]1)[N-]c1ccc(F)cc1 (nonaromatic ring conformer: 48.77219472426535 kcal/mol)

>  <smiles>  (21) 
O=C(Cc1nc(=O)cc(N2CCOCC2)[nH]1)Nc1ccc(F)cc1

>  <score_type>  (21) 
oracle

>  <origin>  (21) 
adg

>  <m_score__min__energy>  (21) 
-10.470000000000001

>  <m_primary>  (21) 
energy

$$$$
21:0
     RDKit          3D

 42 44  0  0  0  0  0  0  0  0999 V2000
   58.3480   31.4470   44.0959 H   0  0  0  0  0  0  0  0  0  0  0  0
   58.2700   30.3990   44.4210 C   0  0  0  0  0  0  0  0  0  0  0  0
   57.8834   29.6359   43.7294 H   0  0  0  0  0  0  0  0  0  0  0  0
   58.6470   30.0510   45.6630 C   0  0  0  0  0  0  0  0  0  0  0  0
   58.6100   28.7710   46.2240 C   0  0  0  0  0  0  0  0  0  0  0  0
   58.4050   27.5620   45.6640 C   0  0  0  0  0  0  0  0  0  0  0  0
   59.2149   27.1524   45.0425 H   0  0  0  0  0  0  0  0  0  0  0  0
   57.1920   26.7430   45.8120 C   0  0  0  0  0  0  0  0  0  0  0  0
   57.1680   25.4900   46.3050 N   0  0  0  0  0  0  0  0  0  0  0  0
   55.8480   25.2110   46.3810 C   0  0  0  0  0  0  0  0  0  0  0  0
   55.4120   24.1040   46.7900 O   0  0  0  0  0  0  0  0  0  0  0  0
   55.0330   26.2160   45.9960 N   0  0  0  0  0  0  0  0  0  0  0  0
   55.9000   27.1820   45.6540 C   0  0  0  0  0  0  0  0  0  0  0  0
   55.5190   28.4420   45.2100 O   0  0  0  0  0  0  0  0  0  0  0  0
   58.8570   28.9380   47.5730 C   0  0  0  0  0  0  0  0  0  0  0  0
   58.8465   28.1455   48.3358 H   0  0  0  0  0  0  0  0  0  0  0  0
   59.1210   30.2840   47.7960 C   0  0  0  0  0  0  0  0  0  0  0  0
   59.4140   30.8990   49.1800 C   0  0  0  0  0  0  0  0  0  0  0  0
   58.5320   32.1370   49.4540 C   0  0  0  0  0  0  0  0  0  0  0  0
   58.4294   32.2811   50.5397 H   0  0  0  0  0  0  0  0  0  0  0  0
   59.0007   33.0270   49.0087 H   0  0  0  0  0  0  0  0  0  0  0  0
   57.5378   31.9847   49.0087 H   0  0  0  0  0  0  0  0  0  0  0  0
   60.8910   31.3590   49.2720 C   0  0  0  0  0  0  0  0  0  0  0  0
   61.1817   31.4495   50.3290 H   0  0  0  0  0  0  0  0  0  0  0  0
   61.5369   30.6195   48.7761 H   0  0  0  0  0  0  0  0  0  0  0  0
   61.0028   32.3345   48.7761 H   0  0  0  0  0  0  0  0  0  0  0  0
   59.1750   29.8400   50.2720 C   0  0  0  0  0  0  0  0  0  0  0  0
   59.2800   30.3053   51.2632 H   0  0  0  0  0  0  0  0  0  0  0  0
   58.1610   29.4268   50.1664 H   0  0  0  0  0  0  0  0  0  0  0  0
   59.9132   29.0314   50.1664 H   0  0  0  0  0  0  0  0  0  0  0  0
   58.9820   30.9570   46.6190 N   0  0  0  0  0  0  0  0  0  0  0  0
   59.0850   32.3740   46.4040 C   0  0  0  0  0  0  0  0  0  0  0  0
   57.9850   33.0980   45.9250 C   0  0  0  0  0  0  0  0  0  0  0  0
   57.0264   32.5880   45.7491 H   0  0  0  0  0  0  0  0  0  0  0  0
   58.1040   34.4690   45.6700 C   0  0  0  0  0  0  0  0  0  0  0  0
   57.2349   35.0391   45.3100 H   0  0  0  0  0  0  0  0  0  0  0  0
   59.3280   35.1140   45.8730 C   0  0  0  0  0  0  0  0  0  0  0  0
   59.4189   36.1934   45.6816 H   0  0  0  0  0  0  0  0  0  0  0  0
   60.4360   34.3880   46.3190 C   0  0  0  0  0  0  0  0  0  0  0  0
   61.4004   34.8950   46.4702 H   0  0  0  0  0  0  0  0  0  0  0  0
   60.3200   33.0190   46.5730 C   0  0  0  0  0  0  0  0  0  0  0  0
   61.1979   32.4459   46.9059 H   0  0  0  0  0  0  0  0  0  0  0  0
  1  2  1  0
  2  3  1  0
  2  4  2  0
  4  5  1  0
  5  6  2  0
  6  7  1  0
  6  8  1  0
  8  9  1  0
  9 10  1  0
 10 11  2  0
 10 12  1  0
 12 13  1  0
 13 14  1  0
  5 15  1  0
 15 16  1  0
 15 17  2  0
 17 18  1  0
 18 19  1  0
 19 20  1  0
 19 21  1  0
 19 22  1  0
 18 23  1  0
 23 24  1  0
 23 25  1  0
 23 26  1  0
 18 27  1  0
 27 28  1  0
 27 29  1  0
 27 30  1  0
 17 31  1  0
 31 32  1  0
 32 33  2  0
 33 34  1  0
 33 35  1  0
 35 36  1  0
 35 37  2  0
 37 38  1  0
 37 39  1  0
 39 40  1  0
 39 41  2  0
 41 42  1  0
 31  4  1  0
 41 32  1  0
 13  8  2  0
M  CHG  3   9  -1  12  -1  14  -1
M  END
>  <UniqueID>  (22) 
21

>  <SMILES>  (22) 
C=c1/c(=C\c2[n-]c(=O)[n-]c2[O-])cc(C(C)(C)C)n1-c1ccccc1

>  <Energy>  (22) 
121.30171020810019

>  <Genealogy>  (22) 
C=c1c(=Cc2[n-]c(=O)[n-]c2[O-])cc(C(C)(C)C)n1-c1ccccc1 (protonated)
C=c1/c(=C\c2[n-]c(=O)[n-]c2[O-])cc(C(C)(C)C)n1-c1ccccc1 (cis-trans isomerization)
C=c1/c(=C\c2[n-]c(=O)[n-]c2[O-])cc(C(C)(C)C)n1-c1ccccc1 (3D coordinates assigned)
C=c1/c(=C\c2[n-]c(=O)[n-]c2[O-])cc(C(C)(C)C)n1-c1ccccc1 (optimized conformer: 121.30171020810019 kcal/mol)

>  <smiles>  (22) 
C=c1c(=Cc2[nH]c(=O)[nH]c2O)cc(C(C)(C)C)n1-c1ccccc1

>  <score_type>  (22) 
oracle

>  <origin>  (22) 
adg

>  <m_score__min__energy>  (22) 
-15.67

>  <m_primary>  (22) 
energy

$$$$
22:0
     RDKit          3D

 35 37  0  0  0  0  0  0  0  0999 V2000
   56.9086   32.4834   46.4509 H   0  0  0  0  0  0  0  0  0  0  0  0
   57.7840   33.1000   46.7030 C   0  0  0  0  0  0  0  0  0  0  0  0
   58.3090   33.0550   47.9560 N   0  0  0  0  0  0  0  0  0  0  0  0
   59.3900   33.8080   48.3150 C   0  0  0  0  0  0  0  0  0  0  0  0
   59.8860   33.7440   49.5160 N   0  0  0  0  0  0  0  0  0  0  0  0
   60.3310   32.5530   50.1860 C   0  0  0  0  0  0  0  0  0  0  0  0
   61.5600   32.2780   50.1680 O   0  0  0  0  0  0  0  0  0  0  0  0
   59.4040   31.6770   50.9430 C   0  0  0  0  0  0  0  0  0  0  0  0
   59.9130   30.6710   51.7810 C   0  0  0  0  0  0  0  0  0  0  0  0
   61.0007   30.5405   51.8805 H   0  0  0  0  0  0  0  0  0  0  0  0
   59.0450   29.8350   52.4890 C   0  0  0  0  0  0  0  0  0  0  0  0
   59.6930   28.5640   53.5100 Cl  0  0  0  0  0  0  0  0  0  0  0  0
   57.6630   30.0070   52.3810 C   0  0  0  0  0  0  0  0  0  0  0  0
   56.9847   29.3349   52.9270 H   0  0  0  0  0  0  0  0  0  0  0  0
   57.1340   31.0310   51.5810 C   0  0  0  0  0  0  0  0  0  0  0  0
   55.7080   31.1750   51.4730 N   0  0  0  0  0  0  0  0  0  0  0  0
   55.3400   31.9570   50.8850 H   0  0  0  0  0  0  0  0  0  0  0  0
   54.7620   30.2490   52.0350 C   0  0  0  0  0  0  0  0  0  0  0  0
   55.1370   29.1040   52.4080 O   0  0  0  0  0  0  0  0  0  0  0  0
   53.3400   30.6150   52.1400 C   0  0  0  0  0  0  0  0  0  0  0  0
   52.8280   31.7640   51.6530 N   0  0  0  0  0  0  0  0  0  0  0  0
   51.5180   31.7140   51.9600 C   0  0  0  0  0  0  0  0  0  0  0  0
   50.6200   32.7190   51.6290 O   0  0  0  0  0  0  0  0  0  0  0  0
   51.1870   30.5580   52.6310 C   0  0  0  0  0  0  0  0  0  0  0  0
   50.1921   30.2629   52.9958 H   0  0  0  0  0  0  0  0  0  0  0  0
   52.3600   29.8490   52.7500 C   0  0  0  0  0  0  0  0  0  0  0  0
   52.4931   28.8697   53.2329 H   0  0  0  0  0  0  0  0  0  0  0  0
   58.0120   31.8570   50.8560 C   0  0  0  0  0  0  0  0  0  0  0  0
   57.6053   32.6523   50.2141 H   0  0  0  0  0  0  0  0  0  0  0  0
   59.9930   34.6400   47.3650 C   0  0  0  0  0  0  0  0  0  0  0  0
   60.8738   35.2411   47.6349 H   0  0  0  0  0  0  0  0  0  0  0  0
   59.4690   34.7020   46.0720 C   0  0  0  0  0  0  0  0  0  0  0  0
   59.9320   35.3581   45.3202 H   0  0  0  0  0  0  0  0  0  0  0  0
   58.3560   33.9290   45.7360 C   0  0  0  0  0  0  0  0  0  0  0  0
   57.9345   33.9726   44.7209 H   0  0  0  0  0  0  0  0  0  0  0  0
  1  2  1  0
  2  3  1  0
  3  4  1  0
  4  5  2  0
  5  6  1  0
  6  7  2  0
  6  8  1  0
  8  9  2  0
  9 10  1  0
  9 11  1  0
 11 12  1  0
 11 13  2  0
 13 14  1  0
 13 15  1  0
 15 16  1  0
 16 17  1  0
 16 18  1  0
 18 19  2  0
 18 20  1  0
 20 21  1  0
 21 22  1  0
 22 23  1  0
 22 24  2  0
 24 25  1  0
 24 26  1  0
 26 27  1  0
 15 28  2  0
 28 29  1  0
  4 30  1  0
 30 31  1  0
 30 32  2  0
 32 33  1  0
 32 34  1  0
 34 35  1  0
 34  2  2  0
 28  8  1  0
 26 20  2  0
M  CHG  3   3  -1  21  -1  23  -1
M  END
>  <UniqueID>  (23) 
22

>  <SMILES>  (23) 
O=C(/N=c1/cccc[n-]1)c1cc(Cl)cc(NC(=O)c2ccc([O-])[n-]2)c1

>  <Energy>  (23) 
74.0414412227456

>  <Genealogy>  (23) 
O=C(N=c1cccc[n-]1)c1cc(Cl)cc(NC(=O)c2ccc([O-])[n-]2)c1 (protonated)
O=C(/N=c1/cccc[n-]1)c1cc(Cl)cc(NC(=O)c2ccc([O-])[n-]2)c1 (cis-trans isomerization)
O=C(/N=c1/cccc[n-]1)c1cc(Cl)cc(NC(=O)c2ccc([O-])[n-]2)c1 (3D coordinates assigned)
O=C(/N=c1/cccc[n-]1)c1cc(Cl)cc(NC(=O)c2ccc([O-])[n-]2)c1 (optimized conformer: 74.0414412227456 kcal/mol)

>  <smiles>  (23) 
O=C(N=c1cccc[nH]1)c1cc(Cl)cc(NC(=O)c2ccc(O)[nH]2)c1

>  <score_type>  (23) 
oracle

>  <origin>  (23) 
adg

>  <m_score__min__energy>  (23) 
-14.130000000000001

>  <m_primary>  (23) 
energy

$$$$
23:0
     RDKit          3D

 25 26  0  0  0  0  0  0  0  0999 V2000
   56.5300   33.9610   47.0900 H   0  0  0  0  0  0  0  0  0  0  0  0
   57.3130   33.7890   46.4700 O   0  0  0  0  0  0  0  0  0  0  0  0
   57.6110   32.5080   46.0090 C   0  0  0  0  0  0  0  0  0  0  0  0
   58.4740   31.7000   46.7400 C   0  0  0  0  0  0  0  0  0  0  0  0
   58.9377   32.0863   47.6597 H   0  0  0  0  0  0  0  0  0  0  0  0
   58.7550   30.4030   46.3140 C   0  0  0  0  0  0  0  0  0  0  0  0
   59.4520   29.7830   46.8969 H   0  0  0  0  0  0  0  0  0  0  0  0
   58.1620   29.8690   45.1480 C   0  0  0  0  0  0  0  0  0  0  0  0
   58.3640   28.5430   44.9190 C   0  0  0  0  0  0  0  0  0  0  0  0
   59.1765   28.2793   44.2260 H   0  0  0  0  0  0  0  0  0  0  0  0
   57.6010   27.4190   45.5080 C   0  0  0  0  0  0  0  0  0  0  0  0
   56.2040   27.4950   45.6050 C   0  0  0  0  0  0  0  0  0  0  0  0
   55.5260   28.6400   45.1970 O   0  0  0  0  0  0  0  0  0  0  0  0
   55.5000   26.4500   46.1130 N   0  0  0  0  0  0  0  0  0  0  0  0
   56.1250   25.3140   46.5170 C   0  0  0  0  0  0  0  0  0  0  0  0
   55.4530   24.3620   46.9890 O   0  0  0  0  0  0  0  0  0  0  0  0
   57.4730   25.2040   46.4050 N   0  0  0  0  0  0  0  0  0  0  0  0
   58.2220   26.2190   45.9030 C   0  0  0  0  0  0  0  0  0  0  0  0
   59.4670   26.0670   45.7850 O   0  0  0  0  0  0  0  0  0  0  0  0
   57.3780   30.7490   44.3260 C   0  0  0  0  0  0  0  0  0  0  0  0
   57.0090   30.4630   43.0640 C   0  0  0  0  0  0  0  0  0  0  0  0
   57.2282   29.4728   42.6379 H   0  0  0  0  0  0  0  0  0  0  0  0
   56.4882   31.2193   42.4584 H   0  0  0  0  0  0  0  0  0  0  0  0
   57.0670   32.0360   44.8110 C   0  0  0  0  0  0  0  0  0  0  0  0
   56.3845   32.6797   44.2367 H   0  0  0  0  0  0  0  0  0  0  0  0
  1  2  1  0
  2  3  1  0
  3  4  1  0
  4  5  1  0
  4  6  2  0
  6  7  1  0
  6  8  1  0
  8  9  2  0
  9 10  1  0
  9 11  1  0
 11 12  2  0
 12 13  1  0
 12 14  1  0
 14 15  1  0
 15 16  2  0
 15 17  1  0
 17 18  1  0
 18 19  2  0
  8 20  1  0
 20 21  2  0
 21 22  1  0
 21 23  1  0
 20 24  1  0
 24 25  1  0
 24  3  2  0
 18 11  1  0
M  CHG  3  13  -1  14  -1  17  -1
M  END
>  <UniqueID>  (24) 
23

>  <SMILES>  (24) 
C=c1cc(O)cc/c1=C/c1c([O-])[n-]c(=O)[n-]c1=O

>  <Energy>  (24) 
50.14172518230069

>  <Genealogy>  (24) 
C=c1cc(O)ccc1=Cc1c([O-])[n-]c(=O)[n-]c1=O (protonated)
C=c1cc(O)cc/c1=C/c1c([O-])[n-]c(=O)[n-]c1=O (cis-trans isomerization)
C=c1cc(O)cc/c1=C/c1c([O-])[n-]c(=O)[n-]c1=O (3D coordinates assigned)
C=c1cc(O)cc/c1=C/c1c([O-])[n-]c(=O)[n-]c1=O (optimized conformer: 50.14172518230069 kcal/mol)

>  <smiles>  (24) 
C=c1cc(O)ccc1=Cc1c(O)[nH]c(=O)[nH]c1=O

>  <score_type>  (24) 
oracle

>  <origin>  (24) 
adg

>  <m_score__min__energy>  (24) 
-13.91

>  <m_primary>  (24) 
energy

$$$$
24:0
     RDKit          3D

 41 45  0  0  0  0  0  0  0  0999 V2000
   54.7350   27.4550   46.3960 H   0  0  0  0  0  0  0  0  0  0  0  0
   55.1500   26.7320   45.8230 O   0  0  0  0  0  0  0  0  0  0  0  0
   56.0750   25.8290   46.3410 C   0  0  0  0  0  0  0  0  0  0  0  0
   55.7230   24.7480   47.0560 N   0  0  0  0  0  0  0  0  0  0  0  0
   56.9150   24.2190   47.4070 C   0  0  0  0  0  0  0  0  0  0  0  0
   57.0140   23.1770   48.1050 O   0  0  0  0  0  0  0  0  0  0  0  0
   57.9900   24.9000   46.9590 N   0  0  0  0  0  0  0  0  0  0  0  0
   57.4500   25.9140   46.2600 C   0  0  0  0  0  0  0  0  0  0  0  0
   58.2560   26.9540   45.5990 C   0  0  0  0  0  0  0  0  0  0  0  0
   59.2252   26.6659   45.1657 H   0  0  0  0  0  0  0  0  0  0  0  0
   57.8700   28.2330   45.4980 C   0  0  0  0  0  0  0  0  0  0  0  0
   56.8950   28.7960   44.6730 C   0  0  0  0  0  0  0  0  0  0  0  0
   56.2571   28.2358   43.9735 H   0  0  0  0  0  0  0  0  0  0  0  0
   56.8530   30.1370   44.8640 N   0  0  0  0  0  0  0  0  0  0  0  0
   57.7680   30.4310   45.7740 N   0  0  0  0  0  0  0  0  0  0  0  0
   58.1030   31.6460   46.2960 C   0  0  0  0  0  0  0  0  0  0  0  0
   57.5210   32.7580   45.9480 N   0  0  0  0  0  0  0  0  0  0  0  0
   58.0220   34.1100   46.1770 C   0  0  0  0  0  0  0  0  0  0  0  0
   57.2997   34.4081   46.9512 H   0  0  0  0  0  0  0  0  0  0  0  0
   59.5250   34.2470   46.0130 C   0  0  0  0  0  0  0  0  0  0  0  0
   60.0819   34.9701   46.6270 H   0  0  0  0  0  0  0  0  0  0  0  0
   60.3788   33.5547   46.0545 H   0  0  0  0  0  0  0  0  0  0  0  0
   58.5900   34.7390   44.9180 C   0  0  0  0  0  0  0  0  0  0  0  0
   58.4708   35.8179   44.7400 H   0  0  0  0  0  0  0  0  0  0  0  0
   58.4875   34.5500   43.8392 H   0  0  0  0  0  0  0  0  0  0  0  0
   59.0950   31.6860   47.2280 N   0  0  0  0  0  0  0  0  0  0  0  0
   59.7330   30.5430   47.6260 C   0  0  0  0  0  0  0  0  0  0  0  0
   60.7980   30.6180   48.6330 C   0  0  0  0  0  0  0  0  0  0  0  0
   61.8480   31.4010   48.5310 O   0  0  0  0  0  0  0  0  0  0  0  0
   62.5980   31.2280   49.5950 C   0  0  0  0  0  0  0  0  0  0  0  0
   63.8950   31.9270   49.8270 C   0  0  0  0  0  0  0  0  0  0  0  0
   63.7485   32.7430   50.5499 H   0  0  0  0  0  0  0  0  0  0  0  0
   64.6316   31.2142   50.2262 H   0  0  0  0  0  0  0  0  0  0  0  0
   64.3600   32.4530   48.6160 O   0  0  0  0  0  0  0  0  0  0  0  0
   63.8620   31.9780   47.9020 H   0  0  0  0  0  0  0  0  0  0  0  0
   62.0270   30.2870   50.4310 C   0  0  0  0  0  0  0  0  0  0  0  0
   62.4216   29.9263   51.3924 H   0  0  0  0  0  0  0  0  0  0  0  0
   60.8600   29.8940   49.8100 C   0  0  0  0  0  0  0  0  0  0  0  0
   60.1295   29.1571   50.1752 H   0  0  0  0  0  0  0  0  0  0  0  0
   59.3810   29.3390   47.0910 N   0  0  0  0  0  0  0  0  0  0  0  0
   58.3920   29.3160   46.1660 C   0  0  0  0  0  0  0  0  0  0  0  0
  1  2  1  0
  2  3  1  0
  3  4  1  0
  4  5  1  0
  5  6  2  0
  5  7  1  0
  7  8  1  0
  8  9  1  0
  9 10  1  0
  9 11  2  3
 11 12  1  0
 12 13  1  0
 12 14  2  0
 14 15  1  0
 15 16  1  0
 16 17  2  0
 17 18  1  0
 18 19  1  0
 18 20  1  0
 20 21  1  0
 20 22  1  0
 20 23  1  0
 23 24  1  0
 23 25  1  0
 16 26  1  0
 26 27  2  0
 27 28  1  0
 28 29  1  0
 29 30  1  0
 30 31  1  0
 31 32  1  0
 31 33  1  0
 31 34  1  0
 34 35  1  0
 30 36  2  0
 36 37  1  0
 36 38  1  0
 38 39  1  0
 27 40  1  0
 40 41  2  0
  8  3  2  0
 41 11  1  0
 41 15  1  0
 23 18  1  0
 38 28  2  0
M  CHG  2   4  -1   7  -1
M  END
>  <UniqueID>  (25) 
24

>  <SMILES>  (25) 
O=c1[n-]c(O)c(C=c2cnn3/c(=N\C4CC4)nc(-c4ccc(CO)o4)nc23)[n-]1

>  <Energy>  (25) 
410.36270821275224

>  <Genealogy>  (25) 
O=c1[n-]c(O)c(C=c2cnn3c(=NC4CC4)nc(-c4ccc(CO)o4)nc23)[n-]1 (protonated)
O=c1[n-]c(O)c(C=c2cnn3/c(=N\C4CC4)nc(-c4ccc(CO)o4)nc23)[n-]1 (cis-trans isomerization)
O=c1[n-]c(O)c(C=c2cnn3/c(=N\C4CC4)nc(-c4ccc(CO)o4)nc23)[n-]1 (3D coordinates assigned)
O=c1[n-]c(O)c(C=c2cnn3/c(=N\C4CC4)nc(-c4ccc(CO)o4)nc23)[n-]1 (nonaromatic ring conformer: 410.36270821275224 kcal/mol)

>  <smiles>  (25) 
O=c1[nH]c(O)c(C=c2cnn3c(=NC4CC4)nc(-c4ccc(CO)o4)nc23)[nH]1

>  <score_type>  (25) 
oracle

>  <origin>  (25) 
adg

>  <m_score__min__energy>  (25) 
-12.09

>  <m_primary>  (25) 
energy

$$$$
25:0
     RDKit          3D

 33 35  0  0  0  0  0  0  0  0999 V2000
   57.5384   33.0868   42.4893 H   0  0  0  0  0  0  0  0  0  0  0  0
   57.5610   32.1650   43.0890 C   0  0  0  0  0  0  0  0  0  0  0  0
   58.1430   32.1720   44.3590 C   0  0  0  0  0  0  0  0  0  0  0  0
   58.5851   33.0978   44.7559 H   0  0  0  0  0  0  0  0  0  0  0  0
   58.1640   31.0030   45.1260 C   0  0  0  0  0  0  0  0  0  0  0  0
   58.6330   31.0106   46.1210 H   0  0  0  0  0  0  0  0  0  0  0  0
   57.5900   29.8190   44.6340 C   0  0  0  0  0  0  0  0  0  0  0  0
   57.6410   28.5870   45.4520 C   0  0  0  0  0  0  0  0  0  0  0  0
   56.5320   27.8140   45.6140 N   0  0  0  0  0  0  0  0  0  0  0  0
   56.7770   26.7350   46.3900 C   0  0  0  0  0  0  0  0  0  0  0  0
   55.8870   25.8410   46.7050 N   0  0  0  0  0  0  0  0  0  0  0  0
   55.3370   24.8450   45.8270 C   0  0  0  0  0  0  0  0  0  0  0  0
   54.0960   24.8010   45.6060 O   0  0  0  0  0  0  0  0  0  0  0  0
   56.2310   23.8600   45.1730 C   0  0  0  0  0  0  0  0  0  0  0  0
   57.5600   23.7130   45.5960 C   0  0  0  0  0  0  0  0  0  0  0  0
   57.9574   24.3262   46.4183 H   0  0  0  0  0  0  0  0  0  0  0  0
   58.3690   22.7740   44.9540 C   0  0  0  0  0  0  0  0  0  0  0  0
   59.5660   22.6210   45.3120 O   0  0  0  0  0  0  0  0  0  0  0  0
   57.8660   22.0250   43.9420 N   0  0  0  0  0  0  0  0  0  0  0  0
   56.5780   22.1730   43.5370 C   0  0  0  0  0  0  0  0  0  0  0  0
   56.1360   21.4650   42.5950 O   0  0  0  0  0  0  0  0  0  0  0  0
   55.7690   23.0820   44.1490 N   0  0  0  0  0  0  0  0  0  0  0  0
   54.7810   23.1750   43.8180 H   0  0  0  0  0  0  0  0  0  0  0  0
   58.3710   26.6750   46.9050 S   0  0  0  0  0  0  0  0  0  0  0  0
   58.7870   28.0920   46.0940 C   0  0  0  0  0  0  0  0  0  0  0  0
   60.1670   28.6670   46.0780 C   0  0  0  0  0  0  0  0  0  0  0  0
   60.5157   28.8123   47.1111 H   0  0  0  0  0  0  0  0  0  0  0  0
   60.8458   27.9768   45.5556 H   0  0  0  0  0  0  0  0  0  0  0  0
   60.1549   29.6349   45.5556 H   0  0  0  0  0  0  0  0  0  0  0  0
   57.0270   29.8160   43.3460 C   0  0  0  0  0  0  0  0  0  0  0  0
   56.5995   28.8885   42.9375 H   0  0  0  0  0  0  0  0  0  0  0  0
   57.0080   30.9880   42.5810 C   0  0  0  0  0  0  0  0  0  0  0  0
   56.5566   30.9817   41.5779 H   0  0  0  0  0  0  0  0  0  0  0  0
  1  2  1  0
  2  3  2  0
  3  4  1  0
  3  5  1  0
  5  6  1  0
  5  7  2  0
  7  8  1  0
  8  9  1  0
  9 10  1  0
 10 11  2  0
 11 12  1  0
 12 13  2  0
 12 14  1  0
 14 15  2  0
 15 16  1  0
 15 17  1  0
 17 18  2  0
 17 19  1  0
 19 20  1  0
 20 21  2  0
 20 22  1  0
 22 23  1  0
 10 24  1  0
 24 25  1  0
 25 26  1  0
 26 27  1  0
 26 28  1  0
 26 29  1  0
  7 30  1  0
 30 31  1  0
 30 32  2  0
 32 33  1  0
 32  2  1  0
 25  8  2  0
 22 14  1  0
M  CHG  2   9  -1  19  -1
M  END
>  <UniqueID>  (26) 
25

>  <SMILES>  (26) 
Cc1s/c(=N/C(=O)c2cc(=O)[n-]c(=O)[nH]2)[n-]c1-c1ccccc1

>  <Energy>  (26) 
73.21326273070824

>  <Genealogy>  (26) 
Cc1sc(=NC(=O)c2cc(=O)[n-]c(=O)[nH]2)[n-]c1-c1ccccc1 (protonated)
Cc1s/c(=N/C(=O)c2cc(=O)[n-]c(=O)[nH]2)[n-]c1-c1ccccc1 (cis-trans isomerization)
Cc1s/c(=N/C(=O)c2cc(=O)[n-]c(=O)[nH]2)[n-]c1-c1ccccc1 (3D coordinates assigned)
Cc1s/c(=N/C(=O)c2cc(=O)[n-]c(=O)[nH]2)[n-]c1-c1ccccc1 (optimized conformer: 73.21326273070824 kcal/mol)

>  <smiles>  (26) 
Cc1sc(=NC(=O)c2cc(=O)[nH]c(=O)[nH]2)[nH]c1-c1ccccc1

>  <score_type>  (26) 
oracle

>  <origin>  (26) 
adg

>  <m_score__min__energy>  (26) 
-12.449999999999999

>  <m_primary>  (26) 
energy

$$$$
26:0
     RDKit          3D

 58 62  0  0  0  0  0  0  0  0999 V2000
   54.2460   25.3940   45.6780 O   0  0  0  0  0  0  0  0  0  0  0  0
   55.5060   25.4490   45.7000 C   0  0  0  0  0  0  0  0  0  0  0  0
   56.1380   26.5700   46.3430 N   0  0  0  0  0  0  0  0  0  0  0  0
   57.0700   27.4650   45.7250 C   0  0  0  0  0  0  0  0  0  0  0  0
   57.9940   26.9590   44.8020 C   0  0  0  0  0  0  0  0  0  0  0  0
   58.8340   27.8260   44.0970 C   0  0  0  0  0  0  0  0  0  0  0  0
   58.7590   29.2040   44.3170 C   0  0  0  0  0  0  0  0  0  0  0  0
   57.8650   29.7200   45.2700 C   0  0  0  0  0  0  0  0  0  0  0  0
   57.7660   31.1740   45.4910 C   0  0  0  0  0  0  0  0  0  0  0  0
   56.8570   31.8220   44.8980 O   0  0  0  0  0  0  0  0  0  0  0  0
   58.6880   31.8650   46.3620 N   0  0  0  0  0  0  0  0  0  0  0  0
   60.1040   31.4800   46.4030 C   0  0  0  0  0  0  0  0  0  0  0  0
   60.5890   31.4920   47.8480 C   0  0  0  0  0  0  0  0  0  0  0  0
   60.4460   32.8970   48.4670 C   0  0  0  0  0  0  0  0  0  0  0  0
   60.3710   32.8330   49.9460 N   0  0  0  0  0  0  0  0  0  0  0  0
   61.4230   33.4480   50.7240 C   0  0  0  0  0  0  0  0  0  0  0  0
   62.5680   33.6240   50.2290 O   0  0  0  0  0  0  0  0  0  0  0  0
   61.1820   33.8310   52.1610 C   0  0  0  0  0  0  0  0  0  0  0  0
   59.6880   34.0570   52.4200 C   0  0  0  0  0  0  0  0  0  0  0  0
   58.8880   32.8880   51.9150 C   0  0  0  0  0  0  0  0  0  0  0  0
   57.7800   32.4160   52.6390 C   0  0  0  0  0  0  0  0  0  0  0  0
   57.0480   31.3280   52.1620 C   0  0  0  0  0  0  0  0  0  0  0  0
   57.4080   30.7170   50.9560 C   0  0  0  0  0  0  0  0  0  0  0  0
   58.4960   31.1950   50.2200 C   0  0  0  0  0  0  0  0  0  0  0  0
   59.2320   32.3060   50.6750 C   0  0  0  0  0  0  0  0  0  0  0  0
   59.3440   33.7990   47.8350 C   0  0  0  0  0  0  0  0  0  0  0  0
   58.2250   33.0700   47.0670 C   0  0  0  0  0  0  0  0  0  0  0  0
   57.0450   28.8440   45.9960 C   0  0  0  0  0  0  0  0  0  0  0  0
   56.2780   24.3300   45.1120 C   0  0  0  0  0  0  0  0  0  0  0  0
   55.7890   23.5890   44.0230 C   0  0  0  0  0  0  0  0  0  0  0  0
   56.5550   22.5280   43.5370 C   0  0  0  0  0  0  0  0  0  0  0  0
   56.1330   21.8310   42.5750 O   0  0  0  0  0  0  0  0  0  0  0  0
   57.7600   22.2480   44.1000 N   0  0  0  0  0  0  0  0  0  0  0  0
   58.2340   22.9900   45.1360 C   0  0  0  0  0  0  0  0  0  0  0  0
   59.3560   22.7200   45.6410 O   0  0  0  0  0  0  0  0  0  0  0  0
   57.4980   24.0190   45.6320 N   0  0  0  0  0  0  0  0  0  0  0  0
   58.0590   25.8743   44.6310 H   0  0  0  0  0  0  0  0  0  0  0  0
   59.5539   27.4236   43.3692 H   0  0  0  0  0  0  0  0  0  0  0  0
   59.4020   29.8868   43.7422 H   0  0  0  0  0  0  0  0  0  0  0  0
   60.2221   30.4696   45.9844 H   0  0  0  0  0  0  0  0  0  0  0  0
   60.6963   32.1925   45.8101 H   0  0  0  0  0  0  0  0  0  0  0  0
   59.9914   30.7782   48.4340 H   0  0  0  0  0  0  0  0  0  0  0  0
   61.6518   31.2087   47.8634 H   0  0  0  0  0  0  0  0  0  0  0  0
   61.3754   33.4216   48.2005 H   0  0  0  0  0  0  0  0  0  0  0  0
   61.5435   33.0238   52.8150 H   0  0  0  0  0  0  0  0  0  0  0  0
   61.7222   34.7656   52.3726 H   0  0  0  0  0  0  0  0  0  0  0  0
   59.5204   34.1715   53.5011 H   0  0  0  0  0  0  0  0  0  0  0  0
   59.3666   34.9660   51.8905 H   0  0  0  0  0  0  0  0  0  0  0  0
   57.4899   32.9039   53.5812 H   0  0  0  0  0  0  0  0  0  0  0  0
   56.1877   30.9506   52.7343 H   0  0  0  0  0  0  0  0  0  0  0  0
   56.8321   29.8563   50.5852 H   0  0  0  0  0  0  0  0  0  0  0  0
   58.7791   30.7001   49.2793 H   0  0  0  0  0  0  0  0  0  0  0  0
   58.8743   34.3735   48.6470 H   0  0  0  0  0  0  0  0  0  0  0  0
   59.8623   34.4147   47.0852 H   0  0  0  0  0  0  0  0  0  0  0  0
   57.4446   32.7758   47.7843 H   0  0  0  0  0  0  0  0  0  0  0  0
   57.8481   33.7672   46.3042 H   0  0  0  0  0  0  0  0  0  0  0  0
   56.3805   29.2371   46.7795 H   0  0  0  0  0  0  0  0  0  0  0  0
   54.8220   23.8399   43.5626 H   0  0  0  0  0  0  0  0  0  0  0  0
  1  2  2  0
  2  3  1  0
  3  4  1  0
  4  5  2  0
  5  6  1  0
  6  7  2  0
  7  8  1  0
  8  9  1  0
  9 10  2  0
  9 11  1  0
 11 12  1  0
 12 13  1  0
 13 14  1  0
 14 15  1  0
 15 16  1  0
 16 17  2  0
 16 18  1  0
 18 19  1  0
 19 20  1  0
 20 21  2  0
 21 22  1  0
 22 23  2  0
 23 24  1  0
 24 25  2  0
 14 26  1  0
 26 27  1  0
  8 28  2  0
  2 29  1  0
 29 30  2  0
 30 31  1  0
 31 32  2  0
 31 33  1  0
 33 34  1  0
 34 35  2  0
 34 36  1  0
 28  4  1  0
 36 29  1  0
 27 11  1  0
 25 15  1  0
 25 20  1  0
  5 37  1  0
  6 38  1  0
  7 39  1  0
 12 40  1  0
 12 41  1  0
 13 42  1  0
 13 43  1  0
 14 44  1  0
 18 45  1  0
 18 46  1  0
 19 47  1  0
 19 48  1  0
 21 49  1  0
 22 50  1  0
 23 51  1  0
 24 52  1  0
 26 53  1  0
 26 54  1  0
 27 55  1  0
 27 56  1  0
 28 57  1  0
 30 58  1  0
M  CHG  3   3  -1  33  -1  36  -1
M  END
>  <UniqueID>  (27) 
26

>  <SMILES>  (27) 
O=C([N-]c1cccc(C(=O)N2CCC(N3C(=O)CCc4ccccc43)CC2)c1)c1cc(=O)[n-]c(=O)[n-]1

>  <Energy>  (27) 
89.00340766271586

>  <Genealogy>  (27) 
O=C([N-]c1cccc(C(=O)N2CCC(N3C(=O)CCc4ccccc43)CC2)c1)c1cc(=O)[n-]c(=O)[n-]1 (protonated)
O=C([N-]c1cccc(C(=O)N2CCC(N3C(=O)CCc4ccccc43)CC2)c1)c1cc(=O)[n-]c(=O)[n-]1 (3D coordinates assigned)
O=C([N-]c1cccc(C(=O)N2CCC(N3C(=O)CCc4ccccc43)CC2)c1)c1cc(=O)[n-]c(=O)[n-]1 (nonaromatic ring conformer: 89.00340766271586 kcal/mol)

>  <smiles>  (27) 
O=C(Nc1cccc(C(=O)N2CCC(N3C(=O)CCc4ccccc43)CC2)c1)c1cc(=O)[nH]c(=O)[nH]1

>  <score_type>  (27) 
oracle

>  <origin>  (27) 
adg

>  <m_score__min__energy>  (27) 
-16.699999999999999

>  <m_primary>  (27) 
energy

$$$$
27:0
     RDKit          3D

 72 76  0  0  0  0  0  0  0  0999 V2000
   60.1864   36.0915   46.8542 H   0  0  0  0  0  0  0  0  0  0  0  0
   59.6440   35.7000   45.9810 C   0  0  0  0  0  0  0  0  0  0  0  0
   59.3986   36.3670   45.1414 H   0  0  0  0  0  0  0  0  0  0  0  0
   59.2820   34.4100   45.9400 C   0  0  0  0  0  0  0  0  0  0  0  0
   58.6160   34.0030   44.8290 N   0  0  0  0  0  0  0  0  0  0  0  0
   58.3660   32.7010   44.5660 C   0  0  0  0  0  0  0  0  0  0  0  0
   57.7260   32.3980   43.5220 O   0  0  0  0  0  0  0  0  0  0  0  0
   58.8200   31.7330   45.4110 N   0  0  0  0  0  0  0  0  0  0  0  0
   58.5910   30.3460   45.1010 C   0  0  0  0  0  0  0  0  0  0  0  0
   57.2870   29.8740   44.9030 C   0  0  0  0  0  0  0  0  0  0  0  0
   56.4312   30.5506   45.0437 H   0  0  0  0  0  0  0  0  0  0  0  0
   57.0710   28.5450   44.5270 C   0  0  0  0  0  0  0  0  0  0  0  0
   56.0449   28.1780   44.3771 H   0  0  0  0  0  0  0  0  0  0  0  0
   58.1580   27.6770   44.3400 C   0  0  0  0  0  0  0  0  0  0  0  0
   57.9500   26.2980   43.8560 C   0  0  0  0  0  0  0  0  0  0  0  0
   57.6930   26.1250   42.6330 O   0  0  0  0  0  0  0  0  0  0  0  0
   57.9690   25.1660   44.7580 N   0  0  0  0  0  0  0  0  0  0  0  0
   57.8710   23.7910   44.2530 C   0  0  0  0  0  0  0  0  0  0  0  0
   57.8378   23.8115   43.1537 H   0  0  0  0  0  0  0  0  0  0  0  0
   58.7484   23.2241   44.5975 H   0  0  0  0  0  0  0  0  0  0  0  0
   56.5930   23.1030   44.7870 C   0  0  0  0  0  0  0  0  0  0  0  0
   55.8025   23.2045   44.0289 H   0  0  0  0  0  0  0  0  0  0  0  0
   56.8549   22.0534   44.9862 H   0  0  0  0  0  0  0  0  0  0  0  0
   56.0920   23.6720   46.0640 N   0  0  0  0  0  0  0  0  0  0  0  0
   55.0120   24.6610   45.8290 C   0  0  0  0  0  0  0  0  0  0  0  0
   55.0246   25.3996   46.6441 H   0  0  0  0  0  0  0  0  0  0  0  0
   55.1962   25.1367   44.8545 H   0  0  0  0  0  0  0  0  0  0  0  0
   53.6490   24.0160   45.7790 C   0  0  0  0  0  0  0  0  0  0  0  0
   53.3260   22.9640   46.6540 C   0  0  0  0  0  0  0  0  0  0  0  0
   54.0635   22.6205   47.3943 H   0  0  0  0  0  0  0  0  0  0  0  0
   52.0700   22.3530   46.5860 C   0  0  0  0  0  0  0  0  0  0  0  0
   51.8226   21.5281   47.2703 H   0  0  0  0  0  0  0  0  0  0  0  0
   51.1290   22.7890   45.6500 C   0  0  0  0  0  0  0  0  0  0  0  0
   50.1421   22.3060   45.5966 H   0  0  0  0  0  0  0  0  0  0  0  0
   51.4410   23.8390   44.7810 C   0  0  0  0  0  0  0  0  0  0  0  0
   50.6983   24.1826   44.0459 H   0  0  0  0  0  0  0  0  0  0  0  0
   52.6960   24.4530   44.8450 C   0  0  0  0  0  0  0  0  0  0  0  0
   52.9371   25.2806   44.1617 H   0  0  0  0  0  0  0  0  0  0  0  0
   57.2030   24.1880   46.8990 C   0  0  0  0  0  0  0  0  0  0  0  0
   56.7963   24.5319   47.8615 H   0  0  0  0  0  0  0  0  0  0  0  0
   57.9285   23.3746   47.0473 H   0  0  0  0  0  0  0  0  0  0  0  0
   57.9260   25.3580   46.2170 C   0  0  0  0  0  0  0  0  0  0  0  0
   57.3918   26.2928   46.4423 H   0  0  0  0  0  0  0  0  0  0  0  0
   58.9571   25.4055   46.5972 H   0  0  0  0  0  0  0  0  0  0  0  0
   59.4590   28.1400   44.5820 C   0  0  0  0  0  0  0  0  0  0  0  0
   60.3128   27.4540   44.4795 H   0  0  0  0  0  0  0  0  0  0  0  0
   59.6750   29.4700   44.9530 C   0  0  0  0  0  0  0  0  0  0  0  0
   60.6992   29.8305   45.1294 H   0  0  0  0  0  0  0  0  0  0  0  0
   59.4730   32.0740   46.5660 C   0  0  0  0  0  0  0  0  0  0  0  0
   59.8760   31.1570   47.3400 O   0  0  0  0  0  0  0  0  0  0  0  0
   59.6650   33.4360   46.9160 C   0  0  0  0  0  0  0  0  0  0  0  0
   60.1700   33.7270   48.1480 C   0  0  0  0  0  0  0  0  0  0  0  0
   59.5462   34.3489   48.8069 H   0  0  0  0  0  0  0  0  0  0  0  0
   61.4760   33.2870   48.6840 C   0  0  0  0  0  0  0  0  0  0  0  0
   62.6640   33.5230   47.9760 C   0  0  0  0  0  0  0  0  0  0  0  0
   62.6239   33.9936   46.9825 H   0  0  0  0  0  0  0  0  0  0  0  0
   63.8980   33.1640   48.5250 C   0  0  0  0  0  0  0  0  0  0  0  0
   64.8200   33.3404   47.9516 H   0  0  0  0  0  0  0  0  0  0  0  0
   63.9750   32.5780   49.8060 C   0  0  0  0  0  0  0  0  0  0  0  0
   65.2570   32.2140   50.3820 N   0  0  0  0  0  0  0  0  0  0  0  0
   65.3880   31.0060   51.2060 C   0  0  0  0  0  0  0  0  0  0  0  0
   65.3580   31.2830   52.2701 H   0  0  0  0  0  0  0  0  0  0  0  0
   64.5592   30.3181   50.9826 H   0  0  0  0  0  0  0  0  0  0  0  0
   66.3450   30.5118   50.9826 H   0  0  0  0  0  0  0  0  0  0  0  0
   66.4440   33.0430   50.1410 C   0  0  0  0  0  0  0  0  0  0  0  0
   66.8801   33.3476   51.1038 H   0  0  0  0  0  0  0  0  0  0  0  0
   67.1850   32.4650   49.5693 H   0  0  0  0  0  0  0  0  0  0  0  0
   66.1565   33.9377   49.5693 H   0  0  0  0  0  0  0  0  0  0  0  0
   62.7750   32.3680   50.5170 C   0  0  0  0  0  0  0  0  0  0  0  0
   62.8095   31.9134   51.5181 H   0  0  0  0  0  0  0  0  0  0  0  0
   61.5430   32.7300   49.9660 C   0  0  0  0  0  0  0  0  0  0  0  0
   60.6197   32.5761   50.5438 H   0  0  0  0  0  0  0  0  0  0  0  0
  1  2  1  0
  2  3  1  0
  2  4  2  0
  4  5  1  0
  5  6  1  0
  6  7  2  0
  6  8  1  0
  8  9  1  0
  9 10  2  0
 10 11  1  0
 10 12  1  0
 12 13  1  0
 12 14  2  0
 14 15  1  0
 15 16  2  0
 15 17  1  0
 17 18  1  0
 18 19  1  0
 18 20  1  0
 18 21  1  0
 21 22  1  0
 21 23  1  0
 21 24  1  0
 24 25  1  0
 25 26  1  0
 25 27  1  0
 25 28  1  0
 28 29  2  0
 29 30  1  0
 29 31  1  0
 31 32  1  0
 31 33  2  0
 33 34  1  0
 33 35  1  0
 35 36  1  0
 35 37  2  0
 37 38  1  0
 24 39  1  0
 39 40  1  0
 39 41  1  0
 39 42  1  0
 42 43  1  0
 42 44  1  0
 14 45  1  0
 45 46  1  0
 45 47  2  0
 47 48  1  0
  8 49  1  0
 49 50  2  0
 49 51  1  0
 51 52  2  0
 52 53  1  0
 52 54  1  0
 54 55  2  0
 55 56  1  0
 55 57  1  0
 57 58  1  0
 57 59  2  0
 59 60  1  0
 60 61  1  0
 61 62  1  0
 61 63  1  0
 61 64  1  0
 60 65  1  0
 65 66  1  0
 65 67  1  0
 65 68  1  0
 59 69  1  0
 69 70  1  0
 69 71  2  0
 71 72  1  0
 51  4  1  0
 71 54  1  0
 47  9  1  0
 42 17  1  0
 37 28  1  0
M  CHG  1   5  -1
M  END
>  <UniqueID>  (28) 
27

>  <SMILES>  (28) 
C=c1[n-]c(=O)n(-c2ccc(C(=O)N3CCN(Cc4ccccc4)CC3)cc2)c(=O)/c1=C/c1ccc(N(C)C)cc1

>  <Energy>  (28) 
127.2220316323235

>  <Genealogy>  (28) 
C=c1[n-]c(=O)n(-c2ccc(C(=O)N3CCN(Cc4ccccc4)CC3)cc2)c(=O)c1=Cc1ccc(N(C)C)cc1 (protonated)
C=c1[n-]c(=O)n(-c2ccc(C(=O)N3CCN(Cc4ccccc4)CC3)cc2)c(=O)/c1=C/c1ccc(N(C)C)cc1 (cis-trans isomerization)
C=c1[n-]c(=O)n(-c2ccc(C(=O)N3CCN(Cc4ccccc4)CC3)cc2)c(=O)/c1=C/c1ccc(N(C)C)cc1 (3D coordinates assigned)
C=c1[n-]c(=O)n(-c2ccc(C(=O)N3CCN(Cc4ccccc4)CC3)cc2)c(=O)/c1=C/c1ccc(N(C)C)cc1 (nonaromatic ring conformer: 127.2220316323235 kcal/mol)

>  <smiles>  (28) 
C=c1[nH]c(=O)n(-c2ccc(C(=O)N3CCN(Cc4ccccc4)CC3)cc2)c(=O)c1=Cc1ccc(N(C)C)cc1

>  <score_type>  (28) 
oracle

>  <origin>  (28) 
adg

>  <m_score__min__energy>  (28) 
-11.039999999999999

>  <m_primary>  (28) 
energy

$$$$
28:0
     RDKit          3D

 49 53  0  0  0  0  0  0  0  0999 V2000
   54.7660   27.0880   45.1720 H   0  0  0  0  0  0  0  0  0  0  0  0
   55.1800   26.6560   45.9860 O   0  0  0  0  0  0  0  0  0  0  0  0
   56.5530   26.6540   46.2430 C   0  0  0  0  0  0  0  0  0  0  0  0
   57.0750   25.5820   46.9780 C   0  0  0  0  0  0  0  0  0  0  0  0
   56.3966   24.8151   47.3800 H   0  0  0  0  0  0  0  0  0  0  0  0
   58.4490   25.4780   47.2050 C   0  0  0  0  0  0  0  0  0  0  0  0
   58.8487   24.6321   47.7835 H   0  0  0  0  0  0  0  0  0  0  0  0
   59.3140   26.4470   46.6980 C   0  0  0  0  0  0  0  0  0  0  0  0
   60.3979   26.3553   46.8619 H   0  0  0  0  0  0  0  0  0  0  0  0
   58.8070   27.5330   45.9830 C   0  0  0  0  0  0  0  0  0  0  0  0
   59.4963   28.2933   45.5871 H   0  0  0  0  0  0  0  0  0  0  0  0
   57.4230   27.6660   45.7630 C   0  0  0  0  0  0  0  0  0  0  0  0
   56.9320   28.8780   45.0690 C   0  0  0  0  0  0  0  0  0  0  0  0
   57.7470   29.8110   44.5300 N   0  0  0  0  0  0  0  0  0  0  0  0
   56.9000   30.6840   43.9570 C   0  0  0  0  0  0  0  0  0  0  0  0
   57.3040   31.9000   43.2320 C   0  0  0  0  0  0  0  0  0  0  0  0
   56.6635   32.2773   42.4212 H   0  0  0  0  0  0  0  0  0  0  0  0
   58.4300   32.5590   43.5330 C   0  0  0  0  0  0  0  0  0  0  0  0
   59.1811   32.6900   42.7401 H   0  0  0  0  0  0  0  0  0  0  0  0
   58.7240   33.1230   44.8740 C   0  0  0  0  0  0  0  0  0  0  0  0
   58.7420   32.2550   45.9780 C   0  0  0  0  0  0  0  0  0  0  0  0
   58.5321   31.1849   45.8334 H   0  0  0  0  0  0  0  0  0  0  0  0
   59.0240   32.7380   47.2580 C   0  0  0  0  0  0  0  0  0  0  0  0
   59.0039   32.0534   48.1187 H   0  0  0  0  0  0  0  0  0  0  0  0
   59.3330   34.0940   47.4500 C   0  0  0  0  0  0  0  0  0  0  0  0
   59.5710   34.6160   48.7630 N   0  0  0  0  0  0  0  0  0  0  0  0
   60.1540   34.0640   49.7980 C   0  0  0  0  0  0  0  0  0  0  0  0
   59.3370   33.8130   50.9080 C   0  0  0  0  0  0  0  0  0  0  0  0
   58.3159   34.2209   50.9377 H   0  0  0  0  0  0  0  0  0  0  0  0
   59.8080   33.0510   51.9740 C   0  0  0  0  0  0  0  0  0  0  0  0
   59.1485   32.8350   52.8274 H   0  0  0  0  0  0  0  0  0  0  0  0
   61.0760   32.5750   51.9630 N   0  0  0  0  0  0  0  0  0  0  0  0
   61.9400   32.8580   50.9550 C   0  0  0  0  0  0  0  0  0  0  0  0
   63.2560   32.3890   51.0390 C   0  0  0  0  0  0  0  0  0  0  0  0
   63.5490   31.7234   51.8643 H   0  0  0  0  0  0  0  0  0  0  0  0
   64.1980   32.7630   50.0790 C   0  0  0  0  0  0  0  0  0  0  0  0
   65.8510   32.1850   50.2000 Cl  0  0  0  0  0  0  0  0  0  0  0  0
   63.8370   33.6370   49.0560 C   0  0  0  0  0  0  0  0  0  0  0  0
   64.5904   33.9615   48.3231 H   0  0  0  0  0  0  0  0  0  0  0  0
   62.5240   34.1040   48.9550 C   0  0  0  0  0  0  0  0  0  0  0  0
   62.2619   34.8234   48.1652 H   0  0  0  0  0  0  0  0  0  0  0  0
   61.5280   33.6620   49.8570 C   0  0  0  0  0  0  0  0  0  0  0  0
   59.2940   34.9690   46.3600 C   0  0  0  0  0  0  0  0  0  0  0  0
   59.4879   36.0411   46.5121 H   0  0  0  0  0  0  0  0  0  0  0  0
   59.0100   34.4890   45.0780 C   0  0  0  0  0  0  0  0  0  0  0  0
   59.0096   35.1811   44.2230 H   0  0  0  0  0  0  0  0  0  0  0  0
   55.6060   30.2600   44.1440 C   0  0  0  0  0  0  0  0  0  0  0  0
   54.7051   30.7778   43.7830 H   0  0  0  0  0  0  0  0  0  0  0  0
   55.6200   29.1110   44.8390 N   0  0  0  0  0  0  0  0  0  0  0  0
  1  2  1  0
  2  3  1  0
  3  4  2  0
  4  5  1  0
  4  6  1  0
  6  7  1  0
  6  8  2  0
  8  9  1  0
  8 10  1  0
 10 11  1  0
 10 12  2  0
 12 13  1  0
 13 14  2  0
 14 15  1  0
 15 16  1  0
 16 17  1  0
 16 18  2  0
 18 19  1  0
 18 20  1  0
 20 21  2  0
 21 22  1  0
 21 23  1  0
 23 24  1  0
 23 25  2  0
 25 26  1  0
 26 27  2  0
 27 28  1  0
 28 29  1  0
 28 30  2  0
 30 31  1  0
 30 32  1  0
 32 33  1  0
 33 34  2  0
 34 35  1  0
 34 36  1  0
 36 37  1  0
 36 38  2  0
 38 39  1  0
 38 40  1  0
 40 41  1  0
 40 42  2  0
 25 43  1  0
 43 44  1  0
 43 45  2  0
 45 46  1  0
 15 47  2  0
 47 48  1  0
 47 49  1  0
 12  3  1  0
 49 13  1  0
 45 20  1  0
 42 27  1  0
 42 33  1  0
M  CHG  2  32  -1  49  -1
M  END
>  <UniqueID>  (29) 
28

>  <SMILES>  (29) 
Oc1ccccc1-c1nc(/C=C/c2ccc(/N=c3/cc[n-]c4cc(Cl)ccc34)cc2)c[n-]1

>  <Energy>  (29) 
113.7454579481012

>  <Genealogy>  (29) 
Oc1ccccc1-c1nc(C=Cc2ccc(N=c3cc[n-]c4cc(Cl)ccc34)cc2)c[n-]1 (protonated)
Oc1ccccc1-c1nc(/C=C/c2ccc(/N=c3/cc[n-]c4cc(Cl)ccc34)cc2)c[n-]1 (cis-trans isomerization)
Oc1ccccc1-c1nc(/C=C/c2ccc(/N=c3/cc[n-]c4cc(Cl)ccc34)cc2)c[n-]1 (3D coordinates assigned)
Oc1ccccc1-c1nc(/C=C/c2ccc(/N=c3/cc[n-]c4cc(Cl)ccc34)cc2)c[n-]1 (optimized conformer: 113.7454579481012 kcal/mol)

>  <smiles>  (29) 
Oc1ccccc1-c1nc(C=Cc2ccc(N=c3cc[nH]c4cc(Cl)ccc34)cc2)c[nH]1

>  <score_type>  (29) 
oracle

>  <origin>  (29) 
adg

>  <m_score__min__energy>  (29) 
-13.99

>  <m_primary>  (29) 
energy

$$$$
29:0
     RDKit          3D

 39 40  0  0  0  0  0  0  0  0999 V2000
   54.8080   27.1500   46.4030 H   0  0  0  0  0  0  0  0  0  0  0  0
   54.6730   26.2020   45.9860 N   0  0  0  0  0  0  0  0  0  0  0  0
   56.2080   25.4100   46.0220 S   0  0  0  0  0  0  0  0  0  0  0  0
   56.7310   25.3930   47.4300 O   0  0  0  0  0  0  0  0  0  0  0  0
   56.0510   23.9960   45.5350 O   0  0  0  0  0  0  0  0  0  0  0  0
   57.3560   26.2700   44.9620 C   0  0  0  0  0  0  0  0  0  0  0  0
   56.8827   26.4490   43.9853 H   0  0  0  0  0  0  0  0  0  0  0  0
   58.2578   25.6523   44.8385 H   0  0  0  0  0  0  0  0  0  0  0  0
   57.7490   27.5900   45.5720 C   0  0  0  0  0  0  0  0  0  0  0  0
   59.0100   27.7290   46.1730 C   0  0  0  0  0  0  0  0  0  0  0  0
   59.7103   26.8807   46.1713 H   0  0  0  0  0  0  0  0  0  0  0  0
   59.3870   28.9410   46.7770 C   0  0  0  0  0  0  0  0  0  0  0  0
   60.7000   29.0950   47.4420 C   0  0  0  0  0  0  0  0  0  0  0  0
   61.5591   29.3655   46.8106 H   0  0  0  0  0  0  0  0  0  0  0  0
   60.9260   28.9300   48.7600 C   0  0  0  0  0  0  0  0  0  0  0  0
   60.6980   27.6250   49.3320 C   0  0  0  0  0  0  0  0  0  0  0  0
   60.5160   26.5780   49.7900 N   0  0  0  0  0  0  0  0  0  0  0  0
   61.4380   29.9970   49.6510 C   0  0  0  0  0  0  0  0  0  0  0  0
   62.2750   29.7030   50.5480 O   0  0  0  0  0  0  0  0  0  0  0  0
   61.0280   31.3610   49.4540 N   0  0  0  0  0  0  0  0  0  0  0  0
   61.3780   32.1490   48.4800 C   0  0  0  0  0  0  0  0  0  0  0  0
   62.6890   32.3340   48.1550 N   0  0  0  0  0  0  0  0  0  0  0  0
   63.0710   33.1730   47.1550 C   0  0  0  0  0  0  0  0  0  0  0  0
   64.1378   33.2914   46.9142 H   0  0  0  0  0  0  0  0  0  0  0  0
   62.1100   33.8840   46.4340 C   0  0  0  0  0  0  0  0  0  0  0  0
   62.4145   34.5563   45.6183 H   0  0  0  0  0  0  0  0  0  0  0  0
   60.7550   33.7350   46.7570 C   0  0  0  0  0  0  0  0  0  0  0  0
   59.7040   34.4650   45.9760 C   0  0  0  0  0  0  0  0  0  0  0  0
   59.0032   34.9518   46.6702 H   0  0  0  0  0  0  0  0  0  0  0  0
   60.1812   35.2271   45.3424 H   0  0  0  0  0  0  0  0  0  0  0  0
   59.1564   33.7518   45.3424 H   0  0  0  0  0  0  0  0  0  0  0  0
   60.3880   32.8470   47.7780 C   0  0  0  0  0  0  0  0  0  0  0  0
   59.3267   32.6993   48.0265 H   0  0  0  0  0  0  0  0  0  0  0  0
   58.5270   30.0440   46.6930 C   0  0  0  0  0  0  0  0  0  0  0  0
   58.8328   31.0101   47.1209 H   0  0  0  0  0  0  0  0  0  0  0  0
   57.2840   29.9230   46.0690 C   0  0  0  0  0  0  0  0  0  0  0  0
   56.6124   30.7925   46.0145 H   0  0  0  0  0  0  0  0  0  0  0  0
   56.8880   28.7030   45.5130 C   0  0  0  0  0  0  0  0  0  0  0  0
   55.6420   28.6070   44.9030 O   0  0  0  0  0  0  0  0  0  0  0  0
  1  2  1  0
  2  3  1  0
  3  4  2  0
  3  5  2  0
  3  6  1  0
  6  7  1  0
  6  8  1  0
  6  9  1  0
  9 10  2  0
 10 11  1  0
 10 12  1  0
 12 13  1  0
 13 14  1  0
 13 15  2  3
 15 16  1  0
 16 17  3  0
 15 18  1  0
 18 19  2  0
 18 20  1  0
 20 21  2  0
 21 22  1  0
 22 23  1  0
 23 24  1  0
 23 25  2  0
 25 26  1  0
 25 27  1  0
 27 28  1  0
 28 29  1  0
 28 30  1  0
 28 31  1  0
 27 32  2  0
 32 33  1  0
 12 34  2  0
 34 35  1  0
 34 36  1  0
 36 37  1  0
 36 38  2  0
 38 39  1  0
 38  9  1  0
 32 21  1  0
M  CHG  3   2  -1  22  -1  39  -1
M  END
>  <UniqueID>  (30) 
29

>  <SMILES>  (30) 
Cc1cc[n-]/c(=N\C(=O)C(C#N)=Cc2ccc([O-])c(CS([NH-])(=O)=O)c2)c1

>  <Energy>  (30) 
43.007748069085125

>  <Genealogy>  (30) 
Cc1cc[n-]c(=NC(=O)C(C#N)=Cc2ccc([O-])c(CS([NH-])(=O)=O)c2)c1 (protonated)
Cc1cc[n-]/c(=N\C(=O)C(C#N)=Cc2ccc([O-])c(CS([NH-])(=O)=O)c2)c1 (cis-trans isomerization)
Cc1cc[n-]/c(=N\C(=O)C(C#N)=Cc2ccc([O-])c(CS([NH-])(=O)=O)c2)c1 (3D coordinates assigned)
Cc1cc[n-]/c(=N\C(=O)C(C#N)=Cc2ccc([O-])c(CS([NH-])(=O)=O)c2)c1 (optimized conformer: 43.007748069085125 kcal/mol)

>  <smiles>  (30) 
Cc1cc[nH]c(=NC(=O)C(C#N)=Cc2ccc(O)c(CS(N)(=O)=O)c2)c1

>  <score_type>  (30) 
oracle

>  <origin>  (30) 
adg

>  <m_score__min__energy>  (30) 
-13.93

>  <m_primary>  (30) 
energy

$$$$
30:0
     RDKit          3D

 67 70  0  0  0  0  0  0  0  0999 V2000
   60.2350   29.0120   48.0520 C   0  0  0  0  0  0  0  0  0  0  0  0
   60.7020   30.3610   48.5930 C   0  0  0  0  0  0  0  0  0  0  0  0
   59.7070   30.9170   49.5320 N   0  0  0  0  0  0  0  0  0  0  0  0
   58.9790   30.0190   50.2680 C   0  0  0  0  0  0  0  0  0  0  0  0
   58.0070   30.4450   51.1700 C   0  0  0  0  0  0  0  0  0  0  0  0
   57.2890   29.5140   51.9110 O   0  0  0  0  0  0  0  0  0  0  0  0
   57.7700   31.8070   51.3230 C   0  0  0  0  0  0  0  0  0  0  0  0
   56.8990   32.2120   52.1390 O   0  0  0  0  0  0  0  0  0  0  0  0
   58.4990   32.7250   50.5710 C   0  0  0  0  0  0  0  0  0  0  0  0
   59.4730   32.2770   49.6500 C   0  0  0  0  0  0  0  0  0  0  0  0
   60.3020   33.2790   48.8430 C   0  0  0  0  0  0  0  0  0  0  0  0
   59.5120   34.2700   47.9740 C   0  0  0  0  0  0  0  0  0  0  0  0
   58.9980   33.5910   46.7320 C   0  0  0  0  0  0  0  0  0  0  0  0
   58.4920   34.3540   45.6720 C   0  0  0  0  0  0  0  0  0  0  0  0
   58.0540   33.7330   44.5010 C   0  0  0  0  0  0  0  0  0  0  0  0
   58.1080   32.3360   44.3710 C   0  0  0  0  0  0  0  0  0  0  0  0
   57.6170   31.6920   43.1010 C   0  0  0  0  0  0  0  0  0  0  0  0
   58.6200   31.5560   45.4340 C   0  0  0  0  0  0  0  0  0  0  0  0
   58.7140   30.1250   45.3150 N   0  0  0  0  0  0  0  0  0  0  0  0
   57.5680   29.2600   45.3500 C   0  0  0  0  0  0  0  0  0  0  0  0
   56.4130   29.7470   45.2120 O   0  0  0  0  0  0  0  0  0  0  0  0
   57.7260   27.7950   45.4960 C   0  0  0  0  0  0  0  0  0  0  0  0
   59.0020   27.2020   45.4850 C   0  0  0  0  0  0  0  0  0  0  0  0
   59.1390   25.8190   45.6320 C   0  0  0  0  0  0  0  0  0  0  0  0
   58.0100   25.0130   45.7960 C   0  0  0  0  0  0  0  0  0  0  0  0
   56.7330   25.5900   45.8270 C   0  0  0  0  0  0  0  0  0  0  0  0
   55.3040   24.5720   46.0060 S   0  0  0  0  0  0  0  0  0  0  0  0
   54.0760   25.4290   45.8720 O   0  0  0  0  0  0  0  0  0  0  0  0
   55.2980   23.9850   47.3910 O   0  0  0  0  0  0  0  0  0  0  0  0
   55.2290   23.2730   44.8340 N   0  0  0  0  0  0  0  0  0  0  0  0
   55.9910   22.0740   45.2350 C   0  0  0  0  0  0  0  0  0  0  0  0
   57.4350   22.0860   44.7140 C   0  0  0  0  0  0  0  0  0  0  0  0
   57.4660   22.3200   43.3240 O   0  0  0  0  0  0  0  0  0  0  0  0
   56.9690   23.6140   43.0650 C   0  0  0  0  0  0  0  0  0  0  0  0
   55.4870   23.7140   43.4500 C   0  0  0  0  0  0  0  0  0  0  0  0
   56.5950   26.9760   45.6690 C   0  0  0  0  0  0  0  0  0  0  0  0
   59.0750   32.1960   46.6010 C   0  0  0  0  0  0  0  0  0  0  0  0
   60.0026   28.3407   48.8918 H   0  0  0  0  0  0  0  0  0  0  0  0
   59.3342   29.1555   47.4372 H   0  0  0  0  0  0  0  0  0  0  0  0
   61.0317   28.5678   47.4372 H   0  0  0  0  0  0  0  0  0  0  0  0
   61.6596   30.2282   49.1178 H   0  0  0  0  0  0  0  0  0  0  0  0
   60.8232   31.0582   47.7508 H   0  0  0  0  0  0  0  0  0  0  0  0
   59.1657   28.9421   50.1441 H   0  0  0  0  0  0  0  0  0  0  0  0
   58.3161   33.8027   50.6943 H   0  0  0  0  0  0  0  0  0  0  0  0
   60.9064   33.8630   49.5527 H   0  0  0  0  0  0  0  0  0  0  0  0
   60.8903   32.6735   48.1378 H   0  0  0  0  0  0  0  0  0  0  0  0
   58.6609   34.6593   48.5520 H   0  0  0  0  0  0  0  0  0  0  0  0
   60.1789   35.0933   47.6785 H   0  0  0  0  0  0  0  0  0  0  0  0
   58.4394   35.4490   45.7628 H   0  0  0  0  0  0  0  0  0  0  0  0
   57.6633   34.3432   43.6733 H   0  0  0  0  0  0  0  0  0  0  0  0
   56.9673   30.8398   43.3494 H   0  0  0  0  0  0  0  0  0  0  0  0
   57.0483   32.4275   42.5130 H   0  0  0  0  0  0  0  0  0  0  0  0
   58.4768   31.3384   42.5130 H   0  0  0  0  0  0  0  0  0  0  0  0
   59.6420   29.7050   45.0800 H   0  0  0  0  0  0  0  0  0  0  0  0
   59.8963   27.8302   45.3601 H   0  0  0  0  0  0  0  0  0  0  0  0
   60.1401   25.3633   45.6185 H   0  0  0  0  0  0  0  0  0  0  0  0
   58.1233   23.9239   45.9010 H   0  0  0  0  0  0  0  0  0  0  0  0
   56.0140   22.0232   46.3336 H   0  0  0  0  0  0  0  0  0  0  0  0
   55.4877   21.1995   44.7969 H   0  0  0  0  0  0  0  0  0  0  0  0
   57.9960   22.8818   45.2259 H   0  0  0  0  0  0  0  0  0  0  0  0
   57.8897   21.1049   44.9156 H   0  0  0  0  0  0  0  0  0  0  0  0
   57.5444   24.3456   43.6513 H   0  0  0  0  0  0  0  0  0  0  0  0
   57.0694   23.8222   41.9896 H   0  0  0  0  0  0  0  0  0  0  0  0
   55.1666   24.7614   43.3486 H   0  0  0  0  0  0  0  0  0  0  0  0
   54.9229   23.0501   42.7784 H   0  0  0  0  0  0  0  0  0  0  0  0
   55.5922   27.4280   45.6804 H   0  0  0  0  0  0  0  0  0  0  0  0
   59.4963   31.5957   47.4209 H   0  0  0  0  0  0  0  0  0  0  0  0
  1  2  1  0
  2  3  1  0
  3  4  1  0
  4  5  2  0
  5  6  1  0
  5  7  1  0
  7  8  2  0
  7  9  1  0
  9 10  2  0
 10 11  1  0
 11 12  1  0
 12 13  1  0
 13 14  2  0
 14 15  1  0
 15 16  2  0
 16 17  1  0
 16 18  1  0
 18 19  1  0
 19 20  1  0
 20 21  2  0
 20 22  1  0
 22 23  2  0
 23 24  1  0
 24 25  2  0
 25 26  1  0
 26 27  1  0
 27 28  2  0
 27 29  2  0
 27 30  1  0
 30 31  1  0
 31 32  1  0
 32 33  1  0
 33 34  1  0
 34 35  1  0
 26 36  2  0
 18 37  2  0
 10  3  1  0
 37 13  1  0
 36 22  1  0
 35 30  1  0
  1 38  1  0
  1 39  1  0
  1 40  1  0
  2 41  1  0
  2 42  1  0
  4 43  1  0
  9 44  1  0
 11 45  1  0
 11 46  1  0
 12 47  1  0
 12 48  1  0
 14 49  1  0
 15 50  1  0
 17 51  1  0
 17 52  1  0
 17 53  1  0
 19 54  1  0
 23 55  1  0
 24 56  1  0
 25 57  1  0
 31 58  1  0
 31 59  1  0
 32 60  1  0
 32 61  1  0
 34 62  1  0
 34 63  1  0
 35 64  1  0
 35 65  1  0
 36 66  1  0
 37 67  1  0
M  CHG  1   6  -1
M  END
>  <UniqueID>  (31) 
30

>  <SMILES>  (31) 
CCn1cc([O-])c(=O)cc1CCc1ccc(C)c(NC(=O)c2cccc(S(=O)(=O)N3CCOCC3)c2)c1

>  <Energy>  (31) 
84.50030187885383

>  <Genealogy>  (31) 
CCn1cc([O-])c(=O)cc1CCc1ccc(C)c(NC(=O)c2cccc(S(=O)(=O)N3CCOCC3)c2)c1 (protonated)
CCn1cc([O-])c(=O)cc1CCc1ccc(C)c(NC(=O)c2cccc(S(=O)(=O)N3CCOCC3)c2)c1 (3D coordinates assigned)
CCn1cc([O-])c(=O)cc1CCc1ccc(C)c(NC(=O)c2cccc(S(=O)(=O)N3CCOCC3)c2)c1 (nonaromatic ring conformer: 84.50030187885383 kcal/mol)

>  <smiles>  (31) 
CCn1cc(O)c(=O)cc1CCc1ccc(C)c(NC(=O)c2cccc(S(=O)(=O)N3CCOCC3)c2)c1

>  <score_type>  (31) 
oracle

>  <origin>  (31) 
adg

>  <m_score__min__energy>  (31) 
-15.039999999999999

>  <m_primary>  (31) 
energy

$$$$
31:0
     RDKit          3D

 47 49  0  0  0  0  0  0  0  0999 V2000
   57.3950   33.4560   44.1110 C   0  0  0  0  0  0  0  0  0  0  0  0
   58.2230   33.8140   45.3090 C   0  0  0  0  0  0  0  0  0  0  0  0
   58.0220   33.1570   46.5320 C   0  0  0  0  0  0  0  0  0  0  0  0
   58.7710   33.5180   47.6560 C   0  0  0  0  0  0  0  0  0  0  0  0
   59.7070   34.5550   47.5820 C   0  0  0  0  0  0  0  0  0  0  0  0
   60.4670   34.8870   48.7540 N   0  0  0  0  0  0  0  0  0  0  0  0
   61.2230   33.9740   49.5620 C   0  0  0  0  0  0  0  0  0  0  0  0
   62.0000   34.4430   50.4340 O   0  0  0  0  0  0  0  0  0  0  0  0
   61.1860   32.5100   49.3240 C   0  0  0  0  0  0  0  0  0  0  0  0
   60.3480   31.7250   50.1310 C   0  0  0  0  0  0  0  0  0  0  0  0
   60.2520   30.3870   49.9300 N   0  0  0  0  0  0  0  0  0  0  0  0
   60.9440   29.7530   48.9460 C   0  0  0  0  0  0  0  0  0  0  0  0
   60.8520   28.4640   48.7800 N   0  0  0  0  0  0  0  0  0  0  0  0
   59.7910   27.7540   48.1190 C   0  0  0  0  0  0  0  0  0  0  0  0
   58.8040   28.4890   47.4500 C   0  0  0  0  0  0  0  0  0  0  0  0
   57.7370   27.8380   46.8220 C   0  0  0  0  0  0  0  0  0  0  0  0
   57.6310   26.4420   46.8810 C   0  0  0  0  0  0  0  0  0  0  0  0
   56.2960   25.6170   46.0830 S   0  0  0  0  0  0  0  0  0  0  0  0
   56.8370   25.0070   44.5040 C   0  0  0  0  0  0  0  0  0  0  0  0
   55.1500   26.5700   45.8880 O   0  0  0  0  0  0  0  0  0  0  0  0
   55.8290   24.4700   46.9340 O   0  0  0  0  0  0  0  0  0  0  0  0
   58.6020   25.7040   47.5710 C   0  0  0  0  0  0  0  0  0  0  0  0
   59.6690   26.3540   48.1970 C   0  0  0  0  0  0  0  0  0  0  0  0
   61.8030   30.4870   48.1250 C   0  0  0  0  0  0  0  0  0  0  0  0
   61.9510   31.8760   48.3110 C   0  0  0  0  0  0  0  0  0  0  0  0
   62.9040   32.6490   47.4190 C   0  0  0  0  0  0  0  0  0  0  0  0
   63.6990   33.5130   48.1540 F   0  0  0  0  0  0  0  0  0  0  0  0
   62.1990   33.4080   46.5020 F   0  0  0  0  0  0  0  0  0  0  0  0
   63.7270   31.7640   46.7460 F   0  0  0  0  0  0  0  0  0  0  0  0
   59.9150   35.2090   46.3560 C   0  0  0  0  0  0  0  0  0  0  0  0
   59.1670   34.8500   45.2310 C   0  0  0  0  0  0  0  0  0  0  0  0
   56.4321   33.0397   44.4419 H   0  0  0  0  0  0  0  0  0  0  0  0
   57.2163   34.3573   43.5062 H   0  0  0  0  0  0  0  0  0  0  0  0
   57.9292   32.7085   43.5062 H   0  0  0  0  0  0  0  0  0  0  0  0
   57.2727   32.3552   46.6069 H   0  0  0  0  0  0  0  0  0  0  0  0
   58.6232   32.9827   48.6055 H   0  0  0  0  0  0  0  0  0  0  0  0
   59.7639   32.1990   50.9336 H   0  0  0  0  0  0  0  0  0  0  0  0
   58.8685   29.5867   47.4182 H   0  0  0  0  0  0  0  0  0  0  0  0
   56.9793   28.4234   46.2805 H   0  0  0  0  0  0  0  0  0  0  0  0
   57.5601   24.1917   44.6540 H   0  0  0  0  0  0  0  0  0  0  0  0
   55.9710   24.6299   43.9403 H   0  0  0  0  0  0  0  0  0  0  0  0
   57.3149   25.8218   43.9403 H   0  0  0  0  0  0  0  0  0  0  0  0
   58.5240   24.6079   47.6201 H   0  0  0  0  0  0  0  0  0  0  0  0
   60.4166   25.7691   48.7530 H   0  0  0  0  0  0  0  0  0  0  0  0
   62.3668   29.9783   47.3292 H   0  0  0  0  0  0  0  0  0  0  0  0
   60.6691   36.0063   46.2812 H   0  0  0  0  0  0  0  0  0  0  0  0
   59.3188   35.3818   44.2801 H   0  0  0  0  0  0  0  0  0  0  0  0
  1  2  1  0
  2  3  2  0
  3  4  1  0
  4  5  2  0
  5  6  1  0
  6  7  1  0
  7  8  2  0
  7  9  1  0
  9 10  2  0
 10 11  1  0
 11 12  1  0
 12 13  2  3
 13 14  1  0
 14 15  2  0
 15 16  1  0
 16 17  2  0
 17 18  1  0
 18 19  1  0
 18 20  2  0
 18 21  2  0
 17 22  1  0
 22 23  2  0
 12 24  1  0
 24 25  2  0
 25 26  1  0
 26 27  1  0
 26 28  1  0
 26 29  1  0
  5 30  1  0
 30 31  2  0
 31  2  1  0
 25  9  1  0
 23 14  1  0
  1 32  1  0
  1 33  1  0
  1 34  1  0
  3 35  1  0
  4 36  1  0
 10 37  1  0
 15 38  1  0
 16 39  1  0
 19 40  1  0
 19 41  1  0
 19 42  1  0
 22 43  1  0
 23 44  1  0
 24 45  1  0
 30 46  1  0
 31 47  1  0
M  CHG  2   6  -1  11  -1
M  END
>  <UniqueID>  (32) 
31

>  <SMILES>  (32) 
Cc1ccc([N-]C(=O)c2c[n-]c(=Nc3ccc(S(C)(=O)=O)cc3)cc2C(F)(F)F)cc1

>  <Energy>  (32) 
64.30431360502978

>  <Genealogy>  (32) 
Cc1ccc([N-]C(=O)c2c[n-]c(=Nc3ccc(S(C)(=O)=O)cc3)cc2C(F)(F)F)cc1 (protonated)
Cc1ccc([N-]C(=O)c2c[n-]c(=Nc3ccc(S(C)(=O)=O)cc3)cc2C(F)(F)F)cc1 (3D coordinates assigned)
Cc1ccc([N-]C(=O)c2c[n-]c(=Nc3ccc(S(C)(=O)=O)cc3)cc2C(F)(F)F)cc1 (optimized conformer: 64.30431360502978 kcal/mol)

>  <smiles>  (32) 
Cc1ccc(NC(=O)c2c[nH]c(=Nc3ccc(S(C)(=O)=O)cc3)cc2C(F)(F)F)cc1

>  <score_type>  (32) 
oracle

>  <origin>  (32) 
adg

>  <m_score__min__energy>  (32) 
-11.33

>  <m_primary>  (32) 
energy

$$$$
32:0
     RDKit          3D

 46 48  0  0  0  0  0  0  0  0999 V2000
   56.1240   23.3430   44.7170 C   0  0  0  0  0  0  0  0  0  0  0  0
   56.0190   23.1220   46.2230 C   0  0  0  0  0  0  0  0  0  0  0  0
   55.7360   24.3480   46.8920 O   0  0  0  0  0  0  0  0  0  0  0  0
   55.9520   25.6030   46.3150 C   0  0  0  0  0  0  0  0  0  0  0  0
   54.9790   26.3370   45.9940 O   0  0  0  0  0  0  0  0  0  0  0  0
   57.2890   26.0230   46.0430 N   0  0  0  0  0  0  0  0  0  0  0  0
   57.7980   27.2570   46.4840 N   0  0  0  0  0  0  0  0  0  0  0  0
   57.4450   28.4790   46.0480 C   0  0  0  0  0  0  0  0  0  0  0  0
   56.3810   28.7610   45.0250 C   0  0  0  0  0  0  0  0  0  0  0  0
   56.7620   29.9280   44.1620 C   0  0  0  0  0  0  0  0  0  0  0  0
   56.6920   29.9020   42.7700 C   0  0  0  0  0  0  0  0  0  0  0  0
   57.1280   31.4250   42.1990 S   0  0  0  0  0  0  0  0  0  0  0  0
   57.3780   32.0410   43.7390 C   0  0  0  0  0  0  0  0  0  0  0  0
   57.7650   33.2600   43.9700 N   0  0  0  0  0  0  0  0  0  0  0  0
   58.2000   33.8020   45.2270 C   0  0  0  0  0  0  0  0  0  0  0  0
   57.4060   34.5460   45.8630 O   0  0  0  0  0  0  0  0  0  0  0  0
   59.5580   33.5070   45.8110 C   0  0  0  0  0  0  0  0  0  0  0  0
   59.5800   33.7310   47.5850 S   0  0  0  0  0  0  0  0  0  0  0  0
   59.1350   35.1320   47.9030 O   0  0  0  0  0  0  0  0  0  0  0  0
   58.6330   32.7720   48.2500 O   0  0  0  0  0  0  0  0  0  0  0  0
   61.2120   33.4760   48.1960 C   0  0  0  0  0  0  0  0  0  0  0  0
   62.1510   32.7680   47.4330 C   0  0  0  0  0  0  0  0  0  0  0  0
   63.4370   32.5410   47.9330 C   0  0  0  0  0  0  0  0  0  0  0  0
   63.7910   33.0190   49.1980 C   0  0  0  0  0  0  0  0  0  0  0  0
   65.5390   32.6870   49.8890 Br  0  0  0  0  0  0  0  0  0  0  0  0
   62.8580   33.7290   49.9620 C   0  0  0  0  0  0  0  0  0  0  0  0
   61.5720   33.9570   49.4630 C   0  0  0  0  0  0  0  0  0  0  0  0
   57.1590   31.1150   44.6970 N   0  0  0  0  0  0  0  0  0  0  0  0
   58.1820   29.4350   46.6490 N   0  0  0  0  0  0  0  0  0  0  0  0
   59.0230   28.8200   47.4740 N   0  0  0  0  0  0  0  0  0  0  0  0
   58.7800   27.5000   47.3690 C   0  0  0  0  0  0  0  0  0  0  0  0
   59.6660   26.3570   48.1340 S   0  0  0  0  0  0  0  0  0  0  0  0
   56.5885   24.3207   44.5214 H   0  0  0  0  0  0  0  0  0  0  0  0
   56.7408   22.5484   44.2719 H   0  0  0  0  0  0  0  0  0  0  0  0
   55.1183   23.3192   44.2719 H   0  0  0  0  0  0  0  0  0  0  0  0
   55.2112   22.4039   46.4274 H   0  0  0  0  0  0  0  0  0  0  0  0
   56.9787   22.7306   46.5914 H   0  0  0  0  0  0  0  0  0  0  0  0
   56.2474   27.8725   44.3904 H   0  0  0  0  0  0  0  0  0  0  0  0
   55.4451   29.0034   45.5498 H   0  0  0  0  0  0  0  0  0  0  0  0
   56.4028   29.0384   42.1530 H   0  0  0  0  0  0  0  0  0  0  0  0
   59.8264   32.4655   45.5801 H   0  0  0  0  0  0  0  0  0  0  0  0
   60.2805   34.2085   45.3685 H   0  0  0  0  0  0  0  0  0  0  0  0
   61.8752   32.3897   46.4376 H   0  0  0  0  0  0  0  0  0  0  0  0
   64.1708   31.9857   47.3303 H   0  0  0  0  0  0  0  0  0  0  0  0
   63.1367   34.1081   50.9563 H   0  0  0  0  0  0  0  0  0  0  0  0
   60.8407   34.5152   50.0659 H   0  0  0  0  0  0  0  0  0  0  0  0
  1  2  1  0
  2  3  1  0
  3  4  1  0
  4  5  2  0
  4  6  1  0
  6  7  1  0
  7  8  1  0
  8  9  1  0
  9 10  1  0
 10 11  2  0
 11 12  1  0
 12 13  1  0
 13 14  2  3
 14 15  1  0
 15 16  2  0
 15 17  1  0
 17 18  1  0
 18 19  2  0
 18 20  2  0
 18 21  1  0
 21 22  2  0
 22 23  1  0
 23 24  2  0
 24 25  1  0
 24 26  1  0
 26 27  2  0
 13 28  1  0
  8 29  2  0
 29 30  1  0
 30 31  1  0
 31 32  2  0
 31  7  1  0
 28 10  1  0
 27 21  1  0
  1 33  1  0
  1 34  1  0
  1 35  1  0
  2 36  1  0
  2 37  1  0
  9 38  1  0
  9 39  1  0
 11 40  1  0
 17 41  1  0
 17 42  1  0
 22 43  1  0
 23 44  1  0
 26 45  1  0
 27 46  1  0
M  CHG  3   6  -1  28  -1  30  -1
M  END
>  <UniqueID>  (33) 
32

>  <SMILES>  (33) 
CCOC(=O)[N-]n1c(Cc2csc(=NC(=O)CS(=O)(=O)c3ccc(Br)cc3)[n-]2)n[n-]c1=S

>  <Energy>  (33) 
109.60535312230245

>  <Genealogy>  (33) 
CCOC(=O)[N-]n1c(Cc2csc(=NC(=O)CS(=O)(=O)c3ccc(Br)cc3)[n-]2)n[n-]c1=S (protonated)
CCOC(=O)[N-]n1c(Cc2csc(=NC(=O)CS(=O)(=O)c3ccc(Br)cc3)[n-]2)n[n-]c1=S (3D coordinates assigned)
CCOC(=O)[N-]n1c(Cc2csc(=NC(=O)CS(=O)(=O)c3ccc(Br)cc3)[n-]2)n[n-]c1=S (optimized conformer: 109.60535312230245 kcal/mol)

>  <smiles>  (33) 
CCOC(=O)Nn1c(Cc2csc(=NC(=O)CS(=O)(=O)c3ccc(Br)cc3)[nH]2)n[nH]c1=S

>  <score_type>  (33) 
oracle

>  <origin>  (33) 
adg

>  <m_score__min__energy>  (33) 
-14.58

>  <m_primary>  (33) 
energy

$$$$
33:0
     RDKit          3D

 54 57  0  0  0  0  0  0  0  0999 V2000
   57.4420   28.0560   44.5790 C   0  0  0  0  0  0  0  0  0  0  0  0
   57.9220   27.2030   45.4980 C   0  0  0  0  0  0  0  0  0  0  0  0
   57.7860   25.8060   45.5120 C   0  0  0  0  0  0  0  0  0  0  0  0
   56.9910   24.9880   44.7950 C   0  0  0  0  0  0  0  0  0  0  0  0
   55.6380   24.5540   45.1790 C   0  0  0  0  0  0  0  0  0  0  0  0
   55.1230   23.3360   44.9290 N   0  0  0  0  0  0  0  0  0  0  0  0
   53.8370   23.4540   45.3280 C   0  0  0  0  0  0  0  0  0  0  0  0
   53.0190   22.5010   45.2660 O   0  0  0  0  0  0  0  0  0  0  0  0
   53.4960   24.6770   45.7890 N   0  0  0  0  0  0  0  0  0  0  0  0
   54.6450   25.3630   45.6730 C   0  0  0  0  0  0  0  0  0  0  0  0
   54.7790   26.7060   46.0050 O   0  0  0  0  0  0  0  0  0  0  0  0
   58.6610   25.3410   46.4810 C   0  0  0  0  0  0  0  0  0  0  0  0
   59.2320   26.4510   47.0700 C   0  0  0  0  0  0  0  0  0  0  0  0
   60.2450   26.4080   48.1730 C   0  0  0  0  0  0  0  0  0  0  0  0
   58.7800   27.5790   46.4800 N   0  0  0  0  0  0  0  0  0  0  0  0
   59.2140   28.9150   46.7890 C   0  0  0  0  0  0  0  0  0  0  0  0
   58.5690   29.6390   47.8010 C   0  0  0  0  0  0  0  0  0  0  0  0
   58.9820   30.9360   48.1130 C   0  0  0  0  0  0  0  0  0  0  0  0
   60.0540   31.5250   47.4260 C   0  0  0  0  0  0  0  0  0  0  0  0
   60.4880   32.9030   47.7460 C   0  0  0  0  0  0  0  0  0  0  0  0
   59.7830   33.8750   47.3590 O   0  0  0  0  0  0  0  0  0  0  0  0
   61.7000   33.1560   48.4820 N   0  0  0  0  0  0  0  0  0  0  0  0
   62.9200   32.4020   48.1510 C   0  0  0  0  0  0  0  0  0  0  0  0
   64.1830   33.1220   48.6370 C   0  0  0  0  0  0  0  0  0  0  0  0
   64.0320   33.5410   50.0400 N   0  0  0  0  0  0  0  0  0  0  0  0
   65.1520   33.5330   50.9510 C   0  0  0  0  0  0  0  0  0  0  0  0
   66.5580   33.3260   50.4730 C   0  0  0  0  0  0  0  0  0  0  0  0
   64.9550   33.6900   52.1870 O   0  0  0  0  0  0  0  0  0  0  0  0
   62.7460   34.0830   50.5090 C   0  0  0  0  0  0  0  0  0  0  0  0
   61.7760   34.3350   49.3510 C   0  0  0  0  0  0  0  0  0  0  0  0
   60.6850   30.8080   46.3960 C   0  0  0  0  0  0  0  0  0  0  0  0
   60.2740   29.5090   46.0800 C   0  0  0  0  0  0  0  0  0  0  0  0
   61.0800   28.6520   44.7720 Cl  0  0  0  0  0  0  0  0  0  0  0  0
   57.6197   29.1363   44.6854 H   0  0  0  0  0  0  0  0  0  0  0  0
   56.8711   27.6745   43.7196 H   0  0  0  0  0  0  0  0  0  0  0  0
   57.3873   24.6120   43.8402 H   0  0  0  0  0  0  0  0  0  0  0  0
   58.8619   24.2891   46.7324 H   0  0  0  0  0  0  0  0  0  0  0  0
   59.7301   26.4299   49.1448 H   0  0  0  0  0  0  0  0  0  0  0  0
   60.8362   25.4840   48.0920 H   0  0  0  0  0  0  0  0  0  0  0  0
   60.9124   27.2786   48.0920 H   0  0  0  0  0  0  0  0  0  0  0  0
   57.7333   29.1833   48.3523 H   0  0  0  0  0  0  0  0  0  0  0  0
   58.4634   31.4995   48.9026 H   0  0  0  0  0  0  0  0  0  0  0  0
   62.8679   31.4126   48.6289 H   0  0  0  0  0  0  0  0  0  0  0  0
   62.9787   32.3095   47.0565 H   0  0  0  0  0  0  0  0  0  0  0  0
   65.0425   32.4406   48.5535 H   0  0  0  0  0  0  0  0  0  0  0  0
   64.3441   34.0150   48.0152 H   0  0  0  0  0  0  0  0  0  0  0  0
   67.2289   33.2272   51.3391 H   0  0  0  0  0  0  0  0  0  0  0  0
   66.6075   32.4109   49.8646 H   0  0  0  0  0  0  0  0  0  0  0  0
   66.8691   34.1880   49.8646 H   0  0  0  0  0  0  0  0  0  0  0  0
   62.2896   33.3638   51.2051 H   0  0  0  0  0  0  0  0  0  0  0  0
   62.9421   35.0451   51.0049 H   0  0  0  0  0  0  0  0  0  0  0  0
   60.7765   34.5518   49.7560 H   0  0  0  0  0  0  0  0  0  0  0  0
   62.1385   35.1900   48.7615 H   0  0  0  0  0  0  0  0  0  0  0  0
   61.5088   31.2718   45.8336 H   0  0  0  0  0  0  0  0  0  0  0  0
  1  2  2  0
  2  3  1  0
  3  4  2  3
  4  5  1  0
  5  6  1  0
  6  7  1  0
  7  8  2  0
  7  9  1  0
  9 10  1  0
 10 11  1  0
  3 12  1  0
 12 13  2  0
 13 14  1  0
 13 15  1  0
 15 16  1  0
 16 17  2  0
 17 18  1  0
 18 19  2  0
 19 20  1  0
 20 21  2  0
 20 22  1  0
 22 23  1  0
 23 24  1  0
 24 25  1  0
 25 26  1  0
 26 27  1  0
 26 28  2  0
 25 29  1  0
 29 30  1  0
 19 31  1  0
 31 32  2  0
 32 33  1  0
 15  2  1  0
 32 16  1  0
 10  5  2  0
 30 22  1  0
  1 34  1  0
  1 35  1  0
  4 36  1  0
 12 37  1  0
 14 38  1  0
 14 39  1  0
 14 40  1  0
 17 41  1  0
 18 42  1  0
 23 43  1  0
 23 44  1  0
 24 45  1  0
 24 46  1  0
 27 47  1  0
 27 48  1  0
 27 49  1  0
 29 50  1  0
 29 51  1  0
 30 52  1  0
 30 53  1  0
 31 54  1  0
M  CHG  3   6  -1   9  -1  11  -1
M  END
>  <UniqueID>  (34) 
33

>  <SMILES>  (34) 
C=c1c(=Cc2[n-]c(=O)[n-]c2[O-])cc(C)n1-c1ccc(C(=O)N2CCN(C(C)=O)CC2)cc1Cl

>  <Energy>  (34) 
136.0821270315193

>  <Genealogy>  (34) 
C=c1c(=Cc2[n-]c(=O)[n-]c2[O-])cc(C)n1-c1ccc(C(=O)N2CCN(C(C)=O)CC2)cc1Cl (protonated)
C=c1c(=Cc2[n-]c(=O)[n-]c2[O-])cc(C)n1-c1ccc(C(=O)N2CCN(C(C)=O)CC2)cc1Cl (3D coordinates assigned)
C=c1c(=Cc2[n-]c(=O)[n-]c2[O-])cc(C)n1-c1ccc(C(=O)N2CCN(C(C)=O)CC2)cc1Cl (nonaromatic ring conformer: 136.0821270315193 kcal/mol)

>  <smiles>  (34) 
C=c1c(=Cc2[nH]c(=O)[nH]c2O)cc(C)n1-c1ccc(C(=O)N2CCN(C(C)=O)CC2)cc1Cl

>  <score_type>  (34) 
oracle

>  <origin>  (34) 
adg

>  <m_score__min__energy>  (34) 
-15.81

>  <m_primary>  (34) 
energy

$$$$
34:0
     RDKit          3D

 38 40  0  0  0  0  0  0  0  0999 V2000
   64.5190   32.1550   47.1190 H   0  0  0  0  0  0  0  0  0  0  0  0
   64.1690   33.0910   46.9570 O   0  0  0  0  0  0  0  0  0  0  0  0
   62.8300   33.3950   47.1720 C   0  0  0  0  0  0  0  0  0  0  0  0
   62.1230   34.2270   46.3850 N   0  0  0  0  0  0  0  0  0  0  0  0
   60.8880   34.2490   46.9290 C   0  0  0  0  0  0  0  0  0  0  0  0
   59.7790   35.0400   46.3800 C   0  0  0  0  0  0  0  0  0  0  0  0
   59.9830   36.2230   45.9980 O   0  0  0  0  0  0  0  0  0  0  0  0
   58.4870   34.4360   46.2370 N   0  0  0  0  0  0  0  0  0  0  0  0
   58.2010   33.1590   45.6490 C   0  0  0  0  0  0  0  0  0  0  0  0
   58.0530   32.0510   46.4840 C   0  0  0  0  0  0  0  0  0  0  0  0
   58.1817   32.1630   47.5707 H   0  0  0  0  0  0  0  0  0  0  0  0
   57.7510   30.8360   45.9610 N   0  0  0  0  0  0  0  0  0  0  0  0
   57.5740   30.6360   44.6240 C   0  0  0  0  0  0  0  0  0  0  0  0
   57.2720   29.4550   44.1610 N   0  0  0  0  0  0  0  0  0  0  0  0
   57.7060   28.1830   44.6670 C   0  0  0  0  0  0  0  0  0  0  0  0
   58.8050   27.6820   44.2990 O   0  0  0  0  0  0  0  0  0  0  0  0
   56.8600   27.4960   45.6030 N   0  0  0  0  0  0  0  0  0  0  0  0
   56.8090   26.2120   45.8210 C   0  0  0  0  0  0  0  0  0  0  0  0
   57.9440   25.4560   45.8630 N   0  0  0  0  0  0  0  0  0  0  0  0
   57.9090   24.1150   46.0900 C   0  0  0  0  0  0  0  0  0  0  0  0
   58.8449   23.5376   46.1166 H   0  0  0  0  0  0  0  0  0  0  0  0
   56.6880   23.4720   46.2890 C   0  0  0  0  0  0  0  0  0  0  0  0
   56.6539   22.3881   46.4731 H   0  0  0  0  0  0  0  0  0  0  0  0
   55.5090   24.2190   46.2520 C   0  0  0  0  0  0  0  0  0  0  0  0
   54.5385   23.7248   46.4067 H   0  0  0  0  0  0  0  0  0  0  0  0
   55.5640   25.5960   46.0180 C   0  0  0  0  0  0  0  0  0  0  0  0
   54.3890   26.3380   45.9820 O   0  0  0  0  0  0  0  0  0  0  0  0
   57.7120   31.7280   43.7370 C   0  0  0  0  0  0  0  0  0  0  0  0
   57.4730   31.5870   42.2540 C   0  0  0  0  0  0  0  0  0  0  0  0
   58.3674   31.1442   41.7914 H   0  0  0  0  0  0  0  0  0  0  0  0
   57.2370   32.8250   41.6830 F   0  0  0  0  0  0  0  0  0  0  0  0
   56.3760   30.7710   42.0410 F   0  0  0  0  0  0  0  0  0  0  0  0
   58.0000   32.9960   44.2700 C   0  0  0  0  0  0  0  0  0  0  0  0
   58.0683   33.8668   43.6014 H   0  0  0  0  0  0  0  0  0  0  0  0
   60.8190   33.4370   48.0480 C   0  0  0  0  0  0  0  0  0  0  0  0
   59.9393   33.2651   48.6856 H   0  0  0  0  0  0  0  0  0  0  0  0
   62.0710   32.8880   48.2030 C   0  0  0  0  0  0  0  0  0  0  0  0
   62.3977   32.1894   48.9874 H   0  0  0  0  0  0  0  0  0  0  0  0
  1  2  1  0
  2  3  1  0
  3  4  1  0
  4  5  1  0
  5  6  1  0
  6  7  2  0
  6  8  1  0
  8  9  1  0
  9 10  2  0
 10 11  1  0
 10 12  1  0
 12 13  1  0
 13 14  2  0
 14 15  1  0
 15 16  2  0
 15 17  1  0
 17 18  2  0
 18 19  1  0
 19 20  1  0
 20 21  1  0
 20 22  2  0
 22 23  1  0
 22 24  1  0
 24 25  1  0
 24 26  2  0
 26 27  1  0
 13 28  1  0
 28 29  1  0
 29 30  1  0
 29 31  1  0
 29 32  1  0
 28 33  2  0
 33 34  1  0
  5 35  2  0
 35 36  1  0
 35 37  1  0
 37 38  1  0
 37  3  2  0
 33  9  1  0
 26 18  1  0
M  CHG  5   4  -1   8  -1  12  -1  19  -1  27  -1
M  END
>  <UniqueID>  (35) 
34

>  <SMILES>  (35) 
O=C(/N=c1\[n-]cccc1[O-])/N=c1\[n-]cc([N-]C(=O)c2ccc(O)[n-]2)cc1C(F)F

>  <Energy>  (35) 
75.77853075215528

>  <Genealogy>  (35) 
O=C(N=c1[n-]cccc1[O-])N=c1[n-]cc([N-]C(=O)c2ccc(O)[n-]2)cc1C(F)F (protonated)
O=C(/N=c1\[n-]cccc1[O-])/N=c1\[n-]cc([N-]C(=O)c2ccc(O)[n-]2)cc1C(F)F (cis-trans isomerization)
O=C(/N=c1\[n-]cccc1[O-])/N=c1\[n-]cc([N-]C(=O)c2ccc(O)[n-]2)cc1C(F)F (3D coordinates assigned)
O=C(/N=c1\[n-]cccc1[O-])/N=c1\[n-]cc([N-]C(=O)c2ccc(O)[n-]2)cc1C(F)F (optimized conformer: 75.77853075215528 kcal/mol)

>  <smiles>  (35) 
O=C(N=c1[nH]cccc1O)N=c1[nH]cc(NC(=O)c2ccc(O)[nH]2)cc1C(F)F

>  <score_type>  (35) 
oracle

>  <origin>  (35) 
adg

>  <m_score__min__energy>  (35) 
-16.129999999999999

>  <m_primary>  (35) 
energy

$$$$
35:0
     RDKit          3D

 56 59  0  0  0  0  0  0  0  0999 V2000
   59.2680   34.5840   46.7670 C   0  0  0  0  0  0  0  0  0  0  0  0
   58.9780   33.7050   45.6410 N   0  0  0  0  0  0  0  0  0  0  0  0
   57.6910   33.1400   45.3610 C   0  0  0  0  0  0  0  0  0  0  0  0
   56.6900   33.9010   45.3160 O   0  0  0  0  0  0  0  0  0  0  0  0
   57.5130   31.7100   45.0680 C   0  0  0  0  0  0  0  0  0  0  0  0
   58.5000   30.7700   45.4040 C   0  0  0  0  0  0  0  0  0  0  0  0
   58.2920   29.4100   45.1130 C   0  0  0  0  0  0  0  0  0  0  0  0
   59.2390   28.4000   45.5030 N   0  0  0  0  0  0  0  0  0  0  0  0
   59.6770   28.1690   46.8520 C   0  0  0  0  0  0  0  0  0  0  0  0
   59.6000   29.1940   47.8100 C   0  0  0  0  0  0  0  0  0  0  0  0
   60.1210   29.0120   49.1080 C   0  0  0  0  0  0  0  0  0  0  0  0
   60.1010   30.0930   50.0740 N   0  0  0  0  0  0  0  0  0  0  0  0
   60.9810   31.2640   49.9260 C   0  0  0  0  0  0  0  0  0  0  0  0
   60.4100   32.5060   50.6300 C   0  0  0  0  0  0  0  0  0  0  0  0
   59.0100   32.9000   50.1410 C   0  0  0  0  0  0  0  0  0  0  0  0
   57.9890   32.3060   51.0170 N   0  0  0  0  0  0  0  0  0  0  0  0
   57.8710   30.8450   50.8780 C   0  0  0  0  0  0  0  0  0  0  0  0
   59.1670   30.0900   51.2130 C   0  0  0  0  0  0  0  0  0  0  0  0
   60.7250   27.7790   49.4220 C   0  0  0  0  0  0  0  0  0  0  0  0
   60.7870   26.7530   48.4780 C   0  0  0  0  0  0  0  0  0  0  0  0
   60.2560   26.9340   47.1940 C   0  0  0  0  0  0  0  0  0  0  0  0
   60.3280   25.8930   46.2110 N   0  0  0  0  0  0  0  0  0  0  0  0
   59.3780   24.8310   46.0400 C   0  0  0  0  0  0  0  0  0  0  0  0
   59.7870   23.7160   45.6190 O   0  0  0  0  0  0  0  0  0  0  0  0
   57.9330   25.0260   46.2750 C   0  0  0  0  0  0  0  0  0  0  0  0
   57.0980   24.2540   47.0660 C   0  0  0  0  0  0  0  0  0  0  0  0
   55.8450   24.7530   47.0690 N   0  0  0  0  0  0  0  0  0  0  0  0
   55.9020   25.8460   46.2860 C   0  0  0  0  0  0  0  0  0  0  0  0
   54.8020   26.6560   46.0300 O   0  0  0  0  0  0  0  0  0  0  0  0
   57.1650   26.0570   45.7790 C   0  0  0  0  0  0  0  0  0  0  0  0
   57.0860   29.0210   44.5110 C   0  0  0  0  0  0  0  0  0  0  0  0
   56.1210   29.9830   44.2110 C   0  0  0  0  0  0  0  0  0  0  0  0
   56.3510   31.2900   44.4970 N   0  0  0  0  0  0  0  0  0  0  0  0
   59.0899   34.0443   47.7088 H   0  0  0  0  0  0  0  0  0  0  0  0
   60.3194   34.9041   46.7210 H   0  0  0  0  0  0  0  0  0  0  0  0
   58.6135   35.4669   46.7210 H   0  0  0  0  0  0  0  0  0  0  0  0
   59.4306   31.0953   45.8920 H   0  0  0  0  0  0  0  0  0  0  0  0
   59.5960   27.7510   44.7650 H   0  0  0  0  0  0  0  0  0  0  0  0
   59.1272   30.1510   47.5442 H   0  0  0  0  0  0  0  0  0  0  0  0
   61.9626   31.0281   50.3627 H   0  0  0  0  0  0  0  0  0  0  0  0
   61.0671   31.4910   48.8531 H   0  0  0  0  0  0  0  0  0  0  0  0
   60.3562   32.3001   51.7092 H   0  0  0  0  0  0  0  0  0  0  0  0
   61.0812   33.3458   50.3973 H   0  0  0  0  0  0  0  0  0  0  0  0
   58.9126   33.9955   50.1578 H   0  0  0  0  0  0  0  0  0  0  0  0
   58.8670   32.5300   49.1150 H   0  0  0  0  0  0  0  0  0  0  0  0
   58.2530   32.5020   52.0120 H   0  0  0  0  0  0  0  0  0  0  0  0
   57.0786   30.4938   51.5553 H   0  0  0  0  0  0  0  0  0  0  0  0
   57.6401   30.6383   49.8226 H   0  0  0  0  0  0  0  0  0  0  0  0
   59.6510   30.5744   52.0739 H   0  0  0  0  0  0  0  0  0  0  0  0
   58.9091   29.0464   51.4462 H   0  0  0  0  0  0  0  0  0  0  0  0
   61.1530   27.6228   50.4232 H   0  0  0  0  0  0  0  0  0  0  0  0
   61.2565   25.7945   48.7441 H   0  0  0  0  0  0  0  0  0  0  0  0
   57.4140   23.3559   47.6169 H   0  0  0  0  0  0  0  0  0  0  0  0
   57.4911   26.8742   45.1189 H   0  0  0  0  0  0  0  0  0  0  0  0
   56.9020   27.9621   44.2765 H   0  0  0  0  0  0  0  0  0  0  0  0
   55.1726   29.6820   43.7421 H   0  0  0  0  0  0  0  0  0  0  0  0
  1  2  1  0
  2  3  1  0
  3  4  2  0
  3  5  1  0
  5  6  2  0
  6  7  1  0
  7  8  1  0
  8  9  1  0
  9 10  2  0
 10 11  1  0
 11 12  1  0
 12 13  1  0
 13 14  1  0
 14 15  1  0
 15 16  1  0
 16 17  1  0
 17 18  1  0
 11 19  2  0
 19 20  1  0
 20 21  2  0
 21 22  1  0
 22 23  1  0
 23 24  2  0
 23 25  1  0
 25 26  2  0
 26 27  1  0
 27 28  1  0
 28 29  1  0
 28 30  2  0
  7 31  2  0
 31 32  1  0
 32 33  2  0
 33  5  1  0
 21  9  1  0
 30 25  1  0
 18 12  1  0
  1 34  1  0
  1 35  1  0
  1 36  1  0
  6 37  1  0
  8 38  1  0
 10 39  1  0
 13 40  1  0
 13 41  1  0
 14 42  1  0
 14 43  1  0
 15 44  1  0
 15 45  1  0
 16 46  1  0
 17 47  1  0
 17 48  1  0
 18 49  1  0
 18 50  1  0
 19 51  1  0
 20 52  1  0
 26 53  1  0
 30 54  1  0
 31 55  1  0
 32 56  1  0
M  CHG  4   2  -1  22  -1  27  -1  29  -1
M  END
>  <UniqueID>  (36) 
35

>  <SMILES>  (36) 
C[N-]C(=O)c1cc(Nc2cc(N3CCCNCC3)ccc2[N-]C(=O)c2c[n-]c([O-])c2)ccn1

>  <Energy>  (36) 
105.01300104361236

>  <Genealogy>  (36) 
C[N-]C(=O)c1cc(Nc2cc(N3CCCNCC3)ccc2[N-]C(=O)c2c[n-]c([O-])c2)ccn1 (protonated)
C[N-]C(=O)c1cc(Nc2cc(N3CCCNCC3)ccc2[N-]C(=O)c2c[n-]c([O-])c2)ccn1 (3D coordinates assigned)
C[N-]C(=O)c1cc(Nc2cc(N3CCCNCC3)ccc2[N-]C(=O)c2c[n-]c([O-])c2)ccn1 (nonaromatic ring conformer: 105.01300104361236 kcal/mol)

>  <smiles>  (36) 
CNC(=O)c1cc(Nc2cc(N3CCCNCC3)ccc2NC(=O)c2c[nH]c(O)c2)ccn1

>  <score_type>  (36) 
oracle

>  <origin>  (36) 
adg

>  <m_score__min__energy>  (36) 
-14.1

>  <m_primary>  (36) 
energy

$$$$
36:0
     RDKit          3D

 47 49  0  0  0  0  0  0  0  0999 V2000
   54.7150   27.4750   46.3840 H   0  0  0  0  0  0  0  0  0  0  0  0
   55.0220   26.5590   46.0880 O   0  0  0  0  0  0  0  0  0  0  0  0
   56.3670   26.1970   45.9750 C   0  0  0  0  0  0  0  0  0  0  0  0
   56.6960   24.8480   46.1550 C   0  0  0  0  0  0  0  0  0  0  0  0
   55.8972   24.1077   46.3095 H   0  0  0  0  0  0  0  0  0  0  0  0
   58.0280   24.4350   46.1400 C   0  0  0  0  0  0  0  0  0  0  0  0
   58.2756   23.3724   46.2798 H   0  0  0  0  0  0  0  0  0  0  0  0
   59.0460   25.3680   45.9480 C   0  0  0  0  0  0  0  0  0  0  0  0
   60.0972   25.0443   45.9597 H   0  0  0  0  0  0  0  0  0  0  0  0
   58.7330   26.7120   45.7410 C   0  0  0  0  0  0  0  0  0  0  0  0
   59.5423   27.4418   45.5909 H   0  0  0  0  0  0  0  0  0  0  0  0
   57.3930   27.1450   45.7220 C   0  0  0  0  0  0  0  0  0  0  0  0
   57.1090   28.5580   45.3840 C   0  0  0  0  0  0  0  0  0  0  0  0
   58.0490   29.3940   45.2990 O   0  0  0  0  0  0  0  0  0  0  0  0
   55.7570   28.9930   45.2230 N   0  0  0  0  0  0  0  0  0  0  0  0
   55.3840   30.1240   44.3820 C   0  0  0  0  0  0  0  0  0  0  0  0
   55.2986   31.0268   45.0047 H   0  0  0  0  0  0  0  0  0  0  0  0
   54.4201   29.9078   43.8980 H   0  0  0  0  0  0  0  0  0  0  0  0
   56.4430   30.3540   43.3020 C   0  0  0  0  0  0  0  0  0  0  0  0
   55.9365   30.6250   42.3639 H   0  0  0  0  0  0  0  0  0  0  0  0
   57.0199   29.4233   43.1972 H   0  0  0  0  0  0  0  0  0  0  0  0
   57.4060   31.4480   43.6620 C   0  0  0  0  0  0  0  0  0  0  0  0
   58.3990   31.6600   42.9150 O   0  0  0  0  0  0  0  0  0  0  0  0
   57.2590   32.1400   44.8720 O   0  0  0  0  0  0  0  0  0  0  0  0
   58.1250   33.1310   45.3610 C   0  0  0  0  0  0  0  0  0  0  0  0
   58.3880   34.3090   44.6340 C   0  0  0  0  0  0  0  0  0  0  0  0
   57.9239   34.4572   43.6478 H   0  0  0  0  0  0  0  0  0  0  0  0
   59.2340   35.2900   45.1570 C   0  0  0  0  0  0  0  0  0  0  0  0
   59.4447   36.2001   44.5762 H   0  0  0  0  0  0  0  0  0  0  0  0
   59.8120   35.1170   46.4150 C   0  0  0  0  0  0  0  0  0  0  0  0
   60.4799   35.8897   46.8234 H   0  0  0  0  0  0  0  0  0  0  0  0
   59.5440   33.9650   47.1560 C   0  0  0  0  0  0  0  0  0  0  0  0
   59.9913   33.8402   48.1532 H   0  0  0  0  0  0  0  0  0  0  0  0
   58.7060   32.9630   46.6360 C   0  0  0  0  0  0  0  0  0  0  0  0
   58.4000   31.7450   47.4760 C   0  0  0  0  0  0  0  0  0  0  0  0
   57.7850   31.0494   46.8862 H   0  0  0  0  0  0  0  0  0  0  0  0
   57.8634   32.0739   48.3781 H   0  0  0  0  0  0  0  0  0  0  0  0
   59.6620   31.0390   47.9070 C   0  0  0  0  0  0  0  0  0  0  0  0
   59.8880   29.8700   47.4950 O   0  0  0  0  0  0  0  0  0  0  0  0
   60.6200   31.6520   48.7820 N   0  0  0  0  0  0  0  0  0  0  0  0
   61.7110   32.2690   48.4350 C   0  0  0  0  0  0  0  0  0  0  0  0
   62.1280   33.4420   48.9600 N   0  0  0  0  0  0  0  0  0  0  0  0
   63.2770   33.8690   48.3720 C   0  0  0  0  0  0  0  0  0  0  0  0
   63.7795   34.8019   48.6675 H   0  0  0  0  0  0  0  0  0  0  0  0
   63.7710   33.0410   47.3700 C   0  0  0  0  0  0  0  0  0  0  0  0
   64.6827   33.2147   46.7796 H   0  0  0  0  0  0  0  0  0  0  0  0
   62.7300   31.7260   47.2180 S   0  0  0  0  0  0  0  0  0  0  0  0
  1  2  1  0
  2  3  1  0
  3  4  2  0
  4  5  1  0
  4  6  1  0
  6  7  1  0
  6  8  2  0
  8  9  1  0
  8 10  1  0
 10 11  1  0
 10 12  2  0
 12 13  1  0
 13 14  2  0
 13 15  1  0
 15 16  1  0
 16 17  1  0
 16 18  1  0
 16 19  1  0
 19 20  1  0
 19 21  1  0
 19 22  1  0
 22 23  2  0
 22 24  1  0
 24 25  1  0
 25 26  2  0
 26 27  1  0
 26 28  1  0
 28 29  1  0
 28 30  2  0
 30 31  1  0
 30 32  1  0
 32 33  1  0
 32 34  2  0
 34 35  1  0
 35 36  1  0
 35 37  1  0
 35 38  1  0
 38 39  2  0
 38 40  1  0
 40 41  2  0
 41 42  1  0
 42 43  1  0
 43 44  1  0
 43 45  2  0
 45 46  1  0
 45 47  1  0
 12  3  1  0
 34 25  1  0
 47 41  1  0
M  CHG  2  15  -1  42  -1
M  END
>  <UniqueID>  (37) 
36

>  <SMILES>  (37) 
O=C(Cc1ccccc1OC(=O)CC[N-]C(=O)c1ccccc1O)/N=c1\[n-]ccs1

>  <Energy>  (37) 
82.5348788061346

>  <Genealogy>  (37) 
O=C(Cc1ccccc1OC(=O)CC[N-]C(=O)c1ccccc1O)N=c1[n-]ccs1 (protonated)
O=C(Cc1ccccc1OC(=O)CC[N-]C(=O)c1ccccc1O)/N=c1\[n-]ccs1 (cis-trans isomerization)
O=C(Cc1ccccc1OC(=O)CC[N-]C(=O)c1ccccc1O)/N=c1\[n-]ccs1 (3D coordinates assigned)
O=C(Cc1ccccc1OC(=O)CC[N-]C(=O)c1ccccc1O)/N=c1\[n-]ccs1 (optimized conformer: 82.5348788061346 kcal/mol)

>  <smiles>  (37) 
O=C(Cc1ccccc1OC(=O)CCNC(=O)c1ccccc1O)N=c1[nH]ccs1

>  <score_type>  (37) 
oracle

>  <origin>  (37) 
adg

>  <m_score__min__energy>  (37) 
-12.75

>  <m_primary>  (37) 
energy

$$$$
37:0
     RDKit          3D

 57 61  0  0  0  0  0  0  0  0999 V2000
   55.1610   27.4720   45.3660 H   0  0  0  0  0  0  0  0  0  0  0  0
   54.9950   26.7020   46.0000 O   0  0  0  0  0  0  0  0  0  0  0  0
   55.9410   25.7000   46.1910 C   0  0  0  0  0  0  0  0  0  0  0  0
   55.6670   24.5320   46.7950 N   0  0  0  0  0  0  0  0  0  0  0  0
   56.8660   23.9140   46.8090 C   0  0  0  0  0  0  0  0  0  0  0  0
   57.0330   22.7710   47.3120 O   0  0  0  0  0  0  0  0  0  0  0  0
   57.8750   24.6200   46.2560 N   0  0  0  0  0  0  0  0  0  0  0  0
   57.2750   25.7460   45.8360 C   0  0  0  0  0  0  0  0  0  0  0  0
   58.0040   26.8800   45.2490 C   0  0  0  0  0  0  0  0  0  0  0  0
   58.1445   26.8740   44.1580 H   0  0  0  0  0  0  0  0  0  0  0  0
   58.5160   27.9270   45.9280 C   0  0  0  0  0  0  0  0  0  0  0  0
   57.8370   29.1240   46.0660 C   0  0  0  0  0  0  0  0  0  0  0  0
   56.8189   29.3452   45.7132 H   0  0  0  0  0  0  0  0  0  0  0  0
   58.6810   29.9850   46.7300 C   0  0  0  0  0  0  0  0  0  0  0  0
   58.3500   31.3850   47.0260 C   0  0  0  0  0  0  0  0  0  0  0  0
   58.4760   31.8210   48.2010 O   0  0  0  0  0  0  0  0  0  0  0  0
   57.9470   32.2700   45.9830 N   0  0  0  0  0  0  0  0  0  0  0  0
   57.8910   32.2730   44.5080 C   0  0  0  0  0  0  0  0  0  0  0  0
   58.8699   32.0790   44.0452 H   0  0  0  0  0  0  0  0  0  0  0  0
   57.2610   31.5095   44.0282 H   0  0  0  0  0  0  0  0  0  0  0  0
   57.4600   33.6960   44.3710 C   0  0  0  0  0  0  0  0  0  0  0  0
   58.1776   34.3632   43.8711 H   0  0  0  0  0  0  0  0  0  0  0  0
   56.5758   34.0177   43.8012 H   0  0  0  0  0  0  0  0  0  0  0  0
   57.5290   33.6770   45.8630 C   0  0  0  0  0  0  0  0  0  0  0  0
   58.2772   34.3776   46.2623 H   0  0  0  0  0  0  0  0  0  0  0  0
   56.6235   33.9787   46.4099 H   0  0  0  0  0  0  0  0  0  0  0  0
   59.8520   29.3770   47.0310 N   0  0  0  0  0  0  0  0  0  0  0  0
   61.0520   30.0570   47.5490 C   0  0  0  0  0  0  0  0  0  0  0  0
   61.9459   29.4890   47.2518 H   0  0  0  0  0  0  0  0  0  0  0  0
   61.0910   31.0741   47.1318 H   0  0  0  0  0  0  0  0  0  0  0  0
   61.0010   30.1520   49.0780 C   0  0  0  0  0  0  0  0  0  0  0  0
   59.9944   30.4705   49.3868 H   0  0  0  0  0  0  0  0  0  0  0  0
   61.2351   29.1645   49.5022 H   0  0  0  0  0  0  0  0  0  0  0  0
   61.9950   31.1320   49.5740 N   0  0  0  0  0  0  0  0  0  0  0  0
   62.5370   31.9950   48.5080 C   0  0  0  0  0  0  0  0  0  0  0  0
   62.8109   31.3666   47.6477 H   0  0  0  0  0  0  0  0  0  0  0  0
   63.4138   32.5224   48.9117 H   0  0  0  0  0  0  0  0  0  0  0  0
   61.5400   33.0300   48.0560 C   0  0  0  0  0  0  0  0  0  0  0  0
   61.6470   33.5850   46.7710 C   0  0  0  0  0  0  0  0  0  0  0  0
   62.4239   33.2233   46.0813 H   0  0  0  0  0  0  0  0  0  0  0  0
   60.7710   34.5950   46.3640 C   0  0  0  0  0  0  0  0  0  0  0  0
   60.8534   35.0196   45.3526 H   0  0  0  0  0  0  0  0  0  0  0  0
   59.7920   35.0650   47.2400 C   0  0  0  0  0  0  0  0  0  0  0  0
   59.1023   35.8590   46.9176 H   0  0  0  0  0  0  0  0  0  0  0  0
   59.6860   34.5290   48.5260 C   0  0  0  0  0  0  0  0  0  0  0  0
   58.9104   34.9012   49.2115 H   0  0  0  0  0  0  0  0  0  0  0  0
   60.5640   33.5180   48.9480 C   0  0  0  0  0  0  0  0  0  0  0  0
   60.3960   32.9300   50.3280 C   0  0  0  0  0  0  0  0  0  0  0  0
   59.4325   32.4006   50.3659 H   0  0  0  0  0  0  0  0  0  0  0  0
   60.4420   33.7647   51.0429 H   0  0  0  0  0  0  0  0  0  0  0  0
   61.5120   31.9400   50.7150 C   0  0  0  0  0  0  0  0  0  0  0  0
   61.1232   31.2588   51.4862 H   0  0  0  0  0  0  0  0  0  0  0  0
   62.3636   32.5333   51.0794 H   0  0  0  0  0  0  0  0  0  0  0  0
   59.7540   28.0980   46.5700 C   0  0  0  0  0  0  0  0  0  0  0  0
   60.6740   27.1490   46.8050 C   0  0  0  0  0  0  0  0  0  0  0  0
   61.6112   27.4070   47.3199 H   0  0  0  0  0  0  0  0  0  0  0  0
   60.4907   26.1134   46.4826 H   0  0  0  0  0  0  0  0  0  0  0  0
  1  2  1  0
  2  3  1  0
  3  4  1  0
  4  5  1  0
  5  6  2  0
  5  7  1  0
  7  8  1  0
  8  9  1  0
  9 10  1  0
  9 11  2  0
 11 12  1  0
 12 13  1  0
 12 14  2  0
 14 15  1  0
 15 16  2  0
 15 17  1  0
 17 18  1  0
 18 19  1  0
 18 20  1  0
 18 21  1  0
 21 22  1  0
 21 23  1  0
 21 24  1  0
 24 25  1  0
 24 26  1  0
 14 27  1  0
 27 28  1  0
 28 29  1  0
 28 30  1  0
 28 31  1  0
 31 32  1  0
 31 33  1  0
 31 34  1  0
 34 35  1  0
 35 36  1  0
 35 37  1  0
 35 38  1  0
 38 39  2  0
 39 40  1  0
 39 41  1  0
 41 42  1  0
 41 43  2  0
 43 44  1  0
 43 45  1  0
 45 46  1  0
 45 47  2  0
 47 48  1  0
 48 49  1  0
 48 50  1  0
 48 51  1  0
 51 52  1  0
 51 53  1  0
 27 54  1  0
 54 55  2  0
 55 56  1  0
 55 57  1  0
  8  3  2  0
 54 11  1  0
 24 17  1  0
 51 34  1  0
 47 38  1  0
M  CHG  2   4  -1   7  -1
M  END
>  <UniqueID>  (38) 
37

>  <SMILES>  (38) 
C=c1/c(=C\c2[n-]c(=O)[n-]c2O)cc(C(=O)N2CCC2)n1CCN1CCc2ccccc2C1

>  <Energy>  (38) 
184.031689088047

>  <Genealogy>  (38) 
C=c1c(=Cc2[n-]c(=O)[n-]c2O)cc(C(=O)N2CCC2)n1CCN1CCc2ccccc2C1 (protonated)
C=c1/c(=C\c2[n-]c(=O)[n-]c2O)cc(C(=O)N2CCC2)n1CCN1CCc2ccccc2C1 (cis-trans isomerization)
C=c1/c(=C\c2[n-]c(=O)[n-]c2O)cc(C(=O)N2CCC2)n1CCN1CCc2ccccc2C1 (3D coordinates assigned)
C=c1/c(=C\c2[n-]c(=O)[n-]c2O)cc(C(=O)N2CCC2)n1CCN1CCc2ccccc2C1 (nonaromatic ring conformer: 184.031689088047 kcal/mol)

>  <smiles>  (38) 
C=c1c(=Cc2[nH]c(=O)[nH]c2O)cc(C(=O)N2CCC2)n1CCN1CCc2ccccc2C1

>  <score_type>  (38) 
oracle

>  <origin>  (38) 
adg

>  <m_score__min__energy>  (38) 
-14.289999999999999

>  <m_primary>  (38) 
energy

$$$$
38:0
     RDKit          3D

 56 59  0  0  0  0  0  0  0  0999 V2000
   58.5972   33.9064   43.1716 H   0  0  0  0  0  0  0  0  0  0  0  0
   58.0740   33.0080   43.5310 C   0  0  0  0  0  0  0  0  0  0  0  0
   57.6770   32.9100   44.8720 C   0  0  0  0  0  0  0  0  0  0  0  0
   57.9950   33.9980   45.8580 C   0  0  0  0  0  0  0  0  0  0  0  0
   57.3437   33.8926   46.7381 H   0  0  0  0  0  0  0  0  0  0  0  0
   57.8267   34.9750   45.3814 H   0  0  0  0  0  0  0  0  0  0  0  0
   59.3910   33.9060   46.2770 N   0  0  0  0  0  0  0  0  0  0  0  0
   59.9110   32.9640   47.2230 C   0  0  0  0  0  0  0  0  0  0  0  0
   59.1370   32.1010   47.7070 O   0  0  0  0  0  0  0  0  0  0  0  0
   61.3210   32.9840   47.6440 C   0  0  0  0  0  0  0  0  0  0  0  0
   61.8140   33.0840   48.9380 C   0  0  0  0  0  0  0  0  0  0  0  0
   61.0170   33.1480   50.2200 C   0  0  0  0  0  0  0  0  0  0  0  0
   61.7003   32.9528   51.0597 H   0  0  0  0  0  0  0  0  0  0  0  0
   60.5648   34.1500   50.2581 H   0  0  0  0  0  0  0  0  0  0  0  0
   59.8990   32.1770   50.2970 N   0  0  0  0  0  0  0  0  0  0  0  0
   59.4370   32.2030   49.3550 H   0  0  0  0  0  0  0  0  0  0  0  0
   60.3530   30.7900   50.5190 C   0  0  0  0  0  0  0  0  0  0  0  0
   61.0923   30.5230   49.7495 H   0  0  0  0  0  0  0  0  0  0  0  0
   60.8057   30.7183   51.5190 H   0  0  0  0  0  0  0  0  0  0  0  0
   59.1560   29.8110   50.4380 C   0  0  0  0  0  0  0  0  0  0  0  0
   59.2306   29.2402   49.5007 H   0  0  0  0  0  0  0  0  0  0  0  0
   59.2034   29.1534   51.3185 H   0  0  0  0  0  0  0  0  0  0  0  0
   57.9030   30.4770   50.4660 O   0  0  0  0  0  0  0  0  0  0  0  0
   57.8700   31.4060   51.5330 C   0  0  0  0  0  0  0  0  0  0  0  0
   56.8566   31.8264   51.6126 H   0  0  0  0  0  0  0  0  0  0  0  0
   58.1446   30.8834   52.4611 H   0  0  0  0  0  0  0  0  0  0  0  0
   58.8760   32.5540   51.2990 C   0  0  0  0  0  0  0  0  0  0  0  0
   58.3317   33.4397   50.9396 H   0  0  0  0  0  0  0  0  0  0  0  0
   59.3846   32.7693   52.2503 H   0  0  0  0  0  0  0  0  0  0  0  0
   63.1870   32.9410   48.8390 C   0  0  0  0  0  0  0  0  0  0  0  0
   63.8850   32.9423   49.6892 H   0  0  0  0  0  0  0  0  0  0  0  0
   63.5420   32.8000   47.5470 N   0  0  0  0  0  0  0  0  0  0  0  0
   64.5120   32.6650   47.1860 H   0  0  0  0  0  0  0  0  0  0  0  0
   62.4150   32.8230   46.8140 C   0  0  0  0  0  0  0  0  0  0  0  0
   62.3701   32.7280   45.7190 H   0  0  0  0  0  0  0  0  0  0  0  0
   57.0210   31.7940   45.2980 N   0  0  0  0  0  0  0  0  0  0  0  0
   56.7300   30.7580   44.4590 C   0  0  0  0  0  0  0  0  0  0  0  0
   56.0880   29.7120   44.8870 N   0  0  0  0  0  0  0  0  0  0  0  0
   56.7360   28.4710   45.3020 C   0  0  0  0  0  0  0  0  0  0  0  0
   56.2965   28.1279   46.2502 H   0  0  0  0  0  0  0  0  0  0  0  0
   56.5861   27.7041   44.5278 H   0  0  0  0  0  0  0  0  0  0  0  0
   58.2380   28.7140   45.4940 C   0  0  0  0  0  0  0  0  0  0  0  0
   58.4467   29.2917   44.5814 H   0  0  0  0  0  0  0  0  0  0  0  0
   59.0350   27.4480   45.8060 C   0  0  0  0  0  0  0  0  0  0  0  0
   58.4274   26.5318   45.8423 H   0  0  0  0  0  0  0  0  0  0  0  0
   59.8247   27.1033   45.1222 H   0  0  0  0  0  0  0  0  0  0  0  0
   59.3910   28.0130   47.1740 C   0  0  0  0  0  0  0  0  0  0  0  0
   58.9960   27.4274   48.0172 H   0  0  0  0  0  0  0  0  0  0  0  0
   60.4429   28.0839   47.4880 H   0  0  0  0  0  0  0  0  0  0  0  0
   58.5950   29.2740   46.8680 C   0  0  0  0  0  0  0  0  0  0  0  0
   57.7292   29.4300   47.5283 H   0  0  0  0  0  0  0  0  0  0  0  0
   59.0635   30.2649   46.9611 H   0  0  0  0  0  0  0  0  0  0  0  0
   57.1240   30.8240   43.1180 C   0  0  0  0  0  0  0  0  0  0  0  0
   56.9037   29.9919   42.4331 H   0  0  0  0  0  0  0  0  0  0  0  0
   57.8000   31.9570   42.6570 C   0  0  0  0  0  0  0  0  0  0  0  0
   58.1157   32.0195   41.6051 H   0  0  0  0  0  0  0  0  0  0  0  0
  1  2  1  0
  2  3  2  0
  3  4  1  0
  4  5  1  0
  4  6  1  0
  4  7  1  0
  7  8  1  0
  8  9  2  0
  8 10  1  0
 10 11  1  0
 11 12  1  0
 12 13  1  0
 12 14  1  0
 12 15  1  0
 15 16  1  0
 15 17  1  0
 17 18  1  0
 17 19  1  0
 17 20  1  0
 20 21  1  0
 20 22  1  0
 20 23  1  0
 23 24  1  0
 24 25  1  0
 24 26  1  0
 24 27  1  0
 27 28  1  0
 27 29  1  0
 11 30  2  0
 30 31  1  0
 30 32  1  0
 32 33  1  0
 32 34  1  0
 34 35  1  0
  3 36  1  0
 36 37  1  0
 37 38  2  0
 38 39  1  0
 39 40  1  0
 39 41  1  0
 39 42  1  0
 42 43  1  0
 42 44  1  0
 44 45  1  0
 44 46  1  0
 44 47  1  0
 47 48  1  0
 47 49  1  0
 47 50  1  0
 50 51  1  0
 50 52  1  0
 37 53  1  0
 53 54  1  0
 53 55  2  0
 55 56  1  0
 55  2  1  0
 34 10  2  0
 50 42  1  0
 27 15  1  0
M  CHG  3   7  -1  15   1  36  -1
M  END
>  <UniqueID>  (39) 
38

>  <SMILES>  (39) 
O=C([N-]Cc1ccc/c(=N/CC2CCC2)[n-]1)c1c[nH]cc1C[NH+]1CCOCC1

>  <Energy>  (39) 
154.17747296833147

>  <Genealogy>  (39) 
O=C([N-]Cc1cccc(=NCC2CCC2)[n-]1)c1c[nH]cc1C[NH+]1CCOCC1 (protonated)
O=C([N-]Cc1ccc/c(=N/CC2CCC2)[n-]1)c1c[nH]cc1C[NH+]1CCOCC1 (cis-trans isomerization)
O=C([N-]Cc1ccc/c(=N/CC2CCC2)[n-]1)c1c[nH]cc1C[NH+]1CCOCC1 (3D coordinates assigned)
O=C([N-]Cc1ccc/c(=N/CC2CCC2)[n-]1)c1c[nH]cc1C[NH+]1CCOCC1 (nonaromatic ring conformer: 154.17747296833147 kcal/mol)

>  <smiles>  (39) 
O=C(NCc1cccc(=NCC2CCC2)[nH]1)c1c[nH]cc1CN1CCOCC1

>  <score_type>  (39) 
oracle

>  <origin>  (39) 
adg

>  <m_score__min__energy>  (39) 
-10.029999999999999

>  <m_primary>  (39) 
energy

$$$$
39:0
     RDKit          3D

 24 25  0  0  1  0  0  0  0  0999 V2000
   58.9020   26.0390   44.9060 O   0  0  0  0  0  0  0  0  0  0  0  0
   58.7730   27.2810   45.0580 C   0  0  0  0  0  0  0  0  0  0  0  0
   59.8530   27.9690   45.4490 N   0  0  0  0  0  0  0  0  0  0  0  0
   59.7320   29.2950   45.6160 C   0  0  0  0  0  0  0  0  0  0  0  0
   60.8230   30.0680   46.0210 O   0  0  0  0  0  0  0  0  0  0  0  0
   58.5420   29.9720   45.4000 C   0  0  0  0  0  0  0  0  0  0  0  0
   58.4140   31.4160   45.5830 C   0  0  0  0  0  0  0  0  0  0  0  0
   58.5650   32.0280   46.8120 C   0  0  0  0  0  0  0  0  0  0  0  0
   58.4240   33.4180   46.8890 C   0  0  0  0  0  0  0  0  0  0  0  0
   58.1420   34.1450   45.7570 C   0  0  0  0  0  0  0  0  0  0  0  0
   57.9900   33.5370   44.5270 C   0  0  0  0  0  0  0  0  0  0  0  0
   58.1270   32.1480   44.4290 C   0  0  0  0  0  0  0  0  0  0  0  0
   57.4460   29.2030   44.9940 C   0  0  0  0  0  0  0  0  0  0  0  0
   56.3070   29.7420   44.7710 N   0  0  0  0  0  3  0  0  0  0  0  0
   55.1450   28.9850   44.8690 O   0  0  0  0  0  0  0  0  0  0  0  0
   57.5720   27.8590   44.8260 N   0  0  0  0  0  0  0  0  0  0  0  0
   60.7730   27.5030   45.6240 H   0  0  0  0  0  0  0  0  0  0  0  0
   61.2740   29.8260   46.9160 H   0  0  0  0  0  0  0  0  0  0  0  0
   58.7912   31.4355   47.7108 H   0  0  0  0  0  0  0  0  0  0  0  0
   58.5389   33.9293   47.8561 H   0  0  0  0  0  0  0  0  0  0  0  0
   58.0349   35.2371   45.8330 H   0  0  0  0  0  0  0  0  0  0  0  0
   57.7637   34.1379   43.6338 H   0  0  0  0  0  0  0  0  0  0  0  0
   58.0106   31.6413   43.4596 H   0  0  0  0  0  0  0  0  0  0  0  0
   56.7330   27.3020   44.5190 H   0  0  0  0  0  0  0  0  0  0  0  0
  1  2  2  0
  2  3  1  0
  3  4  1  0
  4  5  1  0
  4  6  2  0
  6  7  1  0
  7  8  2  0
  8  9  1  0
  9 10  2  0
 10 11  1  0
 11 12  2  0
  6 13  1  0
 13 14  2  0
 14 15  1  0
 13 16  1  0
 16  2  1  0
 12  7  1  0
  3 17  1  0
  5 18  1  0
  8 19  1  0
  9 20  1  0
 10 21  1  0
 11 22  1  0
 12 23  1  0
 16 24  1  0
M  CHG  2  14   1  15  -1
M  RAD  1  14   2
M  END
>  <smiles>  (40) 
O=c1[nH]c(O)c(-c2ccccc2)c(=[N+][O-])[nH]1

>  <score_type>  (40) 
oracle

>  <origin>  (40) 
adg

>  <m_score__min__energy>  (40) 
-6.7599999999999998

>  <m_primary>  (40) 
energy

$$$$
40:0
     RDKit          3D

 29 30  0  0  0  0  0  0  0  0999 V2000
   54.3110   28.7660   44.4970 H   0  0  0  0  0  0  0  0  0  0  0  0
   55.1260   29.3380   44.6830 O   0  0  0  0  0  0  0  0  0  0  0  0
   56.2820   28.8100   45.2580 C   0  0  0  0  0  0  0  0  0  0  0  0
   57.4440   29.5900   45.2910 C   0  0  0  0  0  0  0  0  0  0  0  0
   57.4283   30.6098   44.8790 H   0  0  0  0  0  0  0  0  0  0  0  0
   58.6280   29.0820   45.8450 C   0  0  0  0  0  0  0  0  0  0  0  0
   59.8280   29.9450   45.9100 C   0  0  0  0  0  0  0  0  0  0  0  0
   60.7625   29.5254   45.5093 H   0  0  0  0  0  0  0  0  0  0  0  0
   59.8900   31.2080   46.4170 C   0  0  0  0  0  0  0  0  0  0  0  0
   60.5810   31.5700   47.6140 C   0  0  0  0  0  0  0  0  0  0  0  0
   61.5110   30.8090   48.2080 C   0  0  0  0  0  0  0  0  0  0  0  0
   61.7142   29.7953   47.8323 H   0  0  0  0  0  0  0  0  0  0  0  0
   62.0709   31.1982   49.0711 H   0  0  0  0  0  0  0  0  0  0  0  0
   60.3890   32.8060   48.1350 N   0  0  0  0  0  0  0  0  0  0  0  0
   59.6480   33.7520   47.5170 C   0  0  0  0  0  0  0  0  0  0  0  0
   59.4900   34.8680   48.0830 O   0  0  0  0  0  0  0  0  0  0  0  0
   59.1050   33.5040   46.2870 N   0  0  0  0  0  0  0  0  0  0  0  0
   58.3310   34.5530   45.6000 C   0  0  0  0  0  0  0  0  0  0  0  0
   57.8513   35.2031   46.3465 H   0  0  0  0  0  0  0  0  0  0  0  0
   59.0047   35.1527   44.9703 H   0  0  0  0  0  0  0  0  0  0  0  0
   57.5592   34.0862   44.9703 H   0  0  0  0  0  0  0  0  0  0  0  0
   59.2010   32.2500   45.7390 C   0  0  0  0  0  0  0  0  0  0  0  0
   58.6320   32.0130   44.6340 O   0  0  0  0  0  0  0  0  0  0  0  0
   58.6250   27.7980   46.4150 C   0  0  0  0  0  0  0  0  0  0  0  0
   59.5375   27.4066   46.8883 H   0  0  0  0  0  0  0  0  0  0  0  0
   57.4670   27.0160   46.3830 C   0  0  0  0  0  0  0  0  0  0  0  0
   57.4763   26.0047   46.8156 H   0  0  0  0  0  0  0  0  0  0  0  0
   56.2970   27.5150   45.8030 C   0  0  0  0  0  0  0  0  0  0  0  0
   55.1540   26.7250   45.7770 O   0  0  0  0  0  0  0  0  0  0  0  0
  1  2  1  0
  2  3  1  0
  3  4  2  0
  4  5  1  0
  4  6  1  0
  6  7  1  0
  7  8  1  0
  7  9  2  0
  9 10  1  0
 10 11  2  0
 11 12  1  0
 11 13  1  0
 10 14  1  0
 14 15  1  0
 15 16  2  0
 15 17  1  0
 17 18  1  0
 18 19  1  0
 18 20  1  0
 18 21  1  0
 17 22  1  0
 22 23  2  0
  6 24  2  0
 24 25  1  0
 24 26  1  0
 26 27  1  0
 26 28  2  0
 28 29  1  0
 28  3  1  0
 22  9  1  0
M  CHG  2  14  -1  29  -1
M  END
>  <UniqueID>  (41) 
39

>  <SMILES>  (41) 
C=c1[n-]c(=O)n(C)c(=O)/c1=C/c1ccc([O-])c(O)c1

>  <Energy>  (41) 
56.656518330887685

>  <Genealogy>  (41) 
C=c1[n-]c(=O)n(C)c(=O)c1=Cc1ccc([O-])c(O)c1 (protonated)
C=c1[n-]c(=O)n(C)c(=O)/c1=C/c1ccc([O-])c(O)c1 (cis-trans isomerization)
C=c1[n-]c(=O)n(C)c(=O)/c1=C/c1ccc([O-])c(O)c1 (3D coordinates assigned)
C=c1[n-]c(=O)n(C)c(=O)/c1=C/c1ccc([O-])c(O)c1 (optimized conformer: 56.656518330887685 kcal/mol)

>  <smiles>  (41) 
C=c1[nH]c(=O)n(C)c(=O)c1=Cc1ccc(O)c(O)c1

>  <score_type>  (41) 
oracle

>  <origin>  (41) 
adg

>  <m_score__min__energy>  (41) 
-11.41

>  <m_primary>  (41) 
energy

$$$$
41:0
     RDKit          3D

 45 48  0  0  0  0  0  0  0  0999 V2000
   59.0257   35.4940   45.0528 H   0  0  0  0  0  0  0  0  0  0  0  0
   58.9230   34.7430   45.8500 C   0  0  0  0  0  0  0  0  0  0  0  0
   58.0850   33.6390   45.6670 C   0  0  0  0  0  0  0  0  0  0  0  0
   57.5218   33.5263   44.7289 H   0  0  0  0  0  0  0  0  0  0  0  0
   57.9620   32.6780   46.6750 C   0  0  0  0  0  0  0  0  0  0  0  0
   57.2924   31.8171   46.5320 H   0  0  0  0  0  0  0  0  0  0  0  0
   58.6900   32.8070   47.8700 C   0  0  0  0  0  0  0  0  0  0  0  0
   58.5850   31.7660   48.9180 C   0  0  0  0  0  0  0  0  0  0  0  0
   58.8600   30.5730   48.6210 O   0  0  0  0  0  0  0  0  0  0  0  0
   58.1660   32.0580   50.2640 N   0  0  0  0  0  0  0  0  0  0  0  0
   57.6440   31.2140   51.1040 C   0  0  0  0  0  0  0  0  0  0  0  0
   56.3120   31.1160   51.2920 N   0  0  0  0  0  0  0  0  0  0  0  0
   56.1810   30.1350   52.2070 C   0  0  0  0  0  0  0  0  0  0  0  0
   54.8750   29.7260   52.7720 C   0  0  0  0  0  0  0  0  0  0  0  0
   54.8060   28.6910   53.4880 O   0  0  0  0  0  0  0  0  0  0  0  0
   53.6500   30.5340   52.5610 C   0  0  0  0  0  0  0  0  0  0  0  0
   52.7780   30.7830   53.6370 C   0  0  0  0  0  0  0  0  0  0  0  0
   53.0132   30.3820   54.6340 H   0  0  0  0  0  0  0  0  0  0  0  0
   51.6150   31.5360   53.4490 C   0  0  0  0  0  0  0  0  0  0  0  0
   50.9430   31.7297   54.2980 H   0  0  0  0  0  0  0  0  0  0  0  0
   51.3050   32.0430   52.1840 C   0  0  0  0  0  0  0  0  0  0  0  0
   50.1500   32.7930   52.0010 O   0  0  0  0  0  0  0  0  0  0  0  0
   52.1560   31.7910   51.1050 C   0  0  0  0  0  0  0  0  0  0  0  0
   51.9099   32.1865   50.1085 H   0  0  0  0  0  0  0  0  0  0  0  0
   53.3190   31.0380   51.2880 C   0  0  0  0  0  0  0  0  0  0  0  0
   53.9804   30.8376   50.4322 H   0  0  0  0  0  0  0  0  0  0  0  0
   57.4440   29.6720   52.5420 C   0  0  0  0  0  0  0  0  0  0  0  0
   57.7710   28.6590   53.5090 N   0  0  0  0  0  0  0  0  0  0  0  0
   57.0300   28.3140   54.1570 H   0  0  0  0  0  0  0  0  0  0  0  0
   59.1220   28.2520   53.7810 C   0  0  0  0  0  0  0  0  0  0  0  0
   59.5930   28.2650   55.1040 C   0  0  0  0  0  0  0  0  0  0  0  0
   58.9218   28.5707   55.9202 H   0  0  0  0  0  0  0  0  0  0  0  0
   60.9090   27.8920   55.3900 C   0  0  0  0  0  0  0  0  0  0  0  0
   61.2733   27.9148   56.4277 H   0  0  0  0  0  0  0  0  0  0  0  0
   61.7630   27.4900   54.3590 C   0  0  0  0  0  0  0  0  0  0  0  0
   62.8018   27.2068   54.5841 H   0  0  0  0  0  0  0  0  0  0  0  0
   61.2970   27.4480   53.0430 C   0  0  0  0  0  0  0  0  0  0  0  0
   61.9673   27.1238   52.2333 H   0  0  0  0  0  0  0  0  0  0  0  0
   59.9810   27.8170   52.7530 C   0  0  0  0  0  0  0  0  0  0  0  0
   59.6141   27.7676   51.7172 H   0  0  0  0  0  0  0  0  0  0  0  0
   58.3680   30.3490   51.8410 N   0  0  0  0  0  0  0  0  0  0  0  0
   59.5070   33.9350   48.0570 C   0  0  0  0  0  0  0  0  0  0  0  0
   60.0522   34.0653   49.0035 H   0  0  0  0  0  0  0  0  0  0  0  0
   59.6300   34.8920   47.0460 C   0  0  0  0  0  0  0  0  0  0  0  0
   60.2845   35.7640   47.1920 H   0  0  0  0  0  0  0  0  0  0  0  0
  1  2  1  0
  2  3  2  0
  3  4  1  0
  3  5  1  0
  5  6  1  0
  5  7  2  0
  7  8  1  0
  8  9  2  0
  8 10  1  0
 10 11  2  0
 11 12  1  0
 12 13  1  0
 13 14  1  0
 14 15  2  0
 14 16  1  0
 16 17  2  0
 17 18  1  0
 17 19  1  0
 19 20  1  0
 19 21  2  0
 21 22  1  0
 21 23  1  0
 23 24  1  0
 23 25  2  0
 25 26  1  0
 13 27  2  0
 27 28  1  0
 28 29  1  0
 28 30  1  0
 30 31  2  0
 31 32  1  0
 31 33  1  0
 33 34  1  0
 33 35  2  0
 35 36  1  0
 35 37  1  0
 37 38  1  0
 37 39  2  0
 39 40  1  0
 27 41  1  0
  7 42  1  0
 42 43  1  0
 42 44  2  0
 44 45  1  0
 44  2  1  0
 41 11  1  0
 25 16  1  0
 39 30  1  0
M  CHG  3  12  -1  22  -1  41  -1
M  END
>  <UniqueID>  (42) 
40

>  <SMILES>  (42) 
O=C(/N=c1\[n-]c(Nc2ccccc2)c(C(=O)c2ccc([O-])cc2)[n-]1)c1ccccc1

>  <Energy>  (42) 
93.31450727171277

>  <Genealogy>  (42) 
O=C(N=c1[n-]c(Nc2ccccc2)c(C(=O)c2ccc([O-])cc2)[n-]1)c1ccccc1 (protonated)
O=C(/N=c1\[n-]c(Nc2ccccc2)c(C(=O)c2ccc([O-])cc2)[n-]1)c1ccccc1 (cis-trans isomerization)
O=C(/N=c1\[n-]c(Nc2ccccc2)c(C(=O)c2ccc([O-])cc2)[n-]1)c1ccccc1 (3D coordinates assigned)
O=C(/N=c1\[n-]c(Nc2ccccc2)c(C(=O)c2ccc([O-])cc2)[n-]1)c1ccccc1 (optimized conformer: 93.31450727171277 kcal/mol)

>  <smiles>  (42) 
O=C(N=c1[nH]c(Nc2ccccc2)c(C(=O)c2ccc(O)cc2)[nH]1)c1ccccc1

>  <score_type>  (42) 
oracle

>  <origin>  (42) 
adg

>  <m_score__min__energy>  (42) 
-13.210000000000001

>  <m_primary>  (42) 
energy

$$$$
42:0
     RDKit          3D

 49 52  0  0  0  0  0  0  0  0999 V2000
   56.2950   19.7990   45.0500 C   0  0  0  0  0  0  0  0  0  0  0  0
   56.3910   20.9850   44.1440 C   0  0  0  0  0  0  0  0  0  0  0  0
   56.2650   20.8240   42.8990 O   0  0  0  0  0  0  0  0  0  0  0  0
   56.6460   22.3340   44.6780 C   0  0  0  0  0  0  0  0  0  0  0  0
   57.8920   22.9230   44.8820 C   0  0  0  0  0  0  0  0  0  0  0  0
   57.8130   24.2310   45.3810 C   0  0  0  0  0  0  0  0  0  0  0  0
   56.5050   24.6700   45.5690 C   0  0  0  0  0  0  0  0  0  0  0  0
   56.1020   25.9860   46.0800 C   0  0  0  0  0  0  0  0  0  0  0  0
   54.8910   26.3270   46.0200 O   0  0  0  0  0  0  0  0  0  0  0  0
   57.0990   26.8720   46.6200 N   0  0  0  0  0  0  0  0  0  0  0  0
   57.5400   27.9800   46.0980 C   0  0  0  0  0  0  0  0  0  0  0  0
   58.7300   28.5120   46.4540 N   0  0  0  0  0  0  0  0  0  0  0  0
   59.0020   29.6560   45.7710 C   0  0  0  0  0  0  0  0  0  0  0  0
   58.0190   30.0340   44.8650 C   0  0  0  0  0  0  0  0  0  0  0  0
   58.0810   31.4570   43.7750 S   0  0  0  0  0  0  0  0  0  0  0  0
   57.0500   32.5230   44.8420 C   0  0  0  0  0  0  0  0  0  0  0  0
   57.8990   33.3570   45.7470 C   0  0  0  0  0  0  0  0  0  0  0  0
   58.3620   34.6310   45.4830 C   0  0  0  0  0  0  0  0  0  0  0  0
   59.1460   34.9730   46.5640 C   0  0  0  0  0  0  0  0  0  0  0  0
   59.1090   33.8850   47.4230 C   0  0  0  0  0  0  0  0  0  0  0  0
   59.8330   33.7320   48.6980 C   0  0  0  0  0  0  0  0  0  0  0  0
   59.1590   33.6880   49.7630 O   0  0  0  0  0  0  0  0  0  0  0  0
   61.2750   33.6690   48.7650 N   0  0  0  0  0  0  0  0  0  0  0  0
   62.0280   33.5740   50.0100 C   0  0  0  0  0  0  0  0  0  0  0  0
   63.4820   33.3700   49.5980 C   0  0  0  0  0  0  0  0  0  0  0  0
   63.4370   32.9000   48.1410 C   0  0  2  0  0  0  0  0  0  0  0  0
   64.4980   33.4390   47.3950 O   0  0  0  0  0  0  0  0  0  0  0  0
   62.0960   33.3860   47.5960 C   0  0  0  0  0  0  0  0  0  0  0  0
   58.3630   32.9370   46.9060 O   0  0  0  0  0  0  0  0  0  0  0  0
   56.7650   28.9160   44.9210 S   0  0  0  0  0  0  0  0  0  0  0  0
   55.4510   23.4360   45.1210 S   0  0  0  0  0  0  0  0  0  0  0  0
   56.3222   20.1344   46.0973 H   0  0  0  0  0  0  0  0  0  0  0  0
   55.3509   19.2676   44.8596 H   0  0  0  0  0  0  0  0  0  0  0  0
   57.1413   19.1226   44.8596 H   0  0  0  0  0  0  0  0  0  0  0  0
   58.8435   22.4125   44.6724 H   0  0  0  0  0  0  0  0  0  0  0  0
   58.6961   24.8486   45.6019 H   0  0  0  0  0  0  0  0  0  0  0  0
   59.9249   30.2348   45.9234 H   0  0  0  0  0  0  0  0  0  0  0  0
   56.4416   33.1851   44.2084 H   0  0  0  0  0  0  0  0  0  0  0  0
   56.4050   31.8811   45.4599 H   0  0  0  0  0  0  0  0  0  0  0  0
   58.1495   35.2448   44.5953 H   0  0  0  0  0  0  0  0  0  0  0  0
   59.6903   35.9170   46.7146 H   0  0  0  0  0  0  0  0  0  0  0  0
   61.9212   34.4997   50.5945 H   0  0  0  0  0  0  0  0  0  0  0  0
   61.6655   32.7498   50.6420 H   0  0  0  0  0  0  0  0  0  0  0  0
   64.0400   34.3145   49.6794 H   0  0  0  0  0  0  0  0  0  0  0  0
   63.9890   32.6392   50.2452 H   0  0  0  0  0  0  0  0  0  0  0  0
   63.5383   31.8068   48.0725 H   0  0  0  0  0  0  0  0  0  0  0  0
   65.2700   32.8270   47.5250 H   0  0  0  0  0  0  0  0  0  0  0  0
   62.2337   34.2966   46.9945 H   0  0  0  0  0  0  0  0  0  0  0  0
   61.6272   32.6355   46.9426 H   0  0  0  0  0  0  0  0  0  0  0  0
  1  2  1  0
  2  3  2  0
  2  4  1  0
  4  5  2  0
  5  6  1  0
  6  7  2  0
  7  8  1  0
  8  9  2  0
  8 10  1  0
 10 11  2  3
 11 12  1  0
 12 13  1  0
 13 14  2  0
 14 15  1  0
 15 16  1  0
 16 17  1  0
 17 18  2  0
 18 19  1  0
 19 20  2  0
 20 21  1  0
 21 22  2  0
 21 23  1  0
 23 24  1  0
 24 25  1  0
 25 26  1  0
 26 27  1  0
 26 28  1  0
 20 29  1  0
 14 30  1  0
  7 31  1  0
 31  4  1  0
 30 11  1  0
 29 17  1  0
 28 23  1  0
  1 32  1  0
  1 33  1  0
  1 34  1  0
  5 35  1  0
  6 36  1  0
 13 37  1  0
 16 38  1  0
 16 39  1  0
 18 40  1  0
 19 41  1  0
 24 42  1  0
 24 43  1  0
 25 44  1  0
 25 45  1  0
 26 46  1  1
 27 47  1  0
 28 48  1  0
 28 49  1  0
M  CHG  1  12  -1
M  END
>  <UniqueID>  (43) 
41

>  <SMILES>  (43) 
CC(=O)c1ccc(C(=O)N=c2[n-]cc(SCc3ccc(C(=O)N4CC[C@H](O)C4)o3)s2)s1

>  <Energy>  (43) 
133.35747954384354

>  <Genealogy>  (43) 
CC(=O)c1ccc(C(=O)N=c2[n-]cc(SCc3ccc(C(=O)N4CCC(O)C4)o3)s2)s1 (protonated)
CC(=O)c1ccc(C(=O)N=c2[n-]cc(SCc3ccc(C(=O)N4CC[C@H](O)C4)o3)s2)s1 (chirality)
CC(=O)c1ccc(C(=O)N=c2[n-]cc(SCc3ccc(C(=O)N4CC[C@H](O)C4)o3)s2)s1 (3D coordinates assigned)
CC(=O)c1ccc(C(=O)N=c2[n-]cc(SCc3ccc(C(=O)N4CC[C@H](O)C4)o3)s2)s1 (nonaromatic ring conformer: 133.35747954384354 kcal/mol)

>  <smiles>  (43) 
CC(=O)c1ccc(C(=O)N=c2[nH]cc(SCc3ccc(C(=O)N4CCC(O)C4)o3)s2)s1

>  <score_type>  (43) 
oracle

>  <origin>  (43) 
adg

>  <m_score__min__energy>  (43) 
-10.58

>  <m_primary>  (43) 
energy

$$$$
43:0
     RDKit          3D

 67 71  0  0  0  0  0  0  0  0999 V2000
   55.1460   27.5220   45.3800 H   0  0  0  0  0  0  0  0  0  0  0  0
   55.2420   26.7110   45.9780 O   0  0  0  0  0  0  0  0  0  0  0  0
   56.2440   25.7680   45.7660 C   0  0  0  0  0  0  0  0  0  0  0  0
   57.5250   26.0110   45.3100 C   0  0  0  0  0  0  0  0  0  0  0  0
   58.0330   27.3050   44.8260 C   0  0  0  0  0  0  0  0  0  0  0  0
   58.0810   27.4473   43.7363 H   0  0  0  0  0  0  0  0  0  0  0  0
   58.4450   28.3320   45.5970 C   0  0  0  0  0  0  0  0  0  0  0  0
   58.8220   28.1650   46.9200 C   0  0  0  0  0  0  0  0  0  0  0  0
   58.8602   27.2159   47.4747 H   0  0  0  0  0  0  0  0  0  0  0  0
   59.1400   29.4140   47.4090 C   0  0  0  0  0  0  0  0  0  0  0  0
   59.6500   29.6820   48.7920 C   0  0  0  0  0  0  0  0  0  0  0  0
   58.9274   29.3023   49.5293 H   0  0  0  0  0  0  0  0  0  0  0  0
   60.6163   29.1752   48.9311 H   0  0  0  0  0  0  0  0  0  0  0  0
   59.7808   30.7653   48.9311 H   0  0  0  0  0  0  0  0  0  0  0  0
   58.9900   30.3490   46.4480 N   0  0  0  0  0  0  0  0  0  0  0  0
   59.3730   31.7310   46.5750 C   0  0  0  0  0  0  0  0  0  0  0  0
   60.6870   32.0660   46.9290 C   0  0  0  0  0  0  0  0  0  0  0  0
   61.4332   31.2695   47.0659 H   0  0  0  0  0  0  0  0  0  0  0  0
   61.0620   33.4080   47.1110 C   0  0  0  0  0  0  0  0  0  0  0  0
   62.4450   33.7310   47.5260 C   0  0  0  0  0  0  0  0  0  0  0  0
   63.2300   34.2690   46.7000 O   0  0  0  0  0  0  0  0  0  0  0  0
   62.9560   33.3330   48.8050 N   0  0  0  0  0  0  0  0  0  0  0  0
   62.7060   34.1470   50.0010 C   0  0  0  0  0  0  0  0  0  0  0  0
   62.4756   35.1786   49.6966 H   0  0  0  0  0  0  0  0  0  0  0  0
   61.8568   33.7197   50.5544 H   0  0  0  0  0  0  0  0  0  0  0  0
   63.9480   34.1510   50.9120 C   0  0  0  0  0  0  0  0  0  0  0  0
   64.1333   35.1777   51.2607 H   0  0  0  0  0  0  0  0  0  0  0  0
   63.7571   33.4797   51.7623 H   0  0  0  0  0  0  0  0  0  0  0  0
   65.0940   33.6840   50.2220 O   0  0  0  0  0  0  0  0  0  0  0  0
   64.9250   32.3180   49.8900 C   0  0  0  0  0  0  0  0  0  0  0  0
   65.8514   31.9454   49.4284 H   0  0  0  0  0  0  0  0  0  0  0  0
   64.6965   31.7650   50.8130 H   0  0  0  0  0  0  0  0  0  0  0  0
   63.7600   32.1150   48.9060 C   0  0  0  0  0  0  0  0  0  0  0  0
   64.1637   31.8645   47.9139 H   0  0  0  0  0  0  0  0  0  0  0  0
   63.1224   31.2975   49.2736 H   0  0  0  0  0  0  0  0  0  0  0  0
   60.1030   34.4160   46.9220 C   0  0  0  0  0  0  0  0  0  0  0  0
   60.3819   35.4703   47.0659 H   0  0  0  0  0  0  0  0  0  0  0  0
   58.7960   34.0870   46.5520 C   0  0  0  0  0  0  0  0  0  0  0  0
   58.0541   34.8839   46.3956 H   0  0  0  0  0  0  0  0  0  0  0  0
   58.4280   32.7510   46.3800 C   0  0  0  0  0  0  0  0  0  0  0  0
   57.1570   32.4470   46.0150 F   0  0  0  0  0  0  0  0  0  0  0  0
   58.5940   29.7020   45.3190 C   0  0  0  0  0  0  0  0  0  0  0  0
   58.4880   30.3060   44.1220 C   0  0  0  0  0  0  0  0  0  0  0  0
   58.6286   31.3939   44.0405 H   0  0  0  0  0  0  0  0  0  0  0  0
   58.2607   29.7121   43.2245 H   0  0  0  0  0  0  0  0  0  0  0  0
   58.1790   24.8350   45.1670 N   0  0  0  0  0  0  0  0  0  0  0  0
   57.2780   23.9160   45.5870 C   0  0  0  0  0  0  0  0  0  0  0  0
   57.5200   22.6790   45.6020 O   0  0  0  0  0  0  0  0  0  0  0  0
   56.0930   24.4470   45.9580 N   0  0  0  0  0  0  0  0  0  0  0  0
   54.8800   23.7450   46.3870 C   0  0  0  0  0  0  0  0  0  0  0  0
   54.1339   24.4832   46.7163 H   0  0  0  0  0  0  0  0  0  0  0  0
   54.4934   23.1605   45.5391 H   0  0  0  0  0  0  0  0  0  0  0  0
   55.1790   22.8020   47.5270 C   0  0  0  0  0  0  0  0  0  0  0  0
   54.3260   21.7170   47.7980 C   0  0  0  0  0  0  0  0  0  0  0  0
   53.4420   21.5441   47.1666 H   0  0  0  0  0  0  0  0  0  0  0  0
   54.5970   20.8580   48.8660 C   0  0  0  0  0  0  0  0  0  0  0  0
   53.9139   20.0245   49.0867 H   0  0  0  0  0  0  0  0  0  0  0  0
   55.7330   21.0550   49.6540 C   0  0  0  0  0  0  0  0  0  0  0  0
   55.9353   20.3794   50.4982 H   0  0  0  0  0  0  0  0  0  0  0  0
   56.6170   22.1060   49.3780 C   0  0  0  0  0  0  0  0  0  0  0  0
   57.7530   22.2520   50.1910 O   0  0  0  0  0  0  0  0  0  0  0  0
   57.7500   22.1190   51.6100 C   0  0  0  0  0  0  0  0  0  0  0  0
   57.7725   23.1171   52.0719 H   0  0  0  0  0  0  0  0  0  0  0  0
   56.8397   21.5889   51.9267 H   0  0  0  0  0  0  0  0  0  0  0  0
   58.6355   21.5484   51.9267 H   0  0  0  0  0  0  0  0  0  0  0  0
   56.3370   22.9780   48.3090 C   0  0  0  0  0  0  0  0  0  0  0  0
   57.0281   23.8033   48.0827 H   0  0  0  0  0  0  0  0  0  0  0  0
  1  2  1  0
  2  3  1  0
  3  4  2  0
  4  5  1  0
  5  6  1  0
  5  7  2  0
  7  8  1  0
  8  9  1  0
  8 10  2  0
 10 11  1  0
 11 12  1  0
 11 13  1  0
 11 14  1  0
 10 15  1  0
 15 16  1  0
 16 17  2  0
 17 18  1  0
 17 19  1  0
 19 20  1  0
 20 21  2  0
 20 22  1  0
 22 23  1  0
 23 24  1  0
 23 25  1  0
 23 26  1  0
 26 27  1  0
 26 28  1  0
 26 29  1  0
 29 30  1  0
 30 31  1  0
 30 32  1  0
 30 33  1  0
 33 34  1  0
 33 35  1  0
 19 36  2  0
 36 37  1  0
 36 38  1  0
 38 39  1  0
 38 40  2  0
 40 41  1  0
 15 42  1  0
 42 43  2  0
 43 44  1  0
 43 45  1  0
  4 46  1  0
 46 47  1  0
 47 48  2  0
 47 49  1  0
 49 50  1  0
 50 51  1  0
 50 52  1  0
 50 53  1  0
 53 54  2  0
 54 55  1  0
 54 56  1  0
 56 57  1  0
 56 58  2  0
 58 59  1  0
 58 60  1  0
 60 61  1  0
 61 62  1  0
 62 63  1  0
 62 64  1  0
 62 65  1  0
 60 66  2  0
 66 67  1  0
 49  3  1  0
 66 53  1  0
 42  7  1  0
 40 16  1  0
 33 22  1  0
M  CHG  1  46  -1
M  END
>  <UniqueID>  (44) 
42

>  <SMILES>  (44) 
C=c1/c(=C\c2[n-]c(=O)n(Cc3cccc(OC)c3)c2O)cc(C)n1-c1cc(C(=O)N2CCOCC2)ccc1F

>  <Energy>  (44) 
166.44380623550376

>  <Genealogy>  (44) 
C=c1c(=Cc2[n-]c(=O)n(Cc3cccc(OC)c3)c2O)cc(C)n1-c1cc(C(=O)N2CCOCC2)ccc1F (protonated)
C=c1/c(=C\c2[n-]c(=O)n(Cc3cccc(OC)c3)c2O)cc(C)n1-c1cc(C(=O)N2CCOCC2)ccc1F (cis-trans isomerization)
C=c1/c(=C\c2[n-]c(=O)n(Cc3cccc(OC)c3)c2O)cc(C)n1-c1cc(C(=O)N2CCOCC2)ccc1F (3D coordinates assigned)
C=c1/c(=C\c2[n-]c(=O)n(Cc3cccc(OC)c3)c2O)cc(C)n1-c1cc(C(=O)N2CCOCC2)ccc1F (nonaromatic ring conformer: 166.44380623550376 kcal/mol)

>  <smiles>  (44) 
C=c1c(=Cc2[nH]c(=O)n(Cc3cccc(OC)c3)c2O)cc(C)n1-c1cc(C(=O)N2CCOCC2)ccc1F

>  <score_type>  (44) 
oracle

>  <origin>  (44) 
adg

>  <m_score__min__energy>  (44) 
-12.49

>  <m_primary>  (44) 
energy

$$$$
44:0
     RDKit          3D

 52 55  0  0  0  0  0  0  0  0999 V2000
   52.5980   24.0410   44.9370 C   0  0  0  0  0  0  0  0  0  0  0  0
   53.6560   24.2610   45.9120 N   0  0  0  0  0  0  0  0  0  0  0  0
   54.8450   25.0190   45.6740 C   0  0  0  0  0  0  0  0  0  0  0  0
   54.7950   26.2730   45.7880 O   0  0  0  0  0  0  0  0  0  0  0  0
   56.1310   24.3760   45.3260 C   0  0  0  0  0  0  0  0  0  0  0  0
   56.1160   23.2890   44.4350 C   0  0  0  0  0  0  0  0  0  0  0  0
   57.2980   22.6200   44.1080 C   0  0  0  0  0  0  0  0  0  0  0  0
   58.5020   23.0180   44.6770 C   0  0  0  0  0  0  0  0  0  0  0  0
   58.5350   24.0920   45.5660 C   0  0  0  0  0  0  0  0  0  0  0  0
   57.3610   24.7830   45.9040 C   0  0  0  0  0  0  0  0  0  0  0  0
   57.4780   25.9680   46.8400 C   0  0  0  0  0  0  0  0  0  0  0  0
   57.5860   27.2260   46.0750 N   0  0  0  0  0  0  0  0  0  0  0  0
   58.0390   26.9870   44.6970 C   0  0  0  0  0  0  0  0  0  0  0  0
   58.9550   28.1400   44.2950 C   0  0  0  0  0  0  0  0  0  0  0  0
   59.0810   29.0210   45.5350 C   0  0  1  0  0  0  0  0  0  0  0  0
   58.3000   30.3090   45.4230 C   0  0  0  0  0  0  0  0  0  0  0  0
   57.0670   30.4310   44.8730 N   0  0  0  0  0  0  0  0  0  0  0  0
   56.6710   31.6950   44.9700 N   0  0  0  0  0  0  0  0  0  0  0  0
   57.6500   32.3730   45.5960 C   0  0  0  0  0  0  0  0  0  0  0  0
   57.6830   33.7270   45.9130 C   0  0  0  0  0  0  0  0  0  0  0  0
   58.8180   34.2170   46.5850 C   0  0  0  0  0  0  0  0  0  0  0  0
   59.8650   33.3420   46.9650 C   0  0  0  0  0  0  0  0  0  0  0  0
   60.9730   33.8760   47.7020 N   0  0  0  0  0  0  0  0  0  0  0  0
   62.6310   33.4900   47.3950 S   0  0  0  0  0  0  0  0  0  0  0  0
   62.9240   31.7460   47.5350 C   0  0  0  0  0  0  0  0  0  0  0  0
   62.9820   33.9300   46.0000 O   0  0  0  0  0  0  0  0  0  0  0  0
   63.4960   34.2380   48.3630 O   0  0  0  0  0  0  0  0  0  0  0  0
   59.7980   31.9720   46.6180 C   0  0  0  0  0  0  0  0  0  0  0  0
   58.6770   31.5380   45.9140 C   0  0  0  0  0  0  0  0  0  0  0  0
   58.5520   28.1550   46.6680 C   0  0  0  0  0  0  0  0  0  0  0  0
   51.6513   23.8441   45.4614 H   0  0  0  0  0  0  0  0  0  0  0  0
   52.4887   24.9356   44.3064 H   0  0  0  0  0  0  0  0  0  0  0  0
   52.8544   23.1770   44.3064 H   0  0  0  0  0  0  0  0  0  0  0  0
   55.1643   22.9619   43.9909 H   0  0  0  0  0  0  0  0  0  0  0  0
   57.2758   21.7783   43.4002 H   0  0  0  0  0  0  0  0  0  0  0  0
   59.4307   22.4848   44.4256 H   0  0  0  0  0  0  0  0  0  0  0  0
   59.4935   24.4016   46.0080 H   0  0  0  0  0  0  0  0  0  0  0  0
   56.5859   26.0109   47.4821 H   0  0  0  0  0  0  0  0  0  0  0  0
   58.3831   25.8473   47.4534 H   0  0  0  0  0  0  0  0  0  0  0  0
   58.5903   26.0366   44.6448 H   0  0  0  0  0  0  0  0  0  0  0  0
   57.1771   26.9284   44.0161 H   0  0  0  0  0  0  0  0  0  0  0  0
   59.9418   27.7585   43.9940 H   0  0  0  0  0  0  0  0  0  0  0  0
   58.5500   28.7001   43.4392 H   0  0  0  0  0  0  0  0  0  0  0  0
   60.1211   29.3436   45.6905 H   0  0  0  0  0  0  0  0  0  0  0  0
   56.8489   34.3930   45.6470 H   0  0  0  0  0  0  0  0  0  0  0  0
   58.8929   35.2896   46.8174 H   0  0  0  0  0  0  0  0  0  0  0  0
   62.9710   31.4662   48.5978 H   0  0  0  0  0  0  0  0  0  0  0  0
   62.1056   31.1964   47.0470 H   0  0  0  0  0  0  0  0  0  0  0  0
   63.8771   31.4940   47.0470 H   0  0  0  0  0  0  0  0  0  0  0  0
   60.6024   31.2744   46.8943 H   0  0  0  0  0  0  0  0  0  0  0  0
   59.3769   27.5967   47.1349 H   0  0  0  0  0  0  0  0  0  0  0  0
   58.0802   28.7705   47.4481 H   0  0  0  0  0  0  0  0  0  0  0  0
  1  2  1  0
  2  3  1  0
  3  4  2  0
  3  5  1  0
  5  6  2  0
  6  7  1  0
  7  8  2  0
  8  9  1  0
  9 10  2  0
 10 11  1  0
 11 12  1  0
 12 13  1  0
 13 14  1  0
 14 15  1  0
 15 16  1  0
 16 17  2  0
 17 18  1  0
 18 19  1  0
 19 20  2  0
 20 21  1  0
 21 22  2  0
 22 23  1  0
 23 24  1  0
 24 25  1  0
 24 26  2  0
 24 27  2  0
 22 28  1  0
 28 29  2  0
 15 30  1  0
 10  5  1  0
 30 12  1  0
 29 16  1  0
 29 19  1  0
  1 31  1  0
  1 32  1  0
  1 33  1  0
  6 34  1  0
  7 35  1  0
  8 36  1  0
  9 37  1  0
 11 38  1  0
 11 39  1  0
 13 40  1  0
 13 41  1  0
 14 42  1  0
 14 43  1  0
 15 44  1  1
 20 45  1  0
 21 46  1  0
 25 47  1  0
 25 48  1  0
 25 49  1  0
 28 50  1  0
 30 51  1  0
 30 52  1  0
M  CHG  3   2  -1  18  -1  23  -1
M  END
>  <UniqueID>  (45) 
43

>  <SMILES>  (45) 
C[N-]C(=O)c1ccccc1CN1CC[C@@H](c2n[n-]c3ccc([N-]S(C)(=O)=O)cc23)C1

>  <Energy>  (45) 
101.50902122242809

>  <Genealogy>  (45) 
C[N-]C(=O)c1ccccc1CN1CCC(c2n[n-]c3ccc([N-]S(C)(=O)=O)cc23)C1 (protonated)
C[N-]C(=O)c1ccccc1CN1CC[C@@H](c2n[n-]c3ccc([N-]S(C)(=O)=O)cc23)C1 (chirality)
C[N-]C(=O)c1ccccc1CN1CC[C@@H](c2n[n-]c3ccc([N-]S(C)(=O)=O)cc23)C1 (3D coordinates assigned)
C[N-]C(=O)c1ccccc1CN1CC[C@@H](c2n[n-]c3ccc([N-]S(C)(=O)=O)cc23)C1 (nonaromatic ring conformer: 101.50902122242809 kcal/mol)

>  <smiles>  (45) 
CNC(=O)c1ccccc1CN1CCC(c2n[nH]c3ccc(NS(C)(=O)=O)cc23)C1

>  <score_type>  (45) 
oracle

>  <origin>  (45) 
adg

>  <m_score__min__energy>  (45) 
-13.92

>  <m_primary>  (45) 
energy

$$$$
45:0
     RDKit          3D

 61 64  0  0  0  0  0  0  0  0999 V2000
   56.6400   20.3990   43.0730 C   0  0  0  0  0  0  0  0  0  0  0  0
   55.9380   21.6130   42.8210 O   0  0  0  0  0  0  0  0  0  0  0  0
   56.0510   22.7710   43.6040 C   0  0  0  0  0  0  0  0  0  0  0  0
   55.1830   22.9260   44.6910 C   0  0  0  0  0  0  0  0  0  0  0  0
   55.2550   24.0610   45.5020 C   0  0  0  0  0  0  0  0  0  0  0  0
   56.2070   25.0640   45.2430 C   0  0  0  0  0  0  0  0  0  0  0  0
   56.2970   26.2580   46.1160 C   0  0  0  0  0  0  0  0  0  0  0  0
   56.7790   26.1540   47.2790 O   0  0  0  0  0  0  0  0  0  0  0  0
   55.9000   27.5440   45.6210 N   0  0  0  0  0  0  0  0  0  0  0  0
   56.7900   28.5970   45.2280 C   0  0  0  0  0  0  0  0  0  0  0  0
   56.3130   29.6070   44.3860 C   0  0  0  0  0  0  0  0  0  0  0  0
   57.1540   30.6500   43.9880 C   0  0  0  0  0  0  0  0  0  0  0  0
   58.4760   30.6960   44.4370 C   0  0  0  0  0  0  0  0  0  0  0  0
   58.9690   29.6980   45.2950 C   0  0  0  0  0  0  0  0  0  0  0  0
   60.3820   29.7840   45.8200 C   0  0  0  0  0  0  0  0  0  0  0  0
   60.4140   30.3630   47.1820 N   0  0  0  0  0  0  0  0  0  0  0  0
   60.1770   29.5630   48.2660 C   0  0  0  0  0  0  0  0  0  0  0  0
   59.9600   28.3290   48.0950 O   0  0  0  0  0  0  0  0  0  0  0  0
   60.1740   30.0860   49.5280 N   0  0  0  0  0  0  0  0  0  0  0  0
   59.9540   29.2080   50.6930 C   0  0  0  0  0  0  0  0  0  0  0  0
   60.4640   31.4100   49.7100 C   0  0  0  0  0  0  0  0  0  0  0  0
   60.5250   31.8820   50.8810 O   0  0  0  0  0  0  0  0  0  0  0  0
   60.6990   32.2230   48.6340 N   0  0  0  0  0  0  0  0  0  0  0  0
   61.0560   33.6460   48.8290 C   0  0  0  0  0  0  0  0  0  0  0  0
   59.8230   34.5520   48.7060 C   0  0  0  0  0  0  0  0  0  0  0  0
   59.1070   34.3420   47.3990 C   0  0  0  0  0  0  0  0  0  0  0  0
   59.5430   35.0020   46.2360 C   0  0  0  0  0  0  0  0  0  0  0  0
   58.8380   34.8550   45.0370 C   0  0  0  0  0  0  0  0  0  0  0  0
   57.6970   34.0490   44.9880 C   0  0  0  0  0  0  0  0  0  0  0  0
   57.2570   33.3900   46.1400 C   0  0  0  0  0  0  0  0  0  0  0  0
   57.9550   33.5390   47.3430 C   0  0  0  0  0  0  0  0  0  0  0  0
   60.6620   31.6960   47.3710 C   0  0  0  0  0  0  0  0  0  0  0  0
   60.8630   32.4480   46.3750 O   0  0  0  0  0  0  0  0  0  0  0  0
   58.1100   28.6630   45.7080 C   0  0  0  0  0  0  0  0  0  0  0  0
   57.0760   24.9100   44.1480 C   0  0  0  0  0  0  0  0  0  0  0  0
   57.0000   23.7740   43.3350 C   0  0  0  0  0  0  0  0  0  0  0  0
   56.7288   20.2454   44.1586 H   0  0  0  0  0  0  0  0  0  0  0  0
   56.0891   19.5576   42.6275 H   0  0  0  0  0  0  0  0  0  0  0  0
   57.6441   20.4568   42.6275 H   0  0  0  0  0  0  0  0  0  0  0  0
   54.4374   22.1470   44.9086 H   0  0  0  0  0  0  0  0  0  0  0  0
   54.5623   24.1714   46.3493 H   0  0  0  0  0  0  0  0  0  0  0  0
   55.2707   29.5803   44.0353 H   0  0  0  0  0  0  0  0  0  0  0  0
   56.7739   31.4366   43.3195 H   0  0  0  0  0  0  0  0  0  0  0  0
   59.1343   31.5173   44.1175 H   0  0  0  0  0  0  0  0  0  0  0  0
   60.8156   28.7735   45.8497 H   0  0  0  0  0  0  0  0  0  0  0  0
   60.9625   30.4364   45.1510 H   0  0  0  0  0  0  0  0  0  0  0  0
   60.0984   29.7842   51.6188 H   0  0  0  0  0  0  0  0  0  0  0  0
   58.9286   28.8109   50.6644 H   0  0  0  0  0  0  0  0  0  0  0  0
   60.6710   28.3743   50.6644 H   0  0  0  0  0  0  0  0  0  0  0  0
   61.4945   33.7715   49.8300 H   0  0  0  0  0  0  0  0  0  0  0  0
   61.7771   33.9331   48.0495 H   0  0  0  0  0  0  0  0  0  0  0  0
   59.1316   34.3273   49.5315 H   0  0  0  0  0  0  0  0  0  0  0  0
   60.1602   35.5982   48.7484 H   0  0  0  0  0  0  0  0  0  0  0  0
   60.4414   35.6359   46.2695 H   0  0  0  0  0  0  0  0  0  0  0  0
   59.1822   35.3747   44.1307 H   0  0  0  0  0  0  0  0  0  0  0  0
   57.1454   33.9332   44.0434 H   0  0  0  0  0  0  0  0  0  0  0  0
   56.3607   32.7535   46.1002 H   0  0  0  0  0  0  0  0  0  0  0  0
   57.6007   33.0255   48.2490 H   0  0  0  0  0  0  0  0  0  0  0  0
   58.4738   27.8998   46.4117 H   0  0  0  0  0  0  0  0  0  0  0  0
   57.8213   25.6889   43.9291 H   0  0  0  0  0  0  0  0  0  0  0  0
   57.6854   23.6646   42.4816 H   0  0  0  0  0  0  0  0  0  0  0  0
  1  2  1  0
  2  3  1  0
  3  4  2  0
  4  5  1  0
  5  6  2  0
  6  7  1  0
  7  8  2  0
  7  9  1  0
  9 10  1  0
 10 11  2  0
 11 12  1  0
 12 13  2  0
 13 14  1  0
 14 15  1  0
 15 16  1  0
 16 17  1  0
 17 18  2  0
 17 19  1  0
 19 20  1  0
 19 21  1  0
 21 22  2  0
 21 23  1  0
 23 24  1  0
 24 25  1  0
 25 26  1  0
 26 27  2  0
 27 28  1  0
 28 29  2  0
 29 30  1  0
 30 31  2  0
 23 32  1  0
 32 33  2  0
 14 34  2  0
  6 35  1  0
 35 36  2  0
 36  3  1  0
 34 10  1  0
 32 16  1  0
 31 26  1  0
  1 37  1  0
  1 38  1  0
  1 39  1  0
  4 40  1  0
  5 41  1  0
 11 42  1  0
 12 43  1  0
 13 44  1  0
 15 45  1  0
 15 46  1  0
 20 47  1  0
 20 48  1  0
 20 49  1  0
 24 50  1  0
 24 51  1  0
 25 52  1  0
 25 53  1  0
 27 54  1  0
 28 55  1  0
 29 56  1  0
 30 57  1  0
 31 58  1  0
 34 59  1  0
 35 60  1  0
 36 61  1  0
M  CHG  1   9  -1
M  END
>  <UniqueID>  (46) 
44

>  <SMILES>  (46) 
COc1ccc(C(=O)[N-]c2cccc(Cn3c(=O)n(C)c(=O)n(CCc4ccccc4)c3=O)c2)cc1

>  <Energy>  (46) 
75.93505746394383

>  <Genealogy>  (46) 
COc1ccc(C(=O)[N-]c2cccc(Cn3c(=O)n(C)c(=O)n(CCc4ccccc4)c3=O)c2)cc1 (protonated)
COc1ccc(C(=O)[N-]c2cccc(Cn3c(=O)n(C)c(=O)n(CCc4ccccc4)c3=O)c2)cc1 (3D coordinates assigned)
COc1ccc(C(=O)[N-]c2cccc(Cn3c(=O)n(C)c(=O)n(CCc4ccccc4)c3=O)c2)cc1 (optimized conformer: 75.93505746394383 kcal/mol)

>  <smiles>  (46) 
COc1ccc(C(=O)Nc2cccc(Cn3c(=O)n(C)c(=O)n(CCc4ccccc4)c3=O)c2)cc1

>  <score_type>  (46) 
oracle

>  <origin>  (46) 
adg

>  <m_score__min__energy>  (46) 
-11.539999999999999

>  <m_primary>  (46) 
energy

$$$$
46:0
     RDKit          3D

 22 23  0  0  0  0  0  0  0  0999 V2000
   54.4220   29.4150   45.1310 H   0  0  0  0  0  0  0  0  0  0  0  0
   55.3930   29.3590   44.7490 N   0  0  0  0  0  0  0  0  0  0  0  0
   56.2670   28.5440   45.2430 C   0  0  0  0  0  0  0  0  0  0  0  0
   55.8530   27.4160   45.8770 N   0  0  0  0  0  0  0  0  0  0  0  0
   56.7480   26.5430   46.4170 C   0  0  0  0  0  0  0  0  0  0  0  0
   56.3050   25.3450   47.0640 N   0  0  0  0  0  0  0  0  0  0  0  0
   56.6180   24.0120   46.6400 C   0  0  0  0  0  0  0  0  0  0  0  0
   57.2990   23.2790   47.4030 O   0  0  0  0  0  0  0  0  0  0  0  0
   56.1210   23.4570   45.3660 C   0  0  0  0  0  0  0  0  0  0  0  0
   54.8530   23.6340   44.8420 C   0  0  0  0  0  0  0  0  0  0  0  0
   54.0426   24.1870   45.3395 H   0  0  0  0  0  0  0  0  0  0  0  0
   54.7460   23.0360   43.6380 N   0  0  0  0  0  0  0  0  0  0  0  0
   55.9560   22.4930   43.4030 C   0  0  0  0  0  0  0  0  0  0  0  0
   56.2570   21.7850   42.2460 O   0  0  0  0  0  0  0  0  0  0  0  0
   56.6520   22.2520   41.4380 H   0  0  0  0  0  0  0  0  0  0  0  0
   56.8380   22.7330   44.4360 C   0  0  0  0  0  0  0  0  0  0  0  0
   57.8888   22.4150   44.5038 H   0  0  0  0  0  0  0  0  0  0  0  0
   58.1160   26.7960   46.2960 C   0  0  0  0  0  0  0  0  0  0  0  0
   58.8562   26.0946   46.7084 H   0  0  0  0  0  0  0  0  0  0  0  0
   58.5230   27.9590   45.6400 C   0  0  0  0  0  0  0  0  0  0  0  0
   59.7490   28.2230   45.5200 O   0  0  0  0  0  0  0  0  0  0  0  0
   57.5960   28.8090   45.1300 N   0  0  0  0  0  0  0  0  0  0  0  0
  1  2  1  0
  2  3  2  0
  3  4  1  0
  4  5  1  0
  5  6  1  0
  6  7  1  0
  7  8  2  0
  7  9  1  0
  9 10  2  0
 10 11  1  0
 10 12  1  0
 12 13  1  0
 13 14  1  0
 14 15  1  0
 13 16  2  0
 16 17  1  0
  5 18  2  0
 18 19  1  0
 18 20  1  0
 20 21  2  0
 20 22  1  0
 22  3  1  0
 16  9  1  0
M  CHG  4   4  -1   6  -1  12  -1  22  -1
M  END
>  <UniqueID>  (47) 
45

>  <SMILES>  (47) 
[H]/N=c1/[n-]c([N-]C(=O)c2c[n-]c(O)c2)cc(=O)[n-]1

>  <Energy>  (47) 
52.04172330519475

>  <Genealogy>  (47) 
N=c1[n-]c([N-]C(=O)c2c[n-]c(O)c2)cc(=O)[n-]1 (protonated)
[H]/N=c1/[n-]c([N-]C(=O)c2c[n-]c(O)c2)cc(=O)[n-]1 (cis-trans isomerization)
[H]/N=c1/[n-]c([N-]C(=O)c2c[n-]c(O)c2)cc(=O)[n-]1 (3D coordinates assigned)
[H]/N=c1/[n-]c([N-]C(=O)c2c[n-]c(O)c2)cc(=O)[n-]1 (optimized conformer: 52.04172330519475 kcal/mol)

>  <smiles>  (47) 
N=c1[nH]c(NC(=O)c2c[nH]c(O)c2)cc(=O)[nH]1

>  <score_type>  (47) 
oracle

>  <origin>  (47) 
adg

>  <m_score__min__energy>  (47) 
-13.199999999999999

>  <m_primary>  (47) 
energy

$$$$
47:0
     RDKit          3D

 56 58  0  0  0  0  0  0  0  0999 V2000
   55.0890   25.9750   46.7550 H   0  0  0  0  0  0  0  0  0  0  0  0
   55.2290   26.6540   46.0180 O   0  0  0  0  0  0  0  0  0  0  0  0
   56.5020   27.0540   45.6820 N   0  0  0  0  0  0  0  0  0  0  0  0
   56.7540   28.1940   45.1120 C   0  0  0  0  0  0  0  0  0  0  0  0
   55.7050   29.1590   45.0090 N   0  0  0  0  0  0  0  0  0  0  0  0
   54.7650   28.9670   45.4260 H   0  0  0  0  0  0  0  0  0  0  0  0
   55.8530   30.0610   44.5050 H   0  0  0  0  0  0  0  0  0  0  0  0
   58.1010   28.4900   44.4900 C   0  0  0  0  0  0  0  0  0  0  0  0
   58.7038   27.5699   44.4866 H   0  0  0  0  0  0  0  0  0  0  0  0
   57.9372   28.8525   43.4644 H   0  0  0  0  0  0  0  0  0  0  0  0
   58.8410   29.5610   45.2620 C   0  0  0  0  0  0  0  0  0  0  0  0
   59.9970   29.2010   45.9770 C   0  0  0  0  0  0  0  0  0  0  0  0
   60.3171   28.1488   45.9970 H   0  0  0  0  0  0  0  0  0  0  0  0
   60.7430   30.1600   46.6610 C   0  0  0  0  0  0  0  0  0  0  0  0
   61.6466   29.8600   47.2119 H   0  0  0  0  0  0  0  0  0  0  0  0
   60.3480   31.5010   46.6500 C   0  0  0  0  0  0  0  0  0  0  0  0
   61.1450   32.5030   47.3880 C   0  0  0  0  0  0  0  0  0  0  0  0
   60.7480   33.7010   47.3770 O   0  0  0  0  0  0  0  0  0  0  0  0
   62.3380   32.1560   48.1410 N   0  0  1  0  0  0  0  0  0  0  0  0
   62.5830   31.1730   47.8650 H   0  0  0  0  0  0  0  0  0  0  0  0
   63.4810   33.0080   47.7270 C   0  0  0  0  0  0  0  0  0  0  0  0
   63.1086   34.0187   47.5037 H   0  0  0  0  0  0  0  0  0  0  0  0
   63.9433   32.5507   46.8398 H   0  0  0  0  0  0  0  0  0  0  0  0
   64.5480   33.1040   48.8220 C   0  0  0  0  0  0  0  0  0  0  0  0
   65.4182   33.6528   48.4327 H   0  0  0  0  0  0  0  0  0  0  0  0
   64.8443   32.0877   49.1210 H   0  0  0  0  0  0  0  0  0  0  0  0
   63.9860   33.8500   50.0630 C   0  0  2  0  0  0  0  0  0  0  0  0
   64.0287   34.9245   49.8312 H   0  0  0  0  0  0  0  0  0  0  0  0
   64.8100   33.6560   51.2970 N   0  0  0  0  0  0  0  0  0  0  0  0
   66.2750   33.8040   51.0360 C   0  0  0  0  0  0  0  0  0  0  0  0
   66.4031   34.2141   50.0234 H   0  0  0  0  0  0  0  0  0  0  0  0
   66.6660   34.4657   51.8229 H   0  0  0  0  0  0  0  0  0  0  0  0
   67.0820   32.4900   51.1290 C   0  0  0  0  0  0  0  0  0  0  0  0
   68.0081   32.5937   50.5446 H   0  0  0  0  0  0  0  0  0  0  0  0
   67.3154   32.2942   52.1860 H   0  0  0  0  0  0  0  0  0  0  0  0
   66.2730   31.3150   50.5810 C   0  0  0  0  0  0  0  0  0  0  0  0
   66.0555   31.4949   49.5178 H   0  0  0  0  0  0  0  0  0  0  0  0
   66.8656   30.3970   50.7077 H   0  0  0  0  0  0  0  0  0  0  0  0
   64.9480   31.1450   51.3410 C   0  0  0  0  0  0  0  0  0  0  0  0
   64.1627   30.8695   50.6217 H   0  0  0  0  0  0  0  0  0  0  0  0
   65.0981   30.3624   52.0993 H   0  0  0  0  0  0  0  0  0  0  0  0
   64.5150   32.4280   52.0760 C   0  0  0  0  0  0  0  0  0  0  0  0
   63.4319   32.3797   52.2617 H   0  0  0  0  0  0  0  0  0  0  0  0
   65.0843   32.4833   53.0156 H   0  0  0  0  0  0  0  0  0  0  0  0
   62.5040   33.4220   50.3210 C   0  0  0  0  0  0  0  0  0  0  0  0
   61.8418   34.2233   49.9612 H   0  0  0  0  0  0  0  0  0  0  0  0
   62.3987   33.2504   51.4024 H   0  0  0  0  0  0  0  0  0  0  0  0
   62.1150   32.1130   49.6130 C   0  0  0  0  0  0  0  0  0  0  0  0
   61.0488   31.9174   49.7999 H   0  0  0  0  0  0  0  0  0  0  0  0
   62.7572   31.3174   50.0188 H   0  0  0  0  0  0  0  0  0  0  0  0
   59.2200   31.8810   45.9120 C   0  0  0  0  0  0  0  0  0  0  0  0
   58.9386   32.9431   45.8593 H   0  0  0  0  0  0  0  0  0  0  0  0
   58.4430   30.9240   45.2380 C   0  0  0  0  0  0  0  0  0  0  0  0
   57.2700   31.3590   44.5320 N   0  0  0  0  0  0  0  0  0  0  0  0
   56.4300   32.0910   45.0940 O   0  0  0  0  0  0  0  0  0  0  0  0
   57.1770   31.1650   43.1730 O   0  0  0  0  0  0  0  0  0  0  0  0
  1  2  1  0
  2  3  1  0
  3  4  2  0
  4  5  1  0
  5  6  1  0
  5  7  1  0
  4  8  1  0
  8  9  1  0
  8 10  1  0
  8 11  1  0
 11 12  2  0
 12 13  1  0
 12 14  1  0
 14 15  1  0
 14 16  2  0
 16 17  1  0
 17 18  2  0
 17 19  1  0
 19 20  1  1
 19 21  1  0
 21 22  1  0
 21 23  1  0
 21 24  1  0
 24 25  1  0
 24 26  1  0
 24 27  1  0
 27 28  1  1
 27 29  1  0
 29 30  1  0
 30 31  1  0
 30 32  1  0
 30 33  1  0
 33 34  1  0
 33 35  1  0
 33 36  1  0
 36 37  1  0
 36 38  1  0
 36 39  1  0
 39 40  1  0
 39 41  1  0
 39 42  1  0
 42 43  1  0
 42 44  1  0
 27 45  1  0
 45 46  1  0
 45 47  1  0
 45 48  1  0
 48 49  1  0
 48 50  1  0
 16 51  1  0
 51 52  1  0
 51 53  2  0
 53 54  1  0
 54 55  2  0
 54 56  1  0
 53 11  1  0
 48 19  1  0
 42 29  1  0
M  CHG  3  19   1  54   1  56  -1
M  END
>  <UniqueID>  (48) 
46

>  <SMILES>  (48) 
N/C(Cc1ccc(C(=O)[NH+]2CCC(N3CCCCC3)CC2)cc1[N+](=O)[O-])=N/O

>  <Energy>  (48) 
92.9763700631352

>  <Genealogy>  (48) 
NC(Cc1ccc(C(=O)[NH+]2CCC(N3CCCCC3)CC2)cc1[N+](=O)[O-])=NO (protonated)
N/C(Cc1ccc(C(=O)[NH+]2CCC(N3CCCCC3)CC2)cc1[N+](=O)[O-])=N/O (cis-trans isomerization)
N/C(Cc1ccc(C(=O)[NH+]2CCC(N3CCCCC3)CC2)cc1[N+](=O)[O-])=N/O (3D coordinates assigned)
N/C(Cc1ccc(C(=O)[NH+]2CCC(N3CCCCC3)CC2)cc1[N+](=O)[O-])=N/O (nonaromatic ring conformer: 92.9763700631352 kcal/mol)

>  <smiles>  (48) 
NC(Cc1ccc(C(=O)N2CCC(N3CCCCC3)CC2)cc1[N+](=O)[O-])=NO

>  <score_type>  (48) 
oracle

>  <origin>  (48) 
adg

>  <m_score__min__energy>  (48) 
-9.2400000000000002

>  <m_primary>  (48) 
energy

$$$$
48:0
     RDKit          3D

 52 54  0  0  0  0  0  0  0  0999 V2000
   59.7290   24.8480   46.0050 O   0  0  0  0  0  0  0  0  0  0  0  0
   58.7310   25.4540   46.4760 C   0  0  0  0  0  0  0  0  0  0  0  0
   58.0360   24.8730   47.5870 N   0  0  0  0  0  0  0  0  0  0  0  0
   56.6410   24.4480   47.5600 C   0  0  0  0  0  0  0  0  0  0  0  0
   56.0850   24.6580   46.1840 C   0  0  0  0  0  0  0  0  0  0  0  0
   55.2710   25.6020   45.9930 O   0  0  0  0  0  0  0  0  0  0  0  0
   56.4310   23.7860   45.0950 N   0  0  0  0  0  0  0  0  0  0  0  0
   57.3180   22.6400   45.2100 C   0  0  0  0  0  0  0  0  0  0  0  0
   57.2450   21.9290   43.8660 C   0  0  0  0  0  0  0  0  0  0  0  0
   56.6460   22.9380   42.8900 C   0  0  0  0  0  0  0  0  0  0  0  0
   55.9170   23.9650   43.7480 C   0  0  0  0  0  0  0  0  0  0  0  0
   58.3020   26.7210   45.8550 C   0  0  0  0  0  0  0  0  0  0  0  0
   58.2370   26.8270   44.4570 C   0  0  0  0  0  0  0  0  0  0  0  0
   57.8520   28.0300   43.8570 C   0  0  0  0  0  0  0  0  0  0  0  0
   57.5440   29.1450   44.6500 C   0  0  0  0  0  0  0  0  0  0  0  0
   57.0860   30.6780   43.9150 S   0  0  0  0  0  0  0  0  0  0  0  0
   58.1760   31.1730   43.0020 O   0  0  0  0  0  0  0  0  0  0  0  0
   55.8450   30.4630   43.0980 O   0  0  0  0  0  0  0  0  0  0  0  0
   56.7540   31.8660   45.1450 N   0  0  0  0  0  0  0  0  0  0  0  0
   57.9450   32.6550   45.4820 C   0  0  0  0  0  0  0  0  0  0  0  0
   57.7850   34.0610   44.8850 C   0  0  0  0  0  0  0  0  0  0  0  0
   59.0290   34.9360   45.1410 C   0  0  0  0  0  0  0  0  0  0  0  0
   59.7490   34.6060   46.4640 C   0  0  0  0  0  0  0  0  0  0  0  0
   58.7830   34.0360   47.5050 C   0  0  0  0  0  0  0  0  0  0  0  0
   58.1360   32.7250   47.0190 C   0  0  0  0  0  0  0  0  0  0  0  0
   57.6270   29.0460   46.0440 C   0  0  0  0  0  0  0  0  0  0  0  0
   58.0110   27.8440   46.6440 C   0  0  0  0  0  0  0  0  0  0  0  0
   56.5766   23.3820   47.8234 H   0  0  0  0  0  0  0  0  0  0  0  0
   56.0620   25.0387   48.2852 H   0  0  0  0  0  0  0  0  0  0  0  0
   58.3472   22.9701   45.4143 H   0  0  0  0  0  0  0  0  0  0  0  0
   57.0223   21.9779   46.0372 H   0  0  0  0  0  0  0  0  0  0  0  0
   58.2508   21.6292   43.5368 H   0  0  0  0  0  0  0  0  0  0  0  0
   56.6361   21.0148   43.9257 H   0  0  0  0  0  0  0  0  0  0  0  0
   57.4411   23.4232   42.3049 H   0  0  0  0  0  0  0  0  0  0  0  0
   55.9659   22.4534   42.1740 H   0  0  0  0  0  0  0  0  0  0  0  0
   56.1272   24.9834   43.3892 H   0  0  0  0  0  0  0  0  0  0  0  0
   54.8263   23.8279   43.7075 H   0  0  0  0  0  0  0  0  0  0  0  0
   58.4902   25.9593   43.8301 H   0  0  0  0  0  0  0  0  0  0  0  0
   57.7906   28.1019   42.7611 H   0  0  0  0  0  0  0  0  0  0  0  0
   58.8411   32.1765   45.0601 H   0  0  0  0  0  0  0  0  0  0  0  0
   57.6296   33.9716   43.7997 H   0  0  0  0  0  0  0  0  0  0  0  0
   56.9225   34.5423   45.3692 H   0  0  0  0  0  0  0  0  0  0  0  0
   59.7368   34.7865   44.3123 H   0  0  0  0  0  0  0  0  0  0  0  0
   58.6838   35.9781   45.2107 H   0  0  0  0  0  0  0  0  0  0  0  0
   60.5378   33.8653   46.2659 H   0  0  0  0  0  0  0  0  0  0  0  0
   60.1757   35.5373   46.8647 H   0  0  0  0  0  0  0  0  0  0  0  0
   59.3362   33.8380   48.4349 H   0  0  0  0  0  0  0  0  0  0  0  0
   57.9838   34.7729   47.6732 H   0  0  0  0  0  0  0  0  0  0  0  0
   58.7774   31.8863   47.3275 H   0  0  0  0  0  0  0  0  0  0  0  0
   57.1337   32.6756   47.4695 H   0  0  0  0  0  0  0  0  0  0  0  0
   57.3888   29.9186   46.6699 H   0  0  0  0  0  0  0  0  0  0  0  0
   58.0855   27.7779   47.7395 H   0  0  0  0  0  0  0  0  0  0  0  0
  1  2  2  0
  2  3  1  0
  3  4  1  0
  4  5  1  0
  5  6  2  0
  5  7  1  0
  7  8  1  0
  8  9  1  0
  9 10  1  0
 10 11  1  0
  2 12  1  0
 12 13  2  0
 13 14  1  0
 14 15  2  0
 15 16  1  0
 16 17  2  0
 16 18  2  0
 16 19  1  0
 19 20  1  0
 20 21  1  0
 21 22  1  0
 22 23  1  0
 23 24  1  0
 24 25  1  0
 15 26  1  0
 26 27  2  0
 11  7  1  0
 27 12  1  0
 25 20  1  0
  4 28  1  0
  4 29  1  0
  8 30  1  0
  8 31  1  0
  9 32  1  0
  9 33  1  0
 10 34  1  0
 10 35  1  0
 11 36  1  0
 11 37  1  0
 13 38  1  0
 14 39  1  0
 20 40  1  0
 21 41  1  0
 21 42  1  0
 22 43  1  0
 22 44  1  0
 23 45  1  0
 23 46  1  0
 24 47  1  0
 24 48  1  0
 25 49  1  0
 25 50  1  0
 26 51  1  0
 27 52  1  0
M  CHG  2   3  -1  19  -1
M  END
>  <UniqueID>  (49) 
47

>  <SMILES>  (49) 
O=C([N-]CC(=O)N1CCCC1)c1ccc(S(=O)(=O)[N-]C2CCCCC2)cc1

>  <Energy>  (49) 
53.395931478694024

>  <Genealogy>  (49) 
O=C([N-]CC(=O)N1CCCC1)c1ccc(S(=O)(=O)[N-]C2CCCCC2)cc1 (protonated)
O=C([N-]CC(=O)N1CCCC1)c1ccc(S(=O)(=O)[N-]C2CCCCC2)cc1 (3D coordinates assigned)
O=C([N-]CC(=O)N1CCCC1)c1ccc(S(=O)(=O)[N-]C2CCCCC2)cc1 (nonaromatic ring conformer: 53.395931478694024 kcal/mol)

>  <smiles>  (49) 
O=C(NCC(=O)N1CCCC1)c1ccc(S(=O)(=O)NC2CCCCC2)cc1

>  <score_type>  (49) 
oracle

>  <origin>  (49) 
adg

>  <m_score__min__energy>  (49) 
-12.09

>  <m_primary>  (49) 
energy

$$$$
49:0
     RDKit          3D

 47 50  0  0  0  0  0  0  0  0999 V2000
   53.1200   23.6830   45.2760 C   0  0  0  0  0  0  0  0  0  0  0  0
   54.2070   24.6490   45.6090 C   0  0  0  0  0  0  0  0  0  0  0  0
   55.5310   24.3350   45.8360 C   0  0  0  0  0  0  0  0  0  0  0  0
   56.1020   25.5730   46.0880 C   0  0  0  0  0  0  0  0  0  0  0  0
   57.3480   25.8370   46.3600 N   0  0  0  0  0  0  0  0  0  0  0  0
   58.0790   27.0510   46.1100 C   0  0  0  0  0  0  0  0  0  0  0  0
   59.0660   27.3720   46.8270 O   0  0  0  0  0  0  0  0  0  0  0  0
   57.6570   27.9170   45.0310 N   0  0  2  0  0  0  0  0  0  0  0  0
   58.7930   28.2880   44.1730 C   0  0  0  0  0  0  0  0  0  0  0  0
   59.3320   29.6100   44.6850 C   0  0  0  0  0  0  0  0  0  0  0  0
   58.1180   30.3000   45.3160 C   0  0  2  0  0  0  0  0  0  0  0  0
   57.5840   31.4650   44.4360 C   0  0  0  0  0  0  0  0  0  0  0  0
   58.1660   32.7560   45.0350 C   0  0  0  0  0  0  0  0  0  0  0  0
   58.5240   32.4230   46.4050 N   0  0  0  0  0  0  0  0  0  0  0  0
   59.1540   33.3580   47.3340 C   0  0  0  0  0  0  0  0  0  0  0  0
   60.6510   33.2110   47.2830 C   0  0  0  0  0  0  0  0  0  0  0  0
   61.3020   32.2430   48.0630 C   0  0  0  0  0  0  0  0  0  0  0  0
   62.6870   32.0920   47.9750 C   0  0  0  0  0  0  0  0  0  0  0  0
   63.4100   32.9050   47.0990 C   0  0  0  0  0  0  0  0  0  0  0  0
   62.7650   33.8320   46.3430 N   0  0  0  0  0  0  0  0  0  0  0  0
   61.4180   34.0000   46.4120 C   0  0  0  0  0  0  0  0  0  0  0  0
   58.5040   31.0160   46.5650 C   0  0  0  0  0  0  0  0  0  0  0  0
   58.8300   30.4440   47.6400 O   0  0  0  0  0  0  0  0  0  0  0  0
   57.0800   29.1770   45.5400 C   0  0  0  0  0  0  0  0  0  0  0  0
   55.1660   26.5380   46.0060 N   0  0  0  0  0  0  0  0  0  0  0  0
   54.0430   25.9460   45.7200 O   0  0  0  0  0  0  0  0  0  0  0  0
   52.6798   23.2918   46.2051 H   0  0  0  0  0  0  0  0  0  0  0  0
   52.3427   24.1938   44.6887 H   0  0  0  0  0  0  0  0  0  0  0  0
   53.5360   22.8511   44.6887 H   0  0  0  0  0  0  0  0  0  0  0  0
   56.0141   23.3469   45.8208 H   0  0  0  0  0  0  0  0  0  0  0  0
   56.9430   27.4110   44.4520 H   0  0  0  0  0  0  0  0  0  0  0  0
   59.5746   27.5160   44.2285 H   0  0  0  0  0  0  0  0  0  0  0  0
   58.4756   28.3770   43.1235 H   0  0  0  0  0  0  0  0  0  0  0  0
   60.1190   29.4447   45.4355 H   0  0  0  0  0  0  0  0  0  0  0  0
   59.7882   30.2135   43.8864 H   0  0  0  0  0  0  0  0  0  0  0  0
   57.9197   31.3421   43.3957 H   0  0  0  0  0  0  0  0  0  0  0  0
   56.4843   31.4881   44.4254 H   0  0  0  0  0  0  0  0  0  0  0  0
   59.0558   33.0739   44.4718 H   0  0  0  0  0  0  0  0  0  0  0  0
   57.4456   33.5862   44.9922 H   0  0  0  0  0  0  0  0  0  0  0  0
   58.8801   34.3865   47.0562 H   0  0  0  0  0  0  0  0  0  0  0  0
   58.8062   33.1397   48.3545 H   0  0  0  0  0  0  0  0  0  0  0  0
   60.7210   31.6033   48.7436 H   0  0  0  0  0  0  0  0  0  0  0  0
   63.2039   31.3402   48.5895 H   0  0  0  0  0  0  0  0  0  0  0  0
   64.5017   32.7949   47.0210 H   0  0  0  0  0  0  0  0  0  0  0  0
   60.9273   34.7572   45.7828 H   0  0  0  0  0  0  0  0  0  0  0  0
   56.8598   29.0804   46.6134 H   0  0  0  0  0  0  0  0  0  0  0  0
   56.1436   29.4102   45.0121 H   0  0  0  0  0  0  0  0  0  0  0  0
  1  2  1  0
  2  3  2  0
  3  4  1  0
  4  5  2  3
  5  6  1  0
  6  7  2  0
  6  8  1  0
  8  9  1  0
  9 10  1  0
 11 10  1  6
 11 12  1  0
 12 13  1  0
 13 14  1  0
 14 15  1  0
 15 16  1  0
 16 17  2  0
 17 18  1  0
 18 19  2  0
 19 20  1  0
 20 21  2  0
 14 22  1  0
 22 23  2  0
 11 24  1  0
  4 25  1  0
 25 26  1  0
 26  2  1  0
 24  8  1  0
 22 11  1  0
 21 16  1  0
  1 27  1  0
  1 28  1  0
  1 29  1  0
  3 30  1  0
  8 31  1  6
  9 32  1  0
  9 33  1  0
 10 34  1  0
 10 35  1  0
 12 36  1  0
 12 37  1  0
 13 38  1  0
 13 39  1  0
 15 40  1  0
 15 41  1  0
 17 42  1  0
 18 43  1  0
 19 44  1  0
 21 45  1  0
 24 46  1  0
 24 47  1  0
M  CHG  2   8   1  25  -1
M  END
>  <UniqueID>  (50) 
48

>  <SMILES>  (50) 
Cc1cc(=NC(=O)[N@@H+]2CC[C@@]3(CCN(Cc4cccnc4)C3=O)C2)[n-]o1

>  <Energy>  (50) 
98.10661984483565

>  <Genealogy>  (50) 
Cc1cc(=NC(=O)[NH+]2CCC3(CCN(Cc4cccnc4)C3=O)C2)[n-]o1 (protonated)
Cc1cc(=NC(=O)[N@@H+]2CC[C@@]3(CCN(Cc4cccnc4)C3=O)C2)[n-]o1 (chirality)
Cc1cc(=NC(=O)[N@@H+]2CC[C@@]3(CCN(Cc4cccnc4)C3=O)C2)[n-]o1 (3D coordinates assigned)
Cc1cc(=NC(=O)[N@@H+]2CC[C@@]3(CCN(Cc4cccnc4)C3=O)C2)[n-]o1 (nonaromatic ring conformer: 98.10661984483565 kcal/mol)

>  <smiles>  (50) 
Cc1cc(=NC(=O)N2CCC3(CCN(Cc4cccnc4)C3=O)C2)[nH]o1

>  <score_type>  (50) 
oracle

>  <origin>  (50) 
adg

>  <m_score__min__energy>  (50) 
-9.4000000000000004

>  <m_primary>  (50) 
energy

$$$$
50:0
     RDKit          3D

 54 57  0  0  0  0  0  0  0  0999 V2000
   68.9590   35.0080   50.6980 C   0  0  0  0  0  0  0  0  0  0  0  0
   67.8140   34.4290   51.3110 O   0  0  0  0  0  0  0  0  0  0  0  0
   67.1750   33.2960   50.7980 C   0  0  0  0  0  0  0  0  0  0  0  0
   67.8410   32.2690   50.4910 O   0  0  0  0  0  0  0  0  0  0  0  0
   65.7160   33.3040   50.6170 C   0  0  0  0  0  0  0  0  0  0  0  0
   65.0080   32.4450   49.7960 C   0  0  0  0  0  0  0  0  0  0  0  0
   63.6820   32.8120   49.9450 C   0  0  0  0  0  0  0  0  0  0  0  0
   62.5300   32.2150   49.3350 N   0  0  0  0  0  0  0  0  0  0  0  0
   62.1560   32.3010   47.9520 C   0  0  0  0  0  0  0  0  0  0  0  0
   63.0210   32.1400   47.0500 O   0  0  0  0  0  0  0  0  0  0  0  0
   60.7560   32.6170   47.5830 C   0  0  0  0  0  0  0  0  0  0  0  0
   60.2340   33.9060   47.8060 C   0  0  0  0  0  0  0  0  0  0  0  0
   58.9120   34.2020   47.4690 C   0  0  0  0  0  0  0  0  0  0  0  0
   58.0920   33.2190   46.9130 C   0  0  0  0  0  0  0  0  0  0  0  0
   58.5790   31.9260   46.7050 C   0  0  0  0  0  0  0  0  0  0  0  0
   57.7070   30.9610   46.1750 O   0  0  0  0  0  0  0  0  0  0  0  0
   57.2960   30.8830   44.8360 C   0  0  0  0  0  0  0  0  0  0  0  0
   57.8150   31.8230   43.9360 C   0  0  0  0  0  0  0  0  0  0  0  0
   57.4960   31.7600   42.5780 C   0  0  0  0  0  0  0  0  0  0  0  0
   56.6480   30.7570   42.1060 C   0  0  0  0  0  0  0  0  0  0  0  0
   56.0990   29.8310   42.9970 C   0  0  0  0  0  0  0  0  0  0  0  0
   56.3850   29.9040   44.3660 C   0  0  0  0  0  0  0  0  0  0  0  0
   55.7470   28.9620   45.2420 N   0  0  0  0  0  0  0  0  0  0  0  0
   56.2890   27.6940   45.6180 C   0  0  0  0  0  0  0  0  0  0  0  0
   55.5250   26.7680   46.0020 O   0  0  0  0  0  0  0  0  0  0  0  0
   57.6990   27.4820   45.4900 N   0  0  0  0  0  0  0  0  0  0  0  0
   58.6990   27.5590   46.5190 C   0  0  0  0  0  0  0  0  0  0  0  0
   59.7950   26.6760   46.5800 C   0  0  0  0  0  0  0  0  0  0  0  0
   60.7200   26.7730   47.6230 C   0  0  0  0  0  0  0  0  0  0  0  0
   60.5570   27.7380   48.6190 C   0  0  0  0  0  0  0  0  0  0  0  0
   59.4610   28.6070   48.5780 C   0  0  0  0  0  0  0  0  0  0  0  0
   59.2520   29.8130   49.8350 Cl  0  0  0  0  0  0  0  0  0  0  0  0
   58.5340   28.5120   47.5350 C   0  0  0  0  0  0  0  0  0  0  0  0
   59.9220   31.6350   47.0180 C   0  0  0  0  0  0  0  0  0  0  0  0
   63.6340   33.8530   50.8480 C   0  0  0  0  0  0  0  0  0  0  0  0
   64.8810   34.1570   51.2480 N   0  0  0  0  0  0  0  0  0  0  0  0
   69.6532   35.3590   51.4757 H   0  0  0  0  0  0  0  0  0  0  0  0
   69.4601   34.2549   50.0720 H   0  0  0  0  0  0  0  0  0  0  0  0
   68.6495   35.8579   50.0720 H   0  0  0  0  0  0  0  0  0  0  0  0
   65.4121   31.6427   49.1612 H   0  0  0  0  0  0  0  0  0  0  0  0
   60.8724   34.6848   48.2487 H   0  0  0  0  0  0  0  0  0  0  0  0
   58.5153   35.2133   47.6422 H   0  0  0  0  0  0  0  0  0  0  0  0
   57.0557   33.4637   46.6368 H   0  0  0  0  0  0  0  0  0  0  0  0
   58.4803   32.6185   44.3028 H   0  0  0  0  0  0  0  0  0  0  0  0
   57.9131   32.5010   41.8802 H   0  0  0  0  0  0  0  0  0  0  0  0
   56.4120   30.6954   41.0334 H   0  0  0  0  0  0  0  0  0  0  0  0
   55.4365   29.0380   42.6199 H   0  0  0  0  0  0  0  0  0  0  0  0
   59.9232   25.9073   45.8037 H   0  0  0  0  0  0  0  0  0  0  0  0
   61.5792   26.0871   47.6595 H   0  0  0  0  0  0  0  0  0  0  0  0
   61.2899   27.8150   49.4356 H   0  0  0  0  0  0  0  0  0  0  0  0
   57.6683   29.1903   47.5112 H   0  0  0  0  0  0  0  0  0  0  0  0
   60.3221   30.6300   46.8185 H   0  0  0  0  0  0  0  0  0  0  0  0
   62.7173   34.3567   51.1884 H   0  0  0  0  0  0  0  0  0  0  0  0
   65.1430   34.9040   51.9310 H   0  0  0  0  0  0  0  0  0  0  0  0
  1  2  1  0
  2  3  1  0
  3  4  2  0
  3  5  1  0
  5  6  2  0
  6  7  1  0
  7  8  1  0
  8  9  1  0
  9 10  2  0
  9 11  1  0
 11 12  2  0
 12 13  1  0
 13 14  2  0
 14 15  1  0
 15 16  1  0
 16 17  1  0
 17 18  2  0
 18 19  1  0
 19 20  2  0
 20 21  1  0
 21 22  2  0
 22 23  1  0
 23 24  1  0
 24 25  2  0
 24 26  1  0
 26 27  1  0
 27 28  2  0
 28 29  1  0
 29 30  2  0
 30 31  1  0
 31 32  1  0
 31 33  2  0
 15 34  2  0
  7 35  2  0
 35 36  1  0
 36  5  1  0
 34 11  1  0
 22 17  1  0
 33 27  1  0
  1 37  1  0
  1 38  1  0
  1 39  1  0
  6 40  1  0
 12 41  1  0
 13 42  1  0
 14 43  1  0
 18 44  1  0
 19 45  1  0
 20 46  1  0
 21 47  1  0
 28 48  1  0
 29 49  1  0
 30 50  1  0
 33 51  1  0
 34 52  1  0
 35 53  1  0
 36 54  1  0
M  CHG  3   8  -1  23  -1  26  -1
M  END
>  <UniqueID>  (51) 
49

>  <SMILES>  (51) 
COC(=O)c1cc([N-]C(=O)c2cccc(Oc3ccccc3[N-]C(=O)[N-]c3cccc(Cl)c3)c2)c[nH]1

>  <Energy>  (51) 
98.25692611722025

>  <Genealogy>  (51) 
COC(=O)c1cc([N-]C(=O)c2cccc(Oc3ccccc3[N-]C(=O)[N-]c3cccc(Cl)c3)c2)c[nH]1 (protonated)
COC(=O)c1cc([N-]C(=O)c2cccc(Oc3ccccc3[N-]C(=O)[N-]c3cccc(Cl)c3)c2)c[nH]1 (3D coordinates assigned)
COC(=O)c1cc([N-]C(=O)c2cccc(Oc3ccccc3[N-]C(=O)[N-]c3cccc(Cl)c3)c2)c[nH]1 (optimized conformer: 98.25692611722025 kcal/mol)

>  <smiles>  (51) 
COC(=O)c1cc(NC(=O)c2cccc(Oc3ccccc3NC(=O)Nc3cccc(Cl)c3)c2)c[nH]1

>  <score_type>  (51) 
oracle

>  <origin>  (51) 
adg

>  <m_score__min__energy>  (51) 
-14.69

>  <m_primary>  (51) 
energy

$$$$
51:0
     RDKit          3D

 42 44  0  0  0  0  0  0  0  0999 V2000
   59.6530   33.2380   49.0300 C   0  0  0  0  0  0  0  0  0  0  0  0
   58.9090   32.2450   48.1870 C   0  0  0  0  0  0  0  0  0  0  0  0
   58.6260   31.1240   48.6920 O   0  0  0  0  0  0  0  0  0  0  0  0
   58.5070   32.5450   46.7850 C   0  0  0  0  0  0  0  0  0  0  0  0
   58.5050   33.8740   46.3260 C   0  0  0  0  0  0  0  0  0  0  0  0
   58.1400   34.1710   45.0130 C   0  0  0  0  0  0  0  0  0  0  0  0
   57.7700   33.1490   44.1400 C   0  0  0  0  0  0  0  0  0  0  0  0
   57.7560   31.8130   44.5640 C   0  0  0  0  0  0  0  0  0  0  0  0
   57.3430   30.7570   43.5510 C   0  0  2  0  0  0  0  0  0  0  0  0
   55.9300   30.1920   43.6900 C   0  0  0  0  0  0  0  0  0  0  0  0
   57.1380   29.3340   44.0660 C   0  0  1  0  0  0  0  0  0  0  0  0
   57.4770   28.2170   43.0680 C   0  0  0  0  0  0  0  0  0  0  0  0
   58.0680   26.9870   43.7710 C   0  0  0  0  0  0  0  0  0  0  0  0
   58.5920   27.3200   45.1570 C   0  0  0  0  0  0  0  0  0  0  0  0
   59.8560   27.9350   45.2420 C   0  0  0  0  0  0  0  0  0  0  0  0
   60.3600   28.3680   46.4680 C   0  0  0  0  0  0  0  0  0  0  0  0
   59.6060   28.2120   47.6280 C   0  0  0  0  0  0  0  0  0  0  0  0
   58.3490   27.6130   47.5680 C   0  0  0  0  0  0  0  0  0  0  0  0
   57.8280   27.1470   46.3480 C   0  0  0  0  0  0  0  0  0  0  0  0
   56.4910   26.5150   46.3760 C   0  0  0  0  0  0  0  0  0  0  0  0
   55.5170   27.0280   45.7650 O   0  0  0  0  0  0  0  0  0  0  0  0
   56.3170   25.2990   47.0250 O   0  0  0  0  0  0  0  0  0  0  0  0
   58.1260   31.5190   45.8960 C   0  0  0  0  0  0  0  0  0  0  0  0
   59.4854   33.0143   50.0939 H   0  0  0  0  0  0  0  0  0  0  0  0
   60.7284   33.1754   48.8071 H   0  0  0  0  0  0  0  0  0  0  0  0
   59.2908   34.2525   48.8071 H   0  0  0  0  0  0  0  0  0  0  0  0
   58.7939   34.6868   47.0085 H   0  0  0  0  0  0  0  0  0  0  0  0
   58.1441   35.2146   44.6653 H   0  0  0  0  0  0  0  0  0  0  0  0
   57.4856   33.3940   43.1060 H   0  0  0  0  0  0  0  0  0  0  0  0
   57.9287   31.2086   42.7368 H   0  0  0  0  0  0  0  0  0  0  0  0
   55.2600   30.5728   44.4749 H   0  0  0  0  0  0  0  0  0  0  0  0
   55.0701   30.0717   43.0146 H   0  0  0  0  0  0  0  0  0  0  0  0
   57.4540   28.7781   44.9611 H   0  0  0  0  0  0  0  0  0  0  0  0
   56.5586   27.9192   42.5409 H   0  0  0  0  0  0  0  0  0  0  0  0
   58.2285   28.6032   42.3636 H   0  0  0  0  0  0  0  0  0  0  0  0
   57.2849   26.2199   43.8624 H   0  0  0  0  0  0  0  0  0  0  0  0
   58.9126   26.6240   43.1670 H   0  0  0  0  0  0  0  0  0  0  0  0
   60.4536   28.0757   44.3293 H   0  0  0  0  0  0  0  0  0  0  0  0
   61.3552   28.8337   46.5187 H   0  0  0  0  0  0  0  0  0  0  0  0
   60.0027   28.5618   48.5925 H   0  0  0  0  0  0  0  0  0  0  0  0
   57.7561   27.5033   48.4880 H   0  0  0  0  0  0  0  0  0  0  0  0
   58.1166   30.4755   46.2439 H   0  0  0  0  0  0  0  0  0  0  0  0
  1  2  1  0
  2  3  2  0
  2  4  1  0
  4  5  2  0
  5  6  1  0
  6  7  2  0
  7  8  1  0
  8  9  1  0
  9 10  1  0
 10 11  1  0
 11 12  1  0
 12 13  1  0
 13 14  1  0
 14 15  2  0
 15 16  1  0
 16 17  2  0
 17 18  1  0
 18 19  2  0
 19 20  1  0
 20 21  2  0
 20 22  1  0
  8 23  2  0
 23  4  1  0
 11  9  1  0
 19 14  1  0
  1 24  1  0
  1 25  1  0
  1 26  1  0
  5 27  1  0
  6 28  1  0
  7 29  1  0
  9 30  1  6
 10 31  1  0
 10 32  1  0
 11 33  1  1
 12 34  1  0
 12 35  1  0
 13 36  1  0
 13 37  1  0
 15 38  1  0
 16 39  1  0
 17 40  1  0
 18 41  1  0
 23 42  1  0
M  CHG  1  22  -1
M  END
>  <UniqueID>  (52) 
50

>  <SMILES>  (52) 
CC(=O)c1cccc([C@@H]2C[C@H]2CCc2ccccc2C(=O)[O-])c1

>  <Energy>  (52) 
316.2049919636501

>  <Genealogy>  (52) 
CC(=O)c1cccc(C2CC2CCc2ccccc2C(=O)[O-])c1 (protonated)
CC(=O)c1cccc([C@@H]2C[C@H]2CCc2ccccc2C(=O)[O-])c1 (chirality)
CC(=O)c1cccc([C@@H]2C[C@H]2CCc2ccccc2C(=O)[O-])c1 (3D coordinates assigned)
CC(=O)c1cccc([C@@H]2C[C@H]2CCc2ccccc2C(=O)[O-])c1 (nonaromatic ring conformer: 316.2049919636501 kcal/mol)

>  <smiles>  (52) 
CC(=O)c1cccc(C2CC2CCc2ccccc2C(=O)O)c1

>  <score_type>  (52) 
oracle

>  <origin>  (52) 
adg

>  <m_score__min__energy>  (52) 
-11.67

>  <m_primary>  (52) 
energy

$$$$
52:0
     RDKit          3D

 68 71  0  0  0  0  0  0  0  0999 V2000
   58.6636   31.3232   42.0435 H   0  0  0  0  0  0  0  0  0  0  0  0
   58.1400   31.5950   42.9720 C   0  0  0  0  0  0  0  0  0  0  0  0
   57.9320   32.9000   43.2170 C   0  0  0  0  0  0  0  0  0  0  0  0
   57.4153   33.4925   42.4476 H   0  0  0  0  0  0  0  0  0  0  0  0
   58.3620   33.6040   44.4800 C   0  0  0  0  0  0  0  0  0  0  0  0
   59.3237   33.1822   44.8074 H   0  0  0  0  0  0  0  0  0  0  0  0
   58.4439   34.6765   44.2497 H   0  0  0  0  0  0  0  0  0  0  0  0
   57.3410   33.4520   45.6270 C   0  0  0  0  0  0  0  0  0  0  0  0
   56.4773   34.0978   45.4102 H   0  0  0  0  0  0  0  0  0  0  0  0
   57.0693   32.3872   45.6748 H   0  0  0  0  0  0  0  0  0  0  0  0
   57.8780   33.8210   46.9600 N   0  0  0  0  0  0  0  0  0  0  0  0
   57.0870   34.1880   47.5420 H   0  0  0  0  0  0  0  0  0  0  0  0
   58.9140   34.8970   46.8750 C   0  0  0  0  0  0  0  0  0  0  0  0
   58.9151   35.3018   45.8522 H   0  0  0  0  0  0  0  0  0  0  0  0
   58.6536   35.6624   47.6209 H   0  0  0  0  0  0  0  0  0  0  0  0
   60.3290   34.3990   47.2050 C   0  0  0  0  0  0  0  0  0  0  0  0
   60.6240   33.6385   46.4670 H   0  0  0  0  0  0  0  0  0  0  0  0
   61.0187   35.2553   47.1723 H   0  0  0  0  0  0  0  0  0  0  0  0
   60.3790   33.8050   48.5580 N   0  0  0  0  0  0  0  0  0  0  0  0
   61.6430   33.0720   48.7370 C   0  0  0  0  0  0  0  0  0  0  0  0
   61.8487   32.9527   49.8110 H   0  0  0  0  0  0  0  0  0  0  0  0
   61.5618   32.0808   48.2669 H   0  0  0  0  0  0  0  0  0  0  0  0
   62.4629   33.6347   48.2669 H   0  0  0  0  0  0  0  0  0  0  0  0
   59.2070   32.9530   48.8830 C   0  0  0  0  0  0  0  0  0  0  0  0
   59.5672   32.0203   49.3417 H   0  0  0  0  0  0  0  0  0  0  0  0
   58.5633   33.5235   49.5687 H   0  0  0  0  0  0  0  0  0  0  0  0
   58.3660   32.5990   47.6470 C   0  0  0  0  0  0  0  0  0  0  0  0
   58.9841   32.0171   46.9475 H   0  0  0  0  0  0  0  0  0  0  0  0
   57.4947   32.0134   47.9754 H   0  0  0  0  0  0  0  0  0  0  0  0
   57.7110   30.5010   43.8690 C   0  0  0  0  0  0  0  0  0  0  0  0
   56.3580   30.1990   44.0650 C   0  0  0  0  0  0  0  0  0  0  0  0
   55.5840   30.8303   43.6041 H   0  0  0  0  0  0  0  0  0  0  0  0
   55.9860   29.1000   44.8430 C   0  0  0  0  0  0  0  0  0  0  0  0
   54.9196   28.9000   45.0244 H   0  0  0  0  0  0  0  0  0  0  0  0
   56.9600   28.2420   45.4000 C   0  0  0  0  0  0  0  0  0  0  0  0
   56.6560   27.0300   46.0960 C   0  0  0  0  0  0  0  0  0  0  0  0
   55.5200   26.3850   46.0250 N   0  0  0  0  0  0  0  0  0  0  0  0
   55.2230   24.9800   45.9960 C   0  0  0  0  0  0  0  0  0  0  0  0
   53.9990   24.5010   45.5130 C   0  0  0  0  0  0  0  0  0  0  0  0
   53.2327   25.2132   45.1732 H   0  0  0  0  0  0  0  0  0  0  0  0
   53.7370   23.1160   45.4570 C   0  0  0  0  0  0  0  0  0  0  0  0
   52.4970   22.6300   45.0120 O   0  0  0  0  0  0  0  0  0  0  0  0
   51.2760   23.3640   45.0260 C   0  0  0  0  0  0  0  0  0  0  0  0
   50.9705   23.5477   46.0666 H   0  0  0  0  0  0  0  0  0  0  0  0
   51.4201   24.3253   44.5111 H   0  0  0  0  0  0  0  0  0  0  0  0
   50.4947   22.7858   44.5111 H   0  0  0  0  0  0  0  0  0  0  0  0
   54.7550   22.2020   45.8350 C   0  0  0  0  0  0  0  0  0  0  0  0
   54.5890   20.8040   45.8240 O   0  0  0  0  0  0  0  0  0  0  0  0
   54.3780   19.9740   46.9630 C   0  0  0  0  0  0  0  0  0  0  0  0
   54.5279   20.5638   47.8793 H   0  0  0  0  0  0  0  0  0  0  0  0
   53.3511   19.5800   46.9444 H   0  0  0  0  0  0  0  0  0  0  0  0
   55.0920   19.1375   46.9444 H   0  0  0  0  0  0  0  0  0  0  0  0
   56.0140   22.6880   46.2230 C   0  0  0  0  0  0  0  0  0  0  0  0
   57.0220   21.7580   46.5170 O   0  0  0  0  0  0  0  0  0  0  0  0
   57.7290   20.9980   45.5440 C   0  0  0  0  0  0  0  0  0  0  0  0
   58.3943   20.2828   46.0499 H   0  0  0  0  0  0  0  0  0  0  0  0
   57.0121   20.4500   44.9149 H   0  0  0  0  0  0  0  0  0  0  0  0
   58.3273   21.6735   44.9149 H   0  0  0  0  0  0  0  0  0  0  0  0
   56.2370   24.0750   46.3040 C   0  0  0  0  0  0  0  0  0  0  0  0
   57.2237   24.4495   46.6142 H   0  0  0  0  0  0  0  0  0  0  0  0
   57.6290   26.4610   46.8570 N   0  0  0  0  0  0  0  0  0  0  0  0
   58.9070   26.9140   46.8890 C   0  0  0  0  0  0  0  0  0  0  0  0
   59.6460   26.4304   47.5448 H   0  0  0  0  0  0  0  0  0  0  0  0
   59.2820   27.9880   46.0940 C   0  0  0  0  0  0  0  0  0  0  0  0
   60.3354   28.3014   46.0481 H   0  0  0  0  0  0  0  0  0  0  0  0
   58.3140   28.6680   45.3530 C   0  0  0  0  0  0  0  0  0  0  0  0
   58.6790   29.7800   44.5790 C   0  0  0  0  0  0  0  0  0  0  0  0
   59.7339   30.0878   44.5295 H   0  0  0  0  0  0  0  0  0  0  0  0
  1  2  1  0
  2  3  2  0
  3  4  1  0
  3  5  1  0
  5  6  1  0
  5  7  1  0
  5  8  1  0
  8  9  1  0
  8 10  1  0
  8 11  1  0
 11 12  1  0
 11 13  1  0
 13 14  1  0
 13 15  1  0
 13 16  1  0
 16 17  1  0
 16 18  1  0
 16 19  1  0
 19 20  1  0
 20 21  1  0
 20 22  1  0
 20 23  1  0
 19 24  1  0
 24 25  1  0
 24 26  1  0
 24 27  1  0
 27 28  1  0
 27 29  1  0
  2 30  1  0
 30 31  2  0
 31 32  1  0
 31 33  1  0
 33 34  1  0
 33 35  2  0
 35 36  1  0
 36 37  2  0
 37 38  1  0
 38 39  2  0
 39 40  1  0
 39 41  1  0
 41 42  1  0
 42 43  1  0
 43 44  1  0
 43 45  1  0
 43 46  1  0
 41 47  2  0
 47 48  1  0
 48 49  1  0
 49 50  1  0
 49 51  1  0
 49 52  1  0
 47 53  1  0
 53 54  1  0
 54 55  1  0
 55 56  1  0
 55 57  1  0
 55 58  1  0
 53 59  2  0
 59 60  1  0
 36 61  1  0
 61 62  1  0
 62 63  1  0
 62 64  2  0
 64 65  1  0
 64 66  1  0
 66 67  2  0
 67 68  1  0
 27 11  1  0
 67 30  1  0
 66 35  1  0
 59 38  1  0
M  CHG  2  11   1  61  -1
M  END
>  <UniqueID>  (53) 
51

>  <SMILES>  (53) 
COc1cc(/N=c2/[n-]ccc3cc(/C=C\CC[NH+]4CCN(C)CC4)ccc23)cc(OC)c1OC

>  <Energy>  (53) 
114.9852841095625

>  <Genealogy>  (53) 
COc1cc(N=c2[n-]ccc3cc(C=CCC[NH+]4CCN(C)CC4)ccc23)cc(OC)c1OC (protonated)
COc1cc(/N=c2/[n-]ccc3cc(/C=C\CC[NH+]4CCN(C)CC4)ccc23)cc(OC)c1OC (cis-trans isomerization)
COc1cc(/N=c2/[n-]ccc3cc(/C=C\CC[NH+]4CCN(C)CC4)ccc23)cc(OC)c1OC (3D coordinates assigned)
COc1cc(/N=c2/[n-]ccc3cc(/C=C\CC[NH+]4CCN(C)CC4)ccc23)cc(OC)c1OC (nonaromatic ring conformer: 114.9852841095625 kcal/mol)

>  <smiles>  (53) 
COc1cc(N=c2[nH]ccc3cc(C=CCCN4CCN(C)CC4)ccc23)cc(OC)c1OC

>  <score_type>  (53) 
oracle

>  <origin>  (53) 
adg

>  <m_score__min__energy>  (53) 
-9.2200000000000006

>  <m_primary>  (53) 
energy

$$$$
53:0
     RDKit          3D

 32 34  0  0  0  0  0  0  0  0999 V2000
   59.0861   28.8940   43.4902 H   0  0  0  0  0  0  0  0  0  0  0  0
   59.1880   29.0520   44.5740 C   0  0  0  0  0  0  0  0  0  0  0  0
   58.2030   29.3240   45.4270 C   0  0  0  0  0  0  0  0  0  0  0  0
   56.7950   29.5570   45.0530 C   0  0  0  0  0  0  0  0  0  0  0  0
   55.9640   28.6160   45.1540 O   0  0  0  0  0  0  0  0  0  0  0  0
   56.3350   30.8470   44.6260 N   0  0  0  0  0  0  0  0  0  0  0  0
   57.0040   31.9580   44.7300 C   0  0  0  0  0  0  0  0  0  0  0  0
   56.9000   32.7620   45.8090 N   0  0  0  0  0  0  0  0  0  0  0  0
   57.6670   33.8770   45.6820 C   0  0  0  0  0  0  0  0  0  0  0  0
   57.7197   34.6483   46.4645 H   0  0  0  0  0  0  0  0  0  0  0  0
   58.3810   33.9730   44.4910 C   0  0  0  0  0  0  0  0  0  0  0  0
   59.0542   34.7949   44.2057 H   0  0  0  0  0  0  0  0  0  0  0  0
   58.0350   32.6140   43.5650 S   0  0  0  0  0  0  0  0  0  0  0  0
   58.7790   29.4110   46.7710 C   0  0  0  0  0  0  0  0  0  0  0  0
   58.1330   29.6330   47.8300 O   0  0  0  0  0  0  0  0  0  0  0  0
   60.1860   29.2050   46.7320 N   0  0  0  0  0  0  0  0  0  0  0  0
   61.1440   29.7320   47.7000 C   0  0  0  0  0  0  0  0  0  0  0  0
   60.6844   29.7388   48.6994 H   0  0  0  0  0  0  0  0  0  0  0  0
   62.0396   29.0934   47.7031 H   0  0  0  0  0  0  0  0  0  0  0  0
   61.5420   31.1350   47.3260 C   0  0  0  0  0  0  0  0  0  0  0  0
   60.5640   32.0780   46.9730 C   0  0  0  0  0  0  0  0  0  0  0  0
   59.5074   31.7769   46.9187 H   0  0  0  0  0  0  0  0  0  0  0  0
   60.9270   33.3990   46.6900 C   0  0  0  0  0  0  0  0  0  0  0  0
   60.1569   34.1322   46.4082 H   0  0  0  0  0  0  0  0  0  0  0  0
   62.2670   33.7880   46.7650 C   0  0  0  0  0  0  0  0  0  0  0  0
   62.5511   34.8274   46.5437 H   0  0  0  0  0  0  0  0  0  0  0  0
   63.2460   32.8570   47.1210 C   0  0  0  0  0  0  0  0  0  0  0  0
   64.3008   33.1641   47.1772 H   0  0  0  0  0  0  0  0  0  0  0  0
   62.8880   31.5360   47.4060 C   0  0  0  0  0  0  0  0  0  0  0  0
   63.6610   30.8081   47.6936 H   0  0  0  0  0  0  0  0  0  0  0  0
   60.4300   29.0020   45.3430 C   0  0  0  0  0  0  0  0  0  0  0  0
   61.5760   28.8350   44.8480 O   0  0  0  0  0  0  0  0  0  0  0  0
  1  2  1  0
  2  3  2  0
  3  4  1  0
  4  5  2  0
  4  6  1  0
  6  7  2  0
  7  8  1  0
  8  9  1  0
  9 10  1  0
  9 11  2  0
 11 12  1  0
 11 13  1  0
  3 14  1  0
 14 15  2  0
 14 16  1  0
 16 17  1  0
 17 18  1  0
 17 19  1  0
 17 20  1  0
 20 21  2  0
 21 22  1  0
 21 23  1  0
 23 24  1  0
 23 25  2  0
 25 26  1  0
 25 27  1  0
 27 28  1  0
 27 29  2  0
 29 30  1  0
 16 31  1  0
 31 32  2  0
 31  2  1  0
 13  7  1  0
 29 20  1  0
M  CHG  1   8  -1
M  END
>  <UniqueID>  (54) 
52

>  <SMILES>  (54) 
O=C(/N=c1/[n-]ccs1)C1=CC(=O)N(Cc2ccccc2)C1=O

>  <Energy>  (54) 
94.43164918973181

>  <Genealogy>  (54) 
O=C(N=c1[n-]ccs1)C1=CC(=O)N(Cc2ccccc2)C1=O (protonated)
O=C(/N=c1/[n-]ccs1)C1=CC(=O)N(Cc2ccccc2)C1=O (cis-trans isomerization)
O=C(/N=c1/[n-]ccs1)C1=CC(=O)N(Cc2ccccc2)C1=O (3D coordinates assigned)
O=C(/N=c1/[n-]ccs1)C1=CC(=O)N(Cc2ccccc2)C1=O (nonaromatic ring conformer: 94.43164918973181 kcal/mol)

>  <smiles>  (54) 
O=C(N=c1[nH]ccs1)C1=CC(=O)N(Cc2ccccc2)C1=O

>  <score_type>  (54) 
oracle

>  <origin>  (54) 
adg

>  <m_score__min__energy>  (54) 
-10.109999999999999

>  <m_primary>  (54) 
energy

$$$$
54:0
     RDKit          3D

 53 57  0  0  0  0  0  0  0  0999 V2000
   62.1920   33.8630   51.4260 O   0  0  0  0  0  0  0  0  0  0  0  0
   61.9690   32.9360   50.6010 C   0  0  0  0  0  0  0  0  0  0  0  0
   61.1940   31.8870   50.9750 N   0  0  0  0  0  0  0  0  0  0  0  0
   60.9190   30.8860   50.1410 N   0  0  0  0  0  0  0  0  0  0  0  0
   61.3950   30.8500   48.8680 C   0  0  0  0  0  0  0  0  0  0  0  0
   60.9920   29.7150   48.0120 C   0  0  0  0  0  0  0  0  0  0  0  0
   60.9760   29.8420   46.6150 C   0  0  0  0  0  0  0  0  0  0  0  0
   60.5610   28.7740   45.8150 C   0  0  0  0  0  0  0  0  0  0  0  0
   60.1260   27.5720   46.3990 C   0  0  0  0  0  0  0  0  0  0  0  0
   59.6830   26.4260   45.5230 C   0  0  0  0  0  0  0  0  0  0  0  0
   58.2690   26.0900   45.7510 N   0  0  0  0  0  0  0  0  0  0  0  0
   57.2120   26.9340   45.7480 C   0  0  0  0  0  0  0  0  0  0  0  0
   57.2530   28.4060   45.4460 C   0  0  0  0  0  0  0  0  0  0  0  0
   57.7320   29.1970   46.6650 C   0  0  0  0  0  0  0  0  0  0  0  0
   58.0000   30.6290   46.2880 C   0  0  0  0  0  0  0  0  0  0  0  0
   58.4170   31.5500   47.2630 C   0  0  0  0  0  0  0  0  0  0  0  0
   58.6280   32.8900   46.9210 C   0  0  0  0  0  0  0  0  0  0  0  0
   58.4150   33.3200   45.6090 C   0  0  0  0  0  0  0  0  0  0  0  0
   57.9860   32.4110   44.6360 C   0  0  0  0  0  0  0  0  0  0  0  0
   57.7730   31.0720   44.9740 C   0  0  0  0  0  0  0  0  0  0  0  0
   56.0750   26.1860   45.9510 C   0  0  0  0  0  0  0  0  0  0  0  0
   54.7780   26.6840   45.9890 O   0  0  0  0  0  0  0  0  0  0  0  0
   56.3830   24.8850   46.0960 N   0  0  0  0  0  0  0  0  0  0  0  0
   57.7280   24.8630   45.9670 C   0  0  0  0  0  0  0  0  0  0  0  0
   58.5820   23.4650   46.0340 S   0  0  0  0  0  0  0  0  0  0  0  0
   60.1390   27.4480   47.8010 C   0  0  0  0  0  0  0  0  0  0  0  0
   59.7510   26.2950   48.4000 F   0  0  0  0  0  0  0  0  0  0  0  0
   60.5580   28.5190   48.5990 C   0  0  0  0  0  0  0  0  0  0  0  0
   62.2350   31.8970   48.4210 C   0  0  0  0  0  0  0  0  0  0  0  0
   62.8310   31.8970   47.1410 C   0  0  0  0  0  0  0  0  0  0  0  0
   63.6490   32.9550   46.7410 C   0  0  0  0  0  0  0  0  0  0  0  0
   63.8980   34.0190   47.6070 C   0  0  0  0  0  0  0  0  0  0  0  0
   63.3400   34.0270   48.8860 C   0  0  0  0  0  0  0  0  0  0  0  0
   62.5140   32.9670   49.3080 C   0  0  0  0  0  0  0  0  0  0  0  0
   61.2915   30.7863   46.1473 H   0  0  0  0  0  0  0  0  0  0  0  0
   60.5749   28.8749   44.7197 H   0  0  0  0  0  0  0  0  0  0  0  0
   59.8179   26.7089   44.4686 H   0  0  0  0  0  0  0  0  0  0  0  0
   60.2923   25.5447   45.7724 H   0  0  0  0  0  0  0  0  0  0  0  0
   57.9424   28.5831   44.6074 H   0  0  0  0  0  0  0  0  0  0  0  0
   56.2384   28.7409   45.1845 H   0  0  0  0  0  0  0  0  0  0  0  0
   56.9566   29.1663   47.4447 H   0  0  0  0  0  0  0  0  0  0  0  0
   58.6627   28.7463   47.0400 H   0  0  0  0  0  0  0  0  0  0  0  0
   58.5782   31.2166   48.2988 H   0  0  0  0  0  0  0  0  0  0  0  0
   58.9621   33.6061   47.6863 H   0  0  0  0  0  0  0  0  0  0  0  0
   58.5846   34.3733   45.3410 H   0  0  0  0  0  0  0  0  0  0  0  0
   57.8162   32.7507   43.6037 H   0  0  0  0  0  0  0  0  0  0  0  0
   57.4263   30.3621   44.2086 H   0  0  0  0  0  0  0  0  0  0  0  0
   54.0240   26.1310   46.3790 H   0  0  0  0  0  0  0  0  0  0  0  0
   60.5465   28.4210   49.6946 H   0  0  0  0  0  0  0  0  0  0  0  0
   62.6494   31.0572   46.4541 H   0  0  0  0  0  0  0  0  0  0  0  0
   64.0995   32.9493   45.7375 H   0  0  0  0  0  0  0  0  0  0  0  0
   64.5357   34.8540   47.2813 H   0  0  0  0  0  0  0  0  0  0  0  0
   63.5462   34.8651   49.5679 H   0  0  0  0  0  0  0  0  0  0  0  0
  1  2  2  0
  2  3  1  0
  3  4  1  0
  4  5  2  0
  5  6  1  0
  6  7  2  0
  7  8  1  0
  8  9  2  0
  9 10  1  0
 10 11  1  0
 11 12  1  0
 12 13  1  0
 13 14  1  0
 14 15  1  0
 15 16  2  0
 16 17  1  0
 17 18  2  0
 18 19  1  0
 19 20  2  0
 12 21  2  0
 21 22  1  0
 21 23  1  0
 23 24  1  0
 24 25  2  0
  9 26  1  0
 26 27  1  0
 26 28  2  0
  5 29  1  0
 29 30  2  0
 30 31  1  0
 31 32  2  0
 32 33  1  0
 33 34  2  0
 34  2  1  0
 28  6  1  0
 34 29  1  0
 24 11  1  0
 20 15  1  0
  7 35  1  0
  8 36  1  0
 10 37  1  0
 10 38  1  0
 13 39  1  0
 13 40  1  0
 14 41  1  0
 14 42  1  0
 16 43  1  0
 17 44  1  0
 18 45  1  0
 19 46  1  0
 20 47  1  0
 22 48  1  0
 28 49  1  0
 30 50  1  0
 31 51  1  0
 32 52  1  0
 33 53  1  0
M  CHG  2   3  -1  23  -1
M  END
>  <UniqueID>  (55) 
53

>  <SMILES>  (55) 
O=c1[n-]nc(-c2ccc(Cn3c(CCc4ccccc4)c(O)[n-]c3=S)c(F)c2)c2ccccc12

>  <Energy>  (55) 
100.68585439217797

>  <Genealogy>  (55) 
O=c1[n-]nc(-c2ccc(Cn3c(CCc4ccccc4)c(O)[n-]c3=S)c(F)c2)c2ccccc12 (protonated)
O=c1[n-]nc(-c2ccc(Cn3c(CCc4ccccc4)c(O)[n-]c3=S)c(F)c2)c2ccccc12 (3D coordinates assigned)
O=c1[n-]nc(-c2ccc(Cn3c(CCc4ccccc4)c(O)[n-]c3=S)c(F)c2)c2ccccc12 (optimized conformer: 100.68585439217797 kcal/mol)

>  <smiles>  (55) 
O=c1[nH]nc(-c2ccc(Cn3c(CCc4ccccc4)c(O)[nH]c3=S)c(F)c2)c2ccccc12

>  <score_type>  (55) 
oracle

>  <origin>  (55) 
adg

>  <m_score__min__energy>  (55) 
-13.050000000000001

>  <m_primary>  (55) 
energy

$$$$
55:0
     RDKit          3D

 42 44  0  0  0  0  0  0  0  0999 V2000
   55.1360   27.3850   46.0090 H   0  0  0  0  0  0  0  0  0  0  0  0
   55.0220   26.3480   45.9580 N   0  0  0  0  0  0  0  0  0  0  0  0
   56.6060   25.6610   46.0220 S   0  0  0  0  0  0  0  0  0  0  0  0
   56.7010   24.5620   45.0020 O   0  0  0  0  0  0  0  0  0  0  0  0
   56.8520   25.0880   47.3890 O   0  0  0  0  0  0  0  0  0  0  0  0
   57.8040   26.9120   45.6890 C   0  0  0  0  0  0  0  0  0  0  0  0
   58.2260   27.1580   44.3740 C   0  0  0  0  0  0  0  0  0  0  0  0
   57.8023   26.5737   43.5439 H   0  0  0  0  0  0  0  0  0  0  0  0
   59.1830   28.1430   44.1150 C   0  0  0  0  0  0  0  0  0  0  0  0
   59.5164   28.3265   43.0829 H   0  0  0  0  0  0  0  0  0  0  0  0
   59.7170   28.8950   45.1640 C   0  0  0  0  0  0  0  0  0  0  0  0
   60.4804   29.6595   44.9573 H   0  0  0  0  0  0  0  0  0  0  0  0
   59.2840   28.6790   46.4770 C   0  0  0  0  0  0  0  0  0  0  0  0
   59.8750   29.4310   47.5450 N   0  0  0  0  0  0  0  0  0  0  0  0
   59.5210   30.6030   48.0030 C   0  0  0  0  0  0  0  0  0  0  0  0
   59.1390   30.6860   49.3420 C   0  0  0  0  0  0  0  0  0  0  0  0
   59.1643   29.7888   49.9779 H   0  0  0  0  0  0  0  0  0  0  0  0
   58.7260   31.9040   49.8730 C   0  0  0  0  0  0  0  0  0  0  0  0
   58.2630   32.0020   51.2910 C   0  0  0  0  0  0  0  0  0  0  0  0
   59.1119   31.8223   51.9671 H   0  0  0  0  0  0  0  0  0  0  0  0
   57.8542   33.0066   51.4746 H   0  0  0  0  0  0  0  0  0  0  0  0
   57.4822   31.2492   51.4746 H   0  0  0  0  0  0  0  0  0  0  0  0
   58.7110   33.0030   49.0790 N   0  0  0  0  0  0  0  0  0  0  0  0
   59.1130   32.9740   47.8040 N   0  0  0  0  0  0  0  0  0  0  0  0
   59.0340   34.2260   47.0270 C   0  0  1  0  0  0  0  0  0  0  0  0
   58.8786   35.1063   47.6680 H   0  0  0  0  0  0  0  0  0  0  0  0
   60.3800   34.4560   46.3220 C   0  0  0  0  0  0  0  0  0  0  0  0
   61.1701   34.5910   47.0753 H   0  0  0  0  0  0  0  0  0  0  0  0
   60.6179   33.5855   45.6930 H   0  0  0  0  0  0  0  0  0  0  0  0
   60.3154   35.3561   45.6930 H   0  0  0  0  0  0  0  0  0  0  0  0
   57.7890   34.1800   46.0970 C   0  0  0  0  0  0  0  0  0  0  0  0
   57.2766   34.9776   46.6550 H   0  0  0  0  0  0  0  0  0  0  0  0
   58.1020   33.8270   44.6460 C   0  0  0  0  0  0  0  0  0  0  0  0
   57.6133   34.3780   43.8289 H   0  0  0  0  0  0  0  0  0  0  0  0
   59.0211   33.7510   44.0464 H   0  0  0  0  0  0  0  0  0  0  0  0
   57.2960   32.8630   45.4990 C   0  0  0  0  0  0  0  0  0  0  0  0
   56.2241   32.7169   45.2998 H   0  0  0  0  0  0  0  0  0  0  0  0
   57.3903   31.8017   45.7725 H   0  0  0  0  0  0  0  0  0  0  0  0
   59.5250   31.7950   47.2320 C   0  0  0  0  0  0  0  0  0  0  0  0
   59.9240   31.7830   46.0350 O   0  0  0  0  0  0  0  0  0  0  0  0
   58.3480   27.6630   46.7430 C   0  0  0  0  0  0  0  0  0  0  0  0
   57.9790   27.4060   48.0250 F   0  0  0  0  0  0  0  0  0  0  0  0
  1  2  1  0
  2  3  1  0
  3  4  2  0
  3  5  2  0
  3  6  1  0
  6  7  2  0
  7  8  1  0
  7  9  1  0
  9 10  1  0
  9 11  2  0
 11 12  1  0
 11 13  1  0
 13 14  1  0
 14 15  2  0
 15 16  1  0
 16 17  1  0
 16 18  2  0
 18 19  1  0
 19 20  1  0
 19 21  1  0
 19 22  1  0
 18 23  1  0
 23 24  1  0
 24 25  1  0
 25 26  1  1
 25 27  1  0
 27 28  1  0
 27 29  1  0
 27 30  1  0
 25 31  1  0
 31 32  1  0
 31 33  1  0
 33 34  1  0
 33 35  1  0
 33 36  1  0
 36 37  1  0
 36 38  1  0
 24 39  1  0
 39 40  2  0
 13 41  2  0
 41 42  1  0
 41  6  1  0
 39 15  1  0
 36 31  1  0
M  CHG  2   2  -1  23  -1
M  END
>  <UniqueID>  (56) 
54

>  <SMILES>  (56) 
Cc1c/c(=N/c2cccc(S([NH-])(=O)=O)c2F)c(=O)n([C@@H](C)C2CC2)[n-]1

>  <Energy>  (56) 
324.41281914640007

>  <Genealogy>  (56) 
Cc1cc(=Nc2cccc(S([NH-])(=O)=O)c2F)c(=O)n(C(C)C2CC2)[n-]1 (protonated)
Cc1cc(=Nc2cccc(S([NH-])(=O)=O)c2F)c(=O)n([C@@H](C)C2CC2)[n-]1 (chirality)
Cc1c/c(=N/c2cccc(S([NH-])(=O)=O)c2F)c(=O)n([C@@H](C)C2CC2)[n-]1 (cis-trans isomerization)
Cc1c/c(=N/c2cccc(S([NH-])(=O)=O)c2F)c(=O)n([C@@H](C)C2CC2)[n-]1 (3D coordinates assigned)
Cc1c/c(=N/c2cccc(S([NH-])(=O)=O)c2F)c(=O)n([C@@H](C)C2CC2)[n-]1 (nonaromatic ring conformer: 324.41281914640007 kcal/mol)

>  <smiles>  (56) 
Cc1cc(=Nc2cccc(S(N)(=O)=O)c2F)c(=O)n(C(C)C2CC2)[nH]1

>  <score_type>  (56) 
oracle

>  <origin>  (56) 
adg

>  <m_score__min__energy>  (56) 
-11.630000000000001

>  <m_primary>  (56) 
energy

$$$$
56:0
     RDKit          3D

 40 43  0  0  0  0  0  0  0  0999 V2000
   63.7710   32.7220   46.7440 C   0  0  0  0  0  0  0  0  0  0  0  0
   63.2580   33.2300   48.0230 N   0  0  0  0  0  0  0  0  0  0  0  0
   64.1360   33.2490   49.1930 C   0  0  0  0  0  0  0  0  0  0  0  0
   63.4510   32.4880   50.3180 C   0  0  0  0  0  0  0  0  0  0  0  0
   62.1820   33.1330   50.6850 N   0  0  0  0  0  0  0  0  0  0  0  0
   61.3270   33.4550   49.5540 C   0  0  0  0  0  0  0  0  0  0  0  0
   59.9610   33.7710   49.7500 C   0  0  0  0  0  0  0  0  0  0  0  0
   59.3030   33.8340   51.0720 C   0  0  0  0  0  0  0  0  0  0  0  0
   59.8940   33.5130   52.1360 O   0  0  0  0  0  0  0  0  0  0  0  0
   59.1860   34.0520   48.6730 N   0  0  0  0  0  0  0  0  0  0  0  0
   59.6610   34.1020   47.4290 N   0  0  0  0  0  0  0  0  0  0  0  0
   58.7180   34.3940   46.3450 C   0  0  0  0  0  0  0  0  0  0  0  0
   58.3020   33.1220   45.6760 C   0  0  0  0  0  0  0  0  0  0  0  0
   58.2740   31.9270   46.3240 N   0  0  0  0  0  0  0  0  0  0  0  0
   57.7950   31.1010   45.3840 C   0  0  0  0  0  0  0  0  0  0  0  0
   57.5510   29.7340   45.4940 C   0  0  0  0  0  0  0  0  0  0  0  0
   57.0320   29.0690   44.3660 C   0  0  0  0  0  0  0  0  0  0  0  0
   56.7710   29.7840   43.1740 C   0  0  0  0  0  0  0  0  0  0  0  0
   57.0280   31.1660   43.1010 C   0  0  0  0  0  0  0  0  0  0  0  0
   57.5430   31.7880   44.2360 C   0  0  0  0  0  0  0  0  0  0  0  0
   57.8510   33.0830   44.3940 N   0  0  0  0  0  0  0  0  0  0  0  0
   60.9840   33.8640   47.1770 C   0  0  0  0  0  0  0  0  0  0  0  0
   61.4210   33.9670   45.9980 O   0  0  0  0  0  0  0  0  0  0  0  0
   61.8520   33.5210   48.2370 C   0  0  0  0  0  0  0  0  0  0  0  0
   64.5408   31.9597   46.9345 H   0  0  0  0  0  0  0  0  0  0  0  0
   62.9462   32.2747   46.1698 H   0  0  0  0  0  0  0  0  0  0  0  0
   64.2102   33.5511   46.1698 H   0  0  0  0  0  0  0  0  0  0  0  0
   65.0935   32.7667   48.9471 H   0  0  0  0  0  0  0  0  0  0  0  0
   64.3322   34.2862   49.5023 H   0  0  0  0  0  0  0  0  0  0  0  0
   63.2502   31.4583   49.9873 H   0  0  0  0  0  0  0  0  0  0  0  0
   64.1128   32.4847   51.1966 H   0  0  0  0  0  0  0  0  0  0  0  0
   62.3900   34.0160   51.2090 H   0  0  0  0  0  0  0  0  0  0  0  0
   61.6850   32.4650   51.3180 H   0  0  0  0  0  0  0  0  0  0  0  0
   58.2583   34.1739   51.1281 H   0  0  0  0  0  0  0  0  0  0  0  0
   57.8308   34.8957   46.7586 H   0  0  0  0  0  0  0  0  0  0  0  0
   59.2052   35.0487   45.6075 H   0  0  0  0  0  0  0  0  0  0  0  0
   57.7565   29.1927   46.4293 H   0  0  0  0  0  0  0  0  0  0  0  0
   56.8288   27.9889   44.4124 H   0  0  0  0  0  0  0  0  0  0  0  0
   56.3646   29.2567   42.2983 H   0  0  0  0  0  0  0  0  0  0  0  0
   56.8292   31.7345   42.1805 H   0  0  0  0  0  0  0  0  0  0  0  0
  1  2  1  0
  2  3  1  0
  3  4  1  0
  4  5  1  0
  5  6  1  0
  6  7  1  0
  7  8  1  0
  8  9  2  0
  7 10  2  0
 10 11  1  0
 11 12  1  0
 12 13  1  0
 13 14  2  0
 14 15  1  0
 15 16  2  0
 16 17  1  0
 17 18  2  0
 18 19  1  0
 19 20  2  0
 20 21  1  0
 11 22  1  0
 22 23  2  0
 22 24  1  0
 24  2  1  0
 24  6  2  0
 21 13  1  0
 20 15  1  0
  1 25  1  0
  1 26  1  0
  1 27  1  0
  3 28  1  0
  3 29  1  0
  4 30  1  0
  4 31  1  0
  5 32  1  0
  5 33  1  0
  8 34  1  0
 12 35  1  0
 12 36  1  0
 16 37  1  0
 17 38  1  0
 18 39  1  0
 19 40  1  0
M  CHG  2   5   1  21  -1
M  END
>  <UniqueID>  (57) 
55

>  <SMILES>  (57) 
CN1CC[NH2+]c2c(C=O)nn(Cc3nc4ccccc4[n-]3)c(=O)c21

>  <Energy>  (57) 
89.20905050309572

>  <Genealogy>  (57) 
CN1CC[NH2+]c2c(C=O)nn(Cc3nc4ccccc4[n-]3)c(=O)c21 (protonated)
CN1CC[NH2+]c2c(C=O)nn(Cc3nc4ccccc4[n-]3)c(=O)c21 (3D coordinates assigned)
CN1CC[NH2+]c2c(C=O)nn(Cc3nc4ccccc4[n-]3)c(=O)c21 (nonaromatic ring conformer: 89.20905050309572 kcal/mol)

>  <smiles>  (57) 
CN1CCNc2c(C=O)nn(Cc3nc4ccccc4[nH]3)c(=O)c21

>  <score_type>  (57) 
oracle

>  <origin>  (57) 
adg

>  <m_score__min__energy>  (57) 
-6.79

>  <m_primary>  (57) 
energy

$$$$
57:0
     RDKit          3D

 62 66  0  0  0  0  0  0  0  0999 V2000
   63.9840   31.9180   49.8720 C   0  0  0  0  0  0  0  0  0  0  0  0
   63.3810   32.5220   48.7320 O   0  0  0  0  0  0  0  0  0  0  0  0
   62.2280   32.0420   48.0910 C   0  0  0  0  0  0  0  0  0  0  0  0
   62.2880   30.9970   47.1510 C   0  0  0  0  0  0  0  0  0  0  0  0
   61.1280   30.5290   46.5340 C   0  0  0  0  0  0  0  0  0  0  0  0
   59.8790   31.0910   46.8410 C   0  0  0  0  0  0  0  0  0  0  0  0
   58.6440   30.5900   46.1850 C   0  0  0  0  0  0  0  0  0  0  0  0
   57.7640   31.4730   45.5430 C   0  0  0  0  0  0  0  0  0  0  0  0
   56.6480   31.0030   44.9300 N   0  0  0  0  0  0  0  0  0  0  0  0
   56.3170   29.6860   44.9170 C   0  0  0  0  0  0  0  0  0  0  0  0
   55.2670   29.3270   44.2450 N   0  0  0  0  0  0  0  0  0  0  0  0
   57.1500   28.7520   45.5860 C   0  0  0  0  0  0  0  0  0  0  0  0
   56.8340   27.3090   45.7010 C   0  0  0  0  0  0  0  0  0  0  0  0
   57.7970   26.3640   45.8840 N   0  0  0  0  0  0  0  0  0  0  0  0
   57.0830   25.2350   45.9940 C   0  0  0  0  0  0  0  0  0  0  0  0
   57.5610   23.9400   46.1800 C   0  0  0  0  0  0  0  0  0  0  0  0
   56.6160   22.8880   46.2580 C   0  0  0  0  0  0  0  0  0  0  0  0
   57.0480   21.4590   46.4630 C   0  0  0  0  0  0  0  0  0  0  0  0
   58.3430   21.2960   46.0030 F   0  0  0  0  0  0  0  0  0  0  0  0
   57.0090   21.1010   47.8000 F   0  0  0  0  0  0  0  0  0  0  0  0
   56.2090   20.6200   45.7530 F   0  0  0  0  0  0  0  0  0  0  0  0
   55.2300   23.1860   46.1580 C   0  0  0  0  0  0  0  0  0  0  0  0
   54.7900   24.5090   45.9730 C   0  0  0  0  0  0  0  0  0  0  0  0
   55.7550   25.5070   45.8930 C   0  0  0  0  0  0  0  0  0  0  0  0
   55.5640   26.8220   45.7160 N   0  0  0  0  0  0  0  0  0  0  0  0
   58.3240   29.2250   46.1970 C   0  0  0  0  0  0  0  0  0  0  0  0
   59.8170   32.1330   47.7810 C   0  0  0  0  0  0  0  0  0  0  0  0
   60.9780   32.6170   48.4010 C   0  0  0  0  0  0  0  0  0  0  0  0
   60.8240   33.8970   49.6120 S   0  0  0  0  0  0  0  0  0  0  0  0
   62.0050   34.8260   49.5580 O   0  0  0  0  0  0  0  0  0  0  0  0
   59.5880   34.7000   49.3140 O   0  0  0  0  0  0  0  0  0  0  0  0
   60.6740   33.2150   51.2070 N   0  0  0  0  0  0  0  0  0  0  0  0
   59.2720   33.1540   51.6410 C   0  0  1  0  0  0  0  0  0  0  0  0
   58.4660   32.3530   50.5970 C   0  0  0  0  0  0  0  0  0  0  0  0
   57.1580   31.8260   51.1960 C   0  0  0  0  0  0  0  0  0  0  0  0
   57.4110   30.8460   52.3710 C   0  0  1  0  0  0  0  0  0  0  0  0
   57.3350   29.5190   51.9180 O   0  0  0  0  0  0  0  0  0  0  0  0
   58.7820   31.0630   53.0460 C   0  0  0  0  0  0  0  0  0  0  0  0
   59.1770   32.5440   53.0670 C   0  0  0  0  0  0  0  0  0  0  0  0
   63.5527   32.3500   50.7871 H   0  0  0  0  0  0  0  0  0  0  0  0
   63.7969   30.8342   49.8548 H   0  0  0  0  0  0  0  0  0  0  0  0
   65.0681   32.1033   49.8548 H   0  0  0  0  0  0  0  0  0  0  0  0
   63.2589   30.5448   46.9003 H   0  0  0  0  0  0  0  0  0  0  0  0
   61.1926   29.7121   45.8002 H   0  0  0  0  0  0  0  0  0  0  0  0
   57.9792   32.5517   45.5362 H   0  0  0  0  0  0  0  0  0  0  0  0
   54.7740   28.4140   44.3450 H   0  0  0  0  0  0  0  0  0  0  0  0
   58.6395   23.7405   46.2638 H   0  0  0  0  0  0  0  0  0  0  0  0
   54.4928   22.3725   46.2261 H   0  0  0  0  0  0  0  0  0  0  0  0
   53.7188   24.7462   45.8943 H   0  0  0  0  0  0  0  0  0  0  0  0
   59.0017   28.5138   46.6919 H   0  0  0  0  0  0  0  0  0  0  0  0
   58.8427   32.5762   48.0347 H   0  0  0  0  0  0  0  0  0  0  0  0
   58.8413   34.1642   51.7041 H   0  0  0  0  0  0  0  0  0  0  0  0
   59.0714   31.5021   50.2514 H   0  0  0  0  0  0  0  0  0  0  0  0
   58.2219   33.0201   49.7572 H   0  0  0  0  0  0  0  0  0  0  0  0
   56.5938   31.3012   50.4109 H   0  0  0  0  0  0  0  0  0  0  0  0
   56.5921   32.6850   51.5856 H   0  0  0  0  0  0  0  0  0  0  0  0
   56.6301   31.0467   53.1193 H   0  0  0  0  0  0  0  0  0  0  0  0
   56.3940   29.3620   51.6410 H   0  0  0  0  0  0  0  0  0  0  0  0
   59.5457   30.4985   52.4910 H   0  0  0  0  0  0  0  0  0  0  0  0
   58.7106   30.7129   54.0864 H   0  0  0  0  0  0  0  0  0  0  0  0
   60.1564   32.6411   53.5583 H   0  0  0  0  0  0  0  0  0  0  0  0
   58.3947   33.0912   53.6135 H   0  0  0  0  0  0  0  0  0  0  0  0
  1  2  1  0
  2  3  1  0
  3  4  2  0
  4  5  1  0
  5  6  2  0
  6  7  1  0
  7  8  2  0
  8  9  1  0
  9 10  1  0
 10 11  2  3
 10 12  1  0
 12 13  1  0
 13 14  2  0
 14 15  1  0
 15 16  2  0
 16 17  1  0
 17 18  1  0
 18 19  1  0
 18 20  1  0
 18 21  1  0
 17 22  2  0
 22 23  1  0
 23 24  2  0
 24 25  1  0
 12 26  2  0
  6 27  1  0
 27 28  2  0
 28 29  1  0
 29 30  2  0
 29 31  2  0
 29 32  1  0
 32 33  1  0
 33 34  1  0
 34 35  1  0
 35 36  1  0
 36 37  1  0
 36 38  1  0
 38 39  1  0
 28  3  1  0
 39 33  1  0
 26  7  1  0
 25 13  1  0
 24 15  1  0
  1 40  1  0
  1 41  1  0
  1 42  1  0
  4 43  1  0
  5 44  1  0
  8 45  1  0
 11 46  1  0
 16 47  1  0
 22 48  1  0
 23 49  1  0
 26 50  1  0
 27 51  1  0
 33 52  1  1
 34 53  1  0
 34 54  1  0
 35 55  1  0
 35 56  1  0
 36 57  1  1
 37 58  1  0
 38 59  1  0
 38 60  1  0
 39 61  1  0
 39 62  1  0
M  CHG  3   9  -1  25  -1  32  -1
M  END
>  <UniqueID>  (58) 
56

>  <SMILES>  (58) 
COc1ccc(-c2c[n-]c(=N)c(-c3nc4cc(C(F)(F)F)ccc4[n-]3)c2)cc1S(=O)(=O)[N-]C1CCC(O)CC1

>  <Energy>  (58) 
117.60109453875859

>  <Genealogy>  (58) 
COc1ccc(-c2c[n-]c(=N)c(-c3nc4cc(C(F)(F)F)ccc4[n-]3)c2)cc1S(=O)(=O)[N-]C1CCC(O)CC1 (protonated)
COc1ccc(-c2c[n-]c(=N)c(-c3nc4cc(C(F)(F)F)ccc4[n-]3)c2)cc1S(=O)(=O)[N-]C1CCC(O)CC1 (3D coordinates assigned)
COc1ccc(-c2c[n-]c(=N)c(-c3nc4cc(C(F)(F)F)ccc4[n-]3)c2)cc1S(=O)(=O)[N-]C1CCC(O)CC1 (nonaromatic ring conformer: 117.60109453875859 kcal/mol)

>  <smiles>  (58) 
COc1ccc(-c2c[nH]c(=N)c(-c3nc4cc(C(F)(F)F)ccc4[nH]3)c2)cc1S(=O)(=O)NC1CCC(O)CC1

>  <score_type>  (58) 
oracle

>  <origin>  (58) 
adg

>  <m_score__min__energy>  (58) 
-13.1

>  <m_primary>  (58) 
energy

$$$$
58:0
     RDKit          3D

 23 24  0  0  0  0  0  0  0  0999 V2000
   56.3640   28.6090   44.8940 O   0  0  0  0  0  0  0  0  0  0  0  0
   57.2460   28.1940   45.6940 C   0  0  0  0  0  0  0  0  0  0  0  0
   58.3470   29.0440   46.0590 N   0  0  0  0  0  0  0  0  0  0  0  0
   58.4840   30.3330   45.8960 C   0  0  0  0  0  0  0  0  0  0  0  0
   59.1970   31.1470   46.8020 C   0  0  0  0  0  0  0  0  0  0  0  0
   59.3080   32.5170   46.5580 C   0  0  0  0  0  0  0  0  0  0  0  0
   58.7250   33.0720   45.4200 C   0  0  0  0  0  0  0  0  0  0  0  0
   58.8610   34.7910   45.1020 Cl  0  0  0  0  0  0  0  0  0  0  0  0
   58.0440   32.2400   44.5300 C   0  0  0  0  0  0  0  0  0  0  0  0
   57.9440   30.9060   44.7790 N   0  0  0  0  0  0  0  0  0  0  0  0
   57.2010   26.7870   46.1800 C   0  0  0  0  0  0  0  0  0  0  0  0
   55.9770   26.1020   46.3290 C   0  0  0  0  0  0  0  0  0  0  0  0
   54.7680   26.7070   46.0080 O   0  0  0  0  0  0  0  0  0  0  0  0
   55.9640   24.8200   46.7770 N   0  0  0  0  0  0  0  0  0  0  0  0
   57.1130   24.1700   47.0850 C   0  0  0  0  0  0  0  0  0  0  0  0
   57.0730   22.9830   47.4980 O   0  0  0  0  0  0  0  0  0  0  0  0
   58.3050   24.7980   46.9470 N   0  0  0  0  0  0  0  0  0  0  0  0
   58.3810   26.0800   46.5060 C   0  0  0  0  0  0  0  0  0  0  0  0
   59.5130   26.6240   46.4060 O   0  0  0  0  0  0  0  0  0  0  0  0
   59.6625   30.7046   47.6951 H   0  0  0  0  0  0  0  0  0  0  0  0
   59.8556   33.1587   47.2639 H   0  0  0  0  0  0  0  0  0  0  0  0
   57.5865   32.6642   43.6241 H   0  0  0  0  0  0  0  0  0  0  0  0
   57.4270   30.3110   44.0910 H   0  0  0  0  0  0  0  0  0  0  0  0
  1  2  2  0
  2  3  1  0
  3  4  2  3
  4  5  1  0
  5  6  2  0
  6  7  1  0
  7  8  1  0
  7  9  2  0
  9 10  1  0
  2 11  1  0
 11 12  2  0
 12 13  1  0
 12 14  1  0
 14 15  1  0
 15 16  2  0
 15 17  1  0
 17 18  1  0
 18 19  2  0
 10  4  1  0
 18 11  1  0
  5 20  1  0
  6 21  1  0
  9 22  1  0
 10 23  1  0
M  CHG  3  13  -1  14  -1  17  -1
M  END
>  <UniqueID>  (59) 
57

>  <SMILES>  (59) 
O=C(N=c1ccc(Cl)c[nH]1)c1c([O-])[n-]c(=O)[n-]c1=O

>  <Energy>  (59) 
37.899941214150516

>  <Genealogy>  (59) 
O=C(N=c1ccc(Cl)c[nH]1)c1c([O-])[n-]c(=O)[n-]c1=O (protonated)
O=C(N=c1ccc(Cl)c[nH]1)c1c([O-])[n-]c(=O)[n-]c1=O (3D coordinates assigned)
O=C(N=c1ccc(Cl)c[nH]1)c1c([O-])[n-]c(=O)[n-]c1=O (optimized conformer: 37.899941214150516 kcal/mol)

>  <smiles>  (59) 
O=C(N=c1ccc(Cl)c[nH]1)c1c(O)[nH]c(=O)[nH]c1=O

>  <score_type>  (59) 
oracle

>  <origin>  (59) 
adg

>  <m_score__min__energy>  (59) 
-14.34

>  <m_primary>  (59) 
energy

$$$$
59:0
     RDKit          3D

 70 76  0  0  0  0  0  0  0  0999 V2000
   56.8100   34.7350   44.8410 O   0  0  0  0  0  0  0  0  0  0  0  0
   57.7690   33.9670   44.5510 C   0  0  0  0  0  0  0  0  0  0  0  0
   59.1330   34.1890   45.1380 C   0  0  0  0  0  0  0  0  0  0  0  0
   59.1890   33.8480   46.6010 C   0  0  0  0  0  0  0  0  0  0  0  0
   59.7810   34.7250   47.5190 C   0  0  0  0  0  0  0  0  0  0  0  0
   59.7880   34.3960   48.8750 C   0  0  0  0  0  0  0  0  0  0  0  0
   59.1890   33.2060   49.3160 C   0  0  0  0  0  0  0  0  0  0  0  0
   59.2020   32.8280   50.7470 C   0  0  0  0  0  0  0  0  0  0  0  0
   60.0520   33.3560   51.5150 O   0  0  0  0  0  0  0  0  0  0  0  0
   58.2630   31.8820   51.2850 N   0  0  0  0  0  0  0  0  0  0  0  0
   58.1210   30.5290   50.8910 C   0  0  0  0  0  0  0  0  0  0  0  0
   57.3380   29.8500   51.6540 N   0  0  0  0  0  0  0  0  0  0  0  0
   56.8150   30.7050   52.7130 C   0  0  0  0  0  0  0  0  0  0  0  0
   57.5030   32.0640   52.5080 C   0  0  0  0  0  0  0  0  0  0  0  0
   58.6140   32.3530   48.3610 C   0  0  0  0  0  0  0  0  0  0  0  0
   58.6180   32.6940   47.0450 N   0  0  0  0  0  0  0  0  0  0  0  0
   57.5750   32.8610   43.6610 N   0  0  0  0  0  0  0  0  0  0  0  0
   57.4470   31.4750   44.0140 C   0  0  0  0  0  0  0  0  0  0  0  0
   56.3080   30.7190   43.6860 C   0  0  0  0  0  0  0  0  0  0  0  0
   56.2380   29.3670   44.0330 C   0  0  0  0  0  0  0  0  0  0  0  0
   57.3110   28.7510   44.6810 C   0  0  0  0  0  0  0  0  0  0  0  0
   58.4750   29.4790   44.9720 C   0  0  0  0  0  0  0  0  0  0  0  0
   59.6190   28.8120   45.6350 C   0  0  0  0  0  0  0  0  0  0  0  0
   60.3620   28.0490   44.9590 O   0  0  0  0  0  0  0  0  0  0  0  0
   59.9120   28.9920   47.0720 C   0  0  0  0  0  0  0  0  0  0  0  0
   59.3950   28.2360   48.1150 C   0  0  0  0  0  0  0  0  0  0  0  0
   59.9000   28.6710   49.2910 N   0  0  0  0  0  0  0  0  0  0  0  0
   60.7220   29.6730   49.0190 N   0  0  0  0  0  0  0  0  0  0  0  0
   61.4740   30.3730   49.9140 C   0  0  0  0  0  0  0  0  0  0  0  0
   61.3850   30.1180   51.3720 C   0  0  0  0  0  0  0  0  0  0  0  0
   60.9760   28.8610   51.8520 C   0  0  0  0  0  0  0  0  0  0  0  0
   60.8820   28.6260   53.2270 C   0  0  0  0  0  0  0  0  0  0  0  0
   61.1910   29.6440   54.1340 C   0  0  0  0  0  0  0  0  0  0  0  0
   61.0980   29.4140   55.4680 F   0  0  0  0  0  0  0  0  0  0  0  0
   61.5920   30.8980   53.6670 C   0  0  0  0  0  0  0  0  0  0  0  0
   61.6880   31.1360   52.2930 C   0  0  0  0  0  0  0  0  0  0  0  0
   62.3530   31.3540   49.4110 C   0  0  0  0  0  0  0  0  0  0  0  0
   62.4450   31.5830   48.0120 C   0  0  0  0  0  0  0  0  0  0  0  0
   63.3690   32.6140   47.3870 C   0  0  0  0  0  0  0  0  0  0  0  0
   63.3850   34.0080   48.0030 C   0  0  0  0  0  0  0  0  0  0  0  0
   62.7160   33.7770   46.6530 C   0  0  0  0  0  0  0  0  0  0  0  0
   61.6440   30.8220   47.1430 C   0  0  0  0  0  0  0  0  0  0  0  0
   60.7710   29.8830   47.6930 C   0  0  0  0  0  0  0  0  0  0  0  0
   58.5260   30.8460   44.6470 C   0  0  0  0  0  0  0  0  0  0  0  0
   59.8561   33.5582   44.6002 H   0  0  0  0  0  0  0  0  0  0  0  0
   59.3739   35.2571   45.0328 H   0  0  0  0  0  0  0  0  0  0  0  0
   60.2364   35.6649   47.1739 H   0  0  0  0  0  0  0  0  0  0  0  0
   60.2646   35.0716   49.6006 H   0  0  0  0  0  0  0  0  0  0  0  0
   58.6313   30.0995   50.0163 H   0  0  0  0  0  0  0  0  0  0  0  0
   55.7235   30.8074   52.6228 H   0  0  0  0  0  0  0  0  0  0  0  0
   57.0124   30.2901   53.7125 H   0  0  0  0  0  0  0  0  0  0  0  0
   56.7599   32.8668   52.3926 H   0  0  0  0  0  0  0  0  0  0  0  0
   58.1316   32.3574   53.3617 H   0  0  0  0  0  0  0  0  0  0  0  0
   58.1579   31.4039   48.6790 H   0  0  0  0  0  0  0  0  0  0  0  0
   55.4695   31.1930   43.1547 H   0  0  0  0  0  0  0  0  0  0  0  0
   55.3348   28.7861   43.7950 H   0  0  0  0  0  0  0  0  0  0  0  0
   57.2434   27.6903   44.9646 H   0  0  0  0  0  0  0  0  0  0  0  0
   58.6811   27.4069   48.0015 H   0  0  0  0  0  0  0  0  0  0  0  0
   60.7287   28.0583   51.1417 H   0  0  0  0  0  0  0  0  0  0  0  0
   60.5647   27.6393   53.5955 H   0  0  0  0  0  0  0  0  0  0  0  0
   61.8325   31.6991   54.3814 H   0  0  0  0  0  0  0  0  0  0  0  0
   62.0025   32.1257   51.9302 H   0  0  0  0  0  0  0  0  0  0  0  0
   62.9699   31.9443   50.1045 H   0  0  0  0  0  0  0  0  0  0  0  0
   64.1366   31.8665   47.1377 H   0  0  0  0  0  0  0  0  0  0  0  0
   62.7725   34.2243   48.8907 H   0  0  0  0  0  0  0  0  0  0  0  0
   64.1673   34.6841   48.3784 H   0  0  0  0  0  0  0  0  0  0  0  0
   61.6206   33.8271   46.5664 H   0  0  0  0  0  0  0  0  0  0  0  0
   62.8156   34.2180   45.6502 H   0  0  0  0  0  0  0  0  0  0  0  0
   61.7042   30.9637   46.0538 H   0  0  0  0  0  0  0  0  0  0  0  0
   59.4256   31.4291   44.8933 H   0  0  0  0  0  0  0  0  0  0  0  0
  1  2  2  0
  2  3  1  0
  3  4  1  0
  4  5  2  0
  5  6  1  0
  6  7  2  0
  7  8  1  0
  8  9  2  0
  8 10  1  0
 10 11  1  0
 11 12  2  0
 12 13  1  0
 13 14  1  0
  7 15  1  0
 15 16  2  0
  2 17  1  0
 17 18  1  0
 18 19  2  0
 19 20  1  0
 20 21  2  0
 21 22  1  0
 22 23  1  0
 23 24  2  0
 23 25  1  0
 25 26  1  0
 26 27  2  0
 27 28  1  0
 28 29  1  0
 29 30  1  0
 30 31  2  0
 31 32  1  0
 32 33  2  0
 33 34  1  0
 33 35  1  0
 35 36  2  0
 29 37  2  0
 37 38  1  0
 38 39  1  0
 39 40  1  0
 40 41  1  0
 38 42  2  0
 42 43  1  0
 22 44  2  0
 16  4  1  0
 44 18  1  0
 14 10  1  0
 43 25  2  0
 43 28  1  0
 36 30  1  0
 41 39  1  0
  3 45  1  0
  3 46  1  0
  5 47  1  0
  6 48  1  0
 11 49  1  0
 13 50  1  0
 13 51  1  0
 14 52  1  0
 14 53  1  0
 15 54  1  0
 19 55  1  0
 20 56  1  0
 21 57  1  0
 26 58  1  0
 31 59  1  0
 32 60  1  0
 35 61  1  0
 36 62  1  0
 37 63  1  0
 39 64  1  0
 40 65  1  0
 40 66  1  0
 41 67  1  0
 41 68  1  0
 42 69  1  0
 44 70  1  0
M  CHG  1  17  -1
M  END
>  <UniqueID>  (60) 
58

>  <SMILES>  (60) 
O=C(Cc1ccc(C(=O)N2C=NCC2)cn1)[N-]c1cccc(C(=O)c2cnn3c(-c4ccc(F)cc4)cc(C4CC4)cc23)c1

>  <Energy>  (60) 
412.7762233342086

>  <Genealogy>  (60) 
O=C(Cc1ccc(C(=O)N2C=NCC2)cn1)[N-]c1cccc(C(=O)c2cnn3c(-c4ccc(F)cc4)cc(C4CC4)cc23)c1 (protonated)
O=C(Cc1ccc(C(=O)N2C=NCC2)cn1)[N-]c1cccc(C(=O)c2cnn3c(-c4ccc(F)cc4)cc(C4CC4)cc23)c1 (3D coordinates assigned)
O=C(Cc1ccc(C(=O)N2C=NCC2)cn1)[N-]c1cccc(C(=O)c2cnn3c(-c4ccc(F)cc4)cc(C4CC4)cc23)c1 (nonaromatic ring conformer: 412.7762233342086 kcal/mol)

>  <smiles>  (60) 
O=C(Cc1ccc(C(=O)N2C=NCC2)cn1)Nc1cccc(C(=O)c2cnn3c(-c4ccc(F)cc4)cc(C4CC4)cc23)c1

>  <score_type>  (60) 
oracle

>  <origin>  (60) 
adg

>  <m_score__min__energy>  (60) 
-12.539999999999999

>  <m_primary>  (60) 
energy

$$$$
60:0
     RDKit          3D

 35 37  0  0  0  0  0  0  0  0999 V2000
   60.5675   31.2336   46.5422 H   0  0  0  0  0  0  0  0  0  0  0  0
   60.5330   30.1520   46.3450 C   0  0  0  0  0  0  0  0  0  0  0  0
   61.3829   29.5138   46.6286 H   0  0  0  0  0  0  0  0  0  0  0  0
   59.4460   29.6070   45.7540 C   0  0  0  0  0  0  0  0  0  0  0  0
   59.4120   28.2150   45.5050 C   0  0  0  0  0  0  0  0  0  0  0  0
   60.3730   27.4870   45.8820 O   0  0  0  0  0  0  0  0  0  0  0  0
   58.2770   27.6530   44.8740 C   0  0  0  0  0  0  0  0  0  0  0  0
   58.1640   26.3380   44.5610 C   0  0  0  0  0  0  0  0  0  0  0  0
   59.0076   25.8821   44.0220 H   0  0  0  0  0  0  0  0  0  0  0  0
   57.0190   25.4580   44.8730 C   0  0  0  0  0  0  0  0  0  0  0  0
   56.2020   25.7000   45.9890 C   0  0  0  0  0  0  0  0  0  0  0  0
   56.3805   26.5838   46.6191 H   0  0  0  0  0  0  0  0  0  0  0  0
   55.1900   24.8430   46.2920 N   0  0  0  0  0  0  0  0  0  0  0  0
   54.9490   23.7310   45.5480 C   0  0  0  0  0  0  0  0  0  0  0  0
   54.1164   23.0627   45.8129 H   0  0  0  0  0  0  0  0  0  0  0  0
   55.7570   23.4360   44.4480 C   0  0  0  0  0  0  0  0  0  0  0  0
   55.5711   22.5327   43.8484 H   0  0  0  0  0  0  0  0  0  0  0  0
   56.8030   24.2990   44.1170 C   0  0  0  0  0  0  0  0  0  0  0  0
   57.4571   24.0690   43.2631 H   0  0  0  0  0  0  0  0  0  0  0  0
   57.2230   28.4710   44.5930 N   0  0  0  0  0  0  0  0  0  0  0  0
   56.3580   28.0810   44.1500 H   0  0  0  0  0  0  0  0  0  0  0  0
   57.2550   29.8050   44.8400 C   0  0  0  0  0  0  0  0  0  0  0  0
   56.2530   30.5100   44.5330 O   0  0  0  0  0  0  0  0  0  0  0  0
   58.3610   30.3830   45.4040 N   0  0  0  0  0  0  0  0  0  0  0  0
   58.3480   31.8100   45.6170 C   0  0  0  0  0  0  0  0  0  0  0  0
   58.1970   32.3270   46.9130 C   0  0  0  0  0  0  0  0  0  0  0  0
   58.0863   31.6432   47.7675 H   0  0  0  0  0  0  0  0  0  0  0  0
   58.1870   33.7100   47.1200 C   0  0  0  0  0  0  0  0  0  0  0  0
   58.0675   34.1132   48.1365 H   0  0  0  0  0  0  0  0  0  0  0  0
   58.3290   34.5810   46.0340 C   0  0  0  0  0  0  0  0  0  0  0  0
   58.3186   35.6688   46.1971 H   0  0  0  0  0  0  0  0  0  0  0  0
   58.4840   34.0700   44.7420 C   0  0  0  0  0  0  0  0  0  0  0  0
   58.5974   34.7561   43.8897 H   0  0  0  0  0  0  0  0  0  0  0  0
   58.4950   32.6870   44.5320 C   0  0  0  0  0  0  0  0  0  0  0  0
   58.6191   32.2867   43.5150 H   0  0  0  0  0  0  0  0  0  0  0  0
  1  2  1  0
  2  3  1  0
  2  4  2  0
  4  5  1  0
  5  6  2  0
  5  7  1  0
  7  8  2  0
  8  9  1  0
  8 10  1  0
 10 11  2  0
 11 12  1  0
 11 13  1  0
 13 14  2  0
 14 15  1  0
 14 16  1  0
 16 17  1  0
 16 18  2  0
 18 19  1  0
  7 20  1  0
 20 21  1  0
 20 22  1  0
 22 23  2  0
 22 24  1  0
 24 25  1  0
 25 26  2  0
 26 27  1  0
 26 28  1  0
 28 29  1  0
 28 30  2  0
 30 31  1  0
 30 32  1  0
 32 33  1  0
 32 34  2  0
 34 35  1  0
 24  4  1  0
 34 25  1  0
 18 10  1  0
M  END
>  <UniqueID>  (61) 
59

>  <SMILES>  (61) 
C=c1c(=O)/c(=C\c2cccnc2)[nH]c(=O)n1-c1ccccc1

>  <Energy>  (61) 
68.54592001911702

>  <Genealogy>  (61) 
C=c1c(=O)/c(=C\c2cccnc2)[nH]c(=O)n1-c1ccccc1 (cis-trans isomerization)
C=c1c(=O)/c(=C\c2cccnc2)[nH]c(=O)n1-c1ccccc1 (3D coordinates assigned)
C=c1c(=O)/c(=C\c2cccnc2)[nH]c(=O)n1-c1ccccc1 (optimized conformer: 68.54592001911702 kcal/mol)

>  <smiles>  (61) 
C=c1c(=O)c(=Cc2cccnc2)[nH]c(=O)n1-c1ccccc1

>  <score_type>  (61) 
oracle

>  <origin>  (61) 
adg

>  <m_score__min__energy>  (61) 
-8.0299999999999994

>  <m_primary>  (61) 
energy

$$$$
61:0
     RDKit          3D

 49 51  0  0  0  0  0  0  0  0999 V2000
   55.9040   25.4890   45.9720 C   0  0  0  0  0  0  0  0  0  0  0  0
   55.6290   26.8650   45.7310 O   0  0  0  0  0  0  0  0  0  0  0  0
   56.5970   27.8180   45.3760 C   0  0  0  0  0  0  0  0  0  0  0  0
   57.9780   27.5590   45.4740 C   0  0  0  0  0  0  0  0  0  0  0  0
   58.9150   28.5430   45.1170 C   0  0  0  0  0  0  0  0  0  0  0  0
   60.3870   28.2470   45.1870 C   0  0  0  0  0  0  0  0  0  0  0  0
   60.6160   27.1030   46.0720 N   0  0  0  0  0  0  0  0  0  0  0  0
   60.1440   27.5090   47.6950 S   0  0  0  0  0  0  0  0  0  0  0  0
   58.8010   26.9030   47.9970 O   0  0  0  0  0  0  0  0  0  0  0  0
   61.1480   26.9430   48.6590 O   0  0  0  0  0  0  0  0  0  0  0  0
   60.0790   29.2590   47.8940 C   0  0  0  0  0  0  0  0  0  0  0  0
   58.9900   29.8450   48.5510 C   0  0  0  0  0  0  0  0  0  0  0  0
   58.9400   31.2300   48.7330 C   0  0  0  0  0  0  0  0  0  0  0  0
   59.9850   32.0410   48.2690 C   0  0  0  0  0  0  0  0  0  0  0  0
   59.9050   33.7860   48.4820 S   0  0  0  0  0  0  0  0  0  0  0  0
   59.3090   34.0930   49.8280 O   0  0  0  0  0  0  0  0  0  0  0  0
   61.2920   34.3680   48.4290 O   0  0  0  0  0  0  0  0  0  0  0  0
   58.9030   34.4760   47.2300 N   0  0  0  0  0  0  0  0  0  0  0  0
   57.7730   33.6020   46.9120 C   0  0  0  0  0  0  0  0  0  0  0  0
   57.3950   33.8920   45.4680 C   0  0  0  0  0  0  0  0  0  0  0  0
   58.6190   34.5580   44.8570 C   0  0  0  0  0  0  0  0  0  0  0  0
   59.6440   34.6270   45.9790 C   0  0  0  0  0  0  0  0  0  0  0  0
   61.0750   31.4550   47.6100 C   0  0  0  0  0  0  0  0  0  0  0  0
   61.1240   30.0690   47.4280 C   0  0  0  0  0  0  0  0  0  0  0  0
   58.4650   29.7810   44.6360 C   0  0  0  0  0  0  0  0  0  0  0  0
   57.0970   30.0420   44.5390 C   0  0  0  0  0  0  0  0  0  0  0  0
   56.1660   29.0670   44.9090 C   0  0  0  0  0  0  0  0  0  0  0  0
   54.8070   29.3420   44.8080 O   0  0  0  0  0  0  0  0  0  0  0  0
   55.9404   25.3068   47.0562 H   0  0  0  0  0  0  0  0  0  0  0  0
   55.1113   24.8725   45.5230 H   0  0  0  0  0  0  0  0  0  0  0  0
   56.8728   25.2246   45.5230 H   0  0  0  0  0  0  0  0  0  0  0  0
   58.3255   26.5789   45.8327 H   0  0  0  0  0  0  0  0  0  0  0  0
   60.7615   28.0115   44.1799 H   0  0  0  0  0  0  0  0  0  0  0  0
   60.9182   29.1260   45.5809 H   0  0  0  0  0  0  0  0  0  0  0  0
   61.6450   26.9110   46.0970 H   0  0  0  0  0  0  0  0  0  0  0  0
   58.1710   29.2131   48.9252 H   0  0  0  0  0  0  0  0  0  0  0  0
   58.0776   31.6851   49.2421 H   0  0  0  0  0  0  0  0  0  0  0  0
   58.0652   32.5474   47.0238 H   0  0  0  0  0  0  0  0  0  0  0  0
   56.9258   33.7854   47.5892 H   0  0  0  0  0  0  0  0  0  0  0  0
   57.1593   32.9581   44.9367 H   0  0  0  0  0  0  0  0  0  0  0  0
   56.5031   34.5321   45.3988 H   0  0  0  0  0  0  0  0  0  0  0  0
   59.0052   33.9588   44.0193 H   0  0  0  0  0  0  0  0  0  0  0  0
   58.3845   35.5549   44.4554 H   0  0  0  0  0  0  0  0  0  0  0  0
   60.3788   33.8154   45.8725 H   0  0  0  0  0  0  0  0  0  0  0  0
   60.1946   35.5790   45.9560 H   0  0  0  0  0  0  0  0  0  0  0  0
   61.8937   32.0868   47.2352 H   0  0  0  0  0  0  0  0  0  0  0  0
   61.9852   29.6132   46.9176 H   0  0  0  0  0  0  0  0  0  0  0  0
   59.1923   30.5490   44.3341 H   0  0  0  0  0  0  0  0  0  0  0  0
   56.7503   31.0186   44.1700 H   0  0  0  0  0  0  0  0  0  0  0  0
  1  2  1  0
  2  3  1  0
  3  4  2  0
  4  5  1  0
  5  6  1  0
  6  7  1  0
  7  8  1  0
  8  9  2  0
  8 10  2  0
  8 11  1  0
 11 12  2  0
 12 13  1  0
 13 14  2  0
 14 15  1  0
 15 16  2  0
 15 17  2  0
 15 18  1  0
 18 19  1  0
 19 20  1  0
 20 21  1  0
 21 22  1  0
 14 23  1  0
 23 24  2  0
  5 25  2  0
 25 26  1  0
 26 27  2  0
 27 28  1  0
 27  3  1  0
 24 11  1  0
 22 18  1  0
  1 29  1  0
  1 30  1  0
  1 31  1  0
  4 32  1  0
  6 33  1  0
  6 34  1  0
  7 35  1  0
 12 36  1  0
 13 37  1  0
 19 38  1  0
 19 39  1  0
 20 40  1  0
 20 41  1  0
 21 42  1  0
 21 43  1  0
 22 44  1  0
 22 45  1  0
 23 46  1  0
 24 47  1  0
 25 48  1  0
 26 49  1  0
M  CHG  1  28  -1
M  END
>  <UniqueID>  (62) 
60

>  <SMILES>  (62) 
COc1cc(CNS(=O)(=O)c2ccc(S(=O)(=O)N3CCCC3)cc2)ccc1[O-]

>  <Energy>  (62) 
46.953182162727906

>  <Genealogy>  (62) 
COc1cc(CNS(=O)(=O)c2ccc(S(=O)(=O)N3CCCC3)cc2)ccc1[O-] (protonated)
COc1cc(CNS(=O)(=O)c2ccc(S(=O)(=O)N3CCCC3)cc2)ccc1[O-] (3D coordinates assigned)
COc1cc(CNS(=O)(=O)c2ccc(S(=O)(=O)N3CCCC3)cc2)ccc1[O-] (nonaromatic ring conformer: 46.953182162727906 kcal/mol)

>  <smiles>  (62) 
COc1cc(CNS(=O)(=O)c2ccc(S(=O)(=O)N3CCCC3)cc2)ccc1O

>  <score_type>  (62) 
oracle

>  <origin>  (62) 
adg

>  <m_score__min__energy>  (62) 
-12.470000000000001

>  <m_primary>  (62) 
energy

$$$$
62:0
     RDKit          3D

 21 22  0  0  0  0  0  0  0  0999 V2000
   55.2050   27.8260   45.9700 H   0  0  0  0  0  0  0  0  0  0  0  0
   55.1500   26.8170   45.9000 O   0  0  0  0  0  0  0  0  0  0  0  0
   56.2400   26.0160   46.2300 C   0  0  0  0  0  0  0  0  0  0  0  0
   56.0850   25.0000   47.1190 N   0  0  0  0  0  0  0  0  0  0  0  0
   57.1330   24.2130   47.4750 C   0  0  0  0  0  0  0  0  0  0  0  0
   56.9640   23.2760   48.2980 O   0  0  0  0  0  0  0  0  0  0  0  0
   58.3640   24.4400   46.9490 N   0  0  0  0  0  0  0  0  0  0  0  0
   58.5710   25.4410   46.0560 C   0  0  0  0  0  0  0  0  0  0  0  0
   59.7290   25.6290   45.5930 O   0  0  0  0  0  0  0  0  0  0  0  0
   57.4990   26.2520   45.6520 C   0  0  0  0  0  0  0  0  0  0  0  0
   57.7120   27.3750   44.7200 C   0  0  0  0  0  0  0  0  0  0  0  0
   58.1061   27.1356   43.7213 H   0  0  0  0  0  0  0  0  0  0  0  0
   57.4630   28.6690   44.9930 C   0  0  0  0  0  0  0  0  0  0  0  0
   58.0200   29.3560   46.0550 C   0  0  0  0  0  0  0  0  0  0  0  0
   58.7401   28.9372   46.7733 H   0  0  0  0  0  0  0  0  0  0  0  0
   57.5470   30.6150   46.0760 N   0  0  0  0  0  0  0  0  0  0  0  0
   56.7200   30.7750   45.0540 N   0  0  0  0  0  0  0  0  0  0  0  0
   56.6510   29.6180   44.3660 C   0  0  0  0  0  0  0  0  0  0  0  0
   55.9560   29.5130   43.2320 C   0  0  0  0  0  0  0  0  0  0  0  0
   55.9207   28.5534   42.6954 H   0  0  0  0  0  0  0  0  0  0  0  0
   55.4183   30.3860   42.8336 H   0  0  0  0  0  0  0  0  0  0  0  0
  1  2  1  0
  2  3  1  0
  3  4  1  0
  4  5  1  0
  5  6  2  0
  5  7  1  0
  7  8  1  0
  8  9  2  0
  8 10  1  0
 10 11  1  0
 11 12  1  0
 11 13  2  0
 13 14  1  0
 14 15  1  0
 14 16  2  0
 16 17  1  0
 17 18  1  0
 18 19  2  0
 19 20  1  0
 19 21  1  0
 10  3  2  0
 18 13  1  0
M  CHG  3   4  -1   7  -1  17  -1
M  END
>  <UniqueID>  (63) 
61

>  <SMILES>  (63) 
C=c1[n-]nc/c1=C/c1c(O)[n-]c(=O)[n-]c1=O

>  <Energy>  (63) 
65.50627042084406

>  <Genealogy>  (63) 
C=c1[n-]ncc1=Cc1c(O)[n-]c(=O)[n-]c1=O (protonated)
C=c1[n-]nc/c1=C/c1c(O)[n-]c(=O)[n-]c1=O (cis-trans isomerization)
C=c1[n-]nc/c1=C/c1c(O)[n-]c(=O)[n-]c1=O (3D coordinates assigned)
C=c1[n-]nc/c1=C/c1c(O)[n-]c(=O)[n-]c1=O (optimized conformer: 65.50627042084406 kcal/mol)

>  <smiles>  (63) 
C=c1[nH]ncc1=Cc1c(O)[nH]c(=O)[nH]c1=O

>  <score_type>  (63) 
oracle

>  <origin>  (63) 
adg

>  <m_score__min__energy>  (63) 
-11.789999999999999

>  <m_primary>  (63) 
energy

$$$$
63:0
     RDKit          3D

 57 60  0  0  0  0  0  0  0  0999 V2000
   65.3500   32.7600   49.7730 C   0  0  0  0  0  0  0  0  0  0  0  0
   64.7970   33.4790   48.6740 O   0  0  0  0  0  0  0  0  0  0  0  0
   63.4260   33.5520   48.3880 C   0  0  0  0  0  0  0  0  0  0  0  0
   62.9360   33.8050   47.0910 C   0  0  0  0  0  0  0  0  0  0  0  0
   61.5590   33.8770   46.8590 C   0  0  0  0  0  0  0  0  0  0  0  0
   60.6500   33.7120   47.9170 C   0  0  0  0  0  0  0  0  0  0  0  0
   59.1650   33.7650   47.6610 C   0  0  0  0  0  0  0  0  0  0  0  0
   58.8060   32.9860   46.4560 N   0  0  0  0  0  0  0  0  0  0  0  0
   57.9010   33.4730   45.5490 C   0  0  0  0  0  0  0  0  0  0  0  0
   57.3520   34.5970   45.7230 O   0  0  0  0  0  0  0  0  0  0  0  0
   57.5840   32.7490   44.4480 N   0  0  0  0  0  0  0  0  0  0  0  0
   58.1550   31.5410   44.2230 C   0  0  0  0  0  0  0  0  0  0  0  0
   57.8370   30.8960   43.1850 O   0  0  0  0  0  0  0  0  0  0  0  0
   59.0610   31.0310   45.1150 N   0  0  0  0  0  0  0  0  0  0  0  0
   59.6870   29.7110   44.8880 C   0  0  0  0  0  0  0  0  0  0  0  0
   58.7860   28.5990   45.3620 C   0  0  0  0  0  0  0  0  0  0  0  0
   58.1210   27.7780   44.4330 C   0  0  0  0  0  0  0  0  0  0  0  0
   57.2820   26.7510   44.8740 C   0  0  0  0  0  0  0  0  0  0  0  0
   57.1050   26.5230   46.2510 C   0  0  0  0  0  0  0  0  0  0  0  0
   56.2830   25.4490   46.7340 N   0  0  0  0  0  0  0  0  0  0  0  0
   55.4080   24.6370   45.9420 C   0  0  0  0  0  0  0  0  0  0  0  0
   54.1740   24.8820   45.9640 O   0  0  0  0  0  0  0  0  0  0  0  0
   55.9120   23.5100   45.1230 C   0  0  0  0  0  0  0  0  0  0  0  0
   55.9600   23.6740   43.7270 C   0  0  0  0  0  0  0  0  0  0  0  0
   56.5180   22.6880   42.9130 C   0  0  0  0  0  0  0  0  0  0  0  0
   57.0330   21.5250   43.4790 C   0  0  0  0  0  0  0  0  0  0  0  0
   56.9690   21.3330   44.8600 C   0  0  0  0  0  0  0  0  0  0  0  0
   56.3900   22.3040   45.6970 C   0  0  0  0  0  0  0  0  0  0  0  0
   56.2540   22.0030   47.1410 C   0  0  0  0  0  0  0  0  0  0  0  0
   55.1130   21.8770   47.6610 O   0  0  0  0  0  0  0  0  0  0  0  0
   57.3790   21.8830   47.9440 O   0  0  0  0  0  0  0  0  0  0  0  0
   57.7340   27.3660   47.1760 C   0  0  0  0  0  0  0  0  0  0  0  0
   58.5720   28.3950   46.7370 C   0  0  0  0  0  0  0  0  0  0  0  0
   59.3720   31.7550   46.2400 C   0  0  0  0  0  0  0  0  0  0  0  0
   60.1900   31.2840   47.0830 O   0  0  0  0  0  0  0  0  0  0  0  0
   61.1410   33.4570   49.2080 C   0  0  0  0  0  0  0  0  0  0  0  0
   62.5170   33.3700   49.4370 C   0  0  0  0  0  0  0  0  0  0  0  0
   65.0047   33.2090   50.7159 H   0  0  0  0  0  0  0  0  0  0  0  0
   65.0242   31.7104   49.7257 H   0  0  0  0  0  0  0  0  0  0  0  0
   66.4480   32.8055   49.7257 H   0  0  0  0  0  0  0  0  0  0  0  0
   63.6399   33.9464   46.2576 H   0  0  0  0  0  0  0  0  0  0  0  0
   61.1852   34.0640   45.8415 H   0  0  0  0  0  0  0  0  0  0  0  0
   58.6352   33.3477   48.5300 H   0  0  0  0  0  0  0  0  0  0  0  0
   58.8748   34.8136   47.4993 H   0  0  0  0  0  0  0  0  0  0  0  0
   56.8900   33.1290   43.7610 H   0  0  0  0  0  0  0  0  0  0  0  0
   59.8801   29.5843   43.8125 H   0  0  0  0  0  0  0  0  0  0  0  0
   60.6283   29.6664   45.4555 H   0  0  0  0  0  0  0  0  0  0  0  0
   58.2620   27.9451   43.3550 H   0  0  0  0  0  0  0  0  0  0  0  0
   56.7582   26.1187   44.1420 H   0  0  0  0  0  0  0  0  0  0  0  0
   55.5533   24.5893   43.2722 H   0  0  0  0  0  0  0  0  0  0  0  0
   56.5511   22.8296   41.8227 H   0  0  0  0  0  0  0  0  0  0  0  0
   57.4905   20.7572   42.8377 H   0  0  0  0  0  0  0  0  0  0  0  0
   57.3765   20.4106   45.2994 H   0  0  0  0  0  0  0  0  0  0  0  0
   57.5677   27.2175   48.2532 H   0  0  0  0  0  0  0  0  0  0  0  0
   59.0666   29.0485   47.4707 H   0  0  0  0  0  0  0  0  0  0  0  0
   60.4383   33.3250   50.0439 H   0  0  0  0  0  0  0  0  0  0  0  0
   62.8889   33.1567   50.4500 H   0  0  0  0  0  0  0  0  0  0  0  0
  1  2  1  0
  2  3  1  0
  3  4  2  0
  4  5  1  0
  5  6  2  0
  6  7  1  0
  7  8  1  0
  8  9  1  0
  9 10  2  0
  9 11  1  0
 11 12  1  0
 12 13  2  0
 12 14  1  0
 14 15  1  0
 15 16  1  0
 16 17  2  0
 17 18  1  0
 18 19  2  0
 19 20  1  0
 20 21  1  0
 21 22  2  0
 21 23  1  0
 23 24  2  0
 24 25  1  0
 25 26  2  0
 26 27  1  0
 27 28  2  0
 28 29  1  0
 29 30  2  0
 29 31  1  0
 19 32  1  0
 32 33  2  0
 14 34  1  0
 34 35  2  0
  6 36  1  0
 36 37  2  0
 37  3  1  0
 34  8  1  0
 33 16  1  0
 28 23  1  0
  1 38  1  0
  1 39  1  0
  1 40  1  0
  4 41  1  0
  5 42  1  0
  7 43  1  0
  7 44  1  0
 11 45  1  0
 15 46  1  0
 15 47  1  0
 17 48  1  0
 18 49  1  0
 24 50  1  0
 25 51  1  0
 26 52  1  0
 27 53  1  0
 32 54  1  0
 33 55  1  0
 36 56  1  0
 37 57  1  0
M  CHG  2  20  -1  31  -1
M  END
>  <UniqueID>  (64) 
62

>  <SMILES>  (64) 
COc1ccc(Cn2c(=O)[nH]c(=O)n(Cc3ccc([N-]C(=O)c4ccccc4C(=O)[O-])cc3)c2=O)cc1

>  <Energy>  (64) 
77.67651267869421

>  <Genealogy>  (64) 
COc1ccc(Cn2c(=O)[nH]c(=O)n(Cc3ccc([N-]C(=O)c4ccccc4C(=O)[O-])cc3)c2=O)cc1 (protonated)
COc1ccc(Cn2c(=O)[nH]c(=O)n(Cc3ccc([N-]C(=O)c4ccccc4C(=O)[O-])cc3)c2=O)cc1 (3D coordinates assigned)
COc1ccc(Cn2c(=O)[nH]c(=O)n(Cc3ccc([N-]C(=O)c4ccccc4C(=O)[O-])cc3)c2=O)cc1 (optimized conformer: 77.67651267869421 kcal/mol)

>  <smiles>  (64) 
COc1ccc(Cn2c(=O)[nH]c(=O)n(Cc3ccc(NC(=O)c4ccccc4C(=O)O)cc3)c2=O)cc1

>  <score_type>  (64) 
oracle

>  <origin>  (64) 
adg

>  <m_score__min__energy>  (64) 
-14.6

>  <m_primary>  (64) 
energy

$$$$
64:0
     RDKit          3D

 49 52  0  0  0  0  0  0  0  0999 V2000
   61.9320   32.4420   47.1930 C   0  0  0  0  0  0  0  0  0  0  0  0
   61.1880   33.1000   48.2660 N   0  0  0  0  0  0  0  0  0  0  0  0
   61.5320   33.1970   49.5670 C   0  0  0  0  0  0  0  0  0  0  0  0
   63.0180   32.5030   50.3020 S   0  0  0  0  0  0  0  0  0  0  0  0
   62.1370   31.5570   51.5940 C   0  0  0  0  0  0  0  0  0  0  0  0
   61.1530   30.5970   50.9870 C   0  0  0  0  0  0  0  0  0  0  0  0
   60.1270   30.2790   51.6420 O   0  0  0  0  0  0  0  0  0  0  0  0
   61.3960   29.9460   49.7320 N   0  0  0  0  0  0  0  0  0  0  0  0
   60.4170   29.5720   48.7520 C   0  0  0  0  0  0  0  0  0  0  0  0
   59.4860   30.5260   48.3280 C   0  0  0  0  0  0  0  0  0  0  0  0
   58.5370   30.2040   47.3530 C   0  0  0  0  0  0  0  0  0  0  0  0
   58.5260   28.9280   46.7650 C   0  0  0  0  0  0  0  0  0  0  0  0
   57.5240   28.5740   45.7320 C   0  0  0  0  0  0  0  0  0  0  0  0
   56.5900   29.3800   45.4770 O   0  0  0  0  0  0  0  0  0  0  0  0
   57.6120   27.3620   44.9700 N   0  0  0  0  0  0  0  0  0  0  0  0
   57.3370   26.0370   45.4500 C   0  0  0  0  0  0  0  0  0  0  0  0
   58.3390   25.0480   45.4680 C   0  0  0  0  0  0  0  0  0  0  0  0
   58.0590   23.7680   45.9530 C   0  0  0  0  0  0  0  0  0  0  0  0
   56.7850   23.4670   46.4380 C   0  0  0  0  0  0  0  0  0  0  0  0
   55.7900   24.4470   46.4460 C   0  0  0  0  0  0  0  0  0  0  0  0
   56.0590   25.7320   45.9620 C   0  0  0  0  0  0  0  0  0  0  0  0
   55.0430   26.6880   45.9900 O   0  0  0  0  0  0  0  0  0  0  0  0
   59.4720   27.9770   47.1830 C   0  0  0  0  0  0  0  0  0  0  0  0
   60.4200   28.3020   48.1580 C   0  0  0  0  0  0  0  0  0  0  0  0
   60.6120   33.8760   50.2740 N   0  0  0  0  0  0  0  0  0  0  0  0
   59.6600   34.2310   49.4250 N   0  0  0  0  0  0  0  0  0  0  0  0
   60.0100   33.7630   48.2090 C   0  0  0  0  0  0  0  0  0  0  0  0
   59.1760   33.9830   47.0080 C   0  0  0  0  0  0  0  0  0  0  0  0
   59.5920   34.6670   45.8680 C   0  0  0  0  0  0  0  0  0  0  0  0
   58.6160   34.7370   44.8670 C   0  0  0  0  0  0  0  0  0  0  0  0
   57.4250   34.1090   45.2040 C   0  0  0  0  0  0  0  0  0  0  0  0
   57.5920   33.4710   46.7490 S   0  0  0  0  0  0  0  0  0  0  0  0
   62.6887   31.7728   47.6284 H   0  0  0  0  0  0  0  0  0  0  0  0
   61.2385   31.8563   46.5717 H   0  0  0  0  0  0  0  0  0  0  0  0
   62.4285   33.2019   46.5717 H   0  0  0  0  0  0  0  0  0  0  0  0
   62.8702   30.9918   52.1881 H   0  0  0  0  0  0  0  0  0  0  0  0
   61.5863   32.2652   52.2305 H   0  0  0  0  0  0  0  0  0  0  0  0
   59.5006   31.5357   48.7643 H   0  0  0  0  0  0  0  0  0  0  0  0
   57.7943   30.9544   47.0443 H   0  0  0  0  0  0  0  0  0  0  0  0
   59.3477   25.2844   45.0982 H   0  0  0  0  0  0  0  0  0  0  0  0
   58.8432   22.9966   45.9527 H   0  0  0  0  0  0  0  0  0  0  0  0
   56.5647   22.4571   46.8142 H   0  0  0  0  0  0  0  0  0  0  0  0
   54.7893   24.2074   46.8349 H   0  0  0  0  0  0  0  0  0  0  0  0
   55.1460   27.6010   45.5660 H   0  0  0  0  0  0  0  0  0  0  0  0
   59.4668   26.9701   46.7402 H   0  0  0  0  0  0  0  0  0  0  0  0
   61.1716   27.5579   48.4604 H   0  0  0  0  0  0  0  0  0  0  0  0
   60.5933   35.1104   45.7642 H   0  0  0  0  0  0  0  0  0  0  0  0
   58.7778   35.2424   43.9035 H   0  0  0  0  0  0  0  0  0  0  0  0
   56.5285   34.0410   44.5702 H   0  0  0  0  0  0  0  0  0  0  0  0
  1  2  1  0
  2  3  1  0
  3  4  1  0
  4  5  1  0
  5  6  1  0
  6  7  2  0
  6  8  1  0
  8  9  1  0
  9 10  2  0
 10 11  1  0
 11 12  2  0
 12 13  1  0
 13 14  2  0
 13 15  1  0
 15 16  1  0
 16 17  2  0
 17 18  1  0
 18 19  2  0
 19 20  1  0
 20 21  2  0
 21 22  1  0
 12 23  1  0
 23 24  2  0
  3 25  2  0
 25 26  1  0
 26 27  2  0
 27 28  1  0
 28 29  2  0
 29 30  1  0
 30 31  2  0
 31 32  1  0
 27  2  1  0
 32 28  1  0
 24  9  1  0
 21 16  1  0
  1 33  1  0
  1 34  1  0
  1 35  1  0
  5 36  1  0
  5 37  1  0
 10 38  1  0
 11 39  1  0
 17 40  1  0
 18 41  1  0
 19 42  1  0
 20 43  1  0
 22 44  1  0
 23 45  1  0
 24 46  1  0
 29 47  1  0
 30 48  1  0
 31 49  1  0
M  CHG  2   8  -1  15  -1
M  END
>  <UniqueID>  (65) 
63

>  <SMILES>  (65) 
Cn1c(SCC(=O)[N-]c2ccc(C(=O)[N-]c3ccccc3O)cc2)nnc1-c1cccs1

>  <Energy>  (65) 
124.50405362485259

>  <Genealogy>  (65) 
Cn1c(SCC(=O)[N-]c2ccc(C(=O)[N-]c3ccccc3O)cc2)nnc1-c1cccs1 (protonated)
Cn1c(SCC(=O)[N-]c2ccc(C(=O)[N-]c3ccccc3O)cc2)nnc1-c1cccs1 (3D coordinates assigned)
Cn1c(SCC(=O)[N-]c2ccc(C(=O)[N-]c3ccccc3O)cc2)nnc1-c1cccs1 (optimized conformer: 124.50405362485259 kcal/mol)

>  <smiles>  (65) 
Cn1c(SCC(=O)Nc2ccc(C(=O)Nc3ccccc3O)cc2)nnc1-c1cccs1

>  <score_type>  (65) 
oracle

>  <origin>  (65) 
adg

>  <m_score__min__energy>  (65) 
-11.93

>  <m_primary>  (65) 
energy

$$$$
65:0
     RDKit          3D

 57 61  0  0  0  0  0  0  0  0999 V2000
   56.6300   32.9660   51.2490 H   0  0  0  0  0  0  0  0  0  0  0  0
   56.8330   32.5410   52.1450 O   0  0  0  0  0  0  0  0  0  0  0  0
   56.6010   31.1850   52.3560 C   0  0  0  0  0  0  0  0  0  0  0  0
   55.4420   30.6860   52.8150 N   0  0  0  0  0  0  0  0  0  0  0  0
   55.6700   29.3540   52.8060 C   0  0  0  0  0  0  0  0  0  0  0  0
   54.8040   28.5160   53.1680 O   0  0  0  0  0  0  0  0  0  0  0  0
   56.8950   28.9910   52.3680 N   0  0  0  0  0  0  0  0  0  0  0  0
   57.4940   30.1670   52.1110 C   0  0  0  0  0  0  0  0  0  0  0  0
   58.8200   30.2870   51.4900 C   0  0  0  0  0  0  0  0  0  0  0  0
   59.6918   30.0657   52.1232 H   0  0  0  0  0  0  0  0  0  0  0  0
   59.0630   30.6440   50.2140 C   0  0  0  0  0  0  0  0  0  0  0  0
   59.4000   29.7260   49.2330 C   0  0  0  0  0  0  0  0  0  0  0  0
   59.5561   28.6463   49.3738 H   0  0  0  0  0  0  0  0  0  0  0  0
   59.5030   30.4220   48.0450 C   0  0  0  0  0  0  0  0  0  0  0  0
   59.8840   29.8200   46.7510 C   0  0  0  0  0  0  0  0  0  0  0  0
   60.9260   30.2250   46.1660 O   0  0  0  0  0  0  0  0  0  0  0  0
   59.0940   28.7740   46.1520 N   0  0  0  0  0  0  0  0  0  0  0  0
   57.6250   28.8570   46.2120 C   0  0  0  0  0  0  0  0  0  0  0  0
   57.2926   28.5772   47.2226 H   0  0  0  0  0  0  0  0  0  0  0  0
   57.3287   29.8889   45.9726 H   0  0  0  0  0  0  0  0  0  0  0  0
   56.9660   27.9220   45.1960 C   0  0  0  0  0  0  0  0  0  0  0  0
   55.8906   27.8451   45.4140 H   0  0  0  0  0  0  0  0  0  0  0  0
   57.1101   28.3258   44.1830 H   0  0  0  0  0  0  0  0  0  0  0  0
   57.5760   26.5920   45.2790 N   0  0  0  0  0  0  0  0  0  0  0  0
   56.7500   25.4180   45.2810 C   0  0  0  0  0  0  0  0  0  0  0  0
   57.2950   24.1740   44.9270 C   0  0  0  0  0  0  0  0  0  0  0  0
   58.3571   24.1012   44.6503 H   0  0  0  0  0  0  0  0  0  0  0  0
   56.4960   23.0270   44.9240 C   0  0  0  0  0  0  0  0  0  0  0  0
   56.9292   22.0558   44.6429 H   0  0  0  0  0  0  0  0  0  0  0  0
   55.1470   23.1140   45.2780 C   0  0  0  0  0  0  0  0  0  0  0  0
   54.5183   22.2114   45.2733 H   0  0  0  0  0  0  0  0  0  0  0  0
   54.5960   24.3470   45.6380 C   0  0  0  0  0  0  0  0  0  0  0  0
   53.5341   24.4128   45.9173 H   0  0  0  0  0  0  0  0  0  0  0  0
   55.3920   25.4980   45.6440 C   0  0  0  0  0  0  0  0  0  0  0  0
   54.8350   26.7140   46.0250 O   0  0  0  0  0  0  0  0  0  0  0  0
   59.0370   26.4470   45.3270 C   0  0  0  0  0  0  0  0  0  0  0  0
   59.3154   25.9491   46.2675 H   0  0  0  0  0  0  0  0  0  0  0  0
   59.3519   25.8506   44.4580 H   0  0  0  0  0  0  0  0  0  0  0  0
   59.7430   27.8070   45.2560 C   0  0  0  0  0  0  0  0  0  0  0  0
   60.7941   27.6848   45.5564 H   0  0  0  0  0  0  0  0  0  0  0  0
   59.6835   28.1841   44.2244 H   0  0  0  0  0  0  0  0  0  0  0  0
   59.2890   31.7400   48.2580 N   0  0  0  0  0  0  0  0  0  0  0  0
   59.3380   32.7700   47.2540 C   0  0  0  0  0  0  0  0  0  0  0  0
   60.3450   33.7470   47.2960 C   0  0  0  0  0  0  0  0  0  0  0  0
   61.0891   33.7339   48.1060 H   0  0  0  0  0  0  0  0  0  0  0  0
   60.4040   34.7370   46.3100 C   0  0  0  0  0  0  0  0  0  0  0  0
   61.1912   35.5044   46.3488 H   0  0  0  0  0  0  0  0  0  0  0  0
   59.4650   34.7530   45.2760 C   0  0  0  0  0  0  0  0  0  0  0  0
   59.5130   35.5328   44.5017 H   0  0  0  0  0  0  0  0  0  0  0  0
   58.4640   33.7780   45.2250 C   0  0  0  0  0  0  0  0  0  0  0  0
   57.7263   33.7907   44.4091 H   0  0  0  0  0  0  0  0  0  0  0  0
   58.3990   32.7870   46.2090 C   0  0  0  0  0  0  0  0  0  0  0  0
   57.4210   31.8480   46.1530 F   0  0  0  0  0  0  0  0  0  0  0  0
   59.0360   31.9000   49.5830 C   0  0  0  0  0  0  0  0  0  0  0  0
   58.8860   33.1000   50.1650 C   0  0  0  0  0  0  0  0  0  0  0  0
   58.8827   34.0126   49.5508 H   0  0  0  0  0  0  0  0  0  0  0  0
   58.7664   33.1710   51.2562 H   0  0  0  0  0  0  0  0  0  0  0  0
  1  2  1  0
  2  3  1  0
  3  4  1  0
  4  5  1  0
  5  6  2  0
  5  7  1  0
  7  8  1  0
  8  9  1  0
  9 10  1  0
  9 11  2  0
 11 12  1  0
 12 13  1  0
 12 14  2  0
 14 15  1  0
 15 16  2  0
 15 17  1  0
 17 18  1  0
 18 19  1  0
 18 20  1  0
 18 21  1  0
 21 22  1  0
 21 23  1  0
 21 24  1  0
 24 25  1  0
 25 26  2  0
 26 27  1  0
 26 28  1  0
 28 29  1  0
 28 30  2  0
 30 31  1  0
 30 32  1  0
 32 33  1  0
 32 34  2  0
 34 35  1  0
 24 36  1  0
 36 37  1  0
 36 38  1  0
 36 39  1  0
 39 40  1  0
 39 41  1  0
 14 42  1  0
 42 43  1  0
 43 44  2  0
 44 45  1  0
 44 46  1  0
 46 47  1  0
 46 48  2  0
 48 49  1  0
 48 50  1  0
 50 51  1  0
 50 52  2  0
 52 53  1  0
 42 54  1  0
 54 55  2  0
 55 56  1  0
 55 57  1  0
  8  3  2  0
 54 11  1  0
 39 17  1  0
 52 43  1  0
 34 25  1  0
M  CHG  3   4  -1   7  -1  35  -1
M  END
>  <UniqueID>  (66) 
64

>  <SMILES>  (66) 
C=c1/c(=C\c2[n-]c(=O)[n-]c2O)cc(C(=O)N2CCN(c3ccccc3[O-])CC2)n1-c1ccccc1F

>  <Energy>  (66) 
148.36553318186898

>  <Genealogy>  (66) 
C=c1c(=Cc2[n-]c(=O)[n-]c2O)cc(C(=O)N2CCN(c3ccccc3[O-])CC2)n1-c1ccccc1F (protonated)
C=c1/c(=C\c2[n-]c(=O)[n-]c2O)cc(C(=O)N2CCN(c3ccccc3[O-])CC2)n1-c1ccccc1F (cis-trans isomerization)
C=c1/c(=C\c2[n-]c(=O)[n-]c2O)cc(C(=O)N2CCN(c3ccccc3[O-])CC2)n1-c1ccccc1F (3D coordinates assigned)
C=c1/c(=C\c2[n-]c(=O)[n-]c2O)cc(C(=O)N2CCN(c3ccccc3[O-])CC2)n1-c1ccccc1F (nonaromatic ring conformer: 148.36553318186898 kcal/mol)

>  <smiles>  (66) 
C=c1c(=Cc2[nH]c(=O)[nH]c2O)cc(C(=O)N2CCN(c3ccccc3O)CC2)n1-c1ccccc1F

>  <score_type>  (66) 
oracle

>  <origin>  (66) 
adg

>  <m_score__min__energy>  (66) 
-15.029999999999999

>  <m_primary>  (66) 
energy

$$$$
66:0
     RDKit          3D

 61 65  0  0  0  0  0  0  0  0999 V2000
   60.1377   26.6884   49.3701 H   0  0  0  0  0  0  0  0  0  0  0  0
   59.6170   26.9150   48.4280 C   0  0  0  0  0  0  0  0  0  0  0  0
   59.0545   26.1263   47.9070 H   0  0  0  0  0  0  0  0  0  0  0  0
   59.6680   28.1520   47.9150 C   0  0  0  0  0  0  0  0  0  0  0  0
   59.0620   28.6000   46.7300 C   0  0  0  0  0  0  0  0  0  0  0  0
   58.4530   27.9230   45.7360 C   0  0  0  0  0  0  0  0  0  0  0  0
   58.8750   28.0225   44.7250 H   0  0  0  0  0  0  0  0  0  0  0  0
   57.2730   27.0640   45.8920 C   0  0  0  0  0  0  0  0  0  0  0  0
   57.3070   25.8260   46.4210 N   0  0  0  0  0  0  0  0  0  0  0  0
   56.0070   25.4550   46.4250 C   0  0  0  0  0  0  0  0  0  0  0  0
   55.6230   24.3290   46.8370 O   0  0  0  0  0  0  0  0  0  0  0  0
   55.1490   26.3880   45.9530 N   0  0  0  0  0  0  0  0  0  0  0  0
   55.9670   27.4010   45.6250 C   0  0  0  0  0  0  0  0  0  0  0  0
   55.5260   28.6100   45.1000 O   0  0  0  0  0  0  0  0  0  0  0  0
   59.1640   29.9830   46.7400 C   0  0  0  0  0  0  0  0  0  0  0  0
   58.7694   30.6753   45.9817 H   0  0  0  0  0  0  0  0  0  0  0  0
   59.8550   30.3230   47.8830 C   0  0  0  0  0  0  0  0  0  0  0  0
   60.1770   31.6990   48.2990 C   0  0  0  0  0  0  0  0  0  0  0  0
   59.3350   32.3220   49.0030 O   0  0  0  0  0  0  0  0  0  0  0  0
   61.3810   32.3600   47.8580 N   0  0  0  0  0  0  0  0  0  0  0  0
   62.5000   31.5780   47.3000 C   0  0  0  0  0  0  0  0  0  0  0  0
   62.7518   30.7684   48.0008 H   0  0  0  0  0  0  0  0  0  0  0  0
   62.1821   31.1768   46.3264 H   0  0  0  0  0  0  0  0  0  0  0  0
   63.7490   32.4430   47.0720 C   0  0  0  0  0  0  0  0  0  0  0  0
   64.6190   31.7834   46.9381 H   0  0  0  0  0  0  0  0  0  0  0  0
   63.5783   33.0599   46.1774 H   0  0  0  0  0  0  0  0  0  0  0  0
   64.0180   33.3890   48.2620 C   0  0  0  0  0  0  0  0  0  0  0  0
   64.7919   34.1018   47.9411 H   0  0  0  0  0  0  0  0  0  0  0  0
   64.5560   32.6220   49.4480 C   0  0  0  0  0  0  0  0  0  0  0  0
   66.1560   32.6740   49.9680 S   0  0  0  0  0  0  0  0  0  0  0  0
   65.9260   31.5480   51.1950 C   0  0  0  0  0  0  0  0  0  0  0  0
   66.6912   31.1922   51.9006 H   0  0  0  0  0  0  0  0  0  0  0  0
   64.5950   31.1470   51.1580 C   0  0  0  0  0  0  0  0  0  0  0  0
   64.1790   30.4084   51.8590 H   0  0  0  0  0  0  0  0  0  0  0  0
   63.8480   31.7380   50.1890 N   0  0  0  0  0  0  0  0  0  0  0  0
   62.8350   31.5240   50.0450 H   0  0  0  0  0  0  0  0  0  0  0  0
   62.7790   34.2490   48.6370 C   0  0  0  0  0  0  0  0  0  0  0  0
   62.6105   34.1617   49.7205 H   0  0  0  0  0  0  0  0  0  0  0  0
   62.9989   35.2818   48.3288 H   0  0  0  0  0  0  0  0  0  0  0  0
   61.4920   33.8270   47.9100 C   0  0  0  0  0  0  0  0  0  0  0  0
   60.6234   34.2361   48.4468 H   0  0  0  0  0  0  0  0  0  0  0  0
   61.5229   34.2160   46.8816 H   0  0  0  0  0  0  0  0  0  0  0  0
   60.1880   29.2150   48.5840 N   0  0  0  0  0  0  0  0  0  0  0  0
   60.8820   29.1910   49.8830 C   0  0  0  0  0  0  0  0  0  0  0  0
   60.5651   28.2995   50.4441 H   0  0  0  0  0  0  0  0  0  0  0  0
   61.9666   29.1656   49.7012 H   0  0  0  0  0  0  0  0  0  0  0  0
   60.5580   30.4230   50.6900 C   0  0  0  0  0  0  0  0  0  0  0  0
   61.4720   31.2570   50.9360 O   0  0  0  0  0  0  0  0  0  0  0  0
   59.2450   30.6300   51.2440 N   0  0  0  0  0  0  0  0  0  0  0  0
   58.9240   31.7460   52.1150 C   0  0  0  0  0  0  0  0  0  0  0  0
   59.6520   31.8125   52.9370 H   0  0  0  0  0  0  0  0  0  0  0  0
   58.9572   32.7041   51.5755 H   0  0  0  0  0  0  0  0  0  0  0  0
   57.5320   31.4570   52.6610 C   0  0  0  0  0  0  0  0  0  0  0  0
   57.5959   31.0900   53.6960 H   0  0  0  0  0  0  0  0  0  0  0  0
   56.9082   32.3629   52.6744 H   0  0  0  0  0  0  0  0  0  0  0  0
   56.9390   30.3830   51.7530 C   0  0  0  0  0  0  0  0  0  0  0  0
   56.3915   29.6383   52.3493 H   0  0  0  0  0  0  0  0  0  0  0  0
   56.2268   30.8129   51.0333 H   0  0  0  0  0  0  0  0  0  0  0  0
   58.1200   29.7300   51.0460 C   0  0  0  0  0  0  0  0  0  0  0  0
   58.3344   28.7455   51.4873 H   0  0  0  0  0  0  0  0  0  0  0  0
   57.9138   29.5673   49.9778 H   0  0  0  0  0  0  0  0  0  0  0  0
  1  2  1  0
  2  3  1  0
  2  4  2  0
  4  5  1  0
  5  6  2  0
  6  7  1  0
  6  8  1  0
  8  9  1  0
  9 10  1  0
 10 11  2  0
 10 12  1  0
 12 13  1  0
 13 14  1  0
  5 15  1  0
 15 16  1  0
 15 17  2  0
 17 18  1  0
 18 19  2  0
 18 20  1  0
 20 21  1  0
 21 22  1  0
 21 23  1  0
 21 24  1  0
 24 25  1  0
 24 26  1  0
 24 27  1  0
 27 28  1  0
 27 29  1  0
 29 30  1  0
 30 31  1  0
 31 32  1  0
 31 33  2  0
 33 34  1  0
 33 35  1  0
 35 36  1  0
 27 37  1  0
 37 38  1  0
 37 39  1  0
 37 40  1  0
 40 41  1  0
 40 42  1  0
 17 43  1  0
 43 44  1  0
 44 45  1  0
 44 46  1  0
 44 47  1  0
 47 48  2  0
 47 49  1  0
 49 50  1  0
 50 51  1  0
 50 52  1  0
 50 53  1  0
 53 54  1  0
 53 55  1  0
 53 56  1  0
 56 57  1  0
 56 58  1  0
 56 59  1  0
 59 60  1  0
 59 61  1  0
 43  4  1  0
 59 49  1  0
 13  8  2  0
 40 20  1  0
 35 29  2  0
M  CHG  4   9  -1  12  -1  14  -1  35   1
M  END
>  <UniqueID>  (67) 
65

>  <SMILES>  (67) 
C=c1/c(=C\c2[n-]c(=O)[n-]c2[O-])cc(C(=O)N2CCC(c3[nH+]ccs3)CC2)n1CC(=O)N1CCCC1

>  <Energy>  (67) 
171.8775173230636

>  <Genealogy>  (67) 
C=c1c(=Cc2[n-]c(=O)[n-]c2[O-])cc(C(=O)N2CCC(c3[nH+]ccs3)CC2)n1CC(=O)N1CCCC1 (protonated)
C=c1/c(=C\c2[n-]c(=O)[n-]c2[O-])cc(C(=O)N2CCC(c3[nH+]ccs3)CC2)n1CC(=O)N1CCCC1 (cis-trans isomerization)
C=c1/c(=C\c2[n-]c(=O)[n-]c2[O-])cc(C(=O)N2CCC(c3[nH+]ccs3)CC2)n1CC(=O)N1CCCC1 (3D coordinates assigned)
C=c1/c(=C\c2[n-]c(=O)[n-]c2[O-])cc(C(=O)N2CCC(c3[nH+]ccs3)CC2)n1CC(=O)N1CCCC1 (nonaromatic ring conformer: 171.8775173230636 kcal/mol)

>  <smiles>  (67) 
C=c1c(=Cc2[nH]c(=O)[nH]c2O)cc(C(=O)N2CCC(c3nccs3)CC2)n1CC(=O)N1CCCC1

>  <score_type>  (67) 
oracle

>  <origin>  (67) 
adg

>  <m_score__min__energy>  (67) 
-15.550000000000001

>  <m_primary>  (67) 
energy

$$$$
67:0
     RDKit          3D

 88 90  0  0  0  0  0  0  0  0999 V2000
   59.2176   34.6869   48.6859 H   0  0  0  0  0  0  0  0  0  0  0  0
   60.0050   34.2350   49.3070 C   0  0  0  0  0  0  0  0  0  0  0  0
   61.2560   34.2170   48.8030 C   0  0  0  0  0  0  0  0  0  0  0  0
   62.0646   34.6064   49.4390 H   0  0  0  0  0  0  0  0  0  0  0  0
   61.6330   33.7040   47.4340 C   0  0  0  0  0  0  0  0  0  0  0  0
   61.1235   34.3168   46.6758 H   0  0  0  0  0  0  0  0  0  0  0  0
   61.3256   32.6493   47.3778 H   0  0  0  0  0  0  0  0  0  0  0  0
   63.1480   33.7610   47.1760 C   0  0  0  0  0  0  0  0  0  0  0  0
   63.4595   34.8160   47.1803 H   0  0  0  0  0  0  0  0  0  0  0  0
   63.3232   33.2697   46.2075 H   0  0  0  0  0  0  0  0  0  0  0  0
   63.9920   33.0040   48.2160 C   0  0  0  0  0  0  0  0  0  0  0  0
   64.0405   33.6072   49.1346 H   0  0  0  0  0  0  0  0  0  0  0  0
   64.9882   32.8432   47.7781 H   0  0  0  0  0  0  0  0  0  0  0  0
   63.4130   31.6200   48.5670 C   0  0  0  0  0  0  0  0  0  0  0  0
   64.1839   30.8573   48.3825 H   0  0  0  0  0  0  0  0  0  0  0  0
   62.5265   31.4572   47.9365 H   0  0  0  0  0  0  0  0  0  0  0  0
   62.9670   31.5270   50.0380 C   0  0  0  0  0  0  0  0  0  0  0  0
   63.1199   32.5060   50.5157 H   0  0  0  0  0  0  0  0  0  0  0  0
   63.5689   30.7433   50.5213 H   0  0  0  0  0  0  0  0  0  0  0  0
   61.4850   31.1340   50.1800 C   0  0  0  0  0  0  0  0  0  0  0  0
   60.9435   31.4662   49.2820 H   0  0  0  0  0  0  0  0  0  0  0  0
   61.0942   31.6180   51.0872 H   0  0  0  0  0  0  0  0  0  0  0  0
   61.2960   29.6190   50.3380 C   0  0  0  0  0  0  0  0  0  0  0  0
   60.8466   29.4221   51.3225 H   0  0  0  0  0  0  0  0  0  0  0  0
   62.2864   29.1506   50.2392 H   0  0  0  0  0  0  0  0  0  0  0  0
   60.4110   29.0280   49.2810 C   0  0  0  0  0  0  0  0  0  0  0  0
   60.3600   27.7580   48.9620 O   0  0  0  0  0  0  0  0  0  0  0  0
   59.5460   27.6560   47.9360 C   0  0  0  0  0  0  0  0  0  0  0  0
   59.2330   26.3700   47.2850 C   0  0  0  0  0  0  0  0  0  0  0  0
   60.1600   25.7580   46.6930 O   0  0  0  0  0  0  0  0  0  0  0  0
   57.9190   25.7930   47.2750 N   0  0  0  0  0  0  0  0  0  0  0  0
   57.5110   24.5400   46.6360 C   0  0  1  0  0  0  0  0  0  0  0  0
   58.3891   23.9629   46.3106 H   0  0  0  0  0  0  0  0  0  0  0  0
   56.7400   23.7100   47.6260 C   0  0  0  0  0  0  0  0  0  0  0  0
   55.5370   23.9840   47.8870 O   0  0  0  0  0  0  0  0  0  0  0  0
   57.3360   22.6060   48.2300 O   0  0  0  0  0  0  0  0  0  0  0  0
   56.6480   24.8750   45.3980 C   0  0  0  0  0  0  0  0  0  0  0  0
   56.0457   25.7655   45.6308 H   0  0  0  0  0  0  0  0  0  0  0  0
   56.0386   23.9825   45.1929 H   0  0  0  0  0  0  0  0  0  0  0  0
   57.4500   25.1600   44.1130 C   0  0  0  0  0  0  0  0  0  0  0  0
   56.7547   25.1627   43.2606 H   0  0  0  0  0  0  0  0  0  0  0  0
   58.2124   24.3722   44.0227 H   0  0  0  0  0  0  0  0  0  0  0  0
   58.1880   26.5070   44.1450 C   0  0  0  0  0  0  0  0  0  0  0  0
   59.2700   26.3208   44.0773 H   0  0  0  0  0  0  0  0  0  0  0  0
   57.9294   27.0137   45.0865 H   0  0  0  0  0  0  0  0  0  0  0  0
   57.7690   27.4200   42.9850 C   0  0  0  0  0  0  0  0  0  0  0  0
   56.8174   27.0589   42.5677 H   0  0  0  0  0  0  0  0  0  0  0  0
   58.5569   27.3985   42.2177 H   0  0  0  0  0  0  0  0  0  0  0  0
   57.5990   28.7990   43.4430 N   0  0  0  0  0  0  0  0  0  0  0  0
   58.0820   29.5600   42.9130 H   0  0  0  0  0  0  0  0  0  0  0  0
   56.7770   29.1670   44.5560 C   0  0  0  0  0  0  0  0  0  0  0  0
   56.1070   28.2950   45.1710 O   0  0  0  0  0  0  0  0  0  0  0  0
   56.7270   30.5090   44.9480 O   0  0  0  0  0  0  0  0  0  0  0  0
   57.0400   31.5950   44.0780 C   0  0  0  0  0  0  0  0  0  0  0  0
   57.7211   31.2428   43.2893 H   0  0  0  0  0  0  0  0  0  0  0  0
   56.1088   31.9744   43.6319 H   0  0  0  0  0  0  0  0  0  0  0  0
   57.7020   32.7070   44.8440 C   0  0  0  0  0  0  0  0  0  0  0  0
   58.5400   33.6140   44.1770 C   0  0  0  0  0  0  0  0  0  0  0  0
   58.7190   33.5033   43.0973 H   0  0  0  0  0  0  0  0  0  0  0  0
   59.1480   34.6580   44.8810 C   0  0  0  0  0  0  0  0  0  0  0  0
   59.8058   35.3651   44.3543 H   0  0  0  0  0  0  0  0  0  0  0  0
   58.9220   34.8050   46.2510 C   0  0  0  0  0  0  0  0  0  0  0  0
   59.4006   35.6279   46.8022 H   0  0  0  0  0  0  0  0  0  0  0  0
   58.0890   33.9080   46.9210 C   0  0  0  0  0  0  0  0  0  0  0  0
   57.9118   34.0244   48.0004 H   0  0  0  0  0  0  0  0  0  0  0  0
   57.4790   32.8610   46.2220 C   0  0  0  0  0  0  0  0  0  0  0  0
   56.8226   32.1561   46.7533 H   0  0  0  0  0  0  0  0  0  0  0  0
   59.0340   28.8490   47.5590 N   0  0  0  0  0  0  0  0  0  0  0  0
   59.5920   29.7210   48.4200 C   0  0  0  0  0  0  0  0  0  0  0  0
   59.4212   30.8076   48.4328 H   0  0  0  0  0  0  0  0  0  0  0  0
   59.5950   33.6860   50.6540 C   0  0  0  0  0  0  0  0  0  0  0  0
   60.4854   33.3001   51.1720 H   0  0  0  0  0  0  0  0  0  0  0  0
   59.1322   34.4953   51.2378 H   0  0  0  0  0  0  0  0  0  0  0  0
   58.5940   32.5720   50.4970 C   0  0  0  0  0  0  0  0  0  0  0  0
   58.1680   32.2860   49.3430 O   0  0  0  0  0  0  0  0  0  0  0  0
   58.0550   31.8840   51.6410 N   0  0  0  0  0  0  0  0  0  0  0  0
   58.3110   32.2570   53.0230 C   0  0  0  0  0  0  0  0  0  0  0  0
   59.3532   32.0332   53.2944 H   0  0  0  0  0  0  0  0  0  0  0  0
   58.1597   33.3339   53.1887 H   0  0  0  0  0  0  0  0  0  0  0  0
   57.3510   31.4170   53.8590 C   0  0  0  0  0  0  0  0  0  0  0  0
   57.8697   31.0038   54.7366 H   0  0  0  0  0  0  0  0  0  0  0  0
   56.5088   32.0188   54.2311 H   0  0  0  0  0  0  0  0  0  0  0  0
   56.8730   30.2910   52.9470 C   0  0  0  0  0  0  0  0  0  0  0  0
   57.4385   29.3693   53.1486 H   0  0  0  0  0  0  0  0  0  0  0  0
   55.8095   30.0626   53.1111 H   0  0  0  0  0  0  0  0  0  0  0  0
   57.1290   30.7690   51.5230 C   0  0  0  0  0  0  0  0  0  0  0  0
   57.5748   29.9625   50.9223 H   0  0  0  0  0  0  0  0  0  0  0  0
   56.1965   31.0679   51.0220 H   0  0  0  0  0  0  0  0  0  0  0  0
  1  2  1  0
  2  3  2  0
  3  4  1  0
  3  5  1  0
  5  6  1  0
  5  7  1  0
  5  8  1  0
  8  9  1  0
  8 10  1  0
  8 11  1  0
 11 12  1  0
 11 13  1  0
 11 14  1  0
 14 15  1  0
 14 16  1  0
 14 17  1  0
 17 18  1  0
 17 19  1  0
 17 20  1  0
 20 21  1  0
 20 22  1  0
 20 23  1  0
 23 24  1  0
 23 25  1  0
 23 26  1  0
 26 27  1  0
 27 28  1  0
 28 29  1  0
 29 30  2  0
 29 31  1  0
 31 32  1  0
 32 33  1  6
 32 34  1  0
 34 35  2  0
 34 36  1  0
 32 37  1  0
 37 38  1  0
 37 39  1  0
 37 40  1  0
 40 41  1  0
 40 42  1  0
 40 43  1  0
 43 44  1  0
 43 45  1  0
 43 46  1  0
 46 47  1  0
 46 48  1  0
 46 49  1  0
 49 50  1  0
 49 51  1  0
 51 52  2  0
 51 53  1  0
 53 54  1  0
 54 55  1  0
 54 56  1  0
 54 57  1  0
 57 58  2  0
 58 59  1  0
 58 60  1  0
 60 61  1  0
 60 62  2  0
 62 63  1  0
 62 64  1  0
 64 65  1  0
 64 66  2  0
 66 67  1  0
 28 68  2  0
 68 69  1  0
 69 70  1  0
  2 71  1  0
 71 72  1  0
 71 73  1  0
 71 74  1  0
 74 75  2  0
 74 76  1  0
 76 77  1  0
 77 78  1  0
 77 79  1  0
 77 80  1  0
 80 81  1  0
 80 82  1  0
 80 83  1  0
 83 84  1  0
 83 85  1  0
 83 86  1  0
 86 87  1  0
 86 88  1  0
 69 26  2  0
 86 76  1  0
 66 57  1  0
M  CHG  2  31  -1  36  -1
M  END
>  <UniqueID>  (68) 
66

>  <SMILES>  (68) 
O=C(NCCCC[C@@H]([N-]C(=O)c1ncc(CCCCCCC/C=C\CC(=O)N2CCCC2)o1)C(=O)[O-])OCc1ccccc1

>  <Energy>  (68) 
97.19258343473291

>  <Genealogy>  (68) 
O=C(NCCCCC([N-]C(=O)c1ncc(CCCCCCCC=CCC(=O)N2CCCC2)o1)C(=O)[O-])OCc1ccccc1 (protonated)
O=C(NCCCC[C@@H]([N-]C(=O)c1ncc(CCCCCCCC=CCC(=O)N2CCCC2)o1)C(=O)[O-])OCc1ccccc1 (chirality)
O=C(NCCCC[C@@H]([N-]C(=O)c1ncc(CCCCCCC/C=C\CC(=O)N2CCCC2)o1)C(=O)[O-])OCc1ccccc1 (cis-trans isomerization)
O=C(NCCCC[C@@H]([N-]C(=O)c1ncc(CCCCCCC/C=C\CC(=O)N2CCCC2)o1)C(=O)[O-])OCc1ccccc1 (3D coordinates assigned)
O=C(NCCCC[C@@H]([N-]C(=O)c1ncc(CCCCCCC/C=C\CC(=O)N2CCCC2)o1)C(=O)[O-])OCc1ccccc1 (nonaromatic ring conformer: 97.19258343473291 kcal/mol)

>  <smiles>  (68) 
O=C(NCCCCC(NC(=O)c1ncc(CCCCCCCC=CCC(=O)N2CCCC2)o1)C(=O)O)OCc1ccccc1

>  <score_type>  (68) 
oracle

>  <origin>  (68) 
adg

>  <m_score__min__energy>  (68) 
-13.92

>  <m_primary>  (68) 
energy

$$$$
68:0
     RDKit          3D

 49 51  0  0  0  0  0  0  0  0999 V2000
   62.8770   34.6380   50.0820 C   0  0  0  0  0  0  0  0  0  0  0  0
   61.4380   34.1920   49.8200 C   0  0  0  0  0  0  0  0  0  0  0  0
   60.9730   33.1200   50.8110 C   0  0  0  0  0  0  0  0  0  0  0  0
   60.9560   31.7980   50.1880 N   0  0  0  0  0  0  0  0  0  0  0  0
   59.8740   31.0660   49.9940 N   0  0  0  0  0  0  0  0  0  0  0  0
   60.2210   29.9540   49.3620 N   0  0  0  0  0  0  0  0  0  0  0  0
   61.5290   29.9500   49.1320 N   0  0  0  0  0  0  0  0  0  0  0  0
   61.9760   31.1070   49.6520 C   0  0  0  0  0  0  0  0  0  0  0  0
   63.6920   31.6340   49.6150 S   0  0  0  0  0  0  0  0  0  0  0  0
   63.7590   31.7910   47.7980 C   0  0  0  0  0  0  0  0  0  0  0  0
   62.6580   32.6780   47.3060 C   0  0  0  0  0  0  0  0  0  0  0  0
   62.9310   33.8410   46.9050 O   0  0  0  0  0  0  0  0  0  0  0  0
   61.3030   32.2070   47.3070 N   0  0  0  0  0  0  0  0  0  0  0  0
   60.2250   32.8930   46.6480 C   0  0  0  0  0  0  0  0  0  0  0  0
   60.2080   34.2990   46.6090 C   0  0  0  0  0  0  0  0  0  0  0  0
   59.2050   34.9790   45.9140 C   0  0  0  0  0  0  0  0  0  0  0  0
   58.2140   34.2650   45.2420 C   0  0  0  0  0  0  0  0  0  0  0  0
   58.2210   32.8700   45.2620 C   0  0  0  0  0  0  0  0  0  0  0  0
   59.2240   32.1680   45.9550 C   0  0  0  0  0  0  0  0  0  0  0  0
   59.1680   30.6890   45.9940 C   0  0  0  0  0  0  0  0  0  0  0  0
   60.0600   30.0560   46.6230 O   0  0  0  0  0  0  0  0  0  0  0  0
   58.0850   29.9650   45.3790 N   0  0  0  0  0  0  0  0  0  0  0  0
   57.6690   28.6820   45.9570 C   0  0  0  0  0  0  0  0  0  0  0  0
   56.4260   28.1530   45.2410 C   0  0  0  0  0  0  0  0  0  0  0  0
   55.5560   29.2280   44.9620 O   0  0  0  0  0  0  0  0  0  0  0  0
   56.0770   30.0170   43.9040 C   0  0  0  0  0  0  0  0  0  0  0  0
   57.5790   30.3530   44.0550 C   0  0  0  0  0  0  0  0  0  0  0  0
   63.0523   34.6923   51.1666 H   0  0  0  0  0  0  0  0  0  0  0  0
   63.5728   33.9134   49.6339 H   0  0  0  0  0  0  0  0  0  0  0  0
   63.0410   35.6291   49.6339 H   0  0  0  0  0  0  0  0  0  0  0  0
   60.7753   35.0657   49.9069 H   0  0  0  0  0  0  0  0  0  0  0  0
   61.3985   33.7573   48.8103 H   0  0  0  0  0  0  0  0  0  0  0  0
   61.6597   33.1032   51.6702 H   0  0  0  0  0  0  0  0  0  0  0  0
   59.9514   33.3655   51.1366 H   0  0  0  0  0  0  0  0  0  0  0  0
   64.7283   32.2226   47.5077 H   0  0  0  0  0  0  0  0  0  0  0  0
   63.6381   30.7934   47.3506 H   0  0  0  0  0  0  0  0  0  0  0  0
   61.0880   31.3310   47.8370 H   0  0  0  0  0  0  0  0  0  0  0  0
   60.9916   34.8682   47.1305 H   0  0  0  0  0  0  0  0  0  0  0  0
   59.1971   36.0788   45.8970 H   0  0  0  0  0  0  0  0  0  0  0  0
   57.4252   34.8024   44.6951 H   0  0  0  0  0  0  0  0  0  0  0  0
   57.4347   32.3137   44.7308 H   0  0  0  0  0  0  0  0  0  0  0  0
   58.4866   27.9540   45.8496 H   0  0  0  0  0  0  0  0  0  0  0  0
   57.4321   28.8300   47.0209 H   0  0  0  0  0  0  0  0  0  0  0  0
   56.7229   27.6668   44.3000 H   0  0  0  0  0  0  0  0  0  0  0  0
   55.9139   27.4215   45.8834 H   0  0  0  0  0  0  0  0  0  0  0  0
   55.9379   29.4677   42.9612 H   0  0  0  0  0  0  0  0  0  0  0  0
   55.5325   30.9726   43.9198 H   0  0  0  0  0  0  0  0  0  0  0  0
   58.1460   29.8125   43.2827 H   0  0  0  0  0  0  0  0  0  0  0  0
   57.7035   31.4401   43.9418 H   0  0  0  0  0  0  0  0  0  0  0  0
  1  2  1  0
  2  3  1  0
  3  4  1  0
  4  5  1  0
  5  6  2  0
  6  7  1  0
  7  8  2  0
  8  9  1  0
  9 10  1  0
 10 11  1  0
 11 12  2  0
 11 13  1  0
 13 14  1  0
 14 15  2  0
 15 16  1  0
 16 17  2  0
 17 18  1  0
 18 19  2  0
 19 20  1  0
 20 21  2  0
 20 22  1  0
 22 23  1  0
 23 24  1  0
 24 25  1  0
 25 26  1  0
 26 27  1  0
  8  4  1  0
 19 14  1  0
 27 22  1  0
  1 28  1  0
  1 29  1  0
  1 30  1  0
  2 31  1  0
  2 32  1  0
  3 33  1  0
  3 34  1  0
 10 35  1  0
 10 36  1  0
 13 37  1  0
 15 38  1  0
 16 39  1  0
 17 40  1  0
 18 41  1  0
 23 42  1  0
 23 43  1  0
 24 44  1  0
 24 45  1  0
 26 46  1  0
 26 47  1  0
 27 48  1  0
 27 49  1  0
M  END
>  <UniqueID>  (69) 
67

>  <SMILES>  (69) 
CCCn1nnnc1SCC(=O)Nc1ccccc1C(=O)N1CCOCC1

>  <Energy>  (69) 
95.51590248579734

>  <Genealogy>  (69) 
CCCn1nnnc1SCC(=O)Nc1ccccc1C(=O)N1CCOCC1 (3D coordinates assigned)
CCCn1nnnc1SCC(=O)Nc1ccccc1C(=O)N1CCOCC1 (nonaromatic ring conformer: 95.51590248579734 kcal/mol)

>  <smiles>  (69) 
CCCn1nnnc1SCC(=O)Nc1ccccc1C(=O)N1CCOCC1

>  <score_type>  (69) 
oracle

>  <origin>  (69) 
adg

>  <m_score__min__energy>  (69) 
-8.1400000000000006

>  <m_primary>  (69) 
energy

$$$$
69:0
     RDKit          3D

 46 48  0  0  0  0  0  0  0  0999 V2000
   58.6290   30.8000   45.6950 C   0  0  0  0  0  0  0  0  0  0  0  0
   58.9570   30.0200   46.7370 C   0  0  0  0  0  0  0  0  0  0  0  0
   58.7520   28.6330   46.8350 C   0  0  0  0  0  0  0  0  0  0  0  0
   58.3960   27.7210   45.9080 C   0  0  0  0  0  0  0  0  0  0  0  0
   57.2040   26.8600   45.9630 C   0  0  0  0  0  0  0  0  0  0  0  0
   57.1850   25.6040   46.4480 N   0  0  0  0  0  0  0  0  0  0  0  0
   55.8740   25.2800   46.4230 C   0  0  0  0  0  0  0  0  0  0  0  0
   55.4470   24.1560   46.7950 O   0  0  0  0  0  0  0  0  0  0  0  0
   55.0560   26.2590   45.9790 N   0  0  0  0  0  0  0  0  0  0  0  0
   55.9140   27.2550   45.7060 C   0  0  0  0  0  0  0  0  0  0  0  0
   55.5240   28.5040   45.2390 O   0  0  0  0  0  0  0  0  0  0  0  0
   59.0160   28.2940   48.1490 C   0  0  0  0  0  0  0  0  0  0  0  0
   59.4440   29.4400   48.7810 C   0  0  0  0  0  0  0  0  0  0  0  0
   59.8370   29.5030   50.2260 C   0  0  0  0  0  0  0  0  0  0  0  0
   59.4120   30.4950   47.9320 N   0  0  0  0  0  0  0  0  0  0  0  0
   59.7450   31.8840   48.2940 C   0  0  0  0  0  0  0  0  0  0  0  0
   61.1050   32.2740   47.7560 C   0  0  0  0  0  0  0  0  0  0  0  0
   62.1210   31.3050   47.6830 C   0  0  0  0  0  0  0  0  0  0  0  0
   63.3850   31.6360   47.1930 C   0  0  0  0  0  0  0  0  0  0  0  0
   63.6500   32.9350   46.7650 C   0  0  0  0  0  0  0  0  0  0  0  0
   62.6540   33.9110   46.8330 C   0  0  0  0  0  0  0  0  0  0  0  0
   61.3790   33.5970   47.3420 C   0  0  0  0  0  0  0  0  0  0  0  0
   60.3610   34.5620   47.4000 O   0  0  0  0  0  0  0  0  0  0  0  0
   59.4200   34.8160   46.3950 C   0  0  0  0  0  0  0  0  0  0  0  0
   59.6250   35.7010   45.5220 O   0  0  0  0  0  0  0  0  0  0  0  0
   58.1070   34.1000   46.4310 C   0  0  0  0  0  0  0  0  0  0  0  0
   57.3860   34.3410   45.2380 O   0  0  0  0  0  0  0  0  0  0  0  0
   57.7820   33.4330   44.2340 C   0  0  0  0  0  0  0  0  0  0  0  0
   58.8380   31.8794   45.7287 H   0  0  0  0  0  0  0  0  0  0  0  0
   58.1512   30.3598   44.8073 H   0  0  0  0  0  0  0  0  0  0  0  0
   59.0545   27.6109   45.0338 H   0  0  0  0  0  0  0  0  0  0  0  0
   58.9052   27.2983   48.6032 H   0  0  0  0  0  0  0  0  0  0  0  0
   58.9459   29.3602   50.8549 H   0  0  0  0  0  0  0  0  0  0  0  0
   60.5689   28.7107   50.4418 H   0  0  0  0  0  0  0  0  0  0  0  0
   60.2846   30.4844   50.4418 H   0  0  0  0  0  0  0  0  0  0  0  0
   58.9846   32.5578   47.8722 H   0  0  0  0  0  0  0  0  0  0  0  0
   59.7659   31.9648   49.3908 H   0  0  0  0  0  0  0  0  0  0  0  0
   61.9177   30.2763   48.0152 H   0  0  0  0  0  0  0  0  0  0  0  0
   64.1732   30.8702   47.1446 H   0  0  0  0  0  0  0  0  0  0  0  0
   64.6451   33.1920   46.3730 H   0  0  0  0  0  0  0  0  0  0  0  0
   62.8668   34.9330   46.4864 H   0  0  0  0  0  0  0  0  0  0  0  0
   58.2851   33.0196   46.5359 H   0  0  0  0  0  0  0  0  0  0  0  0
   57.5205   34.4688   47.2854 H   0  0  0  0  0  0  0  0  0  0  0  0
   58.1801   32.5203   44.7014 H   0  0  0  0  0  0  0  0  0  0  0  0
   56.9141   33.1762   43.6088 H   0  0  0  0  0  0  0  0  0  0  0  0
   58.5606   33.8943   43.6088 H   0  0  0  0  0  0  0  0  0  0  0  0
  1  2  2  0
  2  3  1  0
  3  4  2  3
  4  5  1  0
  5  6  1  0
  6  7  1  0
  7  8  2  0
  7  9  1  0
  9 10  1  0
 10 11  1  0
  3 12  1  0
 12 13  2  0
 13 14  1  0
 13 15  1  0
 15 16  1  0
 16 17  1  0
 17 18  2  0
 18 19  1  0
 19 20  2  0
 20 21  1  0
 21 22  2  0
 22 23  1  0
 23 24  1  0
 24 25  2  0
 24 26  1  0
 26 27  1  0
 27 28  1  0
 15  2  1  0
 22 17  1  0
 10  5  2  0
  1 29  1  0
  1 30  1  0
  4 31  1  0
 12 32  1  0
 14 33  1  0
 14 34  1  0
 14 35  1  0
 16 36  1  0
 16 37  1  0
 18 38  1  0
 19 39  1  0
 20 40  1  0
 21 41  1  0
 26 42  1  0
 26 43  1  0
 28 44  1  0
 28 45  1  0
 28 46  1  0
M  CHG  3   6  -1   9  -1  11  -1
M  END
>  <UniqueID>  (70) 
68

>  <SMILES>  (70) 
C=c1c(=Cc2[n-]c(=O)[n-]c2[O-])cc(C)n1Cc1ccccc1OC(=O)COC

>  <Energy>  (70) 
121.52998326051686

>  <Genealogy>  (70) 
C=c1c(=Cc2[n-]c(=O)[n-]c2[O-])cc(C)n1Cc1ccccc1OC(=O)COC (protonated)
C=c1c(=Cc2[n-]c(=O)[n-]c2[O-])cc(C)n1Cc1ccccc1OC(=O)COC (3D coordinates assigned)
C=c1c(=Cc2[n-]c(=O)[n-]c2[O-])cc(C)n1Cc1ccccc1OC(=O)COC (optimized conformer: 121.52998326051686 kcal/mol)

>  <smiles>  (70) 
C=c1c(=Cc2[nH]c(=O)[nH]c2O)cc(C)n1Cc1ccccc1OC(=O)COC

>  <score_type>  (70) 
oracle

>  <origin>  (70) 
adg

>  <m_score__min__energy>  (70) 
-15.119999999999999

>  <m_primary>  (70) 
energy

$$$$
70:0
     RDKit          3D

 61 65  0  0  0  0  0  0  0  0999 V2000
   56.6310   32.3300   50.5810 H   0  0  0  0  0  0  0  0  0  0  0  0
   57.5640   31.9960   50.5640 O   0  0  0  0  0  0  0  0  0  0  0  0
   58.1280   32.3660   51.7900 C   0  0  0  0  0  0  0  0  0  0  0  0
   58.7441   31.5389   52.1726 H   0  0  0  0  0  0  0  0  0  0  0  0
   57.3236   32.5920   52.5054 H   0  0  0  0  0  0  0  0  0  0  0  0
   59.0010   33.6050   51.6070 C   0  0  0  0  0  0  0  0  0  0  0  0
   59.6243   33.7433   52.5027 H   0  0  0  0  0  0  0  0  0  0  0  0
   58.3493   34.4785   51.4576 H   0  0  0  0  0  0  0  0  0  0  0  0
   59.8670   33.4580   50.4370 N   0  0  0  0  0  0  0  0  0  0  0  0
   59.4690   33.5240   49.1450 C   0  0  0  0  0  0  0  0  0  0  0  0
   58.4442   33.7496   48.8149 H   0  0  0  0  0  0  0  0  0  0  0  0
   60.5400   33.2660   48.2920 C   0  0  0  0  0  0  0  0  0  0  0  0
   60.5130   33.2700   46.8140 C   0  0  0  0  0  0  0  0  0  0  0  0
   61.5960   33.3880   46.1840 O   0  0  0  0  0  0  0  0  0  0  0  0
   59.2440   33.1610   46.0590 C   0  0  0  0  0  0  0  0  0  0  0  0
   58.4520   34.2990   45.8420 C   0  0  0  0  0  0  0  0  0  0  0  0
   58.7684   35.2765   46.2349 H   0  0  0  0  0  0  0  0  0  0  0  0
   57.2610   34.1830   45.1250 C   0  0  0  0  0  0  0  0  0  0  0  0
   56.6304   35.0694   44.9618 H   0  0  0  0  0  0  0  0  0  0  0  0
   56.8780   32.9790   44.6280 N   0  0  0  0  0  0  0  0  0  0  0  0
   57.6290   31.8550   44.8020 C   0  0  0  0  0  0  0  0  0  0  0  0
   57.2530   30.7060   44.3190 N   0  0  0  0  0  0  0  0  0  0  0  0
   56.5820   29.6490   45.0250 C   0  0  0  0  0  0  0  0  0  0  0  0
   55.3480   29.4460   44.8780 O   0  0  0  0  0  0  0  0  0  0  0  0
   57.3650   28.7970   45.9730 C   0  0  0  0  0  0  0  0  0  0  0  0
   58.4253   28.8063   45.6801 H   0  0  0  0  0  0  0  0  0  0  0  0
   57.2554   29.1967   46.9919 H   0  0  0  0  0  0  0  0  0  0  0  0
   56.8530   27.3870   45.9400 C   0  0  0  0  0  0  0  0  0  0  0  0
   55.5440   27.0780   46.0010 N   0  0  0  0  0  0  0  0  0  0  0  0
   55.5340   25.7360   45.8810 C   0  0  0  0  0  0  0  0  0  0  0  0
   54.4710   25.0630   45.8900 O   0  0  0  0  0  0  0  0  0  0  0  0
   56.7500   25.1730   45.7440 N   0  0  0  0  0  0  0  0  0  0  0  0
   57.5880   26.2240   45.7890 C   0  0  0  0  0  0  0  0  0  0  0  0
   59.0760   26.0950   45.6160 C   0  0  0  0  0  0  0  0  0  0  0  0
   59.2898   25.1651   45.0687 H   0  0  0  0  0  0  0  0  0  0  0  0
   59.4293   26.9764   45.0607 H   0  0  0  0  0  0  0  0  0  0  0  0
   59.8140   26.0580   46.9600 C   0  0  0  0  0  0  0  0  0  0  0  0
   59.1866   25.5336   47.6957 H   0  0  0  0  0  0  0  0  0  0  0  0
   60.7701   25.5353   46.8093 H   0  0  0  0  0  0  0  0  0  0  0  0
   60.1150   27.4420   47.4750 C   0  0  0  0  0  0  0  0  0  0  0  0
   60.4150   28.4810   46.5790 C   0  0  0  0  0  0  0  0  0  0  0  0
   60.4605   28.2774   45.4990 H   0  0  0  0  0  0  0  0  0  0  0  0
   60.6560   29.7730   47.0550 C   0  0  0  0  0  0  0  0  0  0  0  0
   60.8963   30.5823   46.3498 H   0  0  0  0  0  0  0  0  0  0  0  0
   60.5920   30.0380   48.4260 C   0  0  0  0  0  0  0  0  0  0  0  0
   60.7854   31.0548   48.7985 H   0  0  0  0  0  0  0  0  0  0  0  0
   60.2830   29.0140   49.3230 C   0  0  0  0  0  0  0  0  0  0  0  0
   60.2277   29.2255   50.4011 H   0  0  0  0  0  0  0  0  0  0  0  0
   60.0440   27.7210   48.8520 C   0  0  0  0  0  0  0  0  0  0  0  0
   59.7990   26.9168   49.5614 H   0  0  0  0  0  0  0  0  0  0  0  0
   58.8290   31.9320   45.5180 C   0  0  0  0  0  0  0  0  0  0  0  0
   59.4463   31.0322   45.6571 H   0  0  0  0  0  0  0  0  0  0  0  0
   61.6250   33.0370   49.1210 C   0  0  0  0  0  0  0  0  0  0  0  0
   62.9480   32.6970   48.8510 C   0  0  0  0  0  0  0  0  0  0  0  0
   63.3059   32.6002   47.8153 H   0  0  0  0  0  0  0  0  0  0  0  0
   63.7890   32.4870   49.9050 N   0  0  0  0  0  0  0  0  0  0  0  0
   63.3700   32.5980   51.2030 C   0  0  0  0  0  0  0  0  0  0  0  0
   64.0821   32.4252   52.0234 H   0  0  0  0  0  0  0  0  0  0  0  0
   62.0370   32.9310   51.4950 C   0  0  0  0  0  0  0  0  0  0  0  0
   61.6820   33.0165   52.5326 H   0  0  0  0  0  0  0  0  0  0  0  0
   61.1810   33.1490   50.4130 C   0  0  0  0  0  0  0  0  0  0  0  0
  1  2  1  0
  2  3  1  0
  3  4  1  0
  3  5  1  0
  3  6  1  0
  6  7  1  0
  6  8  1  0
  6  9  1  0
  9 10  1  0
 10 11  1  0
 10 12  2  0
 12 13  1  0
 13 14  2  0
 13 15  1  0
 15 16  1  0
 16 17  1  0
 16 18  2  0
 18 19  1  0
 18 20  1  0
 20 21  1  0
 21 22  2  0
 22 23  1  0
 23 24  2  0
 23 25  1  0
 25 26  1  0
 25 27  1  0
 25 28  1  0
 28 29  1  0
 29 30  1  0
 30 31  2  0
 30 32  1  0
 32 33  1  0
 33 34  1  0
 34 35  1  0
 34 36  1  0
 34 37  1  0
 37 38  1  0
 37 39  1  0
 37 40  1  0
 40 41  2  0
 41 42  1  0
 41 43  1  0
 43 44  1  0
 43 45  2  0
 45 46  1  0
 45 47  1  0
 47 48  1  0
 47 49  2  0
 49 50  1  0
 21 51  1  0
 51 52  1  0
 12 53  1  0
 53 54  2  0
 54 55  1  0
 54 56  1  0
 56 57  2  0
 57 58  1  0
 57 59  1  0
 59 60  1  0
 59 61  2  0
 61  9  1  0
 51 15  2  0
 61 53  1  0
 33 28  2  0
 49 40  1  0
M  CHG  3  20  -1  29  -1  32  -1
M  END
>  <UniqueID>  (71) 
69

>  <SMILES>  (71) 
O=C(Cc1[n-]c(=O)[n-]c1CCc1ccccc1)/N=c1/cc(C(=O)c2cn(CCO)c3ccncc23)cc[n-]1

>  <Energy>  (71) 
128.55387350249273

>  <Genealogy>  (71) 
O=C(Cc1[n-]c(=O)[n-]c1CCc1ccccc1)N=c1cc(C(=O)c2cn(CCO)c3ccncc23)cc[n-]1 (protonated)
O=C(Cc1[n-]c(=O)[n-]c1CCc1ccccc1)/N=c1/cc(C(=O)c2cn(CCO)c3ccncc23)cc[n-]1 (cis-trans isomerization)
O=C(Cc1[n-]c(=O)[n-]c1CCc1ccccc1)/N=c1/cc(C(=O)c2cn(CCO)c3ccncc23)cc[n-]1 (3D coordinates assigned)
O=C(Cc1[n-]c(=O)[n-]c1CCc1ccccc1)/N=c1/cc(C(=O)c2cn(CCO)c3ccncc23)cc[n-]1 (optimized conformer: 128.55387350249273 kcal/mol)

>  <smiles>  (71) 
O=C(Cc1[nH]c(=O)[nH]c1CCc1ccccc1)N=c1cc(C(=O)c2cn(CCO)c3ccncc23)cc[nH]1

>  <score_type>  (71) 
oracle

>  <origin>  (71) 
adg

>  <m_score__min__energy>  (71) 
-15.17

>  <m_primary>  (71) 
energy

$$$$
71:0
     RDKit          3D

 75 78  0  0  0  0  0  0  0  0999 V2000
   57.7860   32.1350   46.5000 C   0  0  0  0  0  0  0  0  0  0  0  0
   57.6470   31.8930   45.0260 C   0  0  0  0  0  0  0  0  0  0  0  0
   57.8900   32.9170   44.0770 C   0  0  0  0  0  0  0  0  0  0  0  0
   57.7470   32.6670   42.7050 C   0  0  0  0  0  0  0  0  0  0  0  0
   57.2790   31.4130   42.2760 C   0  0  0  0  0  0  0  0  0  0  0  0
   56.9960   30.4140   43.2200 C   0  0  0  0  0  0  0  0  0  0  0  0
   57.1100   30.6590   44.5980 C   0  0  0  0  0  0  0  0  0  0  0  0
   56.6890   29.6830   45.5490 N   0  0  0  0  0  0  0  0  0  0  0  0
   57.7280   28.9570   46.2110 C   0  0  0  0  0  0  0  0  0  0  0  0
   57.4230   27.8780   46.8300 O   0  0  0  0  0  0  0  0  0  0  0  0
   59.0520   29.5700   46.3200 N   0  0  0  0  0  0  0  0  0  0  0  0
   59.9680   29.0460   47.2980 C   0  0  0  0  0  0  0  0  0  0  0  0
   60.3590   27.7130   47.2540 C   0  0  0  0  0  0  0  0  0  0  0  0
   60.7590   27.0670   48.4520 C   0  0  0  0  0  0  0  0  0  0  0  0
   60.7650   27.7820   49.6850 C   0  0  0  0  0  0  0  0  0  0  0  0
   60.4630   27.0080   50.9600 C   0  0  0  0  0  0  0  0  0  0  0  0
   60.6190   27.7910   52.2590 C   0  0  0  0  0  0  0  0  0  0  0  0
   61.5880   27.5370   53.0520 O   0  0  0  0  0  0  0  0  0  0  0  0
   59.5490   28.6410   52.6670 N   0  0  0  0  0  0  0  0  0  0  0  0
   58.5190   29.1570   51.7860 C   0  0  0  0  0  0  0  0  0  0  0  0
   58.2630   30.6090   52.1960 C   0  0  1  0  0  0  0  0  0  0  0  0
   58.6540   31.6690   51.2470 N   0  0  0  0  0  0  0  0  0  0  0  0
   59.5270   32.8590   51.3000 C   0  0  0  0  0  0  0  0  0  0  0  0
   59.0750   33.9200   51.8230 O   0  0  0  0  0  0  0  0  0  0  0  0
   60.8230   32.8260   50.7500 O   0  0  0  0  0  0  0  0  0  0  0  0
   61.4310   33.9460   50.1000 C   0  0  0  0  0  0  0  0  0  0  0  0
   60.8960   34.0040   48.7100 C   0  0  0  0  0  0  0  0  0  0  0  0
   59.6610   34.6310   48.4510 C   0  0  0  0  0  0  0  0  0  0  0  0
   59.2810   34.9170   47.1240 C   0  0  0  0  0  0  0  0  0  0  0  0
   60.0980   34.5390   46.0400 C   0  0  0  0  0  0  0  0  0  0  0  0
   61.2900   33.8510   46.3240 C   0  0  0  0  0  0  0  0  0  0  0  0
   61.6370   33.5090   47.6500 C   0  0  0  0  0  0  0  0  0  0  0  0
   56.7700   30.7080   52.5720 C   0  0  0  0  0  0  0  0  0  0  0  0
   56.4320   31.0950   53.7030 O   0  0  0  0  0  0  0  0  0  0  0  0
   55.7710   30.5550   51.5660 N   0  0  0  0  0  0  0  0  0  0  0  0
   54.5080   30.3920   51.8320 C   0  0  0  0  0  0  0  0  0  0  0  0
   54.0380   29.3200   52.6270 C   0  0  0  0  0  0  0  0  0  0  0  0
   52.6850   29.2220   52.9310 C   0  0  0  0  0  0  0  0  0  0  0  0
   52.2160   28.0550   53.7250 C   0  0  0  0  0  0  0  0  0  0  0  0
   51.0410   28.1320   54.2210 O   0  0  0  0  0  0  0  0  0  0  0  0
   52.9920   26.8960   53.8720 O   0  0  0  0  0  0  0  0  0  0  0  0
   51.7830   30.1280   52.4230 N   0  0  0  0  0  0  0  0  0  0  0  0
   52.2370   31.1890   51.6530 C   0  0  0  0  0  0  0  0  0  0  0  0
   51.2740   32.2100   51.1860 C   0  0  0  0  0  0  0  0  0  0  0  0
   50.5860   32.8500   52.0370 O   0  0  0  0  0  0  0  0  0  0  0  0
   50.9860   32.3440   49.8490 O   0  0  0  0  0  0  0  0  0  0  0  0
   53.5870   31.3240   51.3730 C   0  0  0  0  0  0  0  0  0  0  0  0
   60.7680   29.2260   49.6060 C   0  0  0  0  0  0  0  0  0  0  0  0
   60.3540   29.8240   48.4340 C   0  0  0  0  0  0  0  0  0  0  0  0
   57.3124   31.3105   47.0532 H   0  0  0  0  0  0  0  0  0  0  0  0
   58.8526   32.1886   46.7638 H   0  0  0  0  0  0  0  0  0  0  0  0
   57.2949   33.0833   46.7638 H   0  0  0  0  0  0  0  0  0  0  0  0
   58.1936   33.9171   44.4200 H   0  0  0  0  0  0  0  0  0  0  0  0
   57.9990   33.4458   41.9702 H   0  0  0  0  0  0  0  0  0  0  0  0
   57.1350   31.2153   41.2035 H   0  0  0  0  0  0  0  0  0  0  0  0
   56.6786   29.4194   42.8737 H   0  0  0  0  0  0  0  0  0  0  0  0
   59.4000   30.1040   45.4600 H   0  0  0  0  0  0  0  0  0  0  0  0
   60.3583   27.1647   46.3004 H   0  0  0  0  0  0  0  0  0  0  0  0
   61.0655   26.0108   48.4293 H   0  0  0  0  0  0  0  0  0  0  0  0
   59.4236   26.6526   50.9019 H   0  0  0  0  0  0  0  0  0  0  0  0
   61.2078   26.1997   51.0047 H   0  0  0  0  0  0  0  0  0  0  0  0
   58.8600   29.1144   50.7411 H   0  0  0  0  0  0  0  0  0  0  0  0
   57.5991   28.5592   51.8664 H   0  0  0  0  0  0  0  0  0  0  0  0
   58.9387   30.8188   53.0382 H   0  0  0  0  0  0  0  0  0  0  0  0
   61.1812   34.8728   50.6373 H   0  0  0  0  0  0  0  0  0  0  0  0
   62.5258   33.8393   50.0889 H   0  0  0  0  0  0  0  0  0  0  0  0
   58.9937   34.8972   49.2840 H   0  0  0  0  0  0  0  0  0  0  0  0
   58.3338   35.4424   46.9321 H   0  0  0  0  0  0  0  0  0  0  0  0
   59.8119   34.7749   45.0044 H   0  0  0  0  0  0  0  0  0  0  0  0
   61.9641   33.5741   45.5000 H   0  0  0  0  0  0  0  0  0  0  0  0
   62.4962   32.8492   47.8406 H   0  0  0  0  0  0  0  0  0  0  0  0
   54.7429   28.5645   53.0043 H   0  0  0  0  0  0  0  0  0  0  0  0
   53.9342   32.1819   50.7785 H   0  0  0  0  0  0  0  0  0  0  0  0
   61.0936   29.8346   50.4625 H   0  0  0  0  0  0  0  0  0  0  0  0
   60.3201   30.9217   48.3720 H   0  0  0  0  0  0  0  0  0  0  0  0
  1  2  1  0
  2  3  2  0
  3  4  1  0
  4  5  2  0
  5  6  1  0
  6  7  2  0
  7  8  1  0
  8  9  1  0
  9 10  2  0
  9 11  1  0
 11 12  1  0
 12 13  2  0
 13 14  1  0
 14 15  2  0
 15 16  1  0
 16 17  1  0
 17 18  2  0
 17 19  1  0
 19 20  1  0
 20 21  1  0
 21 22  1  0
 22 23  1  0
 23 24  2  0
 23 25  1  0
 25 26  1  0
 26 27  1  0
 27 28  2  0
 28 29  1  0
 29 30  2  0
 30 31  1  0
 31 32  2  0
 21 33  1  0
 33 34  2  0
 33 35  1  0
 35 36  2  3
 36 37  1  0
 37 38  2  0
 38 39  1  0
 39 40  2  0
 39 41  1  0
 38 42  1  0
 42 43  1  0
 43 44  1  0
 44 45  2  0
 44 46  1  0
 43 47  2  0
 15 48  1  0
 48 49  2  0
  7  2  1  0
 49 12  1  0
 32 27  1  0
 47 36  1  0
  1 50  1  0
  1 51  1  0
  1 52  1  0
  3 53  1  0
  4 54  1  0
  5 55  1  0
  6 56  1  0
 11 57  1  0
 13 58  1  0
 14 59  1  0
 16 60  1  0
 16 61  1  0
 20 62  1  0
 20 63  1  0
 21 64  1  1
 26 65  1  0
 26 66  1  0
 28 67  1  0
 29 68  1  0
 30 69  1  0
 31 70  1  0
 32 71  1  0
 37 72  1  0
 47 73  1  0
 48 74  1  0
 49 75  1  0
M  CHG  6   8  -1  19  -1  22  -1  41  -1  42  -1  46  -1
M  END
>  <UniqueID>  (72) 
70

>  <SMILES>  (72) 
Cc1ccccc1[N-]C(=O)Nc1ccc(CC(=O)[N-]C[C@@H]([N-]C(=O)OCc2ccccc2)C(=O)N=c2cc(C(=O)[O-])[n-]c(C(=O)[O-])c2)cc1

>  <Energy>  (72) 
171.44843555930137

>  <Genealogy>  (72) 
Cc1ccccc1[N-]C(=O)Nc1ccc(CC(=O)[N-]CC([N-]C(=O)OCc2ccccc2)C(=O)N=c2cc(C(=O)[O-])[n-]c(C(=O)[O-])c2)cc1 (protonated)
Cc1ccccc1[N-]C(=O)Nc1ccc(CC(=O)[N-]C[C@@H]([N-]C(=O)OCc2ccccc2)C(=O)N=c2cc(C(=O)[O-])[n-]c(C(=O)[O-])c2)cc1 (chirality)
Cc1ccccc1[N-]C(=O)Nc1ccc(CC(=O)[N-]C[C@@H]([N-]C(=O)OCc2ccccc2)C(=O)N=c2cc(C(=O)[O-])[n-]c(C(=O)[O-])c2)cc1 (3D coordinates assigned)
Cc1ccccc1[N-]C(=O)Nc1ccc(CC(=O)[N-]C[C@@H]([N-]C(=O)OCc2ccccc2)C(=O)N=c2cc(C(=O)[O-])[n-]c(C(=O)[O-])c2)cc1 (optimized conformer: 171.44843555930137 kcal/mol)

>  <smiles>  (72) 
Cc1ccccc1NC(=O)Nc1ccc(CC(=O)NCC(NC(=O)OCc2ccccc2)C(=O)N=c2cc(C(=O)O)[nH]c(C(=O)O)c2)cc1

>  <score_type>  (72) 
oracle

>  <origin>  (72) 
adg

>  <m_score__min__energy>  (72) 
-19.940000000000001

>  <m_primary>  (72) 
energy

$$$$
72:0
     RDKit          3D

 56 59  0  0  0  0  0  0  0  0999 V2000
   63.1440   31.8850   50.6410 C   0  0  0  0  0  0  0  0  0  0  0  0
   62.5380   32.5740   49.4450 C   0  0  0  0  0  0  0  0  0  0  0  0
   63.3180   32.7250   48.2870 C   0  0  0  0  0  0  0  0  0  0  0  0
   62.7890   33.3370   47.1500 C   0  0  0  0  0  0  0  0  0  0  0  0
   61.4640   33.7910   47.1440 C   0  0  0  0  0  0  0  0  0  0  0  0
   60.9050   34.4200   45.9890 N   0  0  0  0  0  0  0  0  0  0  0  0
   59.1990   34.5430   45.7020 S   0  0  0  0  0  0  0  0  0  0  0  0
   58.9490   35.6630   44.7320 O   0  0  0  0  0  0  0  0  0  0  0  0
   58.5020   34.8700   46.9930 O   0  0  0  0  0  0  0  0  0  0  0  0
   58.5380   33.0510   45.0370 C   0  0  0  0  0  0  0  0  0  0  0  0
   58.1530   32.9870   43.6910 C   0  0  0  0  0  0  0  0  0  0  0  0
   57.6640   31.7920   43.1590 C   0  0  0  0  0  0  0  0  0  0  0  0
   57.5580   30.6560   43.9640 C   0  0  0  0  0  0  0  0  0  0  0  0
   57.9300   30.7070   45.3190 C   0  0  0  0  0  0  0  0  0  0  0  0
   57.8460   29.5000   46.1740 C   0  0  0  0  0  0  0  0  0  0  0  0
   58.6560   29.3640   47.1290 O   0  0  0  0  0  0  0  0  0  0  0  0
   56.9100   28.4420   45.9150 N   0  0  0  0  0  0  0  0  0  0  0  0
   57.1600   27.1650   45.9750 C   0  0  0  0  0  0  0  0  0  0  0  0
   58.4430   26.6990   45.9730 N   0  0  0  0  0  0  0  0  0  0  0  0
   58.7270   25.3700   46.0220 C   0  0  0  0  0  0  0  0  0  0  0  0
   57.6920   24.4350   46.0670 C   0  0  0  0  0  0  0  0  0  0  0  0
   56.3690   24.8810   46.0590 C   0  0  0  0  0  0  0  0  0  0  0  0
   56.0960   26.2500   46.0090 C   0  0  0  0  0  0  0  0  0  0  0  0
   54.7780   26.6930   45.9960 O   0  0  0  0  0  0  0  0  0  0  0  0
   58.4300   31.9110   45.8450 C   0  0  0  0  0  0  0  0  0  0  0  0
   60.6970   33.6920   48.3080 C   0  0  0  0  0  0  0  0  0  0  0  0
   61.2240   33.0990   49.4640 C   0  0  0  0  0  0  0  0  0  0  0  0
   60.3780   33.0360   50.6720 C   0  0  0  0  0  0  0  0  0  0  0  0
   60.6290   33.8180   51.6280 O   0  0  0  0  0  0  0  0  0  0  0  0
   59.2950   32.0890   50.7800 N   0  0  0  0  0  0  0  0  0  0  0  0
   58.0930   32.4330   51.5470 C   0  0  0  0  0  0  0  0  0  0  0  0
   57.4860   31.1680   52.1620 C   0  0  0  0  0  0  0  0  0  0  0  0
   57.3010   30.1690   51.1760 O   0  0  0  0  0  0  0  0  0  0  0  0
   58.5570   29.7500   50.6820 C   0  0  0  0  0  0  0  0  0  0  0  0
   59.2550   30.8890   49.9340 C   0  0  0  0  0  0  0  0  0  0  0  0
   62.7480   32.3353   51.5632 H   0  0  0  0  0  0  0  0  0  0  0  0
   62.8887   30.8153   50.6163 H   0  0  0  0  0  0  0  0  0  0  0  0
   64.2375   32.0016   50.6163 H   0  0  0  0  0  0  0  0  0  0  0  0
   64.3548   32.3577   48.2762 H   0  0  0  0  0  0  0  0  0  0  0  0
   63.4153   33.4634   46.2546 H   0  0  0  0  0  0  0  0  0  0  0  0
   58.2361   33.8791   43.0528 H   0  0  0  0  0  0  0  0  0  0  0  0
   57.3614   31.7455   42.1025 H   0  0  0  0  0  0  0  0  0  0  0  0
   57.1812   29.7155   43.5355 H   0  0  0  0  0  0  0  0  0  0  0  0
   59.7737   25.0316   46.0262 H   0  0  0  0  0  0  0  0  0  0  0  0
   57.9160   23.3588   46.1083 H   0  0  0  0  0  0  0  0  0  0  0  0
   55.5429   24.1554   46.0920 H   0  0  0  0  0  0  0  0  0  0  0  0
   58.7391   31.9587   46.8996 H   0  0  0  0  0  0  0  0  0  0  0  0
   59.6690   34.0834   48.3173 H   0  0  0  0  0  0  0  0  0  0  0  0
   58.3613   33.1359   52.3495 H   0  0  0  0  0  0  0  0  0  0  0  0
   57.3563   32.8982   50.8756 H   0  0  0  0  0  0  0  0  0  0  0  0
   58.1621   30.7854   52.9408 H   0  0  0  0  0  0  0  0  0  0  0  0
   56.5073   31.4212   52.5956 H   0  0  0  0  0  0  0  0  0  0  0  0
   59.1882   29.4321   51.5250 H   0  0  0  0  0  0  0  0  0  0  0  0
   58.4002   28.9142   49.9843 H   0  0  0  0  0  0  0  0  0  0  0  0
   60.2818   30.5853   49.6823 H   0  0  0  0  0  0  0  0  0  0  0  0
   58.6982   31.1130   49.0122 H   0  0  0  0  0  0  0  0  0  0  0  0
  1  2  1  0
  2  3  2  0
  3  4  1  0
  4  5  2  0
  5  6  1  0
  6  7  1  0
  7  8  2  0
  7  9  2  0
  7 10  1  0
 10 11  2  0
 11 12  1  0
 12 13  2  0
 13 14  1  0
 14 15  1  0
 15 16  2  0
 15 17  1  0
 17 18  2  3
 18 19  1  0
 19 20  1  0
 20 21  2  0
 21 22  1  0
 22 23  2  0
 23 24  1  0
 14 25  2  0
  5 26  1  0
 26 27  2  0
 27 28  1  0
 28 29  2  0
 28 30  1  0
 30 31  1  0
 31 32  1  0
 32 33  1  0
 33 34  1  0
 34 35  1  0
 27  2  1  0
 35 30  1  0
 25 10  1  0
 23 18  1  0
  1 36  1  0
  1 37  1  0
  1 38  1  0
  3 39  1  0
  4 40  1  0
 11 41  1  0
 12 42  1  0
 13 43  1  0
 20 44  1  0
 21 45  1  0
 22 46  1  0
 25 47  1  0
 26 48  1  0
 31 49  1  0
 31 50  1  0
 32 51  1  0
 32 52  1  0
 34 53  1  0
 34 54  1  0
 35 55  1  0
 35 56  1  0
M  CHG  3   6  -1  19  -1  24  -1
M  END
>  <UniqueID>  (73) 
71

>  <SMILES>  (73) 
Cc1ccc([N-]S(=O)(=O)c2cccc(C(=O)N=c3[n-]cccc3[O-])c2)cc1C(=O)N1CCOCC1

>  <Energy>  (73) 
86.11312891226088

>  <Genealogy>  (73) 
Cc1ccc([N-]S(=O)(=O)c2cccc(C(=O)N=c3[n-]cccc3[O-])c2)cc1C(=O)N1CCOCC1 (protonated)
Cc1ccc([N-]S(=O)(=O)c2cccc(C(=O)N=c3[n-]cccc3[O-])c2)cc1C(=O)N1CCOCC1 (3D coordinates assigned)
Cc1ccc([N-]S(=O)(=O)c2cccc(C(=O)N=c3[n-]cccc3[O-])c2)cc1C(=O)N1CCOCC1 (nonaromatic ring conformer: 86.11312891226088 kcal/mol)

>  <smiles>  (73) 
Cc1ccc(NS(=O)(=O)c2cccc(C(=O)N=c3[nH]cccc3O)c2)cc1C(=O)N1CCOCC1

>  <score_type>  (73) 
oracle

>  <origin>  (73) 
adg

>  <m_score__min__energy>  (73) 
-17.199999999999999

>  <m_primary>  (73) 
energy

$$$$
73:0
     RDKit          3D

 57 60  0  0  0  0  0  0  0  0999 V2000
   60.0590   29.5470   45.2210 O   0  0  0  0  0  0  0  0  0  0  0  0
   59.0630   29.8010   45.9470 C   0  0  0  0  0  0  0  0  0  0  0  0
   59.2540   29.8470   47.3710 N   0  0  0  0  0  0  0  0  0  0  0  0
   60.4550   29.4440   48.1020 C   0  0  0  0  0  0  0  0  0  0  0  0
   61.4090   30.6010   48.2660 C   0  0  0  0  0  0  0  0  0  0  0  0
   62.0510   30.8210   49.4970 C   0  0  0  0  0  0  0  0  0  0  0  0
   62.9440   31.8870   49.6460 C   0  0  0  0  0  0  0  0  0  0  0  0
   63.5510   32.0960   50.8410 F   0  0  0  0  0  0  0  0  0  0  0  0
   63.2110   32.7340   48.5670 C   0  0  0  0  0  0  0  0  0  0  0  0
   62.5870   32.5150   47.3350 C   0  0  0  0  0  0  0  0  0  0  0  0
   62.8400   33.3420   46.2910 F   0  0  0  0  0  0  0  0  0  0  0  0
   61.6990   31.4440   47.1800 C   0  0  0  0  0  0  0  0  0  0  0  0
   57.7090   30.0330   45.2940 C   0  0  2  0  0  0  0  0  0  0  0  0
   56.9010   28.7180   45.2890 C   0  0  0  0  0  0  0  0  0  0  0  0
   55.5290   28.9060   44.7730 N   0  0  0  0  0  0  0  0  0  0  0  0
   55.3720   30.0950   43.9170 C   0  0  0  0  0  0  0  0  0  0  0  0
   56.6320   30.3450   43.0750 C   0  0  0  0  0  0  0  0  0  0  0  0
   57.8520   30.5760   43.9070 N   0  0  1  0  0  0  0  0  0  0  0  0
   58.2110   32.0180   43.9650 C   0  0  0  0  0  0  0  0  0  0  0  0
   57.5240   32.7690   45.0830 C   0  0  0  0  0  0  0  0  0  0  0  0
   56.2720   32.6770   45.2350 O   0  0  0  0  0  0  0  0  0  0  0  0
   58.2480   33.7500   45.8410 N   0  0  0  0  0  0  0  0  0  0  0  0
   58.9260   34.8830   45.2050 C   0  0  0  0  0  0  0  0  0  0  0  0
   59.9830   35.3820   46.2210 C   0  0  0  0  0  0  0  0  0  0  0  0
   59.7590   34.5060   47.4040 C   0  0  0  0  0  0  0  0  0  0  0  0
   60.3960   34.5620   48.6440 C   0  0  0  0  0  0  0  0  0  0  0  0
   60.0010   33.6590   49.6440 C   0  0  0  0  0  0  0  0  0  0  0  0
   58.9710   32.7170   49.4000 C   0  0  0  0  0  0  0  0  0  0  0  0
   58.5170   31.8010   50.5090 C   0  0  0  0  0  0  0  0  0  0  0  0
   57.4090   32.3500   51.1290 F   0  0  0  0  0  0  0  0  0  0  0  0
   58.1850   30.5500   50.0190 F   0  0  0  0  0  0  0  0  0  0  0  0
   59.5270   31.6460   51.4450 F   0  0  0  0  0  0  0  0  0  0  0  0
   58.3250   32.7100   48.1420 C   0  0  0  0  0  0  0  0  0  0  0  0
   58.7720   33.5930   47.1510 C   0  0  0  0  0  0  0  0  0  0  0  0
   60.1629   29.0763   49.0967 H   0  0  0  0  0  0  0  0  0  0  0  0
   60.9620   28.6535   47.5292 H   0  0  0  0  0  0  0  0  0  0  0  0
   61.8502   30.1519   50.3467 H   0  0  0  0  0  0  0  0  0  0  0  0
   63.9121   33.5731   48.6869 H   0  0  0  0  0  0  0  0  0  0  0  0
   61.2262   31.2616   46.2037 H   0  0  0  0  0  0  0  0  0  0  0  0
   57.1658   30.7870   45.8826 H   0  0  0  0  0  0  0  0  0  0  0  0
   57.4208   27.9856   44.6538 H   0  0  0  0  0  0  0  0  0  0  0  0
   56.8249   28.3653   46.3281 H   0  0  0  0  0  0  0  0  0  0  0  0
   54.8720   29.0050   45.5830 H   0  0  0  0  0  0  0  0  0  0  0  0
   54.5155   29.9417   43.2440 H   0  0  0  0  0  0  0  0  0  0  0  0
   55.2065   30.9695   44.5634 H   0  0  0  0  0  0  0  0  0  0  0  0
   56.8053   29.4680   42.4340 H   0  0  0  0  0  0  0  0  0  0  0  0
   56.4583   31.2565   42.4842 H   0  0  0  0  0  0  0  0  0  0  0  0
   58.6430   30.0650   43.4410 H   0  0  0  0  0  0  0  0  0  0  0  0
   59.2986   32.1000   44.1081 H   0  0  0  0  0  0  0  0  0  0  0  0
   57.8777   32.4714   43.0198 H   0  0  0  0  0  0  0  0  0  0  0  0
   59.4149   34.5606   44.2739 H   0  0  0  0  0  0  0  0  0  0  0  0
   58.2142   35.6801   44.9441 H   0  0  0  0  0  0  0  0  0  0  0  0
   61.0013   35.2563   45.8244 H   0  0  0  0  0  0  0  0  0  0  0  0
   59.8861   36.4529   46.4530 H   0  0  0  0  0  0  0  0  0  0  0  0
   61.1910   35.2981   48.8342 H   0  0  0  0  0  0  0  0  0  0  0  0
   60.4958   33.6831   50.6261 H   0  0  0  0  0  0  0  0  0  0  0  0
   57.4876   32.0243   47.9456 H   0  0  0  0  0  0  0  0  0  0  0  0
  1  2  2  0
  2  3  1  0
  3  4  1  0
  4  5  1  0
  5  6  2  0
  6  7  1  0
  7  8  1  0
  7  9  2  0
  9 10  1  0
 10 11  1  0
 10 12  2  0
  2 13  1  0
 13 14  1  0
 14 15  1  0
 15 16  1  0
 16 17  1  0
 17 18  1  0
 18 19  1  0
 19 20  1  0
 20 21  2  0
 20 22  1  0
 22 23  1  0
 23 24  1  0
 24 25  1  0
 25 26  2  0
 26 27  1  0
 27 28  2  0
 28 29  1  0
 29 30  1  0
 29 31  1  0
 29 32  1  0
 28 33  1  0
 33 34  2  0
 12  5  1  0
 18 13  1  0
 34 22  1  0
 34 25  1  0
  4 35  1  0
  4 36  1  0
  6 37  1  0
  9 38  1  0
 12 39  1  0
 13 40  1  1
 14 41  1  0
 14 42  1  0
 15 43  1  0
 16 44  1  0
 16 45  1  0
 17 46  1  0
 17 47  1  0
 18 48  1  6
 19 49  1  0
 19 50  1  0
 23 51  1  0
 23 52  1  0
 24 53  1  0
 24 54  1  0
 26 55  1  0
 27 56  1  0
 33 57  1  0
M  CHG  2   3  -1  18   1
M  END
>  <UniqueID>  (74) 
72

>  <SMILES>  (74) 
O=C([N-]Cc1cc(F)cc(F)c1)[C@@H]1CNCC[N@H+]1CC(=O)N1CCc2ccc(C(F)(F)F)cc21

>  <Energy>  (74) 
85.68159447891163

>  <Genealogy>  (74) 
O=C([N-]Cc1cc(F)cc(F)c1)C1CNCC[NH+]1CC(=O)N1CCc2ccc(C(F)(F)F)cc21 (protonated)
O=C([N-]Cc1cc(F)cc(F)c1)[C@@H]1CNCC[N@H+]1CC(=O)N1CCc2ccc(C(F)(F)F)cc21 (chirality)
O=C([N-]Cc1cc(F)cc(F)c1)[C@@H]1CNCC[N@H+]1CC(=O)N1CCc2ccc(C(F)(F)F)cc21 (3D coordinates assigned)
O=C([N-]Cc1cc(F)cc(F)c1)[C@@H]1CNCC[N@H+]1CC(=O)N1CCc2ccc(C(F)(F)F)cc21 (nonaromatic ring conformer: 85.68159447891163 kcal/mol)

>  <smiles>  (74) 
O=C(NCc1cc(F)cc(F)c1)C1CNCCN1CC(=O)N1CCc2ccc(C(F)(F)F)cc21

>  <score_type>  (74) 
oracle

>  <origin>  (74) 
adg

>  <m_score__min__energy>  (74) 
-9.1199999999999992

>  <m_primary>  (74) 
energy

$$$$
74:0
     RDKit          3D

 61 63  0  0  1  0  0  0  0  0999 V2000
   67.9430   33.5130   50.5050 C   0  0  0  0  0  0  0  0  0  0  0  0
   66.6660   33.3900   50.8310 C   0  0  0  0  0  0  0  0  0  0  0  0
   65.6850   32.5890   50.0200 C   0  0  0  0  0  0  0  0  0  0  0  0
   64.8990   33.4120   49.1410 N   0  0  0  0  0  0  0  0  0  0  0  0
   63.6700   33.6500   49.3800 C   0  0  0  0  0  0  0  0  0  0  0  0
   63.2340   33.9560   50.6110 N   0  0  0  0  0  0  0  0  0  0  0  0
   61.9290   34.2030   50.8140 C   0  0  0  0  0  0  0  0  0  0  0  0
   61.1150   34.1330   49.7710 N   0  0  0  0  0  0  0  0  0  0  0  0
   61.4710   33.8350   48.5150 C   0  0  0  0  0  0  0  0  0  0  0  0
   60.4650   33.8070   47.5180 N   0  0  0  0  0  0  0  0  0  0  0  0
   59.7680   32.6320   47.1260 C   0  0  0  0  0  0  0  0  0  0  0  0
   58.9480   32.5380   46.0320 C   0  0  0  0  0  0  0  0  0  0  0  0
   58.3010   31.3570   45.6710 C   0  0  0  0  0  0  0  0  0  0  0  0
   58.5090   30.2500   46.4610 C   0  0  0  0  0  0  0  0  0  0  0  0
   57.8330   29.0180   46.0750 C   0  0  0  0  0  0  0  0  0  0  0  0
   56.6730   29.0870   45.5680 O   0  0  0  0  0  0  0  0  0  0  0  0
   58.4000   27.7280   46.2330 N   0  0  0  0  0  0  0  0  0  0  0  0
   57.6340   26.6060   45.8130 C   0  0  0  0  0  0  0  0  0  0  0  0
   56.5840   26.0830   46.5260 C   0  0  0  0  0  0  0  0  0  0  0  0
   55.9270   24.9930   46.0040 C   0  0  0  0  0  0  0  0  0  0  0  0
   56.2600   24.3950   44.8090 C   0  0  0  0  0  0  0  0  0  0  0  0
   55.4670   23.0350   44.1160 S   0  0  0  0  0  0  0  0  0  0  0  0
   54.0280   23.0040   44.5850 O   0  0  0  0  0  0  0  0  0  0  0  0
   55.3740   23.2380   42.6100 O   0  0  0  0  0  0  0  0  0  0  0  0
   56.2700   21.5260   44.5020 C   0  0  0  0  0  0  0  0  0  0  0  0
   57.4800   21.2340   43.6860 C   0  0  0  0  0  0  0  0  0  0  0  0
   58.7250   21.9000   44.1560 C   0  0  0  0  0  0  0  0  0  0  0  0
   57.3350   24.9470   44.1030 C   0  0  0  0  0  0  0  0  0  0  0  0
   58.0170   26.0390   44.5920 C   0  0  0  0  0  0  0  0  0  0  0  0
   59.3190   30.2820   47.5710 C   0  0  0  0  0  0  0  0  0  0  0  0
   59.9310   31.4730   47.8790 C   0  0  0  0  0  0  0  0  0  0  0  0
   62.8000   33.5780   48.2790 C   0  0  0  0  0  0  0  0  0  0  0  0
   63.3050   33.2400   46.9800 C   0  0  0  0  0  0  0  0  0  0  0  0
   63.7770   31.8920   46.7830 N   0  0  0  0  0  0  0  0  0  0  0  0
   63.3910   33.9720   45.9790 O   0  0  0  0  0  0  0  0  0  0  0  0
   68.6164   34.1120   51.1356 H   0  0  0  0  0  0  0  0  0  0  0  0
   68.3308   33.0162   49.6035 H   0  0  0  0  0  0  0  0  0  0  0  0
   66.3054   33.8976   51.7378 H   0  0  0  0  0  0  0  0  0  0  0  0
   66.2408   31.8571   49.4155 H   0  0  0  0  0  0  0  0  0  0  0  0
   64.9965   32.0936   50.7204 H   0  0  0  0  0  0  0  0  0  0  0  0
   63.8530   34.0170   51.4420 H   0  0  0  0  0  0  0  0  0  0  0  0
   61.5484   34.4554   51.8147 H   0  0  0  0  0  0  0  0  0  0  0  0
   60.1580   34.6790   46.9880 H   0  0  0  0  0  0  0  0  0  0  0  0
   58.7936   33.4332   45.4118 H   0  0  0  0  0  0  0  0  0  0  0  0
   57.6481   31.3119   44.7869 H   0  0  0  0  0  0  0  0  0  0  0  0
   59.3320   27.6150   46.6390 H   0  0  0  0  0  0  0  0  0  0  0  0
   56.2770   26.5226   47.4865 H   0  0  0  0  0  0  0  0  0  0  0  0
   55.0854   24.5740   46.5752 H   0  0  0  0  0  0  0  0  0  0  0  0
   56.5709   21.5597   45.5595 H   0  0  0  0  0  0  0  0  0  0  0  0
   55.5478   20.7265   44.2803 H   0  0  0  0  0  0  0  0  0  0  0  0
   57.6475   20.1469   43.6991 H   0  0  0  0  0  0  0  0  0  0  0  0
   57.2779   21.6297   42.6797 H   0  0  0  0  0  0  0  0  0  0  0  0
   58.7429   21.9096   45.2558 H   0  0  0  0  0  0  0  0  0  0  0  0
   59.5998   21.3494   43.7798 H   0  0  0  0  0  0  0  0  0  0  0  0
   58.7525   22.9333   43.7798 H   0  0  0  0  0  0  0  0  0  0  0  0
   57.6395   24.5024   43.1440 H   0  0  0  0  0  0  0  0  0  0  0  0
   58.8589   26.4637   44.0255 H   0  0  0  0  0  0  0  0  0  0  0  0
   59.4718   29.3861   48.1906 H   0  0  0  0  0  0  0  0  0  0  0  0
   60.5821   31.5124   48.7647 H   0  0  0  0  0  0  0  0  0  0  0  0
   64.8050   31.7080   46.7820 H   0  0  0  0  0  0  0  0  0  0  0  0
   63.1180   31.0960   46.6400 H   0  0  0  0  0  0  0  0  0  0  0  0
  1  2  2  0
  2  3  1  0
  3  4  1  0
  4  5  2  0
  5  6  1  0
  6  7  1  0
  7  8  2  0
  8  9  1  0
  9 10  1  0
 10 11  1  0
 11 12  2  0
 12 13  1  0
 13 14  2  0
 14 15  1  0
 15 16  2  0
 15 17  1  0
 17 18  1  0
 18 19  2  0
 19 20  1  0
 20 21  2  0
 21 22  1  0
 22 23  2  0
 22 24  2  0
 22 25  1  0
 25 26  1  0
 26 27  1  0
 21 28  1  0
 28 29  2  0
 14 30  1  0
 30 31  2  0
  9 32  2  0
 32 33  1  0
 33 34  1  0
 33 35  2  0
 32  5  1  0
 31 11  1  0
 29 18  1  0
  1 36  1  0
  1 37  1  0
  2 38  1  0
  3 39  1  0
  3 40  1  0
  6 41  1  0
  7 42  1  0
 10 43  1  0
 12 44  1  0
 13 45  1  0
 17 46  1  0
 19 47  1  0
 20 48  1  0
 25 49  1  0
 25 50  1  0
 26 51  1  0
 26 52  1  0
 27 53  1  0
 27 54  1  0
 27 55  1  0
 28 56  1  0
 29 57  1  0
 30 58  1  0
 31 59  1  0
 34 60  1  0
 34 61  1  0
M  END
>  <smiles>  (75) 
C=CCN=c1[nH]cnc(Nc2ccc(C(=O)Nc3ccc(S(=O)(=O)CCC)cc3)cc2)c1C(N)=O

>  <score_type>  (75) 
oracle

>  <origin>  (75) 
adg

>  <m_score__min__energy>  (75) 
-8.2100000000000009

>  <m_primary>  (75) 
energy

$$$$
75:0
     RDKit          3D

 41 43  0  0  0  0  0  0  0  0999 V2000
   55.1700   26.4940   46.0170 N   0  0  0  0  0  0  0  0  0  0  0  0
   56.5540   26.2630   46.2630 C   0  0  0  0  0  0  0  0  0  0  0  0
   56.9110   25.6160   47.2840 O   0  0  0  0  0  0  0  0  0  0  0  0
   57.5830   26.8280   45.3370 C   0  0  0  0  0  0  0  0  0  0  0  0
   58.3820   27.8830   46.0400 C   0  0  0  0  0  0  0  0  0  0  0  0
   58.1720   28.1550   47.3980 C   0  0  0  0  0  0  0  0  0  0  0  0
   58.9010   29.1700   48.0160 C   0  0  0  0  0  0  0  0  0  0  0  0
   59.8240   29.9250   47.2760 C   0  0  0  0  0  0  0  0  0  0  0  0
   60.6050   31.0090   47.9110 C   0  0  0  0  0  0  0  0  0  0  0  0
   61.6890   30.7430   48.7660 C   0  0  0  0  0  0  0  0  0  0  0  0
   62.2370   31.8750   49.3510 C   0  0  0  0  0  0  0  0  0  0  0  0
   61.3840   33.2130   48.8050 S   0  0  0  0  0  0  0  0  0  0  0  0
   60.3150   32.3780   47.8110 C   0  0  0  0  0  0  0  0  0  0  0  0
   59.3080   33.0390   46.9610 C   0  0  0  0  0  0  0  0  0  0  0  0
   58.1830   33.3230   47.4530 O   0  0  0  0  0  0  0  0  0  0  0  0
   59.6100   33.4000   45.6050 N   0  0  0  0  0  0  0  0  0  0  0  0
   58.5960   33.9110   44.6860 C   0  0  0  0  0  0  0  0  0  0  0  0
   57.9080   32.7720   43.9860 C   0  0  0  0  0  0  0  0  0  0  0  0
   57.2440   31.7870   44.7350 C   0  0  0  0  0  0  0  0  0  0  0  0
   56.6190   30.7150   44.0910 C   0  0  0  0  0  0  0  0  0  0  0  0
   56.6550   30.6170   42.6960 C   0  0  0  0  0  0  0  0  0  0  0  0
   57.3190   31.5910   41.9440 C   0  0  0  0  0  0  0  0  0  0  0  0
   57.9450   32.6660   42.5850 C   0  0  0  0  0  0  0  0  0  0  0  0
   60.0100   29.6140   45.9200 C   0  0  0  0  0  0  0  0  0  0  0  0
   59.2870   28.6200   45.3390 N   0  0  0  0  0  0  0  0  0  0  0  0
   54.8260   26.7170   45.0570 H   0  0  0  0  0  0  0  0  0  0  0  0
   58.2551   26.0231   45.0048 H   0  0  0  0  0  0  0  0  0  0  0  0
   57.0791   27.2762   44.4680 H   0  0  0  0  0  0  0  0  0  0  0  0
   57.4372   27.5720   47.9726 H   0  0  0  0  0  0  0  0  0  0  0  0
   58.7525   29.3795   49.0856 H   0  0  0  0  0  0  0  0  0  0  0  0
   62.0686   29.7279   48.9542 H   0  0  0  0  0  0  0  0  0  0  0  0
   63.0846   31.8926   50.0520 H   0  0  0  0  0  0  0  0  0  0  0  0
   60.5950   33.3380   45.2610 H   0  0  0  0  0  0  0  0  0  0  0  0
   57.8527   34.4919   45.2517 H   0  0  0  0  0  0  0  0  0  0  0  0
   59.0821   34.5521   43.9358 H   0  0  0  0  0  0  0  0  0  0  0  0
   57.2155   31.8592   45.8323 H   0  0  0  0  0  0  0  0  0  0  0  0
   56.0981   29.9474   44.6822 H   0  0  0  0  0  0  0  0  0  0  0  0
   56.1611   29.7739   42.1908 H   0  0  0  0  0  0  0  0  0  0  0  0
   57.3493   31.5122   40.8472 H   0  0  0  0  0  0  0  0  0  0  0  0
   58.4675   33.4301   41.9907 H   0  0  0  0  0  0  0  0  0  0  0  0
   60.7440   30.1770   45.3248 H   0  0  0  0  0  0  0  0  0  0  0  0
  1  2  1  0
  2  3  2  0
  2  4  1  0
  4  5  1  0
  5  6  2  0
  6  7  1  0
  7  8  2  0
  8  9  1  0
  9 10  1  0
 10 11  2  0
 11 12  1  0
 12 13  1  0
 13 14  1  0
 14 15  2  0
 14 16  1  0
 16 17  1  0
 17 18  1  0
 18 19  2  0
 19 20  1  0
 20 21  2  0
 21 22  1  0
 22 23  2  0
  8 24  1  0
 24 25  2  0
 25  5  1  0
 13  9  2  0
 23 18  1  0
  1 26  1  0
  4 27  1  0
  4 28  1  0
  6 29  1  0
  7 30  1  0
 10 31  1  0
 11 32  1  0
 16 33  1  0
 17 34  1  0
 17 35  1  0
 19 36  1  0
 20 37  1  0
 21 38  1  0
 22 39  1  0
 23 40  1  0
 24 41  1  0
M  CHG  1   1  -1
M  END
>  <UniqueID>  (76) 
73

>  <SMILES>  (76) 
[NH-]C(=O)Cc1ccc(-c2ccsc2C(=O)NCc2ccccc2)cn1

>  <Energy>  (76) 
71.752407278242

>  <Genealogy>  (76) 
[NH-]C(=O)Cc1ccc(-c2ccsc2C(=O)NCc2ccccc2)cn1 (protonated)
[NH-]C(=O)Cc1ccc(-c2ccsc2C(=O)NCc2ccccc2)cn1 (3D coordinates assigned)
[NH-]C(=O)Cc1ccc(-c2ccsc2C(=O)NCc2ccccc2)cn1 (optimized conformer: 71.752407278242 kcal/mol)

>  <smiles>  (76) 
NC(=O)Cc1ccc(-c2ccsc2C(=O)NCc2ccccc2)cn1

>  <score_type>  (76) 
oracle

>  <origin>  (76) 
adg

>  <m_score__min__energy>  (76) 
-11.119999999999999

>  <m_primary>  (76) 
energy

$$$$
76:0
     RDKit          3D

 62 66  0  0  0  0  0  0  0  0999 V2000
   57.2380   29.0900   43.4820 N   0  0  0  0  0  0  0  0  0  0  0  0
   56.7530   30.0630   44.4120 C   0  0  0  0  0  0  0  0  0  0  0  0
   55.5630   29.9750   44.8190 O   0  0  0  0  0  0  0  0  0  0  0  0
   57.6070   31.1820   44.8840 C   0  0  0  0  0  0  0  0  0  0  0  0
   58.4710   31.0310   45.9870 C   0  0  0  0  0  0  0  0  0  0  0  0
   59.2590   32.0980   46.4240 C   0  0  0  0  0  0  0  0  0  0  0  0
   59.2150   33.3330   45.7570 C   0  0  0  0  0  0  0  0  0  0  0  0
   60.1180   34.4660   46.1860 C   0  0  0  0  0  0  0  0  0  0  0  0
   60.9490   34.0550   47.3410 N   0  0  0  0  0  0  0  0  0  0  0  0
   62.2260   33.5840   47.1450 C   0  0  0  0  0  0  0  0  0  0  0  0
   62.7200   33.4910   45.9940 O   0  0  0  0  0  0  0  0  0  0  0  0
   62.9690   33.2040   48.2510 C   0  0  0  0  0  0  0  0  0  0  0  0
   64.2070   32.6790   48.2840 N   0  0  0  0  0  0  0  0  0  0  0  0
   64.4770   32.4590   49.5910 C   0  0  0  0  0  0  0  0  0  0  0  0
   63.4050   32.8490   50.3870 C   0  0  0  0  0  0  0  0  0  0  0  0
   62.4490   33.3140   49.5000 C   0  0  0  0  0  0  0  0  0  0  0  0
   61.1920   33.7920   49.7250 N   0  0  0  0  0  0  0  0  0  0  0  0
   60.6160   33.8360   51.0830 C   0  0  0  0  0  0  0  0  0  0  0  0
   59.8770   32.5540   51.3600 C   0  0  0  0  0  0  0  0  0  0  0  0
   60.2020   31.7800   52.4870 C   0  0  0  0  0  0  0  0  0  0  0  0
   59.4080   30.6850   52.8440 C   0  0  0  0  0  0  0  0  0  0  0  0
   58.2770   30.3550   52.0850 C   0  0  0  0  0  0  0  0  0  0  0  0
   57.3620   29.2900   52.5370 C   0  0  0  0  0  0  0  0  0  0  0  0
   57.8410   28.2420   53.0570 O   0  0  0  0  0  0  0  0  0  0  0  0
   55.9390   29.4010   52.3640 N   0  0  0  0  0  0  0  0  0  0  0  0
   54.9390   29.1270   53.3960 C   0  0  0  0  0  0  0  0  0  0  0  0
   53.7460   30.0370   53.2340 C   0  0  0  0  0  0  0  0  0  0  0  0
   53.4650   30.6460   51.9910 C   0  0  0  0  0  0  0  0  0  0  0  0
   52.3430   31.4740   51.8490 C   0  0  0  0  0  0  0  0  0  0  0  0
   51.4920   31.7010   52.9390 C   0  0  0  0  0  0  0  0  0  0  0  0
   50.0750   32.7310   52.7460 Cl  0  0  0  0  0  0  0  0  0  0  0  0
   51.7670   31.1010   54.1810 C   0  0  0  0  0  0  0  0  0  0  0  0
   52.8890   30.2730   54.3260 C   0  0  0  0  0  0  0  0  0  0  0  0
   57.9840   31.0860   50.9210 C   0  0  0  0  0  0  0  0  0  0  0  0
   58.7720   32.1880   50.5670 C   0  0  0  0  0  0  0  0  0  0  0  0
   60.4380   34.1590   48.6250 C   0  0  0  0  0  0  0  0  0  0  0  0
   59.2630   34.5870   48.7920 O   0  0  0  0  0  0  0  0  0  0  0  0
   58.3520   33.4910   44.6610 C   0  0  0  0  0  0  0  0  0  0  0  0
   57.5490   32.4290   44.2340 C   0  0  0  0  0  0  0  0  0  0  0  0
   58.1370   29.2210   42.9720 H   0  0  0  0  0  0  0  0  0  0  0  0
   56.6350   28.2710   43.2150 H   0  0  0  0  0  0  0  0  0  0  0  0
   58.5252   30.0640   46.5085 H   0  0  0  0  0  0  0  0  0  0  0  0
   59.9178   31.9703   47.2956 H   0  0  0  0  0  0  0  0  0  0  0  0
   60.7742   34.7437   45.3480 H   0  0  0  0  0  0  0  0  0  0  0  0
   59.4973   35.3249   46.4808 H   0  0  0  0  0  0  0  0  0  0  0  0
   64.8340   32.4700   47.4740 H   0  0  0  0  0  0  0  0  0  0  0  0
   65.4156   32.0304   49.9722 H   0  0  0  0  0  0  0  0  0  0  0  0
   63.3325   32.7988   51.4835 H   0  0  0  0  0  0  0  0  0  0  0  0
   61.4238   33.9594   51.8194 H   0  0  0  0  0  0  0  0  0  0  0  0
   59.9181   34.6831   51.1565 H   0  0  0  0  0  0  0  0  0  0  0  0
   61.0847   32.0363   53.0912 H   0  0  0  0  0  0  0  0  0  0  0  0
   59.6725   30.0805   53.7241 H   0  0  0  0  0  0  0  0  0  0  0  0
   54.6098   28.0808   53.3118 H   0  0  0  0  0  0  0  0  0  0  0  0
   55.3899   29.3055   54.3833 H   0  0  0  0  0  0  0  0  0  0  0  0
   54.1288   30.4699   51.1317 H   0  0  0  0  0  0  0  0  0  0  0  0
   52.1298   31.9470   50.8791 H   0  0  0  0  0  0  0  0  0  0  0  0
   51.1019   31.2814   55.0384 H   0  0  0  0  0  0  0  0  0  0  0  0
   53.1011   29.8049   55.2986 H   0  0  0  0  0  0  0  0  0  0  0  0
   57.1344   30.7920   50.2871 H   0  0  0  0  0  0  0  0  0  0  0  0
   58.5272   32.7700   49.6663 H   0  0  0  0  0  0  0  0  0  0  0  0
   58.3073   34.4561   44.1350 H   0  0  0  0  0  0  0  0  0  0  0  0
   56.8663   32.5693   43.3830 H   0  0  0  0  0  0  0  0  0  0  0  0
  1  2  1  0
  2  3  2  0
  2  4  1  0
  4  5  2  0
  5  6  1  0
  6  7  2  0
  7  8  1  0
  8  9  1  0
  9 10  1  0
 10 11  2  0
 10 12  1  0
 12 13  1  0
 13 14  1  0
 14 15  2  0
 15 16  1  0
 16 17  1  0
 17 18  1  0
 18 19  1  0
 19 20  2  0
 20 21  1  0
 21 22  2  0
 22 23  1  0
 23 24  2  0
 23 25  1  0
 25 26  1  0
 26 27  1  0
 27 28  2  0
 28 29  1  0
 29 30  2  0
 30 31  1  0
 30 32  1  0
 32 33  2  0
 22 34  1  0
 34 35  2  0
 17 36  1  0
 36 37  2  0
  7 38  1  0
 38 39  2  0
 39  4  1  0
 36  9  1  0
 16 12  2  0
 35 19  1  0
 33 27  1  0
  1 40  1  0
  1 41  1  0
  5 42  1  0
  6 43  1  0
  8 44  1  0
  8 45  1  0
 13 46  1  0
 14 47  1  0
 15 48  1  0
 18 49  1  0
 18 50  1  0
 20 51  1  0
 21 52  1  0
 26 53  1  0
 26 54  1  0
 28 55  1  0
 29 56  1  0
 32 57  1  0
 33 58  1  0
 34 59  1  0
 35 60  1  0
 38 61  1  0
 39 62  1  0
M  CHG  1  25  -1
M  END
>  <UniqueID>  (77) 
74

>  <SMILES>  (77) 
NC(=O)c1ccc(Cn2c(=O)c3[nH]ccc3n(Cc3ccc(C(=O)[N-]Cc4ccc(Cl)cc4)cc3)c2=O)cc1

>  <Energy>  (77) 
109.55682321865737

>  <Genealogy>  (77) 
NC(=O)c1ccc(Cn2c(=O)c3[nH]ccc3n(Cc3ccc(C(=O)[N-]Cc4ccc(Cl)cc4)cc3)c2=O)cc1 (protonated)
NC(=O)c1ccc(Cn2c(=O)c3[nH]ccc3n(Cc3ccc(C(=O)[N-]Cc4ccc(Cl)cc4)cc3)c2=O)cc1 (3D coordinates assigned)
NC(=O)c1ccc(Cn2c(=O)c3[nH]ccc3n(Cc3ccc(C(=O)[N-]Cc4ccc(Cl)cc4)cc3)c2=O)cc1 (optimized conformer: 109.55682321865737 kcal/mol)

>  <smiles>  (77) 
NC(=O)c1ccc(Cn2c(=O)c3[nH]ccc3n(Cc3ccc(C(=O)NCc4ccc(Cl)cc4)cc3)c2=O)cc1

>  <score_type>  (77) 
oracle

>  <origin>  (77) 
adg

>  <m_score__min__energy>  (77) 
-12.369999999999999

>  <m_primary>  (77) 
energy

$$$$
77:0
     RDKit          3D

 45 48  0  0  0  0  0  0  0  0999 V2000
   59.4960   28.0550   47.2370 C   0  0  0  0  0  0  0  0  0  0  0  0
   58.9990   28.9190   46.3350 C   0  0  0  0  0  0  0  0  0  0  0  0
   58.0250   28.6620   45.3540 C   0  0  0  0  0  0  0  0  0  0  0  0
   57.4590   27.5100   44.9460 C   0  0  0  0  0  0  0  0  0  0  0  0
   57.3470   26.2780   45.7500 C   0  0  0  0  0  0  0  0  0  0  0  0
   56.1010   25.8420   46.2410 C   0  0  0  0  0  0  0  0  0  0  0  0
   54.9330   26.5800   46.0410 O   0  0  0  0  0  0  0  0  0  0  0  0
   56.0240   24.6780   46.9380 N   0  0  0  0  0  0  0  0  0  0  0  0
   57.1240   23.9160   47.1650 C   0  0  0  0  0  0  0  0  0  0  0  0
   57.0230   22.8460   47.8180 O   0  0  0  0  0  0  0  0  0  0  0  0
   58.3310   24.3050   46.6830 N   0  0  0  0  0  0  0  0  0  0  0  0
   58.4670   25.4580   45.9790 C   0  0  0  0  0  0  0  0  0  0  0  0
   59.6010   25.7770   45.5300 O   0  0  0  0  0  0  0  0  0  0  0  0
   57.7050   29.8900   44.7970 C   0  0  0  0  0  0  0  0  0  0  0  0
   58.5130   30.8290   45.4020 C   0  0  0  0  0  0  0  0  0  0  0  0
   58.4990   32.2940   45.0830 C   0  0  0  0  0  0  0  0  0  0  0  0
   59.2970   30.2450   46.3350 N   0  0  0  0  0  0  0  0  0  0  0  0
   60.2500   30.9220   47.1730 C   0  0  0  0  0  0  0  0  0  0  0  0
   61.6020   30.9780   46.8070 C   0  0  0  0  0  0  0  0  0  0  0  0
   62.5280   31.6290   47.6260 C   0  0  0  0  0  0  0  0  0  0  0  0
   62.1150   32.2340   48.8270 C   0  0  0  0  0  0  0  0  0  0  0  0
   63.0950   32.9230   49.6950 C   0  0  0  0  0  0  0  0  0  0  0  0
   64.4150   32.6280   49.7030 N   0  0  0  0  0  0  0  0  0  0  0  0
   64.9250   33.4770   50.6100 C   0  0  0  0  0  0  0  0  0  0  0  0
   66.3570   33.4940   51.0280 C   0  0  0  0  0  0  0  0  0  0  0  0
   63.9190   34.2450   51.1450 C   0  0  0  0  0  0  0  0  0  0  0  0
   62.7570   33.9030   50.5640 N   0  0  0  0  0  0  0  0  0  0  0  0
   60.7590   32.1740   49.1900 C   0  0  0  0  0  0  0  0  0  0  0  0
   59.8340   31.5220   48.3690 C   0  0  0  0  0  0  0  0  0  0  0  0
   60.2607   28.3879   47.9543 H   0  0  0  0  0  0  0  0  0  0  0  0
   59.1380   27.0151   47.2578 H   0  0  0  0  0  0  0  0  0  0  0  0
   57.0452   27.4856   43.9271 H   0  0  0  0  0  0  0  0  0  0  0  0
   54.0280   26.2750   46.3770 H   0  0  0  0  0  0  0  0  0  0  0  0
   56.9499   30.0795   44.0199 H   0  0  0  0  0  0  0  0  0  0  0  0
   58.4935   32.8729   46.0183 H   0  0  0  0  0  0  0  0  0  0  0  0
   59.3947   32.5505   44.4983 H   0  0  0  0  0  0  0  0  0  0  0  0
   57.5985   32.5334   44.4983 H   0  0  0  0  0  0  0  0  0  0  0  0
   61.9355   30.5071   45.8705 H   0  0  0  0  0  0  0  0  0  0  0  0
   63.5866   31.6687   47.3298 H   0  0  0  0  0  0  0  0  0  0  0  0
   66.4184   33.4947   52.1263 H   0  0  0  0  0  0  0  0  0  0  0  0
   66.8649   32.6018   50.6330 H   0  0  0  0  0  0  0  0  0  0  0  0
   66.8436   34.3980   50.6330 H   0  0  0  0  0  0  0  0  0  0  0  0
   64.0445   35.0138   51.9217 H   0  0  0  0  0  0  0  0  0  0  0  0
   60.4229   32.6432   50.1264 H   0  0  0  0  0  0  0  0  0  0  0  0
   58.7749   31.4799   48.6633 H   0  0  0  0  0  0  0  0  0  0  0  0
  1  2  2  0
  2  3  1  0
  3  4  2  3
  4  5  1  0
  5  6  2  0
  6  7  1  0
  6  8  1  0
  8  9  1  0
  9 10  2  0
  9 11  1  0
 11 12  1  0
 12 13  2  0
  3 14  1  0
 14 15  2  0
 15 16  1  0
 15 17  1  0
 17 18  1  0
 18 19  2  0
 19 20  1  0
 20 21  2  0
 21 22  1  0
 22 23  2  0
 23 24  1  0
 24 25  1  0
 24 26  2  0
 26 27  1  0
 21 28  1  0
 28 29  2  0
 17  2  1  0
 29 18  1  0
 12  5  1  0
 27 22  1  0
  1 30  1  0
  1 31  1  0
  4 32  1  0
  7 33  1  0
 14 34  1  0
 16 35  1  0
 16 36  1  0
 16 37  1  0
 19 38  1  0
 20 39  1  0
 25 40  1  0
 25 41  1  0
 25 42  1  0
 26 43  1  0
 28 44  1  0
 29 45  1  0
M  CHG  3   8  -1  11  -1  27  -1
M  END
>  <UniqueID>  (78) 
75

>  <SMILES>  (78) 
C=c1c(=Cc2c(O)[n-]c(=O)[n-]c2=O)cc(C)n1-c1ccc(-c2nc(C)c[n-]2)cc1

>  <Energy>  (78) 
125.40078244745663

>  <Genealogy>  (78) 
C=c1c(=Cc2c(O)[n-]c(=O)[n-]c2=O)cc(C)n1-c1ccc(-c2nc(C)c[n-]2)cc1 (protonated)
C=c1c(=Cc2c(O)[n-]c(=O)[n-]c2=O)cc(C)n1-c1ccc(-c2nc(C)c[n-]2)cc1 (3D coordinates assigned)
C=c1c(=Cc2c(O)[n-]c(=O)[n-]c2=O)cc(C)n1-c1ccc(-c2nc(C)c[n-]2)cc1 (optimized conformer: 125.40078244745663 kcal/mol)

>  <smiles>  (78) 
C=c1c(=Cc2c(O)[nH]c(=O)[nH]c2=O)cc(C)n1-c1ccc(-c2nc(C)c[nH]2)cc1

>  <score_type>  (78) 
oracle

>  <origin>  (78) 
adg

>  <m_score__min__energy>  (78) 
-13.42

>  <m_primary>  (78) 
energy

$$$$
78:0
     RDKit          3D

 39 41  0  0  0  0  0  0  0  0999 V2000
   60.9326   27.5306   44.9226 H   0  0  0  0  0  0  0  0  0  0  0  0
   60.6400   28.5900   44.8770 C   0  0  0  0  0  0  0  0  0  0  0  0
   61.4097   29.3751   44.9096 H   0  0  0  0  0  0  0  0  0  0  0  0
   59.3500   28.9230   44.7820 C   0  0  0  0  0  0  0  0  0  0  0  0
   59.0100   30.2370   44.7270 N   0  0  0  0  0  0  0  0  0  0  0  0
   57.7190   30.6580   44.6230 C   0  0  0  0  0  0  0  0  0  0  0  0
   57.4340   31.9760   44.5910 C   0  0  0  0  0  0  0  0  0  0  0  0
   56.5932   32.3046   43.9624 H   0  0  0  0  0  0  0  0  0  0  0  0
   58.1790   33.0110   45.3470 C   0  0  0  0  0  0  0  0  0  0  0  0
   58.6710   34.1730   44.7280 C   0  0  0  0  0  0  0  0  0  0  0  0
   58.5257   34.3210   43.6477 H   0  0  0  0  0  0  0  0  0  0  0  0
   59.3430   35.1400   45.4770 C   0  0  0  0  0  0  0  0  0  0  0  0
   59.7368   36.0404   44.9829 H   0  0  0  0  0  0  0  0  0  0  0  0
   59.5170   34.9680   46.8520 C   0  0  0  0  0  0  0  0  0  0  0  0
   60.0590   35.7272   47.4349 H   0  0  0  0  0  0  0  0  0  0  0  0
   59.0020   33.8280   47.4940 C   0  0  0  0  0  0  0  0  0  0  0  0
   59.1310   33.6110   48.8760 O   0  0  0  0  0  0  0  0  0  0  0  0
   60.3370   33.7690   49.6260 C   0  0  0  0  0  0  0  0  0  0  0  0
   60.4634   34.8304   49.8855 H   0  0  0  0  0  0  0  0  0  0  0  0
   60.2674   33.1567   50.5372 H   0  0  0  0  0  0  0  0  0  0  0  0
   61.5290   33.3110   48.8280 C   0  0  0  0  0  0  0  0  0  0  0  0
   62.6580   34.1390   48.7100 C   0  0  0  0  0  0  0  0  0  0  0  0
   62.6668   35.1261   49.1954 H   0  0  0  0  0  0  0  0  0  0  0  0
   63.7700   33.7130   47.9780 C   0  0  0  0  0  0  0  0  0  0  0  0
   64.6489   34.3677   47.8836 H   0  0  0  0  0  0  0  0  0  0  0  0
   63.7670   32.4570   47.3660 C   0  0  0  0  0  0  0  0  0  0  0  0
   64.6416   32.1253   46.7872 H   0  0  0  0  0  0  0  0  0  0  0  0
   62.6530   31.6220   47.4890 C   0  0  0  0  0  0  0  0  0  0  0  0
   62.6529   30.6319   47.0097 H   0  0  0  0  0  0  0  0  0  0  0  0
   61.5380   32.0440   48.2210 C   0  0  0  0  0  0  0  0  0  0  0  0
   60.6655   31.3817   48.3216 H   0  0  0  0  0  0  0  0  0  0  0  0
   58.3320   32.8600   46.7350 C   0  0  0  0  0  0  0  0  0  0  0  0
   57.9202   31.9696   47.2326 H   0  0  0  0  0  0  0  0  0  0  0  0
   56.7000   29.6830   44.5870 C   0  0  0  0  0  0  0  0  0  0  0  0
   55.4840   30.0120   44.5000 O   0  0  0  0  0  0  0  0  0  0  0  0
   57.0310   28.3630   44.6420 N   0  0  0  0  0  0  0  0  0  0  0  0
   56.2720   27.6440   44.6110 H   0  0  0  0  0  0  0  0  0  0  0  0
   58.3260   27.9570   44.7370 C   0  0  0  0  0  0  0  0  0  0  0  0
   58.5910   26.7230   44.7850 O   0  0  0  0  0  0  0  0  0  0  0  0
  1  2  1  0
  2  3  1  0
  2  4  2  0
  4  5  1  0
  5  6  1  0
  6  7  2  0
  7  8  1  0
  7  9  1  0
  9 10  2  0
 10 11  1  0
 10 12  1  0
 12 13  1  0
 12 14  2  0
 14 15  1  0
 14 16  1  0
 16 17  1  0
 17 18  1  0
 18 19  1  0
 18 20  1  0
 18 21  1  0
 21 22  2  0
 22 23  1  0
 22 24  1  0
 24 25  1  0
 24 26  2  0
 26 27  1  0
 26 28  1  0
 28 29  1  0
 28 30  2  0
 30 31  1  0
 16 32  2  0
 32 33  1  0
  6 34  1  0
 34 35  2  0
 34 36  1  0
 36 37  1  0
 36 38  1  0
 38 39  2  0
 38  4  1  0
 32  9  1  0
 30 21  1  0
M  CHG  1   5  -1
M  END
>  <UniqueID>  (79) 
76

>  <SMILES>  (79) 
C=c1[n-]/c(=C\c2cccc(OCc3ccccc3)c2)c(=O)[nH]c1=O

>  <Energy>  (79) 
51.63645019062511

>  <Genealogy>  (79) 
C=c1[n-]c(=Cc2cccc(OCc3ccccc3)c2)c(=O)[nH]c1=O (protonated)
C=c1[n-]/c(=C\c2cccc(OCc3ccccc3)c2)c(=O)[nH]c1=O (cis-trans isomerization)
C=c1[n-]/c(=C\c2cccc(OCc3ccccc3)c2)c(=O)[nH]c1=O (3D coordinates assigned)
C=c1[n-]/c(=C\c2cccc(OCc3ccccc3)c2)c(=O)[nH]c1=O (optimized conformer: 51.63645019062511 kcal/mol)

>  <smiles>  (79) 
C=c1[nH]c(=Cc2cccc(OCc3ccccc3)c2)c(=O)[nH]c1=O

>  <score_type>  (79) 
oracle

>  <origin>  (79) 
adg

>  <m_score__min__energy>  (79) 
-9.9700000000000006

>  <m_primary>  (79) 
energy

$$$$
79:0
     RDKit          3D

 51 53  0  0  0  0  0  0  0  0999 V2000
   56.6210   24.9070   46.4750 C   0  0  0  0  0  0  0  0  0  0  0  0
   56.3190   26.2670   45.9230 C   0  0  0  0  0  0  0  0  0  0  0  0
   55.1420   26.7060   45.9940 O   0  0  0  0  0  0  0  0  0  0  0  0
   57.3210   27.0650   45.2780 N   0  0  0  0  0  0  0  0  0  0  0  0
   57.4460   28.4920   45.3500 C   0  0  0  0  0  0  0  0  0  0  0  0
   56.9880   29.3240   44.3130 C   0  0  0  0  0  0  0  0  0  0  0  0
   57.1410   30.7110   44.4040 C   0  0  0  0  0  0  0  0  0  0  0  0
   57.7430   31.2830   45.5330 C   0  0  0  0  0  0  0  0  0  0  0  0
   57.9320   33.0350   45.6580 S   0  0  0  0  0  0  0  0  0  0  0  0
   57.3640   33.6530   44.4090 O   0  0  0  0  0  0  0  0  0  0  0  0
   57.1050   33.5240   46.8160 O   0  0  0  0  0  0  0  0  0  0  0  0
   59.5900   33.5850   45.8440 N   0  0  1  0  0  0  0  0  0  0  0  0
   59.7090   34.8900   46.5370 C   0  0  0  0  0  0  0  0  0  0  0  0
   59.6730   34.7770   48.0650 C   0  0  0  0  0  0  0  0  0  0  0  0
   60.7390   33.7920   48.5600 C   0  0  1  0  0  0  0  0  0  0  0  0
   60.7020   33.6500   50.0670 C   0  0  0  0  0  0  0  0  0  0  0  0
   61.6320   34.1550   50.7580 O   0  0  0  0  0  0  0  0  0  0  0  0
   59.5860   33.0330   50.7390 N   0  0  0  0  0  0  0  0  0  0  0  0
   58.4590   32.4050   50.0680 C   0  0  0  0  0  0  0  0  0  0  0  0
   57.5820   31.8400   51.1780 C   0  0  0  0  0  0  0  0  0  0  0  0
   58.0460   32.5160   52.4670 C   0  0  0  0  0  0  0  0  0  0  0  0
   59.4510   33.0300   52.1860 C   0  0  0  0  0  0  0  0  0  0  0  0
   60.5210   32.4280   47.9030 C   0  0  0  0  0  0  0  0  0  0  0  0
   60.4990   32.5380   46.3670 C   0  0  0  0  0  0  0  0  0  0  0  0
   58.2550   30.4490   46.5380 C   0  0  0  0  0  0  0  0  0  0  0  0
   58.1070   29.0620   46.4450 C   0  0  0  0  0  0  0  0  0  0  0  0
   56.6121   24.9472   47.5742 H   0  0  0  0  0  0  0  0  0  0  0  0
   55.8595   24.1931   46.1280 H   0  0  0  0  0  0  0  0  0  0  0  0
   57.6131   24.5824   46.1280 H   0  0  0  0  0  0  0  0  0  0  0  0
   56.5078   28.8824   43.4273 H   0  0  0  0  0  0  0  0  0  0  0  0
   56.7874   31.3558   43.5860 H   0  0  0  0  0  0  0  0  0  0  0  0
   59.9020   33.7650   44.8590 H   0  0  0  0  0  0  0  0  0  0  0  0
   58.8755   35.5320   46.2157 H   0  0  0  0  0  0  0  0  0  0  0  0
   60.6886   35.3113   46.2670 H   0  0  0  0  0  0  0  0  0  0  0  0
   58.6800   34.4219   48.3777 H   0  0  0  0  0  0  0  0  0  0  0  0
   59.8775   35.7672   48.4982 H   0  0  0  0  0  0  0  0  0  0  0  0
   61.7277   34.1856   48.2814 H   0  0  0  0  0  0  0  0  0  0  0  0
   57.9011   33.1475   49.4786 H   0  0  0  0  0  0  0  0  0  0  0  0
   58.7873   31.6204   49.3704 H   0  0  0  0  0  0  0  0  0  0  0  0
   56.5242   32.0715   50.9845 H   0  0  0  0  0  0  0  0  0  0  0  0
   57.6699   30.7454   51.2430 H   0  0  0  0  0  0  0  0  0  0  0  0
   57.3773   33.3509   52.7234 H   0  0  0  0  0  0  0  0  0  0  0  0
   58.0339   31.8173   53.3165 H   0  0  0  0  0  0  0  0  0  0  0  0
   59.5741   34.0477   52.5849 H   0  0  0  0  0  0  0  0  0  0  0  0
   60.2167   32.4014   52.6641 H   0  0  0  0  0  0  0  0  0  0  0  0
   59.5604   32.0158   48.2456 H   0  0  0  0  0  0  0  0  0  0  0  0
   61.3544   31.7698   48.1898 H   0  0  0  0  0  0  0  0  0  0  0  0
   60.1802   31.5685   45.9566 H   0  0  0  0  0  0  0  0  0  0  0  0
   61.5160   32.8197   46.0566 H   0  0  0  0  0  0  0  0  0  0  0  0
   58.7748   30.8879   47.4024 H   0  0  0  0  0  0  0  0  0  0  0  0
   58.5122   28.4146   47.2366 H   0  0  0  0  0  0  0  0  0  0  0  0
  1  2  1  0
  2  3  2  0
  2  4  1  0
  4  5  1  0
  5  6  2  0
  6  7  1  0
  7  8  2  0
  8  9  1  0
  9 10  2  0
  9 11  2  0
  9 12  1  0
 12 13  1  0
 13 14  1  0
 14 15  1  0
 15 16  1  0
 16 17  2  0
 16 18  1  0
 18 19  1  0
 19 20  1  0
 20 21  1  0
 21 22  1  0
 15 23  1  0
 23 24  1  0
  8 25  1  0
 25 26  2  0
 26  5  1  0
 24 12  1  0
 22 18  1  0
  1 27  1  0
  1 28  1  0
  1 29  1  0
  6 30  1  0
  7 31  1  0
 12 32  1  6
 13 33  1  0
 13 34  1  0
 14 35  1  0
 14 36  1  0
 15 37  1  1
 19 38  1  0
 19 39  1  0
 20 40  1  0
 20 41  1  0
 21 42  1  0
 21 43  1  0
 22 44  1  0
 22 45  1  0
 23 46  1  0
 23 47  1  0
 24 48  1  0
 24 49  1  0
 25 50  1  0
 26 51  1  0
M  CHG  2   4  -1  12   1
M  END
>  <UniqueID>  (80) 
77

>  <SMILES>  (80) 
CC(=O)[N-]c1ccc(S(=O)(=O)[NH+]2CCC(C(=O)N3CCCC3)CC2)cc1

>  <Energy>  (80) 
54.355003239953206

>  <Genealogy>  (80) 
CC(=O)[N-]c1ccc(S(=O)(=O)[NH+]2CCC(C(=O)N3CCCC3)CC2)cc1 (protonated)
CC(=O)[N-]c1ccc(S(=O)(=O)[NH+]2CCC(C(=O)N3CCCC3)CC2)cc1 (3D coordinates assigned)
CC(=O)[N-]c1ccc(S(=O)(=O)[NH+]2CCC(C(=O)N3CCCC3)CC2)cc1 (nonaromatic ring conformer: 54.355003239953206 kcal/mol)

>  <smiles>  (80) 
CC(=O)Nc1ccc(S(=O)(=O)N2CCC(C(=O)N3CCCC3)CC2)cc1

>  <score_type>  (80) 
oracle

>  <origin>  (80) 
adg

>  <m_score__min__energy>  (80) 
-8.8599999999999994

>  <m_primary>  (80) 
energy

$$$$
80:0
     RDKit          3D

 58 62  0  0  0  0  0  0  0  0999 V2000
   51.8760   24.3170   44.7250 O   0  0  0  0  0  0  0  0  0  0  0  0
   53.1320   24.2500   44.6980 C   0  0  0  0  0  0  0  0  0  0  0  0
   53.7750   23.3720   43.7780 N   0  0  0  0  0  0  0  0  0  0  0  0
   55.1990   23.2860   43.7050 C   0  0  0  0  0  0  0  0  0  0  0  0
   55.7120   22.3690   43.0100 O   0  0  0  0  0  0  0  0  0  0  0  0
   56.0430   24.2160   44.5070 C   0  0  0  0  0  0  0  0  0  0  0  0
   57.3830   24.3280   44.3670 C   0  0  0  0  0  0  0  0  0  0  0  0
   58.2680   25.1710   45.1890 C   0  0  0  0  0  0  0  0  0  0  0  0
   59.3190   24.7430   45.9810 C   0  0  0  0  0  0  0  0  0  0  0  0
   59.8850   25.8860   46.5040 C   0  0  0  0  0  0  0  0  0  0  0  0
   59.1540   26.9440   45.9870 C   0  0  0  0  0  0  0  0  0  0  0  0
   59.3680   28.3870   46.2470 C   0  0  0  0  0  0  0  0  0  0  0  0
   58.2830   29.1910   46.6320 C   0  0  0  0  0  0  0  0  0  0  0  0
   58.4630   30.5530   46.8920 C   0  0  0  0  0  0  0  0  0  0  0  0
   59.7350   31.1350   46.7820 C   0  0  0  0  0  0  0  0  0  0  0  0
   59.9260   32.5770   47.0640 C   0  0  0  0  0  0  0  0  0  0  0  0
   59.3460   33.4300   46.3400 O   0  0  0  0  0  0  0  0  0  0  0  0
   60.7680   33.0210   48.1420 N   0  0  0  0  0  0  0  0  0  0  0  0
   61.6780   34.1530   47.9160 C   0  0  0  0  0  0  0  0  0  0  0  0
   62.3850   34.5840   49.2070 C   0  0  0  0  0  0  0  0  0  0  0  0
   62.8560   33.4090   49.9530 N   0  0  0  0  0  0  0  0  0  0  0  0
   64.0530   33.5150   50.7460 C   0  0  0  0  0  0  0  0  0  0  0  0
   64.3400   34.6140   51.2930 O   0  0  0  0  0  0  0  0  0  0  0  0
   64.9530   32.3580   50.9400 C   0  0  0  0  0  0  0  0  0  0  0  0
   64.5080   31.2270   51.6440 C   0  0  0  0  0  0  0  0  0  0  0  0
   65.3620   30.1340   51.8360 C   0  0  0  0  0  0  0  0  0  0  0  0
   66.6670   30.1670   51.3380 C   0  0  0  0  0  0  0  0  0  0  0  0
   67.1240   31.2980   50.6550 C   0  0  0  0  0  0  0  0  0  0  0  0
   66.2760   32.3910   50.4600 C   0  0  0  0  0  0  0  0  0  0  0  0
   61.9710   32.2450   50.1380 C   0  0  0  0  0  0  0  0  0  0  0  0
   60.6010   32.4700   49.4920 C   0  0  0  0  0  0  0  0  0  0  0  0
   60.8180   30.3370   46.3810 C   0  0  0  0  0  0  0  0  0  0  0  0
   60.6390   28.9760   46.1200 C   0  0  0  0  0  0  0  0  0  0  0  0
   58.2060   26.4820   45.2010 O   0  0  0  0  0  0  0  0  0  0  0  0
   55.3430   25.0240   45.5390 C   0  0  0  0  0  0  0  0  0  0  0  0
   55.9960   25.7220   46.3610 O   0  0  0  0  0  0  0  0  0  0  0  0
   53.9130   25.0370   45.5980 N   0  0  0  0  0  0  0  0  0  0  0  0
   57.8544   23.7369   43.5680 H   0  0  0  0  0  0  0  0  0  0  0  0
   59.6372   23.7048   46.1569 H   0  0  0  0  0  0  0  0  0  0  0  0
   60.7418   25.9461   47.1913 H   0  0  0  0  0  0  0  0  0  0  0  0
   57.2822   28.7452   46.7300 H   0  0  0  0  0  0  0  0  0  0  0  0
   57.6021   31.1721   47.1846 H   0  0  0  0  0  0  0  0  0  0  0  0
   62.4368   33.8574   47.1765 H   0  0  0  0  0  0  0  0  0  0  0  0
   61.0816   35.0032   47.5534 H   0  0  0  0  0  0  0  0  0  0  0  0
   63.2455   35.2205   48.9532 H   0  0  0  0  0  0  0  0  0  0  0  0
   61.6729   35.1410   49.8335 H   0  0  0  0  0  0  0  0  0  0  0  0
   63.4845   31.1997   52.0461 H   0  0  0  0  0  0  0  0  0  0  0  0
   65.0046   29.2474   52.3802 H   0  0  0  0  0  0  0  0  0  0  0  0
   67.3339   29.3043   51.4831 H   0  0  0  0  0  0  0  0  0  0  0  0
   68.1540   31.3274   50.2701 H   0  0  0  0  0  0  0  0  0  0  0  0
   66.6437   33.2814   49.9290 H   0  0  0  0  0  0  0  0  0  0  0  0
   62.4413   31.3626   49.6795 H   0  0  0  0  0  0  0  0  0  0  0  0
   61.8218   32.0944   51.2174 H   0  0  0  0  0  0  0  0  0  0  0  0
   60.0651   31.5113   49.4306 H   0  0  0  0  0  0  0  0  0  0  0  0
   60.0252   33.1802   50.1036 H   0  0  0  0  0  0  0  0  0  0  0  0
   61.8158   30.7868   46.2713 H   0  0  0  0  0  0  0  0  0  0  0  0
   61.4979   28.3610   45.8131 H   0  0  0  0  0  0  0  0  0  0  0  0
   53.4320   25.6420   46.3000 H   0  0  0  0  0  0  0  0  0  0  0  0
  1  2  2  0
  2  3  1  0
  3  4  1  0
  4  5  2  0
  4  6  1  0
  6  7  2  3
  7  8  1  0
  8  9  2  0
  9 10  1  0
 10 11  2  0
 11 12  1  0
 12 13  2  0
 13 14  1  0
 14 15  2  0
 15 16  1  0
 16 17  2  0
 16 18  1  0
 18 19  1  0
 19 20  1  0
 20 21  1  0
 21 22  1  0
 22 23  2  0
 22 24  1  0
 24 25  2  0
 25 26  1  0
 26 27  2  0
 27 28  1  0
 28 29  2  0
 21 30  1  0
 30 31  1  0
 15 32  1  0
 32 33  2  0
 11 34  1  0
  6 35  1  0
 35 36  2  0
 35 37  1  0
 37  2  1  0
 34  8  1  0
 33 12  1  0
 31 18  1  0
 29 24  1  0
  7 38  1  0
  9 39  1  0
 10 40  1  0
 13 41  1  0
 14 42  1  0
 19 43  1  0
 19 44  1  0
 20 45  1  0
 20 46  1  0
 25 47  1  0
 26 48  1  0
 27 49  1  0
 28 50  1  0
 29 51  1  0
 30 52  1  0
 30 53  1  0
 31 54  1  0
 31 55  1  0
 32 56  1  0
 33 57  1  0
 37 58  1  0
M  CHG  1   3  -1
M  END
>  <UniqueID>  (81) 
78

>  <SMILES>  (81) 
O=C1[N-]C(=O)C(=Cc2ccc(-c3ccc(C(=O)N4CCN(C(=O)c5ccccc5)CC4)cc3)o2)C(=O)N1

>  <Energy>  (81) 
107.74270687371403

>  <Genealogy>  (81) 
O=C1[N-]C(=O)C(=Cc2ccc(-c3ccc(C(=O)N4CCN(C(=O)c5ccccc5)CC4)cc3)o2)C(=O)N1 (protonated)
O=C1[N-]C(=O)C(=Cc2ccc(-c3ccc(C(=O)N4CCN(C(=O)c5ccccc5)CC4)cc3)o2)C(=O)N1 (3D coordinates assigned)
O=C1[N-]C(=O)C(=Cc2ccc(-c3ccc(C(=O)N4CCN(C(=O)c5ccccc5)CC4)cc3)o2)C(=O)N1 (nonaromatic ring conformer: 107.74270687371403 kcal/mol)

>  <smiles>  (81) 
O=C1NC(=O)C(=Cc2ccc(-c3ccc(C(=O)N4CCN(C(=O)c5ccccc5)CC4)cc3)o2)C(=O)N1

>  <score_type>  (81) 
oracle

>  <origin>  (81) 
adg

>  <m_score__min__energy>  (81) 
-11.23

>  <m_primary>  (81) 
energy

$$$$
81:0
     RDKit          3D

 67 70  0  0  0  0  0  0  0  0999 V2000
   51.6147   24.8873   43.3893 H   0  0  0  0  0  0  0  0  0  0  0  0
   51.0630   24.0780   43.8900 C   0  0  0  0  0  0  0  0  0  0  0  0
   50.2921   23.5167   43.3416 H   0  0  0  0  0  0  0  0  0  0  0  0
   51.3290   23.7770   45.1630 C   0  0  0  0  0  0  0  0  0  0  0  0
   52.1027   24.3476   45.6976 H   0  0  0  0  0  0  0  0  0  0  0  0
   50.6000   22.6800   45.8850 C   0  0  0  0  0  0  0  0  0  0  0  0
   49.9197   23.1267   46.6251 H   0  0  0  0  0  0  0  0  0  0  0  0
   50.0347   22.0909   45.1478 H   0  0  0  0  0  0  0  0  0  0  0  0
   51.5370   21.7910   46.5720 N   0  0  0  0  0  0  0  0  0  0  0  0
   52.2230   20.8200   46.0340 C   0  0  0  0  0  0  0  0  0  0  0  0
   51.5740   19.6730   45.4690 N   0  0  0  0  0  0  0  0  0  0  0  0
   52.1470   18.8840   45.0910 H   0  0  0  0  0  0  0  0  0  0  0  0
   50.5480   19.6420   45.2960 H   0  0  0  0  0  0  0  0  0  0  0  0
   53.6600   20.8680   46.0460 N   0  0  0  0  0  0  0  0  0  0  0  0
   54.1700   19.9580   45.9740 H   0  0  0  0  0  0  0  0  0  0  0  0
   54.4390   22.0720   46.1780 C   0  0  0  0  0  0  0  0  0  0  0  0
   54.9580   22.4840   47.4190 C   0  0  0  0  0  0  0  0  0  0  0  0
   54.7772   21.8738   48.3162 H   0  0  0  0  0  0  0  0  0  0  0  0
   55.7010   23.6620   47.5200 C   0  0  0  0  0  0  0  0  0  0  0  0
   56.1341   23.9534   48.4883 H   0  0  0  0  0  0  0  0  0  0  0  0
   55.8990   24.4770   46.3940 C   0  0  0  0  0  0  0  0  0  0  0  0
   56.6650   25.7360   46.5150 C   0  0  0  0  0  0  0  0  0  0  0  0
   57.5640   25.8330   47.3950 O   0  0  0  0  0  0  0  0  0  0  0  0
   56.3480   26.8620   45.6830 N   0  0  0  0  0  0  0  0  0  0  0  0
   55.4210   26.8790   45.1990 H   0  0  0  0  0  0  0  0  0  0  0  0
   57.1640   28.0410   45.6090 C   0  0  0  0  0  0  0  0  0  0  0  0
   56.6140   29.2950   45.3070 C   0  0  0  0  0  0  0  0  0  0  0  0
   55.5402   29.3846   45.0859 H   0  0  0  0  0  0  0  0  0  0  0  0
   57.4060   30.4010   45.2870 N   0  0  0  0  0  0  0  0  0  0  0  0
   58.7420   30.3460   45.5400 C   0  0  0  0  0  0  0  0  0  0  0  0
   59.4280   31.4550   45.5120 N   0  0  0  0  0  0  0  0  0  0  0  0
   59.3770   32.5170   46.4780 C   0  0  0  0  0  0  0  0  0  0  0  0
   59.3330   33.8440   46.0410 C   0  0  0  0  0  0  0  0  0  0  0  0
   59.3456   34.0686   44.9642 H   0  0  0  0  0  0  0  0  0  0  0  0
   59.2730   34.8850   46.9700 C   0  0  0  0  0  0  0  0  0  0  0  0
   59.2184   35.9270   46.6217 H   0  0  0  0  0  0  0  0  0  0  0  0
   59.2820   34.6090   48.3410 C   0  0  0  0  0  0  0  0  0  0  0  0
   59.2058   35.4333   49.0654 H   0  0  0  0  0  0  0  0  0  0  0  0
   59.3880   33.2820   48.7990 C   0  0  0  0  0  0  0  0  0  0  0  0
   59.4150   32.9870   50.2140 N   0  0  0  0  0  0  0  0  0  0  0  0
   59.6010   31.6060   50.6790 C   0  0  0  0  0  0  0  0  0  0  0  0
   58.9565   30.9379   50.0889 H   0  0  0  0  0  0  0  0  0  0  0  0
   60.6589   31.3329   50.5514 H   0  0  0  0  0  0  0  0  0  0  0  0
   59.2360   31.4710   52.1690 C   0  0  0  0  0  0  0  0  0  0  0  0
   59.0337   30.4127   52.3907 H   0  0  0  0  0  0  0  0  0  0  0  0
   60.0829   31.8466   52.7620 H   0  0  0  0  0  0  0  0  0  0  0  0
   58.0410   32.2700   52.5210 N   0  0  0  0  0  0  0  0  0  0  0  0
   56.8110   31.6960   51.9440 C   0  0  0  0  0  0  0  0  0  0  0  0
   56.1376   31.3817   52.7550 H   0  0  0  0  0  0  0  0  0  0  0  0
   56.3092   32.4530   51.3233 H   0  0  0  0  0  0  0  0  0  0  0  0
   57.0689   30.8252   51.3233 H   0  0  0  0  0  0  0  0  0  0  0  0
   58.1730   33.7200   52.2090 C   0  0  0  0  0  0  0  0  0  0  0  0
   57.2259   34.0672   51.7704 H   0  0  0  0  0  0  0  0  0  0  0  0
   58.4132   34.2287   53.1543 H   0  0  0  0  0  0  0  0  0  0  0  0
   59.3110   34.0470   51.2250 C   0  0  0  0  0  0  0  0  0  0  0  0
   59.1001   35.0057   50.7285 H   0  0  0  0  0  0  0  0  0  0  0  0
   60.2598   34.1162   51.7773 H   0  0  0  0  0  0  0  0  0  0  0  0
   59.4380   32.2410   47.8530 C   0  0  0  0  0  0  0  0  0  0  0  0
   59.5259   31.1992   48.1951 H   0  0  0  0  0  0  0  0  0  0  0  0
   59.3250   29.1050   45.8660 C   0  0  0  0  0  0  0  0  0  0  0  0
   60.4007   29.0394   46.0866 H   0  0  0  0  0  0  0  0  0  0  0  0
   58.5290   27.9610   45.9070 C   0  0  0  0  0  0  0  0  0  0  0  0
   58.9756   26.9920   46.1746 H   0  0  0  0  0  0  0  0  0  0  0  0
   55.3520   24.0860   45.1620 C   0  0  0  0  0  0  0  0  0  0  0  0
   55.4920   24.7214   44.2750 H   0  0  0  0  0  0  0  0  0  0  0  0
   54.6300   22.8930   45.0560 C   0  0  0  0  0  0  0  0  0  0  0  0
   54.2081   22.5955   44.0846 H   0  0  0  0  0  0  0  0  0  0  0  0
  1  2  1  0
  2  3  1  0
  2  4  2  0
  4  5  1  0
  4  6  1  0
  6  7  1  0
  6  8  1  0
  6  9  1  0
  9 10  2  0
 10 11  1  0
 11 12  1  0
 11 13  1  0
 10 14  1  0
 14 15  1  0
 14 16  1  0
 16 17  2  0
 17 18  1  0
 17 19  1  0
 19 20  1  0
 19 21  2  0
 21 22  1  0
 22 23  2  0
 22 24  1  0
 24 25  1  0
 24 26  1  0
 26 27  2  0
 27 28  1  0
 27 29  1  0
 29 30  1  0
 30 31  2  3
 31 32  1  0
 32 33  2  0
 33 34  1  0
 33 35  1  0
 35 36  1  0
 35 37  2  0
 37 38  1  0
 37 39  1  0
 39 40  1  0
 40 41  1  0
 41 42  1  0
 41 43  1  0
 41 44  1  0
 44 45  1  0
 44 46  1  0
 44 47  1  0
 47 48  1  0
 48 49  1  0
 48 50  1  0
 48 51  1  0
 47 52  1  0
 52 53  1  0
 52 54  1  0
 52 55  1  0
 55 56  1  0
 55 57  1  0
 39 58  2  0
 58 59  1  0
 30 60  1  0
 60 61  1  0
 60 62  2  0
 62 63  1  0
 21 64  1  0
 64 65  1  0
 64 66  2  0
 66 67  1  0
 66 16  1  0
 62 26  1  0
 58 32  1  0
 55 40  1  0
M  CHG  1  29  -1
M  END
>  <UniqueID>  (82) 
79

>  <SMILES>  (82) 
C=CC/N=C(\N)Nc1ccc(C(=O)Nc2ccc(=Nc3cccc(N4CCN(C)CC4)c3)[n-]c2)cc1

>  <Energy>  (82) 
97.92226507866572

>  <Genealogy>  (82) 
C=CCN=C(N)Nc1ccc(C(=O)Nc2ccc(=Nc3cccc(N4CCN(C)CC4)c3)[n-]c2)cc1 (protonated)
C=CC/N=C(\N)Nc1ccc(C(=O)Nc2ccc(=Nc3cccc(N4CCN(C)CC4)c3)[n-]c2)cc1 (cis-trans isomerization)
C=CC/N=C(\N)Nc1ccc(C(=O)Nc2ccc(=Nc3cccc(N4CCN(C)CC4)c3)[n-]c2)cc1 (3D coordinates assigned)
C=CC/N=C(\N)Nc1ccc(C(=O)Nc2ccc(=Nc3cccc(N4CCN(C)CC4)c3)[n-]c2)cc1 (nonaromatic ring conformer: 97.92226507866572 kcal/mol)

>  <smiles>  (82) 
C=CCN=C(N)Nc1ccc(C(=O)Nc2ccc(=Nc3cccc(N4CCN(C)CC4)c3)[nH]c2)cc1

>  <score_type>  (82) 
oracle

>  <origin>  (82) 
adg

>  <m_score__min__energy>  (82) 
-9.1400000000000006

>  <m_primary>  (82) 
energy

$$$$
82:0
     RDKit          3D

 56 59  0  0  0  0  0  0  0  0999 V2000
   63.8188   33.9328   52.3106 H   0  0  0  0  0  0  0  0  0  0  0  0
   63.0490   33.3120   51.8290 C   0  0  0  0  0  0  0  0  0  0  0  0
   62.1040   32.7800   52.6170 C   0  0  0  0  0  0  0  0  0  0  0  0
   62.3237   32.7071   53.6924 H   0  0  0  0  0  0  0  0  0  0  0  0
   60.7650   32.2740   52.1470 C   0  0  0  0  0  0  0  0  0  0  0  0
   60.1249   32.0735   53.0188 H   0  0  0  0  0  0  0  0  0  0  0  0
   60.9107   31.3485   51.5705 H   0  0  0  0  0  0  0  0  0  0  0  0
   60.1160   33.2860   51.2850 N   0  0  0  0  0  0  0  0  0  0  0  0
   59.0160   33.9880   51.9810 C   0  0  0  0  0  0  0  0  0  0  0  0
   58.6396   34.7934   51.3332 H   0  0  0  0  0  0  0  0  0  0  0  0
   59.4089   34.3953   52.9242 H   0  0  0  0  0  0  0  0  0  0  0  0
   57.8570   33.0310   52.3140 C   0  0  0  0  0  0  0  0  0  0  0  0
   56.9331   33.6144   52.4412 H   0  0  0  0  0  0  0  0  0  0  0  0
   58.1009   32.4919   53.2413 H   0  0  0  0  0  0  0  0  0  0  0  0
   57.6630   32.0520   51.2390 N   0  0  0  0  0  0  0  0  0  0  0  0
   57.1450   30.7360   51.5080 C   0  0  0  0  0  0  0  0  0  0  0  0
   57.8060   29.7350   51.1270 O   0  0  0  0  0  0  0  0  0  0  0  0
   55.8300   30.5240   52.1650 C   0  0  0  0  0  0  0  0  0  0  0  0
   54.6040   30.5450   51.5260 C   0  0  0  0  0  0  0  0  0  0  0  0
   54.4303   30.6832   50.4486 H   0  0  0  0  0  0  0  0  0  0  0  0
   53.6350   30.3590   52.5000 C   0  0  0  0  0  0  0  0  0  0  0  0
   52.3000   30.3540   52.3050 C   0  0  0  0  0  0  0  0  0  0  0  0
   51.6595   30.0063   53.1290 H   0  0  0  0  0  0  0  0  0  0  0  0
   51.6460   30.7860   51.0550 C   0  0  0  0  0  0  0  0  0  0  0  0
   51.6210   30.0350   49.9400 N   0  0  0  0  0  0  0  0  0  0  0  0
   51.0130   30.8350   49.0360 C   0  0  0  0  0  0  0  0  0  0  0  0
   50.7920   30.4740   47.8510 O   0  0  0  0  0  0  0  0  0  0  0  0
   50.6740   32.0570   49.4980 N   0  0  0  0  0  0  0  0  0  0  0  0
   51.0930   32.0170   50.7730 C   0  0  0  0  0  0  0  0  0  0  0  0
   51.0110   33.0990   51.6420 O   0  0  0  0  0  0  0  0  0  0  0  0
   54.3150   30.2450   53.7140 C   0  0  0  0  0  0  0  0  0  0  0  0
   53.7520   30.0780   54.9230 C   0  0  0  0  0  0  0  0  0  0  0  0
   54.3857   29.9996   55.8187 H   0  0  0  0  0  0  0  0  0  0  0  0
   52.6576   30.0197   55.0167 H   0  0  0  0  0  0  0  0  0  0  0  0
   55.6550   30.3300   53.4980 N   0  0  0  0  0  0  0  0  0  0  0  0
   56.7180   30.2180   54.5110 C   0  0  0  0  0  0  0  0  0  0  0  0
   57.4386   31.0372   54.3707 H   0  0  0  0  0  0  0  0  0  0  0  0
   56.2626   30.2782   55.5105 H   0  0  0  0  0  0  0  0  0  0  0  0
   57.4460   28.8820   54.3820 C   0  0  0  0  0  0  0  0  0  0  0  0
   57.6627   28.4842   55.3844 H   0  0  0  0  0  0  0  0  0  0  0  0
   56.8112   28.1699   53.8343 H   0  0  0  0  0  0  0  0  0  0  0  0
   58.3885   29.0294   53.8343 H   0  0  0  0  0  0  0  0  0  0  0  0
   58.1890   32.3630   49.9060 C   0  0  0  0  0  0  0  0  0  0  0  0
   57.6309   33.2139   49.4882 H   0  0  0  0  0  0  0  0  0  0  0  0
   58.0724   31.4756   49.2665 H   0  0  0  0  0  0  0  0  0  0  0  0
   59.6880   32.7270   49.9760 C   0  0  0  0  0  0  0  0  0  0  0  0
   59.8991   33.4733   49.1960 H   0  0  0  0  0  0  0  0  0  0  0  0
   60.2487   31.7917   49.8318 H   0  0  0  0  0  0  0  0  0  0  0  0
   63.1390   33.1320   50.3710 C   0  0  0  0  0  0  0  0  0  0  0  0
   62.6170   34.2630   49.2430 S   0  0  0  0  0  0  0  0  0  0  0  0
   62.8770   33.3080   47.8840 C   0  0  0  0  0  0  0  0  0  0  0  0
   62.7025   33.6102   46.8408 H   0  0  0  0  0  0  0  0  0  0  0  0
   63.3500   32.0720   48.3050 C   0  0  0  0  0  0  0  0  0  0  0  0
   63.6019   31.2558   47.6119 H   0  0  0  0  0  0  0  0  0  0  0  0
   63.4760   31.9630   49.6960 C   0  0  0  0  0  0  0  0  0  0  0  0
   63.8080   31.0453   50.2036 H   0  0  0  0  0  0  0  0  0  0  0  0
  1  2  1  0
  2  3  2  3
  3  4  1  0
  3  5  1  0
  5  6  1  0
  5  7  1  0
  5  8  1  0
  8  9  1  0
  9 10  1  0
  9 11  1  0
  9 12  1  0
 12 13  1  0
 12 14  1  0
 12 15  1  0
 15 16  1  0
 16 17  2  0
 16 18  1  0
 18 19  2  0
 19 20  1  0
 19 21  1  0
 21 22  2  0
 22 23  1  0
 22 24  1  0
 24 25  1  0
 25 26  1  0
 26 27  2  0
 26 28  1  0
 28 29  1  0
 29 30  1  0
 21 31  1  0
 31 32  2  0
 32 33  1  0
 32 34  1  0
 31 35  1  0
 35 36  1  0
 36 37  1  0
 36 38  1  0
 36 39  1  0
 39 40  1  0
 39 41  1  0
 39 42  1  0
 15 43  1  0
 43 44  1  0
 43 45  1  0
 43 46  1  0
 46 47  1  0
 46 48  1  0
  2 49  1  0
 49 50  1  0
 50 51  1  0
 51 52  1  0
 51 53  2  0
 53 54  1  0
 53 55  1  0
 55 56  1  0
 46  8  1  0
 55 49  2  0
 35 18  1  0
 29 24  2  0
M  CHG  3  25  -1  28  -1  30  -1
M  END
>  <UniqueID>  (83) 
80

>  <SMILES>  (83) 
C=c1/c(=C/c2[n-]c(=O)[n-]c2[O-])cc(C(=O)N2CCN(CC=Cc3cccs3)CC2)n1CC

>  <Energy>  (83) 
169.1100100626396

>  <Genealogy>  (83) 
C=c1c(=Cc2[n-]c(=O)[n-]c2[O-])cc(C(=O)N2CCN(CC=Cc3cccs3)CC2)n1CC (protonated)
C=c1/c(=C/c2[n-]c(=O)[n-]c2[O-])cc(C(=O)N2CCN(CC=Cc3cccs3)CC2)n1CC (cis-trans isomerization)
C=c1/c(=C/c2[n-]c(=O)[n-]c2[O-])cc(C(=O)N2CCN(CC=Cc3cccs3)CC2)n1CC (3D coordinates assigned)
C=c1/c(=C/c2[n-]c(=O)[n-]c2[O-])cc(C(=O)N2CCN(CC=Cc3cccs3)CC2)n1CC (nonaromatic ring conformer: 169.1100100626396 kcal/mol)

>  <smiles>  (83) 
C=c1c(=Cc2[nH]c(=O)[nH]c2O)cc(C(=O)N2CCN(CC=Cc3cccs3)CC2)n1CC

>  <score_type>  (83) 
oracle

>  <origin>  (83) 
adg

>  <m_score__min__energy>  (83) 
-18.260000000000002

>  <m_primary>  (83) 
energy

$$$$
83:0
     RDKit          3D

 30 31  0  0  0  0  0  0  0  0999 V2000
   55.1690   26.1350   46.2880 N   0  0  0  0  0  0  0  0  0  0  0  0
   56.5730   25.9460   46.1200 C   0  0  0  0  0  0  0  0  0  0  0  0
   57.0070   24.8600   45.6520 O   0  0  0  0  0  0  0  0  0  0  0  0
   57.5230   27.0430   46.4820 C   0  0  0  0  0  0  0  0  0  0  0  0
   57.0820   28.3400   45.8690 C   0  0  0  0  0  0  0  0  0  0  0  0
   55.9220   28.4680   45.1990 N   0  0  0  0  0  0  0  0  0  0  0  0
   55.9380   29.7490   44.7830 C   0  0  0  0  0  0  0  0  0  0  0  0
   55.0030   30.2590   44.1130 O   0  0  0  0  0  0  0  0  0  0  0  0
   57.0390   30.4410   45.1390 N   0  0  0  0  0  0  0  0  0  0  0  0
   57.7710   29.5450   45.8270 C   0  0  0  0  0  0  0  0  0  0  0  0
   59.0920   29.8620   46.4140 C   0  0  0  0  0  0  0  0  0  0  0  0
   60.1310   29.2940   45.9880 O   0  0  0  0  0  0  0  0  0  0  0  0
   59.2110   30.8290   47.5580 C   0  0  0  0  0  0  0  0  0  0  0  0
   60.5170   31.5720   47.4770 C   0  0  0  0  0  0  0  0  0  0  0  0
   61.6970   30.9950   47.9770 C   0  0  0  0  0  0  0  0  0  0  0  0
   62.9140   31.6750   47.8730 C   0  0  0  0  0  0  0  0  0  0  0  0
   62.9660   32.9350   47.2650 C   0  0  0  0  0  0  0  0  0  0  0  0
   64.1850   33.6020   47.1690 O   0  0  0  0  0  0  0  0  0  0  0  0
   61.7940   33.5110   46.7590 C   0  0  0  0  0  0  0  0  0  0  0  0
   60.5760   32.8320   46.8610 C   0  0  0  0  0  0  0  0  0  0  0  0
   54.7640   27.0920   46.3790 H   0  0  0  0  0  0  0  0  0  0  0  0
   57.5524   27.1507   47.5763 H   0  0  0  0  0  0  0  0  0  0  0  0
   58.5231   26.7896   46.1003 H   0  0  0  0  0  0  0  0  0  0  0  0
   58.3802   31.5486   47.5133 H   0  0  0  0  0  0  0  0  0  0  0  0
   59.1739   30.2707   48.5051 H   0  0  0  0  0  0  0  0  0  0  0  0
   61.6628   30.0036   48.4524 H   0  0  0  0  0  0  0  0  0  0  0  0
   63.8330   31.2189   48.2698 H   0  0  0  0  0  0  0  0  0  0  0  0
   65.0620   33.0980   47.1140 H   0  0  0  0  0  0  0  0  0  0  0  0
   61.8318   34.5005   46.2799 H   0  0  0  0  0  0  0  0  0  0  0  0
   59.6599   33.2872   46.4567 H   0  0  0  0  0  0  0  0  0  0  0  0
  1  2  1  0
  2  3  2  0
  2  4  1  0
  4  5  1  0
  5  6  1  0
  6  7  1  0
  7  8  2  0
  7  9  1  0
  9 10  1  0
 10 11  1  0
 11 12  2  0
 11 13  1  0
 13 14  1  0
 14 15  2  0
 15 16  1  0
 16 17  2  0
 17 18  1  0
 17 19  1  0
 19 20  2  0
 10  5  2  0
 20 14  1  0
  1 21  1  0
  4 22  1  0
  4 23  1  0
 13 24  1  0
 13 25  1  0
 15 26  1  0
 16 27  1  0
 18 28  1  0
 19 29  1  0
 20 30  1  0
M  CHG  3   1  -1   6  -1   9  -1
M  END
>  <UniqueID>  (84) 
81

>  <SMILES>  (84) 
[NH-]C(=O)Cc1[n-]c(=O)[n-]c1C(=O)Cc1ccc(O)cc1

>  <Energy>  (84) 
54.381811788235076

>  <Genealogy>  (84) 
[NH-]C(=O)Cc1[n-]c(=O)[n-]c1C(=O)Cc1ccc(O)cc1 (protonated)
[NH-]C(=O)Cc1[n-]c(=O)[n-]c1C(=O)Cc1ccc(O)cc1 (3D coordinates assigned)
[NH-]C(=O)Cc1[n-]c(=O)[n-]c1C(=O)Cc1ccc(O)cc1 (optimized conformer: 54.381811788235076 kcal/mol)

>  <smiles>  (84) 
NC(=O)Cc1[nH]c(=O)[nH]c1C(=O)Cc1ccc(O)cc1

>  <score_type>  (84) 
oracle

>  <origin>  (84) 
adg

>  <m_score__min__energy>  (84) 
-13.35

>  <m_primary>  (84) 
energy

$$$$
84:0
     RDKit          3D

 35 37  0  0  0  0  0  0  0  0999 V2000
   57.3390   24.0990   44.5610 C   0  0  0  0  0  0  0  0  0  0  0  0
   56.0610   24.2760   44.9030 C   0  0  0  0  0  0  0  0  0  0  0  0
   55.1080   23.3930   44.5500 N   0  0  0  0  0  0  0  0  0  0  0  0
   54.0150   23.8190   45.2090 C   0  0  0  0  0  0  0  0  0  0  0  0
   52.9040   23.2320   45.1360 O   0  0  0  0  0  0  0  0  0  0  0  0
   54.2080   24.9210   45.9600 N   0  0  0  0  0  0  0  0  0  0  0  0
   55.5000   25.2380   45.7510 C   0  0  0  0  0  0  0  0  0  0  0  0
   56.0460   26.3330   46.3100 C   0  0  0  0  0  0  0  0  0  0  0  0
   56.8880   27.3170   45.6140 C   0  0  0  0  0  0  0  0  0  0  0  0
   58.2050   27.1560   45.3610 N   0  0  0  0  0  0  0  0  0  0  0  0
   58.5270   28.2510   44.6390 C   0  0  0  0  0  0  0  0  0  0  0  0
   59.6980   28.4840   44.2360 O   0  0  0  0  0  0  0  0  0  0  0  0
   57.4810   29.0710   44.4020 N   0  0  0  0  0  0  0  0  0  0  0  0
   57.4920   30.3800   43.7470 C   0  0  0  0  0  0  0  0  0  0  0  0
   56.6750   31.4040   44.5460 C   0  0  0  0  0  0  0  0  0  0  0  0
   57.5530   32.4860   45.1210 C   0  0  0  0  0  0  0  0  0  0  0  0
   57.7610   32.5660   46.5080 C   0  0  0  0  0  0  0  0  0  0  0  0
   58.5300   33.6020   47.0460 C   0  0  0  0  0  0  0  0  0  0  0  0
   59.0890   34.5690   46.2060 C   0  0  0  0  0  0  0  0  0  0  0  0
   59.8500   35.6010   46.7430 O   0  0  0  0  0  0  0  0  0  0  0  0
   58.8810   34.5010   44.8250 C   0  0  0  0  0  0  0  0  0  0  0  0
   58.1150   33.4640   44.2840 C   0  0  0  0  0  0  0  0  0  0  0  0
   56.4450   28.4730   45.0110 C   0  0  0  0  0  0  0  0  0  0  0  0
   55.1460   28.9670   45.0350 O   0  0  0  0  0  0  0  0  0  0  0  0
   58.0965   24.8371   44.8633 H   0  0  0  0  0  0  0  0  0  0  0  0
   57.6347   23.2151   43.9769 H   0  0  0  0  0  0  0  0  0  0  0  0
   55.8457   26.5068   47.3776 H   0  0  0  0  0  0  0  0  0  0  0  0
   58.5308   30.7329   43.6668 H   0  0  0  0  0  0  0  0  0  0  0  0
   57.0413   30.2753   42.7491 H   0  0  0  0  0  0  0  0  0  0  0  0
   55.9303   31.8646   43.8802 H   0  0  0  0  0  0  0  0  0  0  0  0
   56.1849   30.8790   45.3792 H   0  0  0  0  0  0  0  0  0  0  0  0
   57.3171   31.8107   47.1731 H   0  0  0  0  0  0  0  0  0  0  0  0
   58.6954   33.6562   48.1321 H   0  0  0  0  0  0  0  0  0  0  0  0
   59.3199   35.2632   44.1644 H   0  0  0  0  0  0  0  0  0  0  0  0
   57.9516   33.4138   43.1974 H   0  0  0  0  0  0  0  0  0  0  0  0
  1  2  2  0
  2  3  1  0
  3  4  1  0
  4  5  2  0
  4  6  1  0
  6  7  1  0
  7  8  2  3
  8  9  1  0
  9 10  1  0
 10 11  1  0
 11 12  2  0
 11 13  1  0
 13 14  1  0
 14 15  1  0
 15 16  1  0
 16 17  2  0
 17 18  1  0
 18 19  2  0
 19 20  1  0
 19 21  1  0
 21 22  2  0
 13 23  1  0
 23 24  1  0
  7  2  1  0
 23  9  2  0
 22 16  1  0
  1 25  1  0
  1 26  1  0
  8 27  1  0
 14 28  1  0
 14 29  1  0
 15 30  1  0
 15 31  1  0
 17 32  1  0
 18 33  1  0
 21 34  1  0
 22 35  1  0
M  CHG  5   3  -1   6  -1  10  -1  20  -1  24  -1
M  END
>  <UniqueID>  (85) 
82

>  <SMILES>  (85) 
C=c1[n-]c(=O)[n-]c1=Cc1[n-]c(=O)n(CCc2ccc([O-])cc2)c1[O-]

>  <Energy>  (85) 
104.77844783662808

>  <Genealogy>  (85) 
C=c1[n-]c(=O)[n-]c1=Cc1[n-]c(=O)n(CCc2ccc([O-])cc2)c1[O-] (protonated)
C=c1[n-]c(=O)[n-]c1=Cc1[n-]c(=O)n(CCc2ccc([O-])cc2)c1[O-] (3D coordinates assigned)
C=c1[n-]c(=O)[n-]c1=Cc1[n-]c(=O)n(CCc2ccc([O-])cc2)c1[O-] (optimized conformer: 104.77844783662808 kcal/mol)

>  <smiles>  (85) 
C=c1[nH]c(=O)[nH]c1=Cc1[nH]c(=O)n(CCc2ccc(O)cc2)c1O

>  <score_type>  (85) 
oracle

>  <origin>  (85) 
adg

>  <m_score__min__energy>  (85) 
-16.260000000000002

>  <m_primary>  (85) 
energy

$$$$
85:0
     RDKit          3D

 23 24  0  0  0  0  0  0  0  0999 V2000
   55.1290   29.3400   44.8770 N   0  0  0  0  0  0  0  0  0  0  0  0
   56.7100   29.4160   44.1800 S   0  0  0  0  0  0  0  0  0  0  0  0
   57.4500   28.1350   44.4440 O   0  0  0  0  0  0  0  0  0  0  0  0
   56.5580   29.5900   42.6940 O   0  0  0  0  0  0  0  0  0  0  0  0
   57.5920   30.7580   44.8620 N   0  0  0  0  0  0  0  0  0  0  0  0
   57.5820   32.0590   44.1770 C   0  0  0  0  0  0  0  0  0  0  0  0
   57.4140   33.1750   45.1670 C   0  0  0  0  0  0  0  0  0  0  0  0
   56.8960   34.2660   44.8060 O   0  0  0  0  0  0  0  0  0  0  0  0
   57.9110   33.0250   46.4990 N   0  0  0  0  0  0  0  0  0  0  0  0
   58.4400   31.7680   46.9360 C   0  0  0  0  0  0  0  0  0  0  0  0
   59.0870   31.6650   48.1740 C   0  0  0  0  0  0  0  0  0  0  0  0
   59.6100   30.4400   48.5930 C   0  0  0  0  0  0  0  0  0  0  0  0
   59.4930   29.3120   47.7760 C   0  0  0  0  0  0  0  0  0  0  0  0
   60.1650   27.7780   48.2990 Cl  0  0  0  0  0  0  0  0  0  0  0  0
   58.8410   29.4050   46.5420 C   0  0  0  0  0  0  0  0  0  0  0  0
   58.2960   30.6310   46.1170 C   0  0  0  0  0  0  0  0  0  0  0  0
   55.1430   28.6040   45.6160 H   0  0  0  0  0  0  0  0  0  0  0  0
   58.5326   32.1922   43.6397 H   0  0  0  0  0  0  0  0  0  0  0  0
   56.7395   32.0816   43.4701 H   0  0  0  0  0  0  0  0  0  0  0  0
   57.9010   33.8460   47.1460 H   0  0  0  0  0  0  0  0  0  0  0  0
   59.1834   32.5516   48.8179 H   0  0  0  0  0  0  0  0  0  0  0  0
   60.1147   30.3626   49.5673 H   0  0  0  0  0  0  0  0  0  0  0  0
   58.7538   28.5156   45.9006 H   0  0  0  0  0  0  0  0  0  0  0  0
  1  2  1  0
  2  3  2  0
  2  4  2  0
  2  5  1  0
  5  6  1  0
  6  7  1  0
  7  8  2  0
  7  9  1  0
  9 10  1  0
 10 11  2  0
 11 12  1  0
 12 13  2  0
 13 14  1  0
 13 15  1  0
 15 16  2  0
 16  5  1  0
 16 10  1  0
  1 17  1  0
  6 18  1  0
  6 19  1  0
  9 20  1  0
 11 21  1  0
 12 22  1  0
 15 23  1  0
M  CHG  1   1  -1
M  END
>  <UniqueID>  (86) 
83

>  <SMILES>  (86) 
[NH-]S(=O)(=O)N1CC(=O)Nc2ccc(Cl)cc21

>  <Energy>  (86) 
26.549003608424954

>  <Genealogy>  (86) 
[NH-]S(=O)(=O)N1CC(=O)Nc2ccc(Cl)cc21 (protonated)
[NH-]S(=O)(=O)N1CC(=O)Nc2ccc(Cl)cc21 (3D coordinates assigned)
[NH-]S(=O)(=O)N1CC(=O)Nc2ccc(Cl)cc21 (nonaromatic ring conformer: 26.549003608424954 kcal/mol)

>  <smiles>  (86) 
NS(=O)(=O)N1CC(=O)Nc2ccc(Cl)cc21

>  <score_type>  (86) 
oracle

>  <origin>  (86) 
adg

>  <m_score__min__energy>  (86) 
-8.9100000000000001

>  <m_primary>  (86) 
energy

$$$$
86:0
     RDKit          3D

 45 47  0  0  0  0  0  0  0  0999 V2000
   60.0720   30.7530   46.1920 H   0  0  0  0  0  0  0  0  0  0  0  0
   59.6840   30.4820   45.2990 O   0  0  0  0  0  0  0  0  0  0  0  0
   58.3110   30.4630   45.0560 C   0  0  0  0  0  0  0  0  0  0  0  0
   57.5870   31.5440   44.5890 C   0  0  0  0  0  0  0  0  0  0  0  0
   58.1290   32.8840   44.1960 C   0  0  0  0  0  0  0  0  0  0  0  0
   58.0104   33.0172   43.1106 H   0  0  0  0  0  0  0  0  0  0  0  0
   59.1928   32.9300   44.4723 H   0  0  0  0  0  0  0  0  0  0  0  0
   57.3850   34.0010   44.9220 C   0  0  0  0  0  0  0  0  0  0  0  0
   57.4798   33.8587   46.0086 H   0  0  0  0  0  0  0  0  0  0  0  0
   57.8170   34.9726   44.6404 H   0  0  0  0  0  0  0  0  0  0  0  0
   56.3219   33.9769   44.6404 H   0  0  0  0  0  0  0  0  0  0  0  0
   56.2780   31.1190   44.4530 C   0  0  0  0  0  0  0  0  0  0  0  0
   55.4217   31.7086   44.0937 H   0  0  0  0  0  0  0  0  0  0  0  0
   56.2700   29.8010   44.8620 C   0  0  0  0  0  0  0  0  0  0  0  0
   55.1440   28.9860   44.8740 O   0  0  0  0  0  0  0  0  0  0  0  0
   57.5020   29.3960   45.2390 N   0  0  0  0  0  0  0  0  0  0  0  0
   57.8750   28.0360   45.6380 C   0  0  0  0  0  0  0  0  0  0  0  0
   56.9637   27.4412   45.7982 H   0  0  0  0  0  0  0  0  0  0  0  0
   58.4838   27.5820   44.8422 H   0  0  0  0  0  0  0  0  0  0  0  0
   58.6770   28.0710   46.9120 C   0  0  0  0  0  0  0  0  0  0  0  0
   59.7780   27.2170   47.0740 C   0  0  0  0  0  0  0  0  0  0  0  0
   60.0356   26.4989   46.2816 H   0  0  0  0  0  0  0  0  0  0  0  0
   60.5480   27.2750   48.2370 C   0  0  0  0  0  0  0  0  0  0  0  0
   61.4066   26.5984   48.3597 H   0  0  0  0  0  0  0  0  0  0  0  0
   60.2330   28.1880   49.2450 C   0  0  0  0  0  0  0  0  0  0  0  0
   60.8440   28.2257   50.1589 H   0  0  0  0  0  0  0  0  0  0  0  0
   59.1390   29.0600   49.0990 C   0  0  0  0  0  0  0  0  0  0  0  0
   58.8020   30.0320   50.1670 C   0  0  0  0  0  0  0  0  0  0  0  0
   58.1040   29.6630   51.1500 O   0  0  0  0  0  0  0  0  0  0  0  0
   59.1950   31.4090   50.0300 N   0  0  0  0  0  0  0  0  0  0  0  0
   59.7300   32.0110   49.0050 C   0  0  0  0  0  0  0  0  0  0  0  0
   60.9660   31.6090   48.6000 N   0  0  0  0  0  0  0  0  0  0  0  0
   61.6190   32.1820   47.5520 C   0  0  0  0  0  0  0  0  0  0  0  0
   62.9650   31.6730   47.1450 C   0  0  0  0  0  0  0  0  0  0  0  0
   63.5590   31.4484   48.0432 H   0  0  0  0  0  0  0  0  0  0  0  0
   62.8453   30.7580   46.5462 H   0  0  0  0  0  0  0  0  0  0  0  0
   63.4807   32.4382   46.5462 H   0  0  0  0  0  0  0  0  0  0  0  0
   61.0120   33.2240   46.8440 C   0  0  0  0  0  0  0  0  0  0  0  0
   61.5212   33.6819   45.9831 H   0  0  0  0  0  0  0  0  0  0  0  0
   59.7550   33.6760   47.2410 C   0  0  0  0  0  0  0  0  0  0  0  0
   59.2719   34.5024   46.6991 H   0  0  0  0  0  0  0  0  0  0  0  0
   59.1080   33.0810   48.3260 C   0  0  0  0  0  0  0  0  0  0  0  0
   58.1210   33.4434   48.6492 H   0  0  0  0  0  0  0  0  0  0  0  0
   58.3660   28.9930   47.9240 C   0  0  0  0  0  0  0  0  0  0  0  0
   57.5088   29.6707   47.7976 H   0  0  0  0  0  0  0  0  0  0  0  0
  1  2  1  0
  2  3  1  0
  3  4  2  0
  4  5  1  0
  5  6  1  0
  5  7  1  0
  5  8  1  0
  8  9  1  0
  8 10  1  0
  8 11  1  0
  4 12  1  0
 12 13  1  0
 12 14  2  0
 14 15  1  0
 14 16  1  0
 16 17  1  0
 17 18  1  0
 17 19  1  0
 17 20  1  0
 20 21  2  0
 21 22  1  0
 21 23  1  0
 23 24  1  0
 23 25  2  0
 25 26  1  0
 25 27  1  0
 27 28  1  0
 28 29  2  0
 28 30  1  0
 30 31  2  0
 31 32  1  0
 32 33  1  0
 33 34  1  0
 34 35  1  0
 34 36  1  0
 34 37  1  0
 33 38  2  0
 38 39  1  0
 38 40  1  0
 40 41  1  0
 40 42  2  0
 42 43  1  0
 27 44  2  0
 44 45  1  0
 16  3  1  0
 44 20  1  0
 42 31  1  0
M  CHG  2  15  -1  32  -1
M  END
>  <UniqueID>  (87) 
84

>  <SMILES>  (87) 
CCc1cc([O-])n(Cc2cccc(C(=O)/N=c3\cccc(C)[n-]3)c2)c1O

>  <Energy>  (87) 
77.93943637449084

>  <Genealogy>  (87) 
CCc1cc([O-])n(Cc2cccc(C(=O)N=c3cccc(C)[n-]3)c2)c1O (protonated)
CCc1cc([O-])n(Cc2cccc(C(=O)/N=c3\cccc(C)[n-]3)c2)c1O (cis-trans isomerization)
CCc1cc([O-])n(Cc2cccc(C(=O)/N=c3\cccc(C)[n-]3)c2)c1O (3D coordinates assigned)
CCc1cc([O-])n(Cc2cccc(C(=O)/N=c3\cccc(C)[n-]3)c2)c1O (optimized conformer: 77.93943637449084 kcal/mol)

>  <smiles>  (87) 
CCc1cc(O)n(Cc2cccc(C(=O)N=c3cccc(C)[nH]3)c2)c1O

>  <score_type>  (87) 
oracle

>  <origin>  (87) 
adg

>  <m_score__min__energy>  (87) 
-13.31

>  <m_primary>  (87) 
energy

$$$$
87:0
     RDKit          3D

 47 50  0  0  0  0  0  0  0  0999 V2000
   60.1276   34.5686   49.1504 H   0  0  0  0  0  0  0  0  0  0  0  0
   60.0140   33.7280   48.4500 C   0  0  0  0  0  0  0  0  0  0  0  0
   60.5900   32.5640   48.7840 C   0  0  0  0  0  0  0  0  0  0  0  0
   61.6591   32.5841   49.0421 H   0  0  0  0  0  0  0  0  0  0  0  0
   59.9030   31.2560   48.8330 C   0  0  0  0  0  0  0  0  0  0  0  0
   59.8110   30.4590   49.9250 N   0  0  0  0  0  0  0  0  0  0  0  0
   59.1870   29.3320   49.5920 N   0  0  0  0  0  0  0  0  0  0  0  0
   58.8970   29.4110   48.2810 C   0  0  0  0  0  0  0  0  0  0  0  0
   58.2520   28.4620   47.4940 C   0  0  0  0  0  0  0  0  0  0  0  0
   57.8947   27.5162   47.9272 H   0  0  0  0  0  0  0  0  0  0  0  0
   58.0690   28.7480   46.1220 C   0  0  0  0  0  0  0  0  0  0  0  0
   57.3830   27.7960   45.2920 N   0  0  0  0  0  0  0  0  0  0  0  0
   56.9370   28.1490   44.4140 H   0  0  0  0  0  0  0  0  0  0  0  0
   57.2570   26.3970   45.5990 C   0  0  0  0  0  0  0  0  0  0  0  0
   58.3850   25.5590   45.6130 C   0  0  0  0  0  0  0  0  0  0  0  0
   59.3747   25.9695   45.3641 H   0  0  0  0  0  0  0  0  0  0  0  0
   58.2560   24.2090   45.9410 C   0  0  0  0  0  0  0  0  0  0  0  0
   59.1420   23.5571   45.9366 H   0  0  0  0  0  0  0  0  0  0  0  0
   57.0060   23.6820   46.2750 C   0  0  0  0  0  0  0  0  0  0  0  0
   56.9104   22.6157   46.5278 H   0  0  0  0  0  0  0  0  0  0  0  0
   55.8700   24.5100   46.2890 C   0  0  0  0  0  0  0  0  0  0  0  0
   54.5690   24.0100   46.6330 N   0  0  0  0  0  0  0  0  0  0  0  0
   53.4270   23.3000   45.5380 S   0  0  0  0  0  0  0  0  0  0  0  0
   54.1210   23.0210   44.2340 O   0  0  0  0  0  0  0  0  0  0  0  0
   52.9130   22.0040   46.0990 O   0  0  0  0  0  0  0  0  0  0  0  0
   52.0810   24.4270   45.2390 C   0  0  0  0  0  0  0  0  0  0  0  0
   51.6704   24.7708   46.1998 H   0  0  0  0  0  0  0  0  0  0  0  0
   52.4472   25.2918   44.6662 H   0  0  0  0  0  0  0  0  0  0  0  0
   51.2940   23.9145   44.6662 H   0  0  0  0  0  0  0  0  0  0  0  0
   56.0030   25.8680   45.9550 C   0  0  0  0  0  0  0  0  0  0  0  0
   54.8820   26.6910   45.9670 O   0  0  0  0  0  0  0  0  0  0  0  0
   58.5140   29.9950   45.6010 C   0  0  0  0  0  0  0  0  0  0  0  0
   58.3486   30.2302   44.5392 H   0  0  0  0  0  0  0  0  0  0  0  0
   59.1630   30.9310   46.4270 C   0  0  0  0  0  0  0  0  0  0  0  0
   59.5206   31.8919   46.0285 H   0  0  0  0  0  0  0  0  0  0  0  0
   59.3360   30.5960   47.7680 C   0  0  0  0  0  0  0  0  0  0  0  0
   59.2390   33.9710   47.2160 C   0  0  0  0  0  0  0  0  0  0  0  0
   57.8770   33.6280   47.1310 C   0  0  0  0  0  0  0  0  0  0  0  0
   57.3626   33.2044   48.0062 H   0  0  0  0  0  0  0  0  0  0  0  0
   57.1750   33.8240   45.9370 C   0  0  0  0  0  0  0  0  0  0  0  0
   56.1062   33.5700   45.8799 H   0  0  0  0  0  0  0  0  0  0  0  0
   57.8300   34.3420   44.8170 C   0  0  0  0  0  0  0  0  0  0  0  0
   57.2749   34.5028   43.8811 H   0  0  0  0  0  0  0  0  0  0  0  0
   59.1900   34.6560   44.8850 C   0  0  0  0  0  0  0  0  0  0  0  0
   59.7061   35.0563   43.9999 H   0  0  0  0  0  0  0  0  0  0  0  0
   59.8960   34.4620   46.0770 C   0  0  0  0  0  0  0  0  0  0  0  0
   60.9701   34.6951   46.1218 H   0  0  0  0  0  0  0  0  0  0  0  0
  1  2  1  0
  2  3  2  0
  3  4  1  0
  3  5  1  0
  5  6  1  0
  6  7  1  0
  7  8  2  0
  8  9  1  0
  9 10  1  0
  9 11  2  0
 11 12  1  0
 12 13  1  0
 12 14  1  0
 14 15  2  0
 15 16  1  0
 15 17  1  0
 17 18  1  0
 17 19  2  0
 19 20  1  0
 19 21  1  0
 21 22  1  0
 22 23  1  0
 23 24  2  0
 23 25  2  0
 23 26  1  0
 26 27  1  0
 26 28  1  0
 26 29  1  0
 21 30  2  0
 30 31  1  0
 11 32  1  0
 32 33  1  0
 32 34  2  0
 34 35  1  0
 34 36  1  0
  2 37  1  0
 37 38  2  0
 38 39  1  0
 38 40  1  0
 40 41  1  0
 40 42  2  0
 42 43  1  0
 42 44  1  0
 44 45  1  0
 44 46  2  0
 46 47  1  0
 36  5  2  0
 46 37  1  0
 36  8  1  0
 30 14  1  0
M  CHG  3   6  -1  22  -1  31  -1
M  END
>  <UniqueID>  (88) 
85

>  <SMILES>  (88) 
CS(=O)(=O)[N-]c1cccc(Nc2ccc3c(/C=C\c4ccccc4)[n-]nc3c2)c1[O-]

>  <Energy>  (88) 
102.57189499707535

>  <Genealogy>  (88) 
CS(=O)(=O)[N-]c1cccc(Nc2ccc3c(C=Cc4ccccc4)[n-]nc3c2)c1[O-] (protonated)
CS(=O)(=O)[N-]c1cccc(Nc2ccc3c(/C=C\c4ccccc4)[n-]nc3c2)c1[O-] (cis-trans isomerization)
CS(=O)(=O)[N-]c1cccc(Nc2ccc3c(/C=C\c4ccccc4)[n-]nc3c2)c1[O-] (3D coordinates assigned)
CS(=O)(=O)[N-]c1cccc(Nc2ccc3c(/C=C\c4ccccc4)[n-]nc3c2)c1[O-] (optimized conformer: 102.57189499707535 kcal/mol)

>  <smiles>  (88) 
CS(=O)(=O)Nc1cccc(Nc2ccc3c(C=Cc4ccccc4)[nH]nc3c2)c1O

>  <score_type>  (88) 
oracle

>  <origin>  (88) 
adg

>  <m_score__min__energy>  (88) 
-16.210000000000001

>  <m_primary>  (88) 
energy

$$$$
88:0
     RDKit          3D

 65 67  0  0  0  0  0  0  0  0999 V2000
   57.0130   21.3640   43.0440 C   0  0  0  0  0  0  0  0  0  0  0  0
   55.9420   22.2630   43.3110 O   0  0  0  0  0  0  0  0  0  0  0  0
   56.0700   23.4470   44.0530 C   0  0  0  0  0  0  0  0  0  0  0  0
   55.0780   23.8890   44.9480 C   0  0  0  0  0  0  0  0  0  0  0  0
   55.2510   25.0770   45.6630 C   0  0  0  0  0  0  0  0  0  0  0  0
   56.4100   25.8510   45.4840 C   0  0  0  0  0  0  0  0  0  0  0  0
   56.6230   27.0610   46.2310 N   0  0  0  0  0  0  0  0  0  0  0  0
   57.0260   28.3150   45.6580 C   0  0  0  0  0  0  0  0  0  0  0  0
   56.2040   29.0130   44.7690 C   0  0  0  0  0  0  0  0  0  0  0  0
   56.6650   30.2100   44.2210 C   0  0  0  0  0  0  0  0  0  0  0  0
   55.9140   30.8430   43.4280 O   0  0  0  0  0  0  0  0  0  0  0  0
   57.9130   30.6860   44.5380 N   0  0  0  0  0  0  0  0  0  0  0  0
   58.3960   31.9490   43.9360 C   0  0  0  0  0  0  0  0  0  0  0  0
   58.1260   33.1590   44.8610 C   0  0  2  0  0  0  0  0  0  0  0  0
   59.4270   33.9480   45.1490 C   0  0  0  0  0  0  0  0  0  0  0  0
   59.2880   34.7840   46.4290 C   0  0  0  0  0  0  0  0  0  0  0  0
   59.0220   33.9480   47.6350 N   0  0  2  0  0  0  0  0  0  0  0  0
   60.2290   33.7550   48.4200 C   0  0  0  0  0  0  0  0  0  0  0  0
   60.1610   33.2630   49.5390 O   0  0  0  0  0  0  0  0  0  0  0  0
   61.5750   34.1990   47.8970 C   0  0  0  0  0  0  0  0  0  0  0  0
   62.2700   33.1010   47.0840 C   0  0  0  0  0  0  0  0  0  0  0  0
   62.5580   31.8500   47.9250 C   0  0  0  0  0  0  0  0  0  0  0  0
   61.5200   30.8410   47.7190 N   0  0  0  0  0  0  0  0  0  0  0  0
   60.7390   30.2350   48.7680 C   0  0  0  0  0  0  0  0  0  0  0  0
   59.6890   29.3300   48.4140 N   0  0  0  0  0  0  0  0  0  0  0  0
   60.9750   30.4800   50.0230 N   0  0  0  0  0  0  0  0  0  0  0  0
   58.4120   32.6270   47.3390 C   0  0  0  0  0  0  0  0  0  0  0  0
   57.4220   32.7150   46.1710 C   0  0  0  0  0  0  0  0  0  0  0  0
   58.7080   29.9680   45.3980 C   0  0  0  0  0  0  0  0  0  0  0  0
   59.8600   30.3740   45.7080 O   0  0  0  0  0  0  0  0  0  0  0  0
   58.2610   28.8030   45.9340 N   0  0  0  0  0  0  0  0  0  0  0  0
   57.4050   25.3980   44.6080 C   0  0  0  0  0  0  0  0  0  0  0  0
   57.2320   24.2110   43.8920 C   0  0  0  0  0  0  0  0  0  0  0  0
   57.4378   21.0074   43.9939 H   0  0  0  0  0  0  0  0  0  0  0  0
   56.6369   20.5071   42.4659 H   0  0  0  0  0  0  0  0  0  0  0  0
   57.7918   21.8829   42.4659 H   0  0  0  0  0  0  0  0  0  0  0  0
   54.1617   23.2962   45.0854 H   0  0  0  0  0  0  0  0  0  0  0  0
   54.4758   25.4080   46.3697 H   0  0  0  0  0  0  0  0  0  0  0  0
   56.4670   27.0320   47.2640 H   0  0  0  0  0  0  0  0  0  0  0  0
   55.2092   28.6245   44.5056 H   0  0  0  0  0  0  0  0  0  0  0  0
   59.4787   31.8692   43.7591 H   0  0  0  0  0  0  0  0  0  0  0  0
   57.8551   32.1096   42.9918 H   0  0  0  0  0  0  0  0  0  0  0  0
   57.4418   33.8404   44.3342 H   0  0  0  0  0  0  0  0  0  0  0  0
   60.2590   33.2388   45.2705 H   0  0  0  0  0  0  0  0  0  0  0  0
   59.6210   34.6265   44.3052 H   0  0  0  0  0  0  0  0  0  0  0  0
   60.2218   35.3435   46.5873 H   0  0  0  0  0  0  0  0  0  0  0  0
   58.4287   35.4575   46.2949 H   0  0  0  0  0  0  0  0  0  0  0  0
   58.3340   34.4780   48.2210 H   0  0  0  0  0  0  0  0  0  0  0  0
   61.4323   35.0798   47.2537 H   0  0  0  0  0  0  0  0  0  0  0  0
   62.2128   34.4345   48.7617 H   0  0  0  0  0  0  0  0  0  0  0  0
   61.6210   32.8196   46.2416 H   0  0  0  0  0  0  0  0  0  0  0  0
   63.2329   33.5000   46.7323 H   0  0  0  0  0  0  0  0  0  0  0  0
   63.5318   31.4323   47.6298 H   0  0  0  0  0  0  0  0  0  0  0  0
   62.5716   32.1328   48.9879 H   0  0  0  0  0  0  0  0  0  0  0  0
   61.3520   30.5200   46.7390 H   0  0  0  0  0  0  0  0  0  0  0  0
   59.1080   28.8680   49.1480 H   0  0  0  0  0  0  0  0  0  0  0  0
   59.4830   29.1240   47.4110 H   0  0  0  0  0  0  0  0  0  0  0  0
   60.6640   31.3770   50.4570 H   0  0  0  0  0  0  0  0  0  0  0  0
   61.4720   29.8070   50.6440 H   0  0  0  0  0  0  0  0  0  0  0  0
   59.2093   31.9151   47.0791 H   0  0  0  0  0  0  0  0  0  0  0  0
   57.8640   32.2917   48.2319 H   0  0  0  0  0  0  0  0  0  0  0  0
   56.9655   31.7266   46.0141 H   0  0  0  0  0  0  0  0  0  0  0  0
   56.6569   33.4642   46.4227 H   0  0  0  0  0  0  0  0  0  0  0  0
   58.3292   25.9812   44.4830 H   0  0  0  0  0  0  0  0  0  0  0  0
   58.0147   23.8741   43.1964 H   0  0  0  0  0  0  0  0  0  0  0  0
  1  2  1  0
  2  3  1  0
  3  4  2  0
  4  5  1  0
  5  6  2  0
  6  7  1  0
  7  8  1  0
  8  9  2  0
  9 10  1  0
 10 11  2  0
 10 12  1  0
 12 13  1  0
 13 14  1  0
 14 15  1  0
 15 16  1  0
 16 17  1  0
 17 18  1  0
 18 19  2  0
 18 20  1  0
 20 21  1  0
 21 22  1  0
 22 23  1  0
 23 24  1  0
 24 25  1  0
 24 26  2  0
 17 27  1  0
 27 28  1  0
 12 29  1  0
 29 30  2  0
 29 31  1  0
  6 32  1  0
 32 33  2  0
 33  3  1  0
 31  8  1  0
 28 14  1  0
  1 34  1  0
  1 35  1  0
  1 36  1  0
  4 37  1  0
  5 38  1  0
  7 39  1  0
  9 40  1  0
 13 41  1  0
 13 42  1  0
 14 43  1  6
 15 44  1  0
 15 45  1  0
 16 46  1  0
 16 47  1  0
 17 48  1  1
 20 49  1  0
 20 50  1  0
 21 51  1  0
 21 52  1  0
 22 53  1  0
 22 54  1  0
 23 55  1  0
 25 56  1  0
 25 57  1  0
 26 58  1  0
 26 59  1  0
 27 60  1  0
 27 61  1  0
 28 62  1  0
 28 63  1  0
 32 64  1  0
 33 65  1  0
M  CHG  3  17   1  26   1  31  -1
M  END
>  <UniqueID>  (89) 
86

>  <SMILES>  (89) 
COc1ccc(Nc2cc(=O)n(CC3CC[NH+](C(=O)CCCNC(N)=[NH2+])CC3)c(=O)[n-]2)cc1

>  <Energy>  (89) 
73.84118364710064

>  <Genealogy>  (89) 
COc1ccc(Nc2cc(=O)n(CC3CC[NH+](C(=O)CCCNC(N)=[NH2+])CC3)c(=O)[n-]2)cc1 (protonated)
COc1ccc(Nc2cc(=O)n(CC3CC[NH+](C(=O)CCCNC(N)=[NH2+])CC3)c(=O)[n-]2)cc1 (3D coordinates assigned)
COc1ccc(Nc2cc(=O)n(CC3CC[NH+](C(=O)CCCNC(N)=[NH2+])CC3)c(=O)[n-]2)cc1 (nonaromatic ring conformer: 73.84118364710064 kcal/mol)

>  <smiles>  (89) 
COc1ccc(Nc2cc(=O)n(CC3CCN(C(=O)CCCNC(=N)N)CC3)c(=O)[nH]2)cc1

>  <score_type>  (89) 
oracle

>  <origin>  (89) 
adg

>  <m_score__min__energy>  (89) 
-8.5999999999999996

>  <m_primary>  (89) 
energy

$$$$
89:0
     RDKit          3D

 53 55  0  0  0  0  0  0  0  0999 V2000
   58.4227   33.7013   50.2614 H   0  0  0  0  0  0  0  0  0  0  0  0
   59.2120   32.9720   50.4960 C   0  0  0  0  0  0  0  0  0  0  0  0
   59.0377   31.8992   50.3262 H   0  0  0  0  0  0  0  0  0  0  0  0
   60.3820   33.3890   50.9870 C   0  0  0  0  0  0  0  0  0  0  0  0
   60.5406   34.4651   51.1510 H   0  0  0  0  0  0  0  0  0  0  0  0
   61.4930   32.4230   51.3230 C   0  0  0  0  0  0  0  0  0  0  0  0
   61.6587   32.4378   52.4104 H   0  0  0  0  0  0  0  0  0  0  0  0
   61.1879   31.4239   50.9784 H   0  0  0  0  0  0  0  0  0  0  0  0
   62.7640   32.7720   50.6410 N   0  0  0  0  0  0  0  0  0  0  0  0
   63.5200   32.8040   51.3660 H   0  0  0  0  0  0  0  0  0  0  0  0
   62.7030   34.1080   49.9880 C   0  0  0  0  0  0  0  0  0  0  0  0
   61.8997   34.6902   50.4631 H   0  0  0  0  0  0  0  0  0  0  0  0
   63.6914   34.5734   50.1161 H   0  0  0  0  0  0  0  0  0  0  0  0
   62.4280   34.0460   48.4730 C   0  0  0  0  0  0  0  0  0  0  0  0
   61.9427   34.9810   48.1565 H   0  0  0  0  0  0  0  0  0  0  0  0
   63.3850   33.9128   47.9472 H   0  0  0  0  0  0  0  0  0  0  0  0
   61.5470   32.9090   48.1440 N   0  0  0  0  0  0  0  0  0  0  0  0
   61.1810   32.9710   46.7100 C   0  0  0  0  0  0  0  0  0  0  0  0
   61.9705   33.5151   46.1708 H   0  0  0  0  0  0  0  0  0  0  0  0
   61.0762   31.9354   46.3541 H   0  0  0  0  0  0  0  0  0  0  0  0
   59.8360   33.6810   46.4570 C   0  0  0  0  0  0  0  0  0  0  0  0
   59.7287   34.4777   47.2079 H   0  0  0  0  0  0  0  0  0  0  0  0
   59.8816   34.0457   45.4202 H   0  0  0  0  0  0  0  0  0  0  0  0
   58.6060   32.8070   46.5300 C   0  0  0  0  0  0  0  0  0  0  0  0
   57.6240   33.2150   47.2070 O   0  0  0  0  0  0  0  0  0  0  0  0
   58.5070   31.5430   45.8480 N   0  0  0  0  0  0  0  0  0  0  0  0
   58.2140   31.3920   44.5380 C   0  0  0  0  0  0  0  0  0  0  0  0
   57.8120   32.5060   43.6160 C   0  0  0  0  0  0  0  0  0  0  0  0
   57.4975   33.3774   44.2091 H   0  0  0  0  0  0  0  0  0  0  0  0
   58.6667   32.7834   42.9816 H   0  0  0  0  0  0  0  0  0  0  0  0
   56.9771   32.1737   42.9816 H   0  0  0  0  0  0  0  0  0  0  0  0
   58.2030   30.0560   44.1950 C   0  0  0  0  0  0  0  0  0  0  0  0
   58.0080   29.6352   43.1976 H   0  0  0  0  0  0  0  0  0  0  0  0
   58.4860   29.3460   45.3540 C   0  0  0  0  0  0  0  0  0  0  0  0
   58.5360   28.0050   45.4720 C   0  0  0  0  0  0  0  0  0  0  0  0
   59.4959   27.5042   45.2775 H   0  0  0  0  0  0  0  0  0  0  0  0
   57.3820   27.1690   45.8460 C   0  0  0  0  0  0  0  0  0  0  0  0
   57.5010   25.9340   46.3650 N   0  0  0  0  0  0  0  0  0  0  0  0
   56.2230   25.5130   46.4730 C   0  0  0  0  0  0  0  0  0  0  0  0
   55.9180   24.3850   46.9390 O   0  0  0  0  0  0  0  0  0  0  0  0
   55.2980   26.3920   46.0310 N   0  0  0  0  0  0  0  0  0  0  0  0
   56.0470   27.4300   45.6270 C   0  0  0  0  0  0  0  0  0  0  0  0
   55.5210   28.5680   45.0250 O   0  0  0  0  0  0  0  0  0  0  0  0
   58.6260   30.2960   46.3710 C   0  0  0  0  0  0  0  0  0  0  0  0
   58.7720   30.0390   47.6810 C   0  0  0  0  0  0  0  0  0  0  0  0
   58.8742   30.8685   48.3962 H   0  0  0  0  0  0  0  0  0  0  0  0
   58.7894   28.9990   48.0389 H   0  0  0  0  0  0  0  0  0  0  0  0
   62.1950   31.6180   48.4800 C   0  0  0  0  0  0  0  0  0  0  0  0
   61.4107   30.8849   48.7197 H   0  0  0  0  0  0  0  0  0  0  0  0
   62.7911   31.3141   47.6069 H   0  0  0  0  0  0  0  0  0  0  0  0
   63.1600   31.7170   49.6840 C   0  0  0  0  0  0  0  0  0  0  0  0
   63.1699   30.7503   50.2087 H   0  0  0  0  0  0  0  0  0  0  0  0
   64.1556   31.9755   49.2943 H   0  0  0  0  0  0  0  0  0  0  0  0
  1  2  1  0
  2  3  1  0
  2  4  2  0
  4  5  1  0
  4  6  1  0
  6  7  1  0
  6  8  1  0
  6  9  1  0
  9 10  1  0
  9 11  1  0
 11 12  1  0
 11 13  1  0
 11 14  1  0
 14 15  1  0
 14 16  1  0
 14 17  1  0
 17 18  1  0
 18 19  1  0
 18 20  1  0
 18 21  1  0
 21 22  1  0
 21 23  1  0
 21 24  1  0
 24 25  2  0
 24 26  1  0
 26 27  1  0
 27 28  1  0
 28 29  1  0
 28 30  1  0
 28 31  1  0
 27 32  2  0
 32 33  1  0
 32 34  1  0
 34 35  2  0
 35 36  1  0
 35 37  1  0
 37 38  1  0
 38 39  1  0
 39 40  2  0
 39 41  1  0
 41 42  1  0
 42 43  1  0
 34 44  1  0
 44 45  2  0
 45 46  1  0
 45 47  1  0
 17 48  1  0
 48 49  1  0
 48 50  1  0
 48 51  1  0
 51 52  1  0
 51 53  1  0
 51  9  1  0
 44 26  1  0
 42 37  2  0
M  CHG  4   9   1  38  -1  41  -1  43  -1
M  END
>  <UniqueID>  (90) 
87

>  <SMILES>  (90) 
C=CC[NH+]1CCN(CCC(=O)n2c(C)c/c(=C\c3[n-]c(=O)[n-]c3[O-])c2=C)CC1

>  <Energy>  (90) 
130.79640078154608

>  <Genealogy>  (90) 
C=CC[NH+]1CCN(CCC(=O)n2c(C)cc(=Cc3[n-]c(=O)[n-]c3[O-])c2=C)CC1 (protonated)
C=CC[NH+]1CCN(CCC(=O)n2c(C)c/c(=C\c3[n-]c(=O)[n-]c3[O-])c2=C)CC1 (cis-trans isomerization)
C=CC[NH+]1CCN(CCC(=O)n2c(C)c/c(=C\c3[n-]c(=O)[n-]c3[O-])c2=C)CC1 (3D coordinates assigned)
C=CC[NH+]1CCN(CCC(=O)n2c(C)c/c(=C\c3[n-]c(=O)[n-]c3[O-])c2=C)CC1 (nonaromatic ring conformer: 130.79640078154608 kcal/mol)

>  <smiles>  (90) 
C=CCN1CCN(CCC(=O)n2c(C)cc(=Cc3[nH]c(=O)[nH]c3O)c2=C)CC1

>  <score_type>  (90) 
oracle

>  <origin>  (90) 
adg

>  <m_score__min__energy>  (90) 
-14.210000000000001

>  <m_primary>  (90) 
energy

$$$$
90:0
     RDKit          3D

 60 64  0  0  0  0  0  0  0  0999 V2000
   55.5210   30.4140   44.5080 O   0  0  0  0  0  0  0  0  0  0  0  0
   56.7650   30.8000   43.7600 S   0  0  0  0  0  0  0  0  0  0  0  0
   56.3930   31.1430   42.3450 O   0  0  0  0  0  0  0  0  0  0  0  0
   57.8610   29.4510   43.7500 N   0  0  0  0  0  0  0  0  0  0  0  0
   58.4250   28.8550   44.9320 C   0  0  0  0  0  0  0  0  0  0  0  0
   58.2200   27.4890   45.1760 C   0  0  0  0  0  0  0  0  0  0  0  0
   58.8000   26.8710   46.2860 C   0  0  0  0  0  0  0  0  0  0  0  0
   59.6040   27.6060   47.1630 C   0  0  0  0  0  0  0  0  0  0  0  0
   60.1730   26.9670   48.2590 O   0  0  0  0  0  0  0  0  0  0  0  0
   59.8130   28.9800   46.9410 C   0  0  0  0  0  0  0  0  0  0  0  0
   60.7160   29.7730   47.8080 C   0  0  0  0  0  0  0  0  0  0  0  0
   61.5160   30.8030   47.2630 C   0  0  0  0  0  0  0  0  0  0  0  0
   62.3020   31.6110   48.0970 C   0  0  0  0  0  0  0  0  0  0  0  0
   62.2580   31.3690   49.4660 C   0  0  0  0  0  0  0  0  0  0  0  0
   62.9250   32.0670   50.4080 N   0  0  0  0  0  0  0  0  0  0  0  0
   62.5500   31.4770   51.5670 C   0  0  0  0  0  0  0  0  0  0  0  0
   61.6690   30.4400   51.3040 C   0  0  0  0  0  0  0  0  0  0  0  0
   61.0070   29.5700   52.3310 C   0  0  0  0  0  0  0  0  0  0  0  0
   59.1870   29.6640   52.1770 S   0  0  0  0  0  0  0  0  0  0  0  0
   58.9310   31.1600   53.2030 C   0  0  0  0  0  0  0  0  0  0  0  0
   58.0090   32.1670   52.5090 C   0  0  0  0  0  0  0  0  0  0  0  0
   58.5640   32.6200   51.1830 C   0  0  0  0  0  0  0  0  0  0  0  0
   59.4820   33.6800   51.1280 C   0  0  0  0  0  0  0  0  0  0  0  0
   60.0370   34.0710   49.9060 C   0  0  0  0  0  0  0  0  0  0  0  0
   59.6770   33.4060   48.7290 C   0  0  0  0  0  0  0  0  0  0  0  0
   58.7620   32.3490   48.7760 C   0  0  0  0  0  0  0  0  0  0  0  0
   58.2080   31.9550   49.9970 C   0  0  0  0  0  0  0  0  0  0  0  0
   61.4940   30.3850   49.9710 N   0  0  0  0  0  0  0  0  0  0  0  0
   60.7260   29.5680   49.2000 C   0  0  0  0  0  0  0  0  0  0  0  0
   59.1900   29.6020   45.8460 C   0  0  0  0  0  0  0  0  0  0  0  0
   57.5130   32.2180   44.4930 C   0  0  0  0  0  0  0  0  0  0  0  0
   57.0510   32.6880   45.7310 C   0  0  0  0  0  0  0  0  0  0  0  0
   57.5940   33.8510   46.2870 C   0  0  0  0  0  0  0  0  0  0  0  0
   58.5980   34.5490   45.6090 C   0  0  0  0  0  0  0  0  0  0  0  0
   59.0660   34.0820   44.3780 C   0  0  0  0  0  0  0  0  0  0  0  0
   58.5280   32.9170   43.8220 C   0  0  0  0  0  0  0  0  0  0  0  0
   58.2120   29.1410   42.8160 H   0  0  0  0  0  0  0  0  0  0  0  0
   57.5971   26.8995   44.4872 H   0  0  0  0  0  0  0  0  0  0  0  0
   58.6236   25.8012   46.4713 H   0  0  0  0  0  0  0  0  0  0  0  0
   61.5220   30.9720   46.1761 H   0  0  0  0  0  0  0  0  0  0  0  0
   62.9331   32.4106   47.6819 H   0  0  0  0  0  0  0  0  0  0  0  0
   62.8933   31.7760   52.5684 H   0  0  0  0  0  0  0  0  0  0  0  0
   61.3290   28.5285   52.1843 H   0  0  0  0  0  0  0  0  0  0  0  0
   61.2968   29.9202   53.3327 H   0  0  0  0  0  0  0  0  0  0  0  0
   58.4791   30.8631   54.1609 H   0  0  0  0  0  0  0  0  0  0  0  0
   59.9079   31.6400   53.3622 H   0  0  0  0  0  0  0  0  0  0  0  0
   57.0296   31.6950   52.3415 H   0  0  0  0  0  0  0  0  0  0  0  0
   57.9193   33.0497   53.1592 H   0  0  0  0  0  0  0  0  0  0  0  0
   59.7663   34.2060   52.0513 H   0  0  0  0  0  0  0  0  0  0  0  0
   60.7570   34.9018   49.8699 H   0  0  0  0  0  0  0  0  0  0  0  0
   60.1131   33.7141   47.7673 H   0  0  0  0  0  0  0  0  0  0  0  0
   58.4780   31.8270   47.8503 H   0  0  0  0  0  0  0  0  0  0  0  0
   57.4909   31.1216   50.0300 H   0  0  0  0  0  0  0  0  0  0  0  0
   60.1266   28.7655   49.6547 H   0  0  0  0  0  0  0  0  0  0  0  0
   59.3019   30.6867   45.7017 H   0  0  0  0  0  0  0  0  0  0  0  0
   56.2603   32.1412   46.2656 H   0  0  0  0  0  0  0  0  0  0  0  0
   57.2307   34.2168   47.2587 H   0  0  0  0  0  0  0  0  0  0  0  0
   59.0198   35.4666   46.0450 H   0  0  0  0  0  0  0  0  0  0  0  0
   59.8574   34.6306   43.8463 H   0  0  0  0  0  0  0  0  0  0  0  0
   58.9017   32.5475   42.8557 H   0  0  0  0  0  0  0  0  0  0  0  0
  1  2  2  0
  2  3  2  0
  2  4  1  0
  4  5  1  0
  5  6  2  0
  6  7  1  0
  7  8  2  0
  8  9  1  0
  8 10  1  0
 10 11  1  0
 11 12  1  0
 12 13  2  0
 13 14  1  0
 14 15  2  0
 15 16  1  0
 16 17  2  0
 17 18  1  0
 18 19  1  0
 19 20  1  0
 20 21  1  0
 21 22  1  0
 22 23  2  0
 23 24  1  0
 24 25  2  0
 25 26  1  0
 26 27  2  0
 17 28  1  0
 28 29  1  0
 10 30  2  0
  2 31  1  0
 31 32  2  0
 32 33  1  0
 33 34  2  0
 34 35  1  0
 35 36  2  0
 30  5  1  0
 36 31  1  0
 29 11  2  0
 28 14  1  0
 27 22  1  0
  4 37  1  0
  6 38  1  0
  7 39  1  0
 12 40  1  0
 13 41  1  0
 16 42  1  0
 18 43  1  0
 18 44  1  0
 20 45  1  0
 20 46  1  0
 21 47  1  0
 21 48  1  0
 23 49  1  0
 24 50  1  0
 25 51  1  0
 26 52  1  0
 27 53  1  0
 29 54  1  0
 30 55  1  0
 32 56  1  0
 33 57  1  0
 34 58  1  0
 35 59  1  0
 36 60  1  0
M  CHG  1   9  -1
M  END
>  <UniqueID>  (91) 
88

>  <SMILES>  (91) 
O=S(=O)(Nc1ccc([O-])c(-c2ccc3ncc(CSCCc4ccccc4)n3c2)c1)c1ccccc1

>  <Energy>  (91) 
99.94416132233323

>  <Genealogy>  (91) 
O=S(=O)(Nc1ccc([O-])c(-c2ccc3ncc(CSCCc4ccccc4)n3c2)c1)c1ccccc1 (protonated)
O=S(=O)(Nc1ccc([O-])c(-c2ccc3ncc(CSCCc4ccccc4)n3c2)c1)c1ccccc1 (3D coordinates assigned)
O=S(=O)(Nc1ccc([O-])c(-c2ccc3ncc(CSCCc4ccccc4)n3c2)c1)c1ccccc1 (optimized conformer: 99.94416132233323 kcal/mol)

>  <smiles>  (91) 
O=S(=O)(Nc1ccc(O)c(-c2ccc3ncc(CSCCc4ccccc4)n3c2)c1)c1ccccc1

>  <score_type>  (91) 
oracle

>  <origin>  (91) 
adg

>  <m_score__min__energy>  (91) 
-12.23

>  <m_primary>  (91) 
energy

$$$$
