0:0
     RDKit          3D

 39 41  0  0  1  0  0  0  0  0999 V2000
   56.4870   29.8590   42.6450 N   0  0  0  0  0  0  0  0  0  0  0  0
   56.4580   29.8690   44.3510 S   0  0  0  0  0  0  0  0  0  0  0  0
   55.1400   29.3400   44.8660 O   0  0  0  0  0  0  0  0  0  0  0  0
   56.7030   31.2570   44.8580 O   0  0  0  0  0  0  0  0  0  0  0  0
   57.6990   28.8110   45.0200 C   0  0  0  0  0  0  0  0  0  0  0  0
   57.8880   27.5390   44.5030 C   0  0  0  0  0  0  0  0  0  0  0  0
   58.8590   26.7060   45.0230 C   0  0  0  0  0  0  0  0  0  0  0  0
   57.4810   33.4790   47.0770 C   0  0  0  0  0  0  0  0  0  0  0  0
   58.7810   33.4750   47.5380 C   0  0  0  0  0  0  0  0  0  0  0  0
   60.2830   28.8570   47.6650 N   0  0  0  0  0  0  0  0  0  0  0  0
   59.8300   29.6850   48.5490 C   0  0  0  0  0  0  0  0  0  0  0  0
   59.5010   29.2240   49.7710 N   0  0  0  0  0  0  0  0  0  0  0  0
   59.0310   30.0990   50.6800 C   0  0  0  0  0  0  0  0  0  0  0  0
   58.8780   31.4420   50.4000 C   0  0  0  0  0  0  0  0  0  0  0  0
   58.2150   32.6740   51.6860 Br  0  0  0  0  0  0  0  0  0  0  0  0
   59.2310   31.8650   49.1310 C   0  0  0  0  0  0  0  0  0  0  0  0
   59.0820   33.1230   48.8850 N   0  0  0  0  0  0  0  0  0  0  0  0
   59.4890   28.3640   46.5860 C   0  0  0  0  0  0  0  0  0  0  0  0
   59.6680   27.0950   46.0610 C   0  0  0  0  0  0  0  0  0  0  0  0
   57.2770   33.8350   45.7540 C   0  0  0  0  0  0  0  0  0  0  0  0
   58.3400   34.1780   44.9150 C   0  0  0  0  0  0  0  0  0  0  0  0
   59.6110   34.1590   45.4190 C   0  0  0  0  0  0  0  0  0  0  0  0
   59.8520   33.8100   46.7330 C   0  0  0  0  0  0  0  0  0  0  0  0
   61.5060   33.8030   47.3330 Cl  0  0  0  0  0  0  0  0  0  0  0  0
   59.6990   30.9820   48.2310 N   0  0  0  0  0  0  0  0  0  0  0  0
   58.5100   29.2110   46.0650 C   0  0  0  0  0  0  0  0  0  0  0  0
   57.3920   29.5910   42.2180 H   0  0  0  0  0  0  0  0  0  0  0  0
   55.6800   29.3690   42.2220 H   0  0  0  0  0  0  0  0  0  0  0  0
   57.2589   27.1898   43.6710 H   0  0  0  0  0  0  0  0  0  0  0  0
   58.9877   25.7018   44.5928 H   0  0  0  0  0  0  0  0  0  0  0  0
   56.6402   33.2103   47.7335 H   0  0  0  0  0  0  0  0  0  0  0  0
   59.6270   28.2150   49.9480 H   0  0  0  0  0  0  0  0  0  0  0  0
   58.7595   29.7309   51.6804 H   0  0  0  0  0  0  0  0  0  0  0  0
   60.4361   26.4187   46.4642 H   0  0  0  0  0  0  0  0  0  0  0  0
   56.2524   33.8479   45.3540 H   0  0  0  0  0  0  0  0  0  0  0  0
   58.1577   34.4585   43.8671 H   0  0  0  0  0  0  0  0  0  0  0  0
   60.4555   34.4262   44.7668 H   0  0  0  0  0  0  0  0  0  0  0  0
   59.9610   31.2920   47.2910 H   0  0  0  0  0  0  0  0  0  0  0  0
   58.3814   30.2157   46.4941 H   0  0  0  0  0  0  0  0  0  0  0  0
  1  2  1  0
  2  3  2  0
  2  4  2  0
  2  5  1  0
  5  6  2  0
  6  7  1  0
  7  8  2  0
  8  9  1  0
  9 10  1  0
 10 11  2  0
 11 12  1  0
 12 13  1  0
 13 14  2  0
 14 15  1  0
 14 16  1  0
 16 17  2  0
 17 18  1  0
 18 19  2  0
 19 20  1  0
 20 21  2  0
 21 22  1  0
 22 23  2  0
 23 24  1  0
 16 25  1  0
  9 26  2  0
 26  5  1  0
 25 11  1  0
 23 18  1  0
  1 27  1  0
  1 28  1  0
  6 29  1  0
  7 30  1  0
  8 31  1  0
 12 32  1  0
 13 33  1  0
 19 34  1  0
 20 35  1  0
 21 36  1  0
 22 37  1  0
 25 38  1  0
 26 39  1  0
M  END
>  <smiles>  (1) 
NS(=O)(=O)c1cccc(N=c2[nH]cc(Br)c(=Nc3ccccc3Cl)[nH]2)c1

>  <score_type>  (1) 
oracle

>  <origin>  (1) 
adg

>  <m_score__min__energy>  (1) 
-9.5999999999999996

>  <m_primary>  (1) 
energy

$$$$
1:0
     RDKit          3D

 47 48  0  0  0  0  0  0  0  0999 V2000
   57.0230   33.9480   45.2410 C   0  0  0  0  0  0  0  0  0  0  0  0
   58.3750   33.6930   45.8380 C   0  0  0  0  0  0  0  0  0  0  0  0
   59.3120   34.7270   45.9380 C   0  0  0  0  0  0  0  0  0  0  0  0
   60.5560   34.4950   46.5220 C   0  0  0  0  0  0  0  0  0  0  0  0
   60.8950   33.2250   47.0230 C   0  0  0  0  0  0  0  0  0  0  0  0
   62.2630   33.0380   47.6680 C   0  0  0  0  0  0  0  0  0  0  0  0
   63.3970   33.4830   46.7360 C   0  0  0  0  0  0  0  0  0  0  0  0
   62.3560   33.7260   49.0340 C   0  0  0  0  0  0  0  0  0  0  0  0
   59.9500   32.1730   46.9270 C   0  0  0  0  0  0  0  0  0  0  0  0
   60.2950   30.8950   47.3960 O   0  0  0  0  0  0  0  0  0  0  0  0
   59.4060   29.9850   48.0410 C   0  0  0  0  0  0  0  0  0  0  0  0
   59.8980   28.5500   47.8420 C   0  0  0  0  0  0  0  0  0  0  0  0
   60.3760   28.3490   46.5210 O   0  0  0  0  0  0  0  0  0  0  0  0
   59.5140   27.5160   45.7660 C   0  0  0  0  0  0  0  0  0  0  0  0
   58.3420   28.2690   45.2900 N   0  0  0  0  0  0  0  0  0  0  0  0
   58.5420   29.3600   44.4930 C   0  0  0  0  0  0  0  0  0  0  0  0
   57.4620   30.1400   44.0760 C   0  0  0  0  0  0  0  0  0  0  0  0
   57.6780   31.3820   43.2600 C   0  0  0  0  0  0  0  0  0  0  0  0
   56.1860   29.7530   44.5030 C   0  0  0  0  0  0  0  0  0  0  0  0
   55.1720   30.4290   44.1830 O   0  0  0  0  0  0  0  0  0  0  0  0
   56.0350   28.6680   45.2500 O   0  0  0  0  0  0  0  0  0  0  0  0
   57.0620   27.9250   45.6440 C   0  0  0  0  0  0  0  0  0  0  0  0
   56.8410   26.9130   46.3610 O   0  0  0  0  0  0  0  0  0  0  0  0
   58.6880   32.4290   46.3520 C   0  0  0  0  0  0  0  0  0  0  0  0
   56.2868   34.0869   46.0464 H   0  0  0  0  0  0  0  0  0  0  0  0
   57.0618   34.8547   44.6194 H   0  0  0  0  0  0  0  0  0  0  0  0
   56.7288   33.0895   44.6194 H   0  0  0  0  0  0  0  0  0  0  0  0
   59.0657   35.7279   45.5539 H   0  0  0  0  0  0  0  0  0  0  0  0
   61.2835   35.3171   46.5922 H   0  0  0  0  0  0  0  0  0  0  0  0
   62.3853   31.9588   47.8426 H   0  0  0  0  0  0  0  0  0  0  0  0
   64.2547   33.8196   47.3369 H   0  0  0  0  0  0  0  0  0  0  0  0
   63.7029   32.6382   46.1014 H   0  0  0  0  0  0  0  0  0  0  0  0
   63.0467   34.3104   46.1014 H   0  0  0  0  0  0  0  0  0  0  0  0
   62.2544   32.9744   49.8308 H   0  0  0  0  0  0  0  0  0  0  0  0
   63.3302   34.2284   49.1259 H   0  0  0  0  0  0  0  0  0  0  0  0
   61.5501   34.4690   49.1259 H   0  0  0  0  0  0  0  0  0  0  0  0
   59.3682   30.2121   49.1166 H   0  0  0  0  0  0  0  0  0  0  0  0
   58.4015   30.0881   47.6046 H   0  0  0  0  0  0  0  0  0  0  0  0
   60.7129   28.3485   48.5528 H   0  0  0  0  0  0  0  0  0  0  0  0
   59.0541   27.8658   48.0145 H   0  0  0  0  0  0  0  0  0  0  0  0
   60.0637   27.1194   44.8997 H   0  0  0  0  0  0  0  0  0  0  0  0
   59.1668   26.6938   46.4090 H   0  0  0  0  0  0  0  0  0  0  0  0
   59.5616   29.6260   44.1774 H   0  0  0  0  0  0  0  0  0  0  0  0
   57.8273   32.2405   43.9314 H   0  0  0  0  0  0  0  0  0  0  0  0
   58.5673   31.2538   42.6254 H   0  0  0  0  0  0  0  0  0  0  0  0
   56.7976   31.5615   42.6254 H   0  0  0  0  0  0  0  0  0  0  0  0
   57.9393   31.6244   46.3067 H   0  0  0  0  0  0  0  0  0  0  0  0
  1  2  1  0
  2  3  2  0
  3  4  1  0
  4  5  2  0
  5  6  1  0
  6  7  1  0
  6  8  1  0
  5  9  1  0
  9 10  1  0
 10 11  1  0
 11 12  1  0
 12 13  1  0
 13 14  1  0
 14 15  1  0
 15 16  1  0
 16 17  2  0
 17 18  1  0
 17 19  1  0
 19 20  2  0
 19 21  1  0
 21 22  1  0
 22 23  2  0
  9 24  2  0
 24  2  1  0
 22 15  1  0
  1 25  1  0
  1 26  1  0
  1 27  1  0
  3 28  1  0
  4 29  1  0
  6 30  1  0
  7 31  1  0
  7 32  1  0
  7 33  1  0
  8 34  1  0
  8 35  1  0
  8 36  1  0
 11 37  1  0
 11 38  1  0
 12 39  1  0
 12 40  1  0
 14 41  1  0
 14 42  1  0
 16 43  1  0
 18 44  1  0
 18 45  1  0
 18 46  1  0
 24 47  1  0
M  END
>  <UniqueID>  (2) 
1

>  <SMILES>  (2) 
Cc1ccc(C(C)C)c(OCCOCn2cc(C)c(=O)oc2=O)c1

>  <Energy>  (2) 
44.01075898548304

>  <Genealogy>  (2) 
Cc1ccc(C(C)C)c(OCCOCn2cc(C)c(=O)oc2=O)c1 (3D coordinates assigned)
Cc1ccc(C(C)C)c(OCCOCn2cc(C)c(=O)oc2=O)c1 (optimized conformer: 44.01075898548304 kcal/mol)

>  <smiles>  (2) 
Cc1ccc(C(C)C)c(OCCOCn2cc(C)c(=O)oc2=O)c1

>  <score_type>  (2) 
oracle

>  <origin>  (2) 
adg

>  <m_score__min__energy>  (2) 
-8.25

>  <m_primary>  (2) 
energy

$$$$
2:0
     RDKit          3D

 44 46  0  0  0  0  0  0  0  0999 V2000
   60.1279   35.7135   46.2946 H   0  0  0  0  0  0  0  0  0  0  0  0
   59.4810   34.8250   46.3400 C   0  0  0  0  0  0  0  0  0  0  0  0
   59.2030   34.2280   47.5720 C   0  0  0  0  0  0  0  0  0  0  0  0
   59.6290   34.6535   48.4926 H   0  0  0  0  0  0  0  0  0  0  0  0
   58.3870   33.0930   47.6450 C   0  0  0  0  0  0  0  0  0  0  0  0
   58.1630   32.5100   48.9010 O   0  0  0  0  0  0  0  0  0  0  0  0
   59.0940   32.5440   49.9780 C   0  0  0  0  0  0  0  0  0  0  0  0
   58.5499   32.5241   50.9338 H   0  0  0  0  0  0  0  0  0  0  0  0
   59.7584   31.6695   49.9161 H   0  0  0  0  0  0  0  0  0  0  0  0
   59.6929   33.4646   49.9161 H   0  0  0  0  0  0  0  0  0  0  0  0
   57.8300   32.5700   46.4610 C   0  0  0  0  0  0  0  0  0  0  0  0
   57.1782   31.6852   46.5082 H   0  0  0  0  0  0  0  0  0  0  0  0
   58.1020   33.1720   45.2190 C   0  0  0  0  0  0  0  0  0  0  0  0
   57.5440   32.5770   43.9550 C   0  0  0  0  0  0  0  0  0  0  0  0
   56.6740   33.1658   43.6288 H   0  0  0  0  0  0  0  0  0  0  0  0
   58.3203   32.5935   43.1758 H   0  0  0  0  0  0  0  0  0  0  0  0
   57.1220   31.1630   44.1960 C   0  0  0  0  0  0  0  0  0  0  0  0
   55.8870   30.8180   44.6230 N   0  0  0  0  0  0  0  0  0  0  0  0
   55.7590   29.5140   44.8590 N   0  0  0  0  0  0  0  0  0  0  0  0
   56.8940   28.8200   44.6220 C   0  0  0  0  0  0  0  0  0  0  0  0
   57.0420   27.5490   44.8500 N   0  0  0  0  0  0  0  0  0  0  0  0
   56.4790   26.7850   45.9280 C   0  0  0  0  0  0  0  0  0  0  0  0
   55.2260   26.6840   45.9970 O   0  0  0  0  0  0  0  0  0  0  0  0
   57.3050   26.2370   47.0600 C   0  0  0  0  0  0  0  0  0  0  0  0
   57.3617   26.9891   47.8607 H   0  0  0  0  0  0  0  0  0  0  0  0
   56.8278   25.3169   47.4283 H   0  0  0  0  0  0  0  0  0  0  0  0
   58.9980   25.8310   46.5000 S   0  0  0  0  0  0  0  0  0  0  0  0
   59.6390   27.4970   46.6820 C   0  0  0  0  0  0  0  0  0  0  0  0
   60.3900   28.0730   45.6510 C   0  0  0  0  0  0  0  0  0  0  0  0
   60.5889   27.5016   44.7324 H   0  0  0  0  0  0  0  0  0  0  0  0
   60.8880   29.3720   45.7850 C   0  0  0  0  0  0  0  0  0  0  0  0
   61.4911   29.8132   44.9778 H   0  0  0  0  0  0  0  0  0  0  0  0
   60.6220   30.1160   46.9450 C   0  0  0  0  0  0  0  0  0  0  0  0
   61.1880   31.4930   47.1100 C   0  0  0  0  0  0  0  0  0  0  0  0
   61.2831   31.7244   48.1812 H   0  0  0  0  0  0  0  0  0  0  0  0
   62.1790   31.5415   46.6350 H   0  0  0  0  0  0  0  0  0  0  0  0
   60.5176   32.2244   46.6350 H   0  0  0  0  0  0  0  0  0  0  0  0
   59.8750   29.5320   47.9830 C   0  0  0  0  0  0  0  0  0  0  0  0
   59.6813   30.0991   48.9055 H   0  0  0  0  0  0  0  0  0  0  0  0
   59.3770   28.2310   47.8460 C   0  0  0  0  0  0  0  0  0  0  0  0
   58.7788   27.7842   48.6538 H   0  0  0  0  0  0  0  0  0  0  0  0
   58.1430   29.8220   44.1100 S   0  0  0  0  0  0  0  0  0  0  0  0
   58.9400   34.2970   45.1660 C   0  0  0  0  0  0  0  0  0  0  0  0
   59.1710   34.7638   44.1971 H   0  0  0  0  0  0  0  0  0  0  0  0
  1  2  1  0
  2  3  2  0
  3  4  1  0
  3  5  1  0
  5  6  1  0
  6  7  1  0
  7  8  1  0
  7  9  1  0
  7 10  1  0
  5 11  2  0
 11 12  1  0
 11 13  1  0
 13 14  1  0
 14 15  1  0
 14 16  1  0
 14 17  1  0
 17 18  2  0
 18 19  1  0
 19 20  1  0
 20 21  2  0
 21 22  1  0
 22 23  2  0
 22 24  1  0
 24 25  1  0
 24 26  1  0
 24 27  1  0
 27 28  1  0
 28 29  2  0
 29 30  1  0
 29 31  1  0
 31 32  1  0
 31 33  2  0
 33 34  1  0
 34 35  1  0
 34 36  1  0
 34 37  1  0
 33 38  1  0
 38 39  1  0
 38 40  2  0
 40 41  1  0
 20 42  1  0
 13 43  2  0
 43 44  1  0
 43  2  1  0
 42 17  1  0
 40 28  1  0
M  CHG  1  19  -1
M  END
>  <UniqueID>  (3) 
2

>  <SMILES>  (3) 
COc1cccc(Cc2n[n-]/c(=N\C(=O)CSc3ccc(C)cc3)s2)c1

>  <Energy>  (3) 
74.91140156932735

>  <Genealogy>  (3) 
COc1cccc(Cc2n[n-]c(=NC(=O)CSc3ccc(C)cc3)s2)c1 (protonated)
COc1cccc(Cc2n[n-]/c(=N\C(=O)CSc3ccc(C)cc3)s2)c1 (cis-trans isomerization)
COc1cccc(Cc2n[n-]/c(=N\C(=O)CSc3ccc(C)cc3)s2)c1 (3D coordinates assigned)
COc1cccc(Cc2n[n-]/c(=N\C(=O)CSc3ccc(C)cc3)s2)c1 (optimized conformer: 74.91140156932735 kcal/mol)

>  <smiles>  (3) 
COc1cccc(Cc2n[nH]c(=NC(=O)CSc3ccc(C)cc3)s2)c1

>  <score_type>  (3) 
oracle

>  <origin>  (3) 
adg

>  <m_score__min__energy>  (3) 
-10.65

>  <m_primary>  (3) 
energy

$$$$
3:0
     RDKit          3D

 60 62  0  0  0  0  0  0  0  0999 V2000
   54.4610   23.7800   44.6040 C   0  0  0  0  0  0  0  0  0  0  0  0
   55.2590   23.9970   45.7640 O   0  0  0  0  0  0  0  0  0  0  0  0
   56.3450   24.8840   45.8250 C   0  0  0  0  0  0  0  0  0  0  0  0
   57.6780   24.4490   45.6960 C   0  0  0  0  0  0  0  0  0  0  0  0
   58.7300   25.3630   45.7840 C   0  0  0  0  0  0  0  0  0  0  0  0
   58.4730   26.7230   46.0170 C   0  0  0  0  0  0  0  0  0  0  0  0
   59.6130   27.6920   46.2030 C   0  0  0  0  0  0  0  0  0  0  0  0
   59.6710   28.2470   47.6130 C   0  0  0  0  0  0  0  0  0  0  0  0
   60.4520   27.5580   48.5600 C   0  0  0  0  0  0  0  0  0  0  0  0
   60.5990   28.0460   49.8580 C   0  0  0  0  0  0  0  0  0  0  0  0
   59.9870   29.2400   50.2290 C   0  0  0  0  0  0  0  0  0  0  0  0
   59.2200   29.9490   49.3040 C   0  0  0  0  0  0  0  0  0  0  0  0
   59.0400   29.4660   47.9940 C   0  0  0  0  0  0  0  0  0  0  0  0
   58.1570   30.2580   47.0540 C   0  0  0  0  0  0  0  0  0  0  0  0
   58.9020   31.3810   46.4460 N   0  0  0  0  0  0  0  0  0  0  0  0
   59.1940   32.4520   47.4270 C   0  0  0  0  0  0  0  0  0  0  0  0
   60.6690   32.7500   47.3980 C   0  0  0  0  0  0  0  0  0  0  0  0
   61.4870   32.3870   48.4810 C   0  0  0  0  0  0  0  0  0  0  0  0
   62.8300   32.7650   48.4850 C   0  0  0  0  0  0  0  0  0  0  0  0
   63.3480   33.4970   47.4170 C   0  0  0  0  0  0  0  0  0  0  0  0
   62.5120   33.8370   46.3520 C   0  0  0  0  0  0  0  0  0  0  0  0
   61.2030   33.4620   46.3620 N   0  0  0  0  0  0  0  0  0  0  0  0
   58.0710   32.0120   45.0310 S   0  0  0  0  0  0  0  0  0  0  0  0
   56.6200   32.2520   45.3440 O   0  0  0  0  0  0  0  0  0  0  0  0
   58.6820   33.3200   44.6090 O   0  0  0  0  0  0  0  0  0  0  0  0
   58.1880   30.8380   43.6730 C   0  0  0  0  0  0  0  0  0  0  0  0
   57.3820   29.5530   43.9210 C   0  0  0  0  0  0  0  0  0  0  0  0
   55.8830   29.7390   43.6560 C   0  0  0  0  0  0  0  0  0  0  0  0
   55.1580   29.6750   44.8550 O   0  0  0  0  0  0  0  0  0  0  0  0
   57.1450   27.1600   46.1240 C   0  0  0  0  0  0  0  0  0  0  0  0
   56.0890   26.2460   46.0310 C   0  0  0  0  0  0  0  0  0  0  0  0
   54.7820   26.6950   46.1630 O   0  0  0  0  0  0  0  0  0  0  0  0
   53.4407   23.5026   44.9075 H   0  0  0  0  0  0  0  0  0  0  0  0
   54.4274   24.7016   44.0044 H   0  0  0  0  0  0  0  0  0  0  0  0
   54.8987   22.9683   44.0044 H   0  0  0  0  0  0  0  0  0  0  0  0
   57.8917   23.3836   45.5250 H   0  0  0  0  0  0  0  0  0  0  0  0
   59.7672   25.0148   45.6699 H   0  0  0  0  0  0  0  0  0  0  0  0
   60.5582   27.1719   45.9882 H   0  0  0  0  0  0  0  0  0  0  0  0
   59.4539   28.5355   45.5151 H   0  0  0  0  0  0  0  0  0  0  0  0
   60.9531   26.6220   48.2722 H   0  0  0  0  0  0  0  0  0  0  0  0
   61.1997   27.4864   50.5901 H   0  0  0  0  0  0  0  0  0  0  0  0
   60.1082   29.6248   51.2523 H   0  0  0  0  0  0  0  0  0  0  0  0
   58.7498   30.8977   49.6022 H   0  0  0  0  0  0  0  0  0  0  0  0
   57.7940   29.5934   46.2561 H   0  0  0  0  0  0  0  0  0  0  0  0
   57.3131   30.6679   47.6284 H   0  0  0  0  0  0  0  0  0  0  0  0
   58.6289   33.3582   47.1636 H   0  0  0  0  0  0  0  0  0  0  0  0
   58.8994   32.1248   48.4350 H   0  0  0  0  0  0  0  0  0  0  0  0
   61.0716   31.8090   49.3197 H   0  0  0  0  0  0  0  0  0  0  0  0
   63.4787   32.4863   49.3285 H   0  0  0  0  0  0  0  0  0  0  0  0
   64.4045   33.8033   47.4138 H   0  0  0  0  0  0  0  0  0  0  0  0
   62.9119   34.4096   45.5022 H   0  0  0  0  0  0  0  0  0  0  0  0
   60.5990   33.7410   45.5550 H   0  0  0  0  0  0  0  0  0  0  0  0
   57.8086   31.3193   42.7595 H   0  0  0  0  0  0  0  0  0  0  0  0
   59.2453   30.5505   43.5759 H   0  0  0  0  0  0  0  0  0  0  0  0
   57.7625   28.7641   43.2556 H   0  0  0  0  0  0  0  0  0  0  0  0
   57.5028   29.2821   44.9803 H   0  0  0  0  0  0  0  0  0  0  0  0
   55.7180   30.7196   43.1857 H   0  0  0  0  0  0  0  0  0  0  0  0
   55.5382   28.9345   42.9897 H   0  0  0  0  0  0  0  0  0  0  0  0
   55.1760   30.5870   45.2480 H   0  0  0  0  0  0  0  0  0  0  0  0
   56.9318   28.2275   46.2820 H   0  0  0  0  0  0  0  0  0  0  0  0
  1  2  1  0
  2  3  1  0
  3  4  2  0
  4  5  1  0
  5  6  2  0
  6  7  1  0
  7  8  1  0
  8  9  2  0
  9 10  1  0
 10 11  2  0
 11 12  1  0
 12 13  2  0
 13 14  1  0
 14 15  1  0
 15 16  1  0
 16 17  1  0
 17 18  2  0
 18 19  1  0
 19 20  2  0
 20 21  1  0
 21 22  2  0
 15 23  1  0
 23 24  2  0
 23 25  2  0
 23 26  1  0
 26 27  1  0
 27 28  1  0
 28 29  1  0
  6 30  1  0
 30 31  2  0
 31 32  1  0
 31  3  1  0
 13  8  1  0
 22 17  1  0
  1 33  1  0
  1 34  1  0
  1 35  1  0
  4 36  1  0
  5 37  1  0
  7 38  1  0
  7 39  1  0
  9 40  1  0
 10 41  1  0
 11 42  1  0
 12 43  1  0
 14 44  1  0
 14 45  1  0
 16 46  1  0
 16 47  1  0
 18 48  1  0
 19 49  1  0
 20 50  1  0
 21 51  1  0
 22 52  1  0
 26 53  1  0
 26 54  1  0
 27 55  1  0
 27 56  1  0
 28 57  1  0
 28 58  1  0
 29 59  1  0
 30 60  1  0
M  CHG  2  22   1  32  -1
M  END
>  <UniqueID>  (4) 
3

>  <SMILES>  (4) 
COc1ccc(Cc2ccccc2CN(Cc2cccc[nH+]2)S(=O)(=O)CCCO)cc1[O-]

>  <Energy>  (4) 
54.04504783524313

>  <Genealogy>  (4) 
COc1ccc(Cc2ccccc2CN(Cc2cccc[nH+]2)S(=O)(=O)CCCO)cc1[O-] (protonated)
COc1ccc(Cc2ccccc2CN(Cc2cccc[nH+]2)S(=O)(=O)CCCO)cc1[O-] (3D coordinates assigned)
COc1ccc(Cc2ccccc2CN(Cc2cccc[nH+]2)S(=O)(=O)CCCO)cc1[O-] (optimized conformer: 54.04504783524313 kcal/mol)

>  <smiles>  (4) 
COc1ccc(Cc2ccccc2CN(Cc2ccccn2)S(=O)(=O)CCCO)cc1O

>  <score_type>  (4) 
oracle

>  <origin>  (4) 
adg

>  <m_score__min__energy>  (4) 
-11.69

>  <m_primary>  (4) 
energy

$$$$
4:0
     RDKit          3D

 41 43  0  0  0  0  0  0  0  0999 V2000
   56.9970   32.2100   51.6490 N   0  0  0  0  0  0  0  0  0  0  0  0
   57.8980   31.4080   50.8820 C   0  0  0  0  0  0  0  0  0  0  0  0
   58.2570   30.1260   51.3270 C   0  0  0  0  0  0  0  0  0  0  0  0
   59.1390   29.3430   50.5760 C   0  0  0  0  0  0  0  0  0  0  0  0
   59.6600   29.8310   49.3730 C   0  0  0  0  0  0  0  0  0  0  0  0
   60.7890   28.8280   48.4050 S   0  0  0  0  0  0  0  0  0  0  0  0
   59.4590   28.0420   47.4950 C   0  0  0  0  0  0  0  0  0  0  0  0
   59.0150   26.7680   47.8620 C   0  0  0  0  0  0  0  0  0  0  0  0
   57.9880   26.1500   47.1420 C   0  0  0  0  0  0  0  0  0  0  0  0
   57.3900   26.8110   46.0650 C   0  0  0  0  0  0  0  0  0  0  0  0
   57.8070   28.1020   45.7090 C   0  0  0  0  0  0  0  0  0  0  0  0
   57.1650   28.7830   44.6200 N   0  0  0  0  0  0  0  0  0  0  0  0
   57.2410   30.2040   44.4420 C   0  0  0  0  0  0  0  0  0  0  0  0
   56.8120   30.8470   42.9950 S   0  0  0  0  0  0  0  0  0  0  0  0
   57.4020   31.0580   45.5850 N   0  0  0  0  0  0  0  0  0  0  0  0
   58.0880   32.3200   45.5620 C   0  0  0  0  0  0  0  0  0  0  0  0
   57.5310   33.4430   44.9250 C   0  0  0  0  0  0  0  0  0  0  0  0
   58.2380   34.6480   44.8760 C   0  0  0  0  0  0  0  0  0  0  0  0
   59.5080   34.7400   45.4500 C   0  0  0  0  0  0  0  0  0  0  0  0
   60.0770   33.6240   46.0710 C   0  0  0  0  0  0  0  0  0  0  0  0
   61.6820   33.7310   46.7720 Cl  0  0  0  0  0  0  0  0  0  0  0  0
   59.3710   32.4170   46.1220 C   0  0  0  0  0  0  0  0  0  0  0  0
   58.8650   28.7030   46.4130 C   0  0  0  0  0  0  0  0  0  0  0  0
   59.3040   31.1100   48.9260 C   0  0  0  0  0  0  0  0  0  0  0  0
   58.4310   31.8980   49.6810 C   0  0  0  0  0  0  0  0  0  0  0  0
   56.0170   32.3720   51.3260 H   0  0  0  0  0  0  0  0  0  0  0  0
   57.3050   32.6520   52.5440 H   0  0  0  0  0  0  0  0  0  0  0  0
   57.8434   29.7364   52.2689 H   0  0  0  0  0  0  0  0  0  0  0  0
   59.4236   28.3418   50.9317 H   0  0  0  0  0  0  0  0  0  0  0  0
   59.4740   26.2515   48.7179 H   0  0  0  0  0  0  0  0  0  0  0  0
   57.6499   25.1418   47.4235 H   0  0  0  0  0  0  0  0  0  0  0  0
   56.5896   26.3169   45.4948 H   0  0  0  0  0  0  0  0  0  0  0  0
   56.5820   28.2230   43.9550 H   0  0  0  0  0  0  0  0  0  0  0  0
   57.0110   30.7260   46.4970 H   0  0  0  0  0  0  0  0  0  0  0  0
   56.5350   33.3731   44.4634 H   0  0  0  0  0  0  0  0  0  0  0  0
   57.7931   35.5257   44.3843 H   0  0  0  0  0  0  0  0  0  0  0  0
   60.0605   35.6905   45.4135 H   0  0  0  0  0  0  0  0  0  0  0  0
   59.8246   31.5385   46.6042 H   0  0  0  0  0  0  0  0  0  0  0  0
   59.2278   29.6970   46.1125 H   0  0  0  0  0  0  0  0  0  0  0  0
   59.7121   31.4945   47.9796 H   0  0  0  0  0  0  0  0  0  0  0  0
   58.1611   32.9057   49.3321 H   0  0  0  0  0  0  0  0  0  0  0  0
  1  2  1  0
  2  3  2  0
  3  4  1  0
  4  5  2  0
  5  6  1  0
  6  7  1  0
  7  8  2  0
  8  9  1  0
  9 10  2  0
 10 11  1  0
 11 12  1  0
 12 13  1  0
 13 14  2  0
 13 15  1  0
 15 16  1  0
 16 17  2  0
 17 18  1  0
 18 19  2  0
 19 20  1  0
 20 21  1  0
 20 22  2  0
 11 23  2  0
  5 24  1  0
 24 25  2  0
 25  2  1  0
 23  7  1  0
 22 16  1  0
  1 26  1  0
  1 27  1  0
  3 28  1  0
  4 29  1  0
  8 30  1  0
  9 31  1  0
 10 32  1  0
 12 33  1  0
 15 34  1  0
 17 35  1  0
 18 36  1  0
 19 37  1  0
 22 38  1  0
 23 39  1  0
 24 40  1  0
 25 41  1  0
M  END
>  <UniqueID>  (5) 
4

>  <SMILES>  (5) 
Nc1ccc(Sc2cccc(NC(=S)Nc3cccc(Cl)c3)c2)cc1

>  <Energy>  (5) 
42.37855713221746

>  <Genealogy>  (5) 
Nc1ccc(Sc2cccc(NC(=S)Nc3cccc(Cl)c3)c2)cc1 (3D coordinates assigned)
Nc1ccc(Sc2cccc(NC(=S)Nc3cccc(Cl)c3)c2)cc1 (optimized conformer: 42.37855713221746 kcal/mol)

>  <smiles>  (5) 
Nc1ccc(Sc2cccc(NC(=S)Nc3cccc(Cl)c3)c2)cc1

>  <score_type>  (5) 
oracle

>  <origin>  (5) 
adg

>  <m_score__min__energy>  (5) 
-8.8200000000000003

>  <m_primary>  (5) 
energy

$$$$
5:0
     RDKit          3D

 61 64  0  0  0  0  0  0  0  0999 V2000
   65.5880   32.7250   49.7890 C   0  0  0  0  0  0  0  0  0  0  0  0
   64.3080   33.0950   49.1070 C   0  0  0  0  0  0  0  0  0  0  0  0
   63.1580   33.3610   49.8570 C   0  0  0  0  0  0  0  0  0  0  0  0
   61.9690   33.7340   49.2130 C   0  0  0  0  0  0  0  0  0  0  0  0
   60.7440   33.9830   50.0640 C   0  0  0  0  0  0  0  0  0  0  0  0
   59.8590   32.8230   50.0200 N   0  0  0  0  0  0  0  0  0  0  0  0
   60.0480   31.7080   49.2880 C   0  0  0  0  0  0  0  0  0  0  0  0
   59.0090   30.8440   49.5790 C   0  0  0  0  0  0  0  0  0  0  0  0
   58.7450   29.5390   49.0380 N   0  0  0  0  0  0  0  0  0  0  0  0
   59.7410   28.6470   48.5060 C   0  0  0  0  0  0  0  0  0  0  0  0
   60.9590   28.9680   48.4900 O   0  0  0  0  0  0  0  0  0  0  0  0
   59.3310   27.3240   47.9330 C   0  0  0  0  0  0  0  0  0  0  0  0
   58.7740   27.5090   46.5490 C   0  0  0  0  0  0  0  0  0  0  0  0
   59.2770   26.7520   45.4790 C   0  0  0  0  0  0  0  0  0  0  0  0
   58.7740   26.9370   44.1900 C   0  0  0  0  0  0  0  0  0  0  0  0
   57.7810   27.8910   43.9530 C   0  0  0  0  0  0  0  0  0  0  0  0
   57.2820   28.6770   45.0060 C   0  0  0  0  0  0  0  0  0  0  0  0
   56.2470   29.7080   44.7480 C   0  0  0  0  0  0  0  0  0  0  0  0
   55.0480   29.3670   44.5500 O   0  0  0  0  0  0  0  0  0  0  0  0
   56.6050   31.0960   44.7330 N   0  0  0  0  0  0  0  0  0  0  0  0
   57.9670   31.5960   44.9220 C   0  0  0  0  0  0  0  0  0  0  0  0
   58.2850   31.7480   46.4240 C   0  0  0  0  0  0  0  0  0  0  0  0
   57.7740   33.0900   46.9910 C   0  0  0  0  0  0  0  0  0  0  0  0
   56.7650   33.6440   46.1710 O   0  0  0  0  0  0  0  0  0  0  0  0
   57.3250   34.0660   44.9380 C   0  0  0  0  0  0  0  0  0  0  0  0
   58.1130   32.9480   44.2120 C   0  0  0  0  0  0  0  0  0  0  0  0
   57.7870   28.4780   46.3060 C   0  0  0  0  0  0  0  0  0  0  0  0
   58.2180   31.5040   50.4980 C   0  0  0  0  0  0  0  0  0  0  0  0
   58.7640   32.7070   50.7610 N   0  0  0  0  0  0  0  0  0  0  0  0
   61.9550   33.8330   47.7980 C   0  0  0  0  0  0  0  0  0  0  0  0
   60.7250   34.2420   47.0340 C   0  0  0  0  0  0  0  0  0  0  0  0
   63.1450   33.5780   47.0940 C   0  0  0  0  0  0  0  0  0  0  0  0
   64.2760   33.2210   47.7540 N   0  0  0  0  0  0  0  0  0  0  0  0
   65.4476   32.7656   50.8792 H   0  0  0  0  0  0  0  0  0  0  0  0
   65.8791   31.7059   49.4945 H   0  0  0  0  0  0  0  0  0  0  0  0
   66.3779   33.4316   49.4945 H   0  0  0  0  0  0  0  0  0  0  0  0
   63.1859   33.2776   50.9535 H   0  0  0  0  0  0  0  0  0  0  0  0
   61.0540   34.1650   51.1036 H   0  0  0  0  0  0  0  0  0  0  0  0
   60.2072   34.8606   49.6746 H   0  0  0  0  0  0  0  0  0  0  0  0
   60.8757   31.5200   48.5884 H   0  0  0  0  0  0  0  0  0  0  0  0
   57.7530   29.2070   49.0660 H   0  0  0  0  0  0  0  0  0  0  0  0
   60.2073   26.6607   47.8865 H   0  0  0  0  0  0  0  0  0  0  0  0
   58.5570   26.8785   48.5753 H   0  0  0  0  0  0  0  0  0  0  0  0
   60.0700   26.0107   45.6569 H   0  0  0  0  0  0  0  0  0  0  0  0
   59.1606   26.3298   43.3582 H   0  0  0  0  0  0  0  0  0  0  0  0
   57.3870   28.0279   42.9351 H   0  0  0  0  0  0  0  0  0  0  0  0
   58.6779   30.8755   44.4912 H   0  0  0  0  0  0  0  0  0  0  0  0
   57.8053   30.9247   46.9736 H   0  0  0  0  0  0  0  0  0  0  0  0
   59.3782   31.7230   46.5438 H   0  0  0  0  0  0  0  0  0  0  0  0
   57.3645   32.9207   47.9978 H   0  0  0  0  0  0  0  0  0  0  0  0
   58.6176   33.7950   47.0270 H   0  0  0  0  0  0  0  0  0  0  0  0
   56.5098   34.4026   44.2807 H   0  0  0  0  0  0  0  0  0  0  0  0
   58.0360   34.8750   45.1615 H   0  0  0  0  0  0  0  0  0  0  0  0
   57.7322   32.8536   43.1843 H   0  0  0  0  0  0  0  0  0  0  0  0
   59.1781   33.2228   44.2149 H   0  0  0  0  0  0  0  0  0  0  0  0
   57.4047   29.0872   47.1383 H   0  0  0  0  0  0  0  0  0  0  0  0
   57.2920   31.1112   50.9433 H   0  0  0  0  0  0  0  0  0  0  0  0
   59.9256   34.5078   47.7413 H   0  0  0  0  0  0  0  0  0  0  0  0
   60.9585   35.1109   46.4011 H   0  0  0  0  0  0  0  0  0  0  0  0
   60.3917   33.4063   46.4011 H   0  0  0  0  0  0  0  0  0  0  0  0
   63.1596   33.6687   45.9978 H   0  0  0  0  0  0  0  0  0  0  0  0
  1  2  1  0
  2  3  2  0
  3  4  1  0
  4  5  1  0
  5  6  1  0
  6  7  1  0
  7  8  2  0
  8  9  1  0
  9 10  1  0
 10 11  2  0
 10 12  1  0
 12 13  1  0
 13 14  2  0
 14 15  1  0
 15 16  2  0
 16 17  1  0
 17 18  1  0
 18 19  2  0
 18 20  1  0
 20 21  1  0
 21 22  1  0
 22 23  1  0
 23 24  1  0
 24 25  1  0
 25 26  1  0
 17 27  2  0
  8 28  1  0
 28 29  2  0
  4 30  2  0
 30 31  1  0
 30 32  1  0
 32 33  2  0
 33  2  1  0
 29  6  1  0
 27 13  1  0
 26 21  1  0
  1 34  1  0
  1 35  1  0
  1 36  1  0
  3 37  1  0
  5 38  1  0
  5 39  1  0
  7 40  1  0
  9 41  1  0
 12 42  1  0
 12 43  1  0
 14 44  1  0
 15 45  1  0
 16 46  1  0
 21 47  1  0
 22 48  1  0
 22 49  1  0
 23 50  1  0
 23 51  1  0
 25 52  1  0
 25 53  1  0
 26 54  1  0
 26 55  1  0
 27 56  1  0
 28 57  1  0
 31 58  1  0
 31 59  1  0
 31 60  1  0
 32 61  1  0
M  CHG  1  20  -1
M  END
>  <UniqueID>  (6) 
5

>  <SMILES>  (6) 
Cc1cc(Cn2cc(NC(=O)Cc3cccc(C(=O)[N-]C4CCOCC4)c3)cn2)c(C)cn1

>  <Energy>  (6) 
99.06816334497083

>  <Genealogy>  (6) 
Cc1cc(Cn2cc(NC(=O)Cc3cccc(C(=O)[N-]C4CCOCC4)c3)cn2)c(C)cn1 (protonated)
Cc1cc(Cn2cc(NC(=O)Cc3cccc(C(=O)[N-]C4CCOCC4)c3)cn2)c(C)cn1 (3D coordinates assigned)
Cc1cc(Cn2cc(NC(=O)Cc3cccc(C(=O)[N-]C4CCOCC4)c3)cn2)c(C)cn1 (nonaromatic ring conformer: 99.06816334497083 kcal/mol)

>  <smiles>  (6) 
Cc1cc(Cn2cc(NC(=O)Cc3cccc(C(=O)NC4CCOCC4)c3)cn2)c(C)cn1

>  <score_type>  (6) 
oracle

>  <origin>  (6) 
adg

>  <m_score__min__energy>  (6) 
-11.57

>  <m_primary>  (6) 
energy

$$$$
6:0
     RDKit          3D

 62 64  0  0  0  0  0  0  0  0999 V2000
   56.9600   30.9420   51.8310 C   0  0  0  0  0  0  0  0  0  0  0  0
   57.5180   30.0560   50.8660 O   0  0  0  0  0  0  0  0  0  0  0  0
   58.8900   29.7510   50.7570 C   0  0  0  0  0  0  0  0  0  0  0  0
   59.7610   29.8760   51.8600 C   0  0  0  0  0  0  0  0  0  0  0  0
   61.1190   29.5820   51.7280 C   0  0  0  0  0  0  0  0  0  0  0  0
   61.6260   29.1470   50.5040 C   0  0  0  0  0  0  0  0  0  0  0  0
   60.7760   29.0130   49.4050 C   0  0  0  0  0  0  0  0  0  0  0  0
   59.4050   29.3080   49.5150 C   0  0  0  0  0  0  0  0  0  0  0  0
   58.5200   29.2140   48.2870 C   0  0  0  0  0  0  0  0  0  0  0  0
   58.7040   27.8810   47.5450 C   0  0  0  0  0  0  0  0  0  0  0  0
   57.4210   27.2200   47.3220 N   0  0  0  0  0  0  0  0  0  0  0  0
   56.8340   26.8840   46.0550 C   0  0  0  0  0  0  0  0  0  0  0  0
   55.5870   26.7230   45.9970 O   0  0  0  0  0  0  0  0  0  0  0  0
   57.6470   26.6970   44.7980 C   0  0  0  0  0  0  0  0  0  0  0  0
   57.8240   28.0130   44.0280 C   0  0  0  0  0  0  0  0  0  0  0  0
   57.9950   29.1380   44.9510 N   0  0  0  0  0  0  0  0  0  0  0  0
   57.0740   30.5040   44.3950 S   0  0  0  0  0  0  0  0  0  0  0  0
   57.1030   30.5570   42.8900 O   0  0  0  0  0  0  0  0  0  0  0  0
   55.6470   30.3570   44.8430 O   0  0  0  0  0  0  0  0  0  0  0  0
   57.7400   31.9830   45.0800 C   0  0  0  0  0  0  0  0  0  0  0  0
   57.8520   33.1450   44.3070 C   0  0  0  0  0  0  0  0  0  0  0  0
   58.4240   34.2970   44.8560 C   0  0  0  0  0  0  0  0  0  0  0  0
   58.9000   34.2900   46.1700 C   0  0  0  0  0  0  0  0  0  0  0  0
   58.7970   33.1280   46.9480 C   0  0  0  0  0  0  0  0  0  0  0  0
   59.4250   33.0980   48.5950 S   0  0  0  0  0  0  0  0  0  0  0  0
   59.6920   34.5080   49.0430 O   0  0  0  0  0  0  0  0  0  0  0  0
   58.3750   32.5200   49.5040 O   0  0  0  0  0  0  0  0  0  0  0  0
   60.9000   32.1680   48.7380 N   0  0  0  0  0  0  0  0  0  0  0  0
   61.8410   32.7560   49.7120 C   0  0  0  0  0  0  0  0  0  0  0  0
   62.7050   33.8930   49.1140 C   0  0  0  0  0  0  0  0  0  0  0  0
   62.5660   34.0170   47.7130 O   0  0  0  0  0  0  0  0  0  0  0  0
   62.7220   32.7570   47.1080 C   0  0  0  0  0  0  0  0  0  0  0  0
   61.5150   31.8590   47.4310 C   0  0  0  0  0  0  0  0  0  0  0  0
   58.2050   31.9790   46.4020 C   0  0  0  0  0  0  0  0  0  0  0  0
   57.1909   30.5754   52.8421 H   0  0  0  0  0  0  0  0  0  0  0  0
   57.3890   31.9461   51.6982 H   0  0  0  0  0  0  0  0  0  0  0  0
   55.8691   30.9889   51.6982 H   0  0  0  0  0  0  0  0  0  0  0  0
   59.3666   30.2078   52.8318 H   0  0  0  0  0  0  0  0  0  0  0  0
   61.7910   29.6937   52.5917 H   0  0  0  0  0  0  0  0  0  0  0  0
   62.6955   28.9095   50.4046 H   0  0  0  0  0  0  0  0  0  0  0  0
   61.1831   28.6727   48.4414 H   0  0  0  0  0  0  0  0  0  0  0  0
   57.4691   29.3046   48.5990 H   0  0  0  0  0  0  0  0  0  0  0  0
   58.8032   30.0262   47.6014 H   0  0  0  0  0  0  0  0  0  0  0  0
   59.1820   28.0741   46.5733 H   0  0  0  0  0  0  0  0  0  0  0  0
   59.3329   27.2224   48.1621 H   0  0  0  0  0  0  0  0  0  0  0  0
   58.6393   26.3088   45.0711 H   0  0  0  0  0  0  0  0  0  0  0  0
   57.1098   25.9915   44.1471 H   0  0  0  0  0  0  0  0  0  0  0  0
   58.7124   27.9370   43.3838 H   0  0  0  0  0  0  0  0  0  0  0  0
   56.9240   28.1894   43.4206 H   0  0  0  0  0  0  0  0  0  0  0  0
   57.5890   28.8680   45.8750 H   0  0  0  0  0  0  0  0  0  0  0  0
   57.4902   33.1518   43.2682 H   0  0  0  0  0  0  0  0  0  0  0  0
   58.4996   35.2126   44.2510 H   0  0  0  0  0  0  0  0  0  0  0  0
   59.3558   35.1968   46.5942 H   0  0  0  0  0  0  0  0  0  0  0  0
   61.2631   33.1623   50.5552 H   0  0  0  0  0  0  0  0  0  0  0  0
   62.5264   31.9561   50.0288 H   0  0  0  0  0  0  0  0  0  0  0  0
   62.4054   34.8429   49.5809 H   0  0  0  0  0  0  0  0  0  0  0  0
   63.7575   33.6473   49.3186 H   0  0  0  0  0  0  0  0  0  0  0  0
   62.7987   32.8843   46.0181 H   0  0  0  0  0  0  0  0  0  0  0  0
   63.6357   32.2833   47.4962 H   0  0  0  0  0  0  0  0  0  0  0  0
   60.7567   31.9949   46.6458 H   0  0  0  0  0  0  0  0  0  0  0  0
   61.8786   30.8218   47.4751 H   0  0  0  0  0  0  0  0  0  0  0  0
   58.1054   31.0708   47.0145 H   0  0  0  0  0  0  0  0  0  0  0  0
  1  2  1  0
  2  3  1  0
  3  4  2  0
  4  5  1  0
  5  6  2  0
  6  7  1  0
  7  8  2  0
  8  9  1  0
  9 10  1  0
 10 11  1  0
 11 12  1  0
 12 13  2  0
 12 14  1  0
 14 15  1  0
 15 16  1  0
 16 17  1  0
 17 18  2  0
 17 19  2  0
 17 20  1  0
 20 21  2  0
 21 22  1  0
 22 23  2  0
 23 24  1  0
 24 25  1  0
 25 26  2  0
 25 27  2  0
 25 28  1  0
 28 29  1  0
 29 30  1  0
 30 31  1  0
 31 32  1  0
 32 33  1  0
 24 34  2  0
  8  3  1  0
 34 20  1  0
 33 28  1  0
  1 35  1  0
  1 36  1  0
  1 37  1  0
  4 38  1  0
  5 39  1  0
  6 40  1  0
  7 41  1  0
  9 42  1  0
  9 43  1  0
 10 44  1  0
 10 45  1  0
 14 46  1  0
 14 47  1  0
 15 48  1  0
 15 49  1  0
 16 50  1  0
 21 51  1  0
 22 52  1  0
 23 53  1  0
 29 54  1  0
 29 55  1  0
 30 56  1  0
 30 57  1  0
 32 58  1  0
 32 59  1  0
 33 60  1  0
 33 61  1  0
 34 62  1  0
M  CHG  1  11  -1
M  END
>  <UniqueID>  (7) 
6

>  <SMILES>  (7) 
COc1ccccc1CC[N-]C(=O)CCNS(=O)(=O)c1cccc(S(=O)(=O)N2CCOCC2)c1

>  <Energy>  (7) 
62.63475132529382

>  <Genealogy>  (7) 
COc1ccccc1CC[N-]C(=O)CCNS(=O)(=O)c1cccc(S(=O)(=O)N2CCOCC2)c1 (protonated)
COc1ccccc1CC[N-]C(=O)CCNS(=O)(=O)c1cccc(S(=O)(=O)N2CCOCC2)c1 (3D coordinates assigned)
COc1ccccc1CC[N-]C(=O)CCNS(=O)(=O)c1cccc(S(=O)(=O)N2CCOCC2)c1 (nonaromatic ring conformer: 62.63475132529382 kcal/mol)

>  <smiles>  (7) 
COc1ccccc1CCNC(=O)CCNS(=O)(=O)c1cccc(S(=O)(=O)N2CCOCC2)c1

>  <score_type>  (7) 
oracle

>  <origin>  (7) 
adg

>  <m_score__min__energy>  (7) 
-12.619999999999999

>  <m_primary>  (7) 
energy

$$$$
7:0
     RDKit          3D

 31 33  0  0  0  0  0  0  0  0999 V2000
   56.6360   23.3000   43.6000 C   0  0  0  0  0  0  0  0  0  0  0  0
   57.1320   24.0560   44.7000 O   0  0  0  0  0  0  0  0  0  0  0  0
   57.2600   25.4540   44.7050 C   0  0  0  0  0  0  0  0  0  0  0  0
   56.8980   26.2400   45.8140 C   0  0  0  0  0  0  0  0  0  0  0  0
   57.0430   27.6300   45.7710 C   0  0  0  0  0  0  0  0  0  0  0  0
   57.5460   28.2610   44.6190 C   0  0  0  0  0  0  0  0  0  0  0  0
   57.7140   29.7360   44.5590 C   0  0  0  0  0  0  0  0  0  0  0  0
   57.8510   30.4350   45.7180 N   0  0  0  0  0  0  0  0  0  0  0  0
   58.0060   31.7830   45.7200 C   0  0  0  0  0  0  0  0  0  0  0  0
   58.1390   32.4720   46.9310 C   0  0  0  0  0  0  0  0  0  0  0  0
   58.2970   33.8610   46.9310 C   0  0  0  0  0  0  0  0  0  0  0  0
   58.3230   34.5650   45.7250 C   0  0  0  0  0  0  0  0  0  0  0  0
   58.1920   33.8850   44.5100 C   0  0  0  0  0  0  0  0  0  0  0  0
   58.0320   32.4870   44.5000 C   0  0  0  0  0  0  0  0  0  0  0  0
   57.9010   31.7510   43.3110 C   0  0  0  0  0  0  0  0  0  0  0  0
   57.9280   32.3300   42.1900 O   0  0  0  0  0  0  0  0  0  0  0  0
   57.7490   30.3990   43.3650 N   0  0  0  0  0  0  0  0  0  0  0  0
   57.9180   27.4680   43.5190 C   0  0  0  0  0  0  0  0  0  0  0  0
   57.7700   26.0790   43.5640 C   0  0  0  0  0  0  0  0  0  0  0  0
   56.0688   22.4355   43.9753 H   0  0  0  0  0  0  0  0  0  0  0  0
   55.9771   23.9329   42.9875 H   0  0  0  0  0  0  0  0  0  0  0  0
   57.4790   22.9476   42.9875 H   0  0  0  0  0  0  0  0  0  0  0  0
   56.4990   25.7589   46.7192 H   0  0  0  0  0  0  0  0  0  0  0  0
   56.7613   28.2351   46.6454 H   0  0  0  0  0  0  0  0  0  0  0  0
   58.1192   31.9206   47.8826 H   0  0  0  0  0  0  0  0  0  0  0  0
   58.4012   34.4011   47.8836 H   0  0  0  0  0  0  0  0  0  0  0  0
   58.4469   35.6580   45.7309 H   0  0  0  0  0  0  0  0  0  0  0  0
   58.2140   34.4429   43.5622 H   0  0  0  0  0  0  0  0  0  0  0  0
   57.6870   29.8700   42.4650 H   0  0  0  0  0  0  0  0  0  0  0  0
   58.3285   27.9444   42.6165 H   0  0  0  0  0  0  0  0  0  0  0  0
   58.0577   25.4720   42.6929 H   0  0  0  0  0  0  0  0  0  0  0  0
  1  2  1  0
  2  3  1  0
  3  4  2  0
  4  5  1  0
  5  6  2  0
  6  7  1  0
  7  8  2  0
  8  9  1  0
  9 10  2  0
 10 11  1  0
 11 12  2  0
 12 13  1  0
 13 14  2  0
 14 15  1  0
 15 16  2  0
 15 17  1  0
  6 18  1  0
 18 19  2  0
 19  3  1  0
 17  7  1  0
 14  9  1  0
  1 20  1  0
  1 21  1  0
  1 22  1  0
  4 23  1  0
  5 24  1  0
 10 25  1  0
 11 26  1  0
 12 27  1  0
 13 28  1  0
 17 29  1  0
 18 30  1  0
 19 31  1  0
M  END
>  <UniqueID>  (8) 
7

>  <SMILES>  (8) 
COc1ccc(-c2nc3ccccc3c(=O)[nH]2)cc1

>  <Energy>  (8) 
41.232940549121196

>  <Genealogy>  (8) 
COc1ccc(-c2nc3ccccc3c(=O)[nH]2)cc1 (3D coordinates assigned)
COc1ccc(-c2nc3ccccc3c(=O)[nH]2)cc1 (optimized conformer: 41.232940549121196 kcal/mol)

>  <smiles>  (8) 
COc1ccc(-c2nc3ccccc3c(=O)[nH]2)cc1

>  <score_type>  (8) 
oracle

>  <origin>  (8) 
adg

>  <m_score__min__energy>  (8) 
-6.6100000000000003

>  <m_primary>  (8) 
energy

$$$$
8:0
     RDKit          3D

 26 28  0  0  0  0  0  0  0  0999 V2000
   55.1420   24.6780   46.7420 O   0  0  0  0  0  0  0  0  0  0  0  0
   55.9310   25.5770   46.3540 C   0  0  0  0  0  0  0  0  0  0  0  0
   57.2800   25.4500   46.4480 N   0  0  0  0  0  0  0  0  0  0  0  0
   57.7070   26.6110   45.9320 C   0  0  0  0  0  0  0  0  0  0  0  0
   59.0220   27.0340   45.7640 C   0  0  0  0  0  0  0  0  0  0  0  0
   59.2400   28.3010   45.1880 C   0  0  0  0  0  0  0  0  0  0  0  0
   60.8960   28.8100   44.8870 Cl  0  0  0  0  0  0  0  0  0  0  0  0
   58.1320   29.1180   44.8120 C   0  0  0  0  0  0  0  0  0  0  0  0
   58.3250   30.4110   44.2220 N   0  0  0  0  0  0  0  0  0  0  0  0
   58.1310   31.6500   44.9280 C   0  0  0  0  0  0  0  0  0  0  0  0
   58.3410   31.6920   46.3160 C   0  0  0  0  0  0  0  0  0  0  0  0
   58.1700   32.8860   47.0230 C   0  0  0  0  0  0  0  0  0  0  0  0
   57.8000   34.0530   46.3480 C   0  0  0  0  0  0  0  0  0  0  0  0
   57.6030   34.0270   44.9650 C   0  0  0  0  0  0  0  0  0  0  0  0
   57.7720   32.8340   44.2550 C   0  0  0  0  0  0  0  0  0  0  0  0
   56.8170   28.6350   44.9810 C   0  0  0  0  0  0  0  0  0  0  0  0
   56.6490   27.3780   45.5530 C   0  0  0  0  0  0  0  0  0  0  0  0
   55.4960   26.7420   45.8100 N   0  0  0  0  0  0  0  0  0  0  0  0
   59.8655   26.3985   46.0716 H   0  0  0  0  0  0  0  0  0  0  0  0
   58.5050   30.4500   43.1930 H   0  0  0  0  0  0  0  0  0  0  0  0
   58.6421   30.7791   46.8507 H   0  0  0  0  0  0  0  0  0  0  0  0
   58.3268   32.9072   48.1116 H   0  0  0  0  0  0  0  0  0  0  0  0
   57.6640   34.9914   46.9055 H   0  0  0  0  0  0  0  0  0  0  0  0
   57.3146   34.9461   44.4339 H   0  0  0  0  0  0  0  0  0  0  0  0
   57.6237   32.8203   43.1651 H   0  0  0  0  0  0  0  0  0  0  0  0
   55.9495   29.2352   44.6694 H   0  0  0  0  0  0  0  0  0  0  0  0
  1  2  2  0
  2  3  1  0
  3  4  1  0
  4  5  2  0
  5  6  1  0
  6  7  1  0
  6  8  2  0
  8  9  1  0
  9 10  1  0
 10 11  2  0
 11 12  1  0
 12 13  2  0
 13 14  1  0
 14 15  2  0
  8 16  1  0
 16 17  2  0
 17 18  1  0
 18  2  1  0
 17  4  1  0
 15 10  1  0
  5 19  1  0
  9 20  1  0
 11 21  1  0
 12 22  1  0
 13 23  1  0
 14 24  1  0
 15 25  1  0
 16 26  1  0
M  CHG  2   3  -1  18  -1
M  END
>  <UniqueID>  (9) 
8

>  <SMILES>  (9) 
O=c1[n-]c2cc(Cl)c(Nc3ccccc3)cc2[n-]1

>  <Energy>  (9) 
71.47330774585963

>  <Genealogy>  (9) 
O=c1[n-]c2cc(Cl)c(Nc3ccccc3)cc2[n-]1 (protonated)
O=c1[n-]c2cc(Cl)c(Nc3ccccc3)cc2[n-]1 (3D coordinates assigned)
O=c1[n-]c2cc(Cl)c(Nc3ccccc3)cc2[n-]1 (optimized conformer: 71.47330774585963 kcal/mol)

>  <smiles>  (9) 
O=c1[nH]c2cc(Cl)c(Nc3ccccc3)cc2[nH]1

>  <score_type>  (9) 
oracle

>  <origin>  (9) 
adg

>  <m_score__min__energy>  (9) 
-10.779999999999999

>  <m_primary>  (9) 
energy

$$$$
9:0
     RDKit          3D

 46 47  0  0  0  0  0  0  0  0999 V2000
   58.3393   25.9218   46.2161 H   0  0  0  0  0  0  0  0  0  0  0  0
   57.4540   26.3610   45.7330 C   0  0  0  0  0  0  0  0  0  0  0  0
   56.1150   25.9630   46.1990 C   0  0  0  0  0  0  0  0  0  0  0  0
   55.1290   26.7150   45.9660 O   0  0  0  0  0  0  0  0  0  0  0  0
   55.9220   24.7730   46.8960 O   0  0  0  0  0  0  0  0  0  0  0  0
   57.6270   27.2440   44.7360 C   0  0  0  0  0  0  0  0  0  0  0  0
   57.7103   26.8588   43.7090 H   0  0  0  0  0  0  0  0  0  0  0  0
   57.7120   28.7110   44.9440 C   0  0  0  0  0  0  0  0  0  0  0  0
   57.3780   29.5650   43.8780 C   0  0  0  0  0  0  0  0  0  0  0  0
   57.0594   29.1368   42.9162 H   0  0  0  0  0  0  0  0  0  0  0  0
   57.4470   30.9540   44.0290 C   0  0  0  0  0  0  0  0  0  0  0  0
   57.1950   31.6107   43.1833 H   0  0  0  0  0  0  0  0  0  0  0  0
   57.8360   31.5110   45.2540 C   0  0  0  0  0  0  0  0  0  0  0  0
   57.8970   33.2590   45.4740 S   0  0  0  0  0  0  0  0  0  0  0  0
   56.8370   33.7070   46.4450 O   0  0  0  0  0  0  0  0  0  0  0  0
   57.6360   33.9140   44.1470 O   0  0  0  0  0  0  0  0  0  0  0  0
   59.4720   33.7420   46.0400 N   0  0  0  0  0  0  0  0  0  0  0  0
   59.3860   34.6590   47.1790 C   0  0  0  0  0  0  0  0  0  0  0  0
   58.3566   34.6566   47.5667 H   0  0  0  0  0  0  0  0  0  0  0  0
   59.6661   35.6676   46.8410 H   0  0  0  0  0  0  0  0  0  0  0  0
   60.3450   34.2320   48.2970 C   0  0  0  0  0  0  0  0  0  0  0  0
   60.1232   34.8110   49.2056 H   0  0  0  0  0  0  0  0  0  0  0  0
   61.3787   34.4204   47.9716 H   0  0  0  0  0  0  0  0  0  0  0  0
   60.1860   32.7640   48.5930 C   0  0  0  0  0  0  0  0  0  0  0  0
   61.0730   31.8330   48.0320 C   0  0  0  0  0  0  0  0  0  0  0  0
   61.9058   32.1808   47.4031 H   0  0  0  0  0  0  0  0  0  0  0  0
   60.9040   30.4670   48.2680 C   0  0  0  0  0  0  0  0  0  0  0  0
   61.6077   29.7451   47.8280 H   0  0  0  0  0  0  0  0  0  0  0  0
   59.8380   30.0080   49.0660 C   0  0  0  0  0  0  0  0  0  0  0  0
   59.6340   28.6420   49.3210 O   0  0  0  0  0  0  0  0  0  0  0  0
   60.0870   27.5850   48.4770 C   0  0  0  0  0  0  0  0  0  0  0  0
   60.4452   26.7493   49.0961 H   0  0  0  0  0  0  0  0  0  0  0  0
   59.2571   27.2415   47.8420 H   0  0  0  0  0  0  0  0  0  0  0  0
   60.9081   27.9491   47.8420 H   0  0  0  0  0  0  0  0  0  0  0  0
   58.9390   30.9330   49.6240 C   0  0  0  0  0  0  0  0  0  0  0  0
   57.8790   30.4450   50.4090 O   0  0  0  0  0  0  0  0  0  0  0  0
   57.9600   30.1960   51.8110 C   0  0  0  0  0  0  0  0  0  0  0  0
   57.6655   31.1014   52.3618 H   0  0  0  0  0  0  0  0  0  0  0  0
   57.2844   29.3694   52.0762 H   0  0  0  0  0  0  0  0  0  0  0  0
   58.9926   29.9251   52.0762 H   0  0  0  0  0  0  0  0  0  0  0  0
   59.1160   32.3100   49.3800 C   0  0  0  0  0  0  0  0  0  0  0  0
   58.4094   33.0351   49.8101 H   0  0  0  0  0  0  0  0  0  0  0  0
   58.1480   30.6690   46.3280 C   0  0  0  0  0  0  0  0  0  0  0  0
   58.4490   31.1021   47.2933 H   0  0  0  0  0  0  0  0  0  0  0  0
   58.0790   29.2810   46.1800 C   0  0  0  0  0  0  0  0  0  0  0  0
   58.3128   28.6285   47.0342 H   0  0  0  0  0  0  0  0  0  0  0  0
  1  2  1  0
  2  3  1  0
  3  4  2  0
  3  5  1  0
  2  6  2  0
  6  7  1  0
  6  8  1  0
  8  9  2  0
  9 10  1  0
  9 11  1  0
 11 12  1  0
 11 13  2  0
 13 14  1  0
 14 15  2  0
 14 16  2  0
 14 17  1  0
 17 18  1  0
 18 19  1  0
 18 20  1  0
 18 21  1  0
 21 22  1  0
 21 23  1  0
 21 24  1  0
 24 25  2  0
 25 26  1  0
 25 27  1  0
 27 28  1  0
 27 29  2  0
 29 30  1  0
 30 31  1  0
 31 32  1  0
 31 33  1  0
 31 34  1  0
 29 35  1  0
 35 36  1  0
 36 37  1  0
 37 38  1  0
 37 39  1  0
 37 40  1  0
 35 41  2  0
 41 42  1  0
 13 43  1  0
 43 44  1  0
 43 45  2  0
 45 46  1  0
 45  8  1  0
 41 24  1  0
M  CHG  2   5  -1  17  -1
M  END
>  <UniqueID>  (10) 
9

>  <SMILES>  (10) 
COc1ccc(CC[N-]S(=O)(=O)c2ccc(/C=C/C(=O)[O-])cc2)cc1OC

>  <Energy>  (10) 
43.13056325128537

>  <Genealogy>  (10) 
COc1ccc(CC[N-]S(=O)(=O)c2ccc(C=CC(=O)[O-])cc2)cc1OC (protonated)
COc1ccc(CC[N-]S(=O)(=O)c2ccc(/C=C/C(=O)[O-])cc2)cc1OC (cis-trans isomerization)
COc1ccc(CC[N-]S(=O)(=O)c2ccc(/C=C/C(=O)[O-])cc2)cc1OC (3D coordinates assigned)
COc1ccc(CC[N-]S(=O)(=O)c2ccc(/C=C/C(=O)[O-])cc2)cc1OC (optimized conformer: 43.13056325128537 kcal/mol)

>  <smiles>  (10) 
COc1ccc(CCNS(=O)(=O)c2ccc(C=CC(=O)O)cc2)cc1OC

>  <score_type>  (10) 
oracle

>  <origin>  (10) 
adg

>  <m_score__min__energy>  (10) 
-11.43

>  <m_primary>  (10) 
energy

$$$$
10:0
     RDKit          3D

 53 56  0  0  0  0  0  0  0  0999 V2000
   57.7795   32.6542   42.4472 H   0  0  0  0  0  0  0  0  0  0  0  0
   57.4090   31.7900   43.0180 C   0  0  0  0  0  0  0  0  0  0  0  0
   57.6940   31.6730   44.3880 C   0  0  0  0  0  0  0  0  0  0  0  0
   58.4890   32.6980   45.1120 C   0  0  0  0  0  0  0  0  0  0  0  0
   58.3440   34.0700   44.8310 C   0  0  0  0  0  0  0  0  0  0  0  0
   57.6456   34.3960   44.0462 H   0  0  0  0  0  0  0  0  0  0  0  0
   59.0810   35.0200   45.5420 C   0  0  0  0  0  0  0  0  0  0  0  0
   58.9576   36.0897   45.3173 H   0  0  0  0  0  0  0  0  0  0  0  0
   59.9730   34.6170   46.5360 C   0  0  0  0  0  0  0  0  0  0  0  0
   60.5436   35.3720   47.0967 H   0  0  0  0  0  0  0  0  0  0  0  0
   60.1470   33.2570   46.8250 C   0  0  0  0  0  0  0  0  0  0  0  0
   61.0520   32.8690   47.8720 N   0  0  0  0  0  0  0  0  0  0  0  0
   60.6290   32.4560   48.7320 H   0  0  0  0  0  0  0  0  0  0  0  0
   62.4740   33.0930   47.8220 C   0  0  0  0  0  0  0  0  0  0  0  0
   62.9690   33.7780   46.8850 O   0  0  0  0  0  0  0  0  0  0  0  0
   63.3790   32.5390   48.8590 C   0  0  0  0  0  0  0  0  0  0  0  0
   62.9440   31.4710   49.6630 C   0  0  0  0  0  0  0  0  0  0  0  0
   61.9357   31.0560   49.5176 H   0  0  0  0  0  0  0  0  0  0  0  0
   63.7790   30.9310   50.6450 C   0  0  0  0  0  0  0  0  0  0  0  0
   63.4216   30.1008   51.2719 H   0  0  0  0  0  0  0  0  0  0  0  0
   65.0750   31.4450   50.8350 C   0  0  0  0  0  0  0  0  0  0  0  0
   65.9500   30.9380   51.8070 O   0  0  0  0  0  0  0  0  0  0  0  0
   65.9310   31.3130   53.1800 C   0  0  0  0  0  0  0  0  0  0  0  0
   65.9767   30.4105   53.8072 H   0  0  0  0  0  0  0  0  0  0  0  0
   66.7978   31.9546   53.3969 H   0  0  0  0  0  0  0  0  0  0  0  0
   65.0038   31.8637   53.3969 H   0  0  0  0  0  0  0  0  0  0  0  0
   65.5150   32.4980   50.0270 C   0  0  0  0  0  0  0  0  0  0  0  0
   66.5276   32.9048   50.1658 H   0  0  0  0  0  0  0  0  0  0  0  0
   64.6800   33.0390   49.0440 C   0  0  0  0  0  0  0  0  0  0  0  0
   65.0438   33.8617   48.4110 H   0  0  0  0  0  0  0  0  0  0  0  0
   59.3830   32.3040   46.1260 C   0  0  0  0  0  0  0  0  0  0  0  0
   59.4856   31.2375   46.3750 H   0  0  0  0  0  0  0  0  0  0  0  0
   57.2450   30.5780   45.0640 N   0  0  0  0  0  0  0  0  0  0  0  0
   56.5220   29.5870   44.4740 C   0  0  0  0  0  0  0  0  0  0  0  0
   56.1250   28.5880   45.2120 N   0  0  0  0  0  0  0  0  0  0  0  0
   56.9410   27.6410   45.9190 C   0  0  0  0  0  0  0  0  0  0  0  0
   56.7930   26.2600   45.7130 C   0  0  0  0  0  0  0  0  0  0  0  0
   56.0041   25.8864   45.0436 H   0  0  0  0  0  0  0  0  0  0  0  0
   57.6450   25.3600   46.3560 C   0  0  0  0  0  0  0  0  0  0  0  0
   57.5175   24.2784   46.2016 H   0  0  0  0  0  0  0  0  0  0  0  0
   58.6590   25.8290   47.1950 C   0  0  0  0  0  0  0  0  0  0  0  0
   59.3303   25.1146   47.6940 H   0  0  0  0  0  0  0  0  0  0  0  0
   58.8260   27.2100   47.4050 C   0  0  0  0  0  0  0  0  0  0  0  0
   59.9570   27.7280   48.2580 C   0  0  0  0  0  0  0  0  0  0  0  0
   60.8090   28.5310   47.5190 F   0  0  0  0  0  0  0  0  0  0  0  0
   59.4350   28.4690   49.3030 F   0  0  0  0  0  0  0  0  0  0  0  0
   60.6930   26.6780   48.7750 F   0  0  0  0  0  0  0  0  0  0  0  0
   57.9800   28.1090   46.7330 C   0  0  0  0  0  0  0  0  0  0  0  0
   58.1357   29.1919   46.8477 H   0  0  0  0  0  0  0  0  0  0  0  0
   56.1980   29.7000   43.1090 C   0  0  0  0  0  0  0  0  0  0  0  0
   55.5915   28.9256   42.6167 H   0  0  0  0  0  0  0  0  0  0  0  0
   56.6530   30.8030   42.3860 C   0  0  0  0  0  0  0  0  0  0  0  0
   56.4151   30.8943   41.3159 H   0  0  0  0  0  0  0  0  0  0  0  0
  1  2  1  0
  2  3  2  0
  3  4  1  0
  4  5  2  0
  5  6  1  0
  5  7  1  0
  7  8  1  0
  7  9  2  0
  9 10  1  0
  9 11  1  0
 11 12  1  0
 12 13  1  0
 12 14  1  0
 14 15  2  0
 14 16  1  0
 16 17  2  0
 17 18  1  0
 17 19  1  0
 19 20  1  0
 19 21  2  0
 21 22  1  0
 22 23  1  0
 23 24  1  0
 23 25  1  0
 23 26  1  0
 21 27  1  0
 27 28  1  0
 27 29  2  0
 29 30  1  0
 11 31  2  0
 31 32  1  0
  3 33  1  0
 33 34  1  0
 34 35  2  0
 35 36  1  0
 36 37  2  0
 37 38  1  0
 37 39  1  0
 39 40  1  0
 39 41  2  0
 41 42  1  0
 41 43  1  0
 43 44  1  0
 44 45  1  0
 44 46  1  0
 44 47  1  0
 43 48  2  0
 48 49  1  0
 34 50  1  0
 50 51  1  0
 50 52  2  0
 52 53  1  0
 52  2  1  0
 31  4  1  0
 48 36  1  0
 29 16  1  0
M  CHG  1  33  -1
M  END
>  <UniqueID>  (11) 
10

>  <SMILES>  (11) 
COc1ccc(C(=O)Nc2cccc(-c3ccc/c(=N\c4cccc(C(F)(F)F)c4)[n-]3)c2)cc1

>  <Energy>  (11) 
78.79837876796739

>  <Genealogy>  (11) 
COc1ccc(C(=O)Nc2cccc(-c3cccc(=Nc4cccc(C(F)(F)F)c4)[n-]3)c2)cc1 (protonated)
COc1ccc(C(=O)Nc2cccc(-c3ccc/c(=N\c4cccc(C(F)(F)F)c4)[n-]3)c2)cc1 (cis-trans isomerization)
COc1ccc(C(=O)Nc2cccc(-c3ccc/c(=N\c4cccc(C(F)(F)F)c4)[n-]3)c2)cc1 (3D coordinates assigned)
COc1ccc(C(=O)Nc2cccc(-c3ccc/c(=N\c4cccc(C(F)(F)F)c4)[n-]3)c2)cc1 (optimized conformer: 78.79837876796739 kcal/mol)

>  <smiles>  (11) 
COc1ccc(C(=O)Nc2cccc(-c3cccc(=Nc4cccc(C(F)(F)F)c4)[nH]3)c2)cc1

>  <score_type>  (11) 
oracle

>  <origin>  (11) 
adg

>  <m_score__min__energy>  (11) 
-11.359999999999999

>  <m_primary>  (11) 
energy

$$$$
11:0
     RDKit          3D

 53 55  0  0  0  0  0  0  0  0999 V2000
   58.1450   32.4390   42.8120 C   0  0  0  0  0  0  0  0  0  0  0  0
   58.1180   32.9800   44.2100 C   0  0  0  0  0  0  0  0  0  0  0  0
   57.0160   32.7470   45.0480 C   0  0  0  0  0  0  0  0  0  0  0  0
   57.0160   33.2270   46.3610 C   0  0  0  0  0  0  0  0  0  0  0  0
   58.1180   33.9320   46.8500 C   0  0  0  0  0  0  0  0  0  0  0  0
   59.2330   34.1620   46.0280 C   0  0  0  0  0  0  0  0  0  0  0  0
   60.4130   34.9520   46.5410 C   0  0  0  0  0  0  0  0  0  0  0  0
   61.2710   34.1200   47.5040 C   0  0  0  0  0  0  0  0  0  0  0  0
   62.3120   33.2670   46.7650 C   0  0  0  0  0  0  0  0  0  0  0  0
   62.2030   31.8680   47.1710 N   0  0  0  0  0  0  0  0  0  0  0  0
   60.9560   31.2470   47.5120 C   0  0  0  0  0  0  0  0  0  0  0  0
   59.9490   31.9550   47.7860 O   0  0  0  0  0  0  0  0  0  0  0  0
   60.8530   29.8210   47.5980 N   0  0  0  0  0  0  0  0  0  0  0  0
   59.7660   29.0650   47.0500 C   0  0  0  0  0  0  0  0  0  0  0  0
   59.3380   27.8710   47.6510 C   0  0  0  0  0  0  0  0  0  0  0  0
   58.2430   27.1730   47.1350 C   0  0  0  0  0  0  0  0  0  0  0  0
   57.5570   27.6680   46.0110 C   0  0  0  0  0  0  0  0  0  0  0  0
   56.3800   27.0310   45.4980 N   0  0  0  0  0  0  0  0  0  0  0  0
   55.7870   25.4760   45.9940 S   0  0  0  0  0  0  0  0  0  0  0  0
   54.2840   25.4870   45.9240 O   0  0  0  0  0  0  0  0  0  0  0  0
   56.2110   25.2150   47.4120 O   0  0  0  0  0  0  0  0  0  0  0  0
   56.4390   24.1980   44.9660 C   0  0  0  0  0  0  0  0  0  0  0  0
   57.6650   23.5920   45.2850 C   0  0  0  0  0  0  0  0  0  0  0  0
   58.1700   22.5590   44.4870 C   0  0  0  0  0  0  0  0  0  0  0  0
   57.4540   22.1260   43.3670 C   0  0  0  0  0  0  0  0  0  0  0  0
   56.2360   22.7320   43.0390 C   0  0  0  0  0  0  0  0  0  0  0  0
   55.7310   23.7700   43.8330 C   0  0  0  0  0  0  0  0  0  0  0  0
   58.0250   28.8280   45.3790 C   0  0  0  0  0  0  0  0  0  0  0  0
   59.1290   29.5180   45.8900 C   0  0  0  0  0  0  0  0  0  0  0  0
   59.2260   33.6810   44.7080 C   0  0  0  0  0  0  0  0  0  0  0  0
   58.1998   31.3409   42.8448 H   0  0  0  0  0  0  0  0  0  0  0  0
   57.2305   32.7448   42.2828 H   0  0  0  0  0  0  0  0  0  0  0  0
   59.0245   32.8344   42.2828 H   0  0  0  0  0  0  0  0  0  0  0  0
   56.1494   32.1847   44.6701 H   0  0  0  0  0  0  0  0  0  0  0  0
   56.1462   33.0490   47.0104 H   0  0  0  0  0  0  0  0  0  0  0  0
   58.1125   34.3087   47.8835 H   0  0  0  0  0  0  0  0  0  0  0  0
   61.0332   35.2630   45.6874 H   0  0  0  0  0  0  0  0  0  0  0  0
   60.0313   35.8272   47.0871 H   0  0  0  0  0  0  0  0  0  0  0  0
   61.7946   34.8014   48.1907 H   0  0  0  0  0  0  0  0  0  0  0  0
   60.6016   33.4382   48.0491 H   0  0  0  0  0  0  0  0  0  0  0  0
   62.1410   33.3445   45.6811 H   0  0  0  0  0  0  0  0  0  0  0  0
   63.3181   33.6345   47.0155 H   0  0  0  0  0  0  0  0  0  0  0  0
   63.0810   31.3060   47.2270 H   0  0  0  0  0  0  0  0  0  0  0  0
   59.8677   27.4825   48.5333 H   0  0  0  0  0  0  0  0  0  0  0  0
   57.9169   26.2351   47.6084 H   0  0  0  0  0  0  0  0  0  0  0  0
   58.2307   23.9305   46.1656 H   0  0  0  0  0  0  0  0  0  0  0  0
   59.1308   22.0876   44.7412 H   0  0  0  0  0  0  0  0  0  0  0  0
   57.8478   21.3095   42.7440 H   0  0  0  0  0  0  0  0  0  0  0  0
   55.6741   22.3928   42.1563 H   0  0  0  0  0  0  0  0  0  0  0  0
   54.7776   24.2503   43.5675 H   0  0  0  0  0  0  0  0  0  0  0  0
   57.5204   29.1985   44.4745 H   0  0  0  0  0  0  0  0  0  0  0  0
   59.4974   30.4194   45.3783 H   0  0  0  0  0  0  0  0  0  0  0  0
   60.0971   33.8557   44.0594 H   0  0  0  0  0  0  0  0  0  0  0  0
  1  2  1  0
  2  3  2  0
  3  4  1  0
  4  5  2  0
  5  6  1  0
  6  7  1  0
  7  8  1  0
  8  9  1  0
  9 10  1  0
 10 11  1  0
 11 12  2  0
 11 13  1  0
 13 14  1  0
 14 15  2  0
 15 16  1  0
 16 17  2  0
 17 18  1  0
 18 19  1  0
 19 20  2  0
 19 21  2  0
 19 22  1  0
 22 23  2  0
 23 24  1  0
 24 25  2  0
 25 26  1  0
 26 27  2  0
 17 28  1  0
 28 29  2  0
  6 30  2  0
 30  2  1  0
 29 14  1  0
 27 22  1  0
  1 31  1  0
  1 32  1  0
  1 33  1  0
  3 34  1  0
  4 35  1  0
  5 36  1  0
  7 37  1  0
  7 38  1  0
  8 39  1  0
  8 40  1  0
  9 41  1  0
  9 42  1  0
 10 43  1  0
 15 44  1  0
 16 45  1  0
 23 46  1  0
 24 47  1  0
 25 48  1  0
 26 49  1  0
 27 50  1  0
 28 51  1  0
 29 52  1  0
 30 53  1  0
M  CHG  2  13  -1  18  -1
M  END
>  <UniqueID>  (12) 
11

>  <SMILES>  (12) 
Cc1cccc(CCCNC(=O)[N-]c2ccc([N-]S(=O)(=O)c3ccccc3)cc2)c1

>  <Energy>  (12) 
53.36755061560559

>  <Genealogy>  (12) 
Cc1cccc(CCCNC(=O)[N-]c2ccc([N-]S(=O)(=O)c3ccccc3)cc2)c1 (protonated)
Cc1cccc(CCCNC(=O)[N-]c2ccc([N-]S(=O)(=O)c3ccccc3)cc2)c1 (3D coordinates assigned)
Cc1cccc(CCCNC(=O)[N-]c2ccc([N-]S(=O)(=O)c3ccccc3)cc2)c1 (optimized conformer: 53.36755061560559 kcal/mol)

>  <smiles>  (12) 
Cc1cccc(CCCNC(=O)Nc2ccc(NS(=O)(=O)c3ccccc3)cc2)c1

>  <score_type>  (12) 
oracle

>  <origin>  (12) 
adg

>  <m_score__min__energy>  (12) 
-12.17

>  <m_primary>  (12) 
energy

$$$$
12:0
     RDKit          3D

 58 60  0  0  0  0  0  0  0  0999 V2000
   60.1990   28.7900   46.6070 N   0  0  0  0  0  0  0  0  0  0  0  0
   59.3250   28.0320   46.6250 C   0  0  0  0  0  0  0  0  0  0  0  0
   58.2400   27.0840   46.6590 C   0  0  0  0  0  0  0  0  0  0  0  0
   58.4940   25.8170   47.1990 C   0  0  0  0  0  0  0  0  0  0  0  0
   57.5040   24.8290   47.1870 C   0  0  0  0  0  0  0  0  0  0  0  0
   56.2530   25.0920   46.6270 C   0  0  0  0  0  0  0  0  0  0  0  0
   55.2100   24.1140   46.6120 N   0  0  0  0  0  0  0  0  0  0  0  0
   54.0740   23.8850   45.3170 S   0  0  0  0  0  0  0  0  0  0  0  0
   53.2740   22.6450   45.5880 O   0  0  0  0  0  0  0  0  0  0  0  0
   53.1330   25.0530   45.2560 O   0  0  0  0  0  0  0  0  0  0  0  0
   54.9100   23.7170   43.8020 N   0  0  0  0  0  0  0  0  0  0  0  0
   56.1530   22.5170   43.9590 S   0  0  0  0  0  0  0  0  0  0  0  0
   57.4490   23.1730   44.3510 O   0  0  0  0  0  0  0  0  0  0  0  0
   56.3320   21.8130   42.6460 O   0  0  0  0  0  0  0  0  0  0  0  0
   55.6810   21.3680   45.1670 N   0  0  0  0  0  0  0  0  0  0  0  0
   56.1770   21.3940   46.5080 C   0  0  0  0  0  0  0  0  0  0  0  0
   57.3940   21.1520   46.7400 O   0  0  0  0  0  0  0  0  0  0  0  0
   55.2890   21.7560   47.5740 N   0  0  0  0  0  0  0  0  0  0  0  0
   55.6380   21.7240   48.9700 C   0  0  0  0  0  0  0  0  0  0  0  0
   54.6260   21.5450   49.9260 C   0  0  0  0  0  0  0  0  0  0  0  0
   54.9400   21.4850   51.2880 C   0  0  0  0  0  0  0  0  0  0  0  0
   56.2700   21.5860   51.7030 C   0  0  0  0  0  0  0  0  0  0  0  0
   57.2910   21.7420   50.7590 C   0  0  0  0  0  0  0  0  0  0  0  0
   58.9620   21.8460   51.2840 Cl  0  0  0  0  0  0  0  0  0  0  0  0
   56.9780   21.8070   49.3980 C   0  0  0  0  0  0  0  0  0  0  0  0
   56.0030   26.3490   46.0690 C   0  0  0  0  0  0  0  0  0  0  0  0
   56.9660   27.3640   46.1100 C   0  0  0  0  0  0  0  0  0  0  0  0
   56.5990   28.6180   45.5940 O   0  0  0  0  0  0  0  0  0  0  0  0
   56.6390   29.0010   44.2150 C   0  0  0  0  0  0  0  0  0  0  0  0
   58.0700   29.2890   43.7490 C   0  0  0  0  0  0  0  0  0  0  0  0
   58.6660   30.3480   44.5690 N   0  0  0  0  0  0  0  0  0  0  0  0
   57.7950   31.8470   44.4010 S   0  0  0  0  0  0  0  0  0  0  0  0
   56.3430   31.6320   44.7410 O   0  0  0  0  0  0  0  0  0  0  0  0
   57.8830   32.3080   42.9720 O   0  0  0  0  0  0  0  0  0  0  0  0
   58.4790   33.0870   45.4470 C   0  0  0  0  0  0  0  0  0  0  0  0
   58.4710   32.9240   46.8420 C   0  0  0  0  0  0  0  0  0  0  0  0
   59.0300   33.9080   47.6650 C   0  0  0  0  0  0  0  0  0  0  0  0
   59.5970   35.0570   47.1000 C   0  0  0  0  0  0  0  0  0  0  0  0
   59.6100   35.2210   45.7120 C   0  0  0  0  0  0  0  0  0  0  0  0
   59.0560   34.2370   44.8860 C   0  0  0  0  0  0  0  0  0  0  0  0
   59.4793   25.5972   47.6358 H   0  0  0  0  0  0  0  0  0  0  0  0
   57.7124   23.8400   47.6210 H   0  0  0  0  0  0  0  0  0  0  0  0
   55.3890   24.6250   43.6060 H   0  0  0  0  0  0  0  0  0  0  0  0
   54.3780   22.1950   47.3100 H   0  0  0  0  0  0  0  0  0  0  0  0
   53.5789   21.4513   49.6021 H   0  0  0  0  0  0  0  0  0  0  0  0
   54.1397   21.3583   52.0320 H   0  0  0  0  0  0  0  0  0  0  0  0
   56.5153   21.5428   52.7744 H   0  0  0  0  0  0  0  0  0  0  0  0
   57.7825   21.9236   48.6569 H   0  0  0  0  0  0  0  0  0  0  0  0
   55.0325   26.5439   45.5893 H   0  0  0  0  0  0  0  0  0  0  0  0
   56.2230   28.1849   43.6060 H   0  0  0  0  0  0  0  0  0  0  0  0
   56.0478   29.9211   44.0970 H   0  0  0  0  0  0  0  0  0  0  0  0
   58.6736   28.3741   43.8423 H   0  0  0  0  0  0  0  0  0  0  0  0
   58.0464   29.6180   42.6996 H   0  0  0  0  0  0  0  0  0  0  0  0
   58.0252   32.0226   47.2877 H   0  0  0  0  0  0  0  0  0  0  0  0
   59.0240   33.7788   48.7574 H   0  0  0  0  0  0  0  0  0  0  0  0
   60.0325   35.8311   47.7490 H   0  0  0  0  0  0  0  0  0  0  0  0
   60.0558   36.1238   45.2690 H   0  0  0  0  0  0  0  0  0  0  0  0
   59.0727   34.3650   43.7936 H   0  0  0  0  0  0  0  0  0  0  0  0
  1  2  3  0
  2  3  1  0
  3  4  2  0
  4  5  1  0
  5  6  2  0
  6  7  1  0
  7  8  1  0
  8  9  2  0
  8 10  2  0
  8 11  1  0
 11 12  1  0
 12 13  2  0
 12 14  2  0
 12 15  1  0
 15 16  1  0
 16 17  2  0
 16 18  1  0
 18 19  1  0
 19 20  2  0
 20 21  1  0
 21 22  2  0
 22 23  1  0
 23 24  1  0
 23 25  2  0
  6 26  1  0
 26 27  2  0
 27 28  1  0
 28 29  1  0
 29 30  1  0
 30 31  1  0
 31 32  1  0
 32 33  2  0
 32 34  2  0
 32 35  1  0
 35 36  2  0
 36 37  1  0
 37 38  2  0
 38 39  1  0
 39 40  2  0
 27  3  1  0
 40 35  1  0
 25 19  1  0
  4 41  1  0
  5 42  1  0
 11 43  1  0
 18 44  1  0
 20 45  1  0
 21 46  1  0
 22 47  1  0
 25 48  1  0
 26 49  1  0
 29 50  1  0
 29 51  1  0
 30 52  1  0
 30 53  1  0
 36 54  1  0
 37 55  1  0
 38 56  1  0
 39 57  1  0
 40 58  1  0
M  CHG  3   7  -1  15  -1  31  -1
M  END
>  <UniqueID>  (13) 
12

>  <SMILES>  (13) 
N#Cc1ccc([N-]S(=O)(=O)NS(=O)(=O)[N-]C(=O)Nc2cccc(Cl)c2)cc1OCC[N-]S(=O)(=O)c1ccccc1

>  <Energy>  (13) 
67.23279247929342

>  <Genealogy>  (13) 
N#Cc1ccc([N-]S(=O)(=O)NS(=O)(=O)[N-]C(=O)Nc2cccc(Cl)c2)cc1OCC[N-]S(=O)(=O)c1ccccc1 (protonated)
N#Cc1ccc([N-]S(=O)(=O)NS(=O)(=O)[N-]C(=O)Nc2cccc(Cl)c2)cc1OCC[N-]S(=O)(=O)c1ccccc1 (3D coordinates assigned)
N#Cc1ccc([N-]S(=O)(=O)NS(=O)(=O)[N-]C(=O)Nc2cccc(Cl)c2)cc1OCC[N-]S(=O)(=O)c1ccccc1 (optimized conformer: 67.23279247929342 kcal/mol)

>  <smiles>  (13) 
N#Cc1ccc(NS(=O)(=O)NS(=O)(=O)NC(=O)Nc2cccc(Cl)c2)cc1OCCNS(=O)(=O)c1ccccc1

>  <score_type>  (13) 
oracle

>  <origin>  (13) 
adg

>  <m_score__min__energy>  (13) 
-13.15

>  <m_primary>  (13) 
energy

$$$$
13:0
     RDKit          3D

 40 41  0  0  0  0  0  0  0  0999 V2000
   54.5970   27.0730   46.7580 H   0  0  0  0  0  0  0  0  0  0  0  0
   55.1450   26.6420   45.9810 N   0  0  0  0  0  0  0  0  0  0  0  0
   56.5430   26.3900   46.1200 C   0  0  0  0  0  0  0  0  0  0  0  0
   56.9280   25.4700   46.8910 O   0  0  0  0  0  0  0  0  0  0  0  0
   57.5430   27.2340   45.4270 C   0  0  0  0  0  0  0  0  0  0  0  0
   57.8150   26.9500   44.0380 C   0  0  0  0  0  0  0  0  0  0  0  0
   58.0340   26.7210   42.9250 N   0  0  0  0  0  0  0  0  0  0  0  0
   58.2520   28.2080   46.0270 C   0  0  0  0  0  0  0  0  0  0  0  0
   58.9975   27.9025   46.7760 H   0  0  0  0  0  0  0  0  0  0  0  0
   58.1100   29.6550   45.7610 C   0  0  0  0  0  0  0  0  0  0  0  0
   58.2730   30.6050   46.7820 C   0  0  0  0  0  0  0  0  0  0  0  0
   58.5452   30.2757   47.7957 H   0  0  0  0  0  0  0  0  0  0  0  0
   58.0920   31.9660   46.5200 C   0  0  0  0  0  0  0  0  0  0  0  0
   58.2316   32.7014   47.3260 H   0  0  0  0  0  0  0  0  0  0  0  0
   57.7320   32.4010   45.2300 C   0  0  0  0  0  0  0  0  0  0  0  0
   57.5150   33.8330   44.9060 C   0  0  0  0  0  0  0  0  0  0  0  0
   56.4956   34.1640   44.6584 H   0  0  0  0  0  0  0  0  0  0  0  0
   58.4990   34.7430   44.9000 C   0  0  0  0  0  0  0  0  0  0  0  0
   58.5215   35.4797   44.0834 H   0  0  0  0  0  0  0  0  0  0  0  0
   59.5550   34.8100   45.9310 C   0  0  0  0  0  0  0  0  0  0  0  0
   59.6680   35.8740   46.5980 O   0  0  0  0  0  0  0  0  0  0  0  0
   60.4620   33.7190   46.1720 N   0  0  0  0  0  0  0  0  0  0  0  0
   60.3480   32.8140   45.6650 H   0  0  0  0  0  0  0  0  0  0  0  0
   61.4340   33.7560   47.2250 C   0  0  0  0  0  0  0  0  0  0  0  0
   62.7770   33.4990   46.9160 C   0  0  0  0  0  0  0  0  0  0  0  0
   63.0685   33.2936   45.8754 H   0  0  0  0  0  0  0  0  0  0  0  0
   63.7480   33.5020   47.9210 C   0  0  0  0  0  0  0  0  0  0  0  0
   64.7985   33.2921   47.6710 H   0  0  0  0  0  0  0  0  0  0  0  0
   63.3860   33.7710   49.2410 C   0  0  0  0  0  0  0  0  0  0  0  0
   64.1492   33.7603   50.0331 H   0  0  0  0  0  0  0  0  0  0  0  0
   62.0550   34.0540   49.5580 C   0  0  0  0  0  0  0  0  0  0  0  0
   61.7759   34.2713   50.5996 H   0  0  0  0  0  0  0  0  0  0  0  0
   61.0720   34.0630   48.5570 C   0  0  0  0  0  0  0  0  0  0  0  0
   59.7290   34.4310   48.8990 N   0  0  0  0  0  0  0  0  0  0  0  0
   59.3420   35.3720   48.6640 H   0  0  0  0  0  0  0  0  0  0  0  0
   59.1250   33.7840   49.4510 H   0  0  0  0  0  0  0  0  0  0  0  0
   57.5210   31.4420   44.2250 C   0  0  0  0  0  0  0  0  0  0  0  0
   57.2090   31.7645   43.2207 H   0  0  0  0  0  0  0  0  0  0  0  0
   57.7040   30.0820   44.4900 C   0  0  0  0  0  0  0  0  0  0  0  0
   57.5281   29.3420   43.6954 H   0  0  0  0  0  0  0  0  0  0  0  0
  1  2  1  0
  2  3  1  0
  3  4  2  0
  3  5  1  0
  5  6  1  0
  6  7  3  0
  5  8  2  3
  8  9  1  0
  8 10  1  0
 10 11  2  0
 11 12  1  0
 11 13  1  0
 13 14  1  0
 13 15  2  0
 15 16  1  0
 16 17  1  0
 16 18  2  0
 18 19  1  0
 18 20  1  0
 20 21  2  0
 20 22  1  0
 22 23  1  0
 22 24  1  0
 24 25  2  0
 25 26  1  0
 25 27  1  0
 27 28  1  0
 27 29  2  0
 29 30  1  0
 29 31  1  0
 31 32  1  0
 31 33  2  0
 33 34  1  0
 34 35  1  0
 34 36  1  0
 15 37  1  0
 37 38  1  0
 37 39  2  0
 39 40  1  0
 39 10  1  0
 33 24  1  0
M  CHG  1   2  -1
M  END
>  <UniqueID>  (14) 
13

>  <SMILES>  (14) 
N#CC(=Cc1ccc(/C=C/C(=O)Nc2ccccc2N)cc1)C([NH-])=O

>  <Energy>  (14) 
57.356869198988036

>  <Genealogy>  (14) 
N#CC(=Cc1ccc(C=CC(=O)Nc2ccccc2N)cc1)C([NH-])=O (protonated)
N#CC(=Cc1ccc(/C=C/C(=O)Nc2ccccc2N)cc1)C([NH-])=O (cis-trans isomerization)
N#CC(=Cc1ccc(/C=C/C(=O)Nc2ccccc2N)cc1)C([NH-])=O (3D coordinates assigned)
N#CC(=Cc1ccc(/C=C/C(=O)Nc2ccccc2N)cc1)C([NH-])=O (optimized conformer: 57.356869198988036 kcal/mol)

>  <smiles>  (14) 
N#CC(=Cc1ccc(C=CC(=O)Nc2ccccc2N)cc1)C(N)=O

>  <score_type>  (14) 
oracle

>  <origin>  (14) 
adg

>  <m_score__min__energy>  (14) 
-11.56

>  <m_primary>  (14) 
energy

$$$$
14:0
     RDKit          3D

 46 47  0  0  0  0  0  0  0  0999 V2000
   57.4860   32.1940   41.6160 C   0  0  0  0  0  0  0  0  0  0  0  0
   57.9120   32.1830   43.0480 C   0  0  0  0  0  0  0  0  0  0  0  0
   58.4620   33.2380   43.6730 N   0  0  0  0  0  0  0  0  0  0  0  0
   58.7010   32.9110   44.9380 N   0  0  0  0  0  0  0  0  0  0  0  0
   59.2430   33.8930   45.9120 C   0  0  0  0  0  0  0  0  0  0  0  0
   59.3580   35.3070   45.2950 C   0  0  0  0  0  0  0  0  0  0  0  0
   60.6190   33.4140   46.4090 C   0  0  0  0  0  0  0  0  0  0  0  0
   58.2960   33.9960   47.1340 C   0  0  0  0  0  0  0  0  0  0  0  0
   58.2700   31.6330   45.1390 C   0  0  0  0  0  0  0  0  0  0  0  0
   58.3150   30.8620   46.4290 C   0  0  0  0  0  0  0  0  0  0  0  0
   57.7900   31.1340   43.9360 C   0  0  0  0  0  0  0  0  0  0  0  0
   57.1870   29.7800   43.6690 C   0  0  0  0  0  0  0  0  0  0  0  0
   56.0510   29.4720   44.6140 C   0  0  0  0  0  0  0  0  0  0  0  0
   55.1580   30.3320   44.8240 O   0  0  0  0  0  0  0  0  0  0  0  0
   55.9290   28.1880   45.2370 N   0  0  0  0  0  0  0  0  0  0  0  0
   56.9880   27.5480   46.0070 C   0  0  0  0  0  0  0  0  0  0  0  0
   57.0340   26.0800   45.6810 C   0  0  0  0  0  0  0  0  0  0  0  0
   56.6030   25.1440   46.6370 C   0  0  0  0  0  0  0  0  0  0  0  0
   56.6320   23.7760   46.3520 C   0  0  0  0  0  0  0  0  0  0  0  0
   57.0980   23.3280   45.1140 C   0  0  0  0  0  0  0  0  0  0  0  0
   57.1180   22.0000   44.8370 F   0  0  0  0  0  0  0  0  0  0  0  0
   57.5540   24.2450   44.1650 C   0  0  0  0  0  0  0  0  0  0  0  0
   57.5340   25.6180   44.4430 C   0  0  0  0  0  0  0  0  0  0  0  0
   58.1380   26.7280   43.2160 Cl  0  0  0  0  0  0  0  0  0  0  0  0
   56.3878   32.2224   41.5604 H   0  0  0  0  0  0  0  0  0  0  0  0
   57.9015   33.0817   41.1167 H   0  0  0  0  0  0  0  0  0  0  0  0
   57.8551   31.2860   41.1167 H   0  0  0  0  0  0  0  0  0  0  0  0
   59.4188   36.0544   46.0998 H   0  0  0  0  0  0  0  0  0  0  0  0
   60.2637   35.3632   44.6732 H   0  0  0  0  0  0  0  0  0  0  0  0
   58.4733   35.5088   44.6732 H   0  0  0  0  0  0  0  0  0  0  0  0
   60.6305   33.4100   47.5089 H   0  0  0  0  0  0  0  0  0  0  0  0
   60.8096   32.3967   46.0366 H   0  0  0  0  0  0  0  0  0  0  0  0
   61.4001   34.0931   46.0366 H   0  0  0  0  0  0  0  0  0  0  0  0
   58.8850   33.9319   48.0608 H   0  0  0  0  0  0  0  0  0  0  0  0
   57.7624   34.9575   47.1044 H   0  0  0  0  0  0  0  0  0  0  0  0
   57.5682   33.1717   47.1044 H   0  0  0  0  0  0  0  0  0  0  0  0
   58.2741   31.5623   47.2763 H   0  0  0  0  0  0  0  0  0  0  0  0
   57.4553   30.1775   46.4772 H   0  0  0  0  0  0  0  0  0  0  0  0
   59.2485   30.2822   46.4772 H   0  0  0  0  0  0  0  0  0  0  0  0
   56.8068   29.7575   42.6370 H   0  0  0  0  0  0  0  0  0  0  0  0
   57.9704   29.0228   43.8203 H   0  0  0  0  0  0  0  0  0  0  0  0
   57.9541   28.0094   45.7543 H   0  0  0  0  0  0  0  0  0  0  0  0
   56.7873   27.6771   47.0808 H   0  0  0  0  0  0  0  0  0  0  0  0
   56.2405   25.4905   47.6160 H   0  0  0  0  0  0  0  0  0  0  0  0
   56.2872   23.0510   47.1040 H   0  0  0  0  0  0  0  0  0  0  0  0
   57.9305   23.8880   43.1951 H   0  0  0  0  0  0  0  0  0  0  0  0
  1  2  1  0
  2  3  2  0
  3  4  1  0
  4  5  1  0
  5  6  1  0
  5  7  1  0
  5  8  1  0
  4  9  1  0
  9 10  1  0
  9 11  2  0
 11 12  1  0
 12 13  1  0
 13 14  2  0
 13 15  1  0
 15 16  1  0
 16 17  1  0
 17 18  2  0
 18 19  1  0
 19 20  2  0
 20 21  1  0
 20 22  1  0
 22 23  2  0
 23 24  1  0
 11  2  1  0
 23 17  1  0
  1 25  1  0
  1 26  1  0
  1 27  1  0
  6 28  1  0
  6 29  1  0
  6 30  1  0
  7 31  1  0
  7 32  1  0
  7 33  1  0
  8 34  1  0
  8 35  1  0
  8 36  1  0
 10 37  1  0
 10 38  1  0
 10 39  1  0
 12 40  1  0
 12 41  1  0
 16 42  1  0
 16 43  1  0
 18 44  1  0
 19 45  1  0
 22 46  1  0
M  CHG  1  15  -1
M  END
>  <UniqueID>  (15) 
14

>  <SMILES>  (15) 
Cc1nn(C(C)(C)C)c(C)c1CC(=O)[N-]Cc1ccc(F)cc1Cl

>  <Energy>  (15) 
72.99848480587706

>  <Genealogy>  (15) 
Cc1nn(C(C)(C)C)c(C)c1CC(=O)[N-]Cc1ccc(F)cc1Cl (protonated)
Cc1nn(C(C)(C)C)c(C)c1CC(=O)[N-]Cc1ccc(F)cc1Cl (3D coordinates assigned)
Cc1nn(C(C)(C)C)c(C)c1CC(=O)[N-]Cc1ccc(F)cc1Cl (optimized conformer: 72.99848480587706 kcal/mol)

>  <smiles>  (15) 
Cc1nn(C(C)(C)C)c(C)c1CC(=O)NCc1ccc(F)cc1Cl

>  <score_type>  (15) 
oracle

>  <origin>  (15) 
adg

>  <m_score__min__energy>  (15) 
-10.380000000000001

>  <m_primary>  (15) 
energy

$$$$
15:0
     RDKit          3D

 48 50  0  0  0  0  0  0  0  0999 V2000
   59.8100   26.1960   46.2560 C   0  0  0  0  0  0  0  0  0  0  0  0
   59.0200   27.3360   45.6700 C   0  0  0  0  0  0  0  0  0  0  0  0
   59.7020   28.4740   45.2100 C   0  0  0  0  0  0  0  0  0  0  0  0
   59.0050   29.5530   44.6660 C   0  0  0  0  0  0  0  0  0  0  0  0
   57.6120   29.5100   44.5670 C   0  0  0  0  0  0  0  0  0  0  0  0
   56.7200   30.8520   43.8550 S   0  0  0  0  0  0  0  0  0  0  0  0
   55.3110   30.4450   43.5170 O   0  0  0  0  0  0  0  0  0  0  0  0
   57.4170   31.2820   42.5950 O   0  0  0  0  0  0  0  0  0  0  0  0
   56.6800   32.1830   44.9670 N   0  0  0  0  0  0  0  0  0  0  0  0
   57.8200   32.7250   45.6470 C   0  0  0  0  0  0  0  0  0  0  0  0
   58.3060   32.0590   46.7780 C   0  0  0  0  0  0  0  0  0  0  0  0
   59.4190   32.5500   47.4650 C   0  0  0  0  0  0  0  0  0  0  0  0
   60.0710   33.7140   47.0320 C   0  0  0  0  0  0  0  0  0  0  0  0
   61.2220   34.1860   47.7560 N   0  0  0  0  0  0  0  0  0  0  0  0
   62.8000   33.4740   47.6270 S   0  0  0  0  0  0  0  0  0  0  0  0
   62.6620   32.0440   47.1850 O   0  0  0  0  0  0  0  0  0  0  0  0
   63.6020   34.2270   46.6030 O   0  0  0  0  0  0  0  0  0  0  0  0
   63.6250   33.5710   49.1790 C   0  0  0  0  0  0  0  0  0  0  0  0
   63.0190   34.2430   50.2490 C   0  0  0  0  0  0  0  0  0  0  0  0
   63.6560   34.3040   51.4920 C   0  0  0  0  0  0  0  0  0  0  0  0
   64.8970   33.6860   51.6750 C   0  0  0  0  0  0  0  0  0  0  0  0
   65.5070   33.0160   50.6100 C   0  0  0  0  0  0  0  0  0  0  0  0
   67.0650   32.2420   50.8370 Cl  0  0  0  0  0  0  0  0  0  0  0  0
   64.8730   32.9600   49.3630 C   0  0  0  0  0  0  0  0  0  0  0  0
   59.5700   34.3930   45.9060 C   0  0  0  0  0  0  0  0  0  0  0  0
   58.4590   33.9010   45.2160 C   0  0  0  0  0  0  0  0  0  0  0  0
   56.9180   28.3850   45.0250 C   0  0  0  0  0  0  0  0  0  0  0  0
   57.6060   27.2900   45.5740 C   0  0  0  0  0  0  0  0  0  0  0  0
   56.6800   25.8870   46.1360 S   0  0  0  0  0  0  0  0  0  0  0  0
   54.9800   26.1720   45.9970 N   0  0  0  0  0  0  0  0  0  0  0  0
   57.0040   25.6190   47.5790 O   0  0  0  0  0  0  0  0  0  0  0  0
   57.0320   24.6830   45.3100 O   0  0  0  0  0  0  0  0  0  0  0  0
   59.7725   26.2501   47.3540 H   0  0  0  0  0  0  0  0  0  0  0  0
   59.3791   25.2409   45.9210 H   0  0  0  0  0  0  0  0  0  0  0  0
   60.8555   26.2641   45.9210 H   0  0  0  0  0  0  0  0  0  0  0  0
   60.7990   28.5151   45.2794 H   0  0  0  0  0  0  0  0  0  0  0  0
   59.5532   30.4394   44.3143 H   0  0  0  0  0  0  0  0  0  0  0  0
   57.8083   31.1428   47.1284 H   0  0  0  0  0  0  0  0  0  0  0  0
   59.7878   32.0183   48.3546 H   0  0  0  0  0  0  0  0  0  0  0  0
   61.0980   34.9290   48.4780 H   0  0  0  0  0  0  0  0  0  0  0  0
   62.0394   34.7238   50.1105 H   0  0  0  0  0  0  0  0  0  0  0  0
   63.1803   34.8389   52.3272 H   0  0  0  0  0  0  0  0  0  0  0  0
   65.3929   33.7269   52.6560 H   0  0  0  0  0  0  0  0  0  0  0  0
   65.3556   32.4351   48.5254 H   0  0  0  0  0  0  0  0  0  0  0  0
   60.0570   35.3189   45.5661 H   0  0  0  0  0  0  0  0  0  0  0  0
   58.0826   34.4361   44.3317 H   0  0  0  0  0  0  0  0  0  0  0  0
   55.8206   28.3574   44.9544 H   0  0  0  0  0  0  0  0  0  0  0  0
   54.7760   27.0760   46.4820 H   0  0  0  0  0  0  0  0  0  0  0  0
  1  2  1  0
  2  3  2  0
  3  4  1  0
  4  5  2  0
  5  6  1  0
  6  7  2  0
  6  8  2  0
  6  9  1  0
  9 10  1  0
 10 11  2  0
 11 12  1  0
 12 13  2  0
 13 14  1  0
 14 15  1  0
 15 16  2  0
 15 17  2  0
 15 18  1  0
 18 19  2  0
 19 20  1  0
 20 21  2  0
 21 22  1  0
 22 23  1  0
 22 24  2  0
 13 25  1  0
 25 26  2  0
  5 27  1  0
 27 28  2  0
 28 29  1  0
 29 30  1  0
 29 31  2  0
 29 32  2  0
 28  2  1  0
 26 10  1  0
 24 18  1  0
  1 33  1  0
  1 34  1  0
  1 35  1  0
  3 36  1  0
  4 37  1  0
 11 38  1  0
 12 39  1  0
 14 40  1  0
 19 41  1  0
 20 42  1  0
 21 43  1  0
 24 44  1  0
 25 45  1  0
 26 46  1  0
 27 47  1  0
 30 48  1  0
M  CHG  2   9  -1  30  -1
M  END
>  <UniqueID>  (16) 
15

>  <SMILES>  (16) 
Cc1ccc(S(=O)(=O)[N-]c2ccc(NS(=O)(=O)c3cccc(Cl)c3)cc2)cc1S([NH-])(=O)=O

>  <Energy>  (16) 
57.125365757616315

>  <Genealogy>  (16) 
Cc1ccc(S(=O)(=O)[N-]c2ccc(NS(=O)(=O)c3cccc(Cl)c3)cc2)cc1S([NH-])(=O)=O (protonated)
Cc1ccc(S(=O)(=O)[N-]c2ccc(NS(=O)(=O)c3cccc(Cl)c3)cc2)cc1S([NH-])(=O)=O (3D coordinates assigned)
Cc1ccc(S(=O)(=O)[N-]c2ccc(NS(=O)(=O)c3cccc(Cl)c3)cc2)cc1S([NH-])(=O)=O (optimized conformer: 57.125365757616315 kcal/mol)

>  <smiles>  (16) 
Cc1ccc(S(=O)(=O)Nc2ccc(NS(=O)(=O)c3cccc(Cl)c3)cc2)cc1S(N)(=O)=O

>  <score_type>  (16) 
oracle

>  <origin>  (16) 
adg

>  <m_score__min__energy>  (16) 
-15.01

>  <m_primary>  (16) 
energy

$$$$
16:0
     RDKit          3D

 54 59  0  0  0  0  0  0  0  0999 V2000
   52.8857   32.0756   53.3010 H   0  0  0  0  0  0  0  0  0  0  0  0
   52.8970   31.2010   52.6340 C   0  0  0  0  0  0  0  0  0  0  0  0
   52.1030   31.2670   51.3950 C   0  0  0  0  0  0  0  0  0  0  0  0
   52.1760   30.3400   50.4240 N   0  0  0  0  0  0  0  0  0  0  0  0
   51.3600   30.8250   49.4630 C   0  0  0  0  0  0  0  0  0  0  0  0
   51.1530   30.2190   48.3790 O   0  0  0  0  0  0  0  0  0  0  0  0
   50.7920   32.0150   49.7500 N   0  0  0  0  0  0  0  0  0  0  0  0
   51.2800   32.2880   50.9710 C   0  0  0  0  0  0  0  0  0  0  0  0
   51.0190   33.4690   51.6550 O   0  0  0  0  0  0  0  0  0  0  0  0
   53.6320   30.1420   52.9990 C   0  0  0  0  0  0  0  0  0  0  0  0
   53.2190   28.9410   53.5550 C   0  0  0  0  0  0  0  0  0  0  0  0
   52.1868   28.6933   53.8435 H   0  0  0  0  0  0  0  0  0  0  0  0
   54.2870   28.1230   53.6860 N   0  0  0  0  0  0  0  0  0  0  0  0
   54.1810   27.1430   53.9820 H   0  0  0  0  0  0  0  0  0  0  0  0
   55.3760   28.7540   53.2570 N   0  0  0  0  0  0  0  0  0  0  0  0
   56.6960   28.3640   53.1320 C   0  0  0  0  0  0  0  0  0  0  0  0
   57.2550   27.2860   53.6300 N   0  0  0  0  0  0  0  0  0  0  0  0
   58.4360   26.6940   54.2850 C   0  0  0  0  0  0  0  0  0  0  0  0
   57.8341   26.1409   55.0210 H   0  0  0  0  0  0  0  0  0  0  0  0
   59.6120   26.3290   53.4180 C   0  0  0  0  0  0  0  0  0  0  0  0
   60.2101   25.4345   53.6463 H   0  0  0  0  0  0  0  0  0  0  0  0
   59.7681   26.1549   52.3431 H   0  0  0  0  0  0  0  0  0  0  0  0
   59.6670   27.5580   54.3520 C   0  0  0  0  0  0  0  0  0  0  0  0
   60.3046   27.5425   55.2483 H   0  0  0  0  0  0  0  0  0  0  0  0
   59.8790   28.6297   54.2237 H   0  0  0  0  0  0  0  0  0  0  0  0
   57.5380   29.2230   52.4930 N   0  0  0  0  0  0  0  0  0  0  0  0
   57.1230   30.4290   52.0110 C   0  0  0  0  0  0  0  0  0  0  0  0
   57.9520   31.2440   51.4260 N   0  0  0  0  0  0  0  0  0  0  0  0
   58.5500   31.0830   50.1280 C   0  0  0  0  0  0  0  0  0  0  0  0
   59.1460   29.8750   49.7330 C   0  0  0  0  0  0  0  0  0  0  0  0
   59.1920   29.0295   50.4352 H   0  0  0  0  0  0  0  0  0  0  0  0
   59.6790   29.7460   48.4530 C   0  0  0  0  0  0  0  0  0  0  0  0
   60.1567   28.8018   48.1525 H   0  0  0  0  0  0  0  0  0  0  0  0
   59.6110   30.8070   47.5490 C   0  0  0  0  0  0  0  0  0  0  0  0
   60.0430   30.6907   46.5441 H   0  0  0  0  0  0  0  0  0  0  0  0
   58.9950   32.0300   47.9050 C   0  0  0  0  0  0  0  0  0  0  0  0
   58.9100   33.1400   46.9560 N   0  0  0  0  0  0  0  0  0  0  0  0
   59.9020   34.2350   47.0320 C   0  0  0  0  0  0  0  0  0  0  0  0
   59.8790   34.6552   48.0483 H   0  0  0  0  0  0  0  0  0  0  0  0
   60.8812   33.8013   46.7808 H   0  0  0  0  0  0  0  0  0  0  0  0
   59.6430   35.3660   46.0350 C   0  0  0  0  0  0  0  0  0  0  0  0
   58.8799   36.0419   46.4484 H   0  0  0  0  0  0  0  0  0  0  0  0
   60.5863   35.9060   45.8658 H   0  0  0  0  0  0  0  0  0  0  0  0
   59.1900   34.8600   44.8030 O   0  0  0  0  0  0  0  0  0  0  0  0
   57.8960   34.3390   44.9870 C   0  0  0  0  0  0  0  0  0  0  0  0
   57.2703   35.0967   45.4814 H   0  0  0  0  0  0  0  0  0  0  0  0
   57.4804   34.0780   44.0025 H   0  0  0  0  0  0  0  0  0  0  0  0
   57.9300   33.0760   45.8520 C   0  0  0  0  0  0  0  0  0  0  0  0
   56.9298   32.9233   46.2836 H   0  0  0  0  0  0  0  0  0  0  0  0
   58.2353   32.2459   45.1980 H   0  0  0  0  0  0  0  0  0  0  0  0
   58.4520   32.1350   49.2090 C   0  0  0  0  0  0  0  0  0  0  0  0
   57.9422   33.0633   49.5063 H   0  0  0  0  0  0  0  0  0  0  0  0
   55.8340   30.8130   52.1870 N   0  0  0  0  0  0  0  0  0  0  0  0
   54.9860   29.9650   52.8100 C   0  0  0  0  0  0  0  0  0  0  0  0
  1  2  1  0
  2  3  1  0
  3  4  1  0
  4  5  1  0
  5  6  2  0
  5  7  1  0
  7  8  1  0
  8  9  1  0
  2 10  2  3
 10 11  1  0
 11 12  1  0
 11 13  2  0
 13 14  1  0
 13 15  1  0
 15 16  1  0
 16 17  2  0
 17 18  1  0
 18 19  1  0
 18 20  1  0
 20 21  1  0
 20 22  1  0
 20 23  1  0
 23 24  1  0
 23 25  1  0
 16 26  1  0
 26 27  1  0
 27 28  2  3
 28 29  1  0
 29 30  2  0
 30 31  1  0
 30 32  1  0
 32 33  1  0
 32 34  2  0
 34 35  1  0
 34 36  1  0
 36 37  1  0
 37 38  1  0
 38 39  1  0
 38 40  1  0
 38 41  1  0
 41 42  1  0
 41 43  1  0
 41 44  1  0
 44 45  1  0
 45 46  1  0
 45 47  1  0
 45 48  1  0
 48 49  1  0
 48 50  1  0
 36 51  2  0
 51 52  1  0
 27 53  1  0
 53 54  2  0
  8  3  2  0
 54 10  1  0
 54 15  1  0
 23 18  1  0
 51 29  1  0
 48 37  1  0
M  CHG  5   4  -1   7  -1   9  -1  13   1  26  -1
M  END
>  <UniqueID>  (17) 
16

>  <SMILES>  (17) 
O=c1[n-]c([O-])c(C=c2c[nH+]n3/c(=N\C4CC4)[n-]c(=Nc4cccc(N5CCOCC5)c4)nc23)[n-]1

>  <Energy>  (17) 
452.5629875682754

>  <Genealogy>  (17) 
O=c1[n-]c([O-])c(C=c2c[nH+]n3c(=NC4CC4)[n-]c(=Nc4cccc(N5CCOCC5)c4)nc23)[n-]1 (protonated)
O=c1[n-]c([O-])c(C=c2c[nH+]n3/c(=N\C4CC4)[n-]c(=Nc4cccc(N5CCOCC5)c4)nc23)[n-]1 (cis-trans isomerization)
O=c1[n-]c([O-])c(C=c2c[nH+]n3/c(=N\C4CC4)[n-]c(=Nc4cccc(N5CCOCC5)c4)nc23)[n-]1 (3D coordinates assigned)
O=c1[n-]c([O-])c(C=c2c[nH+]n3/c(=N\C4CC4)[n-]c(=Nc4cccc(N5CCOCC5)c4)nc23)[n-]1 (nonaromatic ring conformer: 452.5629875682754 kcal/mol)

>  <smiles>  (17) 
O=c1[nH]c(O)c(C=c2cnn3c(=NC4CC4)[nH]c(=Nc4cccc(N5CCOCC5)c4)nc23)[nH]1

>  <score_type>  (17) 
oracle

>  <origin>  (17) 
adg

>  <m_score__min__energy>  (17) 
-17.649999999999999

>  <m_primary>  (17) 
energy

$$$$
17:0
     RDKit          3D

 33 34  0  0  0  0  0  0  0  0999 V2000
   59.0700   36.2180   54.5980 C   0  0  0  0  0  0  0  0  0  0  0  0
   59.4750   34.4870   54.5930 S   0  0  0  0  0  0  0  0  0  0  0  0
   58.8730   33.8370   55.8060 O   0  0  0  0  0  0  0  0  0  0  0  0
   60.9700   34.3350   54.6160 O   0  0  0  0  0  0  0  0  0  0  0  0
   58.8300   33.7660   53.1550 N   0  0  0  0  0  0  0  0  0  0  0  0
   57.9880   32.6050   53.1160 C   0  0  0  0  0  0  0  0  0  0  0  0
   56.8120   32.5650   52.3460 C   0  0  0  0  0  0  0  0  0  0  0  0
   56.0180   31.4160   52.3290 C   0  0  0  0  0  0  0  0  0  0  0  0
   56.3790   30.2840   53.0800 C   0  0  0  0  0  0  0  0  0  0  0  0
   55.5340   29.0660   53.0600 C   0  0  0  0  0  0  0  0  0  0  0  0
   55.8770   28.0530   53.7300 O   0  0  0  0  0  0  0  0  0  0  0  0
   54.3020   29.0580   52.3260 N   0  0  0  0  0  0  0  0  0  0  0  0
   53.3210   30.1050   52.2810 C   0  0  0  0  0  0  0  0  0  0  0  0
   53.0730   30.7400   51.0580 C   0  0  0  0  0  0  0  0  0  0  0  0
   52.1080   31.7490   50.9650 C   0  0  0  0  0  0  0  0  0  0  0  0
   51.3720   32.1180   52.0950 C   0  0  0  0  0  0  0  0  0  0  0  0
   50.4160   33.1230   52.0030 O   0  0  0  0  0  0  0  0  0  0  0  0
   51.5940   31.4730   53.3140 C   0  0  0  0  0  0  0  0  0  0  0  0
   52.5570   30.4620   53.4100 C   0  0  0  0  0  0  0  0  0  0  0  0
   57.5540   30.3280   53.8510 C   0  0  0  0  0  0  0  0  0  0  0  0
   58.3550   31.4790   53.8680 C   0  0  0  0  0  0  0  0  0  0  0  0
   59.5210   31.5100   54.6330 O   0  0  0  0  0  0  0  0  0  0  0  0
   58.9871   36.5722   55.6361 H   0  0  0  0  0  0  0  0  0  0  0  0
   59.8607   36.7811   54.0805 H   0  0  0  0  0  0  0  0  0  0  0  0
   58.1116   36.3718   54.0805 H   0  0  0  0  0  0  0  0  0  0  0  0
   56.5158   33.4434   51.7538 H   0  0  0  0  0  0  0  0  0  0  0  0
   55.1010   31.3968   51.7218 H   0  0  0  0  0  0  0  0  0  0  0  0
   53.6409   30.4435   50.1638 H   0  0  0  0  0  0  0  0  0  0  0  0
   51.9285   32.2517   50.0032 H   0  0  0  0  0  0  0  0  0  0  0  0
   51.0103   31.7605   54.2009 H   0  0  0  0  0  0  0  0  0  0  0  0
   52.7177   29.9455   54.3678 H   0  0  0  0  0  0  0  0  0  0  0  0
   57.8478   29.4511   54.4466 H   0  0  0  0  0  0  0  0  0  0  0  0
   60.0620   32.3590   54.7440 H   0  0  0  0  0  0  0  0  0  0  0  0
  1  2  1  0
  2  3  2  0
  2  4  2  0
  2  5  1  0
  5  6  1  0
  6  7  2  0
  7  8  1  0
  8  9  2  0
  9 10  1  0
 10 11  2  0
 10 12  1  0
 12 13  1  0
 13 14  2  0
 14 15  1  0
 15 16  2  0
 16 17  1  0
 16 18  1  0
 18 19  2  0
  9 20  1  0
 20 21  2  0
 21 22  1  0
 21  6  1  0
 19 13  1  0
  1 23  1  0
  1 24  1  0
  1 25  1  0
  7 26  1  0
  8 27  1  0
 14 28  1  0
 15 29  1  0
 18 30  1  0
 19 31  1  0
 20 32  1  0
 22 33  1  0
M  CHG  3   5  -1  12  -1  17  -1
M  END
>  <UniqueID>  (18) 
17

>  <SMILES>  (18) 
CS(=O)(=O)[N-]c1ccc(C(=O)[N-]c2ccc([O-])cc2)cc1O

>  <Energy>  (18) 
37.00082358233868

>  <Genealogy>  (18) 
CS(=O)(=O)[N-]c1ccc(C(=O)[N-]c2ccc([O-])cc2)cc1O (protonated)
CS(=O)(=O)[N-]c1ccc(C(=O)[N-]c2ccc([O-])cc2)cc1O (3D coordinates assigned)
CS(=O)(=O)[N-]c1ccc(C(=O)[N-]c2ccc([O-])cc2)cc1O (optimized conformer: 37.00082358233868 kcal/mol)

>  <smiles>  (18) 
CS(=O)(=O)Nc1ccc(C(=O)Nc2ccc(O)cc2)cc1O

>  <score_type>  (18) 
oracle

>  <origin>  (18) 
adg

>  <m_score__min__energy>  (18) 
-12.02

>  <m_primary>  (18) 
energy

$$$$
18:0
     RDKit          3D

 30 32  0  0  0  0  0  0  0  0999 V2000
   59.2670   35.4240   45.2040 O   0  0  0  0  0  0  0  0  0  0  0  0
   58.8950   34.2350   45.0160 C   0  0  0  0  0  0  0  0  0  0  0  0
   58.5600   33.8370   43.7710 N   0  0  0  0  0  0  0  0  0  0  0  0
   58.1220   32.5830   43.5020 C   0  0  0  0  0  0  0  0  0  0  0  0
   57.8780   32.2210   41.9190 S   0  0  0  0  0  0  0  0  0  0  0  0
   57.9670   31.6620   44.5210 N   0  0  0  0  0  0  0  0  0  0  0  0
   57.1790   30.1060   44.2400 S   0  0  0  0  0  0  0  0  0  0  0  0
   55.8160   30.1250   44.8770 O   0  0  0  0  0  0  0  0  0  0  0  0
   56.9730   29.8230   42.7780 O   0  0  0  0  0  0  0  0  0  0  0  0
   58.1530   28.8150   44.9340 C   0  0  0  0  0  0  0  0  0  0  0  0
   57.5360   27.7340   45.5820 C   0  0  0  0  0  0  0  0  0  0  0  0
   58.3130   26.7120   46.1370 C   0  0  0  0  0  0  0  0  0  0  0  0
   59.7080   26.7630   46.0440 C   0  0  0  0  0  0  0  0  0  0  0  0
   60.3260   27.8360   45.3960 C   0  0  0  0  0  0  0  0  0  0  0  0
   59.5520   28.8590   44.8400 C   0  0  0  0  0  0  0  0  0  0  0  0
   58.4100   31.9940   45.7920 C   0  0  0  0  0  0  0  0  0  0  0  0
   58.4730   31.0460   46.8450 C   0  0  0  0  0  0  0  0  0  0  0  0
   58.8870   31.4190   48.1260 C   0  0  0  0  0  0  0  0  0  0  0  0
   59.2630   32.7320   48.3890 C   0  0  0  0  0  0  0  0  0  0  0  0
   59.2550   33.6770   47.3660 C   0  0  0  0  0  0  0  0  0  0  0  0
   58.8500   33.3160   46.0670 C   0  0  0  0  0  0  0  0  0  0  0  0
   56.4392   27.6903   45.6536 H   0  0  0  0  0  0  0  0  0  0  0  0
   57.8268   25.8674   46.6471 H   0  0  0  0  0  0  0  0  0  0  0  0
   60.3183   25.9588   46.4808 H   0  0  0  0  0  0  0  0  0  0  0  0
   61.4229   27.8757   45.3233 H   0  0  0  0  0  0  0  0  0  0  0  0
   60.0412   29.7005   44.3276 H   0  0  0  0  0  0  0  0  0  0  0  0
   58.1915   30.0007   46.6500 H   0  0  0  0  0  0  0  0  0  0  0  0
   58.9158   30.6701   48.9312 H   0  0  0  0  0  0  0  0  0  0  0  0
   59.5667   33.0241   49.4051 H   0  0  0  0  0  0  0  0  0  0  0  0
   59.5669   34.7111   47.5742 H   0  0  0  0  0  0  0  0  0  0  0  0
  1  2  2  0
  2  3  1  0
  3  4  1  0
  4  5  2  0
  4  6  1  0
  6  7  1  0
  7  8  2  0
  7  9  2  0
  7 10  1  0
 10 11  2  0
 11 12  1  0
 12 13  2  0
 13 14  1  0
 14 15  2  0
  6 16  1  0
 16 17  2  0
 17 18  1  0
 18 19  2  0
 19 20  1  0
 20 21  2  0
 21  2  1  0
 15 10  1  0
 21 16  1  0
 11 22  1  0
 12 23  1  0
 13 24  1  0
 14 25  1  0
 15 26  1  0
 17 27  1  0
 18 28  1  0
 19 29  1  0
 20 30  1  0
M  CHG  1   3  -1
M  END
>  <UniqueID>  (19) 
18

>  <SMILES>  (19) 
O=c1[n-]c(=S)n(S(=O)(=O)c2ccccc2)c2ccccc12

>  <Energy>  (19) 
52.879160479425366

>  <Genealogy>  (19) 
O=c1[n-]c(=S)n(S(=O)(=O)c2ccccc2)c2ccccc12 (protonated)
O=c1[n-]c(=S)n(S(=O)(=O)c2ccccc2)c2ccccc12 (3D coordinates assigned)
O=c1[n-]c(=S)n(S(=O)(=O)c2ccccc2)c2ccccc12 (optimized conformer: 52.879160479425366 kcal/mol)

>  <smiles>  (19) 
O=c1[nH]c(=S)n(S(=O)(=O)c2ccccc2)c2ccccc12

>  <score_type>  (19) 
oracle

>  <origin>  (19) 
adg

>  <m_score__min__energy>  (19) 
-9.0099999999999998

>  <m_primary>  (19) 
energy

$$$$
19:0
     RDKit          3D

 51 53  0  0  0  0  0  0  0  0999 V2000
   57.0030   21.5040   43.1920 C   0  0  0  0  0  0  0  0  0  0  0  0
   56.4970   22.9420   43.1610 C   0  0  0  0  0  0  0  0  0  0  0  0
   55.1020   22.9910   43.4560 O   0  0  0  0  0  0  0  0  0  0  0  0
   54.5850   23.4930   44.6570 C   0  0  0  0  0  0  0  0  0  0  0  0
   53.5820   22.9550   45.2020 O   0  0  0  0  0  0  0  0  0  0  0  0
   55.2210   24.6560   45.2840 C   0  0  0  0  0  0  0  0  0  0  0  0
   56.5600   24.7870   45.5900 C   0  0  0  0  0  0  0  0  0  0  0  0
   56.6430   26.0480   46.1320 C   0  0  0  0  0  0  0  0  0  0  0  0
   58.1130   26.8250   46.6870 S   0  0  0  0  0  0  0  0  0  0  0  0
   59.0430   25.7830   47.2390 O   0  0  0  0  0  0  0  0  0  0  0  0
   57.7900   27.8170   47.7680 O   0  0  0  0  0  0  0  0  0  0  0  0
   58.8760   27.6370   45.3650 N   0  0  0  0  0  0  0  0  0  0  0  0
   58.2070   28.6900   44.6700 C   0  0  0  0  0  0  0  0  0  0  0  0
   57.3980   28.3680   43.5740 C   0  0  0  0  0  0  0  0  0  0  0  0
   56.6910   29.3650   42.9000 C   0  0  0  0  0  0  0  0  0  0  0  0
   56.7950   30.6930   43.3130 C   0  0  0  0  0  0  0  0  0  0  0  0
   57.6070   31.0300   44.3990 C   0  0  0  0  0  0  0  0  0  0  0  0
   58.3220   30.0360   45.0930 C   0  0  0  0  0  0  0  0  0  0  0  0
   59.1960   30.4200   46.2270 C   0  0  0  0  0  0  0  0  0  0  0  0
   60.3910   30.7600   46.0080 O   0  0  0  0  0  0  0  0  0  0  0  0
   58.6970   30.4020   47.5750 N   0  0  0  0  0  0  0  0  0  0  0  0
   59.4870   30.8750   48.7100 C   0  0  0  0  0  0  0  0  0  0  0  0
   59.1420   32.3300   49.0340 C   0  0  0  0  0  0  0  0  0  0  0  0
   59.0140   33.1380   47.7710 C   0  0  0  0  0  0  0  0  0  0  0  0
   60.1460   33.7400   47.1950 C   0  0  0  0  0  0  0  0  0  0  0  0
   60.0310   34.4600   46.0020 C   0  0  0  0  0  0  0  0  0  0  0  0
   58.7890   34.5760   45.3700 C   0  0  0  0  0  0  0  0  0  0  0  0
   57.6600   33.9700   45.9290 C   0  0  0  0  0  0  0  0  0  0  0  0
   57.7720   33.2480   47.1230 C   0  0  0  0  0  0  0  0  0  0  0  0
   55.4300   26.6310   46.1490 N   0  0  0  0  0  0  0  0  0  0  0  0
   54.5590   25.7770   45.6300 N   0  0  0  0  0  0  0  0  0  0  0  0
   57.1177   21.1781   44.2363 H   0  0  0  0  0  0  0  0  0  0  0  0
   56.2810   20.8501   42.6810 H   0  0  0  0  0  0  0  0  0  0  0  0
   57.9754   21.4464   42.6810 H   0  0  0  0  0  0  0  0  0  0  0  0
   57.0454   23.5342   43.9084 H   0  0  0  0  0  0  0  0  0  0  0  0
   56.6607   23.3534   42.1541 H   0  0  0  0  0  0  0  0  0  0  0  0
   57.3683   24.0568   45.4369 H   0  0  0  0  0  0  0  0  0  0  0  0
   57.3189   27.3224   43.2417 H   0  0  0  0  0  0  0  0  0  0  0  0
   56.0522   29.1034   42.0436 H   0  0  0  0  0  0  0  0  0  0  0  0
   56.2360   31.4776   42.7821 H   0  0  0  0  0  0  0  0  0  0  0  0
   57.6881   32.0808   44.7141 H   0  0  0  0  0  0  0  0  0  0  0  0
   57.7750   29.9540   47.7740 H   0  0  0  0  0  0  0  0  0  0  0  0
   59.2713   30.2478   49.5876 H   0  0  0  0  0  0  0  0  0  0  0  0
   60.5543   30.8116   48.4515 H   0  0  0  0  0  0  0  0  0  0  0  0
   58.1887   32.3621   49.5818 H   0  0  0  0  0  0  0  0  0  0  0  0
   59.9484   32.7573   49.6481 H   0  0  0  0  0  0  0  0  0  0  0  0
   61.1263   33.6443   47.6848 H   0  0  0  0  0  0  0  0  0  0  0  0
   60.9188   34.9359   45.5599 H   0  0  0  0  0  0  0  0  0  0  0  0
   58.7003   35.1444   44.4324 H   0  0  0  0  0  0  0  0  0  0  0  0
   56.6836   34.0605   45.4306 H   0  0  0  0  0  0  0  0  0  0  0  0
   56.8838   32.7646   47.5559 H   0  0  0  0  0  0  0  0  0  0  0  0
  1  2  1  0
  2  3  1  0
  3  4  1  0
  4  5  2  0
  4  6  1  0
  6  7  1  0
  7  8  2  0
  8  9  1  0
  9 10  2  0
  9 11  2  0
  9 12  1  0
 12 13  1  0
 13 14  2  0
 14 15  1  0
 15 16  2  0
 16 17  1  0
 17 18  2  0
 18 19  1  0
 19 20  2  0
 19 21  1  0
 21 22  1  0
 22 23  1  0
 23 24  1  0
 24 25  2  0
 25 26  1  0
 26 27  2  0
 27 28  1  0
 28 29  2  0
  8 30  1  0
 30 31  1  0
 31  6  2  0
 18 13  1  0
 29 24  1  0
  1 32  1  0
  1 33  1  0
  1 34  1  0
  2 35  1  0
  2 36  1  0
  7 37  1  0
 14 38  1  0
 15 39  1  0
 16 40  1  0
 17 41  1  0
 21 42  1  0
 22 43  1  0
 22 44  1  0
 23 45  1  0
 23 46  1  0
 25 47  1  0
 26 48  1  0
 27 49  1  0
 28 50  1  0
 29 51  1  0
M  CHG  2  12  -1  30  -1
M  END
>  <UniqueID>  (20) 
19

>  <SMILES>  (20) 
CCOC(=O)c1cc(S(=O)(=O)[N-]c2ccccc2C(=O)NCCc2ccccc2)[n-]n1

>  <Energy>  (20) 
85.84884033989444

>  <Genealogy>  (20) 
CCOC(=O)c1cc(S(=O)(=O)[N-]c2ccccc2C(=O)NCCc2ccccc2)[n-]n1 (protonated)
CCOC(=O)c1cc(S(=O)(=O)[N-]c2ccccc2C(=O)NCCc2ccccc2)[n-]n1 (3D coordinates assigned)
CCOC(=O)c1cc(S(=O)(=O)[N-]c2ccccc2C(=O)NCCc2ccccc2)[n-]n1 (optimized conformer: 85.84884033989444 kcal/mol)

>  <smiles>  (20) 
CCOC(=O)c1cc(S(=O)(=O)Nc2ccccc2C(=O)NCCc2ccccc2)[nH]n1

>  <score_type>  (20) 
oracle

>  <origin>  (20) 
adg

>  <m_score__min__energy>  (20) 
-13.18

>  <m_primary>  (20) 
energy

$$$$
20:0
     RDKit          3D

 51 53  0  0  0  0  0  0  0  0999 V2000
   56.2470   24.9040   45.3760 C   0  0  0  0  0  0  0  0  0  0  0  0
   56.0390   26.0290   46.2760 N   0  0  0  0  0  0  0  0  0  0  0  0
   56.7040   27.2840   46.1110 C   0  0  0  0  0  0  0  0  0  0  0  0
   57.7680   27.5240   46.7450 O   0  0  0  0  0  0  0  0  0  0  0  0
   56.1340   28.2720   45.2440 N   0  0  0  0  0  0  0  0  0  0  0  0
   56.8000   29.4990   44.8990 C   0  0  0  0  0  0  0  0  0  0  0  0
   57.5550   30.1830   45.8690 C   0  0  0  0  0  0  0  0  0  0  0  0
   58.2590   31.3550   45.5440 C   0  0  0  0  0  0  0  0  0  0  0  0
   59.0480   32.0710   46.5790 C   0  0  0  0  0  0  0  0  0  0  0  0
   59.5180   33.3750   46.3440 C   0  0  0  0  0  0  0  0  0  0  0  0
   60.2600   34.0510   47.3170 C   0  0  0  0  0  0  0  0  0  0  0  0
   60.5440   33.4330   48.5500 C   0  0  0  0  0  0  0  0  0  0  0  0
   61.2840   34.0600   49.5660 O   0  0  0  0  0  0  0  0  0  0  0  0
   62.6170   34.5670   49.4470 C   0  0  0  0  0  0  0  0  0  0  0  0
   63.3940   33.7160   48.4170 C   0  0  0  0  0  0  0  0  0  0  0  0
   64.4210   32.7600   49.0570 C   0  0  0  0  0  0  0  0  0  0  0  0
   63.9220   32.1370   50.3010 N   0  0  0  0  0  0  0  0  0  0  0  0
   62.9080   31.1050   50.0290 C   0  0  0  0  0  0  0  0  0  0  0  0
   63.4790   33.1100   51.3340 C   0  0  0  0  0  0  0  0  0  0  0  0
   63.3170   34.5500   50.8140 C   0  0  0  0  0  0  0  0  0  0  0  0
   60.0820   32.1330   48.7820 C   0  0  0  0  0  0  0  0  0  0  0  0
   59.3400   31.4570   47.8090 C   0  0  0  0  0  0  0  0  0  0  0  0
   58.2110   31.8340   44.2260 C   0  0  0  0  0  0  0  0  0  0  0  0
   57.4730   31.1570   43.2540 C   0  0  0  0  0  0  0  0  0  0  0  0
   56.7630   29.9920   43.5760 C   0  0  0  0  0  0  0  0  0  0  0  0
   55.9840   29.3460   42.5610 N   0  0  0  0  0  0  0  0  0  0  0  0
   56.4160   23.9901   45.9644 H   0  0  0  0  0  0  0  0  0  0  0  0
   55.3579   24.7726   44.7417 H   0  0  0  0  0  0  0  0  0  0  0  0
   57.1243   25.0992   44.7417 H   0  0  0  0  0  0  0  0  0  0  0  0
   55.1780   28.0920   44.8610 H   0  0  0  0  0  0  0  0  0  0  0  0
   57.5949   29.7946   46.8974 H   0  0  0  0  0  0  0  0  0  0  0  0
   59.2998   33.8681   45.3852 H   0  0  0  0  0  0  0  0  0  0  0  0
   60.6236   35.0700   47.1186 H   0  0  0  0  0  0  0  0  0  0  0  0
   62.5862   35.6096   49.0978 H   0  0  0  0  0  0  0  0  0  0  0  0
   62.6708   33.1170   47.8442 H   0  0  0  0  0  0  0  0  0  0  0  0
   63.9561   34.4142   47.7793 H   0  0  0  0  0  0  0  0  0  0  0  0
   64.6584   31.9643   48.3356 H   0  0  0  0  0  0  0  0  0  0  0  0
   65.3106   33.3529   49.3159 H   0  0  0  0  0  0  0  0  0  0  0  0
   62.5212   30.7113   50.9805 H   0  0  0  0  0  0  0  0  0  0  0  0
   62.0819   31.5458   49.4516 H   0  0  0  0  0  0  0  0  0  0  0  0
   63.3632   30.2868   49.4516 H   0  0  0  0  0  0  0  0  0  0  0  0
   62.5092   32.7750   51.7306 H   0  0  0  0  0  0  0  0  0  0  0  0
   64.2661   33.1371   52.1019 H   0  0  0  0  0  0  0  0  0  0  0  0
   62.7161   35.1264   51.5328 H   0  0  0  0  0  0  0  0  0  0  0  0
   64.3162   34.9960   50.7012 H   0  0  0  0  0  0  0  0  0  0  0  0
   60.3047   31.6382   49.7389 H   0  0  0  0  0  0  0  0  0  0  0  0
   58.9818   30.4361   48.0077 H   0  0  0  0  0  0  0  0  0  0  0  0
   58.7587   32.7492   43.9571 H   0  0  0  0  0  0  0  0  0  0  0  0
   57.4482   31.5418   42.2238 H   0  0  0  0  0  0  0  0  0  0  0  0
   55.8530   28.3100   42.5720 H   0  0  0  0  0  0  0  0  0  0  0  0
   55.5770   29.8730   41.7570 H   0  0  0  0  0  0  0  0  0  0  0  0
  1  2  1  0
  2  3  1  0
  3  4  2  0
  3  5  1  0
  5  6  1  0
  6  7  2  0
  7  8  1  0
  8  9  1  0
  9 10  2  0
 10 11  1  0
 11 12  2  0
 12 13  1  0
 13 14  1  0
 14 15  1  0
 15 16  1  0
 16 17  1  0
 17 18  1  0
 17 19  1  0
 19 20  1  0
 12 21  1  0
 21 22  2  0
  8 23  2  0
 23 24  1  0
 24 25  2  0
 25 26  1  0
 25  6  1  0
 22  9  1  0
 20 14  1  0
  1 27  1  0
  1 28  1  0
  1 29  1  0
  5 30  1  0
  7 31  1  0
 10 32  1  0
 11 33  1  0
 14 34  1  0
 15 35  1  0
 15 36  1  0
 16 37  1  0
 16 38  1  0
 18 39  1  0
 18 40  1  0
 18 41  1  0
 19 42  1  0
 19 43  1  0
 20 44  1  0
 20 45  1  0
 21 46  1  0
 22 47  1  0
 23 48  1  0
 24 49  1  0
 26 50  1  0
 26 51  1  0
M  CHG  1   2  -1
M  END
>  <UniqueID>  (21) 
20

>  <SMILES>  (21) 
C[N-]C(=O)Nc1cc(-c2ccc(OC3CCN(C)CC3)cc2)ccc1N

>  <Energy>  (21) 
67.68614205715288

>  <Genealogy>  (21) 
C[N-]C(=O)Nc1cc(-c2ccc(OC3CCN(C)CC3)cc2)ccc1N (protonated)
C[N-]C(=O)Nc1cc(-c2ccc(OC3CCN(C)CC3)cc2)ccc1N (3D coordinates assigned)
C[N-]C(=O)Nc1cc(-c2ccc(OC3CCN(C)CC3)cc2)ccc1N (nonaromatic ring conformer: 67.68614205715288 kcal/mol)

>  <smiles>  (21) 
CNC(=O)Nc1cc(-c2ccc(OC3CCN(C)CC3)cc2)ccc1N

>  <score_type>  (21) 
oracle

>  <origin>  (21) 
adg

>  <m_score__min__energy>  (21) 
-10.119999999999999

>  <m_primary>  (21) 
energy

$$$$
21:0
     RDKit          3D

 78 82  0  0  0  0  0  0  0  0999 V2000
   56.1090   29.6210   43.0120 C   0  0  0  0  0  0  0  0  0  0  0  0
   57.3850   28.9480   43.3930 C   0  0  0  0  0  0  0  0  0  0  0  0
   57.7690   27.6760   43.0170 C   0  0  0  0  0  0  0  0  0  0  0  0
   59.0110   27.4780   43.5820 C   0  0  0  0  0  0  0  0  0  0  0  0
   59.2980   28.6430   44.2680 C   0  0  0  0  0  0  0  0  0  0  0  0
   60.5610   28.9310   45.0200 C   0  0  0  0  0  0  0  0  0  0  0  0
   60.4800   28.3780   46.3770 N   0  0  0  0  0  0  0  0  0  0  0  0
   60.2040   26.9810   46.6000 C   0  0  0  0  0  0  0  0  0  0  0  0
   61.1440   26.2040   46.9260 O   0  0  0  0  0  0  0  0  0  0  0  0
   58.8410   26.4310   46.4560 C   0  0  0  0  0  0  0  0  0  0  0  0
   58.6560   25.0680   46.1790 C   0  0  0  0  0  0  0  0  0  0  0  0
   57.3700   24.5490   46.0110 C   0  0  0  0  0  0  0  0  0  0  0  0
   56.2470   25.3920   46.1000 C   0  0  0  0  0  0  0  0  0  0  0  0
   54.9090   24.9100   45.9140 N   0  0  0  0  0  0  0  0  0  0  0  0
   54.4670   23.3590   45.2760 S   0  0  0  0  0  0  0  0  0  0  0  0
   54.8800   22.0710   46.4330 C   0  0  0  0  0  0  0  0  0  0  0  0
   52.9970   23.3320   44.9680 O   0  0  0  0  0  0  0  0  0  0  0  0
   55.2310   23.1240   44.0040 O   0  0  0  0  0  0  0  0  0  0  0  0
   56.4350   26.7540   46.3620 C   0  0  0  0  0  0  0  0  0  0  0  0
   57.7200   27.2720   46.5450 C   0  0  0  0  0  0  0  0  0  0  0  0
   60.4600   29.2690   47.4980 C   0  0  0  0  0  0  0  0  0  0  0  0
   59.7520   28.9330   48.6610 C   0  0  0  0  0  0  0  0  0  0  0  0
   59.7690   29.7920   49.7630 C   0  0  0  0  0  0  0  0  0  0  0  0
   60.4960   30.9850   49.7100 C   0  0  0  0  0  0  0  0  0  0  0  0
   61.2110   31.3300   48.5520 C   0  0  0  0  0  0  0  0  0  0  0  0
   61.9800   32.5890   48.4870 C   0  0  0  0  0  0  0  0  0  0  0  0
   62.9460   32.6720   47.6800 O   0  0  0  0  0  0  0  0  0  0  0  0
   61.6620   33.7050   49.3450 N   0  0  0  0  0  0  0  0  0  0  0  0
   62.6880   34.1740   50.2950 C   0  0  0  0  0  0  0  0  0  0  0  0
   63.7690   33.1460   50.5220 C   0  0  0  0  0  0  0  0  0  0  0  0
   65.0450   33.3210   49.9610 C   0  0  0  0  0  0  0  0  0  0  0  0
   66.0280   32.3400   50.1260 C   0  0  0  0  0  0  0  0  0  0  0  0
   65.7490   31.1840   50.8600 C   0  0  0  0  0  0  0  0  0  0  0  0
   66.7030   30.2320   51.0160 F   0  0  0  0  0  0  0  0  0  0  0  0
   64.4860   31.0080   51.4330 C   0  0  0  0  0  0  0  0  0  0  0  0
   63.4980   31.9830   51.2650 C   0  0  0  0  0  0  0  0  0  0  0  0
   60.5280   34.5790   48.9890 C   0  0  0  0  0  0  0  0  0  0  0  0
   59.7510   33.9900   47.8410 C   0  0  0  0  0  0  0  0  0  0  0  0
   58.6530   33.1520   48.0890 C   0  0  0  0  0  0  0  0  0  0  0  0
   57.8990   32.6400   47.0290 C   0  0  0  0  0  0  0  0  0  0  0  0
   58.2380   32.9490   45.7000 C   0  0  0  0  0  0  0  0  0  0  0  0
   57.4330   32.4160   44.5800 C   0  0  0  0  0  0  0  0  0  0  0  0
   57.7580   32.6550   43.3870 O   0  0  0  0  0  0  0  0  0  0  0  0
   56.3010   31.6480   44.8290 O   0  0  0  0  0  0  0  0  0  0  0  0
   59.3560   33.7670   45.4550 C   0  0  0  0  0  0  0  0  0  0  0  0
   60.1100   34.2750   46.5160 C   0  0  0  0  0  0  0  0  0  0  0  0
   61.1780   30.4700   47.4430 C   0  0  0  0  0  0  0  0  0  0  0  0
   58.3150   29.5020   44.1360 O   0  0  0  0  0  0  0  0  0  0  0  0
   55.5612   29.9099   43.9211 H   0  0  0  0  0  0  0  0  0  0  0  0
   56.3316   30.5190   42.4170 H   0  0  0  0  0  0  0  0  0  0  0  0
   55.4935   28.9302   42.4170 H   0  0  0  0  0  0  0  0  0  0  0  0
   57.2016   26.9676   42.3955 H   0  0  0  0  0  0  0  0  0  0  0  0
   59.6418   26.5803   43.5032 H   0  0  0  0  0  0  0  0  0  0  0  0
   61.4108   28.4742   44.4916 H   0  0  0  0  0  0  0  0  0  0  0  0
   60.7003   30.0203   45.0840 H   0  0  0  0  0  0  0  0  0  0  0  0
   59.5289   24.4041   46.0936 H   0  0  0  0  0  0  0  0  0  0  0  0
   57.2347   23.4764   45.8082 H   0  0  0  0  0  0  0  0  0  0  0  0
   54.7592   22.4476   47.4594 H   0  0  0  0  0  0  0  0  0  0  0  0
   54.2127   21.2105   46.2773 H   0  0  0  0  0  0  0  0  0  0  0  0
   55.9233   21.7589   46.2773 H   0  0  0  0  0  0  0  0  0  0  0  0
   55.5637   27.4225   46.4244 H   0  0  0  0  0  0  0  0  0  0  0  0
   57.8538   28.3425   46.7596 H   0  0  0  0  0  0  0  0  0  0  0  0
   59.1829   27.9927   48.7057 H   0  0  0  0  0  0  0  0  0  0  0  0
   59.2098   29.5293   50.6731 H   0  0  0  0  0  0  0  0  0  0  0  0
   60.5079   31.6572   50.5806 H   0  0  0  0  0  0  0  0  0  0  0  0
   63.1485   35.0895   49.8953 H   0  0  0  0  0  0  0  0  0  0  0  0
   62.1936   34.3619   51.2595 H   0  0  0  0  0  0  0  0  0  0  0  0
   65.2719   34.2332   49.3897 H   0  0  0  0  0  0  0  0  0  0  0  0
   67.0227   32.4786   49.6772 H   0  0  0  0  0  0  0  0  0  0  0  0
   64.2692   30.1013   52.0168 H   0  0  0  0  0  0  0  0  0  0  0  0
   62.5048   31.8399   51.7157 H   0  0  0  0  0  0  0  0  0  0  0  0
   59.8642   34.6841   49.8598 H   0  0  0  0  0  0  0  0  0  0  0  0
   60.9168   35.5633   48.6889 H   0  0  0  0  0  0  0  0  0  0  0  0
   58.3838   32.8963   49.1245 H   0  0  0  0  0  0  0  0  0  0  0  0
   57.0351   31.9913   47.2360 H   0  0  0  0  0  0  0  0  0  0  0  0
   59.6389   34.0086   44.4198 H   0  0  0  0  0  0  0  0  0  0  0  0
   60.9901   34.9020   46.3106 H   0  0  0  0  0  0  0  0  0  0  0  0
   61.7197   30.7413   46.5248 H   0  0  0  0  0  0  0  0  0  0  0  0
  1  2  1  0
  2  3  2  0
  3  4  1  0
  4  5  2  0
  5  6  1  0
  6  7  1  0
  7  8  1  0
  8  9  2  0
  8 10  1  0
 10 11  2  0
 11 12  1  0
 12 13  2  0
 13 14  1  0
 14 15  1  0
 15 16  1  0
 15 17  2  0
 15 18  2  0
 13 19  1  0
 19 20  2  0
  7 21  1  0
 21 22  2  0
 22 23  1  0
 23 24  2  0
 24 25  1  0
 25 26  1  0
 26 27  2  0
 26 28  1  0
 28 29  1  0
 29 30  1  0
 30 31  2  0
 31 32  1  0
 32 33  2  0
 33 34  1  0
 33 35  1  0
 35 36  2  0
 28 37  1  0
 37 38  1  0
 38 39  2  0
 39 40  1  0
 40 41  2  0
 41 42  1  0
 42 43  2  0
 42 44  1  0
 41 45  1  0
 45 46  2  0
 25 47  2  0
  5 48  1  0
 48  2  1  0
 20 10  1  0
 47 21  1  0
 36 30  1  0
 46 38  1  0
  1 49  1  0
  1 50  1  0
  1 51  1  0
  3 52  1  0
  4 53  1  0
  6 54  1  0
  6 55  1  0
 11 56  1  0
 12 57  1  0
 16 58  1  0
 16 59  1  0
 16 60  1  0
 19 61  1  0
 20 62  1  0
 22 63  1  0
 23 64  1  0
 24 65  1  0
 29 66  1  0
 29 67  1  0
 31 68  1  0
 32 69  1  0
 35 70  1  0
 36 71  1  0
 37 72  1  0
 37 73  1  0
 39 74  1  0
 40 75  1  0
 45 76  1  0
 46 77  1  0
 47 78  1  0
M  CHG  2  14  -1  44  -1
M  END
>  <UniqueID>  (22) 
21

>  <SMILES>  (22) 
Cc1ccc(CN(C(=O)c2ccc([N-]S(C)(=O)=O)cc2)c2cccc(C(=O)N(Cc3ccc(F)cc3)Cc3ccc(C(=O)[O-])cc3)c2)o1

>  <Energy>  (22) 
121.03342801112544

>  <Genealogy>  (22) 
Cc1ccc(CN(C(=O)c2ccc([N-]S(C)(=O)=O)cc2)c2cccc(C(=O)N(Cc3ccc(F)cc3)Cc3ccc(C(=O)[O-])cc3)c2)o1 (protonated)
Cc1ccc(CN(C(=O)c2ccc([N-]S(C)(=O)=O)cc2)c2cccc(C(=O)N(Cc3ccc(F)cc3)Cc3ccc(C(=O)[O-])cc3)c2)o1 (3D coordinates assigned)
Cc1ccc(CN(C(=O)c2ccc([N-]S(C)(=O)=O)cc2)c2cccc(C(=O)N(Cc3ccc(F)cc3)Cc3ccc(C(=O)[O-])cc3)c2)o1 (optimized conformer: 121.03342801112544 kcal/mol)

>  <smiles>  (22) 
Cc1ccc(CN(C(=O)c2ccc(NS(C)(=O)=O)cc2)c2cccc(C(=O)N(Cc3ccc(F)cc3)Cc3ccc(C(=O)O)cc3)c2)o1

>  <score_type>  (22) 
oracle

>  <origin>  (22) 
adg

>  <m_score__min__energy>  (22) 
-15.720000000000001

>  <m_primary>  (22) 
energy

$$$$
22:0
     RDKit          3D

 39 40  0  0  0  0  0  0  0  0999 V2000
   59.2700   33.1970   50.4070 C   0  0  0  0  0  0  0  0  0  0  0  0
   60.0370   34.2260   49.7890 O   0  0  0  0  0  0  0  0  0  0  0  0
   60.9650   34.0170   48.7570 C   0  0  0  0  0  0  0  0  0  0  0  0
   62.3210   33.7350   49.0260 C   0  0  0  0  0  0  0  0  0  0  0  0
   63.2200   33.5220   47.9800 C   0  0  0  0  0  0  0  0  0  0  0  0
   62.7840   33.5940   46.6570 C   0  0  0  0  0  0  0  0  0  0  0  0
   61.4470   33.8780   46.3760 C   0  0  0  0  0  0  0  0  0  0  0  0
   60.5230   34.0810   47.4180 C   0  0  0  0  0  0  0  0  0  0  0  0
   59.1380   34.3590   47.1350 N   0  0  0  0  0  0  0  0  0  0  0  0
   58.3950   34.0030   45.6080 S   0  0  0  0  0  0  0  0  0  0  0  0
   57.0060   34.5750   45.5830 O   0  0  0  0  0  0  0  0  0  0  0  0
   59.2030   34.6310   44.5070 O   0  0  0  0  0  0  0  0  0  0  0  0
   58.2920   32.2580   45.3960 C   0  0  0  0  0  0  0  0  0  0  0  0
   58.8700   31.4100   46.3480 C   0  0  0  0  0  0  0  0  0  0  0  0
   58.8500   30.0250   46.1630 C   0  0  0  0  0  0  0  0  0  0  0  0
   58.2450   29.4720   45.0230 C   0  0  0  0  0  0  0  0  0  0  0  0
   58.2830   27.9840   44.7910 C   0  0  0  0  0  0  0  0  0  0  0  0
   57.4490   27.2260   45.8310 C   0  0  0  0  0  0  0  0  0  0  0  0
   55.9800   27.4450   45.6300 C   0  0  0  0  0  0  0  0  0  0  0  0
   55.1540   26.5620   45.9780 O   0  0  0  0  0  0  0  0  0  0  0  0
   55.5230   28.6440   45.0980 O   0  0  0  0  0  0  0  0  0  0  0  0
   57.6610   30.3260   44.0720 C   0  0  0  0  0  0  0  0  0  0  0  0
   57.6820   31.7100   44.2590 C   0  0  0  0  0  0  0  0  0  0  0  0
   59.3415   33.2929   51.5005 H   0  0  0  0  0  0  0  0  0  0  0  0
   58.2180   33.2885   50.0989 H   0  0  0  0  0  0  0  0  0  0  0  0
   59.6582   32.2150   50.0989 H   0  0  0  0  0  0  0  0  0  0  0  0
   62.6720   33.6827   50.0672 H   0  0  0  0  0  0  0  0  0  0  0  0
   64.2742   33.2970   48.1992 H   0  0  0  0  0  0  0  0  0  0  0  0
   63.4948   33.4267   45.8344 H   0  0  0  0  0  0  0  0  0  0  0  0
   61.1121   33.9438   45.3303 H   0  0  0  0  0  0  0  0  0  0  0  0
   58.5030   34.6580   47.9070 H   0  0  0  0  0  0  0  0  0  0  0  0
   59.3421   31.8357   47.2457 H   0  0  0  0  0  0  0  0  0  0  0  0
   59.3101   29.3654   46.9135 H   0  0  0  0  0  0  0  0  0  0  0  0
   57.8838   27.7692   43.7888 H   0  0  0  0  0  0  0  0  0  0  0  0
   59.3273   27.6499   44.8795 H   0  0  0  0  0  0  0  0  0  0  0  0
   57.6641   26.1506   45.7454 H   0  0  0  0  0  0  0  0  0  0  0  0
   57.7187   27.6038   46.8283 H   0  0  0  0  0  0  0  0  0  0  0  0
   57.1848   29.9023   43.1755 H   0  0  0  0  0  0  0  0  0  0  0  0
   57.2187   32.3716   43.5122 H   0  0  0  0  0  0  0  0  0  0  0  0
  1  2  1  0
  2  3  1  0
  3  4  2  0
  4  5  1  0
  5  6  2  0
  6  7  1  0
  7  8  2  0
  8  9  1  0
  9 10  1  0
 10 11  2  0
 10 12  2  0
 10 13  1  0
 13 14  2  0
 14 15  1  0
 15 16  2  0
 16 17  1  0
 17 18  1  0
 18 19  1  0
 19 20  2  0
 19 21  1  0
 16 22  1  0
 22 23  2  0
  8  3  1  0
 23 13  1  0
  1 24  1  0
  1 25  1  0
  1 26  1  0
  4 27  1  0
  5 28  1  0
  6 29  1  0
  7 30  1  0
  9 31  1  0
 14 32  1  0
 15 33  1  0
 17 34  1  0
 17 35  1  0
 18 36  1  0
 18 37  1  0
 22 38  1  0
 23 39  1  0
M  CHG  1  21  -1
M  END
>  <UniqueID>  (23) 
22

>  <SMILES>  (23) 
COc1ccccc1NS(=O)(=O)c1ccc(CCC(=O)[O-])cc1

>  <Energy>  (23) 
38.18146454836714

>  <Genealogy>  (23) 
COc1ccccc1NS(=O)(=O)c1ccc(CCC(=O)[O-])cc1 (protonated)
COc1ccccc1NS(=O)(=O)c1ccc(CCC(=O)[O-])cc1 (3D coordinates assigned)
COc1ccccc1NS(=O)(=O)c1ccc(CCC(=O)[O-])cc1 (optimized conformer: 38.18146454836714 kcal/mol)

>  <smiles>  (23) 
COc1ccccc1NS(=O)(=O)c1ccc(CCC(=O)O)cc1

>  <score_type>  (23) 
oracle

>  <origin>  (23) 
adg

>  <m_score__min__energy>  (23) 
-10.66

>  <m_primary>  (23) 
energy

$$$$
23:0
     RDKit          3D

 44 46  0  0  0  0  0  0  0  0999 V2000
   66.2320   32.7330   50.2750 C   0  0  0  0  0  0  0  0  0  0  0  0
   64.9920   33.3710   50.8270 C   0  0  0  0  0  0  0  0  0  0  0  0
   64.9910   33.7300   52.0360 O   0  0  0  0  0  0  0  0  0  0  0  0
   63.7790   33.5870   49.9920 C   0  0  0  0  0  0  0  0  0  0  0  0
   63.8720   33.5380   48.5890 C   0  0  0  0  0  0  0  0  0  0  0  0
   62.7410   33.7400   47.7930 C   0  0  0  0  0  0  0  0  0  0  0  0
   61.4940   33.9910   48.3820 C   0  0  0  0  0  0  0  0  0  0  0  0
   60.3360   34.1830   47.5510 N   0  0  0  0  0  0  0  0  0  0  0  0
   59.0740   33.5160   47.9070 C   0  0  0  0  0  0  0  0  0  0  0  0
   58.0440   33.6190   46.7750 C   0  0  0  0  0  0  0  0  0  0  0  0
   58.6900   33.3720   45.4770 N   0  0  0  0  0  0  0  0  0  0  0  0
   58.0110   32.6130   44.4590 C   0  0  0  0  0  0  0  0  0  0  0  0
   57.9500   33.0710   43.2860 O   0  0  0  0  0  0  0  0  0  0  0  0
   57.4010   31.2970   44.7560 C   0  0  0  0  0  0  0  0  0  0  0  0
   58.0300   30.3970   45.6330 C   0  0  0  0  0  0  0  0  0  0  0  0
   57.4560   29.1520   45.9000 C   0  0  0  0  0  0  0  0  0  0  0  0
   56.2550   28.7850   45.2890 C   0  0  0  0  0  0  0  0  0  0  0  0
   55.6960   27.5430   45.5660 O   0  0  0  0  0  0  0  0  0  0  0  0
   55.6230   29.6690   44.3990 C   0  0  0  0  0  0  0  0  0  0  0  0
   54.4250   29.3270   43.7720 O   0  0  0  0  0  0  0  0  0  0  0  0
   56.2000   30.9160   44.1330 C   0  0  0  0  0  0  0  0  0  0  0  0
   59.9400   34.0650   45.1310 C   0  0  0  0  0  0  0  0  0  0  0  0
   60.4460   34.9280   46.2920 C   0  0  0  0  0  0  0  0  0  0  0  0
   61.3920   34.0440   49.7800 C   0  0  0  0  0  0  0  0  0  0  0  0
   60.2050   34.3220   50.3750 F   0  0  0  0  0  0  0  0  0  0  0  0
   62.5240   33.8440   50.5780 C   0  0  0  0  0  0  0  0  0  0  0  0
   66.8746   32.4024   51.1043 H   0  0  0  0  0  0  0  0  0  0  0  0
   65.9545   31.8657   49.6579 H   0  0  0  0  0  0  0  0  0  0  0  0
   66.7764   33.4630   49.6579 H   0  0  0  0  0  0  0  0  0  0  0  0
   64.8440   33.3388   48.1141 H   0  0  0  0  0  0  0  0  0  0  0  0
   62.8300   33.7018   46.6973 H   0  0  0  0  0  0  0  0  0  0  0  0
   59.2762   32.4541   48.1106 H   0  0  0  0  0  0  0  0  0  0  0  0
   58.6599   34.0137   48.7963 H   0  0  0  0  0  0  0  0  0  0  0  0
   57.2523   32.8722   46.9349 H   0  0  0  0  0  0  0  0  0  0  0  0
   57.6113   34.6303   46.7741 H   0  0  0  0  0  0  0  0  0  0  0  0
   58.9804   30.6748   46.1122 H   0  0  0  0  0  0  0  0  0  0  0  0
   57.9519   28.4577   46.5943 H   0  0  0  0  0  0  0  0  0  0  0  0
   53.8320   28.5820   44.1160 H   0  0  0  0  0  0  0  0  0  0  0  0
   55.7089   31.6046   43.4296 H   0  0  0  0  0  0  0  0  0  0  0  0
   60.7064   33.3161   44.8823 H   0  0  0  0  0  0  0  0  0  0  0  0
   59.7421   34.7241   44.2729 H   0  0  0  0  0  0  0  0  0  0  0  0
   61.4986   35.1949   46.1166 H   0  0  0  0  0  0  0  0  0  0  0  0
   59.8372   35.8419   46.3569 H   0  0  0  0  0  0  0  0  0  0  0  0
   62.4330   33.8879   51.6733 H   0  0  0  0  0  0  0  0  0  0  0  0
  1  2  1  0
  2  3  2  0
  2  4  1  0
  4  5  2  0
  5  6  1  0
  6  7  2  0
  7  8  1  0
  8  9  1  0
  9 10  1  0
 10 11  1  0
 11 12  1  0
 12 13  2  0
 12 14  1  0
 14 15  2  0
 15 16  1  0
 16 17  2  0
 17 18  1  0
 17 19  1  0
 19 20  1  0
 19 21  2  0
 11 22  1  0
 22 23  1  0
  7 24  1  0
 24 25  1  0
 24 26  2  0
 26  4  1  0
 23  8  1  0
 21 14  1  0
  1 27  1  0
  1 28  1  0
  1 29  1  0
  5 30  1  0
  6 31  1  0
  9 32  1  0
  9 33  1  0
 10 34  1  0
 10 35  1  0
 15 36  1  0
 16 37  1  0
 20 38  1  0
 21 39  1  0
 22 40  1  0
 22 41  1  0
 23 42  1  0
 23 43  1  0
 26 44  1  0
M  CHG  1  18  -1
M  END
>  <UniqueID>  (24) 
23

>  <SMILES>  (24) 
CC(=O)c1ccc(N2CCN(C(=O)c3ccc([O-])c(O)c3)CC2)c(F)c1

>  <Energy>  (24) 
56.49554333786179

>  <Genealogy>  (24) 
CC(=O)c1ccc(N2CCN(C(=O)c3ccc([O-])c(O)c3)CC2)c(F)c1 (protonated)
CC(=O)c1ccc(N2CCN(C(=O)c3ccc([O-])c(O)c3)CC2)c(F)c1 (3D coordinates assigned)
CC(=O)c1ccc(N2CCN(C(=O)c3ccc([O-])c(O)c3)CC2)c(F)c1 (nonaromatic ring conformer: 56.49554333786179 kcal/mol)

>  <smiles>  (24) 
CC(=O)c1ccc(N2CCN(C(=O)c3ccc(O)c(O)c3)CC2)c(F)c1

>  <score_type>  (24) 
oracle

>  <origin>  (24) 
adg

>  <m_score__min__energy>  (24) 
-11.17

>  <m_primary>  (24) 
energy

$$$$
24:0
     RDKit          3D

 32 33  0  0  0  0  0  0  0  0999 V2000
   60.7170   27.2308   47.9251 H   0  0  0  0  0  0  0  0  0  0  0  0
   59.8800   27.5860   47.3060 C   0  0  0  0  0  0  0  0  0  0  0  0
   58.9730   26.6990   46.8210 N   0  0  0  0  0  0  0  0  0  0  0  0
   57.9200   27.0840   46.0510 C   0  0  0  0  0  0  0  0  0  0  0  0
   57.1020   26.1620   45.6220 N   0  0  0  0  0  0  0  0  0  0  0  0
   55.8830   25.7050   46.2270 C   0  0  0  0  0  0  0  0  0  0  0  0
   54.8140   26.3300   45.9910 O   0  0  0  0  0  0  0  0  0  0  0  0
   55.8910   24.6430   47.1380 O   0  0  0  0  0  0  0  0  0  0  0  0
   57.0530   24.2550   47.8590 C   0  0  0  0  0  0  0  0  0  0  0  0
   56.8538   24.3215   48.9388 H   0  0  0  0  0  0  0  0  0  0  0  0
   57.3178   23.2197   47.5981 H   0  0  0  0  0  0  0  0  0  0  0  0
   57.8867   24.9235   47.5981 H   0  0  0  0  0  0  0  0  0  0  0  0
   57.7400   28.4560   45.7760 C   0  0  0  0  0  0  0  0  0  0  0  0
   56.8696   28.7919   45.1934 H   0  0  0  0  0  0  0  0  0  0  0  0
   58.6750   29.3920   46.2480 C   0  0  0  0  0  0  0  0  0  0  0  0
   58.5070   30.8400   45.9560 C   0  0  0  0  0  0  0  0  0  0  0  0
   59.4730   31.7540   46.4150 C   0  0  0  0  0  0  0  0  0  0  0  0
   60.3491   31.3890   46.9711 H   0  0  0  0  0  0  0  0  0  0  0  0
   59.3280   33.1210   46.1700 C   0  0  0  0  0  0  0  0  0  0  0  0
   60.0883   33.8276   46.5342 H   0  0  0  0  0  0  0  0  0  0  0  0
   58.2220   33.5920   45.4650 C   0  0  0  0  0  0  0  0  0  0  0  0
   58.1089   34.6700   45.2776 H   0  0  0  0  0  0  0  0  0  0  0  0
   57.2570   32.6980   44.9960 C   0  0  0  0  0  0  0  0  0  0  0  0
   56.3867   33.0765   44.4399 H   0  0  0  0  0  0  0  0  0  0  0  0
   57.3900   31.3140   45.2300 C   0  0  0  0  0  0  0  0  0  0  0  0
   56.4490   30.3910   44.7410 O   0  0  0  0  0  0  0  0  0  0  0  0
   56.2740   30.0620   43.3670 C   0  0  0  0  0  0  0  0  0  0  0  0
   55.7589   29.0936   43.2846 H   0  0  0  0  0  0  0  0  0  0  0  0
   55.6710   30.8409   42.8774 H   0  0  0  0  0  0  0  0  0  0  0  0
   57.2569   29.9973   42.8774 H   0  0  0  0  0  0  0  0  0  0  0  0
   59.7540   28.9450   47.0220 C   0  0  0  0  0  0  0  0  0  0  0  0
   60.4966   29.6615   47.4030 H   0  0  0  0  0  0  0  0  0  0  0  0
  1  2  1  0
  2  3  1  0
  3  4  1  0
  4  5  2  0
  5  6  1  0
  6  7  2  0
  6  8  1  0
  8  9  1  0
  9 10  1  0
  9 11  1  0
  9 12  1  0
  4 13  1  0
 13 14  1  0
 13 15  2  0
 15 16  1  0
 16 17  2  0
 17 18  1  0
 17 19  1  0
 19 20  1  0
 19 21  2  0
 21 22  1  0
 21 23  1  0
 23 24  1  0
 23 25  2  0
 25 26  1  0
 26 27  1  0
 27 28  1  0
 27 29  1  0
 27 30  1  0
 15 31  1  0
 31 32  1  0
 31  2  2  0
 25 16  1  0
M  CHG  1   3  -1
M  END
>  <UniqueID>  (25) 
24

>  <SMILES>  (25) 
COC(=O)/N=c1\cc(-c2ccccc2OC)cc[n-]1

>  <Energy>  (25) 
43.134242251519844

>  <Genealogy>  (25) 
COC(=O)N=c1cc(-c2ccccc2OC)cc[n-]1 (protonated)
COC(=O)/N=c1\cc(-c2ccccc2OC)cc[n-]1 (cis-trans isomerization)
COC(=O)/N=c1\cc(-c2ccccc2OC)cc[n-]1 (3D coordinates assigned)
COC(=O)/N=c1\cc(-c2ccccc2OC)cc[n-]1 (optimized conformer: 43.134242251519844 kcal/mol)

>  <smiles>  (25) 
COC(=O)N=c1cc(-c2ccccc2OC)cc[nH]1

>  <score_type>  (25) 
oracle

>  <origin>  (25) 
adg

>  <m_score__min__energy>  (25) 
-8.1300000000000008

>  <m_primary>  (25) 
energy

$$$$
25:0
     RDKit          3D

 51 54  0  0  0  0  0  0  0  0999 V2000
   55.2050   29.3110   44.8700 O   0  0  0  0  0  0  0  0  0  0  0  0
   56.3820   29.7620   44.8380 C   0  0  0  0  0  0  0  0  0  0  0  0
   56.6160   31.1300   44.4790 N   0  0  0  0  0  0  0  0  0  0  0  0
   57.4090   32.0840   45.2030 C   0  0  0  0  0  0  0  0  0  0  0  0
   57.0880   33.4420   45.0980 C   0  0  0  0  0  0  0  0  0  0  0  0
   57.7930   34.3950   45.8390 C   0  0  0  0  0  0  0  0  0  0  0  0
   58.8010   33.9940   46.7180 C   0  0  0  0  0  0  0  0  0  0  0  0
   59.1090   32.6350   46.8710 C   0  0  0  0  0  0  0  0  0  0  0  0
   60.1250   32.2410   47.8130 N   0  0  0  0  0  0  0  0  0  0  0  0
   60.0010   31.1410   48.7350 C   0  0  0  0  0  0  0  0  0  0  0  0
   60.6870   29.9460   48.4820 C   0  0  0  0  0  0  0  0  0  0  0  0
   60.5510   28.8570   49.3470 C   0  0  0  0  0  0  0  0  0  0  0  0
   59.7260   28.9510   50.4700 C   0  0  0  0  0  0  0  0  0  0  0  0
   59.0540   30.1480   50.7600 C   0  0  0  0  0  0  0  0  0  0  0  0
   58.1440   30.1970   51.8750 N   0  0  0  0  0  0  0  0  0  0  0  0
   56.9330   30.9680   51.8730 C   0  0  0  0  0  0  0  0  0  0  0  0
   56.9860   32.1950   51.5900 O   0  0  0  0  0  0  0  0  0  0  0  0
   55.6300   30.3380   52.1970 C   0  0  0  0  0  0  0  0  0  0  0  0
   55.5690   29.2370   53.0750 C   0  0  0  0  0  0  0  0  0  0  0  0
   54.3410   28.6560   53.4000 C   0  0  0  0  0  0  0  0  0  0  0  0
   53.1580   29.1630   52.8560 C   0  0  0  0  0  0  0  0  0  0  0  0
   53.2040   30.2600   51.9940 C   0  0  0  0  0  0  0  0  0  0  0  0
   54.4290   30.8490   51.6680 C   0  0  0  0  0  0  0  0  0  0  0  0
   59.2220   31.2510   49.9010 C   0  0  0  0  0  0  0  0  0  0  0  0
   58.4320   31.6860   46.0810 C   0  0  0  0  0  0  0  0  0  0  0  0
   57.5160   28.8910   45.2220 C   0  0  0  0  0  0  0  0  0  0  0  0
   58.7440   28.9710   44.5350 C   0  0  0  0  0  0  0  0  0  0  0  0
   59.8130   28.1460   44.8980 C   0  0  0  0  0  0  0  0  0  0  0  0
   59.6720   27.2360   45.9470 C   0  0  0  0  0  0  0  0  0  0  0  0
   58.4650   27.1550   46.6430 C   0  0  0  0  0  0  0  0  0  0  0  0
   57.3920   27.9780   46.2870 C   0  0  0  0  0  0  0  0  0  0  0  0
   56.2760   33.7616   44.4283 H   0  0  0  0  0  0  0  0  0  0  0  0
   57.5531   35.4629   45.7293 H   0  0  0  0  0  0  0  0  0  0  0  0
   59.3566   34.7488   47.2938 H   0  0  0  0  0  0  0  0  0  0  0  0
   61.0130   32.7940   47.8310 H   0  0  0  0  0  0  0  0  0  0  0  0
   61.3362   29.8645   47.5977 H   0  0  0  0  0  0  0  0  0  0  0  0
   61.0952   27.9231   49.1429 H   0  0  0  0  0  0  0  0  0  0  0  0
   59.6023   28.0809   51.1315 H   0  0  0  0  0  0  0  0  0  0  0  0
   58.3220   29.5710   52.6930 H   0  0  0  0  0  0  0  0  0  0  0  0
   56.4958   28.8321   53.5077 H   0  0  0  0  0  0  0  0  0  0  0  0
   54.3052   27.7969   54.0861 H   0  0  0  0  0  0  0  0  0  0  0  0
   52.1927   28.6988   53.1064 H   0  0  0  0  0  0  0  0  0  0  0  0
   52.2724   30.6626   51.5696 H   0  0  0  0  0  0  0  0  0  0  0  0
   54.4551   31.7176   50.9936 H   0  0  0  0  0  0  0  0  0  0  0  0
   58.7389   32.2088   50.1444 H   0  0  0  0  0  0  0  0  0  0  0  0
   58.7063   30.6231   46.1517 H   0  0  0  0  0  0  0  0  0  0  0  0
   58.8622   29.6868   43.7082 H   0  0  0  0  0  0  0  0  0  0  0  0
   60.7675   28.2143   44.3555 H   0  0  0  0  0  0  0  0  0  0  0  0
   60.5122   26.5827   46.2251 H   0  0  0  0  0  0  0  0  0  0  0  0
   58.3575   26.4420   47.4737 H   0  0  0  0  0  0  0  0  0  0  0  0
   56.4449   27.9118   46.8425 H   0  0  0  0  0  0  0  0  0  0  0  0
  1  2  2  0
  2  3  1  0
  3  4  1  0
  4  5  2  0
  5  6  1  0
  6  7  2  0
  7  8  1  0
  8  9  1  0
  9 10  1  0
 10 11  2  0
 11 12  1  0
 12 13  2  0
 13 14  1  0
 14 15  1  0
 15 16  1  0
 16 17  2  0
 16 18  1  0
 18 19  2  0
 19 20  1  0
 20 21  2  0
 21 22  1  0
 22 23  2  0
 14 24  2  0
  8 25  2  0
  2 26  1  0
 26 27  2  0
 27 28  1  0
 28 29  2  0
 29 30  1  0
 30 31  2  0
 25  4  1  0
 31 26  1  0
 24 10  1  0
 23 18  1  0
  5 32  1  0
  6 33  1  0
  7 34  1  0
  9 35  1  0
 11 36  1  0
 12 37  1  0
 13 38  1  0
 15 39  1  0
 19 40  1  0
 20 41  1  0
 21 42  1  0
 22 43  1  0
 23 44  1  0
 24 45  1  0
 25 46  1  0
 27 47  1  0
 28 48  1  0
 29 49  1  0
 30 50  1  0
 31 51  1  0
M  CHG  1   3  -1
M  END
>  <UniqueID>  (26) 
25

>  <SMILES>  (26) 
O=C([N-]c1cccc(Nc2cccc(NC(=O)c3ccccc3)c2)c1)c1ccccc1

>  <Energy>  (26) 
68.51739027007848

>  <Genealogy>  (26) 
O=C([N-]c1cccc(Nc2cccc(NC(=O)c3ccccc3)c2)c1)c1ccccc1 (protonated)
O=C([N-]c1cccc(Nc2cccc(NC(=O)c3ccccc3)c2)c1)c1ccccc1 (3D coordinates assigned)
O=C([N-]c1cccc(Nc2cccc(NC(=O)c3ccccc3)c2)c1)c1ccccc1 (optimized conformer: 68.51739027007848 kcal/mol)

>  <smiles>  (26) 
O=C(Nc1cccc(Nc2cccc(NC(=O)c3ccccc3)c2)c1)c1ccccc1

>  <score_type>  (26) 
oracle

>  <origin>  (26) 
adg

>  <m_score__min__energy>  (26) 
-12.050000000000001

>  <m_primary>  (26) 
energy

$$$$
26:0
     RDKit          3D

 54 56  0  0  0  0  0  0  0  0999 V2000
   56.9660   34.3240   45.2540 C   0  0  0  0  0  0  0  0  0  0  0  0
   58.2430   33.8630   45.8830 C   0  0  0  0  0  0  0  0  0  0  0  0
   59.4850   34.3200   45.4180 C   0  0  0  0  0  0  0  0  0  0  0  0
   60.6670   33.8820   46.0170 C   0  0  0  0  0  0  0  0  0  0  0  0
   60.6210   32.9800   47.0910 C   0  0  0  0  0  0  0  0  0  0  0  0
   62.1250   32.4790   47.8640 S   0  0  0  0  0  0  0  0  0  0  0  0
   61.8050   31.2840   48.7170 O   0  0  0  0  0  0  0  0  0  0  0  0
   63.1270   32.0710   46.8170 O   0  0  0  0  0  0  0  0  0  0  0  0
   62.7660   33.7960   48.8440 N   0  0  0  0  0  0  0  0  0  0  0  0
   64.1480   33.4920   49.1910 C   0  0  0  0  0  0  0  0  0  0  0  0
   64.0730   32.7700   50.5250 C   0  0  0  0  0  0  0  0  0  0  0  0
   62.7650   32.9150   51.0210 O   0  0  0  0  0  0  0  0  0  0  0  0
   62.1650   33.8820   50.1890 C   0  0  2  0  0  0  0  0  0  0  0  0
   60.6330   33.7810   50.2420 C   0  0  0  0  0  0  0  0  0  0  0  0
   60.2430   32.5150   50.8460 N   0  0  0  0  0  0  0  0  0  0  0  0
   58.8960   32.0440   50.8980 C   0  0  0  0  0  0  0  0  0  0  0  0
   57.9960   32.7520   51.4220 O   0  0  0  0  0  0  0  0  0  0  0  0
   58.5860   30.7040   50.3860 C   0  0  0  0  0  0  0  0  0  0  0  0
   57.5780   30.0910   50.8290 O   0  0  0  0  0  0  0  0  0  0  0  0
   59.3860   30.1100   49.3520 N   0  0  0  0  0  0  0  0  0  0  0  0
   58.8880   28.9670   48.5880 C   0  0  0  0  0  0  0  0  0  0  0  0
   59.5820   28.8650   47.2260 C   0  0  0  0  0  0  0  0  0  0  0  0
   58.6620   29.3400   46.1330 C   0  0  0  0  0  0  0  0  0  0  0  0
   57.4250   28.7080   45.9310 C   0  0  0  0  0  0  0  0  0  0  0  0
   56.6060   29.0840   44.8630 C   0  0  0  0  0  0  0  0  0  0  0  0
   57.0180   30.0900   43.9850 C   0  0  0  0  0  0  0  0  0  0  0  0
   58.2510   30.7210   44.1760 C   0  0  0  0  0  0  0  0  0  0  0  0
   59.0760   30.3440   45.2420 C   0  0  0  0  0  0  0  0  0  0  0  0
   59.3830   32.5140   47.5560 C   0  0  0  0  0  0  0  0  0  0  0  0
   58.2000   32.9550   46.9540 C   0  0  0  0  0  0  0  0  0  0  0  0
   56.2430   34.5850   46.0409 H   0  0  0  0  0  0  0  0  0  0  0  0
   57.1631   35.2077   44.6294 H   0  0  0  0  0  0  0  0  0  0  0  0
   56.5531   33.5182   44.6294 H   0  0  0  0  0  0  0  0  0  0  0  0
   59.5276   35.0274   44.5767 H   0  0  0  0  0  0  0  0  0  0  0  0
   61.6371   34.2447   45.6463 H   0  0  0  0  0  0  0  0  0  0  0  0
   64.6043   32.8451   48.4272 H   0  0  0  0  0  0  0  0  0  0  0  0
   64.7670   34.3995   49.2485 H   0  0  0  0  0  0  0  0  0  0  0  0
   64.3043   31.7035   50.3865 H   0  0  0  0  0  0  0  0  0  0  0  0
   64.8007   33.1944   51.2323 H   0  0  0  0  0  0  0  0  0  0  0  0
   62.3717   34.9005   50.5496 H   0  0  0  0  0  0  0  0  0  0  0  0
   60.2328   34.6109   50.8429 H   0  0  0  0  0  0  0  0  0  0  0  0
   60.2298   33.8354   49.2200 H   0  0  0  0  0  0  0  0  0  0  0  0
   60.2690   30.5870   49.0580 H   0  0  0  0  0  0  0  0  0  0  0  0
   59.0779   28.0450   49.1572 H   0  0  0  0  0  0  0  0  0  0  0  0
   57.8097   29.1043   48.4196 H   0  0  0  0  0  0  0  0  0  0  0  0
   60.4886   29.4880   47.2333 H   0  0  0  0  0  0  0  0  0  0  0  0
   59.8478   27.8143   47.0380 H   0  0  0  0  0  0  0  0  0  0  0  0
   57.0986   27.9125   46.6171 H   0  0  0  0  0  0  0  0  0  0  0  0
   55.6359   28.5875   44.7133 H   0  0  0  0  0  0  0  0  0  0  0  0
   56.3729   30.3852   43.1444 H   0  0  0  0  0  0  0  0  0  0  0  0
   58.5734   31.5155   43.4869 H   0  0  0  0  0  0  0  0  0  0  0  0
   60.0504   30.8348   45.3823 H   0  0  0  0  0  0  0  0  0  0  0  0
   59.3422   31.8021   48.3936 H   0  0  0  0  0  0  0  0  0  0  0  0
   57.2301   32.5886   47.3214 H   0  0  0  0  0  0  0  0  0  0  0  0
  1  2  1  0
  2  3  2  0
  3  4  1  0
  4  5  2  0
  5  6  1  0
  6  7  2  0
  6  8  2  0
  6  9  1  0
  9 10  1  0
 10 11  1  0
 11 12  1  0
 12 13  1  0
 13 14  1  0
 14 15  1  0
 15 16  1  0
 16 17  2  0
 16 18  1  0
 18 19  2  0
 18 20  1  0
 20 21  1  0
 21 22  1  0
 22 23  1  0
 23 24  2  0
 24 25  1  0
 25 26  2  0
 26 27  1  0
 27 28  2  0
  5 29  1  0
 29 30  2  0
 30  2  1  0
 13  9  1  0
 28 23  1  0
  1 31  1  0
  1 32  1  0
  1 33  1  0
  3 34  1  0
  4 35  1  0
 10 36  1  0
 10 37  1  0
 11 38  1  0
 11 39  1  0
 13 40  1  1
 14 41  1  0
 14 42  1  0
 20 43  1  0
 21 44  1  0
 21 45  1  0
 22 46  1  0
 22 47  1  0
 24 48  1  0
 25 49  1  0
 26 50  1  0
 27 51  1  0
 28 52  1  0
 29 53  1  0
 30 54  1  0
M  CHG  1  15  -1
M  END
>  <UniqueID>  (27) 
26

>  <SMILES>  (27) 
Cc1ccc(S(=O)(=O)N2CCO[C@@H]2C[N-]C(=O)C(=O)NCCc2ccccc2)cc1

>  <Energy>  (27) 
53.040994168706696

>  <Genealogy>  (27) 
Cc1ccc(S(=O)(=O)N2CCOC2C[N-]C(=O)C(=O)NCCc2ccccc2)cc1 (protonated)
Cc1ccc(S(=O)(=O)N2CCO[C@@H]2C[N-]C(=O)C(=O)NCCc2ccccc2)cc1 (chirality)
Cc1ccc(S(=O)(=O)N2CCO[C@@H]2C[N-]C(=O)C(=O)NCCc2ccccc2)cc1 (3D coordinates assigned)
Cc1ccc(S(=O)(=O)N2CCO[C@@H]2C[N-]C(=O)C(=O)NCCc2ccccc2)cc1 (nonaromatic ring conformer: 53.040994168706696 kcal/mol)

>  <smiles>  (27) 
Cc1ccc(S(=O)(=O)N2CCOC2CNC(=O)C(=O)NCCc2ccccc2)cc1

>  <score_type>  (27) 
oracle

>  <origin>  (27) 
adg

>  <m_score__min__energy>  (27) 
-10.460000000000001

>  <m_primary>  (27) 
energy

$$$$
27:0
     RDKit          3D

 52 55  0  0  0  0  0  0  0  0999 V2000
   57.3583   34.8294   43.6478 H   0  0  0  0  0  0  0  0  0  0  0  0
   57.7070   34.2630   44.5240 C   0  0  0  0  0  0  0  0  0  0  0  0
   56.8800   34.1260   45.6410 C   0  0  0  0  0  0  0  0  0  0  0  0
   55.8809   34.5863   45.6448 H   0  0  0  0  0  0  0  0  0  0  0  0
   57.3210   33.4040   46.7550 C   0  0  0  0  0  0  0  0  0  0  0  0
   56.6654   33.2960   47.6316 H   0  0  0  0  0  0  0  0  0  0  0  0
   58.5970   32.8160   46.7600 C   0  0  0  0  0  0  0  0  0  0  0  0
   59.0540   32.0810   47.9100 N   0  0  0  0  0  0  0  0  0  0  0  0
   58.6750   32.5130   49.2630 C   0  0  0  0  0  0  0  0  0  0  0  0
   57.6416   32.8896   49.2452 H   0  0  0  0  0  0  0  0  0  0  0  0
   58.7571   31.6530   49.9439 H   0  0  0  0  0  0  0  0  0  0  0  0
   59.6030   33.6200   49.7580 C   0  0  0  0  0  0  0  0  0  0  0  0
   59.0032   34.4610   50.1360 H   0  0  0  0  0  0  0  0  0  0  0  0
   60.2391   33.2338   50.5681 H   0  0  0  0  0  0  0  0  0  0  0  0
   60.4390   34.0750   48.6540 N   0  0  0  0  0  0  0  0  0  0  0  0
   61.6750   33.8250   48.3050 C   0  0  0  0  0  0  0  0  0  0  0  0
   61.9250   33.8940   46.9280 C   0  0  0  0  0  0  0  0  0  0  0  0
   61.1288   34.2342   46.2495 H   0  0  0  0  0  0  0  0  0  0  0  0
   63.1610   33.5400   46.4070 C   0  0  0  0  0  0  0  0  0  0  0  0
   63.3355   33.6019   45.3227 H   0  0  0  0  0  0  0  0  0  0  0  0
   64.1530   33.1190   47.2250 N   0  0  0  0  0  0  0  0  0  0  0  0
   65.0640   32.8460   46.7900 H   0  0  0  0  0  0  0  0  0  0  0  0
   63.9910   33.0630   48.5780 C   0  0  0  0  0  0  0  0  0  0  0  0
   65.0690   32.6400   49.3730 C   0  0  0  0  0  0  0  0  0  0  0  0
   66.0083   32.3250   48.8950 H   0  0  0  0  0  0  0  0  0  0  0  0
   64.9590   32.6160   50.7600 C   0  0  0  0  0  0  0  0  0  0  0  0
   66.3160   32.0920   51.7410 Cl  0  0  0  0  0  0  0  0  0  0  0  0
   63.7790   33.0320   51.3680 C   0  0  0  0  0  0  0  0  0  0  0  0
   63.6998   33.0302   52.4651 H   0  0  0  0  0  0  0  0  0  0  0  0
   62.6940   33.4520   50.5950 C   0  0  0  0  0  0  0  0  0  0  0  0
   61.7763   33.7950   51.0953 H   0  0  0  0  0  0  0  0  0  0  0  0
   62.7520   33.4450   49.1790 C   0  0  0  0  0  0  0  0  0  0  0  0
   59.9530   30.6090   47.6770 S   0  0  0  0  0  0  0  0  0  0  0  0
   61.4090   30.9340   47.4880 O   0  0  0  0  0  0  0  0  0  0  0  0
   59.8120   29.7350   48.8930 O   0  0  0  0  0  0  0  0  0  0  0  0
   59.3500   29.7190   46.2820 C   0  0  0  0  0  0  0  0  0  0  0  0
   60.1210   28.6940   45.7230 C   0  0  0  0  0  0  0  0  0  0  0  0
   61.1107   28.4605   46.1425 H   0  0  0  0  0  0  0  0  0  0  0  0
   59.6370   27.9670   44.6340 C   0  0  0  0  0  0  0  0  0  0  0  0
   60.2490   27.1661   44.1935 H   0  0  0  0  0  0  0  0  0  0  0  0
   58.3770   28.2540   44.1020 C   0  0  0  0  0  0  0  0  0  0  0  0
   58.0022   27.6770   43.2437 H   0  0  0  0  0  0  0  0  0  0  0  0
   57.5850   29.2750   44.6560 C   0  0  0  0  0  0  0  0  0  0  0  0
   56.2840   29.5640   44.1110 N   0  0  0  0  0  0  0  0  0  0  0  0
   56.1630   29.9990   42.9470 O   0  0  0  0  0  0  0  0  0  0  0  0
   55.1520   29.3690   44.8660 O   0  0  0  0  0  0  0  0  0  0  0  0
   58.0820   30.0030   45.7530 C   0  0  0  0  0  0  0  0  0  0  0  0
   57.4712   30.8015   46.1995 H   0  0  0  0  0  0  0  0  0  0  0  0
   59.4230   32.9620   45.6320 C   0  0  0  0  0  0  0  0  0  0  0  0
   60.4251   32.5084   45.6250 H   0  0  0  0  0  0  0  0  0  0  0  0
   58.9770   33.6810   44.5190 C   0  0  0  0  0  0  0  0  0  0  0  0
   59.6270   33.7886   43.6381 H   0  0  0  0  0  0  0  0  0  0  0  0
  1  2  1  0
  2  3  2  0
  3  4  1  0
  3  5  1  0
  5  6  1  0
  5  7  2  0
  7  8  1  0
  8  9  1  0
  9 10  1  0
  9 11  1  0
  9 12  1  0
 12 13  1  0
 12 14  1  0
 12 15  1  0
 15 16  2  0
 16 17  1  0
 17 18  1  0
 17 19  2  0
 19 20  1  0
 19 21  1  0
 21 22  1  0
 21 23  1  0
 23 24  2  0
 24 25  1  0
 24 26  1  0
 26 27  1  0
 26 28  2  0
 28 29  1  0
 28 30  1  0
 30 31  1  0
 30 32  2  0
  8 33  1  0
 33 34  2  0
 33 35  2  0
 33 36  1  0
 36 37  2  0
 37 38  1  0
 37 39  1  0
 39 40  1  0
 39 41  2  0
 41 42  1  0
 41 43  1  0
 43 44  1  0
 44 45  2  0
 44 46  1  0
 43 47  2  0
 47 48  1  0
  7 49  1  0
 49 50  1  0
 49 51  2  0
 51 52  1  0
 51  2  1  0
 32 16  1  0
 47 36  1  0
 32 23  1  0
M  CHG  2  44   1  46  -1
M  END
>  <UniqueID>  (28) 
27

>  <SMILES>  (28) 
O=[N+]([O-])c1cccc(S(=O)(=O)N(CC/N=c2/cc[nH]c3cc(Cl)ccc23)c2ccccc2)c1

>  <Energy>  (28) 
77.70789134347997

>  <Genealogy>  (28) 
O=[N+]([O-])c1cccc(S(=O)(=O)N(CC/N=c2/cc[nH]c3cc(Cl)ccc23)c2ccccc2)c1 (cis-trans isomerization)
O=[N+]([O-])c1cccc(S(=O)(=O)N(CC/N=c2/cc[nH]c3cc(Cl)ccc23)c2ccccc2)c1 (3D coordinates assigned)
O=[N+]([O-])c1cccc(S(=O)(=O)N(CC/N=c2/cc[nH]c3cc(Cl)ccc23)c2ccccc2)c1 (optimized conformer: 77.70789134347997 kcal/mol)

>  <smiles>  (28) 
O=[N+]([O-])c1cccc(S(=O)(=O)N(CCN=c2cc[nH]c3cc(Cl)ccc23)c2ccccc2)c1

>  <score_type>  (28) 
oracle

>  <origin>  (28) 
adg

>  <m_score__min__energy>  (28) 
-10.529999999999999

>  <m_primary>  (28) 
energy

$$$$
28:0
     RDKit          3D

 48 51  0  0  0  0  0  0  0  0999 V2000
   57.8480   27.2050   43.8630 C   0  0  0  0  0  0  0  0  0  0  0  0
   58.4470   27.9840   45.0040 C   0  0  0  0  0  0  0  0  0  0  0  0
   59.5210   27.4260   45.7190 C   0  0  0  0  0  0  0  0  0  0  0  0
   60.1040   28.1170   46.7810 C   0  0  0  0  0  0  0  0  0  0  0  0
   59.6090   29.3640   47.1660 C   0  0  0  0  0  0  0  0  0  0  0  0
   60.2680   30.0910   48.2100 N   0  0  0  0  0  0  0  0  0  0  0  0
   59.7640   30.8160   49.1720 C   0  0  0  0  0  0  0  0  0  0  0  0
   58.8390   30.2140   49.9660 N   0  0  0  0  0  0  0  0  0  0  0  0
   58.3480   30.7990   51.0840 C   0  0  0  0  0  0  0  0  0  0  0  0
   57.4090   30.1340   51.8810 C   0  0  0  0  0  0  0  0  0  0  0  0
   56.9350   30.7380   53.0500 C   0  0  0  0  0  0  0  0  0  0  0  0
   57.3990   32.0040   53.4240 C   0  0  0  0  0  0  0  0  0  0  0  0
   58.3360   32.6720   52.6280 C   0  0  0  0  0  0  0  0  0  0  0  0
   58.8160   32.0700   51.4550 C   0  0  0  0  0  0  0  0  0  0  0  0
   59.6980   32.7140   50.6430 N   0  0  0  0  0  0  0  0  0  0  0  0
   60.1410   32.1630   49.4730 C   0  0  0  0  0  0  0  0  0  0  0  0
   60.8690   33.2800   48.2930 S   0  0  0  0  0  0  0  0  0  0  0  0
   62.0400   32.6520   47.5910 O   0  0  0  0  0  0  0  0  0  0  0  0
   61.3080   34.5460   48.9740 O   0  0  0  0  0  0  0  0  0  0  0  0
   59.6800   33.6630   47.0480 C   0  0  0  0  0  0  0  0  0  0  0  0
   60.0800   34.1810   45.8060 C   0  0  0  0  0  0  0  0  0  0  0  0
   59.1220   34.4980   44.8380 C   0  0  0  0  0  0  0  0  0  0  0  0
   57.7640   34.3020   45.1040 C   0  0  0  0  0  0  0  0  0  0  0  0
   57.3620   33.7890   46.3400 C   0  0  0  0  0  0  0  0  0  0  0  0
   58.3160   33.4720   47.3120 C   0  0  0  0  0  0  0  0  0  0  0  0
   58.5870   29.9610   46.4180 C   0  0  0  0  0  0  0  0  0  0  0  0
   57.9870   29.2800   45.3460 C   0  0  0  0  0  0  0  0  0  0  0  0
   56.6630   30.0620   44.4680 S   0  0  0  0  0  0  0  0  0  0  0  0
   55.1490   29.3290   44.8710 N   0  0  0  0  0  0  0  0  0  0  0  0
   56.8900   29.9220   42.9890 O   0  0  0  0  0  0  0  0  0  0  0  0
   56.6000   31.5180   44.8340 O   0  0  0  0  0  0  0  0  0  0  0  0
   57.2231   26.3924   44.2620 H   0  0  0  0  0  0  0  0  0  0  0  0
   57.2297   27.8743   43.2468 H   0  0  0  0  0  0  0  0  0  0  0  0
   58.6536   26.7793   43.2468 H   0  0  0  0  0  0  0  0  0  0  0  0
   59.9055   26.4344   45.4381 H   0  0  0  0  0  0  0  0  0  0  0  0
   60.9577   27.6773   47.3176 H   0  0  0  0  0  0  0  0  0  0  0  0
   57.0445   29.1382   51.5885 H   0  0  0  0  0  0  0  0  0  0  0  0
   56.1961   30.2169   53.6765 H   0  0  0  0  0  0  0  0  0  0  0  0
   57.0264   32.4750   54.3456 H   0  0  0  0  0  0  0  0  0  0  0  0
   58.6963   33.6690   52.9218 H   0  0  0  0  0  0  0  0  0  0  0  0
   60.0010   33.6810   50.8980 H   0  0  0  0  0  0  0  0  0  0  0  0
   61.1480   34.3376   45.5941 H   0  0  0  0  0  0  0  0  0  0  0  0
   59.4379   34.9025   43.8651 H   0  0  0  0  0  0  0  0  0  0  0  0
   57.0121   34.5514   44.3408 H   0  0  0  0  0  0  0  0  0  0  0  0
   56.2931   33.6342   46.5488 H   0  0  0  0  0  0  0  0  0  0  0  0
   57.9960   33.0721   48.2855 H   0  0  0  0  0  0  0  0  0  0  0  0
   58.2496   30.9764   46.6731 H   0  0  0  0  0  0  0  0  0  0  0  0
   55.3240   28.6900   45.6800 H   0  0  0  0  0  0  0  0  0  0  0  0
  1  2  1  0
  2  3  2  0
  3  4  1  0
  4  5  2  0
  5  6  1  0
  6  7  2  3
  7  8  1  0
  8  9  1  0
  9 10  2  0
 10 11  1  0
 11 12  2  0
 12 13  1  0
 13 14  2  0
 14 15  1  0
 15 16  2  0
 16 17  1  0
 17 18  2  0
 17 19  2  0
 17 20  1  0
 20 21  2  0
 21 22  1  0
 22 23  2  0
 23 24  1  0
 24 25  2  0
  5 26  1  0
 26 27  2  0
 27 28  1  0
 28 29  1  0
 28 30  2  0
 28 31  2  0
 27  2  1  0
 16  7  1  0
 25 20  1  0
 14  9  1  0
  1 32  1  0
  1 33  1  0
  1 34  1  0
  3 35  1  0
  4 36  1  0
 10 37  1  0
 11 38  1  0
 12 39  1  0
 13 40  1  0
 15 41  1  0
 21 42  1  0
 22 43  1  0
 23 44  1  0
 24 45  1  0
 25 46  1  0
 26 47  1  0
 29 48  1  0
M  CHG  3   8  -1  15   1  29  -1
M  END
>  <UniqueID>  (29) 
28

>  <SMILES>  (29) 
Cc1ccc(N=c2[n-]c3ccccc3[nH+]c2S(=O)(=O)c2ccccc2)cc1S([NH-])(=O)=O

>  <Energy>  (29) 
80.88861881496888

>  <Genealogy>  (29) 
Cc1ccc(N=c2[n-]c3ccccc3[nH+]c2S(=O)(=O)c2ccccc2)cc1S([NH-])(=O)=O (protonated)
Cc1ccc(N=c2[n-]c3ccccc3[nH+]c2S(=O)(=O)c2ccccc2)cc1S([NH-])(=O)=O (3D coordinates assigned)
Cc1ccc(N=c2[n-]c3ccccc3[nH+]c2S(=O)(=O)c2ccccc2)cc1S([NH-])(=O)=O (optimized conformer: 80.88861881496888 kcal/mol)

>  <smiles>  (29) 
Cc1ccc(N=c2[nH]c3ccccc3nc2S(=O)(=O)c2ccccc2)cc1S(N)(=O)=O

>  <score_type>  (29) 
oracle

>  <origin>  (29) 
adg

>  <m_score__min__energy>  (29) 
-12.94

>  <m_primary>  (29) 
energy

$$$$
29:0
     RDKit          3D

 38 40  0  0  0  0  0  0  0  0999 V2000
   63.5880   33.3580   47.4930 O   0  0  0  0  0  0  0  0  0  0  0  0
   62.8000   33.0820   48.3850 C   0  0  0  0  0  0  0  0  0  0  0  0
   61.6570   32.2330   48.1330 N   0  0  2  0  0  0  0  0  0  0  0  0
   61.5240   31.2430   49.2220 C   0  0  0  0  0  0  0  0  0  0  0  0
   60.2860   30.3670   49.0080 C   0  0  0  0  0  0  0  0  0  0  0  0
   60.3520   29.6170   47.6470 C   0  0  1  0  0  0  0  0  0  0  0  0
   59.0370   29.5120   46.9360 N   0  0  0  0  0  0  0  0  0  0  0  0
   58.3500   28.3140   46.9150 C   0  0  0  0  0  0  0  0  0  0  0  0
   58.7150   27.3640   47.6580 O   0  0  0  0  0  0  0  0  0  0  0  0
   57.2400   28.1160   46.0650 C   0  0  0  0  0  0  0  0  0  0  0  0
   56.5520   26.7950   45.9900 C   0  0  0  0  0  0  0  0  0  0  0  0
   57.2150   25.7260   45.9190 O   0  0  0  0  0  0  0  0  0  0  0  0
   55.1640   26.7130   45.9950 O   0  0  0  0  0  0  0  0  0  0  0  0
   56.7930   29.1880   45.2810 C   0  0  0  0  0  0  0  0  0  0  0  0
   55.7210   29.0200   44.4070 O   0  0  0  0  0  0  0  0  0  0  0  0
   57.3880   30.4470   45.4130 C   0  0  0  0  0  0  0  0  0  0  0  0
   56.8780   31.5500   44.7000 C   0  0  0  0  0  0  0  0  0  0  0  0
   57.3980   32.8250   44.9010 C   0  0  0  0  0  0  0  0  0  0  0  0
   58.4100   33.0230   45.8330 C   0  0  0  0  0  0  0  0  0  0  0  0
   58.9390   31.9410   46.5390 C   0  0  0  0  0  0  0  0  0  0  0  0
   58.4820   30.6170   46.3030 C   0  0  0  0  0  0  0  0  0  0  0  0
   61.4720   30.1200   46.7050 C   0  0  0  0  0  0  0  0  0  0  0  0
   61.7240   31.6400   46.7640 C   0  0  0  0  0  0  0  0  0  0  0  0
   62.9626   33.4856   49.3953 H   0  0  0  0  0  0  0  0  0  0  0  0
   60.8140   32.8540   48.1760 H   0  0  0  0  0  0  0  0  0  0  0  0
   62.4195   30.6044   49.2410 H   0  0  0  0  0  0  0  0  0  0  0  0
   61.4176   31.7790   50.1766 H   0  0  0  0  0  0  0  0  0  0  0  0
   60.2246   29.6288   49.8212 H   0  0  0  0  0  0  0  0  0  0  0  0
   59.3981   31.0163   49.0036 H   0  0  0  0  0  0  0  0  0  0  0  0
   60.6249   28.5915   47.9365 H   0  0  0  0  0  0  0  0  0  0  0  0
   56.0614   31.4020   43.9780 H   0  0  0  0  0  0  0  0  0  0  0  0
   57.0084   33.6757   44.3226 H   0  0  0  0  0  0  0  0  0  0  0  0
   58.7958   34.0369   46.0151 H   0  0  0  0  0  0  0  0  0  0  0  0
   59.7228   32.1167   47.2905 H   0  0  0  0  0  0  0  0  0  0  0  0
   62.4059   29.6063   46.9770 H   0  0  0  0  0  0  0  0  0  0  0  0
   61.1410   29.8978   45.6798 H   0  0  0  0  0  0  0  0  0  0  0  0
   62.7257   31.8370   46.3543 H   0  0  0  0  0  0  0  0  0  0  0  0
   60.9173   32.1105   46.1828 H   0  0  0  0  0  0  0  0  0  0  0  0
  1  2  2  0
  2  3  1  0
  3  4  1  0
  4  5  1  0
  5  6  1  0
  6  7  1  0
  7  8  1  0
  8  9  2  0
  8 10  1  0
 10 11  1  0
 11 12  2  0
 11 13  1  0
 10 14  2  0
 14 15  1  0
 14 16  1  0
 16 17  2  0
 17 18  1  0
 18 19  2  0
 19 20  1  0
 20 21  2  0
  6 22  1  0
 22 23  1  0
 23  3  1  0
 21  7  1  0
 21 16  1  0
  2 24  1  0
  3 25  1  6
  4 26  1  0
  4 27  1  0
  5 28  1  0
  5 29  1  0
  6 30  1  1
 17 31  1  0
 18 32  1  0
 19 33  1  0
 20 34  1  0
 22 35  1  0
 22 36  1  0
 23 37  1  0
 23 38  1  0
M  CHG  3   3   1  13  -1  15  -1
M  END
>  <UniqueID>  (30) 
29

>  <SMILES>  (30) 
O=C[NH+]1CCC(n2c(=O)c(C(=O)[O-])c([O-])c3ccccc32)CC1

>  <Energy>  (30) 
77.07551677662977

>  <Genealogy>  (30) 
O=C[NH+]1CCC(n2c(=O)c(C(=O)[O-])c([O-])c3ccccc32)CC1 (protonated)
O=C[NH+]1CCC(n2c(=O)c(C(=O)[O-])c([O-])c3ccccc32)CC1 (3D coordinates assigned)
O=C[NH+]1CCC(n2c(=O)c(C(=O)[O-])c([O-])c3ccccc32)CC1 (nonaromatic ring conformer: 77.07551677662977 kcal/mol)

>  <smiles>  (30) 
O=CN1CCC(n2c(=O)c(C(=O)O)c(O)c3ccccc32)CC1

>  <score_type>  (30) 
oracle

>  <origin>  (30) 
adg

>  <m_score__min__energy>  (30) 
-9.8300000000000001

>  <m_primary>  (30) 
energy

$$$$
30:0
     RDKit          3D

 49 52  0  0  0  0  0  0  0  0999 V2000
   66.1160   32.4380   50.1850 C   0  0  0  0  0  0  0  0  0  0  0  0
   65.0310   32.9000   49.3880 O   0  0  0  0  0  0  0  0  0  0  0  0
   63.8120   32.2210   49.2310 C   0  0  0  0  0  0  0  0  0  0  0  0
   63.2810   31.3930   50.2390 C   0  0  0  0  0  0  0  0  0  0  0  0
   62.0520   30.7290   50.0510 C   0  0  0  0  0  0  0  0  0  0  0  0
   61.4830   29.9170   51.0450 O   0  0  0  0  0  0  0  0  0  0  0  0
   61.9040   28.5900   51.3440 C   0  0  0  0  0  0  0  0  0  0  0  0
   61.3610   30.8920   48.8380 C   0  0  0  0  0  0  0  0  0  0  0  0
   60.1060   30.2230   48.6210 N   0  0  0  0  0  0  0  0  0  0  0  0
   60.1230   28.7850   48.3270 C   0  0  0  0  0  0  0  0  0  0  0  0
   59.8660   28.5580   46.8700 C   0  0  0  0  0  0  0  0  0  0  0  0
   60.5700   29.1420   45.8240 C   0  0  0  0  0  0  0  0  0  0  0  0
   60.0460   28.8230   44.5650 C   0  0  0  0  0  0  0  0  0  0  0  0
   58.9270   28.0030   44.6180 C   0  0  0  0  0  0  0  0  0  0  0  0
   58.5840   27.6790   46.2320 S   0  0  0  0  0  0  0  0  0  0  0  0
   58.9000   30.9950   48.4310 C   0  0  0  0  0  0  0  0  0  0  0  0
   58.1630   31.2680   49.4180 O   0  0  0  0  0  0  0  0  0  0  0  0
   58.5350   31.5180   47.0980 C   0  0  0  0  0  0  0  0  0  0  0  0
   57.7950   30.7210   46.2820 N   0  0  0  0  0  0  0  0  0  0  0  0
   57.4280   31.0970   45.0580 N   0  0  0  0  0  0  0  0  0  0  0  0
   57.7790   32.3080   44.5520 C   0  0  0  0  0  0  0  0  0  0  0  0
   57.4180   32.6230   43.3860 O   0  0  0  0  0  0  0  0  0  0  0  0
   58.5340   33.1950   45.3380 C   0  0  0  0  0  0  0  0  0  0  0  0
   58.9010   34.4680   44.8590 C   0  0  0  0  0  0  0  0  0  0  0  0
   59.6220   35.3450   45.6700 C   0  0  0  0  0  0  0  0  0  0  0  0
   59.9770   34.9700   46.9650 C   0  0  0  0  0  0  0  0  0  0  0  0
   59.6250   33.7100   47.4560 C   0  0  0  0  0  0  0  0  0  0  0  0
   58.9160   32.8000   46.6440 C   0  0  0  0  0  0  0  0  0  0  0  0
   61.8910   31.7160   47.8370 C   0  0  0  0  0  0  0  0  0  0  0  0
   63.1050   32.3760   48.0300 C   0  0  0  0  0  0  0  0  0  0  0  0
   63.7350   33.4030   46.7500 Cl  0  0  0  0  0  0  0  0  0  0  0  0
   65.8612   32.5465   51.2496 H   0  0  0  0  0  0  0  0  0  0  0  0
   66.3108   31.3789   49.9607 H   0  0  0  0  0  0  0  0  0  0  0  0
   67.0145   33.0316   49.9607 H   0  0  0  0  0  0  0  0  0  0  0  0
   63.8311   31.2632   51.1827 H   0  0  0  0  0  0  0  0  0  0  0  0
   61.9466   28.4559   52.4350 H   0  0  0  0  0  0  0  0  0  0  0  0
   61.1892   27.8729   50.9140 H   0  0  0  0  0  0  0  0  0  0  0  0
   62.9014   28.4161   50.9140 H   0  0  0  0  0  0  0  0  0  0  0  0
   61.1067   28.3704   48.5924 H   0  0  0  0  0  0  0  0  0  0  0  0
   59.3377   28.2867   48.9144 H   0  0  0  0  0  0  0  0  0  0  0  0
   61.4482   29.7882   45.9698 H   0  0  0  0  0  0  0  0  0  0  0  0
   60.4803   29.1879   43.6226 H   0  0  0  0  0  0  0  0  0  0  0  0
   58.3613   27.6290   43.7519 H   0  0  0  0  0  0  0  0  0  0  0  0
   56.8600   30.4390   44.4800 H   0  0  0  0  0  0  0  0  0  0  0  0
   58.6177   34.7721   43.8405 H   0  0  0  0  0  0  0  0  0  0  0  0
   59.9110   36.3347   45.2867 H   0  0  0  0  0  0  0  0  0  0  0  0
   60.5369   35.6694   47.6033 H   0  0  0  0  0  0  0  0  0  0  0  0
   59.9024   33.4260   48.4819 H   0  0  0  0  0  0  0  0  0  0  0  0
   61.3454   31.8439   46.8905 H   0  0  0  0  0  0  0  0  0  0  0  0
  1  2  1  0
  2  3  1  0
  3  4  2  0
  4  5  1  0
  5  6  1  0
  6  7  1  0
  5  8  2  0
  8  9  1  0
  9 10  1  0
 10 11  1  0
 11 12  2  0
 12 13  1  0
 13 14  2  0
 14 15  1  0
  9 16  1  0
 16 17  2  0
 16 18  1  0
 18 19  2  0
 19 20  1  0
 20 21  1  0
 21 22  2  0
 21 23  1  0
 23 24  2  0
 24 25  1  0
 25 26  2  0
 26 27  1  0
 27 28  2  0
  8 29  1  0
 29 30  2  0
 30 31  1  0
 30  3  1  0
 15 11  1  0
 28 18  1  0
 28 23  1  0
  1 32  1  0
  1 33  1  0
  1 34  1  0
  4 35  1  0
  7 36  1  0
  7 37  1  0
  7 38  1  0
 10 39  1  0
 10 40  1  0
 12 41  1  0
 13 42  1  0
 14 43  1  0
 20 44  1  0
 24 45  1  0
 25 46  1  0
 26 47  1  0
 27 48  1  0
 29 49  1  0
M  END
>  <UniqueID>  (31) 
30

>  <SMILES>  (31) 
COc1cc(OC)c(N(Cc2cccs2)C(=O)c2n[nH]c(=O)c3ccccc23)cc1Cl

>  <Energy>  (31) 
92.89204013550462

>  <Genealogy>  (31) 
COc1cc(OC)c(N(Cc2cccs2)C(=O)c2n[nH]c(=O)c3ccccc23)cc1Cl (3D coordinates assigned)
COc1cc(OC)c(N(Cc2cccs2)C(=O)c2n[nH]c(=O)c3ccccc23)cc1Cl (optimized conformer: 92.89204013550462 kcal/mol)

>  <smiles>  (31) 
COc1cc(OC)c(N(Cc2cccs2)C(=O)c2n[nH]c(=O)c3ccccc23)cc1Cl

>  <score_type>  (31) 
oracle

>  <origin>  (31) 
adg

>  <m_score__min__energy>  (31) 
-7.9800000000000004

>  <m_primary>  (31) 
energy

$$$$
31:0
     RDKit          3D

 33 35  0  0  0  0  0  0  0  0999 V2000
   57.1150   31.5170   42.9610 O   0  0  0  0  0  0  0  0  0  0  0  0
   57.1820   31.3070   44.2000 C   0  0  0  0  0  0  0  0  0  0  0  0
   56.2270   30.4270   44.8080 N   0  0  0  0  0  0  0  0  0  0  0  0
   56.2870   28.9660   44.7940 C   0  0  0  0  0  0  0  0  0  0  0  0
   57.5680   28.4710   45.4230 C   0  0  0  0  0  0  0  0  0  0  0  0
   57.8820   28.8440   46.7430 C   0  0  0  0  0  0  0  0  0  0  0  0
   59.0360   28.3590   47.3620 C   0  0  0  0  0  0  0  0  0  0  0  0
   59.8970   27.5070   46.6680 C   0  0  0  0  0  0  0  0  0  0  0  0
   61.0160   27.0370   47.2720 F   0  0  0  0  0  0  0  0  0  0  0  0
   59.6070   27.1410   45.3510 C   0  0  0  0  0  0  0  0  0  0  0  0
   58.4490   27.6180   44.7240 C   0  0  0  0  0  0  0  0  0  0  0  0
   58.1360   27.1260   43.0620 Cl  0  0  0  0  0  0  0  0  0  0  0  0
   58.2010   32.0160   44.9870 C   0  0  0  0  0  0  0  0  0  0  0  0
   58.2380   33.4170   45.0190 C   0  0  0  0  0  0  0  0  0  0  0  0
   59.2400   34.0540   45.7500 C   0  0  0  0  0  0  0  0  0  0  0  0
   59.2860   35.3140   45.7770 O   0  0  0  0  0  0  0  0  0  0  0  0
   60.1830   33.2790   46.4450 C   0  0  0  0  0  0  0  0  0  0  0  0
   61.2250   33.8550   47.1930 C   0  0  0  0  0  0  0  0  0  0  0  0
   62.1380   33.0380   47.8690 C   0  0  0  0  0  0  0  0  0  0  0  0
   63.4390   33.7580   48.8000 Cl  0  0  0  0  0  0  0  0  0  0  0  0
   62.0160   31.6450   47.8040 C   0  0  0  0  0  0  0  0  0  0  0  0
   60.9830   31.0630   47.0640 C   0  0  0  0  0  0  0  0  0  0  0  0
   60.0660   31.8710   46.3820 C   0  0  0  0  0  0  0  0  0  0  0  0
   59.0930   31.3080   45.6730 O   0  0  0  0  0  0  0  0  0  0  0  0
   55.4314   28.5654   45.3574 H   0  0  0  0  0  0  0  0  0  0  0  0
   56.2545   28.6238   43.7491 H   0  0  0  0  0  0  0  0  0  0  0  0
   57.2130   29.5232   47.2918 H   0  0  0  0  0  0  0  0  0  0  0  0
   59.2669   28.6487   48.3978 H   0  0  0  0  0  0  0  0  0  0  0  0
   60.2912   26.4754   44.8043 H   0  0  0  0  0  0  0  0  0  0  0  0
   57.4859   34.0065   44.4742 H   0  0  0  0  0  0  0  0  0  0  0  0
   61.3226   34.9493   47.2468 H   0  0  0  0  0  0  0  0  0  0  0  0
   62.7356   31.0063   48.3371 H   0  0  0  0  0  0  0  0  0  0  0  0
   60.8905   29.9679   47.0175 H   0  0  0  0  0  0  0  0  0  0  0  0
  1  2  2  0
  2  3  1  0
  3  4  1  0
  4  5  1  0
  5  6  2  0
  6  7  1  0
  7  8  2  0
  8  9  1  0
  8 10  1  0
 10 11  2  0
 11 12  1  0
  2 13  1  0
 13 14  2  0
 14 15  1  0
 15 16  2  0
 15 17  1  0
 17 18  2  0
 18 19  1  0
 19 20  1  0
 19 21  2  0
 21 22  1  0
 22 23  2  0
 23 24  1  0
 11  5  1  0
 24 13  1  0
 23 17  1  0
  4 25  1  0
  4 26  1  0
  6 27  1  0
  7 28  1  0
 10 29  1  0
 14 30  1  0
 18 31  1  0
 21 32  1  0
 22 33  1  0
M  CHG  1   3  -1
M  END
>  <UniqueID>  (32) 
31

>  <SMILES>  (32) 
O=C([N-]Cc1ccc(F)cc1Cl)c1cc(=O)c2cc(Cl)ccc2o1

>  <Energy>  (32) 
43.68215869475137

>  <Genealogy>  (32) 
O=C([N-]Cc1ccc(F)cc1Cl)c1cc(=O)c2cc(Cl)ccc2o1 (protonated)
O=C([N-]Cc1ccc(F)cc1Cl)c1cc(=O)c2cc(Cl)ccc2o1 (3D coordinates assigned)
O=C([N-]Cc1ccc(F)cc1Cl)c1cc(=O)c2cc(Cl)ccc2o1 (optimized conformer: 43.68215869475137 kcal/mol)

>  <smiles>  (32) 
O=C(NCc1ccc(F)cc1Cl)c1cc(=O)c2cc(Cl)ccc2o1

>  <score_type>  (32) 
oracle

>  <origin>  (32) 
adg

>  <m_score__min__energy>  (32) 
-9.2699999999999996

>  <m_primary>  (32) 
energy

$$$$
32:0
     RDKit          3D

 36 38  0  0  0  0  0  0  0  0999 V2000
   61.0410   32.9710   48.0180 N   0  0  0  0  0  0  0  0  0  0  0  0
   59.8380   33.1400   47.2570 C   0  0  0  0  0  0  0  0  0  0  0  0
   59.6150   34.3430   46.5750 C   0  0  0  0  0  0  0  0  0  0  0  0
   58.4550   34.5190   45.8240 C   0  0  0  0  0  0  0  0  0  0  0  0
   57.5160   33.4900   45.7650 C   0  0  0  0  0  0  0  0  0  0  0  0
   57.7350   32.3260   46.4330 N   0  0  0  0  0  0  0  0  0  0  0  0
   58.8680   32.1180   47.1630 C   0  0  0  0  0  0  0  0  0  0  0  0
   59.0840   30.5350   47.9930 S   0  0  0  0  0  0  0  0  0  0  0  0
   59.1690   29.5460   46.4590 C   0  0  0  0  0  0  0  0  0  0  0  0
   57.7910   29.2800   45.9230 C   0  0  0  0  0  0  0  0  0  0  0  0
   57.0920   30.2230   45.2640 N   0  0  0  0  0  0  0  0  0  0  0  0
   55.9720   29.5800   44.8830 C   0  0  0  0  0  0  0  0  0  0  0  0
   55.0540   30.1420   44.2310 O   0  0  0  0  0  0  0  0  0  0  0  0
   55.9180   28.2860   45.2490 N   0  0  0  0  0  0  0  0  0  0  0  0
   57.0700   28.0870   45.9170 C   0  0  0  0  0  0  0  0  0  0  0  0
   57.4600   26.7670   46.4730 C   0  0  0  0  0  0  0  0  0  0  0  0
   57.9490   26.6880   47.6300 O   0  0  0  0  0  0  0  0  0  0  0  0
   57.3300   25.5230   45.6810 C   0  0  0  0  0  0  0  0  0  0  0  0
   57.4130   25.5380   44.2770 C   0  0  0  0  0  0  0  0  0  0  0  0
   57.2770   24.3530   43.5480 C   0  0  0  0  0  0  0  0  0  0  0  0
   57.0480   23.1440   44.2110 C   0  0  0  0  0  0  0  0  0  0  0  0
   56.8620   21.5260   43.2120 Br  0  0  0  0  0  0  0  0  0  0  0  0
   56.9440   23.1210   45.6050 C   0  0  0  0  0  0  0  0  0  0  0  0
   57.0780   24.3050   46.3360 C   0  0  0  0  0  0  0  0  0  0  0  0
   61.4240   32.0150   48.1960 H   0  0  0  0  0  0  0  0  0  0  0  0
   61.5630   33.7810   48.4150 H   0  0  0  0  0  0  0  0  0  0  0  0
   60.3585   35.1516   46.6326 H   0  0  0  0  0  0  0  0  0  0  0  0
   58.2815   35.4608   45.2827 H   0  0  0  0  0  0  0  0  0  0  0  0
   56.5957   33.6201   45.1766 H   0  0  0  0  0  0  0  0  0  0  0  0
   57.0160   31.5710   46.3710 H   0  0  0  0  0  0  0  0  0  0  0  0
   59.7496   30.0978   45.7051 H   0  0  0  0  0  0  0  0  0  0  0  0
   59.6532   28.5843   46.6840 H   0  0  0  0  0  0  0  0  0  0  0  0
   57.5859   26.4877   43.7496 H   0  0  0  0  0  0  0  0  0  0  0  0
   57.3503   24.3720   42.4506 H   0  0  0  0  0  0  0  0  0  0  0  0
   56.7567   22.1709   46.1268 H   0  0  0  0  0  0  0  0  0  0  0  0
   56.9856   24.2834   47.4319 H   0  0  0  0  0  0  0  0  0  0  0  0
  1  2  1  0
  2  3  2  0
  3  4  1  0
  4  5  2  0
  5  6  1  0
  6  7  2  0
  7  8  1  0
  8  9  1  0
  9 10  1  0
 10 11  1  0
 11 12  1  0
 12 13  2  0
 12 14  1  0
 14 15  1  0
 15 16  1  0
 16 17  2  0
 16 18  1  0
 18 19  2  0
 19 20  1  0
 20 21  2  0
 21 22  1  0
 21 23  1  0
 23 24  2  0
  7  2  1  0
 15 10  2  0
 24 18  1  0
  1 25  1  0
  1 26  1  0
  3 27  1  0
  4 28  1  0
  5 29  1  0
  6 30  1  0
  9 31  1  0
  9 32  1  0
 19 33  1  0
 20 34  1  0
 23 35  1  0
 24 36  1  0
M  CHG  3   6   1  11  -1  14  -1
M  END
>  <UniqueID>  (33) 
32

>  <SMILES>  (33) 
Nc1ccc[nH+]c1SCc1[n-]c(=O)[n-]c1C(=O)c1ccc(Br)cc1

>  <Energy>  (33) 
66.14679116473845

>  <Genealogy>  (33) 
Nc1ccc[nH+]c1SCc1[n-]c(=O)[n-]c1C(=O)c1ccc(Br)cc1 (protonated)
Nc1ccc[nH+]c1SCc1[n-]c(=O)[n-]c1C(=O)c1ccc(Br)cc1 (3D coordinates assigned)
Nc1ccc[nH+]c1SCc1[n-]c(=O)[n-]c1C(=O)c1ccc(Br)cc1 (optimized conformer: 66.14679116473845 kcal/mol)

>  <smiles>  (33) 
Nc1cccnc1SCc1[nH]c(=O)[nH]c1C(=O)c1ccc(Br)cc1

>  <score_type>  (33) 
oracle

>  <origin>  (33) 
adg

>  <m_score__min__energy>  (33) 
-9.5199999999999996

>  <m_primary>  (33) 
energy

$$$$
33:0
     RDKit          3D

 30 31  0  0  0  0  0  0  0  0999 V2000
   62.3710   33.8260   49.4960 C   0  0  0  0  0  0  0  0  0  0  0  0
   61.5620   33.9570   48.2500 C   0  0  0  0  0  0  0  0  0  0  0  0
   62.0260   33.7550   46.9540 C   0  0  0  0  0  0  0  0  0  0  0  0
   61.0750   33.8580   45.9880 N   0  0  0  0  0  0  0  0  0  0  0  0
   59.8590   34.1260   46.5170 C   0  0  0  0  0  0  0  0  0  0  0  0
   58.7720   34.2750   45.8200 N   0  0  0  0  0  0  0  0  0  0  0  0
   57.6880   33.3370   45.7250 C   0  0  0  0  0  0  0  0  0  0  0  0
   56.6630   33.4600   46.4470 O   0  0  0  0  0  0  0  0  0  0  0  0
   57.7280   32.2800   44.7610 N   0  0  0  0  0  0  0  0  0  0  0  0
   57.8240   30.8770   45.0460 C   0  0  0  0  0  0  0  0  0  0  0  0
   57.2670   29.9650   44.1430 C   0  0  0  0  0  0  0  0  0  0  0  0
   57.3230   28.5910   44.3960 C   0  0  0  0  0  0  0  0  0  0  0  0
   57.9240   28.1100   45.5660 C   0  0  0  0  0  0  0  0  0  0  0  0
   57.9600   26.6930   45.7840 N   0  0  0  0  0  0  0  0  0  0  0  0
   56.5830   25.7030   46.1440 S   0  0  0  0  0  0  0  0  0  0  0  0
   55.1510   26.6620   46.0220 N   0  0  0  0  0  0  0  0  0  0  0  0
   56.5000   24.5680   45.1630 O   0  0  0  0  0  0  0  0  0  0  0  0
   56.6950   25.1640   47.5430 O   0  0  0  0  0  0  0  0  0  0  0  0
   58.4610   29.0240   46.4890 C   0  0  0  0  0  0  0  0  0  0  0  0
   58.4040   30.3980   46.2340 C   0  0  0  0  0  0  0  0  0  0  0  0
   59.9040   34.2430   48.1930 S   0  0  0  0  0  0  0  0  0  0  0  0
   61.7146   33.9323   50.3722 H   0  0  0  0  0  0  0  0  0  0  0  0
   62.8540   32.8379   49.5174 H   0  0  0  0  0  0  0  0  0  0  0  0
   63.1411   34.6111   49.5174 H   0  0  0  0  0  0  0  0  0  0  0  0
   63.0789   33.5298   46.7288 H   0  0  0  0  0  0  0  0  0  0  0  0
   56.7812   30.3318   43.2268 H   0  0  0  0  0  0  0  0  0  0  0  0
   56.8925   27.8837   43.6719 H   0  0  0  0  0  0  0  0  0  0  0  0
   55.1560   27.0970   45.0730 H   0  0  0  0  0  0  0  0  0  0  0  0
   58.9277   28.6574   47.4151 H   0  0  0  0  0  0  0  0  0  0  0  0
   58.8152   31.1078   46.9669 H   0  0  0  0  0  0  0  0  0  0  0  0
  1  2  1  0
  2  3  2  0
  3  4  1  0
  4  5  1  0
  5  6  2  3
  6  7  1  0
  7  8  2  0
  7  9  1  0
  9 10  1  0
 10 11  2  0
 11 12  1  0
 12 13  2  0
 13 14  1  0
 14 15  1  0
 15 16  1  0
 15 17  2  0
 15 18  2  0
 13 19  1  0
 19 20  2  0
  5 21  1  0
 21  2  1  0
 20 10  1  0
  1 22  1  0
  1 23  1  0
  1 24  1  0
  3 25  1  0
 11 26  1  0
 12 27  1  0
 16 28  1  0
 19 29  1  0
 20 30  1  0
M  CHG  4   4  -1   9  -1  14  -1  16  -1
M  END
>  <UniqueID>  (34) 
33

>  <SMILES>  (34) 
Cc1c[n-]c(=NC(=O)[N-]c2ccc([N-]S([NH-])(=O)=O)cc2)s1

>  <Energy>  (34) 
65.5197864413555

>  <Genealogy>  (34) 
Cc1c[n-]c(=NC(=O)[N-]c2ccc([N-]S([NH-])(=O)=O)cc2)s1 (protonated)
Cc1c[n-]c(=NC(=O)[N-]c2ccc([N-]S([NH-])(=O)=O)cc2)s1 (3D coordinates assigned)
Cc1c[n-]c(=NC(=O)[N-]c2ccc([N-]S([NH-])(=O)=O)cc2)s1 (optimized conformer: 65.5197864413555 kcal/mol)

>  <smiles>  (34) 
Cc1c[nH]c(=NC(=O)Nc2ccc(NS(N)(=O)=O)cc2)s1

>  <score_type>  (34) 
oracle

>  <origin>  (34) 
adg

>  <m_score__min__energy>  (34) 
-12.75

>  <m_primary>  (34) 
energy

$$$$
34:0
     RDKit          3D

 51 54  0  0  0  0  0  0  0  0999 V2000
   60.0510   31.1760   46.3600 O   0  0  0  0  0  0  0  0  0  0  0  0
   59.4360   30.1930   46.8580 C   0  0  0  0  0  0  0  0  0  0  0  0
   58.2210   29.7310   46.2480 N   0  0  0  0  0  0  0  0  0  0  0  0
   57.6940   30.1340   44.9740 C   0  0  0  0  0  0  0  0  0  0  0  0
   58.3230   31.1160   44.1860 C   0  0  0  0  0  0  0  0  0  0  0  0
   57.7840   31.4790   42.9480 C   0  0  0  0  0  0  0  0  0  0  0  0
   56.6250   30.8560   42.4800 C   0  0  0  0  0  0  0  0  0  0  0  0
   56.0110   29.8600   43.2420 C   0  0  0  0  0  0  0  0  0  0  0  0
   56.5440   29.4930   44.4860 C   0  0  0  0  0  0  0  0  0  0  0  0
   55.9320   28.4970   45.2450 O   0  0  0  0  0  0  0  0  0  0  0  0
   59.9300   29.5500   48.1070 C   0  0  0  0  0  0  0  0  0  0  0  0
   59.9100   28.1450   48.2090 C   0  0  0  0  0  0  0  0  0  0  0  0
   60.3540   27.5060   49.3670 C   0  0  0  0  0  0  0  0  0  0  0  0
   60.8280   28.2540   50.4400 C   0  0  0  0  0  0  0  0  0  0  0  0
   60.8610   29.6440   50.3630 C   0  0  0  0  0  0  0  0  0  0  0  0
   60.4120   30.3110   49.2040 C   0  0  0  0  0  0  0  0  0  0  0  0
   60.4270   31.7140   49.1140 O   0  0  0  0  0  0  0  0  0  0  0  0
   59.0490   32.7240   49.2260 S   0  0  0  0  0  0  0  0  0  0  0  0
   59.3170   33.8170   50.2200 O   0  0  0  0  0  0  0  0  0  0  0  0
   57.8850   31.9010   49.7000 O   0  0  0  0  0  0  0  0  0  0  0  0
   58.7130   33.4470   47.6500 C   0  0  0  0  0  0  0  0  0  0  0  0
   57.5720   33.0330   46.9420 C   0  0  0  0  0  0  0  0  0  0  0  0
   57.2660   33.5990   45.7030 C   0  0  0  0  0  0  0  0  0  0  0  0
   58.0990   34.5760   45.1570 C   0  0  0  0  0  0  0  0  0  0  0  0
   59.2400   34.9910   45.8490 C   0  0  0  0  0  0  0  0  0  0  0  0
   59.5510   34.4380   47.1040 C   0  0  0  0  0  0  0  0  0  0  0  0
   60.7090   34.8280   47.7920 O   0  0  0  0  0  0  0  0  0  0  0  0
   61.8210   34.0080   48.0280 C   0  0  0  0  0  0  0  0  0  0  0  0
   62.2590   33.1580   47.0030 C   0  0  0  0  0  0  0  0  0  0  0  0
   63.3570   32.3150   47.2040 C   0  0  0  0  0  0  0  0  0  0  0  0
   64.0170   32.3050   48.4370 C   0  0  0  0  0  0  0  0  0  0  0  0
   63.5760   33.1350   49.4720 C   0  0  0  0  0  0  0  0  0  0  0  0
   62.4790   33.9800   49.2730 C   0  0  0  0  0  0  0  0  0  0  0  0
   59.2429   31.6001   44.5458 H   0  0  0  0  0  0  0  0  0  0  0  0
   58.2732   32.2559   42.3421 H   0  0  0  0  0  0  0  0  0  0  0  0
   56.1957   31.1500   41.5108 H   0  0  0  0  0  0  0  0  0  0  0  0
   55.1058   29.3614   42.8651 H   0  0  0  0  0  0  0  0  0  0  0  0
   56.3340   28.1710   46.1160 H   0  0  0  0  0  0  0  0  0  0  0  0
   59.5397   27.5444   47.3651 H   0  0  0  0  0  0  0  0  0  0  0  0
   60.3292   26.4082   49.4318 H   0  0  0  0  0  0  0  0  0  0  0  0
   61.1774   27.7463   51.3511 H   0  0  0  0  0  0  0  0  0  0  0  0
   61.2410   30.2277   51.2144 H   0  0  0  0  0  0  0  0  0  0  0  0
   56.9162   32.2586   47.3664 H   0  0  0  0  0  0  0  0  0  0  0  0
   56.3678   33.2745   45.1571 H   0  0  0  0  0  0  0  0  0  0  0  0
   57.8572   35.0204   44.1802 H   0  0  0  0  0  0  0  0  0  0  0  0
   59.8986   35.7546   45.4095 H   0  0  0  0  0  0  0  0  0  0  0  0
   61.7363   33.1539   46.0351 H   0  0  0  0  0  0  0  0  0  0  0  0
   63.7018   31.6590   46.3911 H   0  0  0  0  0  0  0  0  0  0  0  0
   64.8827   31.6444   48.5924 H   0  0  0  0  0  0  0  0  0  0  0  0
   64.0919   33.1236   50.4434 H   0  0  0  0  0  0  0  0  0  0  0  0
   62.1289   34.6252   50.0922 H   0  0  0  0  0  0  0  0  0  0  0  0
  1  2  2  0
  2  3  1  0
  3  4  1  0
  4  5  2  0
  5  6  1  0
  6  7  2  0
  7  8  1  0
  8  9  2  0
  9 10  1  0
  2 11  1  0
 11 12  2  0
 12 13  1  0
 13 14  2  0
 14 15  1  0
 15 16  2  0
 16 17  1  0
 17 18  1  0
 18 19  2  0
 18 20  2  0
 18 21  1  0
 21 22  2  0
 22 23  1  0
 23 24  2  0
 24 25  1  0
 25 26  2  0
 26 27  1  0
 27 28  1  0
 28 29  2  0
 29 30  1  0
 30 31  2  0
 31 32  1  0
 32 33  2  0
  9  4  1  0
 16 11  1  0
 26 21  1  0
 33 28  1  0
  5 34  1  0
  6 35  1  0
  7 36  1  0
  8 37  1  0
 10 38  1  0
 12 39  1  0
 13 40  1  0
 14 41  1  0
 15 42  1  0
 22 43  1  0
 23 44  1  0
 24 45  1  0
 25 46  1  0
 29 47  1  0
 30 48  1  0
 31 49  1  0
 32 50  1  0
 33 51  1  0
M  CHG  1   3  -1
M  END
>  <UniqueID>  (35) 
34

>  <SMILES>  (35) 
O=C([N-]c1ccccc1O)c1ccccc1OS(=O)(=O)c1ccccc1Oc1ccccc1

>  <Energy>  (35) 
69.00663916784103

>  <Genealogy>  (35) 
O=C([N-]c1ccccc1O)c1ccccc1OS(=O)(=O)c1ccccc1Oc1ccccc1 (protonated)
O=C([N-]c1ccccc1O)c1ccccc1OS(=O)(=O)c1ccccc1Oc1ccccc1 (3D coordinates assigned)
O=C([N-]c1ccccc1O)c1ccccc1OS(=O)(=O)c1ccccc1Oc1ccccc1 (optimized conformer: 69.00663916784103 kcal/mol)

>  <smiles>  (35) 
O=C(Nc1ccccc1O)c1ccccc1OS(=O)(=O)c1ccccc1Oc1ccccc1

>  <score_type>  (35) 
oracle

>  <origin>  (35) 
adg

>  <m_score__min__energy>  (35) 
-12.73

>  <m_primary>  (35) 
energy

$$$$
35:0
     RDKit          3D

 40 42  0  0  0  0  0  0  0  0999 V2000
   54.0150   26.5680   46.3970 H   0  0  0  0  0  0  0  0  0  0  0  0
   54.7460   25.9490   45.9790 N   0  0  0  0  0  0  0  0  0  0  0  0
   55.9730   26.3340   45.8140 C   0  0  0  0  0  0  0  0  0  0  0  0
   56.2410   27.6560   45.6460 N   0  0  0  0  0  0  0  0  0  0  0  0
   57.5060   28.1310   45.4710 C   0  0  0  0  0  0  0  0  0  0  0  0
   57.7160   29.5910   45.2920 C   0  0  0  0  0  0  0  0  0  0  0  0
   56.9540   30.2940   44.3400 C   0  0  0  0  0  0  0  0  0  0  0  0
   56.2156   29.7562   43.7272 H   0  0  0  0  0  0  0  0  0  0  0  0
   57.1280   31.6700   44.1670 C   0  0  0  0  0  0  0  0  0  0  0  0
   56.5423   32.2036   43.4040 H   0  0  0  0  0  0  0  0  0  0  0  0
   58.0420   32.3720   44.9580 C   0  0  0  0  0  0  0  0  0  0  0  0
   58.1880   33.7860   44.7730 N   0  0  0  0  0  0  0  0  0  0  0  0
   59.1280   34.6200   45.4620 C   0  0  0  0  0  0  0  0  0  0  0  0
   59.6000   35.6230   44.8690 O   0  0  0  0  0  0  0  0  0  0  0  0
   59.5480   34.3480   46.8090 N   0  0  0  0  0  0  0  0  0  0  0  0
   60.8730   34.0160   47.2600 C   0  0  0  0  0  0  0  0  0  0  0  0
   61.9340   33.8320   46.3530 C   0  0  0  0  0  0  0  0  0  0  0  0
   61.7620   33.9745   45.2759 H   0  0  0  0  0  0  0  0  0  0  0  0
   63.2030   33.4700   46.8100 C   0  0  0  0  0  0  0  0  0  0  0  0
   64.0327   33.3591   46.0963 H   0  0  0  0  0  0  0  0  0  0  0  0
   63.4200   33.2490   48.1690 C   0  0  0  0  0  0  0  0  0  0  0  0
   64.4226   32.9737   48.5280 H   0  0  0  0  0  0  0  0  0  0  0  0
   62.3650   33.3770   49.0750 C   0  0  0  0  0  0  0  0  0  0  0  0
   62.5322   33.1716   50.1426 H   0  0  0  0  0  0  0  0  0  0  0  0
   61.0940   33.7660   48.6300 C   0  0  0  0  0  0  0  0  0  0  0  0
   59.7390   33.8370   49.8170 S   0  0  0  0  0  0  0  0  0  0  0  0
   58.8840   32.3440   49.2130 C   0  0  0  0  0  0  0  0  0  0  0  0
   59.5775   31.7878   48.5652 H   0  0  0  0  0  0  0  0  0  0  0  0
   58.5140   31.5390   50.2730 F   0  0  0  0  0  0  0  0  0  0  0  0
   57.7660   32.6920   48.4810 F   0  0  0  0  0  0  0  0  0  0  0  0
   58.8190   31.6770   45.8950 C   0  0  0  0  0  0  0  0  0  0  0  0
   59.5646   32.2177   46.4964 H   0  0  0  0  0  0  0  0  0  0  0  0
   58.6510   30.3000   46.0690 C   0  0  0  0  0  0  0  0  0  0  0  0
   59.2541   29.7668   46.8187 H   0  0  0  0  0  0  0  0  0  0  0  0
   58.5790   27.2210   45.4500 C   0  0  0  0  0  0  0  0  0  0  0  0
   59.6074   27.5811   45.2990 H   0  0  0  0  0  0  0  0  0  0  0  0
   58.3300   25.8580   45.6220 C   0  0  0  0  0  0  0  0  0  0  0  0
   59.1642   25.1411   45.6108 H   0  0  0  0  0  0  0  0  0  0  0  0
   57.0240   25.4050   45.8080 C   0  0  0  0  0  0  0  0  0  0  0  0
   56.8208   24.3331   45.9482 H   0  0  0  0  0  0  0  0  0  0  0  0
  1  2  1  0
  2  3  2  0
  3  4  1  0
  4  5  1  0
  5  6  1  0
  6  7  2  0
  7  8  1  0
  7  9  1  0
  9 10  1  0
  9 11  2  0
 11 12  1  0
 12 13  1  0
 13 14  2  0
 13 15  1  0
 15 16  1  0
 16 17  2  0
 17 18  1  0
 17 19  1  0
 19 20  1  0
 19 21  2  0
 21 22  1  0
 21 23  1  0
 23 24  1  0
 23 25  2  0
 25 26  1  0
 26 27  1  0
 27 28  1  0
 27 29  1  0
 27 30  1  0
 11 31  1  0
 31 32  1  0
 31 33  2  0
 33 34  1  0
  5 35  2  0
 35 36  1  0
 35 37  1  0
 37 38  1  0
 37 39  2  0
 39 40  1  0
 39  3  1  0
 33  6  1  0
 25 16  1  0
M  CHG  3   4  -1  12  -1  15  -1
M  END
>  <UniqueID>  (36) 
35

>  <SMILES>  (36) 
[H]/N=c1\cccc(-c2ccc([N-]C(=O)[N-]c3ccccc3SC(F)F)cc2)[n-]1

>  <Energy>  (36) 
52.49760963219373

>  <Genealogy>  (36) 
N=c1cccc(-c2ccc([N-]C(=O)[N-]c3ccccc3SC(F)F)cc2)[n-]1 (protonated)
[H]/N=c1\cccc(-c2ccc([N-]C(=O)[N-]c3ccccc3SC(F)F)cc2)[n-]1 (cis-trans isomerization)
[H]/N=c1\cccc(-c2ccc([N-]C(=O)[N-]c3ccccc3SC(F)F)cc2)[n-]1 (3D coordinates assigned)
[H]/N=c1\cccc(-c2ccc([N-]C(=O)[N-]c3ccccc3SC(F)F)cc2)[n-]1 (optimized conformer: 52.49760963219373 kcal/mol)

>  <smiles>  (36) 
N=c1cccc(-c2ccc(NC(=O)Nc3ccccc3SC(F)F)cc2)[nH]1

>  <score_type>  (36) 
oracle

>  <origin>  (36) 
adg

>  <m_score__min__energy>  (36) 
-11.890000000000001

>  <m_primary>  (36) 
energy

$$$$
36:0
     RDKit          3D

 35 36  0  0  0  0  0  0  0  0999 V2000
   57.1750   33.8260   44.5280 O   0  0  0  0  0  0  0  0  0  0  0  0
   57.4950   33.0410   45.4600 C   0  0  0  0  0  0  0  0  0  0  0  0
   58.0720   33.6110   46.7300 C   0  0  0  0  0  0  0  0  0  0  0  0
   59.5170   33.2160   46.8850 C   0  0  0  0  0  0  0  0  0  0  0  0
   60.5330   34.1570   46.6550 C   0  0  0  0  0  0  0  0  0  0  0  0
   61.8770   33.7910   46.7720 C   0  0  0  0  0  0  0  0  0  0  0  0
   62.2150   32.4780   47.1120 C   0  0  0  0  0  0  0  0  0  0  0  0
   61.2120   31.5300   47.3310 C   0  0  0  0  0  0  0  0  0  0  0  0
   59.8660   31.8950   47.2150 C   0  0  0  0  0  0  0  0  0  0  0  0
   57.3520   31.6300   45.2450 N   0  0  0  0  0  0  0  0  0  0  0  0
   56.6660   30.9960   44.1220 C   0  0  0  0  0  0  0  0  0  0  0  0
   56.2360   29.6050   44.4720 C   0  0  0  0  0  0  0  0  0  0  0  0
   55.1530   29.4330   45.0920 O   0  0  0  0  0  0  0  0  0  0  0  0
   57.1150   28.5030   44.2080 N   0  0  0  0  0  0  0  0  0  0  0  0
   57.7730   27.6610   45.1690 C   0  0  0  0  0  0  0  0  0  0  0  0
   59.1770   27.6240   45.2970 C   0  0  0  0  0  0  0  0  0  0  0  0
   59.7760   26.8140   46.2650 C   0  0  0  0  0  0  0  0  0  0  0  0
   58.9870   26.0420   47.1200 C   0  0  0  0  0  0  0  0  0  0  0  0
   57.5950   26.0850   47.0130 C   0  0  0  0  0  0  0  0  0  0  0  0
   56.9860   26.8970   46.0460 C   0  0  0  0  0  0  0  0  0  0  0  0
   55.5950   26.9470   45.9480 O   0  0  0  0  0  0  0  0  0  0  0  0
   57.9994   34.7081   46.6985 H   0  0  0  0  0  0  0  0  0  0  0  0
   57.5043   33.2142   47.5845 H   0  0  0  0  0  0  0  0  0  0  0  0
   60.2697   35.1893   46.3809 H   0  0  0  0  0  0  0  0  0  0  0  0
   62.6677   34.5354   46.5967 H   0  0  0  0  0  0  0  0  0  0  0  0
   63.2725   32.1905   47.2073 H   0  0  0  0  0  0  0  0  0  0  0  0
   61.4806   30.4964   47.5947 H   0  0  0  0  0  0  0  0  0  0  0  0
   59.0784   31.1456   47.3826 H   0  0  0  0  0  0  0  0  0  0  0  0
   55.7791   31.5914   43.8597 H   0  0  0  0  0  0  0  0  0  0  0  0
   57.3609   30.9443   43.2709 H   0  0  0  0  0  0  0  0  0  0  0  0
   59.8036   28.2359   44.6314 H   0  0  0  0  0  0  0  0  0  0  0  0
   60.8720   26.7844   46.3538 H   0  0  0  0  0  0  0  0  0  0  0  0
   59.4613   25.4004   47.8773 H   0  0  0  0  0  0  0  0  0  0  0  0
   56.9744   25.4795   47.6899 H   0  0  0  0  0  0  0  0  0  0  0  0
   55.1340   27.5090   45.2410 H   0  0  0  0  0  0  0  0  0  0  0  0
  1  2  2  0
  2  3  1  0
  3  4  1  0
  4  5  2  0
  5  6  1  0
  6  7  2  0
  7  8  1  0
  8  9  2  0
  2 10  1  0
 10 11  1  0
 11 12  1  0
 12 13  2  0
 12 14  1  0
 14 15  1  0
 15 16  2  0
 16 17  1  0
 17 18  2  0
 18 19  1  0
 19 20  2  0
 20 21  1  0
  9  4  1  0
 20 15  1  0
  3 22  1  0
  3 23  1  0
  5 24  1  0
  6 25  1  0
  7 26  1  0
  8 27  1  0
  9 28  1  0
 11 29  1  0
 11 30  1  0
 16 31  1  0
 17 32  1  0
 18 33  1  0
 19 34  1  0
 21 35  1  0
M  CHG  2  10  -1  14  -1
M  END
>  <UniqueID>  (37) 
36

>  <SMILES>  (37) 
O=C(Cc1ccccc1)[N-]CC(=O)[N-]c1ccccc1O

>  <Energy>  (37) 
34.58139060991711

>  <Genealogy>  (37) 
O=C(Cc1ccccc1)[N-]CC(=O)[N-]c1ccccc1O (protonated)
O=C(Cc1ccccc1)[N-]CC(=O)[N-]c1ccccc1O (3D coordinates assigned)
O=C(Cc1ccccc1)[N-]CC(=O)[N-]c1ccccc1O (optimized conformer: 34.58139060991711 kcal/mol)

>  <smiles>  (37) 
O=C(Cc1ccccc1)NCC(=O)Nc1ccccc1O

>  <score_type>  (37) 
oracle

>  <origin>  (37) 
adg

>  <m_score__min__energy>  (37) 
-11.470000000000001

>  <m_primary>  (37) 
energy

$$$$
37:0
     RDKit          3D

 37 39  0  0  0  0  0  0  0  0999 V2000
   55.5600   29.1780   45.2420 O   0  0  0  0  0  0  0  0  0  0  0  0
   56.7050   29.4130   44.7740 C   0  0  0  0  0  0  0  0  0  0  0  0
   57.0330   30.7580   44.4060 N   0  0  0  0  0  0  0  0  0  0  0  0
   57.5400   31.7650   45.2940 C   0  0  0  0  0  0  0  0  0  0  0  0
   57.0640   33.0740   45.1470 C   0  0  0  0  0  0  0  0  0  0  0  0
   57.4940   34.0860   46.0060 C   0  0  0  0  0  0  0  0  0  0  0  0
   58.4150   33.8030   47.0130 C   0  0  0  0  0  0  0  0  0  0  0  0
   58.9270   32.5110   47.1530 C   0  0  0  0  0  0  0  0  0  0  0  0
   58.5140   31.4810   46.2870 C   0  0  0  0  0  0  0  0  0  0  0  0
   59.1490   30.1470   46.4120 C   0  0  0  0  0  0  0  0  0  0  0  0
   58.8110   29.3000   47.4820 C   0  0  0  0  0  0  0  0  0  0  0  0
   59.3940   28.0340   47.5920 C   0  0  0  0  0  0  0  0  0  0  0  0
   60.3270   27.6080   46.6420 C   0  0  0  0  0  0  0  0  0  0  0  0
   60.6840   28.4500   45.5860 C   0  0  0  0  0  0  0  0  0  0  0  0
   60.1020   29.7170   45.4730 C   0  0  0  0  0  0  0  0  0  0  0  0
   57.6640   28.3510   44.6180 N   0  0  0  0  0  0  0  0  0  0  0  0
   57.3850   26.9670   44.8870 C   0  0  0  0  0  0  0  0  0  0  0  0
   57.7640   25.9930   43.9490 C   0  0  0  0  0  0  0  0  0  0  0  0
   57.5150   24.6400   44.1920 C   0  0  0  0  0  0  0  0  0  0  0  0
   56.9020   24.2430   45.3840 C   0  0  0  0  0  0  0  0  0  0  0  0
   56.5470   25.2010   46.3380 C   0  0  0  0  0  0  0  0  0  0  0  0
   55.9740   24.8130   47.5040 F   0  0  0  0  0  0  0  0  0  0  0  0
   56.7930   26.5560   46.0970 C   0  0  0  0  0  0  0  0  0  0  0  0
   56.3450   33.3062   44.3475 H   0  0  0  0  0  0  0  0  0  0  0  0
   57.1056   35.1084   45.8883 H   0  0  0  0  0  0  0  0  0  0  0  0
   58.7395   34.5991   47.6992 H   0  0  0  0  0  0  0  0  0  0  0  0
   59.6585   32.2968   47.9461 H   0  0  0  0  0  0  0  0  0  0  0  0
   58.0841   29.6351   48.2365 H   0  0  0  0  0  0  0  0  0  0  0  0
   59.1184   27.3726   48.4267 H   0  0  0  0  0  0  0  0  0  0  0  0
   60.7803   26.6093   46.7261 H   0  0  0  0  0  0  0  0  0  0  0  0
   61.4233   28.1165   44.8429 H   0  0  0  0  0  0  0  0  0  0  0  0
   60.3919   30.3803   44.6447 H   0  0  0  0  0  0  0  0  0  0  0  0
   58.5850   28.5750   44.1780 H   0  0  0  0  0  0  0  0  0  0  0  0
   58.2606   26.2977   43.0160 H   0  0  0  0  0  0  0  0  0  0  0  0
   57.8017   23.8859   43.4443 H   0  0  0  0  0  0  0  0  0  0  0  0
   56.6993   23.1781   45.5710 H   0  0  0  0  0  0  0  0  0  0  0  0
   56.5228   27.3048   46.8562 H   0  0  0  0  0  0  0  0  0  0  0  0
  1  2  2  0
  2  3  1  0
  3  4  1  0
  4  5  2  0
  5  6  1  0
  6  7  2  0
  7  8  1  0
  8  9  2  0
  9 10  1  0
 10 11  2  0
 11 12  1  0
 12 13  2  0
 13 14  1  0
 14 15  2  0
  2 16  1  0
 16 17  1  0
 17 18  2  0
 18 19  1  0
 19 20  2  0
 20 21  1  0
 21 22  1  0
 21 23  2  0
  9  4  1  0
 15 10  1  0
 23 17  1  0
  5 24  1  0
  6 25  1  0
  7 26  1  0
  8 27  1  0
 11 28  1  0
 12 29  1  0
 13 30  1  0
 14 31  1  0
 15 32  1  0
 16 33  1  0
 18 34  1  0
 19 35  1  0
 20 36  1  0
 23 37  1  0
M  CHG  1   3  -1
M  END
>  <UniqueID>  (38) 
37

>  <SMILES>  (38) 
O=C([N-]c1ccccc1-c1ccccc1)Nc1cccc(F)c1

>  <Energy>  (38) 
54.38054276310899

>  <Genealogy>  (38) 
O=C([N-]c1ccccc1-c1ccccc1)Nc1cccc(F)c1 (protonated)
O=C([N-]c1ccccc1-c1ccccc1)Nc1cccc(F)c1 (3D coordinates assigned)
O=C([N-]c1ccccc1-c1ccccc1)Nc1cccc(F)c1 (optimized conformer: 54.38054276310899 kcal/mol)

>  <smiles>  (38) 
O=C(Nc1cccc(F)c1)Nc1ccccc1-c1ccccc1

>  <score_type>  (38) 
oracle

>  <origin>  (38) 
adg

>  <m_score__min__energy>  (38) 
-9.25

>  <m_primary>  (38) 
energy

$$$$
38:0
     RDKit          3D

 57 60  0  0  0  0  0  0  0  0999 V2000
   60.0000   34.2400   49.4890 C   0  0  0  0  0  0  0  0  0  0  0  0
   61.1340   33.8690   48.5670 C   0  0  0  0  0  0  0  0  0  0  0  0
   62.2440   33.1950   49.1020 C   0  0  0  0  0  0  0  0  0  0  0  0
   63.3240   32.8440   48.2900 C   0  0  0  0  0  0  0  0  0  0  0  0
   63.3110   33.1650   46.9350 C   0  0  0  0  0  0  0  0  0  0  0  0
   62.2240   33.8470   46.3870 C   0  0  0  0  0  0  0  0  0  0  0  0
   61.1310   34.2230   47.1910 C   0  0  0  0  0  0  0  0  0  0  0  0
   59.9800   34.9730   46.5540 C   0  0  0  0  0  0  0  0  0  0  0  0
   58.7220   34.2420   46.7110 N   0  0  0  0  0  0  0  0  0  0  0  0
   58.3280   33.1150   45.9050 C   0  0  0  0  0  0  0  0  0  0  0  0
   58.1170   33.2290   44.5190 C   0  0  0  0  0  0  0  0  0  0  0  0
   57.7330   32.1160   43.7660 C   0  0  0  0  0  0  0  0  0  0  0  0
   57.5760   30.8620   44.3820 C   0  0  0  0  0  0  0  0  0  0  0  0
   57.1680   29.6950   43.6520 N   0  0  0  0  0  0  0  0  0  0  0  0
   57.4470   28.3290   43.9830 C   0  0  0  0  0  0  0  0  0  0  0  0
   58.1160   27.6020   43.2010 O   0  0  0  0  0  0  0  0  0  0  0  0
   57.0040   27.8120   45.2430 N   0  0  0  0  0  0  0  0  0  0  0  0
   57.1750   26.4060   45.6190 C   0  0  1  0  0  0  0  0  0  0  0  0
   58.3800   26.2570   46.5660 C   0  0  0  0  0  0  0  0  0  0  0  0
   59.3410   27.4030   46.4270 C   0  0  0  0  0  0  0  0  0  0  0  0
   60.1110   27.7090   45.3080 C   0  0  0  0  0  0  0  0  0  0  0  0
   60.7970   28.8570   45.5080 N   0  0  0  0  0  0  0  0  0  0  0  0
   60.4580   29.2850   46.7360 C   0  0  0  0  0  0  0  0  0  0  0  0
   60.8900   30.4460   47.3770 C   0  0  0  0  0  0  0  0  0  0  0  0
   60.3830   30.7160   48.6610 C   0  0  0  0  0  0  0  0  0  0  0  0
   59.4650   29.8300   49.2690 C   0  0  0  0  0  0  0  0  0  0  0  0
   59.0450   28.6670   48.5990 C   0  0  0  0  0  0  0  0  0  0  0  0
   59.5670   28.4260   47.3280 C   0  0  0  0  0  0  0  0  0  0  0  0
   55.9160   25.9000   46.2630 C   0  0  0  0  0  0  0  0  0  0  0  0
   55.8620   24.7290   46.7260 O   0  0  0  0  0  0  0  0  0  0  0  0
   54.7920   26.7150   46.3260 O   0  0  0  0  0  0  0  0  0  0  0  0
   57.7710   30.7520   45.7640 C   0  0  0  0  0  0  0  0  0  0  0  0
   58.1530   31.8650   46.5180 C   0  0  0  0  0  0  0  0  0  0  0  0
   60.3270   34.1330   50.5338 H   0  0  0  0  0  0  0  0  0  0  0  0
   59.7022   35.2824   49.3029 H   0  0  0  0  0  0  0  0  0  0  0  0
   59.1436   33.5752   49.3029 H   0  0  0  0  0  0  0  0  0  0  0  0
   62.2626   32.9410   50.1721 H   0  0  0  0  0  0  0  0  0  0  0  0
   64.1859   32.3135   48.7209 H   0  0  0  0  0  0  0  0  0  0  0  0
   64.1594   32.8803   46.2954 H   0  0  0  0  0  0  0  0  0  0  0  0
   62.2210   34.0936   45.3150 H   0  0  0  0  0  0  0  0  0  0  0  0
   59.8847   35.9586   47.0331 H   0  0  0  0  0  0  0  0  0  0  0  0
   60.1876   35.0832   45.4794 H   0  0  0  0  0  0  0  0  0  0  0  0
   58.0460   34.6020   47.4240 H   0  0  0  0  0  0  0  0  0  0  0  0
   58.2553   34.2016   44.0240 H   0  0  0  0  0  0  0  0  0  0  0  0
   57.5527   32.2216   42.6860 H   0  0  0  0  0  0  0  0  0  0  0  0
   56.4430   28.4410   45.8620 H   0  0  0  0  0  0  0  0  0  0  0  0
   57.3721   25.8049   44.7191 H   0  0  0  0  0  0  0  0  0  0  0  0
   58.0158   26.2210   47.6033 H   0  0  0  0  0  0  0  0  0  0  0  0
   58.9109   25.3304   46.3022 H   0  0  0  0  0  0  0  0  0  0  0  0
   60.1550   27.1028   44.3912 H   0  0  0  0  0  0  0  0  0  0  0  0
   61.4440   29.3240   44.8330 H   0  0  0  0  0  0  0  0  0  0  0  0
   61.6044   31.1287   46.8938 H   0  0  0  0  0  0  0  0  0  0  0  0
   60.7031   31.6226   49.1954 H   0  0  0  0  0  0  0  0  0  0  0  0
   59.0761   30.0517   50.2738 H   0  0  0  0  0  0  0  0  0  0  0  0
   58.3294   27.9712   49.0613 H   0  0  0  0  0  0  0  0  0  0  0  0
   57.6223   29.7817   46.2604 H   0  0  0  0  0  0  0  0  0  0  0  0
   58.3178   31.7603   47.6005 H   0  0  0  0  0  0  0  0  0  0  0  0
  1  2  1  0
  2  3  2  0
  3  4  1  0
  4  5  2  0
  5  6  1  0
  6  7  2  0
  7  8  1  0
  8  9  1  0
  9 10  1  0
 10 11  2  0
 11 12  1  0
 12 13  2  0
 13 14  1  0
 14 15  1  0
 15 16  2  0
 15 17  1  0
 17 18  1  0
 18 19  1  0
 19 20  1  0
 20 21  2  0
 21 22  1  0
 22 23  1  0
 23 24  2  0
 24 25  1  0
 25 26  2  0
 26 27  1  0
 27 28  2  0
 18 29  1  0
 29 30  2  0
 29 31  1  0
 13 32  1  0
 32 33  2  0
  7  2  1  0
 33 10  1  0
 28 20  1  0
 28 23  1  0
  1 34  1  0
  1 35  1  0
  1 36  1  0
  3 37  1  0
  4 38  1  0
  5 39  1  0
  6 40  1  0
  8 41  1  0
  8 42  1  0
  9 43  1  0
 11 44  1  0
 12 45  1  0
 17 46  1  0
 18 47  1  6
 19 48  1  0
 19 49  1  0
 21 50  1  0
 22 51  1  0
 24 52  1  0
 25 53  1  0
 26 54  1  0
 27 55  1  0
 32 56  1  0
 33 57  1  0
M  CHG  2  14  -1  31  -1
M  END
>  <UniqueID>  (39) 
38

>  <SMILES>  (39) 
Cc1ccccc1CNc1ccc([N-]C(=O)N[C@@H](Cc2c[nH]c3ccccc23)C(=O)[O-])cc1

>  <Energy>  (39) 
93.37055944354279

>  <Genealogy>  (39) 
Cc1ccccc1CNc1ccc([N-]C(=O)NC(Cc2c[nH]c3ccccc23)C(=O)[O-])cc1 (protonated)
Cc1ccccc1CNc1ccc([N-]C(=O)N[C@@H](Cc2c[nH]c3ccccc23)C(=O)[O-])cc1 (chirality)
Cc1ccccc1CNc1ccc([N-]C(=O)N[C@@H](Cc2c[nH]c3ccccc23)C(=O)[O-])cc1 (3D coordinates assigned)
Cc1ccccc1CNc1ccc([N-]C(=O)N[C@@H](Cc2c[nH]c3ccccc23)C(=O)[O-])cc1 (optimized conformer: 93.37055944354279 kcal/mol)

>  <smiles>  (39) 
Cc1ccccc1CNc1ccc(NC(=O)NC(Cc2c[nH]c3ccccc23)C(=O)O)cc1

>  <score_type>  (39) 
oracle

>  <origin>  (39) 
adg

>  <m_score__min__energy>  (39) 
-14.27

>  <m_primary>  (39) 
energy

$$$$
39:0
     RDKit          3D

 62 64  0  0  0  0  0  0  0  0999 V2000
   56.2390   20.7610   43.0790 N   0  0  0  0  0  0  0  0  0  0  0  0
   56.4150   22.1950   44.0300 S   0  0  0  0  0  0  0  0  0  0  0  0
   57.7090   22.8740   43.6890 O   0  0  0  0  0  0  0  0  0  0  0  0
   55.2790   23.1260   43.7000 O   0  0  0  0  0  0  0  0  0  0  0  0
   56.3800   21.7940   45.7550 C   0  0  0  0  0  0  0  0  0  0  0  0
   56.2140   20.4500   46.1300 C   0  0  0  0  0  0  0  0  0  0  0  0
   56.2490   20.0780   47.4770 C   0  0  0  0  0  0  0  0  0  0  0  0
   56.4390   21.0430   48.4650 C   0  0  0  0  0  0  0  0  0  0  0  0
   56.6010   22.3840   48.1100 C   0  0  0  0  0  0  0  0  0  0  0  0
   56.5580   22.7770   46.7610 C   0  0  0  0  0  0  0  0  0  0  0  0
   56.7120   24.2140   46.4480 C   0  0  0  0  0  0  0  0  0  0  0  0
   57.9690   24.8280   46.5610 C   0  0  0  0  0  0  0  0  0  0  0  0
   58.1090   26.2010   46.3320 C   0  0  0  0  0  0  0  0  0  0  0  0
   56.9900   26.9760   45.9820 C   0  0  0  0  0  0  0  0  0  0  0  0
   57.0760   28.4000   45.8320 N   0  0  0  0  0  0  0  0  0  0  0  0
   56.4050   29.1770   44.8320 C   0  0  0  0  0  0  0  0  0  0  0  0
   55.1500   29.3120   44.8590 O   0  0  0  0  0  0  0  0  0  0  0  0
   57.2050   29.8220   43.7460 C   0  0  0  0  0  0  0  0  0  0  0  0
   57.9850   30.9710   44.3230 C   0  0  0  0  0  0  0  0  0  0  0  0
   58.7890   30.7830   45.4580 C   0  0  0  0  0  0  0  0  0  0  0  0
   59.4140   31.8750   46.0680 C   0  0  0  0  0  0  0  0  0  0  0  0
   59.2290   33.1680   45.5600 C   0  0  0  0  0  0  0  0  0  0  0  0
   59.9670   34.5420   46.3850 S   0  0  0  0  0  0  0  0  0  0  0  0
   61.4660   34.4150   46.3690 O   0  0  0  0  0  0  0  0  0  0  0  0
   59.5870   35.8030   45.6630 O   0  0  0  0  0  0  0  0  0  0  0  0
   59.4000   34.6380   48.0760 C   0  0  0  0  0  0  0  0  0  0  0  0
   60.1620   33.6820   48.9410 C   0  0  0  0  0  0  0  0  0  0  0  0
   59.5330   32.9350   49.7410 O   0  0  0  0  0  0  0  0  0  0  0  0
   61.5970   33.6500   48.8860 N   0  0  0  0  0  0  0  0  0  0  0  0
   62.4030   32.7770   49.7400 C   0  0  0  0  0  0  0  0  0  0  0  0
   63.6950   32.3580   49.0290 C   0  0  0  0  0  0  0  0  0  0  0  0
   63.5850   32.4670   47.5030 C   0  0  0  0  0  0  0  0  0  0  0  0
   63.8070   33.7920   47.0990 O   0  0  0  0  0  0  0  0  0  0  0  0
   58.4380   33.3570   44.4200 C   0  0  0  0  0  0  0  0  0  0  0  0
   57.8190   32.2660   43.8050 C   0  0  0  0  0  0  0  0  0  0  0  0
   55.7340   26.3640   45.8830 C   0  0  0  0  0  0  0  0  0  0  0  0
   55.5950   24.9920   46.1160 C   0  0  0  0  0  0  0  0  0  0  0  0
   56.8250   20.0230   43.5300 H   0  0  0  0  0  0  0  0  0  0  0  0
   56.0551   19.6839   45.3568 H   0  0  0  0  0  0  0  0  0  0  0  0
   56.1264   19.0216   47.7580 H   0  0  0  0  0  0  0  0  0  0  0  0
   56.4613   20.7481   49.5245 H   0  0  0  0  0  0  0  0  0  0  0  0
   56.7637   23.1394   48.8929 H   0  0  0  0  0  0  0  0  0  0  0  0
   58.8492   24.2262   46.8312 H   0  0  0  0  0  0  0  0  0  0  0  0
   59.0971   26.6751   46.4261 H   0  0  0  0  0  0  0  0  0  0  0  0
   57.8991   29.0863   43.3137 H   0  0  0  0  0  0  0  0  0  0  0  0
   56.5306   30.1909   42.9592 H   0  0  0  0  0  0  0  0  0  0  0  0
   58.9280   29.7723   45.8694 H   0  0  0  0  0  0  0  0  0  0  0  0
   60.0530   31.7187   46.9496 H   0  0  0  0  0  0  0  0  0  0  0  0
   59.5489   35.6617   48.4499 H   0  0  0  0  0  0  0  0  0  0  0  0
   58.3328   34.3733   48.1084 H   0  0  0  0  0  0  0  0  0  0  0  0
   62.0970   34.3530   48.2990 H   0  0  0  0  0  0  0  0  0  0  0  0
   62.6589   33.3144   50.6650 H   0  0  0  0  0  0  0  0  0  0  0  0
   61.8192   31.8735   49.9698 H   0  0  0  0  0  0  0  0  0  0  0  0
   64.5134   33.0083   49.3714 H   0  0  0  0  0  0  0  0  0  0  0  0
   63.8871   31.3036   49.2767 H   0  0  0  0  0  0  0  0  0  0  0  0
   64.3363   31.8131   47.0361 H   0  0  0  0  0  0  0  0  0  0  0  0
   62.5762   32.1587   47.1909 H   0  0  0  0  0  0  0  0  0  0  0  0
   63.0650   34.0320   46.4850 H   0  0  0  0  0  0  0  0  0  0  0  0
   58.3036   34.3678   44.0074 H   0  0  0  0  0  0  0  0  0  0  0  0
   57.1983   32.4220   42.9103 H   0  0  0  0  0  0  0  0  0  0  0  0
   54.8517   26.9661   45.6204 H   0  0  0  0  0  0  0  0  0  0  0  0
   54.6038   24.5213   46.0382 H   0  0  0  0  0  0  0  0  0  0  0  0
  1  2  1  0
  2  3  2  0
  2  4  2  0
  2  5  1  0
  5  6  2  0
  6  7  1  0
  7  8  2  0
  8  9  1  0
  9 10  2  0
 10 11  1  0
 11 12  2  0
 12 13  1  0
 13 14  2  0
 14 15  1  0
 15 16  1  0
 16 17  2  0
 16 18  1  0
 18 19  1  0
 19 20  2  0
 20 21  1  0
 21 22  2  0
 22 23  1  0
 23 24  2  0
 23 25  2  0
 23 26  1  0
 26 27  1  0
 27 28  2  0
 27 29  1  0
 29 30  1  0
 30 31  1  0
 31 32  1  0
 32 33  1  0
 22 34  1  0
 34 35  2  0
 14 36  1  0
 36 37  2  0
 10  5  1  0
 37 11  1  0
 35 19  1  0
  1 38  1  0
  6 39  1  0
  7 40  1  0
  8 41  1  0
  9 42  1  0
 12 43  1  0
 13 44  1  0
 18 45  1  0
 18 46  1  0
 20 47  1  0
 21 48  1  0
 26 49  1  0
 26 50  1  0
 29 51  1  0
 30 52  1  0
 30 53  1  0
 31 54  1  0
 31 55  1  0
 32 56  1  0
 32 57  1  0
 33 58  1  0
 34 59  1  0
 35 60  1  0
 36 61  1  0
 37 62  1  0
M  CHG  2   1  -1  15  -1
M  END
>  <UniqueID>  (40) 
39

>  <SMILES>  (40) 
[NH-]S(=O)(=O)c1ccccc1-c1ccc([N-]C(=O)Cc2ccc(S(=O)(=O)CC(=O)NCCCO)cc2)cc1

>  <Energy>  (40) 
61.87393010880874

>  <Genealogy>  (40) 
[NH-]S(=O)(=O)c1ccccc1-c1ccc([N-]C(=O)Cc2ccc(S(=O)(=O)CC(=O)NCCCO)cc2)cc1 (protonated)
[NH-]S(=O)(=O)c1ccccc1-c1ccc([N-]C(=O)Cc2ccc(S(=O)(=O)CC(=O)NCCCO)cc2)cc1 (3D coordinates assigned)
[NH-]S(=O)(=O)c1ccccc1-c1ccc([N-]C(=O)Cc2ccc(S(=O)(=O)CC(=O)NCCCO)cc2)cc1 (optimized conformer: 61.87393010880874 kcal/mol)

>  <smiles>  (40) 
NS(=O)(=O)c1ccccc1-c1ccc(NC(=O)Cc2ccc(S(=O)(=O)CC(=O)NCCCO)cc2)cc1

>  <score_type>  (40) 
oracle

>  <origin>  (40) 
adg

>  <m_score__min__energy>  (40) 
-12.800000000000001

>  <m_primary>  (40) 
energy

$$$$
40:0
     RDKit          3D

 44 46  0  0  0  0  0  0  0  0999 V2000
   56.1380   24.3840   44.5390 C   0  0  0  0  0  0  0  0  0  0  0  0
   55.8080   25.0980   46.1370 S   0  0  0  0  0  0  0  0  0  0  0  0
   55.1150   24.0740   46.9910 O   0  0  0  0  0  0  0  0  0  0  0  0
   54.9100   26.2960   45.9970 O   0  0  0  0  0  0  0  0  0  0  0  0
   57.2930   25.5560   46.9100 N   0  0  0  0  0  0  0  0  0  0  0  0
   58.1870   26.5850   46.4600 C   0  0  0  0  0  0  0  0  0  0  0  0
   59.5530   26.4560   46.7340 C   0  0  0  0  0  0  0  0  0  0  0  0
   60.4570   27.4310   46.3040 C   0  0  0  0  0  0  0  0  0  0  0  0
   60.0010   28.5500   45.6020 C   0  0  0  0  0  0  0  0  0  0  0  0
   58.6350   28.7080   45.3370 C   0  0  0  0  0  0  0  0  0  0  0  0
   58.1980   29.8540   44.5930 N   0  0  0  0  0  0  0  0  0  0  0  0
   57.3530   30.8890   45.1040 C   0  0  0  0  0  0  0  0  0  0  0  0
   56.2870   31.1720   44.4950 O   0  0  0  0  0  0  0  0  0  0  0  0
   57.7480   31.6460   46.2540 N   0  0  0  0  0  0  0  0  0  0  0  0
   58.3740   32.9340   46.2130 C   0  0  0  0  0  0  0  0  0  0  0  0
   58.5580   33.5500   44.9680 C   0  0  0  0  0  0  0  0  0  0  0  0
   59.1850   34.7940   44.8800 C   0  0  0  0  0  0  0  0  0  0  0  0
   59.6570   35.4220   46.0340 C   0  0  0  0  0  0  0  0  0  0  0  0
   59.5100   34.8030   47.2770 C   0  0  0  0  0  0  0  0  0  0  0  0
   58.8690   33.5540   47.3800 C   0  0  0  0  0  0  0  0  0  0  0  0
   58.7900   32.8810   48.6090 O   0  0  0  0  0  0  0  0  0  0  0  0
   59.3430   31.6240   48.8890 C   0  0  0  0  0  0  0  0  0  0  0  0
   60.5350   31.2570   48.2490 C   0  0  0  0  0  0  0  0  0  0  0  0
   61.1100   30.0060   48.4890 C   0  0  0  0  0  0  0  0  0  0  0  0
   60.4900   29.1060   49.3610 C   0  0  0  0  0  0  0  0  0  0  0  0
   59.2910   29.4550   49.9890 C   0  0  0  0  0  0  0  0  0  0  0  0
   58.7140   30.7060   49.7510 C   0  0  0  0  0  0  0  0  0  0  0  0
   57.7340   27.7090   45.7470 C   0  0  0  0  0  0  0  0  0  0  0  0
   56.5963   23.3924   44.6680 H   0  0  0  0  0  0  0  0  0  0  0  0
   55.1955   24.2825   43.9810 H   0  0  0  0  0  0  0  0  0  0  0  0
   56.8260   25.0361   43.9810 H   0  0  0  0  0  0  0  0  0  0  0  0
   59.9179   25.5810   47.2918 H   0  0  0  0  0  0  0  0  0  0  0  0
   61.5299   27.3174   46.5186 H   0  0  0  0  0  0  0  0  0  0  0  0
   60.7177   29.3095   45.2563 H   0  0  0  0  0  0  0  0  0  0  0  0
   58.2059   33.0498   44.0537 H   0  0  0  0  0  0  0  0  0  0  0  0
   59.3073   35.2798   43.9007 H   0  0  0  0  0  0  0  0  0  0  0  0
   60.1451   36.4053   45.9640 H   0  0  0  0  0  0  0  0  0  0  0  0
   59.8976   35.2946   48.1815 H   0  0  0  0  0  0  0  0  0  0  0  0
   61.0206   31.9577   47.5539 H   0  0  0  0  0  0  0  0  0  0  0  0
   62.0512   29.7292   47.9914 H   0  0  0  0  0  0  0  0  0  0  0  0
   60.9457   28.1234   49.5528 H   0  0  0  0  0  0  0  0  0  0  0  0
   58.8009   28.7447   50.6711 H   0  0  0  0  0  0  0  0  0  0  0  0
   57.7653   30.9738   50.2390 H   0  0  0  0  0  0  0  0  0  0  0  0
   56.6649   27.8079   45.5076 H   0  0  0  0  0  0  0  0  0  0  0  0
  1  2  1  0
  2  3  2  0
  2  4  2  0
  2  5  1  0
  5  6  1  0
  6  7  2  0
  7  8  1  0
  8  9  2  0
  9 10  1  0
 10 11  1  0
 11 12  1  0
 12 13  2  0
 12 14  1  0
 14 15  1  0
 15 16  2  0
 16 17  1  0
 17 18  2  0
 18 19  1  0
 19 20  2  0
 20 21  1  0
 21 22  1  0
 22 23  2  0
 23 24  1  0
 24 25  2  0
 25 26  1  0
 26 27  2  0
 10 28  2  0
 28  6  1  0
 20 15  1  0
 27 22  1  0
  1 29  1  0
  1 30  1  0
  1 31  1  0
  7 32  1  0
  8 33  1  0
  9 34  1  0
 16 35  1  0
 17 36  1  0
 18 37  1  0
 19 38  1  0
 23 39  1  0
 24 40  1  0
 25 41  1  0
 26 42  1  0
 27 43  1  0
 28 44  1  0
M  CHG  3   5  -1  11  -1  14  -1
M  END
>  <UniqueID>  (41) 
40

>  <SMILES>  (41) 
CS(=O)(=O)[N-]c1cccc([N-]C(=O)[N-]c2ccccc2Oc2ccccc2)c1

>  <Energy>  (41) 
58.378841583611326

>  <Genealogy>  (41) 
CS(=O)(=O)[N-]c1cccc([N-]C(=O)[N-]c2ccccc2Oc2ccccc2)c1 (protonated)
CS(=O)(=O)[N-]c1cccc([N-]C(=O)[N-]c2ccccc2Oc2ccccc2)c1 (3D coordinates assigned)
CS(=O)(=O)[N-]c1cccc([N-]C(=O)[N-]c2ccccc2Oc2ccccc2)c1 (optimized conformer: 58.378841583611326 kcal/mol)

>  <smiles>  (41) 
CS(=O)(=O)Nc1cccc(NC(=O)Nc2ccccc2Oc2ccccc2)c1

>  <score_type>  (41) 
oracle

>  <origin>  (41) 
adg

>  <m_score__min__energy>  (41) 
-14.17

>  <m_primary>  (41) 
energy

$$$$
41:0
     RDKit          3D

 27 28  0  0  0  0  0  0  0  0999 V2000
   58.3060   30.6310   44.1610 N   0  0  0  0  0  0  0  0  0  0  0  0
   57.9100   29.6290   44.5850 C   0  0  0  0  0  0  0  0  0  0  0  0
   57.4150   28.3820   45.1190 C   0  0  0  0  0  0  0  0  0  0  0  0
   56.0310   28.2070   45.2490 C   0  0  0  0  0  0  0  0  0  0  0  0
   55.1510   29.2170   44.8770 O   0  0  0  0  0  0  0  0  0  0  0  0
   55.5340   27.0480   45.7410 N   0  0  0  0  0  0  0  0  0  0  0  0
   56.3330   26.0170   46.1120 C   0  0  0  0  0  0  0  0  0  0  0  0
   55.8020   24.9600   46.5470 O   0  0  0  0  0  0  0  0  0  0  0  0
   57.7330   26.1220   45.9940 C   0  0  0  0  0  0  0  0  0  0  0  0
   58.5620   24.9510   46.3580 C   0  0  0  0  0  0  0  0  0  0  0  0
   58.0760   24.0060   47.0320 O   0  0  0  0  0  0  0  0  0  0  0  0
   59.9100   24.9230   46.0200 O   0  0  0  0  0  0  0  0  0  0  0  0
   58.2940   27.3410   45.5120 C   0  0  0  0  0  0  0  0  0  0  0  0
   59.7310   27.5640   45.4980 N   0  0  0  0  0  0  0  0  0  0  0  0
   60.1190   28.4580   46.5640 C   0  0  0  0  0  0  0  0  0  0  0  0
   59.9270   28.0930   47.9110 C   0  0  0  0  0  0  0  0  0  0  0  0
   60.3100   28.9550   48.9420 C   0  0  0  0  0  0  0  0  0  0  0  0
   60.9000   30.1860   48.6430 C   0  0  0  0  0  0  0  0  0  0  0  0
   61.1110   30.5540   47.3130 C   0  0  0  0  0  0  0  0  0  0  0  0
   60.7290   29.6940   46.2780 C   0  0  0  0  0  0  0  0  0  0  0  0
   60.0110   27.9500   44.5660 H   0  0  0  0  0  0  0  0  0  0  0  0
   60.2770   26.6830   45.6030 H   0  0  0  0  0  0  0  0  0  0  0  0
   59.4718   27.1213   48.1532 H   0  0  0  0  0  0  0  0  0  0  0  0
   60.1469   28.6642   49.9903 H   0  0  0  0  0  0  0  0  0  0  0  0
   61.1981   30.8649   49.4555 H   0  0  0  0  0  0  0  0  0  0  0  0
   61.5784   31.5218   47.0785 H   0  0  0  0  0  0  0  0  0  0  0  0
   60.9067   29.9859   45.2324 H   0  0  0  0  0  0  0  0  0  0  0  0
  1  2  3  0
  2  3  1  0
  3  4  2  0
  4  5  1  0
  4  6  1  0
  6  7  1  0
  7  8  2  0
  7  9  1  0
  9 10  1  0
 10 11  2  0
 10 12  1  0
  9 13  2  0
 13 14  1  0
 14 15  1  0
 15 16  2  0
 16 17  1  0
 17 18  2  0
 18 19  1  0
 19 20  2  0
 13  3  1  0
 20 15  1  0
 14 21  1  0
 14 22  1  0
 16 23  1  0
 17 24  1  0
 18 25  1  0
 19 26  1  0
 20 27  1  0
M  CHG  4   5  -1   6  -1  12  -1  14   1
M  END
>  <UniqueID>  (42) 
41

>  <SMILES>  (42) 
N#Cc1c([O-])[n-]c(=O)c(C(=O)[O-])c1[NH2+]c1ccccc1

>  <Energy>  (42) 
42.40221095403704

>  <Genealogy>  (42) 
N#Cc1c([O-])[n-]c(=O)c(C(=O)[O-])c1[NH2+]c1ccccc1 (protonated)
N#Cc1c([O-])[n-]c(=O)c(C(=O)[O-])c1[NH2+]c1ccccc1 (3D coordinates assigned)
N#Cc1c([O-])[n-]c(=O)c(C(=O)[O-])c1[NH2+]c1ccccc1 (optimized conformer: 42.40221095403704 kcal/mol)

>  <smiles>  (42) 
N#Cc1c(O)[nH]c(=O)c(C(=O)O)c1Nc1ccccc1

>  <score_type>  (42) 
oracle

>  <origin>  (42) 
adg

>  <m_score__min__energy>  (42) 
-13.130000000000001

>  <m_primary>  (42) 
energy

$$$$
42:0
     RDKit          3D

 43 46  0  0  1  0  0  0  0  0999 V2000
   59.2980   33.6990   49.5970 O   0  0  0  0  0  0  0  0  0  0  0  0
   59.1880   32.8690   48.5900 C   0  0  0  0  0  0  0  0  0  0  0  0
   59.2470   31.4910   48.9770 C   0  0  0  0  0  0  0  0  0  0  0  0
   59.8280   30.4930   48.3640 C   0  0  0  0  0  0  0  0  0  0  0  0
   59.3970   29.8180   47.1460 C   0  0  0  0  0  0  0  0  0  0  0  0
   60.1240   28.8680   46.4760 C   0  0  0  0  0  0  0  0  0  0  0  0
   59.6640   28.2540   45.3430 C   0  0  0  0  0  0  0  0  0  0  0  0
   58.4480   28.5540   44.8090 C   0  0  0  0  0  0  0  0  0  0  0  0
   57.6780   29.5130   45.4580 C   0  0  0  0  0  0  0  0  0  0  0  0
   56.4020   29.8300   44.9020 N   0  0  0  0  0  0  0  0  0  0  0  0
   55.5330   28.9370   44.8650 O   0  0  0  0  0  0  0  0  0  0  0  0
   56.1170   31.0900   44.4100 O   0  0  0  0  0  0  0  0  0  0  0  0
   58.1450   30.1300   46.6030 C   0  0  0  0  0  0  0  0  0  0  0  0
   58.4480   31.0920   50.1730 C   0  0  0  0  0  0  0  0  0  0  0  0
   58.6430   29.9850   50.9190 N   0  0  0  0  0  0  0  0  0  0  0  0
   57.7930   29.9130   51.9330 C   0  0  0  0  0  0  0  0  0  0  0  0
   57.6600   28.9510   52.9170 C   0  0  0  0  0  0  0  0  0  0  0  0
   56.6630   29.1590   53.8490 C   0  0  0  0  0  0  0  0  0  0  0  0
   55.8610   30.2700   53.7790 C   0  0  0  0  0  0  0  0  0  0  0  0
   56.0110   31.2190   52.7870 C   0  0  0  0  0  0  0  0  0  0  0  0
   56.9970   31.0270   51.8530 C   0  0  0  0  0  0  0  0  0  0  0  0
   57.4300   31.7300   50.7560 N   0  0  0  0  0  0  0  0  0  0  0  0
   59.0350   33.5460   47.3400 C   0  0  0  0  0  0  0  0  0  0  0  0
   57.8330   33.2820   46.6460 C   0  0  0  0  0  0  0  0  0  0  0  0
   57.5430   33.8920   45.4340 C   0  0  0  0  0  0  0  0  0  0  0  0
   58.4120   34.7710   44.8640 C   0  0  0  0  0  0  0  0  0  0  0  0
   59.5820   35.0510   45.5040 C   0  0  0  0  0  0  0  0  0  0  0  0
   59.8640   34.4290   46.7320 C   0  0  0  0  0  0  0  0  0  0  0  0
   60.7543   30.1171   48.8230 H   0  0  0  0  0  0  0  0  0  0  0  0
   61.1147   28.5888   46.8641 H   0  0  0  0  0  0  0  0  0  0  0  0
   60.2933   27.4980   44.8506 H   0  0  0  0  0  0  0  0  0  0  0  0
   58.0876   28.0557   43.8970 H   0  0  0  0  0  0  0  0  0  0  0  0
   57.5176   30.8847   47.0998 H   0  0  0  0  0  0  0  0  0  0  0  0
   58.3136   28.0671   52.9553 H   0  0  0  0  0  0  0  0  0  0  0  0
   56.5101   28.4269   54.6556 H   0  0  0  0  0  0  0  0  0  0  0  0
   55.0749   30.4090   54.5358 H   0  0  0  0  0  0  0  0  0  0  0  0
   55.3584   32.1036   52.7470 H   0  0  0  0  0  0  0  0  0  0  0  0
   56.9480   32.6280   50.5350 H   0  0  0  0  0  0  0  0  0  0  0  0
   57.1089   32.5751   47.0774 H   0  0  0  0  0  0  0  0  0  0  0  0
   56.5953   33.6615   44.9254 H   0  0  0  0  0  0  0  0  0  0  0  0
   58.1736   35.2479   43.9018 H   0  0  0  0  0  0  0  0  0  0  0  0
   60.2998   35.7582   45.0629 H   0  0  0  0  0  0  0  0  0  0  0  0
   60.8142   34.6733   47.2294 H   0  0  0  0  0  0  0  0  0  0  0  0
  1  2  2  0
  2  3  1  0
  3  4  2  0
  4  5  1  0
  5  6  2  0
  6  7  1  0
  7  8  2  0
  8  9  1  0
  9 10  1  0
 10 11  2  0
 10 12  1  0
  9 13  2  0
  3 14  1  0
 14 15  2  0
 15 16  1  0
 16 17  2  0
 17 18  1  0
 18 19  2  0
 19 20  1  0
 20 21  2  0
 21 22  1  0
  2 23  1  0
 23 24  2  0
 24 25  1  0
 25 26  2  0
 26 27  1  0
 27 28  2  0
 13  5  1  0
 22 14  1  0
 28 23  1  0
 21 16  1  0
  4 29  1  0
  6 30  1  0
  7 31  1  0
  8 32  1  0
 13 33  1  0
 17 34  1  0
 18 35  1  0
 19 36  1  0
 20 37  1  0
 22 38  1  0
 24 39  1  0
 25 40  1  0
 26 41  1  0
 27 42  1  0
 28 43  1  0
M  CHG  2  10   1  12  -1
M  END
>  <smiles>  (43) 
O=C(C(=Cc1cccc([N+](=O)[O-])c1)c1nc2ccccc2[nH]1)c1ccccc1

>  <score_type>  (43) 
oracle

>  <origin>  (43) 
adg

>  <m_score__min__energy>  (43) 
-9.5700000000000003

>  <m_primary>  (43) 
energy

$$$$
43:0
     RDKit          3D

 56 58  0  0  0  0  0  0  0  0999 V2000
   62.0620   30.1650   50.8540 C   0  0  0  0  0  0  0  0  0  0  0  0
   60.7900   29.5250   50.8690 O   0  0  0  0  0  0  0  0  0  0  0  0
   60.2370   28.8120   49.7940 C   0  0  0  0  0  0  0  0  0  0  0  0
   60.7430   27.5480   49.4260 C   0  0  0  0  0  0  0  0  0  0  0  0
   60.1770   26.8330   48.3730 C   0  0  0  0  0  0  0  0  0  0  0  0
   59.0820   27.3530   47.6700 C   0  0  0  0  0  0  0  0  0  0  0  0
   58.4730   26.6140   46.5390 C   0  0  0  0  0  0  0  0  0  0  0  0
   57.7410   27.1770   45.5650 C   0  0  0  0  0  0  0  0  0  0  0  0
   56.2900   27.4080   45.6460 C   0  0  0  0  0  0  0  0  0  0  0  0
   55.5290   26.5240   46.1240 O   0  0  0  0  0  0  0  0  0  0  0  0
   55.7480   28.6470   45.1780 N   0  0  0  0  0  0  0  0  0  0  0  0
   56.2810   29.3600   44.0210 C   0  0  0  0  0  0  0  0  0  0  0  0
   57.1160   30.5290   44.4770 C   0  0  0  0  0  0  0  0  0  0  0  0
   57.7390   30.5150   45.7330 C   0  0  0  0  0  0  0  0  0  0  0  0
   58.3920   31.6550   46.2110 C   0  0  0  0  0  0  0  0  0  0  0  0
   58.4180   32.8330   45.4440 C   0  0  0  0  0  0  0  0  0  0  0  0
   58.9990   34.0760   45.9990 C   0  0  0  0  0  0  0  0  0  0  0  0
   59.5080   34.9370   45.2310 O   0  0  0  0  0  0  0  0  0  0  0  0
   59.0350   34.2720   47.4150 N   0  0  0  0  0  0  0  0  0  0  0  0
   60.2520   34.5960   48.1460 C   0  0  0  0  0  0  0  0  0  0  0  0
   61.2810   33.5290   47.8980 C   0  0  0  0  0  0  0  0  0  0  0  0
   62.6380   33.8780   47.7890 C   0  0  0  0  0  0  0  0  0  0  0  0
   63.6030   32.8920   47.5630 C   0  0  0  0  0  0  0  0  0  0  0  0
   63.2230   31.5530   47.4420 C   0  0  0  0  0  0  0  0  0  0  0  0
   61.8730   31.1970   47.5430 C   0  0  0  0  0  0  0  0  0  0  0  0
   61.5070   29.8970   47.4240 F   0  0  0  0  0  0  0  0  0  0  0  0
   60.9040   32.1820   47.7680 C   0  0  0  0  0  0  0  0  0  0  0  0
   57.8200   32.8330   44.1720 C   0  0  0  0  0  0  0  0  0  0  0  0
   57.1830   31.6880   43.6890 C   0  0  0  0  0  0  0  0  0  0  0  0
   58.6040   28.6270   47.9960 C   0  0  0  0  0  0  0  0  0  0  0  0
   59.1540   29.3580   49.0580 C   0  0  0  0  0  0  0  0  0  0  0  0
   58.5770   30.6130   49.3220 O   0  0  0  0  0  0  0  0  0  0  0  0
   58.5360   31.2770   50.5810 C   0  0  0  0  0  0  0  0  0  0  0  0
   62.3993   30.3347   51.8872 H   0  0  0  0  0  0  0  0  0  0  0  0
   62.7883   29.5250   50.3316 H   0  0  0  0  0  0  0  0  0  0  0  0
   61.9810   31.1297   50.3316 H   0  0  0  0  0  0  0  0  0  0  0  0
   61.5944   27.1219   49.9769 H   0  0  0  0  0  0  0  0  0  0  0  0
   60.5922   25.8540   48.0916 H   0  0  0  0  0  0  0  0  0  0  0  0
   58.6322   25.5265   46.4946 H   0  0  0  0  0  0  0  0  0  0  0  0
   58.2599   27.4861   44.6457 H   0  0  0  0  0  0  0  0  0  0  0  0
   56.9050   28.6760   43.4271 H   0  0  0  0  0  0  0  0  0  0  0  0
   55.4459   29.7296   43.4079 H   0  0  0  0  0  0  0  0  0  0  0  0
   57.7138   29.6018   46.3458 H   0  0  0  0  0  0  0  0  0  0  0  0
   58.8881   31.6302   47.1925 H   0  0  0  0  0  0  0  0  0  0  0  0
   60.6393   35.5666   47.8025 H   0  0  0  0  0  0  0  0  0  0  0  0
   60.0311   34.6511   49.2222 H   0  0  0  0  0  0  0  0  0  0  0  0
   62.9420   34.9311   47.8819 H   0  0  0  0  0  0  0  0  0  0  0  0
   64.6638   33.1710   47.4803 H   0  0  0  0  0  0  0  0  0  0  0  0
   63.9845   30.7787   47.2674 H   0  0  0  0  0  0  0  0  0  0  0  0
   59.8434   31.9001   47.8433 H   0  0  0  0  0  0  0  0  0  0  0  0
   57.8540   33.7414   43.5526 H   0  0  0  0  0  0  0  0  0  0  0  0
   56.7316   31.6947   42.6859 H   0  0  0  0  0  0  0  0  0  0  0  0
   57.7822   29.0625   47.4086 H   0  0  0  0  0  0  0  0  0  0  0  0
   58.5820   30.5328   51.3897 H   0  0  0  0  0  0  0  0  0  0  0  0
   59.3936   31.9609   50.6629 H   0  0  0  0  0  0  0  0  0  0  0  0
   57.6007   31.8502   50.6629 H   0  0  0  0  0  0  0  0  0  0  0  0
  1  2  1  0
  2  3  1  0
  3  4  2  0
  4  5  1  0
  5  6  2  0
  6  7  1  0
  7  8  2  3
  8  9  1  0
  9 10  2  0
  9 11  1  0
 11 12  1  0
 12 13  1  0
 13 14  2  0
 14 15  1  0
 15 16  2  0
 16 17  1  0
 17 18  2  0
 17 19  1  0
 19 20  1  0
 20 21  1  0
 21 22  2  0
 22 23  1  0
 23 24  2  0
 24 25  1  0
 25 26  1  0
 25 27  2  0
 16 28  1  0
 28 29  2  0
  6 30  1  0
 30 31  2  0
 31 32  1  0
 32 33  1  0
 31  3  1  0
 29 13  1  0
 27 21  1  0
  1 34  1  0
  1 35  1  0
  1 36  1  0
  4 37  1  0
  5 38  1  0
  7 39  1  0
  8 40  1  0
 12 41  1  0
 12 42  1  0
 14 43  1  0
 15 44  1  0
 20 45  1  0
 20 46  1  0
 22 47  1  0
 23 48  1  0
 24 49  1  0
 27 50  1  0
 28 51  1  0
 29 52  1  0
 30 53  1  0
 33 54  1  0
 33 55  1  0
 33 56  1  0
M  CHG  2  11  -1  19  -1
M  END
>  <UniqueID>  (44) 
42

>  <SMILES>  (44) 
COc1ccc(C=CC(=O)[N-]Cc2ccc(C(=O)[N-]Cc3cccc(F)c3)cc2)cc1OC

>  <Energy>  (44) 
60.74151312884622

>  <Genealogy>  (44) 
COc1ccc(C=CC(=O)[N-]Cc2ccc(C(=O)[N-]Cc3cccc(F)c3)cc2)cc1OC (protonated)
COc1ccc(C=CC(=O)[N-]Cc2ccc(C(=O)[N-]Cc3cccc(F)c3)cc2)cc1OC (3D coordinates assigned)
COc1ccc(C=CC(=O)[N-]Cc2ccc(C(=O)[N-]Cc3cccc(F)c3)cc2)cc1OC (optimized conformer: 60.74151312884622 kcal/mol)

>  <smiles>  (44) 
COc1ccc(C=CC(=O)NCc2ccc(C(=O)NCc3cccc(F)c3)cc2)cc1OC

>  <score_type>  (44) 
oracle

>  <origin>  (44) 
adg

>  <m_score__min__energy>  (44) 
-11.390000000000001

>  <m_primary>  (44) 
energy

$$$$
44:0
     RDKit          3D

 29 31  0  0  0  0  0  0  0  0999 V2000
   59.7425   35.1259   46.7328 H   0  0  0  0  0  0  0  0  0  0  0  0
   59.1430   34.3420   46.2470 C   0  0  0  0  0  0  0  0  0  0  0  0
   58.5060   33.3700   47.0210 C   0  0  0  0  0  0  0  0  0  0  0  0
   58.6117   33.3837   48.1158 H   0  0  0  0  0  0  0  0  0  0  0  0
   57.7330   32.3780   46.4060 C   0  0  0  0  0  0  0  0  0  0  0  0
   57.2407   31.6081   47.0183 H   0  0  0  0  0  0  0  0  0  0  0  0
   57.5840   32.3630   45.0070 C   0  0  0  0  0  0  0  0  0  0  0  0
   56.8230   31.3510   44.3320 N   0  0  0  0  0  0  0  0  0  0  0  0
   56.4540   30.0680   44.8550 C   0  0  0  0  0  0  0  0  0  0  0  0
   55.2580   29.6810   44.7950 O   0  0  0  0  0  0  0  0  0  0  0  0
   57.4510   29.1510   45.3230 N   0  0  0  0  0  0  0  0  0  0  0  0
   57.3120   27.8770   45.5530 C   0  0  0  0  0  0  0  0  0  0  0  0
   58.3890   27.0620   45.7030 N   0  0  0  0  0  0  0  0  0  0  0  0
   57.8250   25.8560   45.8860 C   0  0  0  0  0  0  0  0  0  0  0  0
   58.4680   24.6360   46.0860 C   0  0  0  0  0  0  0  0  0  0  0  0
   59.5654   24.5699   46.1238 H   0  0  0  0  0  0  0  0  0  0  0  0
   57.6630   23.4910   46.2380 C   0  0  0  0  0  0  0  0  0  0  0  0
   58.1335   22.5104   46.4022 H   0  0  0  0  0  0  0  0  0  0  0  0
   56.2540   23.5930   46.1810 C   0  0  0  0  0  0  0  0  0  0  0  0
   55.6357   22.6908   46.2983 H   0  0  0  0  0  0  0  0  0  0  0  0
   55.6370   24.8420   45.9750 C   0  0  0  0  0  0  0  0  0  0  0  0
   54.5422   24.9367   45.9250 H   0  0  0  0  0  0  0  0  0  0  0  0
   56.4660   25.9530   45.8370 C   0  0  0  0  0  0  0  0  0  0  0  0
   56.1170   27.2280   45.6220 N   0  0  0  0  0  0  0  0  0  0  0  0
   55.1490   27.5890   45.4880 H   0  0  0  0  0  0  0  0  0  0  0  0
   58.2480   33.3290   44.2380 C   0  0  0  0  0  0  0  0  0  0  0  0
   58.1621   33.3083   43.1416 H   0  0  0  0  0  0  0  0  0  0  0  0
   59.0190   34.3190   44.8560 C   0  0  0  0  0  0  0  0  0  0  0  0
   59.5280   35.0799   44.2461 H   0  0  0  0  0  0  0  0  0  0  0  0
  1  2  1  0
  2  3  2  0
  3  4  1  0
  3  5  1  0
  5  6  1  0
  5  7  2  0
  7  8  1  0
  8  9  1  0
  9 10  2  0
  9 11  1  0
 11 12  2  0
 12 13  1  0
 13 14  1  0
 14 15  2  0
 15 16  1  0
 15 17  1  0
 17 18  1  0
 17 19  2  0
 19 20  1  0
 19 21  1  0
 21 22  1  0
 21 23  2  0
 23 24  1  0
 24 25  1  0
  7 26  1  0
 26 27  1  0
 26 28  2  0
 28 29  1  0
 28  2  1  0
 24 12  1  0
 23 14  1  0
M  CHG  2   8  -1  13  -1
M  END
>  <UniqueID>  (45) 
43

>  <SMILES>  (45) 
O=C(/N=c1/[n-]c2ccccc2[nH]1)[N-]c1ccccc1

>  <Energy>  (45) 
76.6694688585809

>  <Genealogy>  (45) 
O=C(N=c1[n-]c2ccccc2[nH]1)[N-]c1ccccc1 (protonated)
O=C(/N=c1/[n-]c2ccccc2[nH]1)[N-]c1ccccc1 (cis-trans isomerization)
O=C(/N=c1/[n-]c2ccccc2[nH]1)[N-]c1ccccc1 (3D coordinates assigned)
O=C(/N=c1/[n-]c2ccccc2[nH]1)[N-]c1ccccc1 (optimized conformer: 76.6694688585809 kcal/mol)

>  <smiles>  (45) 
O=C(N=c1[nH]c2ccccc2[nH]1)Nc1ccccc1

>  <score_type>  (45) 
oracle

>  <origin>  (45) 
adg

>  <m_score__min__energy>  (45) 
-9.4600000000000009

>  <m_primary>  (45) 
energy

$$$$
45:0
     RDKit          3D

 24 25  0  0  0  0  0  0  0  0999 V2000
   58.2260   28.6850   46.7110 O   0  0  0  0  0  0  0  0  0  0  0  0
   57.4660   27.9520   46.0220 C   0  0  0  0  0  0  0  0  0  0  0  0
   56.7590   28.5100   44.9030 N   0  0  0  0  0  0  0  0  0  0  0  0
   57.1050   29.7640   44.2950 C   0  0  0  0  0  0  0  0  0  0  0  0
   57.7380   30.7510   45.0680 C   0  0  0  0  0  0  0  0  0  0  0  0
   58.0730   31.9850   44.5040 C   0  0  0  0  0  0  0  0  0  0  0  0
   57.7650   32.2510   43.1690 C   0  0  0  0  0  0  0  0  0  0  0  0
   57.1120   31.2870   42.3970 C   0  0  0  0  0  0  0  0  0  0  0  0
   56.7740   30.0490   42.9550 C   0  0  0  0  0  0  0  0  0  0  0  0
   56.0850   29.1540   42.2030 F   0  0  0  0  0  0  0  0  0  0  0  0
   57.2720   26.5310   46.4050 C   0  0  0  0  0  0  0  0  0  0  0  0
   55.9920   25.9440   46.3900 C   0  0  0  0  0  0  0  0  0  0  0  0
   54.8760   26.6740   45.9960 O   0  0  0  0  0  0  0  0  0  0  0  0
   55.8340   24.6430   46.7470 N   0  0  0  0  0  0  0  0  0  0  0  0
   56.8930   23.8860   47.1250 C   0  0  0  0  0  0  0  0  0  0  0  0
   56.7210   22.6820   47.4490 O   0  0  0  0  0  0  0  0  0  0  0  0
   58.1370   24.4250   47.1590 N   0  0  0  0  0  0  0  0  0  0  0  0
   58.3510   25.7220   46.8140 C   0  0  0  0  0  0  0  0  0  0  0  0
   59.5200   26.1880   46.8890 O   0  0  0  0  0  0  0  0  0  0  0  0
   55.8570   28.0610   44.6210 H   0  0  0  0  0  0  0  0  0  0  0  0
   57.9716   30.5515   46.1242 H   0  0  0  0  0  0  0  0  0  0  0  0
   58.5802   32.7477   45.1131 H   0  0  0  0  0  0  0  0  0  0  0  0
   58.0365   33.2199   42.7246 H   0  0  0  0  0  0  0  0  0  0  0  0
   56.8628   31.5018   41.3473 H   0  0  0  0  0  0  0  0  0  0  0  0
  1  2  2  0
  2  3  1  0
  3  4  1  0
  4  5  2  0
  5  6  1  0
  6  7  2  0
  7  8  1  0
  8  9  2  0
  9 10  1  0
  2 11  1  0
 11 12  2  0
 12 13  1  0
 12 14  1  0
 14 15  1  0
 15 16  2  0
 15 17  1  0
 17 18  1  0
 18 19  2  0
  9  4  1  0
 18 11  1  0
  3 20  1  0
  5 21  1  0
  6 22  1  0
  7 23  1  0
  8 24  1  0
M  CHG  3  13  -1  14  -1  17  -1
M  END
>  <UniqueID>  (46) 
44

>  <SMILES>  (46) 
O=C(Nc1ccccc1F)c1c([O-])[n-]c(=O)[n-]c1=O

>  <Energy>  (46) 
36.20944842471449

>  <Genealogy>  (46) 
O=C(Nc1ccccc1F)c1c([O-])[n-]c(=O)[n-]c1=O (protonated)
O=C(Nc1ccccc1F)c1c([O-])[n-]c(=O)[n-]c1=O (3D coordinates assigned)
O=C(Nc1ccccc1F)c1c([O-])[n-]c(=O)[n-]c1=O (optimized conformer: 36.20944842471449 kcal/mol)

>  <smiles>  (46) 
O=C(Nc1ccccc1F)c1c(O)[nH]c(=O)[nH]c1=O

>  <score_type>  (46) 
oracle

>  <origin>  (46) 
adg

>  <m_score__min__energy>  (46) 
-13.99

>  <m_primary>  (46) 
energy

$$$$
46:0
     RDKit          3D

 51 54  0  0  0  0  0  0  0  0999 V2000
   55.0200   23.4020   43.4160 C   0  0  0  0  0  0  0  0  0  0  0  0
   56.2780   22.6050   43.5700 C   0  0  0  0  0  0  0  0  0  0  0  0
   56.3300   21.4500   43.0660 O   0  0  0  0  0  0  0  0  0  0  0  0
   57.4120   23.1210   44.2950 N   0  0  0  0  0  0  0  0  0  0  0  0
   58.5290   22.2230   44.5960 C   0  0  0  0  0  0  0  0  0  0  0  0
   57.5530   24.5280   44.5720 C   0  0  0  0  0  0  0  0  0  0  0  0
   57.7620   25.4540   43.6010 N   0  0  0  0  0  0  0  0  0  0  0  0
   57.8090   26.7070   44.1210 C   0  0  0  0  0  0  0  0  0  0  0  0
   58.0160   27.8640   43.3720 C   0  0  0  0  0  0  0  0  0  0  0  0
   58.0390   29.1040   44.0320 C   0  0  0  0  0  0  0  0  0  0  0  0
   57.8660   29.1780   45.4380 C   0  0  0  0  0  0  0  0  0  0  0  0
   57.8570   30.4320   46.1340 N   0  0  0  0  0  0  0  0  0  0  0  0
   57.4070   31.6870   45.6110 C   0  0  0  0  0  0  0  0  0  0  0  0
   56.4010   31.7380   44.8530 O   0  0  0  0  0  0  0  0  0  0  0  0
   58.1960   32.9070   45.8720 C   0  0  0  0  0  0  0  0  0  0  0  0
   58.4670   33.7590   44.7860 C   0  0  0  0  0  0  0  0  0  0  0  0
   59.1820   34.9430   44.9710 C   0  0  0  0  0  0  0  0  0  0  0  0
   59.6440   35.2900   46.2390 C   0  0  0  0  0  0  0  0  0  0  0  0
   59.4050   34.4480   47.3250 C   0  0  0  0  0  0  0  0  0  0  0  0
   58.6870   33.2480   47.1620 C   0  0  0  0  0  0  0  0  0  0  0  0
   58.5780   32.3320   48.3640 C   0  0  0  0  0  0  0  0  0  0  0  0
   59.8670   31.9720   48.8230 O   0  0  0  0  0  0  0  0  0  0  0  0
   60.6470   31.4130   47.7820 C   0  0  0  0  0  0  0  0  0  0  0  0
   61.8820   32.2310   47.5760 C   0  0  0  0  0  0  0  0  0  0  0  0
   63.0190   32.1950   48.3580 C   0  0  0  0  0  0  0  0  0  0  0  0
   63.8770   33.1210   47.8070 C   0  0  0  0  0  0  0  0  0  0  0  0
   63.2100   33.6690   46.7300 C   0  0  0  0  0  0  0  0  0  0  0  0
   62.0220   33.1200   46.6190 O   0  0  0  0  0  0  0  0  0  0  0  0
   57.6370   28.0000   46.1710 C   0  0  0  0  0  0  0  0  0  0  0  0
   57.6220   26.7860   45.4910 C   0  0  0  0  0  0  0  0  0  0  0  0
   57.3880   25.2430   46.1050 S   0  0  0  0  0  0  0  0  0  0  0  0
   54.6218   23.6543   44.4099 H   0  0  0  0  0  0  0  0  0  0  0  0
   55.2376   24.3273   42.8625 H   0  0  0  0  0  0  0  0  0  0  0  0
   54.2763   22.8100   42.8625 H   0  0  0  0  0  0  0  0  0  0  0  0
   58.6425   22.1317   45.6863 H   0  0  0  0  0  0  0  0  0  0  0  0
   58.3290   21.2314   44.1639 H   0  0  0  0  0  0  0  0  0  0  0  0
   59.4545   22.6314   44.1639 H   0  0  0  0  0  0  0  0  0  0  0  0
   58.1589   27.8072   42.2828 H   0  0  0  0  0  0  0  0  0  0  0  0
   58.1927   30.0265   43.4529 H   0  0  0  0  0  0  0  0  0  0  0  0
   58.1116   33.4892   43.7806 H   0  0  0  0  0  0  0  0  0  0  0  0
   59.3813   35.6036   44.1143 H   0  0  0  0  0  0  0  0  0  0  0  0
   60.1980   36.2293   46.3837 H   0  0  0  0  0  0  0  0  0  0  0  0
   59.7820   34.7248   48.3206 H   0  0  0  0  0  0  0  0  0  0  0  0
   58.0378   32.8517   49.1690 H   0  0  0  0  0  0  0  0  0  0  0  0
   58.0336   31.4215   48.0730 H   0  0  0  0  0  0  0  0  0  0  0  0
   60.9311   30.3849   48.0508 H   0  0  0  0  0  0  0  0  0  0  0  0
   60.0585   31.4051   46.8527 H   0  0  0  0  0  0  0  0  0  0  0  0
   63.2016   31.5597   49.2372 H   0  0  0  0  0  0  0  0  0  0  0  0
   64.8896   33.3730   48.1551 H   0  0  0  0  0  0  0  0  0  0  0  0
   63.6124   34.4476   46.0653 H   0  0  0  0  0  0  0  0  0  0  0  0
   57.4733   28.0373   47.2581 H   0  0  0  0  0  0  0  0  0  0  0  0
  1  2  1  0
  2  3  2  0
  2  4  1  0
  4  5  1  0
  4  6  1  0
  6  7  2  0
  7  8  1  0
  8  9  2  0
  9 10  1  0
 10 11  2  0
 11 12  1  0
 12 13  1  0
 13 14  2  0
 13 15  1  0
 15 16  2  0
 16 17  1  0
 17 18  2  0
 18 19  1  0
 19 20  2  0
 20 21  1  0
 21 22  1  0
 22 23  1  0
 23 24  1  0
 24 25  2  0
 25 26  1  0
 26 27  2  0
 27 28  1  0
 11 29  1  0
 29 30  2  0
 30 31  1  0
 31  6  1  0
 30  8  1  0
 20 15  1  0
 28 24  1  0
  1 32  1  0
  1 33  1  0
  1 34  1  0
  5 35  1  0
  5 36  1  0
  5 37  1  0
  9 38  1  0
 10 39  1  0
 16 40  1  0
 17 41  1  0
 18 42  1  0
 19 43  1  0
 21 44  1  0
 21 45  1  0
 23 46  1  0
 23 47  1  0
 25 48  1  0
 26 49  1  0
 27 50  1  0
 29 51  1  0
M  CHG  1  12  -1
M  END
>  <UniqueID>  (47) 
45

>  <SMILES>  (47) 
CC(=O)N(C)c1nc2ccc([N-]C(=O)c3ccccc3COCc3ccco3)cc2s1

>  <Energy>  (47) 
129.94262278320437

>  <Genealogy>  (47) 
CC(=O)N(C)c1nc2ccc([N-]C(=O)c3ccccc3COCc3ccco3)cc2s1 (protonated)
CC(=O)N(C)c1nc2ccc([N-]C(=O)c3ccccc3COCc3ccco3)cc2s1 (3D coordinates assigned)
CC(=O)N(C)c1nc2ccc([N-]C(=O)c3ccccc3COCc3ccco3)cc2s1 (optimized conformer: 129.94262278320437 kcal/mol)

>  <smiles>  (47) 
CC(=O)N(C)c1nc2ccc(NC(=O)c3ccccc3COCc3ccco3)cc2s1

>  <score_type>  (47) 
oracle

>  <origin>  (47) 
adg

>  <m_score__min__energy>  (47) 
-9.9900000000000002

>  <m_primary>  (47) 
energy

$$$$
47:0
     RDKit          3D

 38 40  0  0  0  0  0  0  0  0999 V2000
   56.1250   27.3690   45.0150 H   0  0  0  0  0  0  0  0  0  0  0  0
   56.8040   27.2500   45.7970 N   0  0  0  0  0  0  0  0  0  0  0  0
   57.6210   28.1640   46.2220 C   0  0  0  0  0  0  0  0  0  0  0  0
   58.5960   27.8000   47.0930 N   0  0  0  0  0  0  0  0  0  0  0  0
   59.5310   28.6760   47.5340 C   0  0  0  0  0  0  0  0  0  0  0  0
   60.3047   28.3489   48.2442 H   0  0  0  0  0  0  0  0  0  0  0  0
   59.5060   29.9970   47.0810 C   0  0  0  0  0  0  0  0  0  0  0  0
   60.5260   30.9650   47.5440 C   0  0  0  0  0  0  0  0  0  0  0  0
   61.8520   30.8150   47.1000 C   0  0  0  0  0  0  0  0  0  0  0  0
   62.1145   29.9737   46.4418 H   0  0  0  0  0  0  0  0  0  0  0  0
   62.8380   31.7240   47.4870 C   0  0  0  0  0  0  0  0  0  0  0  0
   63.8720   31.5960   47.1343 H   0  0  0  0  0  0  0  0  0  0  0  0
   62.5140   32.7940   48.3200 C   0  0  0  0  0  0  0  0  0  0  0  0
   63.2906   33.5151   48.6147 H   0  0  0  0  0  0  0  0  0  0  0  0
   61.2050   32.9520   48.7810 C   0  0  0  0  0  0  0  0  0  0  0  0
   60.9559   33.8015   49.4339 H   0  0  0  0  0  0  0  0  0  0  0  0
   60.2030   32.0350   48.4180 C   0  0  0  0  0  0  0  0  0  0  0  0
   58.8120   32.2320   48.9600 C   0  0  0  0  0  0  0  0  0  0  0  0
   58.8429   32.2276   50.0596 H   0  0  0  0  0  0  0  0  0  0  0  0
   58.4144   33.1954   48.6082 H   0  0  0  0  0  0  0  0  0  0  0  0
   58.1625   31.4169   48.6082 H   0  0  0  0  0  0  0  0  0  0  0  0
   58.5370   30.3780   46.2010 N   0  0  0  0  0  0  0  0  0  0  0  0
   58.5310   31.3640   45.8550 H   0  0  0  0  0  0  0  0  0  0  0  0
   57.5720   29.5110   45.7730 C   0  0  0  0  0  0  0  0  0  0  0  0
   56.5100   30.0290   44.8790 C   0  0  0  0  0  0  0  0  0  0  0  0
   55.4310   29.3950   44.7360 O   0  0  0  0  0  0  0  0  0  0  0  0
   56.7200   31.2700   44.1920 N   0  0  0  0  0  0  0  0  0  0  0  0
   57.3880   32.4310   44.7090 C   0  0  0  0  0  0  0  0  0  0  0  0
   58.4900   32.9390   44.0090 C   0  0  0  0  0  0  0  0  0  0  0  0
   58.8132   32.4563   43.0749 H   0  0  0  0  0  0  0  0  0  0  0  0
   59.1820   34.0550   44.4890 C   0  0  0  0  0  0  0  0  0  0  0  0
   60.0389   34.4545   43.9268 H   0  0  0  0  0  0  0  0  0  0  0  0
   58.7850   34.6630   45.6830 C   0  0  0  0  0  0  0  0  0  0  0  0
   59.3245   35.5457   46.0569 H   0  0  0  0  0  0  0  0  0  0  0  0
   57.7020   34.1490   46.4020 C   0  0  0  0  0  0  0  0  0  0  0  0
   57.3950   34.6229   47.3460 H   0  0  0  0  0  0  0  0  0  0  0  0
   57.0080   33.0330   45.9230 C   0  0  0  0  0  0  0  0  0  0  0  0
   56.1629   32.6248   46.4968 H   0  0  0  0  0  0  0  0  0  0  0  0
  1  2  1  0
  2  3  2  0
  3  4  1  0
  4  5  1  0
  5  6  1  0
  5  7  2  0
  7  8  1  0
  8  9  2  0
  9 10  1  0
  9 11  1  0
 11 12  1  0
 11 13  2  0
 13 14  1  0
 13 15  1  0
 15 16  1  0
 15 17  2  0
 17 18  1  0
 18 19  1  0
 18 20  1  0
 18 21  1  0
  7 22  1  0
 22 23  1  0
 22 24  2  0
 24 25  1  0
 25 26  2  0
 25 27  1  0
 27 28  1  0
 28 29  2  0
 29 30  1  0
 29 31  1  0
 31 32  1  0
 31 33  2  0
 33 34  1  0
 33 35  1  0
 35 36  1  0
 35 37  2  0
 37 38  1  0
 24  3  1  0
 37 28  1  0
 17  8  1  0
M  CHG  3   4  -1  22   1  27  -1
M  END
>  <UniqueID>  (48) 
46

>  <SMILES>  (48) 
[H]/N=c1/[n-]cc(-c2ccccc2C)[nH+]c1C(=O)[N-]c1ccccc1

>  <Energy>  (48) 
59.50516803549877

>  <Genealogy>  (48) 
Cc1ccccc1-c1c[n-]c(=N)c(C(=O)[N-]c2ccccc2)[nH+]1 (protonated)
[H]/N=c1/[n-]cc(-c2ccccc2C)[nH+]c1C(=O)[N-]c1ccccc1 (cis-trans isomerization)
[H]/N=c1/[n-]cc(-c2ccccc2C)[nH+]c1C(=O)[N-]c1ccccc1 (3D coordinates assigned)
[H]/N=c1/[n-]cc(-c2ccccc2C)[nH+]c1C(=O)[N-]c1ccccc1 (optimized conformer: 59.50516803549877 kcal/mol)

>  <smiles>  (48) 
Cc1ccccc1-c1c[nH]c(=N)c(C(=O)Nc2ccccc2)n1

>  <score_type>  (48) 
oracle

>  <origin>  (48) 
adg

>  <m_score__min__energy>  (48) 
-9.4499999999999993

>  <m_primary>  (48) 
energy

$$$$
48:0
     RDKit          3D

 36 38  0  0  0  0  0  0  0  0999 V2000
   57.9145   25.5239   44.6744 H   0  0  0  0  0  0  0  0  0  0  0  0
   57.7490   26.6020   44.5320 C   0  0  0  0  0  0  0  0  0  0  0  0
   56.9470   27.6290   45.5980 S   0  0  0  0  0  0  0  0  0  0  0  0
   57.1520   28.9800   44.6230 C   0  0  0  0  0  0  0  0  0  0  0  0
   56.7320   30.1650   44.9590 N   0  0  0  0  0  0  0  0  0  0  0  0
   57.1650   31.4370   44.4530 C   0  0  0  0  0  0  0  0  0  0  0  0
   57.7870   31.5330   43.3610 O   0  0  0  0  0  0  0  0  0  0  0  0
   56.8400   32.6770   45.2240 C   0  0  0  0  0  0  0  0  0  0  0  0
   56.3085   33.3839   44.5699 H   0  0  0  0  0  0  0  0  0  0  0  0
   56.2044   32.4127   46.0820 H   0  0  0  0  0  0  0  0  0  0  0  0
   58.1070   33.3180   45.7260 C   0  0  0  0  0  0  0  0  0  0  0  0
   58.4860   34.5820   45.2420 C   0  0  0  0  0  0  0  0  0  0  0  0
   57.8690   35.0837   44.4820 H   0  0  0  0  0  0  0  0  0  0  0  0
   59.6410   35.2050   45.7200 C   0  0  0  0  0  0  0  0  0  0  0  0
   59.9369   36.1890   45.3273 H   0  0  0  0  0  0  0  0  0  0  0  0
   60.4200   34.5810   46.6950 C   0  0  0  0  0  0  0  0  0  0  0  0
   61.3291   35.0737   47.0702 H   0  0  0  0  0  0  0  0  0  0  0  0
   60.0470   33.3320   47.1950 C   0  0  0  0  0  0  0  0  0  0  0  0
   60.6568   32.8507   47.9738 H   0  0  0  0  0  0  0  0  0  0  0  0
   58.8960   32.6850   46.7090 C   0  0  0  0  0  0  0  0  0  0  0  0
   58.4870   31.4440   47.2230 O   0  0  0  0  0  0  0  0  0  0  0  0
   59.1420   30.2210   47.0190 C   0  0  0  0  0  0  0  0  0  0  0  0
   59.9490   29.9870   45.8910 C   0  0  0  0  0  0  0  0  0  0  0  0
   60.0915   30.7820   45.1442 H   0  0  0  0  0  0  0  0  0  0  0  0
   60.5710   28.7460   45.7160 C   0  0  0  0  0  0  0  0  0  0  0  0
   61.2092   28.5702   44.8375 H   0  0  0  0  0  0  0  0  0  0  0  0
   60.3820   27.7290   46.6570 C   0  0  0  0  0  0  0  0  0  0  0  0
   60.8762   26.7556   46.5220 H   0  0  0  0  0  0  0  0  0  0  0  0
   59.5650   27.9500   47.7690 C   0  0  0  0  0  0  0  0  0  0  0  0
   59.4113   27.1479   48.5059 H   0  0  0  0  0  0  0  0  0  0  0  0
   58.9430   29.1890   47.9460 C   0  0  0  0  0  0  0  0  0  0  0  0
   58.2934   29.3551   48.8181 H   0  0  0  0  0  0  0  0  0  0  0  0
   57.8370   28.6740   43.4940 N   0  0  0  0  0  0  0  0  0  0  0  0
   58.1300   29.3430   42.7520 H   0  0  0  0  0  0  0  0  0  0  0  0
   58.1660   27.3560   43.4390 C   0  0  0  0  0  0  0  0  0  0  0  0
   58.7196   26.9189   42.5949 H   0  0  0  0  0  0  0  0  0  0  0  0
  1  2  1  0
  2  3  1  0
  3  4  1  0
  4  5  2  0
  5  6  1  0
  6  7  2  0
  6  8  1  0
  8  9  1  0
  8 10  1  0
  8 11  1  0
 11 12  2  0
 12 13  1  0
 12 14  1  0
 14 15  1  0
 14 16  2  0
 16 17  1  0
 16 18  1  0
 18 19  1  0
 18 20  2  0
 20 21  1  0
 21 22  1  0
 22 23  2  0
 23 24  1  0
 23 25  1  0
 25 26  1  0
 25 27  2  0
 27 28  1  0
 27 29  1  0
 29 30  1  0
 29 31  2  0
 31 32  1  0
  4 33  1  0
 33 34  1  0
 33 35  1  0
 35 36  1  0
 35  2  2  0
 20 11  1  0
 31 22  1  0
M  END
>  <UniqueID>  (49) 
47

>  <SMILES>  (49) 
O=C(Cc1ccccc1Oc1ccccc1)/N=c1\[nH]ccs1

>  <Energy>  (49) 
78.00061561521561

>  <Genealogy>  (49) 
O=C(Cc1ccccc1Oc1ccccc1)/N=c1\[nH]ccs1 (cis-trans isomerization)
O=C(Cc1ccccc1Oc1ccccc1)/N=c1\[nH]ccs1 (3D coordinates assigned)
O=C(Cc1ccccc1Oc1ccccc1)/N=c1\[nH]ccs1 (optimized conformer: 78.00061561521561 kcal/mol)

>  <smiles>  (49) 
O=C(Cc1ccccc1Oc1ccccc1)N=c1[nH]ccs1

>  <score_type>  (49) 
oracle

>  <origin>  (49) 
adg

>  <m_score__min__energy>  (49) 
-7.0800000000000001

>  <m_primary>  (49) 
energy

$$$$
49:0
     RDKit          3D

 39 42  0  0  1  0  0  0  0  0999 V2000
   55.1770   26.7070   45.9770 O   0  0  0  0  0  0  0  0  0  0  0  0
   56.4680   27.1430   45.6240 C   0  0  0  0  0  0  0  0  0  0  0  0
   57.5460   26.2580   45.6310 C   0  0  0  0  0  0  0  0  0  0  0  0
   58.7880   26.7300   45.2780 C   0  0  0  0  0  0  0  0  0  0  0  0
   62.6880   31.8280   49.5830 C   0  0  0  0  0  0  0  0  0  0  0  0
   62.0060   31.8290   48.3800 C   0  0  0  0  0  0  0  0  0  0  0  0
   58.0780   30.2820   44.5530 N   0  0  0  0  0  0  0  0  0  0  0  0
   58.6010   31.0670   45.4330 C   0  0  0  0  0  0  0  0  0  0  0  0
   59.4450   30.6460   46.3920 N   0  0  0  0  0  0  0  0  0  0  0  0
   59.9380   31.5430   47.2660 C   0  0  0  0  0  0  0  0  0  0  0  0
   60.7510   31.1800   48.2000 N   0  0  0  0  0  0  0  0  0  0  0  0
   57.9520   28.9080   44.9110 C   0  0  0  0  0  0  0  0  0  0  0  0
   59.0220   28.0320   44.9170 C   0  0  0  0  0  0  0  0  0  0  0  0
   63.7400   33.1300   47.3770 C   0  0  0  0  0  0  0  0  0  0  0  0
   64.4430   33.1420   48.5730 C   0  0  0  0  0  0  0  0  0  0  0  0
   63.9150   32.4870   49.6870 C   0  0  0  0  0  0  0  0  0  0  0  0
   62.5190   32.4790   47.2580 C   0  0  0  0  0  0  0  0  0  0  0  0
   59.6120   32.8590   47.2130 N   0  0  0  0  0  0  0  0  0  0  0  0
   58.7720   33.3340   46.2770 C   0  0  0  0  0  0  0  0  0  0  0  0
   58.2900   34.5580   46.0010 N   0  0  0  0  0  0  0  0  0  0  0  0
   57.4590   34.4810   44.9220 C   0  0  0  0  0  0  0  0  0  0  0  0
   57.4460   33.1550   44.5400 C   0  0  0  0  0  0  0  0  0  0  0  0
   58.2670   32.4070   45.3790 C   0  0  0  0  0  0  0  0  0  0  0  0
   56.6720   28.4680   45.2630 C   0  0  0  0  0  0  0  0  0  0  0  0
   55.0620   26.3430   46.9320 H   0  0  0  0  0  0  0  0  0  0  0  0
   57.4053   25.2041   45.9131 H   0  0  0  0  0  0  0  0  0  0  0  0
   59.6356   26.0289   45.2855 H   0  0  0  0  0  0  0  0  0  0  0  0
   62.2651   31.3094   50.4560 H   0  0  0  0  0  0  0  0  0  0  0  0
   59.7080   29.6380   46.4480 H   0  0  0  0  0  0  0  0  0  0  0  0
   60.0316   28.3698   44.6402 H   0  0  0  0  0  0  0  0  0  0  0  0
   64.1596   33.6484   46.5023 H   0  0  0  0  0  0  0  0  0  0  0  0
   65.4089   33.6636   48.6429 H   0  0  0  0  0  0  0  0  0  0  0  0
   64.4622   32.4899   50.6412 H   0  0  0  0  0  0  0  0  0  0  0  0
   61.9712   32.4762   46.3041 H   0  0  0  0  0  0  0  0  0  0  0  0
   59.9920   33.5550   47.8890 H   0  0  0  0  0  0  0  0  0  0  0  0
   58.5330   35.3970   46.5410 H   0  0  0  0  0  0  0  0  0  0  0  0
   56.9096   35.3094   44.4510 H   0  0  0  0  0  0  0  0  0  0  0  0
   56.8705   32.7483   43.6953 H   0  0  0  0  0  0  0  0  0  0  0  0
   55.8267   29.1718   45.2538 H   0  0  0  0  0  0  0  0  0  0  0  0
  1  2  1  0
  2  3  2  0
  3  4  1  0
  4  5  2  0
  5  6  1  0
  6  7  1  0
  7  8  2  0
  8  9  1  0
  9 10  1  0
 10 11  2  0
 11 12  1  0
 12 13  2  0
 13 14  1  0
 14 15  2  0
 15 16  1  0
 16 17  2  0
 10 18  1  0
 18 19  1  0
 19 20  1  0
 20 21  1  0
 21 22  2  0
 22 23  1  0
  6 24  2  0
 24  2  1  0
 23  8  1  0
 17 12  1  0
 23 19  2  0
  1 25  1  0
  3 26  1  0
  4 27  1  0
  5 28  1  0
  9 29  1  0
 13 30  1  0
 14 31  1  0
 15 32  1  0
 16 33  1  0
 17 34  1  0
 18 35  1  0
 20 36  1  0
 21 37  1  0
 22 38  1  0
 24 39  1  0
M  END
>  <smiles>  (50) 
Oc1cccc(N=c2[nH]c(=Nc3ccccc3)[nH]c3[nH]ccc23)c1

>  <score_type>  (50) 
oracle

>  <origin>  (50) 
adg

>  <m_score__min__energy>  (50) 
-8.6600000000000001

>  <m_primary>  (50) 
energy

$$$$
50:0
     RDKit          3D

 48 50  0  0  0  0  0  0  0  0999 V2000
   63.2010   32.7690   47.1360 C   0  0  0  0  0  0  0  0  0  0  0  0
   62.0000   32.4910   48.0380 C   0  0  0  0  0  0  0  0  0  0  0  0
   61.2280   31.2290   47.6300 C   0  0  0  0  0  0  0  0  0  0  0  0
   60.2910   30.5190   48.9830 S   0  0  0  0  0  0  0  0  0  0  0  0
   58.9170   31.1280   49.0260 O   0  0  0  0  0  0  0  0  0  0  0  0
   60.9830   30.8140   50.2840 O   0  0  0  0  0  0  0  0  0  0  0  0
   60.1570   28.7990   48.7980 N   0  0  0  0  0  0  0  0  0  0  0  0
   59.4870   28.1220   47.7260 C   0  0  0  0  0  0  0  0  0  0  0  0
   59.4860   26.7250   47.7150 C   0  0  0  0  0  0  0  0  0  0  0  0
   58.8290   26.0250   46.7040 C   0  0  0  0  0  0  0  0  0  0  0  0
   58.1410   26.7140   45.6890 C   0  0  0  0  0  0  0  0  0  0  0  0
   57.4630   26.0170   44.6750 O   0  0  0  0  0  0  0  0  0  0  0  0
   56.3720   25.1570   44.8750 C   0  0  0  0  0  0  0  0  0  0  0  0
   56.3820   23.8970   44.2760 C   0  0  0  0  0  0  0  0  0  0  0  0
   55.3350   23.0490   44.4530 N   0  0  0  0  0  0  0  0  0  0  0  0
   54.2600   23.4120   45.2000 C   0  0  0  0  0  0  0  0  0  0  0  0
   53.2730   22.5920   45.3640 N   0  0  0  0  0  0  0  0  0  0  0  0
   54.2150   24.6430   45.7720 N   0  0  0  0  0  0  0  0  0  0  0  0
   55.2370   25.5260   45.6210 C   0  0  0  0  0  0  0  0  0  0  0  0
   55.1440   26.6720   46.1330 O   0  0  0  0  0  0  0  0  0  0  0  0
   58.1540   28.1240   45.6770 C   0  0  0  0  0  0  0  0  0  0  0  0
   57.4500   28.8840   44.6150 C   0  0  0  0  0  0  0  0  0  0  0  0
   57.4630   28.4550   43.4310 O   0  0  0  0  0  0  0  0  0  0  0  0
   56.8030   30.1370   44.8820 N   0  0  0  0  0  0  0  0  0  0  0  0
   57.4440   31.4160   44.9760 C   0  0  0  0  0  0  0  0  0  0  0  0
   57.7540   32.1730   43.8310 C   0  0  0  0  0  0  0  0  0  0  0  0
   58.3720   33.4200   43.9600 C   0  0  0  0  0  0  0  0  0  0  0  0
   58.7000   33.9130   45.2250 C   0  0  0  0  0  0  0  0  0  0  0  0
   58.4190   33.1540   46.3650 C   0  0  0  0  0  0  0  0  0  0  0  0
   58.7460   33.6280   47.5930 F   0  0  0  0  0  0  0  0  0  0  0  0
   57.8000   31.9050   46.2400 C   0  0  0  0  0  0  0  0  0  0  0  0
   58.8340   28.8160   46.6940 C   0  0  0  0  0  0  0  0  0  0  0  0
   64.0859   32.9738   47.7565 H   0  0  0  0  0  0  0  0  0  0  0  0
   63.3935   31.8917   46.5010 H   0  0  0  0  0  0  0  0  0  0  0  0
   62.9884   33.6417   46.5010 H   0  0  0  0  0  0  0  0  0  0  0  0
   62.3578   32.3654   49.0706 H   0  0  0  0  0  0  0  0  0  0  0  0
   61.3119   33.3442   47.9449 H   0  0  0  0  0  0  0  0  0  0  0  0
   60.5318   31.4898   46.8193 H   0  0  0  0  0  0  0  0  0  0  0  0
   61.9659   30.4790   47.3092 H   0  0  0  0  0  0  0  0  0  0  0  0
   60.0078   26.1728   48.5105 H   0  0  0  0  0  0  0  0  0  0  0  0
   58.8489   24.9252   46.7001 H   0  0  0  0  0  0  0  0  0  0  0  0
   57.2392   23.5893   43.6591 H   0  0  0  0  0  0  0  0  0  0  0  0
   52.2800   22.9150   45.3180 H   0  0  0  0  0  0  0  0  0  0  0  0
   57.5094   31.7825   42.8322 H   0  0  0  0  0  0  0  0  0  0  0  0
   58.6006   34.0145   43.0632 H   0  0  0  0  0  0  0  0  0  0  0  0
   59.1793   34.8981   45.3243 H   0  0  0  0  0  0  0  0  0  0  0  0
   57.5920   31.3046   47.1379 H   0  0  0  0  0  0  0  0  0  0  0  0
   58.8551   29.9157   46.6816 H   0  0  0  0  0  0  0  0  0  0  0  0
  1  2  1  0
  2  3  1  0
  3  4  1  0
  4  5  2  0
  4  6  2  0
  4  7  1  0
  7  8  1  0
  8  9  2  0
  9 10  1  0
 10 11  2  0
 11 12  1  0
 12 13  1  0
 13 14  2  0
 14 15  1  0
 15 16  1  0
 16 17  2  3
 16 18  1  0
 18 19  1  0
 19 20  2  0
 11 21  1  0
 21 22  1  0
 22 23  2  0
 22 24  1  0
 24 25  1  0
 25 26  2  0
 26 27  1  0
 27 28  2  0
 28 29  1  0
 29 30  1  0
 29 31  2  0
 21 32  2  0
 32  8  1  0
 19 13  1  0
 31 25  1  0
  1 33  1  0
  1 34  1  0
  1 35  1  0
  2 36  1  0
  2 37  1  0
  3 38  1  0
  3 39  1  0
  9 40  1  0
 10 41  1  0
 14 42  1  0
 17 43  1  0
 26 44  1  0
 27 45  1  0
 28 46  1  0
 31 47  1  0
 32 48  1  0
M  CHG  4   7  -1  15  -1  18  -1  24  -1
M  END
>  <UniqueID>  (51) 
48

>  <SMILES>  (51) 
CCCS(=O)(=O)[N-]c1ccc(Oc2c[n-]c(=N)[n-]c2=O)c(C(=O)[N-]c2cccc(F)c2)c1

>  <Energy>  (51) 
61.043371023019674

>  <Genealogy>  (51) 
CCCS(=O)(=O)[N-]c1ccc(Oc2c[n-]c(=N)[n-]c2=O)c(C(=O)[N-]c2cccc(F)c2)c1 (protonated)
CCCS(=O)(=O)[N-]c1ccc(Oc2c[n-]c(=N)[n-]c2=O)c(C(=O)[N-]c2cccc(F)c2)c1 (3D coordinates assigned)
CCCS(=O)(=O)[N-]c1ccc(Oc2c[n-]c(=N)[n-]c2=O)c(C(=O)[N-]c2cccc(F)c2)c1 (optimized conformer: 61.043371023019674 kcal/mol)

>  <smiles>  (51) 
CCCS(=O)(=O)Nc1ccc(Oc2c[nH]c(=N)[nH]c2=O)c(C(=O)Nc2cccc(F)c2)c1

>  <score_type>  (51) 
oracle

>  <origin>  (51) 
adg

>  <m_score__min__energy>  (51) 
-13.890000000000001

>  <m_primary>  (51) 
energy

$$$$
51:0
     RDKit          3D

 51 53  0  0  0  0  0  0  0  0999 V2000
   57.1210   34.1670   45.2700 C   0  0  0  0  0  0  0  0  0  0  0  0
   58.5820   34.4650   44.9460 C   0  0  0  0  0  0  0  0  0  0  0  0
   59.2990   34.8270   46.1240 O   0  0  0  0  0  0  0  0  0  0  0  0
   60.2670   34.0110   46.7250 C   0  0  0  0  0  0  0  0  0  0  0  0
   61.4750   34.0950   46.3760 O   0  0  0  0  0  0  0  0  0  0  0  0
   59.8930   33.0100   47.6830 N   0  0  0  0  0  0  0  0  0  0  0  0
   59.6590   31.7430   47.4830 C   0  0  0  0  0  0  0  0  0  0  0  0
   58.5900   31.2770   46.6740 C   0  0  0  0  0  0  0  0  0  0  0  0
   58.4300   29.8910   46.5340 C   0  0  0  0  0  0  0  0  0  0  0  0
   59.2670   29.0150   47.1840 C   0  0  0  0  0  0  0  0  0  0  0  0
   60.2940   29.4860   47.9990 C   0  0  0  0  0  0  0  0  0  0  0  0
   60.4570   30.8340   48.1230 N   0  0  0  0  0  0  0  0  0  0  0  0
   58.8350   27.7330   46.8840 C   0  0  0  0  0  0  0  0  0  0  0  0
   59.3830   26.4390   47.3370 C   0  0  0  0  0  0  0  0  0  0  0  0
   60.1610   26.4050   48.3310 O   0  0  0  0  0  0  0  0  0  0  0  0
   59.0310   25.2280   46.6700 N   0  0  0  0  0  0  0  0  0  0  0  0
   57.7620   24.5440   46.8760 C   0  0  0  0  0  0  0  0  0  0  0  0
   57.4390   23.7020   45.6640 C   0  0  0  0  0  0  0  0  0  0  0  0
   58.4870   22.9540   45.0960 C   0  0  0  0  0  0  0  0  0  0  0  0
   58.2670   22.1480   43.9800 C   0  0  0  0  0  0  0  0  0  0  0  0
   56.9960   22.0730   43.4140 C   0  0  0  0  0  0  0  0  0  0  0  0
   55.9370   22.7990   43.9650 C   0  0  0  0  0  0  0  0  0  0  0  0
   56.1370   23.6190   45.0890 C   0  0  0  0  0  0  0  0  0  0  0  0
   54.7440   24.5050   45.7460 S   0  0  0  0  0  0  0  0  0  0  0  0
   55.1410   26.1710   46.0270 N   0  0  0  0  0  0  0  0  0  0  0  0
   53.6070   24.4440   44.7610 O   0  0  0  0  0  0  0  0  0  0  0  0
   54.3260   23.8830   47.0570 O   0  0  0  0  0  0  0  0  0  0  0  0
   57.7330   27.8970   46.0530 C   0  0  0  0  0  0  0  0  0  0  0  0
   57.4850   29.2120   45.8370 N   0  0  0  0  0  0  0  0  0  0  0  0
   56.4110   29.7170   45.0180 C   0  0  0  0  0  0  0  0  0  0  0  0
   55.3820   29.0220   44.8040 O   0  0  0  0  0  0  0  0  0  0  0  0
   56.5080   31.0280   44.4510 N   0  0  0  0  0  0  0  0  0  0  0  0
   57.4040   31.3460   43.3490 C   0  0  0  0  0  0  0  0  0  0  0  0
   56.9857   34.1394   46.3613 H   0  0  0  0  0  0  0  0  0  0  0  0
   56.4825   34.9534   44.8411 H   0  0  0  0  0  0  0  0  0  0  0  0
   56.8415   33.1934   44.8411 H   0  0  0  0  0  0  0  0  0  0  0  0
   59.0432   33.5694   44.5042 H   0  0  0  0  0  0  0  0  0  0  0  0
   58.6213   35.3055   44.2375 H   0  0  0  0  0  0  0  0  0  0  0  0
   57.9089   31.9805   46.1729 H   0  0  0  0  0  0  0  0  0  0  0  0
   60.9574   28.7872   48.5297 H   0  0  0  0  0  0  0  0  0  0  0  0
   57.8343   23.8971   47.7627 H   0  0  0  0  0  0  0  0  0  0  0  0
   56.9659   25.2878   47.0275 H   0  0  0  0  0  0  0  0  0  0  0  0
   59.4928   23.0060   45.5383 H   0  0  0  0  0  0  0  0  0  0  0  0
   59.0970   21.5711   43.5462 H   0  0  0  0  0  0  0  0  0  0  0  0
   56.8258   21.4402   42.5305 H   0  0  0  0  0  0  0  0  0  0  0  0
   54.9360   22.7281   43.5144 H   0  0  0  0  0  0  0  0  0  0  0  0
   54.7780   26.7210   45.2120 H   0  0  0  0  0  0  0  0  0  0  0  0
   57.1424   27.0718   45.6284 H   0  0  0  0  0  0  0  0  0  0  0  0
   58.3697   31.6888   43.7488 H   0  0  0  0  0  0  0  0  0  0  0  0
   57.5601   30.4484   42.7326 H   0  0  0  0  0  0  0  0  0  0  0  0
   56.9593   32.1412   42.7326 H   0  0  0  0  0  0  0  0  0  0  0  0
  1  2  1  0
  2  3  1  0
  3  4  1  0
  4  5  2  0
  4  6  1  0
  6  7  2  3
  7  8  1  0
  8  9  2  0
  9 10  1  0
 10 11  2  0
 11 12  1  0
 10 13  1  0
 13 14  1  0
 14 15  2  0
 14 16  1  0
 16 17  1  0
 17 18  1  0
 18 19  2  0
 19 20  1  0
 20 21  2  0
 21 22  1  0
 22 23  2  0
 23 24  1  0
 24 25  1  0
 24 26  2  0
 24 27  2  0
 13 28  2  0
 28 29  1  0
 29 30  1  0
 30 31  2  0
 30 32  1  0
 32 33  1  0
 12  7  1  0
 23 18  1  0
 29  9  1  0
  1 34  1  0
  1 35  1  0
  1 36  1  0
  2 37  1  0
  2 38  1  0
  8 39  1  0
 11 40  1  0
 17 41  1  0
 17 42  1  0
 19 43  1  0
 20 44  1  0
 21 45  1  0
 22 46  1  0
 25 47  1  0
 28 48  1  0
 33 49  1  0
 33 50  1  0
 33 51  1  0
M  CHG  4  12  -1  16  -1  25  -1  32  -1
M  END
>  <UniqueID>  (52) 
49

>  <SMILES>  (52) 
CCOC(=O)N=c1cc2c(c[n-]1)c(C(=O)[N-]Cc1ccccc1S([NH-])(=O)=O)cn2C(=O)[N-]C

>  <Energy>  (52) 
92.34832839355906

>  <Genealogy>  (52) 
CCOC(=O)N=c1cc2c(c[n-]1)c(C(=O)[N-]Cc1ccccc1S([NH-])(=O)=O)cn2C(=O)[N-]C (protonated)
CCOC(=O)N=c1cc2c(c[n-]1)c(C(=O)[N-]Cc1ccccc1S([NH-])(=O)=O)cn2C(=O)[N-]C (3D coordinates assigned)
CCOC(=O)N=c1cc2c(c[n-]1)c(C(=O)[N-]Cc1ccccc1S([NH-])(=O)=O)cn2C(=O)[N-]C (optimized conformer: 92.34832839355906 kcal/mol)

>  <smiles>  (52) 
CCOC(=O)N=c1cc2c(c[nH]1)c(C(=O)NCc1ccccc1S(N)(=O)=O)cn2C(=O)NC

>  <score_type>  (52) 
oracle

>  <origin>  (52) 
adg

>  <m_score__min__energy>  (52) 
-16.16

>  <m_primary>  (52) 
energy

$$$$
52:0
     RDKit          3D

 36 38  0  0  0  0  0  0  0  0999 V2000
   54.9860   26.1100   46.0290 N   0  0  0  0  0  0  0  0  0  0  0  0
   56.7010   25.9690   45.8760 S   0  0  0  0  0  0  0  0  0  0  0  0
   57.0260   25.3470   44.5470 O   0  0  0  0  0  0  0  0  0  0  0  0
   57.2380   25.0880   46.9690 O   0  0  0  0  0  0  0  0  0  0  0  0
   57.4330   27.5690   46.0020 C   0  0  0  0  0  0  0  0  0  0  0  0
   58.6990   27.7220   46.5880 C   0  0  0  0  0  0  0  0  0  0  0  0
   59.2800   28.9940   46.7070 C   0  0  0  0  0  0  0  0  0  0  0  0
   60.5830   29.1630   47.2780 N   0  0  0  0  0  0  0  0  0  0  0  0
   60.8640   29.3690   48.6680 C   0  0  0  0  0  0  0  0  0  0  0  0
   61.1270   28.3650   49.3840 O   0  0  0  0  0  0  0  0  0  0  0  0
   61.0190   30.7570   49.2380 C   0  0  0  0  0  0  0  0  0  0  0  0
   61.2790   31.7400   48.1840 N   0  0  0  0  0  0  0  0  0  0  0  0
   62.5660   32.2070   47.7710 C   0  0  0  0  0  0  0  0  0  0  0  0
   63.6560   31.6610   48.0870 O   0  0  0  0  0  0  0  0  0  0  0  0
   62.4250   33.4120   46.9670 C   0  0  0  0  0  0  0  0  0  0  0  0
   63.3470   34.0860   46.4380 O   0  0  0  0  0  0  0  0  0  0  0  0
   60.9990   33.6850   46.9210 C   0  0  0  0  0  0  0  0  0  0  0  0
   60.2970   34.7230   46.3120 C   0  0  0  0  0  0  0  0  0  0  0  0
   58.8990   34.7460   46.4490 C   0  0  0  0  0  0  0  0  0  0  0  0
   58.2370   33.7420   47.1850 C   0  0  0  0  0  0  0  0  0  0  0  0
   58.9660   32.7050   47.7930 C   0  0  0  0  0  0  0  0  0  0  0  0
   60.3560   32.6960   47.6490 C   0  0  0  0  0  0  0  0  0  0  0  0
   58.6160   30.1070   46.1780 C   0  0  0  0  0  0  0  0  0  0  0  0
   57.3590   29.9610   45.5880 C   0  0  0  0  0  0  0  0  0  0  0  0
   56.7630   28.6980   45.5010 C   0  0  0  0  0  0  0  0  0  0  0  0
   55.5090   28.5740   44.9120 O   0  0  0  0  0  0  0  0  0  0  0  0
   54.7900   27.0710   46.3880 H   0  0  0  0  0  0  0  0  0  0  0  0
   59.2401   26.8382   46.9569 H   0  0  0  0  0  0  0  0  0  0  0  0
   60.0938   31.0332   49.7650 H   0  0  0  0  0  0  0  0  0  0  0  0
   61.8750   30.7546   49.9288 H   0  0  0  0  0  0  0  0  0  0  0  0
   60.8223   35.5022   45.7403 H   0  0  0  0  0  0  0  0  0  0  0  0
   58.3171   35.5525   45.9790 H   0  0  0  0  0  0  0  0  0  0  0  0
   57.1419   33.7703   47.2842 H   0  0  0  0  0  0  0  0  0  0  0  0
   58.4544   31.9194   48.3684 H   0  0  0  0  0  0  0  0  0  0  0  0
   59.0862   31.1002   46.2273 H   0  0  0  0  0  0  0  0  0  0  0  0
   56.8351   30.8425   45.1899 H   0  0  0  0  0  0  0  0  0  0  0  0
  1  2  1  0
  2  3  2  0
  2  4  2  0
  2  5  1  0
  5  6  2  0
  6  7  1  0
  7  8  1  0
  8  9  1  0
  9 10  2  0
  9 11  1  0
 11 12  1  0
 12 13  1  0
 13 14  2  0
 13 15  1  0
 15 16  2  0
 15 17  1  0
 17 18  2  0
 18 19  1  0
 19 20  2  0
 20 21  1  0
 21 22  2  0
  7 23  2  0
 23 24  1  0
 24 25  2  0
 25 26  1  0
 25  5  1  0
 22 12  1  0
 22 17  1  0
  1 27  1  0
  6 28  1  0
 11 29  1  0
 11 30  1  0
 18 31  1  0
 19 32  1  0
 20 33  1  0
 21 34  1  0
 23 35  1  0
 24 36  1  0
M  CHG  3   1  -1   8  -1  26  -1
M  END
>  <UniqueID>  (53) 
50

>  <SMILES>  (53) 
[NH-]S(=O)(=O)c1cc([N-]C(=O)CN2C(=O)C(=O)c3ccccc32)ccc1[O-]

>  <Energy>  (53) 
75.85878841787203

>  <Genealogy>  (53) 
[NH-]S(=O)(=O)c1cc([N-]C(=O)CN2C(=O)C(=O)c3ccccc32)ccc1[O-] (protonated)
[NH-]S(=O)(=O)c1cc([N-]C(=O)CN2C(=O)C(=O)c3ccccc32)ccc1[O-] (3D coordinates assigned)
[NH-]S(=O)(=O)c1cc([N-]C(=O)CN2C(=O)C(=O)c3ccccc32)ccc1[O-] (nonaromatic ring conformer: 75.85878841787203 kcal/mol)

>  <smiles>  (53) 
NS(=O)(=O)c1cc(NC(=O)CN2C(=O)C(=O)c3ccccc32)ccc1O

>  <score_type>  (53) 
oracle

>  <origin>  (53) 
adg

>  <m_score__min__energy>  (53) 
-15.220000000000001

>  <m_primary>  (53) 
energy

$$$$
53:0
     RDKit          3D

 39 41  0  0  0  0  0  0  0  0999 V2000
   55.2740   29.3600   44.5600 N   0  0  0  0  0  0  0  0  0  0  0  0
   56.3600   28.6110   45.1110 C   0  0  0  0  0  0  0  0  0  0  0  0
   56.1100   27.4000   45.6740 N   0  0  0  0  0  0  0  0  0  0  0  0
   57.1070   26.6460   46.2000 C   0  0  0  0  0  0  0  0  0  0  0  0
   56.7390   25.0390   46.8970 S   0  0  0  0  0  0  0  0  0  0  0  0
   58.0960   24.1830   46.0220 C   0  0  0  0  0  0  0  0  0  0  0  0
   57.5670   23.3680   44.8730 C   0  0  0  0  0  0  0  0  0  0  0  0
   56.5010   23.8540   44.0960 C   0  0  0  0  0  0  0  0  0  0  0  0
   56.0300   23.1150   43.0070 C   0  0  0  0  0  0  0  0  0  0  0  0
   56.6220   21.8910   42.6820 C   0  0  0  0  0  0  0  0  0  0  0  0
   57.6870   21.4050   43.4460 C   0  0  0  0  0  0  0  0  0  0  0  0
   58.1590   22.1390   44.5370 C   0  0  0  0  0  0  0  0  0  0  0  0
   58.3830   27.1090   46.1970 N   0  0  0  0  0  0  0  0  0  0  0  0
   58.6910   28.3140   45.6520 C   0  0  0  0  0  0  0  0  0  0  0  0
   59.8780   28.7290   45.7130 O   0  0  0  0  0  0  0  0  0  0  0  0
   57.6790   29.0930   45.0580 C   0  0  0  0  0  0  0  0  0  0  0  0
   57.9470   30.3780   44.4750 N   0  0  0  0  0  0  0  0  0  0  0  0
   57.4000   31.6300   44.9140 C   0  0  0  0  0  0  0  0  0  0  0  0
   56.1540   31.8210   44.8670 O   0  0  0  0  0  0  0  0  0  0  0  0
   58.2900   32.6750   45.4710 C   0  0  0  0  0  0  0  0  0  0  0  0
   59.0090   32.4410   46.6580 C   0  0  0  0  0  0  0  0  0  0  0  0
   59.8480   33.4280   47.1840 C   0  0  0  0  0  0  0  0  0  0  0  0
   59.9770   34.6580   46.5350 C   0  0  0  0  0  0  0  0  0  0  0  0
   59.2670   34.9030   45.3580 C   0  0  0  0  0  0  0  0  0  0  0  0
   58.4270   33.9190   44.8260 C   0  0  0  0  0  0  0  0  0  0  0  0
   55.4350   30.3300   44.2070 H   0  0  0  0  0  0  0  0  0  0  0  0
   54.3080   28.9690   44.5070 H   0  0  0  0  0  0  0  0  0  0  0  0
   58.8039   24.9314   45.6363 H   0  0  0  0  0  0  0  0  0  0  0  0
   58.5978   23.5067   46.7297 H   0  0  0  0  0  0  0  0  0  0  0  0
   56.0360   24.8191   44.3458 H   0  0  0  0  0  0  0  0  0  0  0  0
   55.1924   23.4971   42.4050 H   0  0  0  0  0  0  0  0  0  0  0  0
   56.2498   21.3103   41.8251 H   0  0  0  0  0  0  0  0  0  0  0  0
   58.1541   20.4432   43.1878 H   0  0  0  0  0  0  0  0  0  0  0  0
   58.9975   21.7531   45.1353 H   0  0  0  0  0  0  0  0  0  0  0  0
   58.9102   31.4753   47.1753 H   0  0  0  0  0  0  0  0  0  0  0  0
   60.4078   33.2354   48.1111 H   0  0  0  0  0  0  0  0  0  0  0  0
   60.6375   35.4331   46.9508 H   0  0  0  0  0  0  0  0  0  0  0  0
   59.3684   35.8722   44.8478 H   0  0  0  0  0  0  0  0  0  0  0  0
   57.8703   34.1183   43.8984 H   0  0  0  0  0  0  0  0  0  0  0  0
  1  2  1  0
  2  3  1  0
  3  4  1  0
  4  5  1  0
  5  6  1  0
  6  7  1  0
  7  8  2  0
  8  9  1  0
  9 10  2  0
 10 11  1  0
 11 12  2  0
  4 13  2  0
 13 14  1  0
 14 15  2  0
 14 16  1  0
 16 17  1  0
 17 18  1  0
 18 19  2  0
 18 20  1  0
 20 21  2  0
 21 22  1  0
 22 23  2  0
 23 24  1  0
 24 25  2  0
 16  2  2  0
 25 20  1  0
 12  7  1  0
  1 26  1  0
  1 27  1  0
  6 28  1  0
  6 29  1  0
  8 30  1  0
  9 31  1  0
 10 32  1  0
 11 33  1  0
 12 34  1  0
 21 35  1  0
 22 36  1  0
 23 37  1  0
 24 38  1  0
 25 39  1  0
M  CHG  2   3  -1  17  -1
M  END
>  <UniqueID>  (54) 
51

>  <SMILES>  (54) 
Nc1[n-]c(SCc2ccccc2)nc(=O)c1[N-]C(=O)c1ccccc1

>  <Energy>  (54) 
43.72057208817118

>  <Genealogy>  (54) 
Nc1[n-]c(SCc2ccccc2)nc(=O)c1[N-]C(=O)c1ccccc1 (protonated)
Nc1[n-]c(SCc2ccccc2)nc(=O)c1[N-]C(=O)c1ccccc1 (3D coordinates assigned)
Nc1[n-]c(SCc2ccccc2)nc(=O)c1[N-]C(=O)c1ccccc1 (optimized conformer: 43.72057208817118 kcal/mol)

>  <smiles>  (54) 
Nc1[nH]c(SCc2ccccc2)nc(=O)c1NC(=O)c1ccccc1

>  <score_type>  (54) 
oracle

>  <origin>  (54) 
adg

>  <m_score__min__energy>  (54) 
-11.779999999999999

>  <m_primary>  (54) 
energy

$$$$
54:0
     RDKit          3D

 42 44  0  0  0  0  0  0  0  0999 V2000
   56.0480   31.4000   44.5330 O   0  0  0  0  0  0  0  0  0  0  0  0
   56.2180   29.9910   44.0410 S   0  0  0  0  0  0  0  0  0  0  0  0
   55.8900   29.9370   42.5760 O   0  0  0  0  0  0  0  0  0  0  0  0
   55.1760   28.9650   44.8680 O   0  0  0  0  0  0  0  0  0  0  0  0
   57.8580   29.4780   44.2780 N   0  0  0  0  0  0  0  0  0  0  0  0
   58.4210   29.1870   45.5740 C   0  0  0  0  0  0  0  0  0  0  0  0
   58.6750   27.8580   45.9580 C   0  0  0  0  0  0  0  0  0  0  0  0
   59.2160   27.5670   47.2090 C   0  0  0  0  0  0  0  0  0  0  0  0
   59.5180   28.5950   48.0980 C   0  0  0  0  0  0  0  0  0  0  0  0
   59.2880   29.9330   47.7480 C   0  0  0  0  0  0  0  0  0  0  0  0
   59.6000   31.0080   48.7660 C   0  0  0  0  0  0  0  0  0  0  0  0
   61.1020   31.0570   49.0640 C   0  0  0  0  0  0  0  0  0  0  0  0
   61.7880   32.0430   48.1590 C   0  0  0  0  0  0  0  0  0  0  0  0
   63.1470   31.8980   47.8420 C   0  0  0  0  0  0  0  0  0  0  0  0
   63.7580   32.7980   46.9670 C   0  0  0  0  0  0  0  0  0  0  0  0
   63.0020   33.8300   46.4080 C   0  0  0  0  0  0  0  0  0  0  0  0
   61.6820   33.9490   46.7120 N   0  0  0  0  0  0  0  0  0  0  0  0
   61.0630   33.0850   47.5610 C   0  0  0  0  0  0  0  0  0  0  0  0
   58.7180   30.2350   46.4840 C   0  0  0  0  0  0  0  0  0  0  0  0
   58.4520   31.6390   46.1050 C   0  0  0  0  0  0  0  0  0  0  0  0
   58.8760   32.1230   44.8580 C   0  0  0  0  0  0  0  0  0  0  0  0
   58.6370   33.4550   44.5060 C   0  0  0  0  0  0  0  0  0  0  0  0
   57.9710   34.3050   45.3930 C   0  0  0  0  0  0  0  0  0  0  0  0
   57.5400   33.8250   46.6330 C   0  0  0  0  0  0  0  0  0  0  0  0
   57.7760   32.4940   46.9880 C   0  0  0  0  0  0  0  0  0  0  0  0
   58.4110   29.3050   43.4110 H   0  0  0  0  0  0  0  0  0  0  0  0
   58.4438   27.0380   45.2622 H   0  0  0  0  0  0  0  0  0  0  0  0
   59.4050   26.5218   47.4949 H   0  0  0  0  0  0  0  0  0  0  0  0
   59.9412   28.3551   49.0846 H   0  0  0  0  0  0  0  0  0  0  0  0
   59.2790   31.9830   48.3706 H   0  0  0  0  0  0  0  0  0  0  0  0
   59.0634   30.7768   49.6980 H   0  0  0  0  0  0  0  0  0  0  0  0
   61.2535   31.3603   50.1104 H   0  0  0  0  0  0  0  0  0  0  0  0
   61.5310   30.0588   48.8919 H   0  0  0  0  0  0  0  0  0  0  0  0
   63.7305   31.0761   48.2824 H   0  0  0  0  0  0  0  0  0  0  0  0
   64.8250   32.6950   46.7203 H   0  0  0  0  0  0  0  0  0  0  0  0
   63.4746   34.5475   45.7210 H   0  0  0  0  0  0  0  0  0  0  0  0
   59.9914   33.2035   47.7793 H   0  0  0  0  0  0  0  0  0  0  0  0
   59.3967   31.4542   44.1569 H   0  0  0  0  0  0  0  0  0  0  0  0
   58.9736   33.8342   43.5298 H   0  0  0  0  0  0  0  0  0  0  0  0
   57.7857   35.3531   45.1150 H   0  0  0  0  0  0  0  0  0  0  0  0
   57.0149   34.4950   47.3296 H   0  0  0  0  0  0  0  0  0  0  0  0
   57.4310   32.1161   47.9617 H   0  0  0  0  0  0  0  0  0  0  0  0
  1  2  2  0
  2  3  2  0
  2  4  1  0
  2  5  1  0
  5  6  1  0
  6  7  2  0
  7  8  1  0
  8  9  2  0
  9 10  1  0
 10 11  1  0
 11 12  1  0
 12 13  1  0
 13 14  2  0
 14 15  1  0
 15 16  2  0
 16 17  1  0
 17 18  2  0
 10 19  2  0
 19 20  1  0
 20 21  2  0
 21 22  1  0
 22 23  2  0
 23 24  1  0
 24 25  2  0
 19  6  1  0
 25 20  1  0
 18 13  1  0
  5 26  1  0
  7 27  1  0
  8 28  1  0
  9 29  1  0
 11 30  1  0
 11 31  1  0
 12 32  1  0
 12 33  1  0
 14 34  1  0
 15 35  1  0
 16 36  1  0
 18 37  1  0
 21 38  1  0
 22 39  1  0
 23 40  1  0
 24 41  1  0
 25 42  1  0
M  CHG  1   4  -1
M  END
>  <UniqueID>  (55) 
52

>  <SMILES>  (55) 
O=S(=O)([O-])Nc1cccc(CCc2cccnc2)c1-c1ccccc1

>  <Energy>  (55) 
53.48598662335827

>  <Genealogy>  (55) 
O=S(=O)([O-])Nc1cccc(CCc2cccnc2)c1-c1ccccc1 (protonated)
O=S(=O)([O-])Nc1cccc(CCc2cccnc2)c1-c1ccccc1 (3D coordinates assigned)
O=S(=O)([O-])Nc1cccc(CCc2cccnc2)c1-c1ccccc1 (optimized conformer: 53.48598662335827 kcal/mol)

>  <smiles>  (55) 
O=S(=O)(O)Nc1cccc(CCc2cccnc2)c1-c1ccccc1

>  <score_type>  (55) 
oracle

>  <origin>  (55) 
adg

>  <m_score__min__energy>  (55) 
-12.210000000000001

>  <m_primary>  (55) 
energy

$$$$
55:0
     RDKit          3D

 60 63  0  0  0  0  0  0  0  0999 V2000
   63.3770   33.3510   48.7680 C   0  0  0  0  0  0  0  0  0  0  0  0
   62.1050   34.1460   49.0510 C   0  0  0  0  0  0  0  0  0  0  0  0
   61.3910   33.6180   50.3040 C   0  0  0  0  0  0  0  0  0  0  0  0
   60.6860   32.2780   50.0550 C   0  0  0  0  0  0  0  0  0  0  0  0
   59.9810   32.2400   48.7220 C   0  0  0  0  0  0  0  0  0  0  0  0
   60.6080   31.6750   47.6000 C   0  0  0  0  0  0  0  0  0  0  0  0
   59.9360   31.6080   46.3740 C   0  0  0  0  0  0  0  0  0  0  0  0
   58.6320   32.1080   46.2560 C   0  0  0  0  0  0  0  0  0  0  0  0
   57.7910   32.0220   44.7090 S   0  0  0  0  0  0  0  0  0  0  0  0
   58.2200   33.1710   43.8400 O   0  0  0  0  0  0  0  0  0  0  0  0
   56.3050   32.1100   44.9210 O   0  0  0  0  0  0  0  0  0  0  0  0
   58.1790   30.5340   43.9160 N   0  0  0  0  0  0  0  0  0  0  0  0
   58.6750   29.4260   44.6660 C   0  0  0  0  0  0  0  0  0  0  0  0
   60.0180   29.0560   44.5450 C   0  0  0  0  0  0  0  0  0  0  0  0
   60.5100   27.9620   45.2580 C   0  0  0  0  0  0  0  0  0  0  0  0
   59.6610   27.2260   46.0870 C   0  0  0  0  0  0  0  0  0  0  0  0
   58.3040   27.5750   46.2100 C   0  0  0  0  0  0  0  0  0  0  0  0
   57.4130   26.7640   47.1220 C   0  0  0  0  0  0  0  0  0  0  0  0
   56.5180   25.8410   46.3240 C   0  0  0  0  0  0  0  0  0  0  0  0
   55.1760   26.0740   46.3480 N   0  0  0  0  0  0  0  0  0  0  0  0
   54.3130   25.3460   45.6380 N   0  0  0  0  0  0  0  0  0  0  0  0
   54.7290   24.3350   44.8370 C   0  0  0  0  0  0  0  0  0  0  0  0
   53.8810   23.7010   44.1520 O   0  0  0  0  0  0  0  0  0  0  0  0
   56.0950   24.0120   44.7830 C   0  0  0  0  0  0  0  0  0  0  0  0
   57.0030   24.7440   45.5700 C   0  0  0  0  0  0  0  0  0  0  0  0
   58.4590   24.3400   45.5190 C   0  0  0  0  0  0  0  0  0  0  0  0
   58.6080   22.8100   45.5090 C   0  0  0  0  0  0  0  0  0  0  0  0
   57.6920   22.0780   44.5010 C   0  0  0  0  0  0  0  0  0  0  0  0
   56.6320   22.9700   43.8320 C   0  0  0  0  0  0  0  0  0  0  0  0
   57.8120   28.7010   45.5040 C   0  0  0  0  0  0  0  0  0  0  0  0
   56.4810   29.1200   45.6090 O   0  0  0  0  0  0  0  0  0  0  0  0
   58.0160   32.7040   47.3650 C   0  0  0  0  0  0  0  0  0  0  0  0
   58.6860   32.7690   48.5920 C   0  0  0  0  0  0  0  0  0  0  0  0
   63.8456   33.0581   49.7191 H   0  0  0  0  0  0  0  0  0  0  0  0
   63.1250   32.4494   48.1905 H   0  0  0  0  0  0  0  0  0  0  0  0
   64.0770   33.9726   48.1905 H   0  0  0  0  0  0  0  0  0  0  0  0
   62.3686   35.2026   49.2060 H   0  0  0  0  0  0  0  0  0  0  0  0
   61.4273   34.0390   48.1912 H   0  0  0  0  0  0  0  0  0  0  0  0
   62.1343   33.4828   51.1035 H   0  0  0  0  0  0  0  0  0  0  0  0
   60.6233   34.3532   50.5872 H   0  0  0  0  0  0  0  0  0  0  0  0
   61.4359   31.4737   50.0814 H   0  0  0  0  0  0  0  0  0  0  0  0
   59.9272   32.1464   50.8404 H   0  0  0  0  0  0  0  0  0  0  0  0
   61.6323   31.2831   47.6848 H   0  0  0  0  0  0  0  0  0  0  0  0
   60.4330   31.1614   45.5002 H   0  0  0  0  0  0  0  0  0  0  0  0
   60.6879   29.6284   43.8865 H   0  0  0  0  0  0  0  0  0  0  0  0
   61.5690   27.6788   45.1668 H   0  0  0  0  0  0  0  0  0  0  0  0
   60.0565   26.3666   46.6482 H   0  0  0  0  0  0  0  0  0  0  0  0
   58.0403   26.1626   47.7964 H   0  0  0  0  0  0  0  0  0  0  0  0
   56.7799   27.4544   47.6987 H   0  0  0  0  0  0  0  0  0  0  0  0
   58.9144   24.7514   44.6061 H   0  0  0  0  0  0  0  0  0  0  0  0
   58.9629   24.7346   46.4136 H   0  0  0  0  0  0  0  0  0  0  0  0
   59.6522   22.5691   45.2606 H   0  0  0  0  0  0  0  0  0  0  0  0
   58.3096   22.4623   46.5091 H   0  0  0  0  0  0  0  0  0  0  0  0
   58.3258   21.6478   43.7116 H   0  0  0  0  0  0  0  0  0  0  0  0
   57.1417   21.3183   45.0755 H   0  0  0  0  0  0  0  0  0  0  0  0
   57.0870   23.4770   42.9683 H   0  0  0  0  0  0  0  0  0  0  0  0
   55.7946   22.3294   43.5184 H   0  0  0  0  0  0  0  0  0  0  0  0
   56.2010   30.0920   45.6490 H   0  0  0  0  0  0  0  0  0  0  0  0
   57.0029   33.1219   47.2707 H   0  0  0  0  0  0  0  0  0  0  0  0
   58.1962   33.2366   49.4589 H   0  0  0  0  0  0  0  0  0  0  0  0
  1  2  1  0
  2  3  1  0
  3  4  1  0
  4  5  1  0
  5  6  2  0
  6  7  1  0
  7  8  2  0
  8  9  1  0
  9 10  2  0
  9 11  2  0
  9 12  1  0
 12 13  1  0
 13 14  2  0
 14 15  1  0
 15 16  2  0
 16 17  1  0
 17 18  1  0
 18 19  1  0
 19 20  2  0
 20 21  1  0
 21 22  1  0
 22 23  2  0
 22 24  1  0
 24 25  2  0
 25 26  1  0
 26 27  1  0
 27 28  1  0
 28 29  1  0
 17 30  2  0
 30 31  1  0
  8 32  1  0
 32 33  2  0
 33  5  1  0
 30 13  1  0
 25 19  1  0
 29 24  1  0
  1 34  1  0
  1 35  1  0
  1 36  1  0
  2 37  1  0
  2 38  1  0
  3 39  1  0
  3 40  1  0
  4 41  1  0
  4 42  1  0
  6 43  1  0
  7 44  1  0
 14 45  1  0
 15 46  1  0
 16 47  1  0
 18 48  1  0
 18 49  1  0
 26 50  1  0
 26 51  1  0
 27 52  1  0
 27 53  1  0
 28 54  1  0
 28 55  1  0
 29 56  1  0
 29 57  1  0
 31 58  1  0
 32 59  1  0
 33 60  1  0
M  CHG  2  12  -1  21  -1
M  END
>  <UniqueID>  (56) 
53

>  <SMILES>  (56) 
CCCCc1ccc(S(=O)(=O)[N-]c2cccc(Cc3n[n-]c(=O)c4c3CCCC4)c2O)cc1

>  <Energy>  (56) 
73.24574421019234

>  <Genealogy>  (56) 
CCCCc1ccc(S(=O)(=O)[N-]c2cccc(Cc3n[n-]c(=O)c4c3CCCC4)c2O)cc1 (protonated)
CCCCc1ccc(S(=O)(=O)[N-]c2cccc(Cc3n[n-]c(=O)c4c3CCCC4)c2O)cc1 (3D coordinates assigned)
CCCCc1ccc(S(=O)(=O)[N-]c2cccc(Cc3n[n-]c(=O)c4c3CCCC4)c2O)cc1 (nonaromatic ring conformer: 73.24574421019234 kcal/mol)

>  <smiles>  (56) 
CCCCc1ccc(S(=O)(=O)Nc2cccc(Cc3n[nH]c(=O)c4c3CCCC4)c2O)cc1

>  <score_type>  (56) 
oracle

>  <origin>  (56) 
adg

>  <m_score__min__energy>  (56) 
-14.539999999999999

>  <m_primary>  (56) 
energy

$$$$
56:0
     RDKit          3D

 58 61  0  0  0  0  0  0  0  0999 V2000
   60.9050   29.2730   45.0220 O   0  0  0  0  0  0  0  0  0  0  0  0
   60.0910   28.7810   45.8510 C   0  0  0  0  0  0  0  0  0  0  0  0
   58.8770   28.1660   45.3840 N   0  0  0  0  0  0  0  0  0  0  0  0
   58.4750   28.1910   43.9730 C   0  0  2  0  0  0  0  0  0  0  0  0
   57.2750   29.1380   43.7780 C   0  0  0  0  0  0  0  0  0  0  0  0
   57.5970   30.5320   44.2550 C   0  0  0  0  0  0  0  0  0  0  0  0
   57.7690   30.7900   45.6240 C   0  0  0  0  0  0  0  0  0  0  0  0
   58.1550   32.0600   46.0600 C   0  0  0  0  0  0  0  0  0  0  0  0
   58.3720   33.0960   45.1310 C   0  0  0  0  0  0  0  0  0  0  0  0
   58.7640   34.3880   45.5140 O   0  0  0  0  0  0  0  0  0  0  0  0
   59.0390   34.8050   46.8520 C   0  0  0  0  0  0  0  0  0  0  0  0
   60.3660   34.2660   47.3190 C   0  0  0  0  0  0  0  0  0  0  0  0
   61.3240   33.8440   46.3840 C   0  0  0  0  0  0  0  0  0  0  0  0
   62.5530   33.3350   46.8150 C   0  0  0  0  0  0  0  0  0  0  0  0
   62.8300   33.2350   48.1810 C   0  0  0  0  0  0  0  0  0  0  0  0
   61.8760   33.6410   49.1180 C   0  0  0  0  0  0  0  0  0  0  0  0
   60.6460   34.1500   48.6920 C   0  0  0  0  0  0  0  0  0  0  0  0
   58.2000   32.8340   43.7680 C   0  0  0  0  0  0  0  0  0  0  0  0
   57.8200   31.5620   43.3300 C   0  0  0  0  0  0  0  0  0  0  0  0
   58.1180   26.7970   43.5200 C   0  0  0  0  0  0  0  0  0  0  0  0
   58.1350   26.5170   42.2910 O   0  0  0  0  0  0  0  0  0  0  0  0
   57.8880   25.7430   44.4670 N   0  0  0  0  0  0  0  0  0  0  0  0
   56.9770   24.8120   44.4090 C   0  0  0  0  0  0  0  0  0  0  0  0
   55.9180   24.7210   45.3350 C   0  0  0  0  0  0  0  0  0  0  0  0
   54.9730   23.7000   45.2040 C   0  0  0  0  0  0  0  0  0  0  0  0
   55.0660   22.8100   44.1810 N   0  0  0  0  0  0  0  0  0  0  0  0
   56.0640   22.8840   43.2630 C   0  0  0  0  0  0  0  0  0  0  0  0
   57.0300   23.8890   43.3560 C   0  0  0  0  0  0  0  0  0  0  0  0
   60.3830   28.8890   47.2990 C   0  0  0  0  0  0  0  0  0  0  0  0
   60.3990   27.7490   48.1230 C   0  0  0  0  0  0  0  0  0  0  0  0
   60.6710   27.8710   49.4900 C   0  0  0  0  0  0  0  0  0  0  0  0
   60.9310   29.1250   50.0450 C   0  0  0  0  0  0  0  0  0  0  0  0
   60.9260   30.2620   49.2330 C   0  0  0  0  0  0  0  0  0  0  0  0
   60.6570   30.1470   47.8670 C   0  0  0  0  0  0  0  0  0  0  0  0
   58.1560   27.8800   46.0850 H   0  0  0  0  0  0  0  0  0  0  0  0
   59.3151   28.5611   43.3670 H   0  0  0  0  0  0  0  0  0  0  0  0
   57.0172   29.1751   42.7093 H   0  0  0  0  0  0  0  0  0  0  0  0
   56.4294   28.7547   44.3680 H   0  0  0  0  0  0  0  0  0  0  0  0
   57.5990   29.9880   46.3574 H   0  0  0  0  0  0  0  0  0  0  0  0
   58.2901   32.2518   47.1347 H   0  0  0  0  0  0  0  0  0  0  0  0
   59.0630   35.9041   46.8893 H   0  0  0  0  0  0  0  0  0  0  0  0
   58.2491   34.4163   47.5115 H   0  0  0  0  0  0  0  0  0  0  0  0
   61.1071   33.9140   45.3079 H   0  0  0  0  0  0  0  0  0  0  0  0
   63.3029   33.0128   46.0776 H   0  0  0  0  0  0  0  0  0  0  0  0
   63.7983   32.8370   48.5185 H   0  0  0  0  0  0  0  0  0  0  0  0
   62.0936   33.5598   50.1932 H   0  0  0  0  0  0  0  0  0  0  0  0
   59.8948   34.4608   49.4330 H   0  0  0  0  0  0  0  0  0  0  0  0
   58.3653   33.6363   43.0338 H   0  0  0  0  0  0  0  0  0  0  0  0
   57.6953   31.3681   42.2544 H   0  0  0  0  0  0  0  0  0  0  0  0
   55.8361   25.4491   46.1555 H   0  0  0  0  0  0  0  0  0  0  0  0
   54.1516   23.6163   45.9308 H   0  0  0  0  0  0  0  0  0  0  0  0
   56.1119   22.1509   42.4443 H   0  0  0  0  0  0  0  0  0  0  0  0
   57.8304   23.9556   42.6043 H   0  0  0  0  0  0  0  0  0  0  0  0
   60.1969   26.7578   47.6909 H   0  0  0  0  0  0  0  0  0  0  0  0
   60.6800   26.9759   50.1293 H   0  0  0  0  0  0  0  0  0  0  0  0
   61.1397   29.2181   51.1210 H   0  0  0  0  0  0  0  0  0  0  0  0
   61.1343   31.2497   49.6702 H   0  0  0  0  0  0  0  0  0  0  0  0
   60.6594   31.0450   47.2317 H   0  0  0  0  0  0  0  0  0  0  0  0
  1  2  2  0
  2  3  1  0
  3  4  1  0
  4  5  1  0
  5  6  1  0
  6  7  2  0
  7  8  1  0
  8  9  2  0
  9 10  1  0
 10 11  1  0
 11 12  1  0
 12 13  2  0
 13 14  1  0
 14 15  2  0
 15 16  1  0
 16 17  2  0
  9 18  1  0
 18 19  2  0
  4 20  1  0
 20 21  2  0
 20 22  1  0
 22 23  2  3
 23 24  1  0
 24 25  2  0
 25 26  1  0
 26 27  1  0
 27 28  2  0
  2 29  1  0
 29 30  2  0
 30 31  1  0
 31 32  2  0
 32 33  1  0
 33 34  2  0
 19  6  1  0
 28 23  1  0
 34 29  1  0
 17 12  1  0
  3 35  1  0
  4 36  1  6
  5 37  1  0
  5 38  1  0
  7 39  1  0
  8 40  1  0
 11 41  1  0
 11 42  1  0
 13 43  1  0
 14 44  1  0
 15 45  1  0
 16 46  1  0
 17 47  1  0
 18 48  1  0
 19 49  1  0
 24 50  1  0
 25 51  1  0
 27 52  1  0
 28 53  1  0
 30 54  1  0
 31 55  1  0
 32 56  1  0
 33 57  1  0
 34 58  1  0
M  CHG  1  26  -1
M  END
>  <UniqueID>  (57) 
54

>  <SMILES>  (57) 
O=C(N[C@H](Cc1ccc(OCc2ccccc2)cc1)C(=O)N=c1cc[n-]cc1)c1ccccc1

>  <Energy>  (57) 
69.46829032588619

>  <Genealogy>  (57) 
O=C(NC(Cc1ccc(OCc2ccccc2)cc1)C(=O)N=c1cc[n-]cc1)c1ccccc1 (protonated)
O=C(N[C@H](Cc1ccc(OCc2ccccc2)cc1)C(=O)N=c1cc[n-]cc1)c1ccccc1 (chirality)
O=C(N[C@H](Cc1ccc(OCc2ccccc2)cc1)C(=O)N=c1cc[n-]cc1)c1ccccc1 (3D coordinates assigned)
O=C(N[C@H](Cc1ccc(OCc2ccccc2)cc1)C(=O)N=c1cc[n-]cc1)c1ccccc1 (optimized conformer: 69.46829032588619 kcal/mol)

>  <smiles>  (57) 
O=C(NC(Cc1ccc(OCc2ccccc2)cc1)C(=O)N=c1cc[nH]cc1)c1ccccc1

>  <score_type>  (57) 
oracle

>  <origin>  (57) 
adg

>  <m_score__min__energy>  (57) 
-11.08

>  <m_primary>  (57) 
energy

$$$$
57:0
     RDKit          3D

 47 49  0  0  0  0  0  0  0  0999 V2000
   60.3740   32.6050   48.3970 C   0  0  0  0  0  0  0  0  0  0  0  0
   59.7530   33.3230   47.2260 C   0  0  0  0  0  0  0  0  0  0  0  0
   60.1300   34.6500   46.9670 C   0  0  0  0  0  0  0  0  0  0  0  0
   59.5950   35.3400   45.8830 C   0  0  0  0  0  0  0  0  0  0  0  0
   58.6710   34.7210   45.0450 C   0  0  0  0  0  0  0  0  0  0  0  0
   58.2450   33.4060   45.2970 C   0  0  0  0  0  0  0  0  0  0  0  0
   57.3320   32.7470   44.4040 N   0  0  0  0  0  0  0  0  0  0  0  0
   57.6720   31.8900   43.3060 C   0  0  0  0  0  0  0  0  0  0  0  0
   58.0980   32.3680   42.2200 O   0  0  0  0  0  0  0  0  0  0  0  0
   57.4790   30.4160   43.4400 C   0  0  0  0  0  0  0  0  0  0  0  0
   56.0350   30.0890   44.5020 S   0  0  0  0  0  0  0  0  0  0  0  0
   56.7240   28.5790   45.1670 C   0  0  0  0  0  0  0  0  0  0  0  0
   58.0710   28.4140   45.2210 N   0  0  0  0  0  0  0  0  0  0  0  0
   58.6180   27.2770   45.7220 C   0  0  0  0  0  0  0  0  0  0  0  0
   59.8710   27.1530   45.7540 O   0  0  0  0  0  0  0  0  0  0  0  0
   57.7910   26.2550   46.2090 C   0  0  0  0  0  0  0  0  0  0  0  0
   58.3810   25.0500   46.7180 N   0  0  0  0  0  0  0  0  0  0  0  0
   57.7670   23.7550   46.7300 C   0  0  0  0  0  0  0  0  0  0  0  0
   57.3780   23.2600   47.8240 O   0  0  0  0  0  0  0  0  0  0  0  0
   57.6350   22.9690   45.4760 C   0  0  0  0  0  0  0  0  0  0  0  0
   56.4110   22.9720   44.7750 C   0  0  0  0  0  0  0  0  0  0  0  0
   56.2640   22.2380   43.5930 C   0  0  0  0  0  0  0  0  0  0  0  0
   57.3320   21.4920   43.0950 C   0  0  0  0  0  0  0  0  0  0  0  0
   58.5500   21.4790   43.7760 C   0  0  0  0  0  0  0  0  0  0  0  0
   58.7090   22.2100   44.9600 C   0  0  0  0  0  0  0  0  0  0  0  0
   59.9130   22.1730   45.5830 F   0  0  0  0  0  0  0  0  0  0  0  0
   56.3990   26.4310   46.1080 C   0  0  0  0  0  0  0  0  0  0  0  0
   55.5210   25.4180   46.4840 O   0  0  0  0  0  0  0  0  0  0  0  0
   55.9010   27.5900   45.6020 N   0  0  0  0  0  0  0  0  0  0  0  0
   58.7810   32.6980   46.4010 C   0  0  0  0  0  0  0  0  0  0  0  0
   58.3560   31.2710   46.6670 C   0  0  0  0  0  0  0  0  0  0  0  0
   59.9980   33.0397   49.3349 H   0  0  0  0  0  0  0  0  0  0  0  0
   60.1092   31.5382   48.3553 H   0  0  0  0  0  0  0  0  0  0  0  0
   61.4679   32.7132   48.3553 H   0  0  0  0  0  0  0  0  0  0  0  0
   60.8549   35.1492   47.6267 H   0  0  0  0  0  0  0  0  0  0  0  0
   59.9031   36.3777   45.6876 H   0  0  0  0  0  0  0  0  0  0  0  0
   58.2709   35.2666   44.1777 H   0  0  0  0  0  0  0  0  0  0  0  0
   57.3107   29.9760   42.4460 H   0  0  0  0  0  0  0  0  0  0  0  0
   58.3762   29.9674   43.8913 H   0  0  0  0  0  0  0  0  0  0  0  0
   55.5636   23.5573   45.1615 H   0  0  0  0  0  0  0  0  0  0  0  0
   55.3043   22.2493   43.0555 H   0  0  0  0  0  0  0  0  0  0  0  0
   57.2144   20.9144   42.1663 H   0  0  0  0  0  0  0  0  0  0  0  0
   59.3909   20.8906   43.3802 H   0  0  0  0  0  0  0  0  0  0  0  0
   55.8470   24.6170   47.0120 H   0  0  0  0  0  0  0  0  0  0  0  0
   58.3050   31.0999   47.7524 H   0  0  0  0  0  0  0  0  0  0  0  0
   57.3662   31.0940   46.2210 H   0  0  0  0  0  0  0  0  0  0  0  0
   59.0877   30.5813   46.2210 H   0  0  0  0  0  0  0  0  0  0  0  0
  1  2  1  0
  2  3  2  0
  3  4  1  0
  4  5  2  0
  5  6  1  0
  6  7  1  0
  7  8  1  0
  8  9  2  0
  8 10  1  0
 10 11  1  0
 11 12  1  0
 12 13  2  0
 13 14  1  0
 14 15  2  0
 14 16  1  0
 16 17  1  0
 17 18  1  0
 18 19  2  0
 18 20  1  0
 20 21  2  0
 21 22  1  0
 22 23  2  0
 23 24  1  0
 24 25  2  0
 25 26  1  0
 16 27  2  0
 27 28  1  0
 27 29  1  0
  6 30  2  0
 30 31  1  0
 30  2  1  0
 29 12  1  0
 25 20  1  0
  1 32  1  0
  1 33  1  0
  1 34  1  0
  3 35  1  0
  4 36  1  0
  5 37  1  0
 10 38  1  0
 10 39  1  0
 21 40  1  0
 22 41  1  0
 23 42  1  0
 24 43  1  0
 28 44  1  0
 31 45  1  0
 31 46  1  0
 31 47  1  0
M  CHG  3   7  -1  17  -1  29  -1
M  END
>  <UniqueID>  (58) 
55

>  <SMILES>  (58) 
Cc1cccc([N-]C(=O)CSc2nc(=O)c([N-]C(=O)c3ccccc3F)c(O)[n-]2)c1C

>  <Energy>  (58) 
58.42323298994944

>  <Genealogy>  (58) 
Cc1cccc([N-]C(=O)CSc2nc(=O)c([N-]C(=O)c3ccccc3F)c(O)[n-]2)c1C (protonated)
Cc1cccc([N-]C(=O)CSc2nc(=O)c([N-]C(=O)c3ccccc3F)c(O)[n-]2)c1C (3D coordinates assigned)
Cc1cccc([N-]C(=O)CSc2nc(=O)c([N-]C(=O)c3ccccc3F)c(O)[n-]2)c1C (optimized conformer: 58.42323298994944 kcal/mol)

>  <smiles>  (58) 
Cc1cccc(NC(=O)CSc2nc(=O)c(NC(=O)c3ccccc3F)c(O)[nH]2)c1C

>  <score_type>  (58) 
oracle

>  <origin>  (58) 
adg

>  <m_score__min__energy>  (58) 
-14.970000000000001

>  <m_primary>  (58) 
energy

$$$$
58:0
     RDKit          3D

 54 57  0  0  0  0  0  0  0  0999 V2000
   58.1234   35.2238   44.5308 H   0  0  0  0  0  0  0  0  0  0  0  0
   58.5780   34.2810   44.8690 C   0  0  0  0  0  0  0  0  0  0  0  0
   59.7110   34.3350   45.5790 C   0  0  0  0  0  0  0  0  0  0  0  0
   60.6785   34.2797   45.0585 H   0  0  0  0  0  0  0  0  0  0  0  0
   59.6840   34.4700   47.0760 C   0  0  0  0  0  0  0  0  0  0  0  0
   58.7791   33.9797   47.4642 H   0  0  0  0  0  0  0  0  0  0  0  0
   59.6841   35.5404   47.3293 H   0  0  0  0  0  0  0  0  0  0  0  0
   60.8740   33.8430   47.6910 N   0  0  0  0  0  0  0  0  0  0  0  0
   60.6060   32.5950   48.4460 C   0  0  0  0  0  0  0  0  0  0  0  0
   61.5264   32.3018   48.9721 H   0  0  0  0  0  0  0  0  0  0  0  0
   59.7790   32.8074   49.1395 H   0  0  0  0  0  0  0  0  0  0  0  0
   60.1710   31.4520   47.5770 C   0  0  0  0  0  0  0  0  0  0  0  0
   58.8880   31.0000   47.5470 N   0  0  0  0  0  0  0  0  0  0  0  0
   58.9600   29.9840   46.6750 C   0  0  0  0  0  0  0  0  0  0  0  0
   57.9300   29.1430   46.2630 C   0  0  0  0  0  0  0  0  0  0  0  0
   56.9070   29.2701   46.6469 H   0  0  0  0  0  0  0  0  0  0  0  0
   58.2390   28.1180   45.3340 C   0  0  0  0  0  0  0  0  0  0  0  0
   57.2400   27.1960   44.8630 N   0  0  0  0  0  0  0  0  0  0  0  0
   56.8850   27.2900   43.8860 H   0  0  0  0  0  0  0  0  0  0  0  0
   56.6640   25.8330   45.7780 S   0  0  0  0  0  0  0  0  0  0  0  0
   57.4100   25.7580   47.0820 O   0  0  0  0  0  0  0  0  0  0  0  0
   55.1990   26.0130   46.0680 O   0  0  0  0  0  0  0  0  0  0  0  0
   56.9400   24.3410   44.8790 C   0  0  0  0  0  0  0  0  0  0  0  0
   56.0640   23.9670   43.8480 C   0  0  0  0  0  0  0  0  0  0  0  0
   55.2110   24.6123   43.5911 H   0  0  0  0  0  0  0  0  0  0  0  0
   56.2740   22.7740   43.1460 C   0  0  0  0  0  0  0  0  0  0  0  0
   55.5869   22.4826   42.3379 H   0  0  0  0  0  0  0  0  0  0  0  0
   57.3580   21.9530   43.4730 C   0  0  0  0  0  0  0  0  0  0  0  0
   57.5233   21.0168   42.9197 H   0  0  0  0  0  0  0  0  0  0  0  0
   58.2330   22.3190   44.5020 C   0  0  0  0  0  0  0  0  0  0  0  0
   59.0835   21.6704   44.7588 H   0  0  0  0  0  0  0  0  0  0  0  0
   58.0240   23.5120   45.2040 C   0  0  0  0  0  0  0  0  0  0  0  0
   58.7117   23.8002   46.0127 H   0  0  0  0  0  0  0  0  0  0  0  0
   59.5690   28.0000   44.8490 C   0  0  0  0  0  0  0  0  0  0  0  0
   59.8112   27.2149   44.1176 H   0  0  0  0  0  0  0  0  0  0  0  0
   60.5810   28.8720   45.2900 C   0  0  0  0  0  0  0  0  0  0  0  0
   61.6123   28.7819   44.9180 H   0  0  0  0  0  0  0  0  0  0  0  0
   60.2320   29.8510   46.2120 C   0  0  0  0  0  0  0  0  0  0  0  0
   61.0290   30.7740   46.7680 N   0  0  0  0  0  0  0  0  0  0  0  0
   62.0730   33.7900   46.8170 C   0  0  0  0  0  0  0  0  0  0  0  0
   62.3252   34.8181   46.5179 H   0  0  0  0  0  0  0  0  0  0  0  0
   61.8099   33.1452   45.9656 H   0  0  0  0  0  0  0  0  0  0  0  0
   63.3140   33.1630   47.4710 C   0  0  0  0  0  0  0  0  0  0  0  0
   63.2161   33.2124   48.5655 H   0  0  0  0  0  0  0  0  0  0  0  0
   63.4021   32.1122   47.1578 H   0  0  0  0  0  0  0  0  0  0  0  0
   64.2122   33.7155   47.1578 H   0  0  0  0  0  0  0  0  0  0  0  0
   57.9290   33.0430   44.5290 N   0  0  0  0  0  0  0  0  0  0  0  0
   57.0140   32.3350   45.2330 C   0  0  0  0  0  0  0  0  0  0  0  0
   56.6294   32.6401   46.2174 H   0  0  0  0  0  0  0  0  0  0  0  0
   56.6270   31.2120   44.5900 N   0  0  0  0  0  0  0  0  0  0  0  0
   57.3310   31.2240   43.4410 C   0  0  0  0  0  0  0  0  0  0  0  0
   57.2750   30.4557   42.6557 H   0  0  0  0  0  0  0  0  0  0  0  0
   58.1320   32.3450   43.3990 C   0  0  0  0  0  0  0  0  0  0  0  0
   58.8171   32.6199   42.5835 H   0  0  0  0  0  0  0  0  0  0  0  0
  1  2  1  0
  2  3  2  0
  3  4  1  0
  3  5  1  0
  5  6  1  0
  5  7  1  0
  5  8  1  0
  8  9  1  0
  9 10  1  0
  9 11  1  0
  9 12  1  0
 12 13  2  0
 13 14  1  0
 14 15  2  0
 15 16  1  0
 15 17  1  0
 17 18  1  0
 18 19  1  0
 18 20  1  0
 20 21  2  0
 20 22  2  0
 20 23  1  0
 23 24  2  0
 24 25  1  0
 24 26  1  0
 26 27  1  0
 26 28  2  0
 28 29  1  0
 28 30  1  0
 30 31  1  0
 30 32  2  0
 32 33  1  0
 17 34  2  0
 34 35  1  0
 34 36  1  0
 36 37  1  0
 36 38  2  0
 38 39  1  0
  8 40  1  0
 40 41  1  0
 40 42  1  0
 40 43  1  0
 43 44  1  0
 43 45  1  0
 43 46  1  0
  2 47  1  0
 47 48  1  0
 48 49  1  0
 48 50  2  0
 50 51  1  0
 51 52  1  0
 51 53  2  0
 53 54  1  0
 39 12  1  0
 53 47  1  0
 38 14  1  0
 32 23  1  0
M  CHG  1  39  -1
M  END
>  <UniqueID>  (59) 
56

>  <SMILES>  (59) 
CCN(C/C=C/n1ccnc1)Cc1nc2cc(NS(=O)(=O)c3ccccc3)ccc2[n-]1

>  <Energy>  (59) 
128.3412156171713

>  <Genealogy>  (59) 
CCN(CC=Cn1ccnc1)Cc1nc2cc(NS(=O)(=O)c3ccccc3)ccc2[n-]1 (protonated)
CCN(C/C=C/n1ccnc1)Cc1nc2cc(NS(=O)(=O)c3ccccc3)ccc2[n-]1 (cis-trans isomerization)
CCN(C/C=C/n1ccnc1)Cc1nc2cc(NS(=O)(=O)c3ccccc3)ccc2[n-]1 (3D coordinates assigned)
CCN(C/C=C/n1ccnc1)Cc1nc2cc(NS(=O)(=O)c3ccccc3)ccc2[n-]1 (optimized conformer: 128.3412156171713 kcal/mol)

>  <smiles>  (59) 
CCN(CC=Cn1ccnc1)Cc1nc2cc(NS(=O)(=O)c3ccccc3)ccc2[nH]1

>  <score_type>  (59) 
oracle

>  <origin>  (59) 
adg

>  <m_score__min__energy>  (59) 
-10.779999999999999

>  <m_primary>  (59) 
energy

$$$$
59:0
     RDKit          3D

 24 25  0  0  0  0  0  0  0  0999 V2000
   54.0520   25.2180   45.6250 C   0  0  0  0  0  0  0  0  0  0  0  0
   54.8950   26.3560   45.9640 N   0  0  0  0  0  0  0  0  0  0  0  0
   56.2960   26.4330   45.6760 C   0  0  0  0  0  0  0  0  0  0  0  0
   56.9050   25.3910   45.3190 O   0  0  0  0  0  0  0  0  0  0  0  0
   57.0350   27.7070   45.7540 C   0  0  0  0  0  0  0  0  0  0  0  0
   58.3150   27.7260   46.3080 C   0  0  0  0  0  0  0  0  0  0  0  0
   59.0270   28.9310   46.3830 C   0  0  0  0  0  0  0  0  0  0  0  0
   60.3200   28.9330   46.9290 C   0  0  0  0  0  0  0  0  0  0  0  0
   61.0350   30.1260   47.0020 C   0  0  0  0  0  0  0  0  0  0  0  0
   60.4610   31.3030   46.5340 C   0  0  0  0  0  0  0  0  0  0  0  0
   59.1740   31.2770   45.9960 C   0  0  0  0  0  0  0  0  0  0  0  0
   58.4630   30.1050   45.9210 N   0  0  0  0  0  0  0  0  0  0  0  0
   57.1910   30.0970   45.3940 C   0  0  0  0  0  0  0  0  0  0  0  0
   56.6580   31.1650   44.9790 O   0  0  0  0  0  0  0  0  0  0  0  0
   56.4620   28.9040   45.3130 C   0  0  0  0  0  0  0  0  0  0  0  0
   55.1620   28.9210   44.8120 O   0  0  0  0  0  0  0  0  0  0  0  0
   53.6960   24.7375   46.5482 H   0  0  0  0  0  0  0  0  0  0  0  0
   53.1899   25.5631   45.0353 H   0  0  0  0  0  0  0  0  0  0  0  0
   54.6333   24.4938   45.0353 H   0  0  0  0  0  0  0  0  0  0  0  0
   58.7652   26.7961   46.6857 H   0  0  0  0  0  0  0  0  0  0  0  0
   60.7662   27.9974   47.2973 H   0  0  0  0  0  0  0  0  0  0  0  0
   62.0491   30.1372   47.4279 H   0  0  0  0  0  0  0  0  0  0  0  0
   61.0188   32.2496   46.5877 H   0  0  0  0  0  0  0  0  0  0  0  0
   58.7223   32.2094   45.6264 H   0  0  0  0  0  0  0  0  0  0  0  0
  1  2  1  0
  2  3  1  0
  3  4  2  0
  3  5  1  0
  5  6  1  0
  6  7  2  0
  7  8  1  0
  8  9  2  0
  9 10  1  0
 10 11  2  0
 11 12  1  0
 12 13  1  0
 13 14  2  0
 13 15  1  0
 15 16  1  0
 15  5  2  0
 12  7  1  0
  1 17  1  0
  1 18  1  0
  1 19  1  0
  6 20  1  0
  8 21  1  0
  9 22  1  0
 10 23  1  0
 11 24  1  0
M  CHG  2   2  -1  16  -1
M  END
>  <UniqueID>  (60) 
57

>  <SMILES>  (60) 
C[N-]C(=O)c1cc2ccccn2c(=O)c1[O-]

>  <Energy>  (60) 
36.0565826205773

>  <Genealogy>  (60) 
C[N-]C(=O)c1cc2ccccn2c(=O)c1[O-] (protonated)
C[N-]C(=O)c1cc2ccccn2c(=O)c1[O-] (3D coordinates assigned)
C[N-]C(=O)c1cc2ccccn2c(=O)c1[O-] (optimized conformer: 36.0565826205773 kcal/mol)

>  <smiles>  (60) 
CNC(=O)c1cc2ccccn2c(=O)c1O

>  <score_type>  (60) 
oracle

>  <origin>  (60) 
adg

>  <m_score__min__energy>  (60) 
-11.449999999999999

>  <m_primary>  (60) 
energy

$$$$
60:0
     RDKit          3D

 48 51  0  0  0  0  0  0  0  0999 V2000
   56.5830   21.1340   47.7090 C   0  0  0  0  0  0  0  0  0  0  0  0
   57.3220   21.9300   46.7900 O   0  0  0  0  0  0  0  0  0  0  0  0
   57.0810   21.9830   45.4070 C   0  0  0  0  0  0  0  0  0  0  0  0
   57.7170   21.1050   44.5080 C   0  0  0  0  0  0  0  0  0  0  0  0
   57.4590   21.1860   43.1370 C   0  0  0  0  0  0  0  0  0  0  0  0
   56.5660   22.1400   42.6490 C   0  0  0  0  0  0  0  0  0  0  0  0
   55.9280   23.0160   43.5280 C   0  0  0  0  0  0  0  0  0  0  0  0
   56.1750   22.9450   44.9090 C   0  0  0  0  0  0  0  0  0  0  0  0
   55.4920   23.9100   45.8440 C   0  0  0  0  0  0  0  0  0  0  0  0
   55.9750   25.2700   45.6120 N   0  0  0  0  0  0  0  0  0  0  0  0
   57.3460   25.6460   45.8280 C   0  0  0  0  0  0  0  0  0  0  0  0
   58.1540   24.8040   46.3080 O   0  0  0  0  0  0  0  0  0  0  0  0
   57.8250   27.0140   45.5190 C   0  0  0  0  0  0  0  0  0  0  0  0
   59.2160   27.2950   45.4000 C   0  0  0  0  0  0  0  0  0  0  0  0
   59.6650   28.5960   45.1110 C   0  0  0  0  0  0  0  0  0  0  0  0
   58.7060   29.5890   44.9530 C   0  0  0  0  0  0  0  0  0  0  0  0
   58.8730   30.8560   44.6890 O   0  0  0  0  0  0  0  0  0  0  0  0
   57.6560   31.3720   44.6420 C   0  0  0  0  0  0  0  0  0  0  0  0
   57.3890   32.8210   44.3940 C   0  0  0  0  0  0  0  0  0  0  0  0
   58.1930   33.6590   45.3470 C   0  0  0  0  0  0  0  0  0  0  0  0
   58.1660   33.3900   46.7260 C   0  0  0  0  0  0  0  0  0  0  0  0
   58.8850   34.1930   47.6160 C   0  0  0  0  0  0  0  0  0  0  0  0
   59.6290   35.2760   47.1370 C   0  0  0  0  0  0  0  0  0  0  0  0
   59.6500   35.5600   45.7680 C   0  0  0  0  0  0  0  0  0  0  0  0
   58.9310   34.7580   44.8750 C   0  0  0  0  0  0  0  0  0  0  0  0
   56.6700   30.4650   44.8810 N   0  0  0  0  0  0  0  0  0  0  0  0
   57.3750   29.3370   45.0720 C   0  0  0  0  0  0  0  0  0  0  0  0
   56.8890   28.0650   45.3590 C   0  0  0  0  0  0  0  0  0  0  0  0
   56.8483   21.4198   48.7376 H   0  0  0  0  0  0  0  0  0  0  0  0
   55.5065   21.2945   47.5500 H   0  0  0  0  0  0  0  0  0  0  0  0
   56.8229   20.0723   47.5500 H   0  0  0  0  0  0  0  0  0  0  0  0
   58.4216   20.3504   44.8876 H   0  0  0  0  0  0  0  0  0  0  0  0
   57.9607   20.4967   42.4419 H   0  0  0  0  0  0  0  0  0  0  0  0
   56.3644   22.2019   41.5694 H   0  0  0  0  0  0  0  0  0  0  0  0
   55.2266   23.7676   43.1367 H   0  0  0  0  0  0  0  0  0  0  0  0
   54.4063   23.8761   45.6707 H   0  0  0  0  0  0  0  0  0  0  0  0
   55.7174   23.6227   46.8816 H   0  0  0  0  0  0  0  0  0  0  0  0
   55.2730   25.9920   45.3350 H   0  0  0  0  0  0  0  0  0  0  0  0
   59.9478   26.4850   45.5357 H   0  0  0  0  0  0  0  0  0  0  0  0
   60.7376   28.8196   45.0135 H   0  0  0  0  0  0  0  0  0  0  0  0
   57.6704   33.0722   43.3607 H   0  0  0  0  0  0  0  0  0  0  0  0
   56.3188   33.0237   44.5475 H   0  0  0  0  0  0  0  0  0  0  0  0
   57.5761   32.5433   47.1070 H   0  0  0  0  0  0  0  0  0  0  0  0
   58.8656   33.9730   48.6936 H   0  0  0  0  0  0  0  0  0  0  0  0
   60.1980   35.9048   47.8376 H   0  0  0  0  0  0  0  0  0  0  0  0
   60.2322   36.4146   45.3929 H   0  0  0  0  0  0  0  0  0  0  0  0
   58.9434   34.9885   43.7995 H   0  0  0  0  0  0  0  0  0  0  0  0
   55.8091   27.8810   45.4587 H   0  0  0  0  0  0  0  0  0  0  0  0
  1  2  1  0
  2  3  1  0
  3  4  2  0
  4  5  1  0
  5  6  2  0
  6  7  1  0
  7  8  2  0
  8  9  1  0
  9 10  1  0
 10 11  1  0
 11 12  2  0
 11 13  1  0
 13 14  2  0
 14 15  1  0
 15 16  2  0
 16 17  1  0
 17 18  1  0
 18 19  1  0
 19 20  1  0
 20 21  2  0
 21 22  1  0
 22 23  2  0
 23 24  1  0
 24 25  2  0
 18 26  2  0
 26 27  1  0
 27 28  2  0
  8  3  1  0
 28 13  1  0
 27 16  1  0
 25 20  1  0
  1 29  1  0
  1 30  1  0
  1 31  1  0
  4 32  1  0
  5 33  1  0
  6 34  1  0
  7 35  1  0
  9 36  1  0
  9 37  1  0
 10 38  1  0
 14 39  1  0
 15 40  1  0
 19 41  1  0
 19 42  1  0
 21 43  1  0
 22 44  1  0
 23 45  1  0
 24 46  1  0
 25 47  1  0
 28 48  1  0
M  END
>  <UniqueID>  (61) 
58

>  <SMILES>  (61) 
COc1ccccc1CNC(=O)c1ccc2oc(Cc3ccccc3)nc2c1

>  <Energy>  (61) 
87.6299872411581

>  <Genealogy>  (61) 
COc1ccccc1CNC(=O)c1ccc2oc(Cc3ccccc3)nc2c1 (3D coordinates assigned)
COc1ccccc1CNC(=O)c1ccc2oc(Cc3ccccc3)nc2c1 (optimized conformer: 87.6299872411581 kcal/mol)

>  <smiles>  (61) 
COc1ccccc1CNC(=O)c1ccc2oc(Cc3ccccc3)nc2c1

>  <score_type>  (61) 
oracle

>  <origin>  (61) 
adg

>  <m_score__min__energy>  (61) 
-8.5899999999999999

>  <m_primary>  (61) 
energy

$$$$
61:0
     RDKit          3D

 22 22  0  0  0  0  0  0  0  0999 V2000
   51.3740   30.6710   47.9990 H   0  0  0  0  0  0  0  0  0  0  0  0
   51.5690   30.0990   48.8100 O   0  0  0  0  0  0  0  0  0  0  0  0
   51.6880   30.6430   50.0890 C   0  0  0  0  0  0  0  0  0  0  0  0
   52.2650   29.8750   51.1060 C   0  0  0  0  0  0  0  0  0  0  0  0
   52.6068   28.8521   50.8894 H   0  0  0  0  0  0  0  0  0  0  0  0
   52.4120   30.3990   52.4030 C   0  0  0  0  0  0  0  0  0  0  0  0
   53.0020   29.5570   53.5080 C   0  0  0  0  0  0  0  0  0  0  0  0
   52.2011   28.9537   53.9604 H   0  0  0  0  0  0  0  0  0  0  0  0
   53.4557   30.2356   54.2453 H   0  0  0  0  0  0  0  0  0  0  0  0
   54.0800   28.6330   53.0030 C   0  0  0  0  0  0  0  0  0  0  0  0
   53.7676   27.6269   52.6864 H   0  0  0  0  0  0  0  0  0  0  0  0
   55.3870   28.9250   52.9040 C   0  0  0  0  0  0  0  0  0  0  0  0
   56.0925   28.1876   53.3145 H   0  0  0  0  0  0  0  0  0  0  0  0
   55.9700   30.1390   52.2980 C   0  0  0  0  0  0  0  0  0  0  0  0
   57.0480   30.0420   51.6550 O   0  0  0  0  0  0  0  0  0  0  0  0
   55.3880   31.3900   52.4460 O   0  0  0  0  0  0  0  0  0  0  0  0
   51.9340   31.6920   52.6760 C   0  0  0  0  0  0  0  0  0  0  0  0
   52.0129   32.1008   53.6941 H   0  0  0  0  0  0  0  0  0  0  0  0
   51.3590   32.4610   51.6610 C   0  0  0  0  0  0  0  0  0  0  0  0
   51.0008   33.4776   51.8803 H   0  0  0  0  0  0  0  0  0  0  0  0
   51.2370   31.9440   50.3680 C   0  0  0  0  0  0  0  0  0  0  0  0
   50.6650   32.7230   49.3700 O   0  0  0  0  0  0  0  0  0  0  0  0
  1  2  1  0
  2  3  1  0
  3  4  2  0
  4  5  1  0
  4  6  1  0
  6  7  1  0
  7  8  1  0
  7  9  1  0
  7 10  1  0
 10 11  1  0
 10 12  2  0
 12 13  1  0
 12 14  1  0
 14 15  2  0
 14 16  1  0
  6 17  2  0
 17 18  1  0
 17 19  1  0
 19 20  1  0
 19 21  2  0
 21 22  1  0
 21  3  1  0
M  CHG  2  16  -1  22  -1
M  END
>  <UniqueID>  (62) 
59

>  <SMILES>  (62) 
O=C([O-])/C=C\Cc1ccc([O-])c(O)c1

>  <Energy>  (62) 
21.81117603185009

>  <Genealogy>  (62) 
O=C([O-])C=CCc1ccc([O-])c(O)c1 (protonated)
O=C([O-])/C=C\Cc1ccc([O-])c(O)c1 (cis-trans isomerization)
O=C([O-])/C=C\Cc1ccc([O-])c(O)c1 (3D coordinates assigned)
O=C([O-])/C=C\Cc1ccc([O-])c(O)c1 (optimized conformer: 21.81117603185009 kcal/mol)

>  <smiles>  (62) 
O=C(O)C=CCc1ccc(O)c(O)c1

>  <score_type>  (62) 
oracle

>  <origin>  (62) 
adg

>  <m_score__min__energy>  (62) 
-11.08

>  <m_primary>  (62) 
energy

$$$$
62:0
     RDKit          3D

 55 58  0  0  1  0  0  0  0  0999 V2000
   68.3810   34.5240   50.8490 C   0  0  0  0  0  0  0  0  0  0  0  0
   67.8460   33.3720   50.4850 C   0  0  0  0  0  0  0  0  0  0  0  0
   66.4250   33.0910   50.6040 C   0  0  0  0  0  0  0  0  0  0  0  0
   65.8130   33.1200   51.7260 O   0  0  0  0  0  0  0  0  0  0  0  0
   65.6040   32.7620   49.4810 N   0  0  0  0  0  0  0  0  0  0  0  0
   64.2300   32.5140   49.7520 C   0  0  0  0  0  0  0  0  0  0  0  0
   63.9260   31.3150   50.3650 C   0  0  0  0  0  0  0  0  0  0  0  0
   62.6100   31.0090   50.6570 C   0  0  0  0  0  0  0  0  0  0  0  0
   61.6050   31.9020   50.3360 C   0  0  0  0  0  0  0  0  0  0  0  0
   60.2710   31.6260   50.6160 O   0  0  0  0  0  0  0  0  0  0  0  0
   59.5350   32.2190   51.6460 C   0  0  0  0  0  0  0  0  0  0  0  0
   61.9200   33.1160   49.7150 C   0  0  0  0  0  0  0  0  0  0  0  0
   60.8540   34.0050   49.4030 N   0  0  0  0  0  0  0  0  0  0  0  0
   60.1100   33.7010   48.3930 C   0  0  0  0  0  0  0  0  0  0  0  0
   59.4800   32.5190   48.2640 N   0  0  0  0  0  0  0  0  0  0  0  0
   58.7040   32.2290   47.1900 C   0  0  0  0  0  0  0  0  0  0  0  0
   58.1480   31.1180   47.1290 N   0  0  0  0  0  0  0  0  0  0  0  0
   58.4720   30.0470   46.2950 C   0  0  0  0  0  0  0  0  0  0  0  0
   57.7580   29.9430   45.0900 C   0  0  0  0  0  0  0  0  0  0  0  0
   58.0850   28.9180   44.2020 C   0  0  0  0  0  0  0  0  0  0  0  0
   59.1020   28.0140   44.5030 C   0  0  0  0  0  0  0  0  0  0  0  0
   59.8010   28.1190   45.6870 C   0  0  0  0  0  0  0  0  0  0  0  0
   59.4940   29.1320   46.5920 C   0  0  0  0  0  0  0  0  0  0  0  0
   60.3700   29.2850   48.0980 S   0  0  0  0  0  0  0  0  0  0  0  0
   59.2010   29.7320   49.3010 N   0  0  0  0  0  0  0  0  0  0  0  0
   61.0800   28.0290   48.4930 O   0  0  0  0  0  0  0  0  0  0  0  0
   61.3310   30.4500   48.0060 O   0  0  0  0  0  0  0  0  0  0  0  0
   58.5600   33.1590   46.2150 C   0  0  0  0  0  0  0  0  0  0  0  0
   57.8730   33.1940   45.0370 C   0  0  0  0  0  0  0  0  0  0  0  0
   58.1420   34.4510   44.4980 C   0  0  0  0  0  0  0  0  0  0  0  0
   58.9530   35.1460   45.3100 N   0  0  0  0  0  0  0  0  0  0  0  0
   59.2140   34.3640   46.3640 C   0  0  0  0  0  0  0  0  0  0  0  0
   59.9880   34.6490   47.4380 N   0  0  0  0  0  0  0  0  0  0  0  0
   63.2410   33.4420   49.4130 C   0  0  0  0  0  0  0  0  0  0  0  0
   69.4632   34.6872   50.7385 H   0  0  0  0  0  0  0  0  0  0  0  0
   67.7442   35.3199   51.2625 H   0  0  0  0  0  0  0  0  0  0  0  0
   68.5043   32.5922   50.0743 H   0  0  0  0  0  0  0  0  0  0  0  0
   66.0140   32.7150   48.5270 H   0  0  0  0  0  0  0  0  0  0  0  0
   64.7276   30.6062   50.6200 H   0  0  0  0  0  0  0  0  0  0  0  0
   62.3625   30.0547   51.1449 H   0  0  0  0  0  0  0  0  0  0  0  0
   59.9370   31.8951   52.6173 H   0  0  0  0  0  0  0  0  0  0  0  0
   59.6079   33.3136   51.5656 H   0  0  0  0  0  0  0  0  0  0  0  0
   58.4809   31.9149   51.5656 H   0  0  0  0  0  0  0  0  0  0  0  0
   59.5890   31.8050   49.0110 H   0  0  0  0  0  0  0  0  0  0  0  0
   56.9558   30.6566   44.8509 H   0  0  0  0  0  0  0  0  0  0  0  0
   57.5345   28.8223   43.2545 H   0  0  0  0  0  0  0  0  0  0  0  0
   59.3486   27.2119   43.7918 H   0  0  0  0  0  0  0  0  0  0  0  0
   60.6024   27.4015   45.9170 H   0  0  0  0  0  0  0  0  0  0  0  0
   58.8060   30.6740   49.1580 H   0  0  0  0  0  0  0  0  0  0  0  0
   59.6030   29.5840   50.2420 H   0  0  0  0  0  0  0  0  0  0  0  0
   57.2432   32.4019   44.6059 H   0  0  0  0  0  0  0  0  0  0  0  0
   57.7451   34.8212   43.5412 H   0  0  0  0  0  0  0  0  0  0  0  0
   59.3130   36.1300   45.1400 H   0  0  0  0  0  0  0  0  0  0  0  0
   60.4830   35.5750   47.5410 H   0  0  0  0  0  0  0  0  0  0  0  0
   63.4960   34.3946   48.9257 H   0  0  0  0  0  0  0  0  0  0  0  0
  1  2  2  0
  2  3  1  0
  3  4  2  0
  3  5  1  0
  5  6  1  0
  6  7  2  0
  7  8  1  0
  8  9  2  0
  9 10  1  0
 10 11  1  0
  9 12  1  0
 12 13  1  0
 13 14  2  0
 14 15  1  0
 15 16  1  0
 16 17  2  0
 17 18  1  0
 18 19  2  0
 19 20  1  0
 20 21  2  0
 21 22  1  0
 22 23  2  0
 23 24  1  0
 24 25  1  0
 24 26  2  0
 24 27  2  0
 16 28  1  0
 28 29  1  0
 29 30  2  0
 30 31  1  0
 31 32  1  0
 32 33  1  0
 12 34  2  0
 34  6  1  0
 33 14  1  0
 23 18  1  0
 32 28  2  0
  1 35  1  0
  1 36  1  0
  2 37  1  0
  5 38  1  0
  7 39  1  0
  8 40  1  0
 11 41  1  0
 11 42  1  0
 11 43  1  0
 15 44  1  0
 19 45  1  0
 20 46  1  0
 21 47  1  0
 22 48  1  0
 25 49  1  0
 25 50  1  0
 29 51  1  0
 30 52  1  0
 31 53  1  0
 33 54  1  0
 34 55  1  0
M  END
>  <smiles>  (63) 
C=CC(=O)Nc1ccc(OC)c(N=c2[nH]c(=Nc3ccccc3S(N)(=O)=O)c3cc[nH]c3[nH]2)c1

>  <score_type>  (63) 
oracle

>  <origin>  (63) 
adg

>  <m_score__min__energy>  (63) 
-9.8900000000000006

>  <m_primary>  (63) 
energy

$$$$
63:0
     RDKit          3D

 60 63  0  0  1  0  0  0  0  0999 V2000
   64.2140   33.5000   47.4270 N   0  0  0  0  0  0  0  0  0  0  0  0
   63.0580   33.1010   47.8940 C   0  0  0  0  0  0  0  0  0  0  0  0
   63.0240   32.2950   48.9730 N   0  0  0  0  0  0  0  0  0  0  0  0
   61.8080   31.9150   49.4090 C   0  0  0  0  0  0  0  0  0  0  0  0
   61.6200   31.0850   50.5090 O   0  0  0  0  0  0  0  0  0  0  0  0
   61.2740   29.7530   50.3300 C   0  0  0  0  0  0  0  0  0  0  0  0
   61.8200   28.8430   51.2300 C   0  0  0  0  0  0  0  0  0  0  0  0
   61.5330   27.4950   51.1310 C   0  0  0  0  0  0  0  0  0  0  0  0
   60.6980   27.0880   50.1240 C   0  0  0  0  0  0  0  0  0  0  0  0
   60.1470   27.9920   49.2180 C   0  0  0  0  0  0  0  0  0  0  0  0
   59.2740   27.4790   48.1840 N   0  0  0  0  0  0  0  0  0  0  0  0
   59.8500   26.7660   47.1530 C   0  0  0  0  0  0  0  0  0  0  0  0
   61.1490   26.6870   47.2690 O   0  0  0  0  0  0  0  0  0  0  0  0
   59.3500   26.0980   46.0050 C   0  0  0  0  0  0  0  0  0  0  0  0
   58.1760   25.8450   45.5570 C   0  0  0  0  0  0  0  0  0  0  0  0
   57.6260   24.6530   44.9940 C   0  0  0  0  0  0  0  0  0  0  0  0
   56.8060   24.4880   43.9260 C   0  0  0  0  0  0  0  0  0  0  0  0
   56.4320   23.3020   43.3530 C   0  0  0  0  0  0  0  0  0  0  0  0
   56.9270   22.1390   43.9030 C   0  0  0  0  0  0  0  0  0  0  0  0
   56.5940   20.9050   43.3770 O   0  0  0  0  0  0  0  0  0  0  0  0
   57.7600   22.2700   44.9880 C   0  0  0  0  0  0  0  0  0  0  0  0
   58.2740   21.0900   45.5620 O   0  0  0  0  0  0  0  0  0  0  0  0
   58.1280   23.4590   45.5540 C   0  0  0  0  0  0  0  0  0  0  0  0
   60.4340   29.3370   49.3180 C   0  0  0  0  0  0  0  0  0  0  0  0
   60.6360   32.3380   48.7730 C   0  0  0  0  0  0  0  0  0  0  0  0
   60.7410   33.1560   47.6840 C   0  0  0  0  0  0  0  0  0  0  0  0
   59.6400   33.5410   47.1020 N   0  0  0  0  0  0  0  0  0  0  0  0
   58.8850   32.5900   46.3250 C   0  0  0  0  0  0  0  0  0  0  0  0
   58.0370   32.9960   45.3170 C   0  0  0  0  0  0  0  0  0  0  0  0
   57.3170   32.0720   44.5750 C   0  0  0  0  0  0  0  0  0  0  0  0
   57.4670   30.7260   44.8690 C   0  0  0  0  0  0  0  0  0  0  0  0
   56.5620   29.5250   43.9420 S   0  0  0  0  0  0  0  0  0  0  0  0
   56.3970   30.0750   42.3100 N   0  0  0  0  0  0  0  0  0  0  0  0
   57.2480   28.1990   43.9600 O   0  0  0  0  0  0  0  0  0  0  0  0
   55.2060   29.3860   44.5310 O   0  0  0  0  0  0  0  0  0  0  0  0
   58.3080   30.2930   45.8720 C   0  0  0  0  0  0  0  0  0  0  0  0
   59.0270   31.2330   46.6100 C   0  0  0  0  0  0  0  0  0  0  0  0
   61.9580   33.5290   47.2540 N   0  0  0  0  0  0  0  0  0  0  0  0
   64.8920   32.8740   46.9660 H   0  0  0  0  0  0  0  0  0  0  0  0
   63.8790   31.9610   49.4710 H   0  0  0  0  0  0  0  0  0  0  0  0
   62.4869   29.2004   52.0284 H   0  0  0  0  0  0  0  0  0  0  0  0
   61.9619   26.7707   51.8392 H   0  0  0  0  0  0  0  0  0  0  0  0
   60.4561   26.0192   50.0281 H   0  0  0  0  0  0  0  0  0  0  0  0
   58.3010   27.7110   48.2570 H   0  0  0  0  0  0  0  0  0  0  0  0
   60.1481   25.7110   45.3544 H   0  0  0  0  0  0  0  0  0  0  0  0
   57.4729   26.6889   45.6161 H   0  0  0  0  0  0  0  0  0  0  0  0
   56.3986   25.4036   43.4725 H   0  0  0  0  0  0  0  0  0  0  0  0
   55.7592   23.2781   42.4831 H   0  0  0  0  0  0  0  0  0  0  0  0
   57.0410   20.0360   43.6230 H   0  0  0  0  0  0  0  0  0  0  0  0
   58.1890   20.2670   44.9650 H   0  0  0  0  0  0  0  0  0  0  0  0
   58.7993   23.4842   46.4250 H   0  0  0  0  0  0  0  0  0  0  0  0
   60.0041   30.0597   48.6089 H   0  0  0  0  0  0  0  0  0  0  0  0
   59.6503   32.0185   49.1422 H   0  0  0  0  0  0  0  0  0  0  0  0
   57.9299   34.0686   45.0980 H   0  0  0  0  0  0  0  0  0  0  0  0
   56.6418   32.4000   43.7709 H   0  0  0  0  0  0  0  0  0  0  0  0
   57.3490   30.0570   41.8870 H   0  0  0  0  0  0  0  0  0  0  0  0
   55.7390   29.4550   41.7810 H   0  0  0  0  0  0  0  0  0  0  0  0
   58.4107   29.2192   46.0876 H   0  0  0  0  0  0  0  0  0  0  0  0
   59.7031   30.9050   47.4133 H   0  0  0  0  0  0  0  0  0  0  0  0
   61.9800   34.1570   46.4150 H   0  0  0  0  0  0  0  0  0  0  0  0
  1  2  2  3
  2  3  1  0
  3  4  1  0
  4  5  1  0
  5  6  1  0
  6  7  2  0
  7  8  1  0
  8  9  2  0
  9 10  1  0
 10 11  1  0
 11 12  1  0
 12 13  2  0
 12 14  1  0
 14 15  2  0
 15 16  1  0
 16 17  2  0
 17 18  1  0
 18 19  2  0
 19 20  1  0
 19 21  1  0
 21 22  1  0
 21 23  2  0
 10 24  2  0
  4 25  2  0
 25 26  1  0
 26 27  2  0
 27 28  1  0
 28 29  2  0
 29 30  1  0
 30 31  2  0
 31 32  1  0
 32 33  1  0
 32 34  2  0
 32 35  2  0
 31 36  1  0
 36 37  2  0
 26 38  1  0
 38  2  1  0
 24  6  1  0
 37 28  1  0
 23 16  1  0
  1 39  1  0
  3 40  1  0
  7 41  1  0
  8 42  1  0
  9 43  1  0
 11 44  1  0
 14 45  1  0
 15 46  1  0
 17 47  1  0
 18 48  1  0
 20 49  1  0
 22 50  1  0
 23 51  1  0
 24 52  1  0
 25 53  1  0
 29 54  1  0
 30 55  1  0
 33 56  1  0
 33 57  1  0
 36 58  1  0
 37 59  1  0
 38 60  1  0
M  END
>  <smiles>  (64) 
N=c1[nH]c(Oc2cccc(NC(=O)C=Cc3ccc(O)c(O)c3)c2)cc(=Nc2ccc(S(N)(=O)=O)cc2)[nH]1

>  <score_type>  (64) 
oracle

>  <origin>  (64) 
adg

>  <m_score__min__energy>  (64) 
-10.5

>  <m_primary>  (64) 
energy

$$$$
64:0
     RDKit          3D

 58 61  0  0  0  0  0  0  0  0999 V2000
   65.3880   33.0320   49.7590 C   0  0  0  0  0  0  0  0  0  0  0  0
   63.9650   33.0380   49.2880 C   0  0  0  0  0  0  0  0  0  0  0  0
   62.9990   33.8150   49.9460 C   0  0  0  0  0  0  0  0  0  0  0  0
   61.6810   33.8440   49.4810 C   0  0  0  0  0  0  0  0  0  0  0  0
   61.3140   33.1160   48.3380 C   0  0  0  0  0  0  0  0  0  0  0  0
   59.9220   33.1190   47.8400 C   0  0  0  0  0  0  0  0  0  0  0  0
   58.8960   32.5940   48.5390 N   0  0  0  0  0  0  0  0  0  0  0  0
   57.8020   32.7510   47.8080 N   0  0  0  0  0  0  0  0  0  0  0  0
   58.1790   33.3590   46.6680 C   0  0  0  0  0  0  0  0  0  0  0  0
   57.0330   33.7640   45.3450 S   0  0  0  0  0  0  0  0  0  0  0  0
   57.6770   32.5010   44.1920 C   0  0  0  0  0  0  0  0  0  0  0  0
   57.2180   31.1250   44.5850 C   0  0  0  0  0  0  0  0  0  0  0  0
   55.9910   30.8470   44.4860 O   0  0  0  0  0  0  0  0  0  0  0  0
   58.1480   30.1140   45.0200 N   0  0  0  0  0  0  0  0  0  0  0  0
   57.8050   28.6930   44.8580 C   0  0  0  0  0  0  0  0  0  0  0  0
   59.0630   27.8920   44.5190 C   0  0  0  0  0  0  0  0  0  0  0  0
   60.1770   28.0430   45.5920 C   0  0  0  0  0  0  0  0  0  0  0  0
   60.2600   26.7760   46.4730 C   0  0  0  0  0  0  0  0  0  0  0  0
   59.0190   25.9260   46.3670 C   0  0  0  0  0  0  0  0  0  0  0  0
   59.0340   24.7330   45.6240 C   0  0  0  0  0  0  0  0  0  0  0  0
   57.8730   23.9610   45.5070 C   0  0  0  0  0  0  0  0  0  0  0  0
   56.6910   24.3750   46.1280 C   0  0  0  0  0  0  0  0  0  0  0  0
   56.6670   25.5630   46.8640 C   0  0  0  0  0  0  0  0  0  0  0  0
   57.8240   26.3390   46.9810 C   0  0  0  0  0  0  0  0  0  0  0  0
   59.9990   29.3160   46.4610 C   0  0  0  0  0  0  0  0  0  0  0  0
   59.4170   30.4880   45.6650 C   0  0  0  0  0  0  0  0  0  0  0  0
   59.5050   33.5970   46.6460 N   0  0  0  0  0  0  0  0  0  0  0  0
   60.2830   34.2180   45.5750 C   0  0  0  0  0  0  0  0  0  0  0  0
   62.2820   32.3350   47.6850 C   0  0  0  0  0  0  0  0  0  0  0  0
   63.6000   32.3070   48.1490 C   0  0  0  0  0  0  0  0  0  0  0  0
   65.4102   33.0319   50.8588 H   0  0  0  0  0  0  0  0  0  0  0  0
   65.8952   32.1317   49.3819 H   0  0  0  0  0  0  0  0  0  0  0  0
   65.9028   33.9280   49.3819 H   0  0  0  0  0  0  0  0  0  0  0  0
   63.2803   34.4038   50.8316 H   0  0  0  0  0  0  0  0  0  0  0  0
   60.9265   34.4411   50.0141 H   0  0  0  0  0  0  0  0  0  0  0  0
   57.3161   32.7238   43.1771 H   0  0  0  0  0  0  0  0  0  0  0  0
   58.7762   32.5254   44.2257 H   0  0  0  0  0  0  0  0  0  0  0  0
   57.3714   28.3129   45.7947 H   0  0  0  0  0  0  0  0  0  0  0  0
   57.0754   28.5862   44.0418 H   0  0  0  0  0  0  0  0  0  0  0  0
   58.7925   26.8287   44.4397 H   0  0  0  0  0  0  0  0  0  0  0  0
   59.4601   28.2824   43.5704 H   0  0  0  0  0  0  0  0  0  0  0  0
   61.1290   28.1612   45.0538 H   0  0  0  0  0  0  0  0  0  0  0  0
   61.1268   26.1787   46.1537 H   0  0  0  0  0  0  0  0  0  0  0  0
   60.3598   27.0987   47.5199 H   0  0  0  0  0  0  0  0  0  0  0  0
   59.9619   24.4051   45.1327 H   0  0  0  0  0  0  0  0  0  0  0  0
   57.8903   23.0273   44.9257 H   0  0  0  0  0  0  0  0  0  0  0  0
   55.7796   23.7657   46.0374 H   0  0  0  0  0  0  0  0  0  0  0  0
   55.7362   25.8879   47.3520 H   0  0  0  0  0  0  0  0  0  0  0  0
   57.7990   27.2765   47.5559 H   0  0  0  0  0  0  0  0  0  0  0  0
   59.3201   29.0830   47.2945 H   0  0  0  0  0  0  0  0  0  0  0  0
   60.9929   29.6169   46.8237 H   0  0  0  0  0  0  0  0  0  0  0  0
   59.2378   31.3318   46.3476 H   0  0  0  0  0  0  0  0  0  0  0  0
   60.1366   30.7693   44.8820 H   0  0  0  0  0  0  0  0  0  0  0  0
   61.0718   34.8476   46.0125 H   0  0  0  0  0  0  0  0  0  0  0  0
   60.7415   33.4348   44.9534 H   0  0  0  0  0  0  0  0  0  0  0  0
   59.6210   34.8387   44.9534 H   0  0  0  0  0  0  0  0  0  0  0  0
   62.0007   31.7415   46.8026 H   0  0  0  0  0  0  0  0  0  0  0  0
   64.3546   31.7084   47.6178 H   0  0  0  0  0  0  0  0  0  0  0  0
  1  2  1  0
  2  3  2  0
  3  4  1  0
  4  5  2  0
  5  6  1  0
  6  7  2  0
  7  8  1  0
  8  9  2  0
  9 10  1  0
 10 11  1  0
 11 12  1  0
 12 13  2  0
 12 14  1  0
 14 15  1  0
 15 16  1  0
 16 17  1  0
 17 18  1  0
 18 19  1  0
 19 20  2  0
 20 21  1  0
 21 22  2  0
 22 23  1  0
 23 24  2  0
 17 25  1  0
 25 26  1  0
  9 27  1  0
 27 28  1  0
  5 29  1  0
 29 30  2  0
 30  2  1  0
 27  6  1  0
 26 14  1  0
 24 19  1  0
  1 31  1  0
  1 32  1  0
  1 33  1  0
  3 34  1  0
  4 35  1  0
 11 36  1  0
 11 37  1  0
 15 38  1  0
 15 39  1  0
 16 40  1  0
 16 41  1  0
 17 42  1  0
 18 43  1  0
 18 44  1  0
 20 45  1  0
 21 46  1  0
 22 47  1  0
 23 48  1  0
 24 49  1  0
 25 50  1  0
 25 51  1  0
 26 52  1  0
 26 53  1  0
 28 54  1  0
 28 55  1  0
 28 56  1  0
 29 57  1  0
 30 58  1  0
M  END
>  <UniqueID>  (65) 
60

>  <SMILES>  (65) 
Cc1ccc(-c2nnc(SCC(=O)N3CCC(Cc4ccccc4)CC3)n2C)cc1

>  <Energy>  (65) 
95.69665979407853

>  <Genealogy>  (65) 
Cc1ccc(-c2nnc(SCC(=O)N3CCC(Cc4ccccc4)CC3)n2C)cc1 (3D coordinates assigned)
Cc1ccc(-c2nnc(SCC(=O)N3CCC(Cc4ccccc4)CC3)n2C)cc1 (nonaromatic ring conformer: 95.69665979407853 kcal/mol)

>  <smiles>  (65) 
Cc1ccc(-c2nnc(SCC(=O)N3CCC(Cc4ccccc4)CC3)n2C)cc1

>  <score_type>  (65) 
oracle

>  <origin>  (65) 
adg

>  <m_score__min__energy>  (65) 
-9.9399999999999995

>  <m_primary>  (65) 
energy

$$$$
65:0
     RDKit          3D

 41 42  0  0  0  0  0  0  0  0999 V2000
   64.0600   32.7490   49.2400 C   0  0  0  0  0  0  0  0  0  0  0  0
   62.6210   33.3450   50.1780 S   0  0  0  0  0  0  0  0  0  0  0  0
   61.6680   33.7280   48.7080 C   0  0  0  0  0  0  0  0  0  0  0  0
   60.3630   34.2180   48.8250 C   0  0  0  0  0  0  0  0  0  0  0  0
   59.6200   34.5160   47.6790 C   0  0  0  0  0  0  0  0  0  0  0  0
   60.1800   34.3300   46.4040 C   0  0  0  0  0  0  0  0  0  0  0  0
   59.3980   34.7060   45.1710 C   0  0  0  0  0  0  0  0  0  0  0  0
   58.7770   33.5280   44.5690 N   0  0  0  0  0  0  0  0  0  0  0  0
   57.7730   32.7200   45.1950 C   0  0  0  0  0  0  0  0  0  0  0  0
   56.5960   33.1600   45.2770 O   0  0  0  0  0  0  0  0  0  0  0  0
   58.0870   31.3850   45.7340 C   0  0  0  0  0  0  0  0  0  0  0  0
   59.0730   31.2980   46.6640 N   0  0  0  0  0  0  0  0  0  0  0  0
   59.4720   30.1170   47.1950 C   0  0  0  0  0  0  0  0  0  0  0  0
   60.5810   30.0900   48.1990 C   0  0  0  0  0  0  0  0  0  0  0  0
   58.8610   28.9320   46.7850 C   0  0  0  0  0  0  0  0  0  0  0  0
   57.8310   28.9590   45.8330 C   0  0  0  0  0  0  0  0  0  0  0  0
   57.2080   27.6640   45.4580 C   0  0  0  0  0  0  0  0  0  0  0  0
   57.8900   26.7360   44.9490 O   0  0  0  0  0  0  0  0  0  0  0  0
   55.8410   27.4770   45.6210 O   0  0  0  0  0  0  0  0  0  0  0  0
   57.4450   30.2070   45.2670 C   0  0  0  0  0  0  0  0  0  0  0  0
   56.4200   30.2860   44.1500 C   0  0  0  0  0  0  0  0  0  0  0  0
   55.1520   29.7090   44.5840 N   0  0  0  0  0  0  0  0  0  0  0  0
   61.4830   33.8190   46.2930 C   0  0  0  0  0  0  0  0  0  0  0  0
   62.2250   33.5240   47.4400 C   0  0  0  0  0  0  0  0  0  0  0  0
   64.8445   32.4241   49.9393 H   0  0  0  0  0  0  0  0  0  0  0  0
   63.7594   31.9014   48.6066 H   0  0  0  0  0  0  0  0  0  0  0  0
   64.4467   33.5610   48.6066 H   0  0  0  0  0  0  0  0  0  0  0  0
   59.9206   34.3691   49.8207 H   0  0  0  0  0  0  0  0  0  0  0  0
   58.5929   34.8976   47.7759 H   0  0  0  0  0  0  0  0  0  0  0  0
   58.6132   35.4254   45.4476 H   0  0  0  0  0  0  0  0  0  0  0  0
   60.0876   35.1527   44.4396 H   0  0  0  0  0  0  0  0  0  0  0  0
   60.1571   30.1003   49.2140 H   0  0  0  0  0  0  0  0  0  0  0  0
   61.1788   29.1770   48.0606 H   0  0  0  0  0  0  0  0  0  0  0  0
   61.2225   30.9728   48.0606 H   0  0  0  0  0  0  0  0  0  0  0  0
   59.1884   27.9718   47.2102 H   0  0  0  0  0  0  0  0  0  0  0  0
   56.2639   31.3395   43.8747 H   0  0  0  0  0  0  0  0  0  0  0  0
   56.7919   29.7208   43.2827 H   0  0  0  0  0  0  0  0  0  0  0  0
   55.2120   29.5460   45.6150 H   0  0  0  0  0  0  0  0  0  0  0  0
   55.0460   28.7690   44.1390 H   0  0  0  0  0  0  0  0  0  0  0  0
   61.9219   33.6500   45.2986 H   0  0  0  0  0  0  0  0  0  0  0  0
   63.2481   33.1310   47.3463 H   0  0  0  0  0  0  0  0  0  0  0  0
  1  2  1  0
  2  3  1  0
  3  4  2  0
  4  5  1  0
  5  6  2  0
  6  7  1  0
  7  8  1  0
  8  9  1  0
  9 10  2  0
  9 11  1  0
 11 12  2  0
 12 13  1  0
 13 14  1  0
 13 15  2  0
 15 16  1  0
 16 17  1  0
 17 18  2  0
 17 19  1  0
 16 20  2  0
 20 21  1  0
 21 22  1  0
  6 23  1  0
 23 24  2  0
 24  3  1  0
 20 11  1  0
  1 25  1  0
  1 26  1  0
  1 27  1  0
  4 28  1  0
  5 29  1  0
  7 30  1  0
  7 31  1  0
 14 32  1  0
 14 33  1  0
 14 34  1  0
 15 35  1  0
 21 36  1  0
 21 37  1  0
 22 38  1  0
 22 39  1  0
 23 40  1  0
 24 41  1  0
M  CHG  2   8  -1  19  -1
M  END
>  <UniqueID>  (66) 
61

>  <SMILES>  (66) 
CSc1ccc(C[N-]C(=O)c2nc(C)cc(C(=O)[O-])c2CN)cc1

>  <Energy>  (66) 
41.11723111175609

>  <Genealogy>  (66) 
CSc1ccc(C[N-]C(=O)c2nc(C)cc(C(=O)[O-])c2CN)cc1 (protonated)
CSc1ccc(C[N-]C(=O)c2nc(C)cc(C(=O)[O-])c2CN)cc1 (3D coordinates assigned)
CSc1ccc(C[N-]C(=O)c2nc(C)cc(C(=O)[O-])c2CN)cc1 (optimized conformer: 41.11723111175609 kcal/mol)

>  <smiles>  (66) 
CSc1ccc(CNC(=O)c2nc(C)cc(C(=O)O)c2CN)cc1

>  <score_type>  (66) 
oracle

>  <origin>  (66) 
adg

>  <m_score__min__energy>  (66) 
-11.039999999999999

>  <m_primary>  (66) 
energy

$$$$
66:0
     RDKit          3D

 43 45  0  0  0  0  0  0  0  0999 V2000
   62.9810   32.8370   47.4940 C   0  0  0  0  0  0  0  0  0  0  0  0
   61.6230   33.2220   47.6660 O   0  0  0  0  0  0  0  0  0  0  0  0
   60.8580   32.8300   48.7690 C   0  0  0  0  0  0  0  0  0  0  0  0
   60.5040   33.6820   49.6280 O   0  0  0  0  0  0  0  0  0  0  0  0
   60.4410   31.4170   48.9010 C   0  0  0  0  0  0  0  0  0  0  0  0
   61.3410   30.5020   49.4770 C   0  0  0  0  0  0  0  0  0  0  0  0
   61.0220   29.1440   49.5540 C   0  0  0  0  0  0  0  0  0  0  0  0
   59.8050   28.6820   49.0540 C   0  0  0  0  0  0  0  0  0  0  0  0
   58.8910   29.5790   48.5010 C   0  0  0  0  0  0  0  0  0  0  0  0
   59.1780   30.9490   48.4520 C   0  0  0  0  0  0  0  0  0  0  0  0
   58.1810   31.8080   47.9620 O   0  0  0  0  0  0  0  0  0  0  0  0
   58.1570   32.3850   46.6800 C   0  0  0  0  0  0  0  0  0  0  0  0
   58.5890   33.7130   46.5570 C   0  0  0  0  0  0  0  0  0  0  0  0
   58.5480   34.3650   45.3230 C   0  0  0  0  0  0  0  0  0  0  0  0
   58.0900   33.6900   44.1920 C   0  0  0  0  0  0  0  0  0  0  0  0
   57.6860   32.3570   44.2890 C   0  0  0  0  0  0  0  0  0  0  0  0
   57.7190   31.6910   45.5260 C   0  0  0  0  0  0  0  0  0  0  0  0
   57.3910   30.2990   45.5970 N   0  0  0  0  0  0  0  0  0  0  0  0
   56.2350   29.7130   44.9920 C   0  0  0  0  0  0  0  0  0  0  0  0
   55.5250   30.4120   44.2220 O   0  0  0  0  0  0  0  0  0  0  0  0
   55.9050   28.3410   45.2430 N   0  0  0  0  0  0  0  0  0  0  0  0
   56.8080   27.3240   45.6980 C   0  0  0  0  0  0  0  0  0  0  0  0
   56.2840   26.2070   46.3600 C   0  0  0  0  0  0  0  0  0  0  0  0
   57.1350   25.2180   46.8620 C   0  0  0  0  0  0  0  0  0  0  0  0
   58.5190   25.3490   46.7200 C   0  0  0  0  0  0  0  0  0  0  0  0
   59.0530   26.4730   46.0820 C   0  0  0  0  0  0  0  0  0  0  0  0
   58.2040   27.4620   45.5780 C   0  0  0  0  0  0  0  0  0  0  0  0
   63.4519   32.7035   48.4791 H   0  0  0  0  0  0  0  0  0  0  0  0
   63.0259   31.8907   46.9349 H   0  0  0  0  0  0  0  0  0  0  0  0
   63.5158   33.6189   46.9349 H   0  0  0  0  0  0  0  0  0  0  0  0
   62.3043   30.8589   49.8702 H   0  0  0  0  0  0  0  0  0  0  0  0
   61.7319   28.4381   50.0098 H   0  0  0  0  0  0  0  0  0  0  0  0
   59.5655   27.6092   49.0957 H   0  0  0  0  0  0  0  0  0  0  0  0
   57.9366   29.2072   48.0999 H   0  0  0  0  0  0  0  0  0  0  0  0
   58.9644   34.2472   47.4423 H   0  0  0  0  0  0  0  0  0  0  0  0
   58.8771   35.4116   45.2430 H   0  0  0  0  0  0  0  0  0  0  0  0
   58.0470   34.2081   43.2226 H   0  0  0  0  0  0  0  0  0  0  0  0
   57.3395   31.8245   43.3910 H   0  0  0  0  0  0  0  0  0  0  0  0
   55.1958   26.1070   46.4859 H   0  0  0  0  0  0  0  0  0  0  0  0
   56.7151   24.3366   47.3688 H   0  0  0  0  0  0  0  0  0  0  0  0
   59.1883   24.5681   47.1100 H   0  0  0  0  0  0  0  0  0  0  0  0
   60.1428   26.5788   45.9767 H   0  0  0  0  0  0  0  0  0  0  0  0
   58.6274   28.3503   45.0864 H   0  0  0  0  0  0  0  0  0  0  0  0
  1  2  1  0
  2  3  1  0
  3  4  2  0
  3  5  1  0
  5  6  2  0
  6  7  1  0
  7  8  2  0
  8  9  1  0
  9 10  2  0
 10 11  1  0
 11 12  1  0
 12 13  2  0
 13 14  1  0
 14 15  2  0
 15 16  1  0
 16 17  2  0
 17 18  1  0
 18 19  1  0
 19 20  2  0
 19 21  1  0
 21 22  1  0
 22 23  2  0
 23 24  1  0
 24 25  2  0
 25 26  1  0
 26 27  2  0
 10  5  1  0
 17 12  1  0
 27 22  1  0
  1 28  1  0
  1 29  1  0
  1 30  1  0
  6 31  1  0
  7 32  1  0
  8 33  1  0
  9 34  1  0
 13 35  1  0
 14 36  1  0
 15 37  1  0
 16 38  1  0
 23 39  1  0
 24 40  1  0
 25 41  1  0
 26 42  1  0
 27 43  1  0
M  CHG  2  18  -1  21  -1
M  END
>  <UniqueID>  (67) 
62

>  <SMILES>  (67) 
COC(=O)c1ccccc1Oc1ccccc1[N-]C(=O)[N-]c1ccccc1

>  <Energy>  (67) 
60.49974007540029

>  <Genealogy>  (67) 
COC(=O)c1ccccc1Oc1ccccc1[N-]C(=O)[N-]c1ccccc1 (protonated)
COC(=O)c1ccccc1Oc1ccccc1[N-]C(=O)[N-]c1ccccc1 (3D coordinates assigned)
COC(=O)c1ccccc1Oc1ccccc1[N-]C(=O)[N-]c1ccccc1 (optimized conformer: 60.49974007540029 kcal/mol)

>  <smiles>  (67) 
COC(=O)c1ccccc1Oc1ccccc1NC(=O)Nc1ccccc1

>  <score_type>  (67) 
oracle

>  <origin>  (67) 
adg

>  <m_score__min__energy>  (67) 
-11.960000000000001

>  <m_primary>  (67) 
energy

$$$$
67:0
     RDKit          3D

 42 44  0  0  0  0  0  0  0  0999 V2000
   58.1650   30.5680   46.2970 C   0  0  0  0  0  0  0  0  0  0  0  0
   57.6100   30.6500   44.8950 C   0  0  0  0  0  0  0  0  0  0  0  0
   56.6820   29.6880   44.4190 C   0  0  0  0  0  0  0  0  0  0  0  0
   56.1830   28.6360   45.2530 N   0  0  0  0  0  0  0  0  0  0  0  0
   57.0110   27.6450   45.8760 C   0  0  0  0  0  0  0  0  0  0  0  0
   57.8870   28.0060   46.7090 O   0  0  0  0  0  0  0  0  0  0  0  0
   56.8220   26.2060   45.5560 C   0  0  0  0  0  0  0  0  0  0  0  0
   57.9350   25.4210   45.1930 C   0  0  0  0  0  0  0  0  0  0  0  0
   57.7840   24.0620   44.8990 C   0  0  0  0  0  0  0  0  0  0  0  0
   56.5240   23.4680   44.9580 C   0  0  0  0  0  0  0  0  0  0  0  0
   55.4100   24.2310   45.3140 C   0  0  0  0  0  0  0  0  0  0  0  0
   55.5480   25.5910   45.6130 C   0  0  0  0  0  0  0  0  0  0  0  0
   54.4120   26.3150   45.9590 O   0  0  0  0  0  0  0  0  0  0  0  0
   56.2520   29.7370   43.0890 C   0  0  0  0  0  0  0  0  0  0  0  0
   56.6720   30.7630   42.2470 C   0  0  0  0  0  0  0  0  0  0  0  0
   57.5330   31.7510   42.7210 C   0  0  0  0  0  0  0  0  0  0  0  0
   58.0080   31.7090   44.0440 C   0  0  0  0  0  0  0  0  0  0  0  0
   58.8930   32.7230   44.5490 N   0  0  0  0  0  0  0  0  0  0  0  0
   58.4260   34.0680   45.5400 S   0  0  0  0  0  0  0  0  0  0  0  0
   58.9290   35.3390   44.9170 O   0  0  0  0  0  0  0  0  0  0  0  0
   56.9260   34.1280   45.6220 O   0  0  0  0  0  0  0  0  0  0  0  0
   59.1400   33.9000   47.1400 C   0  0  0  0  0  0  0  0  0  0  0  0
   58.5130   33.0910   48.0970 C   0  0  0  0  0  0  0  0  0  0  0  0
   59.0650   32.9590   49.3760 C   0  0  0  0  0  0  0  0  0  0  0  0
   60.2430   33.6380   49.7040 C   0  0  0  0  0  0  0  0  0  0  0  0
   60.8720   34.4460   48.7530 C   0  0  0  0  0  0  0  0  0  0  0  0
   60.3240   34.5760   47.4730 C   0  0  0  0  0  0  0  0  0  0  0  0
   57.3472   30.6888   47.0227 H   0  0  0  0  0  0  0  0  0  0  0  0
   58.6448   29.5892   46.4448 H   0  0  0  0  0  0  0  0  0  0  0  0
   58.9073   31.3662   46.4448 H   0  0  0  0  0  0  0  0  0  0  0  0
   58.9324   25.8819   45.1404 H   0  0  0  0  0  0  0  0  0  0  0  0
   58.6616   23.4602   44.6205 H   0  0  0  0  0  0  0  0  0  0  0  0
   56.4076   22.3994   44.7244 H   0  0  0  0  0  0  0  0  0  0  0  0
   54.4171   23.7597   45.3597 H   0  0  0  0  0  0  0  0  0  0  0  0
   55.5764   28.9584   42.7051 H   0  0  0  0  0  0  0  0  0  0  0  0
   56.3232   30.7939   41.2042 H   0  0  0  0  0  0  0  0  0  0  0  0
   57.8434   32.5698   42.0553 H   0  0  0  0  0  0  0  0  0  0  0  0
   57.5848   32.5585   47.8423 H   0  0  0  0  0  0  0  0  0  0  0  0
   58.5721   32.3207   50.1241 H   0  0  0  0  0  0  0  0  0  0  0  0
   60.6744   33.5360   50.7107 H   0  0  0  0  0  0  0  0  0  0  0  0
   61.7984   34.9799   49.0113 H   0  0  0  0  0  0  0  0  0  0  0  0
   60.8224   35.2100   46.7249 H   0  0  0  0  0  0  0  0  0  0  0  0
  1  2  1  0
  2  3  2  0
  3  4  1  0
  4  5  1  0
  5  6  2  0
  5  7  1  0
  7  8  2  0
  8  9  1  0
  9 10  2  0
 10 11  1  0
 11 12  2  0
 12 13  1  0
  3 14  1  0
 14 15  2  0
 15 16  1  0
 16 17  2  0
 17 18  1  0
 18 19  1  0
 19 20  2  0
 19 21  2  0
 19 22  1  0
 22 23  2  0
 23 24  1  0
 24 25  2  0
 25 26  1  0
 26 27  2  0
 17  2  1  0
 27 22  1  0
 12  7  1  0
  1 28  1  0
  1 29  1  0
  1 30  1  0
  8 31  1  0
  9 32  1  0
 10 33  1  0
 11 34  1  0
 14 35  1  0
 15 36  1  0
 16 37  1  0
 23 38  1  0
 24 39  1  0
 25 40  1  0
 26 41  1  0
 27 42  1  0
M  CHG  3   4  -1  13  -1  18  -1
M  END
>  <UniqueID>  (68) 
63

>  <SMILES>  (68) 
Cc1c([N-]C(=O)c2ccccc2[O-])cccc1[N-]S(=O)(=O)c1ccccc1

>  <Energy>  (68) 
58.580901408254825

>  <Genealogy>  (68) 
Cc1c([N-]C(=O)c2ccccc2[O-])cccc1[N-]S(=O)(=O)c1ccccc1 (protonated)
Cc1c([N-]C(=O)c2ccccc2[O-])cccc1[N-]S(=O)(=O)c1ccccc1 (3D coordinates assigned)
Cc1c([N-]C(=O)c2ccccc2[O-])cccc1[N-]S(=O)(=O)c1ccccc1 (optimized conformer: 58.580901408254825 kcal/mol)

>  <smiles>  (68) 
Cc1c(NC(=O)c2ccccc2O)cccc1NS(=O)(=O)c1ccccc1

>  <score_type>  (68) 
oracle

>  <origin>  (68) 
adg

>  <m_score__min__energy>  (68) 
-15.85

>  <m_primary>  (68) 
energy

$$$$
68:0
     RDKit          3D

 54 57  0  0  0  0  0  0  0  0999 V2000
   58.3310   27.7010   43.8130 C   0  0  0  0  0  0  0  0  0  0  0  0
   59.5710   27.8430   44.7020 C   0  0  0  0  0  0  0  0  0  0  0  0
   59.7700   29.2340   45.1790 N   0  0  1  0  0  0  0  0  0  0  0  0
   58.8750   30.2490   44.5560 C   0  0  0  0  0  0  0  0  0  0  0  0
   57.6960   30.6540   45.4050 C   0  0  0  0  0  0  0  0  0  0  0  0
   56.5800   30.0970   45.2300 O   0  0  0  0  0  0  0  0  0  0  0  0
   57.8530   31.6380   46.4310 N   0  0  0  0  0  0  0  0  0  0  0  0
   58.4250   32.9320   46.2040 C   0  0  0  0  0  0  0  0  0  0  0  0
   58.3300   33.4890   44.9200 C   0  0  0  0  0  0  0  0  0  0  0  0
   58.9410   34.7090   44.6320 C   0  0  0  0  0  0  0  0  0  0  0  0
   59.6450   35.3900   45.6270 C   0  0  0  0  0  0  0  0  0  0  0  0
   59.7210   34.8620   46.9180 C   0  0  0  0  0  0  0  0  0  0  0  0
   59.1010   33.6390   47.2290 C   0  0  0  0  0  0  0  0  0  0  0  0
   59.1030   33.1650   48.6330 C   0  0  0  0  0  0  0  0  0  0  0  0
   58.2350   32.1340   49.0360 C   0  0  0  0  0  0  0  0  0  0  0  0
   58.2210   31.7020   50.3660 C   0  0  0  0  0  0  0  0  0  0  0  0
   59.0710   32.2960   51.3050 C   0  0  0  0  0  0  0  0  0  0  0  0
   59.9330   33.3230   50.9150 C   0  0  0  0  0  0  0  0  0  0  0  0
   59.9490   33.7610   49.5850 C   0  0  0  0  0  0  0  0  0  0  0  0
   59.6780   29.2670   46.6270 C   0  0  0  0  0  0  0  0  0  0  0  0
   58.8330   28.5440   47.2220 O   0  0  0  0  0  0  0  0  0  0  0  0
   60.6160   30.0880   47.4320 C   0  0  0  0  0  0  0  0  0  0  0  0
   60.8150   29.8240   48.7960 C   0  0  0  0  0  0  0  0  0  0  0  0
   61.7110   30.6100   49.5230 C   0  0  0  0  0  0  0  0  0  0  0  0
   61.8920   30.3790   50.7480 O   0  0  0  0  0  0  0  0  0  0  0  0
   62.4020   31.6440   48.8730 C   0  0  0  0  0  0  0  0  0  0  0  0
   63.3230   32.4700   49.5420 C   0  0  0  0  0  0  0  0  0  0  0  0
   63.9920   33.4810   48.8450 C   0  0  0  0  0  0  0  0  0  0  0  0
   63.7440   33.6800   47.4830 C   0  0  0  0  0  0  0  0  0  0  0  0
   62.8240   32.8700   46.8110 C   0  0  0  0  0  0  0  0  0  0  0  0
   62.1520   31.8510   47.4970 C   0  0  0  0  0  0  0  0  0  0  0  0
   61.2850   31.0800   46.8480 O   0  0  0  0  0  0  0  0  0  0  0  0
   57.4365   27.5986   44.4450 H   0  0  0  0  0  0  0  0  0  0  0  0
   58.2310   28.5936   43.1779 H   0  0  0  0  0  0  0  0  0  0  0  0
   58.4354   26.8089   43.1779 H   0  0  0  0  0  0  0  0  0  0  0  0
   59.4571   27.1833   45.5748 H   0  0  0  0  0  0  0  0  0  0  0  0
   60.4487   27.5668   44.0992 H   0  0  0  0  0  0  0  0  0  0  0  0
   60.7420   29.5160   44.9100 H   0  0  0  0  0  0  0  0  0  0  0  0
   59.4714   31.1491   44.3458 H   0  0  0  0  0  0  0  0  0  0  0  0
   58.4605   29.7838   43.6495 H   0  0  0  0  0  0  0  0  0  0  0  0
   57.7698   32.9598   44.1351 H   0  0  0  0  0  0  0  0  0  0  0  0
   58.8683   35.1350   43.6205 H   0  0  0  0  0  0  0  0  0  0  0  0
   60.1406   36.3439   45.3939 H   0  0  0  0  0  0  0  0  0  0  0  0
   60.2710   35.4081   47.6986 H   0  0  0  0  0  0  0  0  0  0  0  0
   57.5639   31.6652   48.3013 H   0  0  0  0  0  0  0  0  0  0  0  0
   57.5409   30.8942   50.6741 H   0  0  0  0  0  0  0  0  0  0  0  0
   59.0603   31.9541   52.3505 H   0  0  0  0  0  0  0  0  0  0  0  0
   60.6010   33.7891   51.6543 H   0  0  0  0  0  0  0  0  0  0  0  0
   60.6258   34.5742   49.2839 H   0  0  0  0  0  0  0  0  0  0  0  0
   60.2698   29.0050   49.2879 H   0  0  0  0  0  0  0  0  0  0  0  0
   63.5172   32.3206   50.6144 H   0  0  0  0  0  0  0  0  0  0  0  0
   64.7158   34.1220   49.3697 H   0  0  0  0  0  0  0  0  0  0  0  0
   64.2742   34.4758   46.9393 H   0  0  0  0  0  0  0  0  0  0  0  0
   62.6276   33.0335   45.7411 H   0  0  0  0  0  0  0  0  0  0  0  0
  1  2  1  0
  2  3  1  0
  3  4  1  0
  4  5  1  0
  5  6  2  0
  5  7  1  0
  7  8  1  0
  8  9  2  0
  9 10  1  0
 10 11  2  0
 11 12  1  0
 12 13  2  0
 13 14  1  0
 14 15  2  0
 15 16  1  0
 16 17  2  0
 17 18  1  0
 18 19  2  0
  3 20  1  0
 20 21  2  0
 20 22  1  0
 22 23  2  0
 23 24  1  0
 24 25  2  0
 24 26  1  0
 26 27  2  0
 27 28  1  0
 28 29  2  0
 29 30  1  0
 30 31  2  0
 31 32  1  0
 13  8  1  0
 19 14  1  0
 32 22  1  0
 31 26  1  0
  1 33  1  0
  1 34  1  0
  1 35  1  0
  2 36  1  0
  2 37  1  0
  3 38  1  1
  4 39  1  0
  4 40  1  0
  9 41  1  0
 10 42  1  0
 11 43  1  0
 12 44  1  0
 15 45  1  0
 16 46  1  0
 17 47  1  0
 18 48  1  0
 19 49  1  0
 23 50  1  0
 27 51  1  0
 28 52  1  0
 29 53  1  0
 30 54  1  0
M  CHG  2   3   1   7  -1
M  END
>  <UniqueID>  (69) 
64

>  <SMILES>  (69) 
CC[N@@H+](CC(=O)[N-]c1ccccc1-c1ccccc1)C(=O)c1cc(=O)c2ccccc2o1

>  <Energy>  (69) 
81.10042173823848

>  <Genealogy>  (69) 
CC[NH+](CC(=O)[N-]c1ccccc1-c1ccccc1)C(=O)c1cc(=O)c2ccccc2o1 (protonated)
CC[N@@H+](CC(=O)[N-]c1ccccc1-c1ccccc1)C(=O)c1cc(=O)c2ccccc2o1 (chirality)
CC[N@@H+](CC(=O)[N-]c1ccccc1-c1ccccc1)C(=O)c1cc(=O)c2ccccc2o1 (3D coordinates assigned)
CC[N@@H+](CC(=O)[N-]c1ccccc1-c1ccccc1)C(=O)c1cc(=O)c2ccccc2o1 (optimized conformer: 81.10042173823848 kcal/mol)

>  <smiles>  (69) 
CCN(CC(=O)Nc1ccccc1-c1ccccc1)C(=O)c1cc(=O)c2ccccc2o1

>  <score_type>  (69) 
oracle

>  <origin>  (69) 
adg

>  <m_score__min__energy>  (69) 
-8.8100000000000005

>  <m_primary>  (69) 
energy

$$$$
69:0
     RDKit          3D

 91 95  0  0  0  0  0  0  0  0999 V2000
   50.4310   22.1450   47.6990 C   0  0  0  0  0  0  0  0  0  0  0  0
   51.4850   21.5500   46.9520 O   0  0  0  0  0  0  0  0  0  0  0  0
   52.4500   22.3010   46.2720 C   0  0  0  0  0  0  0  0  0  0  0  0
   52.1430   22.9000   45.2010 O   0  0  0  0  0  0  0  0  0  0  0  0
   53.8290   22.3920   46.8120 C   0  0  0  0  0  0  0  0  0  0  0  0
   54.8830   22.3820   45.9620 C   0  0  0  0  0  0  0  0  0  0  0  0
   55.9720   23.3800   45.9730 C   0  0  0  0  0  0  0  0  0  0  0  0
   55.8000   24.5960   45.2960 C   0  0  0  0  0  0  0  0  0  0  0  0
   56.7960   25.5740   45.3310 C   0  0  0  0  0  0  0  0  0  0  0  0
   57.9660   25.3580   46.0650 C   0  0  0  0  0  0  0  0  0  0  0  0
   58.9590   26.3920   46.1610 N   0  0  0  0  0  0  0  0  0  0  0  0
   59.9340   26.3200   47.2550 C   0  0  0  0  0  0  0  0  0  0  0  0
   59.7180   27.4460   48.2330 C   0  0  0  0  0  0  0  0  0  0  0  0
   58.7310   28.4150   47.9850 C   0  0  0  0  0  0  0  0  0  0  0  0
   58.5240   29.4610   48.8870 C   0  0  0  0  0  0  0  0  0  0  0  0
   59.2990   29.5480   50.0500 C   0  0  0  0  0  0  0  0  0  0  0  0
   59.0030   30.8190   51.2320 S   0  0  0  0  0  0  0  0  0  0  0  0
   59.1000   32.1540   50.5440 O   0  0  0  0  0  0  0  0  0  0  0  0
   57.6260   30.6920   51.8240 O   0  0  0  0  0  0  0  0  0  0  0  0
   60.2040   30.7390   52.4850 N   0  0  0  0  0  0  0  0  0  0  0  0
   61.1990   31.7520   52.7070 C   0  0  0  0  0  0  0  0  0  0  0  0
   61.7920   31.8720   54.0040 N   0  0  0  0  0  0  0  0  0  0  0  0
   61.5930   32.5360   51.7470 N   0  0  0  0  0  0  0  0  0  0  0  0
   60.2960   28.5960   50.2910 C   0  0  0  0  0  0  0  0  0  0  0  0
   60.5180   27.5610   49.3800 C   0  0  0  0  0  0  0  0  0  0  0  0
   59.0950   27.3450   45.0900 C   0  0  0  0  0  0  0  0  0  0  0  0
   58.7980   27.0050   43.9090 O   0  0  0  0  0  0  0  0  0  0  0  0
   59.5740   28.6400   45.3400 O   0  0  0  0  0  0  0  0  0  0  0  0
   59.4450   29.6980   44.3860 C   0  0  0  0  0  0  0  0  0  0  0  0
   58.6450   30.8910   44.9070 C   0  0  0  0  0  0  0  0  0  0  0  0
   57.3940   31.1940   44.4540 C   0  0  0  0  0  0  0  0  0  0  0  0
   56.6250   30.2910   43.5270 C   0  0  0  0  0  0  0  0  0  0  0  0
   56.6480   32.4250   44.9330 C   0  0  0  0  0  0  0  0  0  0  0  0
   57.5420   33.4490   45.5580 C   0  0  0  0  0  0  0  0  0  0  0  0
   57.2170   34.6690   45.5360 O   0  0  0  0  0  0  0  0  0  0  0  0
   58.7320   32.9970   46.2850 C   0  0  0  0  0  0  0  0  0  0  0  0
   59.3100   33.8000   47.2790 C   0  0  0  0  0  0  0  0  0  0  0  0
   60.3460   33.3020   48.0680 C   0  0  0  0  0  0  0  0  0  0  0  0
   60.8100   31.9970   47.8860 C   0  0  0  0  0  0  0  0  0  0  0  0
   61.8180   31.5060   48.7790 N   0  0  0  0  0  0  0  0  0  0  0  0
   63.2300   32.3710   49.2960 S   0  0  0  0  0  0  0  0  0  0  0  0
   62.8020   33.6610   49.9430 O   0  0  0  0  0  0  0  0  0  0  0  0
   64.1150   32.6510   48.1130 O   0  0  0  0  0  0  0  0  0  0  0  0
   64.1360   31.3890   50.4550 C   0  0  0  0  0  0  0  0  0  0  0  0
   63.5470   30.2280   50.9810 C   0  0  0  0  0  0  0  0  0  0  0  0
   64.2490   29.4280   51.8850 C   0  0  0  0  0  0  0  0  0  0  0  0
   65.5450   29.7760   52.2710 C   0  0  0  0  0  0  0  0  0  0  0  0
   66.1460   30.9220   51.7420 C   0  0  0  0  0  0  0  0  0  0  0  0
   65.4520   31.7310   50.8320 C   0  0  0  0  0  0  0  0  0  0  0  0
   66.2780   33.1460   50.1750 Cl  0  0  0  0  0  0  0  0  0  0  0  0
   60.2660   31.2080   46.8570 C   0  0  0  0  0  0  0  0  0  0  0  0
   59.2370   31.7090   46.0250 C   0  0  0  0  0  0  0  0  0  0  0  0
   58.1350   24.1520   46.7640 C   0  0  0  0  0  0  0  0  0  0  0  0
   57.1420   23.1640   46.7260 C   0  0  0  0  0  0  0  0  0  0  0  0
   57.3070   21.9800   47.4450 O   0  0  0  0  0  0  0  0  0  0  0  0
   54.0080   22.4490   48.2880 C   0  0  0  0  0  0  0  0  0  0  0  0
   53.0770   22.8520   49.0380 O   0  0  0  0  0  0  0  0  0  0  0  0
   55.2210   22.0850   48.8600 O   0  0  0  0  0  0  0  0  0  0  0  0
   50.6336   22.0306   48.7741 H   0  0  0  0  0  0  0  0  0  0  0  0
   50.3636   23.2144   47.4503 H   0  0  0  0  0  0  0  0  0  0  0  0
   49.4806   21.6501   47.4503 H   0  0  0  0  0  0  0  0  0  0  0  0
   54.9315   21.5773   45.2136 H   0  0  0  0  0  0  0  0  0  0  0  0
   54.8732   24.7808   44.7330 H   0  0  0  0  0  0  0  0  0  0  0  0
   56.6597   26.5162   44.7800 H   0  0  0  0  0  0  0  0  0  0  0  0
   59.8195   25.3594   47.7786 H   0  0  0  0  0  0  0  0  0  0  0  0
   60.9466   26.4055   46.8338 H   0  0  0  0  0  0  0  0  0  0  0  0
   58.1174   28.3493   47.0744 H   0  0  0  0  0  0  0  0  0  0  0  0
   57.7515   30.2172   48.6836 H   0  0  0  0  0  0  0  0  0  0  0  0
   60.0690   30.0110   53.2210 H   0  0  0  0  0  0  0  0  0  0  0  0
   62.5340   32.5820   54.1900 H   0  0  0  0  0  0  0  0  0  0  0  0
   61.4770   31.2630   54.7880 H   0  0  0  0  0  0  0  0  0  0  0  0
   62.1960   33.3670   51.9250 H   0  0  0  0  0  0  0  0  0  0  0  0
   61.2860   32.3690   50.7620 H   0  0  0  0  0  0  0  0  0  0  0  0
   60.9079   28.6632   51.2026 H   0  0  0  0  0  0  0  0  0  0  0  0
   61.3227   26.8335   49.5623 H   0  0  0  0  0  0  0  0  0  0  0  0
   60.4522   30.0461   44.1131 H   0  0  0  0  0  0  0  0  0  0  0  0
   58.8972   29.2918   43.5229 H   0  0  0  0  0  0  0  0  0  0  0  0
   56.0236   29.5848   44.1183 H   0  0  0  0  0  0  0  0  0  0  0  0
   55.9609   30.8965   42.8926 H   0  0  0  0  0  0  0  0  0  0  0  0
   57.3285   29.7318   42.8926 H   0  0  0  0  0  0  0  0  0  0  0  0
   56.1399   32.8833   44.0717 H   0  0  0  0  0  0  0  0  0  0  0  0
   55.9366   32.0967   45.7051 H   0  0  0  0  0  0  0  0  0  0  0  0
   58.9449   34.8256   47.4366 H   0  0  0  0  0  0  0  0  0  0  0  0
   60.8011   33.9410   48.8391 H   0  0  0  0  0  0  0  0  0  0  0  0
   62.5271   29.9471   50.6794 H   0  0  0  0  0  0  0  0  0  0  0  0
   63.7797   28.5212   52.2941 H   0  0  0  0  0  0  0  0  0  0  0  0
   66.0924   29.1492   52.9904 H   0  0  0  0  0  0  0  0  0  0  0  0
   67.1698   31.1904   52.0418 H   0  0  0  0  0  0  0  0  0  0  0  0
   60.6454   30.1880   46.6968 H   0  0  0  0  0  0  0  0  0  0  0  0
   59.0531   23.9816   47.3454 H   0  0  0  0  0  0  0  0  0  0  0  0
   56.6010   21.6450   48.0860 H   0  0  0  0  0  0  0  0  0  0  0  0
  1  2  1  0
  2  3  1  0
  3  4  2  0
  3  5  1  0
  5  6  2  3
  6  7  1  0
  7  8  2  0
  8  9  1  0
  9 10  2  0
 10 11  1  0
 11 12  1  0
 12 13  1  0
 13 14  2  0
 14 15  1  0
 15 16  2  0
 16 17  1  0
 17 18  2  0
 17 19  2  0
 17 20  1  0
 20 21  1  0
 21 22  1  0
 21 23  2  0
 16 24  1  0
 24 25  2  0
 11 26  1  0
 26 27  2  0
 26 28  1  0
 28 29  1  0
 29 30  1  0
 30 31  2  0
 31 32  1  0
 31 33  1  0
 33 34  1  0
 34 35  2  0
 34 36  1  0
 36 37  2  0
 37 38  1  0
 38 39  2  0
 39 40  1  0
 40 41  1  0
 41 42  2  0
 41 43  2  0
 41 44  1  0
 44 45  2  0
 45 46  1  0
 46 47  2  0
 47 48  1  0
 48 49  2  0
 49 50  1  0
 39 51  1  0
 51 52  2  0
 10 53  1  0
 53 54  2  0
 54 55  1  0
  5 56  1  0
 56 57  2  0
 56 58  1  0
 54  7  1  0
 25 13  1  0
 52 30  1  0
 52 36  1  0
 49 44  1  0
  1 59  1  0
  1 60  1  0
  1 61  1  0
  6 62  1  0
  8 63  1  0
  9 64  1  0
 12 65  1  0
 12 66  1  0
 14 67  1  0
 15 68  1  0
 20 69  1  0
 22 70  1  0
 22 71  1  0
 23 72  1  0
 23 73  1  0
 24 74  1  0
 25 75  1  0
 29 76  1  0
 29 77  1  0
 32 78  1  0
 32 79  1  0
 32 80  1  0
 33 81  1  0
 33 82  1  0
 37 83  1  0
 38 84  1  0
 45 85  1  0
 46 86  1  0
 47 87  1  0
 48 88  1  0
 51 89  1  0
 53 90  1  0
 55 91  1  0
M  CHG  3  23   1  40  -1  58  -1
M  END
>  <UniqueID>  (70) 
65

>  <SMILES>  (70) 
COC(=O)C(=Cc1ccc(N(Cc2ccc(S(=O)(=O)NC(N)=[NH2+])cc2)C(=O)OCC2=C(C)CC(=O)c3ccc([N-]S(=O)(=O)c4ccccc4Cl)cc32)cc1O)C(=O)[O-]

>  <Energy>  (70) 
128.40688161130856

>  <Genealogy>  (70) 
COC(=O)C(=Cc1ccc(N(Cc2ccc(S(=O)(=O)NC(N)=[NH2+])cc2)C(=O)OCC2=C(C)CC(=O)c3ccc([N-]S(=O)(=O)c4ccccc4Cl)cc32)cc1O)C(=O)[O-] (protonated)
COC(=O)C(=Cc1ccc(N(Cc2ccc(S(=O)(=O)NC(N)=[NH2+])cc2)C(=O)OCC2=C(C)CC(=O)c3ccc([N-]S(=O)(=O)c4ccccc4Cl)cc32)cc1O)C(=O)[O-] (3D coordinates assigned)
COC(=O)C(=Cc1ccc(N(Cc2ccc(S(=O)(=O)NC(N)=[NH2+])cc2)C(=O)OCC2=C(C)CC(=O)c3ccc([N-]S(=O)(=O)c4ccccc4Cl)cc32)cc1O)C(=O)[O-] (nonaromatic ring conformer: 128.40688161130856 kcal/mol)

>  <smiles>  (70) 
COC(=O)C(=Cc1ccc(N(Cc2ccc(S(=O)(=O)NC(=N)N)cc2)C(=O)OCC2=C(C)CC(=O)c3ccc(NS(=O)(=O)c4ccccc4Cl)cc32)cc1O)C(=O)O

>  <score_type>  (70) 
oracle

>  <origin>  (70) 
adg

>  <m_score__min__energy>  (70) 
-12.85

>  <m_primary>  (70) 
energy

$$$$
70:0
     RDKit          3D

 76 81  0  0  0  0  0  0  0  0999 V2000
   60.3730   27.4370   48.5890 C   0  0  0  0  0  0  0  0  0  0  0  0
   60.6520   26.5280   49.6920 N   0  0  0  0  0  0  0  0  0  0  0  0
   61.3590   26.8800   50.8900 C   0  0  0  0  0  0  0  0  0  0  0  0
   61.7590   25.9490   51.6390 O   0  0  0  0  0  0  0  0  0  0  0  0
   61.6180   28.3310   51.2660 C   0  0  2  0  0  0  0  0  0  0  0  0
   62.4570   28.5170   52.5220 C   0  0  0  0  0  0  0  0  0  0  0  0
   61.9900   29.2160   53.6570 C   0  0  0  0  0  0  0  0  0  0  0  0
   62.8070   29.3660   54.7810 C   0  0  0  0  0  0  0  0  0  0  0  0
   64.0990   28.8340   54.7830 C   0  0  0  0  0  0  0  0  0  0  0  0
   64.5770   28.1550   53.6600 C   0  0  0  0  0  0  0  0  0  0  0  0
   63.7650   28.0000   52.5360 C   0  0  0  0  0  0  0  0  0  0  0  0
   60.3540   29.1220   51.3490 N   0  0  0  0  0  0  0  0  0  0  0  0
   59.3100   28.6640   52.1120 C   0  0  0  0  0  0  0  0  0  0  0  0
   59.4160   27.5840   52.7600 O   0  0  0  0  0  0  0  0  0  0  0  0
   58.1130   29.3850   52.1860 C   0  0  0  0  0  0  0  0  0  0  0  0
   57.0270   28.9100   52.9520 C   0  0  0  0  0  0  0  0  0  0  0  0
   55.8390   29.6300   53.0180 C   0  0  0  0  0  0  0  0  0  0  0  0
   55.7110   30.8290   52.3210 C   0  0  0  0  0  0  0  0  0  0  0  0
   54.4880   31.5630   52.3650 N   0  0  0  0  0  0  0  0  0  0  0  0
   53.0740   31.0070   51.5310 S   0  0  0  0  0  0  0  0  0  0  0  0
   52.4550   32.1590   50.7890 O   0  0  0  0  0  0  0  0  0  0  0  0
   53.4680   29.9500   50.5360 O   0  0  0  0  0  0  0  0  0  0  0  0
   51.9010   30.3450   52.6660 C   0  0  0  0  0  0  0  0  0  0  0  0
   51.8620   28.9670   52.9300 C   0  0  0  0  0  0  0  0  0  0  0  0
   50.8990   28.4470   53.8010 C   0  0  0  0  0  0  0  0  0  0  0  0
   49.9700   29.2970   54.4080 C   0  0  0  0  0  0  0  0  0  0  0  0
   50.0020   30.6700   54.1440 C   0  0  0  0  0  0  0  0  0  0  0  0
   50.9650   31.1940   53.2770 C   0  0  0  0  0  0  0  0  0  0  0  0
   56.7860   31.3240   51.5770 C   0  0  0  0  0  0  0  0  0  0  0  0
   58.0050   30.6060   51.4830 C   0  0  0  0  0  0  0  0  0  0  0  0
   59.0720   31.0590   50.7330 N   0  0  0  0  0  0  0  0  0  0  0  0
   59.0220   32.3680   50.0330 C   0  0  0  0  0  0  0  0  0  0  0  0
   58.7030   32.1850   48.5690 C   0  0  0  0  0  0  0  0  0  0  0  0
   58.2580   33.2670   47.7920 C   0  0  0  0  0  0  0  0  0  0  0  0
   57.9840   33.0960   46.4320 C   0  0  0  0  0  0  0  0  0  0  0  0
   58.1400   31.8380   45.8290 C   0  0  0  0  0  0  0  0  0  0  0  0
   57.8330   31.6520   44.3910 C   0  0  0  0  0  0  0  0  0  0  0  0
   58.3440   32.5930   43.4780 C   0  0  0  0  0  0  0  0  0  0  0  0
   58.0140   32.5250   42.1250 C   0  0  0  0  0  0  0  0  0  0  0  0
   57.1660   31.5220   41.6620 C   0  0  0  0  0  0  0  0  0  0  0  0
   56.6590   30.5690   42.5490 C   0  0  0  0  0  0  0  0  0  0  0  0
   56.9950   30.6040   43.9150 C   0  0  0  0  0  0  0  0  0  0  0  0
   56.5020   29.5060   44.7860 C   0  0  0  0  0  0  0  0  0  0  0  0
   57.3030   28.6850   45.3110 O   0  0  0  0  0  0  0  0  0  0  0  0
   55.1370   29.3380   44.9970 O   0  0  0  0  0  0  0  0  0  0  0  0
   58.5400   30.7460   46.6160 C   0  0  0  0  0  0  0  0  0  0  0  0
   58.8220   30.9180   47.9730 C   0  0  0  0  0  0  0  0  0  0  0  0
   60.2270   30.3090   50.6620 C   0  0  0  0  0  0  0  0  0  0  0  0
   61.1950   30.7260   49.9640 O   0  0  0  0  0  0  0  0  0  0  0  0
   60.0723   28.4168   48.9884 H   0  0  0  0  0  0  0  0  0  0  0  0
   61.2766   27.5539   47.9727 H   0  0  0  0  0  0  0  0  0  0  0  0
   59.5594   27.0269   47.9727 H   0  0  0  0  0  0  0  0  0  0  0  0
   62.2258   28.7254   50.4383 H   0  0  0  0  0  0  0  0  0  0  0  0
   60.9771   29.6450   53.6563 H   0  0  0  0  0  0  0  0  0  0  0  0
   62.4326   29.9033   55.6648 H   0  0  0  0  0  0  0  0  0  0  0  0
   64.7399   28.9500   55.6694 H   0  0  0  0  0  0  0  0  0  0  0  0
   65.5963   27.7414   53.6617 H   0  0  0  0  0  0  0  0  0  0  0  0
   64.1510   27.4690   51.6534 H   0  0  0  0  0  0  0  0  0  0  0  0
   57.1210   27.9619   53.5017 H   0  0  0  0  0  0  0  0  0  0  0  0
   55.0001   29.2524   53.6210 H   0  0  0  0  0  0  0  0  0  0  0  0
   52.5897   28.2952   52.4513 H   0  0  0  0  0  0  0  0  0  0  0  0
   50.8727   27.3671   54.0087 H   0  0  0  0  0  0  0  0  0  0  0  0
   49.2139   28.8860   55.0932 H   0  0  0  0  0  0  0  0  0  0  0  0
   49.2686   31.3382   54.6191 H   0  0  0  0  0  0  0  0  0  0  0  0
   50.9894   32.2746   53.0730 H   0  0  0  0  0  0  0  0  0  0  0  0
   56.6844   32.2872   51.0555 H   0  0  0  0  0  0  0  0  0  0  0  0
   58.2446   32.9940   50.4953 H   0  0  0  0  0  0  0  0  0  0  0  0
   60.0066   32.8506   50.1201 H   0  0  0  0  0  0  0  0  0  0  0  0
   58.1243   34.2551   48.2565 H   0  0  0  0  0  0  0  0  0  0  0  0
   57.6442   33.9522   45.8308 H   0  0  0  0  0  0  0  0  0  0  0  0
   59.0112   33.3911   43.8357 H   0  0  0  0  0  0  0  0  0  0  0  0
   58.4242   33.2650   41.4220 H   0  0  0  0  0  0  0  0  0  0  0  0
   56.8951   31.4800   40.5967 H   0  0  0  0  0  0  0  0  0  0  0  0
   55.9886   29.7813   42.1747 H   0  0  0  0  0  0  0  0  0  0  0  0
   58.6318   29.7488   46.1608 H   0  0  0  0  0  0  0  0  0  0  0  0
   59.1392   30.0565   48.5789 H   0  0  0  0  0  0  0  0  0  0  0  0
  1  2  1  0
  2  3  1  0
  3  4  2  0
  3  5  1  0
  5  6  1  0
  6  7  2  0
  7  8  1  0
  8  9  2  0
  9 10  1  0
 10 11  2  0
  5 12  1  0
 12 13  1  0
 13 14  2  0
 13 15  1  0
 15 16  2  0
 16 17  1  0
 17 18  2  0
 18 19  1  0
 19 20  1  0
 20 21  2  0
 20 22  2  0
 20 23  1  0
 23 24  2  0
 24 25  1  0
 25 26  2  0
 26 27  1  0
 27 28  2  0
 18 29  1  0
 29 30  2  0
 30 31  1  0
 31 32  1  0
 32 33  1  0
 33 34  2  0
 34 35  1  0
 35 36  2  0
 36 37  1  0
 37 38  2  0
 38 39  1  0
 39 40  2  0
 40 41  1  0
 41 42  2  0
 42 43  1  0
 43 44  2  0
 43 45  1  0
 36 46  1  0
 46 47  2  0
 31 48  1  0
 48 49  2  0
 11  6  1  0
 48 12  1  0
 30 15  1  0
 47 33  1  0
 28 23  1  0
 42 37  1  0
  1 50  1  0
  1 51  1  0
  1 52  1  0
  5 53  1  6
  7 54  1  0
  8 55  1  0
  9 56  1  0
 10 57  1  0
 11 58  1  0
 16 59  1  0
 17 60  1  0
 24 61  1  0
 25 62  1  0
 26 63  1  0
 27 64  1  0
 28 65  1  0
 29 66  1  0
 32 67  1  0
 32 68  1  0
 34 69  1  0
 35 70  1  0
 38 71  1  0
 39 72  1  0
 40 73  1  0
 41 74  1  0
 46 75  1  0
 47 76  1  0
M  CHG  3   2  -1  19  -1  45  -1
M  END
>  <UniqueID>  (71) 
66

>  <SMILES>  (71) 
C[N-]C(=O)[C@H](c1ccccc1)n1c(=O)c2ccc([N-]S(=O)(=O)c3ccccc3)cc2n(Cc2ccc(-c3ccccc3C(=O)[O-])cc2)c1=O

>  <Energy>  (71) 
123.88988412580541

>  <Genealogy>  (71) 
C[N-]C(=O)C(c1ccccc1)n1c(=O)c2ccc([N-]S(=O)(=O)c3ccccc3)cc2n(Cc2ccc(-c3ccccc3C(=O)[O-])cc2)c1=O (protonated)
C[N-]C(=O)[C@H](c1ccccc1)n1c(=O)c2ccc([N-]S(=O)(=O)c3ccccc3)cc2n(Cc2ccc(-c3ccccc3C(=O)[O-])cc2)c1=O (chirality)
C[N-]C(=O)[C@H](c1ccccc1)n1c(=O)c2ccc([N-]S(=O)(=O)c3ccccc3)cc2n(Cc2ccc(-c3ccccc3C(=O)[O-])cc2)c1=O (3D coordinates assigned)
C[N-]C(=O)[C@H](c1ccccc1)n1c(=O)c2ccc([N-]S(=O)(=O)c3ccccc3)cc2n(Cc2ccc(-c3ccccc3C(=O)[O-])cc2)c1=O (optimized conformer: 123.88988412580541 kcal/mol)

>  <smiles>  (71) 
CNC(=O)C(c1ccccc1)n1c(=O)c2ccc(NS(=O)(=O)c3ccccc3)cc2n(Cc2ccc(-c3ccccc3C(=O)O)cc2)c1=O

>  <score_type>  (71) 
oracle

>  <origin>  (71) 
adg

>  <m_score__min__energy>  (71) 
-15.380000000000001

>  <m_primary>  (71) 
energy

$$$$
71:0
     RDKit          3D

 43 44  0  0  0  0  0  0  0  0999 V2000
   57.3850   33.3160   46.9150 C   0  0  0  0  0  0  0  0  0  0  0  0
   58.5010   33.4130   45.9690 N   0  0  0  0  0  0  0  0  0  0  0  0
   58.4560   32.6610   44.7050 C   0  0  0  0  0  0  0  0  0  0  0  0
   58.1050   31.2180   44.9580 C   0  0  0  0  0  0  0  0  0  0  0  0
   59.0950   30.3170   45.3860 C   0  0  0  0  0  0  0  0  0  0  0  0
   58.7730   28.9780   45.6270 C   0  0  0  0  0  0  0  0  0  0  0  0
   57.4610   28.5290   45.4480 C   0  0  0  0  0  0  0  0  0  0  0  0
   56.4660   29.4210   45.0330 C   0  0  0  0  0  0  0  0  0  0  0  0
   55.1630   28.9720   44.8540 O   0  0  0  0  0  0  0  0  0  0  0  0
   56.7840   30.7630   44.7940 C   0  0  0  0  0  0  0  0  0  0  0  0
   59.6380   34.2290   46.3260 C   0  0  0  0  0  0  0  0  0  0  0  0
   59.4690   35.4420   46.6160 O   0  0  0  0  0  0  0  0  0  0  0  0
   61.0390   33.6830   46.3250 C   0  0  0  0  0  0  0  0  0  0  0  0
   61.2540   32.8530   47.4650 O   0  0  0  0  0  0  0  0  0  0  0  0
   60.3280   32.6380   48.4970 C   0  0  0  0  0  0  0  0  0  0  0  0
   59.5220   31.4860   48.5670 C   0  0  0  0  0  0  0  0  0  0  0  0
   58.6020   31.3320   49.6080 C   0  0  0  0  0  0  0  0  0  0  0  0
   58.4670   32.3190   50.5920 C   0  0  0  0  0  0  0  0  0  0  0  0
   57.4980   32.1230   51.6300 N   0  0  0  0  0  0  0  0  0  0  0  0
   56.8720   30.5930   52.1590 S   0  0  0  0  0  0  0  0  0  0  0  0
   56.8460   30.5260   53.9390 C   0  0  0  0  0  0  0  0  0  0  0  0
   55.4650   30.4480   51.6520 O   0  0  0  0  0  0  0  0  0  0  0  0
   57.7070   29.4750   51.6000 O   0  0  0  0  0  0  0  0  0  0  0  0
   59.2850   33.4620   50.5320 C   0  0  0  0  0  0  0  0  0  0  0  0
   60.2080   33.6130   49.4930 C   0  0  0  0  0  0  0  0  0  0  0  0
   57.7725   33.3497   47.9439 H   0  0  0  0  0  0  0  0  0  0  0  0
   56.6948   34.1575   46.7554 H   0  0  0  0  0  0  0  0  0  0  0  0
   56.8504   32.3680   46.7554 H   0  0  0  0  0  0  0  0  0  0  0  0
   57.6969   33.1073   44.0458 H   0  0  0  0  0  0  0  0  0  0  0  0
   59.4471   32.7066   44.2301 H   0  0  0  0  0  0  0  0  0  0  0  0
   60.1276   30.6668   45.5320 H   0  0  0  0  0  0  0  0  0  0  0  0
   59.5531   28.2766   45.9580 H   0  0  0  0  0  0  0  0  0  0  0  0
   57.2109   27.4740   45.6335 H   0  0  0  0  0  0  0  0  0  0  0  0
   55.9982   31.4643   44.4768 H   0  0  0  0  0  0  0  0  0  0  0  0
   61.1957   33.0906   45.4115 H   0  0  0  0  0  0  0  0  0  0  0  0
   61.7478   34.5235   46.3590 H   0  0  0  0  0  0  0  0  0  0  0  0
   59.6166   30.7038   47.7994 H   0  0  0  0  0  0  0  0  0  0  0  0
   57.9783   30.4271   49.6546 H   0  0  0  0  0  0  0  0  0  0  0  0
   57.2155   31.4783   54.3472 H   0  0  0  0  0  0  0  0  0  0  0  0
   55.8159   30.3541   54.2844 H   0  0  0  0  0  0  0  0  0  0  0  0
   57.4905   29.7042   54.2844 H   0  0  0  0  0  0  0  0  0  0  0  0
   59.1980   34.2395   51.3052 H   0  0  0  0  0  0  0  0  0  0  0  0
   60.8467   34.5079   49.4582 H   0  0  0  0  0  0  0  0  0  0  0  0
  1  2  1  0
  2  3  1  0
  3  4  1  0
  4  5  2  0
  5  6  1  0
  6  7  2  0
  7  8  1  0
  8  9  1  0
  8 10  2  0
  2 11  1  0
 11 12  2  0
 11 13  1  0
 13 14  1  0
 14 15  1  0
 15 16  2  0
 16 17  1  0
 17 18  2  0
 18 19  1  0
 19 20  1  0
 20 21  1  0
 20 22  2  0
 20 23  2  0
 18 24  1  0
 24 25  2  0
 10  4  1  0
 25 15  1  0
  1 26  1  0
  1 27  1  0
  1 28  1  0
  3 29  1  0
  3 30  1  0
  5 31  1  0
  6 32  1  0
  7 33  1  0
 10 34  1  0
 13 35  1  0
 13 36  1  0
 16 37  1  0
 17 38  1  0
 21 39  1  0
 21 40  1  0
 21 41  1  0
 24 42  1  0
 25 43  1  0
M  CHG  2   9  -1  19  -1
M  END
>  <UniqueID>  (72) 
67

>  <SMILES>  (72) 
CN(Cc1cccc([O-])c1)C(=O)COc1ccc([N-]S(C)(=O)=O)cc1

>  <Energy>  (72) 
39.9894292998115

>  <Genealogy>  (72) 
CN(Cc1cccc([O-])c1)C(=O)COc1ccc([N-]S(C)(=O)=O)cc1 (protonated)
CN(Cc1cccc([O-])c1)C(=O)COc1ccc([N-]S(C)(=O)=O)cc1 (3D coordinates assigned)
CN(Cc1cccc([O-])c1)C(=O)COc1ccc([N-]S(C)(=O)=O)cc1 (optimized conformer: 39.9894292998115 kcal/mol)

>  <smiles>  (72) 
CN(Cc1cccc(O)c1)C(=O)COc1ccc(NS(C)(=O)=O)cc1

>  <score_type>  (72) 
oracle

>  <origin>  (72) 
adg

>  <m_score__min__energy>  (72) 
-12.31

>  <m_primary>  (72) 
energy

$$$$
72:0
     RDKit          3D

 39 41  0  0  0  0  0  0  0  0999 V2000
   60.4160   28.3240   51.4750 C   0  0  0  0  0  0  0  0  0  0  0  0
   60.2950   28.5310   49.9950 C   0  0  0  0  0  0  0  0  0  0  0  0
   60.6750   27.5130   49.1070 C   0  0  0  0  0  0  0  0  0  0  0  0
   60.5160   27.6840   47.7290 C   0  0  0  0  0  0  0  0  0  0  0  0
   59.9390   28.8600   47.2200 C   0  0  0  0  0  0  0  0  0  0  0  0
   59.7600   29.0520   45.7340 C   0  0  0  0  0  0  0  0  0  0  0  0
   58.5090   29.8310   45.4030 C   0  0  0  0  0  0  0  0  0  0  0  0
   58.4680   31.1390   45.7750 N   0  0  0  0  0  0  0  0  0  0  0  0
   57.3940   31.9220   45.5130 C   0  0  0  0  0  0  0  0  0  0  0  0
   57.3930   33.4860   45.9810 S   0  0  0  0  0  0  0  0  0  0  0  0
   56.3250   31.4100   44.8610 N   0  0  0  0  0  0  0  0  0  0  0  0
   56.3010   30.1150   44.4590 C   0  0  0  0  0  0  0  0  0  0  0  0
   55.2890   29.6850   43.8420 O   0  0  0  0  0  0  0  0  0  0  0  0
   57.4000   29.2690   44.7200 C   0  0  0  0  0  0  0  0  0  0  0  0
   57.3830   27.8280   44.2340 C   0  0  0  0  0  0  0  0  0  0  0  0
   57.5370   26.7990   45.3390 C   0  0  0  0  0  0  0  0  0  0  0  0
   58.7600   26.1350   45.5730 C   0  0  0  0  0  0  0  0  0  0  0  0
   58.8670   25.1810   46.5890 C   0  0  0  0  0  0  0  0  0  0  0  0
   57.7550   24.8540   47.3640 C   0  0  0  0  0  0  0  0  0  0  0  0
   56.5290   25.4740   47.1210 C   0  0  0  0  0  0  0  0  0  0  0  0
   56.4120   26.4350   46.1100 C   0  0  0  0  0  0  0  0  0  0  0  0
   55.1740   27.0260   45.8820 O   0  0  0  0  0  0  0  0  0  0  0  0
   59.5750   29.8840   48.1100 C   0  0  0  0  0  0  0  0  0  0  0  0
   59.7400   29.7140   49.4880 C   0  0  0  0  0  0  0  0  0  0  0  0
   59.9290   29.1572   52.0028 H   0  0  0  0  0  0  0  0  0  0  0  0
   59.9285   27.3782   51.7540 H   0  0  0  0  0  0  0  0  0  0  0  0
   61.4793   28.2847   51.7540 H   0  0  0  0  0  0  0  0  0  0  0  0
   61.0999   26.5764   49.4972 H   0  0  0  0  0  0  0  0  0  0  0  0
   60.8445   26.8932   47.0386 H   0  0  0  0  0  0  0  0  0  0  0  0
   60.6306   29.5971   45.3404 H   0  0  0  0  0  0  0  0  0  0  0  0
   59.6678   28.0567   45.2749 H   0  0  0  0  0  0  0  0  0  0  0  0
   56.4252   27.6467   43.7243 H   0  0  0  0  0  0  0  0  0  0  0  0
   58.2491   27.7084   43.5665 H   0  0  0  0  0  0  0  0  0  0  0  0
   59.6362   26.3701   44.9509 H   0  0  0  0  0  0  0  0  0  0  0  0
   59.8314   24.6867   46.7777 H   0  0  0  0  0  0  0  0  0  0  0  0
   57.8443   24.1074   48.1668 H   0  0  0  0  0  0  0  0  0  0  0  0
   55.6505   25.2065   47.7265 H   0  0  0  0  0  0  0  0  0  0  0  0
   59.1580   30.8245   47.7208 H   0  0  0  0  0  0  0  0  0  0  0  0
   59.4324   30.5134   50.1782 H   0  0  0  0  0  0  0  0  0  0  0  0
  1  2  1  0
  2  3  2  0
  3  4  1  0
  4  5  2  0
  5  6  1  0
  6  7  1  0
  7  8  1  0
  8  9  1  0
  9 10  2  0
  9 11  1  0
 11 12  1  0
 12 13  2  0
 12 14  1  0
 14 15  1  0
 15 16  1  0
 16 17  2  0
 17 18  1  0
 18 19  2  0
 19 20  1  0
 20 21  2  0
 21 22  1  0
  5 23  1  0
 23 24  2  0
 24  2  1  0
 14  7  2  0
 21 16  1  0
  1 25  1  0
  1 26  1  0
  1 27  1  0
  3 28  1  0
  4 29  1  0
  6 30  1  0
  6 31  1  0
 15 32  1  0
 15 33  1  0
 17 34  1  0
 18 35  1  0
 19 36  1  0
 20 37  1  0
 23 38  1  0
 24 39  1  0
M  CHG  3   8  -1  11  -1  22  -1
M  END
>  <UniqueID>  (73) 
68

>  <SMILES>  (73) 
Cc1ccc(Cc2[n-]c(=S)[n-]c(=O)c2Cc2ccccc2[O-])cc1

>  <Energy>  (73) 
41.544444147782954

>  <Genealogy>  (73) 
Cc1ccc(Cc2[n-]c(=S)[n-]c(=O)c2Cc2ccccc2[O-])cc1 (protonated)
Cc1ccc(Cc2[n-]c(=S)[n-]c(=O)c2Cc2ccccc2[O-])cc1 (3D coordinates assigned)
Cc1ccc(Cc2[n-]c(=S)[n-]c(=O)c2Cc2ccccc2[O-])cc1 (optimized conformer: 41.544444147782954 kcal/mol)

>  <smiles>  (73) 
Cc1ccc(Cc2[nH]c(=S)[nH]c(=O)c2Cc2ccccc2O)cc1

>  <score_type>  (73) 
oracle

>  <origin>  (73) 
adg

>  <m_score__min__energy>  (73) 
-13.32

>  <m_primary>  (73) 
energy

$$$$
73:0
     RDKit          3D

 50 53  0  0  0  0  0  0  0  0999 V2000
   59.8120   26.3920   47.4320 C   0  0  0  0  0  0  0  0  0  0  0  0
   58.5390   26.8040   46.7380 C   0  0  0  0  0  0  0  0  0  0  0  0
   57.3930   26.0110   46.8850 C   0  0  0  0  0  0  0  0  0  0  0  0
   56.2130   26.3870   46.2430 C   0  0  0  0  0  0  0  0  0  0  0  0
   55.1780   25.6820   46.3670 O   0  0  0  0  0  0  0  0  0  0  0  0
   56.1730   27.4850   45.4990 O   0  0  0  0  0  0  0  0  0  0  0  0
   57.2260   28.2810   45.3200 C   0  0  0  0  0  0  0  0  0  0  0  0
   57.1030   29.4340   44.5180 C   0  0  0  0  0  0  0  0  0  0  0  0
   55.7950   29.7490   43.8360 C   0  0  0  0  0  0  0  0  0  0  0  0
   58.2290   30.2540   44.2900 C   0  0  0  0  0  0  0  0  0  0  0  0
   58.0940   31.3700   43.4430 O   0  0  0  0  0  0  0  0  0  0  0  0
   57.4130   32.5800   43.7690 C   0  0  0  0  0  0  0  0  0  0  0  0
   58.1350   33.3080   44.8590 C   0  0  0  0  0  0  0  0  0  0  0  0
   58.3940   32.8370   46.1270 C   0  0  0  0  0  0  0  0  0  0  0  0
   59.0690   33.8830   46.7270 C   0  0  0  0  0  0  0  0  0  0  0  0
   59.5940   33.9300   48.1030 C   0  0  0  0  0  0  0  0  0  0  0  0
   59.3220   34.9270   48.8250 O   0  0  0  0  0  0  0  0  0  0  0  0
   60.4040   32.8650   48.6270 N   0  0  0  0  0  0  0  0  0  0  0  0
   60.8660   32.8460   50.0130 C   0  0  0  0  0  0  0  0  0  0  0  0
   59.6920   32.8080   50.9530 C   0  0  0  0  0  0  0  0  0  0  0  0
   59.5650   33.7840   51.9560 C   0  0  0  0  0  0  0  0  0  0  0  0
   58.4880   33.7420   52.8460 C   0  0  0  0  0  0  0  0  0  0  0  0
   57.5340   32.7260   52.7450 C   0  0  0  0  0  0  0  0  0  0  0  0
   57.6570   31.7490   51.7530 C   0  0  0  0  0  0  0  0  0  0  0  0
   58.7320   31.7870   50.8610 C   0  0  0  0  0  0  0  0  0  0  0  0
   59.1840   34.9050   45.8550 N   0  0  0  0  0  0  0  0  0  0  0  0
   58.6130   34.5250   44.7480 O   0  0  0  0  0  0  0  0  0  0  0  0
   59.4490   29.9360   44.9120 C   0  0  0  0  0  0  0  0  0  0  0  0
   59.5650   28.8120   45.7250 C   0  0  0  0  0  0  0  0  0  0  0  0
   58.4620   27.9660   45.9360 C   0  0  0  0  0  0  0  0  0  0  0  0
   59.6674   26.4388   48.5214 H   0  0  0  0  0  0  0  0  0  0  0  0
   60.0723   25.3638   47.1405 H   0  0  0  0  0  0  0  0  0  0  0  0
   60.6254   27.0728   47.1405 H   0  0  0  0  0  0  0  0  0  0  0  0
   57.4237   25.1002   47.5011 H   0  0  0  0  0  0  0  0  0  0  0  0
   55.0212   29.9354   44.5952 H   0  0  0  0  0  0  0  0  0  0  0  0
   55.9153   30.6439   43.2077 H   0  0  0  0  0  0  0  0  0  0  0  0
   55.4947   28.8975   43.2077 H   0  0  0  0  0  0  0  0  0  0  0  0
   57.3644   33.2204   42.8760 H   0  0  0  0  0  0  0  0  0  0  0  0
   56.3978   32.3358   44.1149 H   0  0  0  0  0  0  0  0  0  0  0  0
   58.1273   31.8612   46.5590 H   0  0  0  0  0  0  0  0  0  0  0  0
   60.6920   32.0760   48.0080 H   0  0  0  0  0  0  0  0  0  0  0  0
   61.4902   31.9550   50.1755 H   0  0  0  0  0  0  0  0  0  0  0  0
   61.4518   33.7564   50.2079 H   0  0  0  0  0  0  0  0  0  0  0  0
   60.3156   34.5836   52.0410 H   0  0  0  0  0  0  0  0  0  0  0  0
   58.3913   34.5102   53.6274 H   0  0  0  0  0  0  0  0  0  0  0  0
   56.6867   32.6951   53.4458 H   0  0  0  0  0  0  0  0  0  0  0  0
   56.9063   30.9488   51.6743 H   0  0  0  0  0  0  0  0  0  0  0  0
   58.8267   31.0143   50.0838 H   0  0  0  0  0  0  0  0  0  0  0  0
   60.3237   30.5841   44.7541 H   0  0  0  0  0  0  0  0  0  0  0  0
   60.5274   28.5838   46.2063 H   0  0  0  0  0  0  0  0  0  0  0  0
  1  2  1  0
  2  3  2  0
  3  4  1  0
  4  5  2  0
  4  6  1  0
  6  7  1  0
  7  8  2  0
  8  9  1  0
  8 10  1  0
 10 11  1  0
 11 12  1  0
 12 13  1  0
 13 14  2  0
 14 15  1  0
 15 16  1  0
 16 17  2  0
 16 18  1  0
 18 19  1  0
 19 20  1  0
 20 21  2  0
 21 22  1  0
 22 23  2  0
 23 24  1  0
 24 25  2  0
 15 26  2  0
 26 27  1  0
 10 28  2  0
 28 29  1  0
 29 30  2  0
 30  2  1  0
 30  7  1  0
 27 13  1  0
 25 20  1  0
  1 31  1  0
  1 32  1  0
  1 33  1  0
  3 34  1  0
  9 35  1  0
  9 36  1  0
  9 37  1  0
 12 38  1  0
 12 39  1  0
 14 40  1  0
 18 41  1  0
 19 42  1  0
 19 43  1  0
 21 44  1  0
 22 45  1  0
 23 46  1  0
 24 47  1  0
 25 48  1  0
 28 49  1  0
 29 50  1  0
M  END
>  <UniqueID>  (74) 
69

>  <SMILES>  (74) 
Cc1cc(=O)oc2c(C)c(OCc3cc(C(=O)NCc4ccccc4)no3)ccc12

>  <Energy>  (74) 
86.97959491058904

>  <Genealogy>  (74) 
Cc1cc(=O)oc2c(C)c(OCc3cc(C(=O)NCc4ccccc4)no3)ccc12 (3D coordinates assigned)
Cc1cc(=O)oc2c(C)c(OCc3cc(C(=O)NCc4ccccc4)no3)ccc12 (optimized conformer: 86.97959491058904 kcal/mol)

>  <smiles>  (74) 
Cc1cc(=O)oc2c(C)c(OCc3cc(C(=O)NCc4ccccc4)no3)ccc12

>  <score_type>  (74) 
oracle

>  <origin>  (74) 
adg

>  <m_score__min__energy>  (74) 
-8.9600000000000009

>  <m_primary>  (74) 
energy

$$$$
74:0
     RDKit          3D

 81 85  0  0  0  0  0  0  0  0999 V2000
   55.6490   27.4250   45.6260 O   0  0  0  0  0  0  0  0  0  0  0  0
   56.2810   26.3570   45.8600 C   0  0  0  0  0  0  0  0  0  0  0  0
   55.5440   25.1510   46.1650 N   0  0  0  0  0  0  0  0  0  0  0  0
   54.6200   24.4680   45.2330 C   0  0  1  0  0  0  0  0  0  0  0  0
   55.4010   23.8810   44.0390 C   0  0  0  0  0  0  0  0  0  0  0  0
   56.5610   23.0390   44.4940 C   0  0  0  0  0  0  0  0  0  0  0  0
   56.3290   21.7900   45.0910 C   0  0  0  0  0  0  0  0  0  0  0  0
   57.4080   21.0270   45.5570 C   0  0  0  0  0  0  0  0  0  0  0  0
   58.7220   21.5020   45.4450 C   0  0  0  0  0  0  0  0  0  0  0  0
   58.9430   22.7520   44.8670 C   0  0  0  0  0  0  0  0  0  0  0  0
   57.8780   23.5190   44.3840 C   0  0  0  0  0  0  0  0  0  0  0  0
   53.7670   23.4500   45.9800 C   0  0  0  0  0  0  0  0  0  0  0  0
   53.9090   23.2790   47.2170 O   0  0  0  0  0  0  0  0  0  0  0  0
   52.8400   22.6680   45.2880 O   0  0  0  0  0  0  0  0  0  0  0  0
   57.7480   26.2910   45.7290 C   0  0  0  0  0  0  0  0  0  0  0  0
   58.6500   25.8520   46.8430 C   0  0  0  0  0  0  0  0  0  0  0  0
   59.1880   26.9800   47.6670 C   0  0  0  0  0  0  0  0  0  0  0  0
   58.4900   28.2070   47.7440 C   0  0  0  0  0  0  0  0  0  0  0  0
   58.9470   29.1760   48.6470 C   0  0  0  0  0  0  0  0  0  0  0  0
   60.0780   28.9460   49.4390 C   0  0  0  0  0  0  0  0  0  0  0  0
   60.7660   27.7360   49.3310 C   0  0  0  0  0  0  0  0  0  0  0  0
   60.3250   26.7490   48.4600 C   0  0  0  0  0  0  0  0  0  0  0  0
   58.4050   26.8160   44.7120 N   0  0  0  0  0  0  0  0  0  0  0  0
   58.2460   28.0810   44.0960 C   0  0  0  0  0  0  0  0  0  0  0  0
   57.4230   28.1310   42.9750 C   0  0  0  0  0  0  0  0  0  0  0  0
   56.6430   29.2660   42.7100 C   0  0  0  0  0  0  0  0  0  0  0  0
   56.7080   30.3920   43.5530 C   0  0  0  0  0  0  0  0  0  0  0  0
   57.6310   30.3630   44.6370 C   0  0  0  0  0  0  0  0  0  0  0  0
   57.7930   31.5260   45.4420 N   0  0  0  0  0  0  0  0  0  0  0  0
   58.0780   32.7730   44.7920 C   0  0  0  0  0  0  0  0  0  0  0  0
   57.3060   33.2260   43.8930 O   0  0  0  0  0  0  0  0  0  0  0  0
   59.2600   33.6240   45.2050 C   0  0  1  0  0  0  0  0  0  0  0  0
   59.1260   35.1210   44.9440 C   0  0  0  0  0  0  0  0  0  0  0  0
   60.0020   35.7650   46.0200 C   0  0  0  0  0  0  0  0  0  0  0  0
   60.4840   34.6110   46.8870 C   0  0  0  0  0  0  0  0  0  0  0  0
   59.5770   33.5200   46.6350 N   0  0  0  0  0  0  0  0  0  0  0  0
   58.5850   33.3010   47.6420 C   0  0  0  0  0  0  0  0  0  0  0  0
   57.3790   33.1690   47.3170 O   0  0  0  0  0  0  0  0  0  0  0  0
   58.9510   33.2720   48.9790 O   0  0  0  0  0  0  0  0  0  0  0  0
   59.7650   32.2550   49.5430 C   0  0  0  0  0  0  0  0  0  0  0  0
   61.1850   32.4130   49.0390 C   0  0  0  0  0  0  0  0  0  0  0  0
   61.9850   33.4650   49.5180 C   0  0  0  0  0  0  0  0  0  0  0  0
   63.2610   33.6820   48.9780 C   0  0  0  0  0  0  0  0  0  0  0  0
   63.7340   32.8480   47.9490 C   0  0  0  0  0  0  0  0  0  0  0  0
   62.9460   31.7800   47.4750 C   0  0  0  0  0  0  0  0  0  0  0  0
   61.6670   31.5690   48.0040 C   0  0  0  0  0  0  0  0  0  0  0  0
   58.4140   29.2260   44.8750 C   0  0  0  0  0  0  0  0  0  0  0  0
   53.9135   25.1942   44.8046 H   0  0  0  0  0  0  0  0  0  0  0  0
   54.7210   23.2575   43.4400 H   0  0  0  0  0  0  0  0  0  0  0  0
   55.7964   24.7169   43.4432 H   0  0  0  0  0  0  0  0  0  0  0  0
   55.3015   21.4107   45.1929 H   0  0  0  0  0  0  0  0  0  0  0  0
   57.2218   20.0447   46.0157 H   0  0  0  0  0  0  0  0  0  0  0  0
   59.5666   20.8977   45.8077 H   0  0  0  0  0  0  0  0  0  0  0  0
   59.9694   23.1400   44.7900 H   0  0  0  0  0  0  0  0  0  0  0  0
   58.0705   24.4969   43.9185 H   0  0  0  0  0  0  0  0  0  0  0  0
   58.0827   25.1800   47.5038 H   0  0  0  0  0  0  0  0  0  0  0  0
   59.5143   25.3555   46.3777 H   0  0  0  0  0  0  0  0  0  0  0  0
   57.6105   28.3962   47.1111 H   0  0  0  0  0  0  0  0  0  0  0  0
   58.4091   30.1315   48.7348 H   0  0  0  0  0  0  0  0  0  0  0  0
   60.4236   29.7162   50.1442 H   0  0  0  0  0  0  0  0  0  0  0  0
   61.6649   27.5633   49.9411 H   0  0  0  0  0  0  0  0  0  0  0  0
   60.8624   25.7917   48.3910 H   0  0  0  0  0  0  0  0  0  0  0  0
   57.3838   27.2715   42.2897 H   0  0  0  0  0  0  0  0  0  0  0  0
   55.9748   29.2767   41.8363 H   0  0  0  0  0  0  0  0  0  0  0  0
   56.0652   31.2676   43.3794 H   0  0  0  0  0  0  0  0  0  0  0  0
   58.2020   31.3570   46.4140 H   0  0  0  0  0  0  0  0  0  0  0  0
   60.0489   33.2029   44.5645 H   0  0  0  0  0  0  0  0  0  0  0  0
   59.4909   35.3766   43.9383 H   0  0  0  0  0  0  0  0  0  0  0  0
   58.0823   35.4659   44.9858 H   0  0  0  0  0  0  0  0  0  0  0  0
   60.8557   36.2855   45.5615 H   0  0  0  0  0  0  0  0  0  0  0  0
   59.4494   36.5151   46.6048 H   0  0  0  0  0  0  0  0  0  0  0  0
   61.5099   34.3271   46.6098 H   0  0  0  0  0  0  0  0  0  0  0  0
   60.4984   34.8855   47.9521 H   0  0  0  0  0  0  0  0  0  0  0  0
   59.7527   32.3405   50.6396 H   0  0  0  0  0  0  0  0  0  0  0  0
   59.3776   31.2681   49.2498 H   0  0  0  0  0  0  0  0  0  0  0  0
   61.6093   34.1195   50.3183 H   0  0  0  0  0  0  0  0  0  0  0  0
   63.8893   34.5012   49.3577 H   0  0  0  0  0  0  0  0  0  0  0  0
   64.7263   33.0307   47.5109 H   0  0  0  0  0  0  0  0  0  0  0  0
   63.3350   31.1136   46.6911 H   0  0  0  0  0  0  0  0  0  0  0  0
   61.0381   30.7526   47.6193 H   0  0  0  0  0  0  0  0  0  0  0  0
   59.1643   29.2361   45.6793 H   0  0  0  0  0  0  0  0  0  0  0  0
  1  2  2  0
  2  3  1  0
  3  4  1  0
  4  5  1  0
  5  6  1  0
  6  7  2  0
  7  8  1  0
  8  9  2  0
  9 10  1  0
 10 11  2  0
  4 12  1  0
 12 13  2  0
 12 14  1  0
  2 15  1  0
 15 16  1  0
 16 17  1  0
 17 18  2  0
 18 19  1  0
 19 20  2  0
 20 21  1  0
 21 22  2  0
 15 23  2  3
 23 24  1  0
 24 25  2  0
 25 26  1  0
 26 27  2  0
 27 28  1  0
 28 29  1  0
 29 30  1  0
 30 31  2  0
 30 32  1  0
 32 33  1  0
 33 34  1  0
 34 35  1  0
 35 36  1  0
 36 37  1  0
 37 38  2  0
 37 39  1  0
 39 40  1  0
 40 41  1  0
 41 42  2  0
 42 43  1  0
 43 44  2  0
 44 45  1  0
 45 46  2  0
 28 47  2  0
 11  6  1  0
 22 17  1  0
 47 24  1  0
 36 32  1  0
 46 41  1  0
  4 48  1  6
  5 49  1  0
  5 50  1  0
  7 51  1  0
  8 52  1  0
  9 53  1  0
 10 54  1  0
 11 55  1  0
 16 56  1  0
 16 57  1  0
 18 58  1  0
 19 59  1  0
 20 60  1  0
 21 61  1  0
 22 62  1  0
 25 63  1  0
 26 64  1  0
 27 65  1  0
 29 66  1  0
 32 67  1  6
 33 68  1  0
 33 69  1  0
 34 70  1  0
 34 71  1  0
 35 72  1  0
 35 73  1  0
 40 74  1  0
 40 75  1  0
 42 76  1  0
 43 77  1  0
 44 78  1  0
 45 79  1  0
 46 80  1  0
 47 81  1  0
M  CHG  2   3  -1  14  -1
M  END
>  <UniqueID>  (75) 
70

>  <SMILES>  (75) 
O=C([N-][C@@H](Cc1ccccc1)C(=O)[O-])C(Cc1ccccc1)=Nc1cccc(NC(=O)[C@H]2CCCN2C(=O)OCc2ccccc2)c1

>  <Energy>  (75) 
144.48501426455593

>  <Genealogy>  (75) 
O=C([N-]C(Cc1ccccc1)C(=O)[O-])C(Cc1ccccc1)=Nc1cccc(NC(=O)C2CCCN2C(=O)OCc2ccccc2)c1 (protonated)
O=C([N-][C@@H](Cc1ccccc1)C(=O)[O-])C(Cc1ccccc1)=Nc1cccc(NC(=O)[C@H]2CCCN2C(=O)OCc2ccccc2)c1 (chirality)
O=C([N-][C@@H](Cc1ccccc1)C(=O)[O-])C(Cc1ccccc1)=Nc1cccc(NC(=O)[C@H]2CCCN2C(=O)OCc2ccccc2)c1 (3D coordinates assigned)
O=C([N-][C@@H](Cc1ccccc1)C(=O)[O-])C(Cc1ccccc1)=Nc1cccc(NC(=O)[C@H]2CCCN2C(=O)OCc2ccccc2)c1 (nonaromatic ring conformer: 144.48501426455593 kcal/mol)

>  <smiles>  (75) 
O=C(NC(Cc1ccccc1)C(=O)O)C(Cc1ccccc1)=Nc1cccc(NC(=O)C2CCCN2C(=O)OCc2ccccc2)c1

>  <score_type>  (75) 
oracle

>  <origin>  (75) 
adg

>  <m_score__min__energy>  (75) 
-16.010000000000002

>  <m_primary>  (75) 
energy

$$$$
75:0
     RDKit          3D

 46 48  0  0  0  0  0  0  0  0999 V2000
   55.0940   26.3100   46.1580 N   0  0  0  0  0  0  0  0  0  0  0  0
   56.8070   26.0990   46.0620 S   0  0  0  0  0  0  0  0  0  0  0  0
   57.3400   25.7300   47.4180 O   0  0  0  0  0  0  0  0  0  0  0  0
   57.1230   24.9900   45.1000 O   0  0  0  0  0  0  0  0  0  0  0  0
   57.5560   27.5940   45.5040 C   0  0  0  0  0  0  0  0  0  0  0  0
   58.8930   27.5930   45.0870 C   0  0  0  0  0  0  0  0  0  0  0  0
   59.4790   28.7650   44.5990 C   0  0  0  0  0  0  0  0  0  0  0  0
   58.7330   29.9440   44.5250 C   0  0  0  0  0  0  0  0  0  0  0  0
   57.4020   29.9630   44.9560 C   0  0  0  0  0  0  0  0  0  0  0  0
   56.6490   31.1730   44.8190 N   0  0  0  0  0  0  0  0  0  0  0  0
   57.1960   32.4480   44.4750 C   0  0  0  0  0  0  0  0  0  0  0  0
   57.8440   32.6000   43.4040 O   0  0  0  0  0  0  0  0  0  0  0  0
   57.0290   33.5940   45.4190 C   0  0  0  0  0  0  0  0  0  0  0  0
   58.3180   33.8100   46.1580 C   0  0  0  0  0  0  0  0  0  0  0  0
   59.4980   34.0800   45.4530 C   0  0  0  0  0  0  0  0  0  0  0  0
   60.7190   34.1510   46.1250 C   0  0  0  0  0  0  0  0  0  0  0  0
   60.7790   33.9370   47.5160 C   0  0  0  0  0  0  0  0  0  0  0  0
   61.9870   33.9470   48.2300 O   0  0  0  0  0  0  0  0  0  0  0  0
   62.7930   32.7960   48.4930 C   0  0  0  0  0  0  0  0  0  0  0  0
   61.9370   31.5550   48.5300 C   0  0  0  0  0  0  0  0  0  0  0  0
   61.5090   31.0360   49.7650 C   0  0  0  0  0  0  0  0  0  0  0  0
   60.6850   29.9110   49.8070 C   0  0  0  0  0  0  0  0  0  0  0  0
   60.2840   29.2910   48.6200 C   0  0  0  0  0  0  0  0  0  0  0  0
   60.7220   29.7880   47.3890 C   0  0  0  0  0  0  0  0  0  0  0  0
   61.5470   30.9140   47.3420 C   0  0  0  0  0  0  0  0  0  0  0  0
   59.5960   33.6920   48.2210 C   0  0  0  0  0  0  0  0  0  0  0  0
   58.3760   33.6190   47.5480 C   0  0  0  0  0  0  0  0  0  0  0  0
   56.8110   28.7790   45.4330 C   0  0  0  0  0  0  0  0  0  0  0  0
   54.7860   26.7110   45.2430 H   0  0  0  0  0  0  0  0  0  0  0  0
   59.4841   26.6671   45.1436 H   0  0  0  0  0  0  0  0  0  0  0  0
   60.5295   28.7587   44.2727 H   0  0  0  0  0  0  0  0  0  0  0  0
   59.1935   30.8601   44.1267 H   0  0  0  0  0  0  0  0  0  0  0  0
   56.7707   34.5022   44.8546 H   0  0  0  0  0  0  0  0  0  0  0  0
   56.2231   33.3722   46.1341 H   0  0  0  0  0  0  0  0  0  0  0  0
   59.4620   34.2368   44.3648 H   0  0  0  0  0  0  0  0  0  0  0  0
   61.6392   34.3752   45.5656 H   0  0  0  0  0  0  0  0  0  0  0  0
   63.5479   32.6926   47.6996 H   0  0  0  0  0  0  0  0  0  0  0  0
   63.2861   32.9198   49.4685 H   0  0  0  0  0  0  0  0  0  0  0  0
   61.8251   31.5189   50.7014 H   0  0  0  0  0  0  0  0  0  0  0  0
   60.3503   29.5112   50.7756 H   0  0  0  0  0  0  0  0  0  0  0  0
   59.6237   28.4119   48.6546 H   0  0  0  0  0  0  0  0  0  0  0  0
   60.4165   29.2916   46.4561 H   0  0  0  0  0  0  0  0  0  0  0  0
   61.8926   31.3003   46.3718 H   0  0  0  0  0  0  0  0  0  0  0  0
   59.6277   33.5561   49.3121 H   0  0  0  0  0  0  0  0  0  0  0  0
   57.4536   33.4105   48.1099 H   0  0  0  0  0  0  0  0  0  0  0  0
   55.7583   28.7832   45.7520 H   0  0  0  0  0  0  0  0  0  0  0  0
  1  2  1  0
  2  3  2  0
  2  4  2  0
  2  5  1  0
  5  6  2  0
  6  7  1  0
  7  8  2  0
  8  9  1  0
  9 10  1  0
 10 11  1  0
 11 12  2  0
 11 13  1  0
 13 14  1  0
 14 15  2  0
 15 16  1  0
 16 17  2  0
 17 18  1  0
 18 19  1  0
 19 20  1  0
 20 21  2  0
 21 22  1  0
 22 23  2  0
 23 24  1  0
 24 25  2  0
 17 26  1  0
 26 27  2  0
  9 28  2  0
 28  5  1  0
 27 14  1  0
 25 20  1  0
  1 29  1  0
  6 30  1  0
  7 31  1  0
  8 32  1  0
 13 33  1  0
 13 34  1  0
 15 35  1  0
 16 36  1  0
 19 37  1  0
 19 38  1  0
 21 39  1  0
 22 40  1  0
 23 41  1  0
 24 42  1  0
 25 43  1  0
 26 44  1  0
 27 45  1  0
 28 46  1  0
M  CHG  2   1  -1  10  -1
M  END
>  <UniqueID>  (76) 
71

>  <SMILES>  (76) 
[NH-]S(=O)(=O)c1cccc([N-]C(=O)Cc2ccc(OCc3ccccc3)cc2)c1

>  <Energy>  (76) 
48.52632721334951

>  <Genealogy>  (76) 
[NH-]S(=O)(=O)c1cccc([N-]C(=O)Cc2ccc(OCc3ccccc3)cc2)c1 (protonated)
[NH-]S(=O)(=O)c1cccc([N-]C(=O)Cc2ccc(OCc3ccccc3)cc2)c1 (3D coordinates assigned)
[NH-]S(=O)(=O)c1cccc([N-]C(=O)Cc2ccc(OCc3ccccc3)cc2)c1 (optimized conformer: 48.52632721334951 kcal/mol)

>  <smiles>  (76) 
NS(=O)(=O)c1cccc(NC(=O)Cc2ccc(OCc3ccccc3)cc2)c1

>  <score_type>  (76) 
oracle

>  <origin>  (76) 
adg

>  <m_score__min__energy>  (76) 
-13.779999999999999

>  <m_primary>  (76) 
energy

$$$$
76:0
     RDKit          3D

 38 40  0  0  0  0  0  0  0  0999 V2000
   54.4260   29.3400   45.3150 H   0  0  0  0  0  0  0  0  0  0  0  0
   55.1400   28.9650   44.6520 N   0  0  0  0  0  0  0  0  0  0  0  0
   56.2720   29.7460   44.2730 C   0  0  0  0  0  0  0  0  0  0  0  0
   56.0980   30.7370   43.5130 O   0  0  0  0  0  0  0  0  0  0  0  0
   57.6360   29.4270   44.7780 C   0  0  0  0  0  0  0  0  0  0  0  0
   58.1980   28.1720   44.4700 C   0  0  0  0  0  0  0  0  0  0  0  0
   57.6209   27.4512   43.8723 H   0  0  0  0  0  0  0  0  0  0  0  0
   59.4770   27.8310   44.9130 C   0  0  0  0  0  0  0  0  0  0  0  0
   59.9047   26.8509   44.6550 H   0  0  0  0  0  0  0  0  0  0  0  0
   60.2120   28.7300   45.6810 C   0  0  0  0  0  0  0  0  0  0  0  0
   61.2192   28.4593   46.0307 H   0  0  0  0  0  0  0  0  0  0  0  0
   59.6720   29.9730   46.0070 C   0  0  0  0  0  0  0  0  0  0  0  0
   60.2485   30.6690   46.6340 H   0  0  0  0  0  0  0  0  0  0  0  0
   58.3980   30.3470   45.5430 C   0  0  0  0  0  0  0  0  0  0  0  0
   57.8270   31.5960   45.9680 N   0  0  0  0  0  0  0  0  0  0  0  0
   58.4420   32.7360   46.1320 C   0  0  0  0  0  0  0  0  0  0  0  0
   58.4880   33.7290   45.1330 C   0  0  0  0  0  0  0  0  0  0  0  0
   57.9968   33.5624   44.1630 H   0  0  0  0  0  0  0  0  0  0  0  0
   59.1620   34.9260   45.3840 C   0  0  0  0  0  0  0  0  0  0  0  0
   59.2118   35.7004   44.6043 H   0  0  0  0  0  0  0  0  0  0  0  0
   59.7560   35.1380   46.5860 N   0  0  0  0  0  0  0  0  0  0  0  0
   59.7070   34.2150   47.5860 C   0  0  0  0  0  0  0  0  0  0  0  0
   60.3730   34.4760   48.8320 N   0  0  0  0  0  0  0  0  0  0  0  0
   60.3900   35.5080   49.0110 H   0  0  0  0  0  0  0  0  0  0  0  0
   59.8470   34.0360   49.6240 H   0  0  0  0  0  0  0  0  0  0  0  0
   61.7190   33.9660   48.7750 C   0  0  0  0  0  0  0  0  0  0  0  0
   62.3050   33.6400   47.5380 C   0  0  0  0  0  0  0  0  0  0  0  0
   61.7235   33.7499   46.6108 H   0  0  0  0  0  0  0  0  0  0  0  0
   63.6230   33.1770   47.4820 C   0  0  0  0  0  0  0  0  0  0  0  0
   64.0736   32.9200   46.5120 H   0  0  0  0  0  0  0  0  0  0  0  0
   64.3690   33.0400   48.6550 C   0  0  0  0  0  0  0  0  0  0  0  0
   65.4048   32.6725   48.6085 H   0  0  0  0  0  0  0  0  0  0  0  0
   63.7990   33.3700   49.8880 C   0  0  0  0  0  0  0  0  0  0  0  0
   64.3877   33.2636   50.8111 H   0  0  0  0  0  0  0  0  0  0  0  0
   62.4820   33.8350   49.9500 C   0  0  0  0  0  0  0  0  0  0  0  0
   62.0401   34.0997   50.9220 H   0  0  0  0  0  0  0  0  0  0  0  0
   59.0460   32.9950   47.3690 C   0  0  0  0  0  0  0  0  0  0  0  0
   59.0026   32.2428   48.1705 H   0  0  0  0  0  0  0  0  0  0  0  0
  1  2  1  0
  2  3  1  0
  3  4  2  0
  3  5  1  0
  5  6  2  0
  6  7  1  0
  6  8  1  0
  8  9  1  0
  8 10  2  0
 10 11  1  0
 10 12  1  0
 12 13  1  0
 12 14  2  0
 14 15  1  0
 15 16  2  0
 16 17  1  0
 17 18  1  0
 17 19  2  0
 19 20  1  0
 19 21  1  0
 21 22  1  0
 22 23  1  0
 23 24  1  0
 23 25  1  0
 23 26  1  0
 26 27  2  0
 27 28  1  0
 27 29  1  0
 29 30  1  0
 29 31  2  0
 31 32  1  0
 31 33  1  0
 33 34  1  0
 33 35  2  0
 35 36  1  0
 22 37  2  0
 37 38  1  0
 14  5  1  0
 37 16  1  0
 35 26  1  0
M  CHG  3   2  -1  21  -1  23   1
M  END
>  <UniqueID>  (77) 
72

>  <SMILES>  (77) 
[NH-]C(=O)c1ccccc1/N=c1\cc[n-]c([NH2+]c2ccccc2)c1

>  <Energy>  (77) 
55.382550673348625

>  <Genealogy>  (77) 
[NH-]C(=O)c1ccccc1N=c1cc[n-]c([NH2+]c2ccccc2)c1 (protonated)
[NH-]C(=O)c1ccccc1/N=c1\cc[n-]c([NH2+]c2ccccc2)c1 (cis-trans isomerization)
[NH-]C(=O)c1ccccc1/N=c1\cc[n-]c([NH2+]c2ccccc2)c1 (3D coordinates assigned)
[NH-]C(=O)c1ccccc1/N=c1\cc[n-]c([NH2+]c2ccccc2)c1 (optimized conformer: 55.382550673348625 kcal/mol)

>  <smiles>  (77) 
NC(=O)c1ccccc1N=c1cc[nH]c(Nc2ccccc2)c1

>  <score_type>  (77) 
oracle

>  <origin>  (77) 
adg

>  <m_score__min__energy>  (77) 
-11.02

>  <m_primary>  (77) 
energy

$$$$
77:0
     RDKit          3D

 44 48  0  0  0  0  0  0  0  0999 V2000
   55.1590   27.0400   45.2620 H   0  0  0  0  0  0  0  0  0  0  0  0
   55.2130   26.3910   46.0790 N   0  0  0  0  0  0  0  0  0  0  0  0
   56.7400   25.5850   45.9850 S   0  0  0  0  0  0  0  0  0  0  0  0
   56.9480   25.0900   44.5810 O   0  0  0  0  0  0  0  0  0  0  0  0
   56.7500   24.4110   46.9240 O   0  0  0  0  0  0  0  0  0  0  0  0
   58.0180   26.7060   46.4370 C   0  0  0  0  0  0  0  0  0  0  0  0
   59.0690   26.9960   45.5530 C   0  0  0  0  0  0  0  0  0  0  0  0
   59.1184   26.4930   44.5760 H   0  0  0  0  0  0  0  0  0  0  0  0
   60.0540   27.9230   45.9110 C   0  0  0  0  0  0  0  0  0  0  0  0
   60.8889   28.1306   45.2256 H   0  0  0  0  0  0  0  0  0  0  0  0
   59.9770   28.5860   47.1410 C   0  0  0  0  0  0  0  0  0  0  0  0
   60.9790   29.5360   47.5050 N   0  0  0  0  0  0  0  0  0  0  0  0
   61.1270   30.7390   47.0280 C   0  0  0  0  0  0  0  0  0  0  0  0
   62.3080   31.4000   47.1340 N   0  0  0  0  0  0  0  0  0  0  0  0
   61.9660   32.6550   46.7650 C   0  0  0  0  0  0  0  0  0  0  0  0
   62.7840   33.6620   46.8420 N   0  0  0  0  0  0  0  0  0  0  0  0
   63.3370   34.1710   48.0920 C   0  0  0  0  0  0  0  0  0  0  0  0
   63.5481   35.1969   47.7559 H   0  0  0  0  0  0  0  0  0  0  0  0
   64.0870   33.1090   48.8740 C   0  0  0  0  0  0  0  0  0  0  0  0
   64.2227   32.1044   48.4469 H   0  0  0  0  0  0  0  0  0  0  0  0
   65.0801   33.0437   49.3426 H   0  0  0  0  0  0  0  0  0  0  0  0
   62.7090   33.5610   49.3320 C   0  0  0  0  0  0  0  0  0  0  0  0
   61.8476   32.8836   49.2361 H   0  0  0  0  0  0  0  0  0  0  0  0
   62.2917   33.9584   50.2690 H   0  0  0  0  0  0  0  0  0  0  0  0
   60.6720   32.7300   46.4060 N   0  0  0  0  0  0  0  0  0  0  0  0
   60.1490   31.5380   46.5210 N   0  0  0  0  0  0  0  0  0  0  0  0
   58.7590   31.7210   46.7680 C   0  0  0  0  0  0  0  0  0  0  0  0
   57.7980   30.8660   46.3970 C   0  0  0  0  0  0  0  0  0  0  0  0
   57.3634   30.2072   47.1633 H   0  0  0  0  0  0  0  0  0  0  0  0
   57.2920   30.7600   45.0200 C   0  0  0  0  0  0  0  0  0  0  0  0
   57.6370   31.6170   44.0430 N   0  0  0  0  0  0  0  0  0  0  0  0
   57.0030   31.1280   42.9570 C   0  0  0  0  0  0  0  0  0  0  0  0
   57.0760   31.6760   41.8260 O   0  0  0  0  0  0  0  0  0  0  0  0
   56.2940   30.0010   43.1740 N   0  0  0  0  0  0  0  0  0  0  0  0
   56.4960   29.7670   44.4810 C   0  0  0  0  0  0  0  0  0  0  0  0
   56.0000   28.6430   45.1380 O   0  0  0  0  0  0  0  0  0  0  0  0
   55.1140   28.2240   44.8840 H   0  0  0  0  0  0  0  0  0  0  0  0
   58.6040   33.1860   46.8720 C   0  0  0  0  0  0  0  0  0  0  0  0
   57.6644   33.7123   47.0961 H   0  0  0  0  0  0  0  0  0  0  0  0
   59.7530   33.7560   46.6570 N   0  0  0  0  0  0  0  0  0  0  0  0
   58.9610   28.2550   48.0480 C   0  0  0  0  0  0  0  0  0  0  0  0
   58.9384   28.7244   49.0426 H   0  0  0  0  0  0  0  0  0  0  0  0
   57.9770   27.3300   47.6910 C   0  0  0  0  0  0  0  0  0  0  0  0
   57.1676   27.0907   48.3964 H   0  0  0  0  0  0  0  0  0  0  0  0
  1  2  1  0
  2  3  1  0
  3  4  2  0
  3  5  2  0
  3  6  1  0
  6  7  2  0
  7  8  1  0
  7  9  1  0
  9 10  1  0
  9 11  2  0
 11 12  1  0
 12 13  2  0
 13 14  1  0
 14 15  1  0
 15 16  2  3
 16 17  1  0
 17 18  1  0
 17 19  1  0
 19 20  1  0
 19 21  1  0
 19 22  1  0
 22 23  1  0
 22 24  1  0
 15 25  1  0
 25 26  1  0
 26 27  1  0
 27 28  2  0
 28 29  1  0
 28 30  1  0
 30 31  1  0
 31 32  1  0
 32 33  2  0
 32 34  1  0
 34 35  1  0
 35 36  1  0
 36 37  1  0
 27 38  1  0
 38 39  1  0
 38 40  2  0
 11 41  1  0
 41 42  1  0
 41 43  2  0
 43 44  1  0
 43  6  1  0
 26 13  1  0
 35 30  2  0
 22 17  1  0
 40 25  1  0
M  CHG  4   2  -1  14  -1  31  -1  34  -1
M  END
>  <UniqueID>  (78) 
73

>  <SMILES>  (78) 
[NH-]S(=O)(=O)c1ccc(/N=c2/[n-]c(=NC3CC3)n3n2/C(=C/c2[n-]c(=O)[n-]c2O)C=N3)cc1

>  <Energy>  (78) 
455.5428210087218

>  <Genealogy>  (78) 
[NH-]S(=O)(=O)c1ccc(N=c2[n-]c(=NC3CC3)n3n2C(=Cc2[n-]c(=O)[n-]c2O)C=N3)cc1 (protonated)
[NH-]S(=O)(=O)c1ccc(/N=c2/[n-]c(=NC3CC3)n3n2/C(=C/c2[n-]c(=O)[n-]c2O)C=N3)cc1 (cis-trans isomerization)
[NH-]S(=O)(=O)c1ccc(/N=c2/[n-]c(=NC3CC3)n3n2/C(=C/c2[n-]c(=O)[n-]c2O)C=N3)cc1 (3D coordinates assigned)
[NH-]S(=O)(=O)c1ccc(/N=c2/[n-]c(=NC3CC3)n3n2/C(=C/c2[n-]c(=O)[n-]c2O)C=N3)cc1 (nonaromatic ring conformer: 455.5428210087218 kcal/mol)

>  <smiles>  (78) 
NS(=O)(=O)c1ccc(N=c2[nH]c(=NC3CC3)n3n2C(=Cc2[nH]c(=O)[nH]c2O)C=N3)cc1

>  <score_type>  (78) 
oracle

>  <origin>  (78) 
adg

>  <m_score__min__energy>  (78) 
-15.470000000000001

>  <m_primary>  (78) 
energy

$$$$
78:0
     RDKit          3D

 31 33  0  0  0  0  0  0  0  0999 V2000
   55.2130   29.3640   44.8650 O   0  0  0  0  0  0  0  0  0  0  0  0
   56.1760   30.0670   44.4540 C   0  0  0  0  0  0  0  0  0  0  0  0
   57.2400   29.4400   43.6130 C   0  0  0  0  0  0  0  0  0  0  0  0
   58.2750   28.8620   44.4680 N   0  0  0  0  0  0  0  0  0  0  0  0
   59.5890   29.2010   44.5030 C   0  0  0  0  0  0  0  0  0  0  0  0
   60.3180   28.4310   45.3530 N   0  0  0  0  0  0  0  0  0  0  0  0
   59.4020   27.5790   45.8530 C   0  0  0  0  0  0  0  0  0  0  0  0
   59.6080   26.5500   46.7690 C   0  0  0  0  0  0  0  0  0  0  0  0
   58.4980   25.7630   47.1330 C   0  0  0  0  0  0  0  0  0  0  0  0
   57.2240   26.0220   46.5770 C   0  0  0  0  0  0  0  0  0  0  0  0
   57.0490   27.0690   45.6530 C   0  0  0  0  0  0  0  0  0  0  0  0
   58.1720   27.8300   45.3190 C   0  0  0  0  0  0  0  0  0  0  0  0
   56.2570   31.4610   44.7720 N   0  0  0  0  0  0  0  0  0  0  0  0
   57.4170   32.1550   45.2520 C   0  0  0  0  0  0  0  0  0  0  0  0
   57.7700   33.4310   44.7700 C   0  0  0  0  0  0  0  0  0  0  0  0
   58.8880   34.0940   45.2860 C   0  0  0  0  0  0  0  0  0  0  0  0
   59.2220   35.3230   44.8180 F   0  0  0  0  0  0  0  0  0  0  0  0
   59.6550   33.4970   46.2900 C   0  0  0  0  0  0  0  0  0  0  0  0
   59.3020   32.2400   46.7880 C   0  0  0  0  0  0  0  0  0  0  0  0
   58.1800   31.5750   46.2780 C   0  0  0  0  0  0  0  0  0  0  0  0
   57.8440   30.3590   46.7740 F   0  0  0  0  0  0  0  0  0  0  0  0
   56.7950   28.6479   42.9929 H   0  0  0  0  0  0  0  0  0  0  0  0
   57.6911   30.2085   42.9680 H   0  0  0  0  0  0  0  0  0  0  0  0
   60.0201   30.0166   43.9039 H   0  0  0  0  0  0  0  0  0  0  0  0
   60.6044   26.3584   47.1939 H   0  0  0  0  0  0  0  0  0  0  0  0
   58.6230   24.9419   47.8542 H   0  0  0  0  0  0  0  0  0  0  0  0
   56.3641   25.4011   46.8686 H   0  0  0  0  0  0  0  0  0  0  0  0
   56.0645   27.2803   45.2102 H   0  0  0  0  0  0  0  0  0  0  0  0
   57.1641   33.9073   43.9851 H   0  0  0  0  0  0  0  0  0  0  0  0
   60.5381   34.0174   46.6890 H   0  0  0  0  0  0  0  0  0  0  0  0
   59.9053   31.7730   47.5804 H   0  0  0  0  0  0  0  0  0  0  0  0
  1  2  2  0
  2  3  1  0
  3  4  1  0
  4  5  1  0
  5  6  2  0
  6  7  1  0
  7  8  2  0
  8  9  1  0
  9 10  2  0
 10 11  1  0
 11 12  2  0
  2 13  1  0
 13 14  1  0
 14 15  2  0
 15 16  1  0
 16 17  1  0
 16 18  2  0
 18 19  1  0
 19 20  2  0
 20 21  1  0
 12  4  1  0
 20 14  1  0
 12  7  1  0
  3 22  1  0
  3 23  1  0
  5 24  1  0
  8 25  1  0
  9 26  1  0
 10 27  1  0
 11 28  1  0
 15 29  1  0
 18 30  1  0
 19 31  1  0
M  CHG  1  13  -1
M  END
>  <UniqueID>  (79) 
74

>  <SMILES>  (79) 
O=C(Cn1cnc2ccccc21)[N-]c1cc(F)ccc1F

>  <Energy>  (79) 
72.50769224520802

>  <Genealogy>  (79) 
O=C(Cn1cnc2ccccc21)[N-]c1cc(F)ccc1F (protonated)
O=C(Cn1cnc2ccccc21)[N-]c1cc(F)ccc1F (3D coordinates assigned)
O=C(Cn1cnc2ccccc21)[N-]c1cc(F)ccc1F (optimized conformer: 72.50769224520802 kcal/mol)

>  <smiles>  (79) 
O=C(Cn1cnc2ccccc21)Nc1cc(F)ccc1F

>  <score_type>  (79) 
oracle

>  <origin>  (79) 
adg

>  <m_score__min__energy>  (79) 
-9.0299999999999994

>  <m_primary>  (79) 
energy

$$$$
79:0
     RDKit          3D

 54 58  0  0  1  0  0  0  0  0999 V2000
   59.6690   21.9070   45.4220 O   0  0  0  0  0  0  0  0  0  0  0  0
   58.6100   22.6520   44.9740 C   0  0  0  0  0  0  0  0  0  0  0  0
   57.6170   21.9740   44.2660 C   0  0  0  0  0  0  0  0  0  0  0  0
   56.5330   22.6680   43.7940 C   0  0  0  0  0  0  0  0  0  0  0  0
   56.4130   24.0230   44.0090 C   0  0  0  0  0  0  0  0  0  0  0  0
   57.4060   24.6480   44.7060 C   0  0  0  0  0  0  0  0  0  0  0  0
   58.5230   24.0180   45.2110 C   0  0  0  0  0  0  0  0  0  0  0  0
   59.5890   24.7500   45.9750 C   0  0  0  0  0  0  0  0  0  0  0  0
   59.0630   25.7690   46.8050 N   0  0  0  0  0  0  0  0  0  0  0  0
   59.1820   27.0140   46.6230 C   0  0  0  0  0  0  0  0  0  0  0  0
   59.9820   27.7940   47.4270 C   0  0  0  0  0  0  0  0  0  0  0  0
   60.1030   29.1280   47.2180 C   0  0  0  0  0  0  0  0  0  0  0  0
   60.9260   29.9830   48.0300 N   0  0  0  0  0  0  0  0  0  0  0  0
   60.7810   29.9430   49.4690 C   0  0  0  0  0  0  0  0  0  0  0  0
   60.4160   31.3280   49.9560 C   0  0  0  0  0  0  0  0  0  0  0  0
   61.4550   32.2810   49.5150 C   0  0  0  0  0  0  0  0  0  0  0  0
   61.7650   33.4170   50.2610 C   0  0  0  0  0  0  0  0  0  0  0  0
   62.7330   34.3090   49.8550 C   0  0  0  0  0  0  0  0  0  0  0  0
   63.4150   34.0680   48.6750 C   0  0  0  0  0  0  0  0  0  0  0  0
   63.1150   32.9380   47.9230 C   0  0  0  0  0  0  0  0  0  0  0  0
   62.1300   32.0510   48.3550 C   0  0  0  0  0  0  0  0  0  0  0  0
   61.8900   30.8740   47.4680 C   0  0  0  0  0  0  0  0  0  0  0  0
   59.4030   29.6630   46.1850 N   0  0  0  0  0  0  0  0  0  0  0  0
   58.6090   28.9460   45.3720 C   0  0  0  0  0  0  0  0  0  0  0  0
   57.9000   29.6110   44.2890 C   0  0  0  0  0  0  0  0  0  0  0  0
   56.9080   29.0030   43.5650 C   0  0  0  0  0  0  0  0  0  0  0  0
   56.2760   29.6830   42.5560 C   0  0  0  0  0  0  0  0  0  0  0  0
   56.6260   30.9450   42.2730 N   0  0  0  0  0  0  0  0  0  0  0  0
   57.5950   31.6100   42.9430 C   0  0  0  0  0  0  0  0  0  0  0  0
   58.2200   30.9090   43.9570 C   0  0  0  0  0  0  0  0  0  0  0  0
   58.5220   27.6270   45.6200 N   0  0  0  0  0  0  0  0  0  0  0  0
   59.8620   20.9660   45.1820 H   0  0  0  0  0  0  0  0  0  0  0  0
   57.7032   20.8919   44.0881 H   0  0  0  0  0  0  0  0  0  0  0  0
   55.7486   22.1355   43.2361 H   0  0  0  0  0  0  0  0  0  0  0  0
   55.5450   24.5833   43.6312 H   0  0  0  0  0  0  0  0  0  0  0  0
   57.3080   25.7303   44.8767 H   0  0  0  0  0  0  0  0  0  0  0  0
   60.1301   24.0278   46.6040 H   0  0  0  0  0  0  0  0  0  0  0  0
   60.2545   25.2288   45.2416 H   0  0  0  0  0  0  0  0  0  0  0  0
   60.5339   27.3257   48.2553 H   0  0  0  0  0  0  0  0  0  0  0  0
   59.9864   29.2329   49.7418 H   0  0  0  0  0  0  0  0  0  0  0  0
   61.7240   29.6180   49.9328 H   0  0  0  0  0  0  0  0  0  0  0  0
   59.4430   31.6224   49.5358 H   0  0  0  0  0  0  0  0  0  0  0  0
   60.3502   31.3310   51.0540 H   0  0  0  0  0  0  0  0  0  0  0  0
   61.2222   33.6062   51.1989 H   0  0  0  0  0  0  0  0  0  0  0  0
   62.9605   35.1994   50.4595 H   0  0  0  0  0  0  0  0  0  0  0  0
   64.1916   34.7681   48.3335 H   0  0  0  0  0  0  0  0  0  0  0  0
   63.6559   32.7433   46.9852 H   0  0  0  0  0  0  0  0  0  0  0  0
   61.5229   31.2295   46.4939 H   0  0  0  0  0  0  0  0  0  0  0  0
   62.8385   30.3288   47.3539 H   0  0  0  0  0  0  0  0  0  0  0  0
   56.6181   27.9669   43.7939 H   0  0  0  0  0  0  0  0  0  0  0  0
   55.4799   29.1914   41.9776 H   0  0  0  0  0  0  0  0  0  0  0  0
   57.8690   32.6462   42.6957 H   0  0  0  0  0  0  0  0  0  0  0  0
   59.0134   31.4133   44.5280 H   0  0  0  0  0  0  0  0  0  0  0  0
   57.9200   27.0250   45.0200 H   0  0  0  0  0  0  0  0  0  0  0  0
  1  2  1  0
  2  3  2  0
  3  4  1  0
  4  5  2  0
  5  6  1  0
  6  7  2  0
  7  8  1  0
  8  9  1  0
  9 10  2  0
 10 11  1  0
 11 12  2  0
 12 13  1  0
 13 14  1  0
 14 15  1  0
 15 16  1  0
 16 17  2  0
 17 18  1  0
 18 19  2  0
 19 20  1  0
 20 21  2  0
 21 22  1  0
 12 23  1  0
 23 24  2  0
 24 25  1  0
 25 26  2  0
 26 27  1  0
 27 28  2  0
 28 29  1  0
 29 30  2  0
 24 31  1  0
  7  2  1  0
 31 10  1  0
 22 13  1  0
 30 25  1  0
 21 16  1  0
  1 32  1  0
  3 33  1  0
  4 34  1  0
  5 35  1  0
  6 36  1  0
  8 37  1  0
  8 38  1  0
 11 39  1  0
 14 40  1  0
 14 41  1  0
 15 42  1  0
 15 43  1  0
 17 44  1  0
 18 45  1  0
 19 46  1  0
 20 47  1  0
 22 48  1  0
 22 49  1  0
 26 50  1  0
 27 51  1  0
 29 52  1  0
 30 53  1  0
 31 54  1  0
M  END
>  <smiles>  (80) 
Oc1ccccc1CN=c1cc(N2CCc3ccccc3C2)nc(-c2ccncc2)[nH]1

>  <score_type>  (80) 
oracle

>  <origin>  (80) 
adg

>  <m_score__min__energy>  (80) 
-9.0700000000000003

>  <m_primary>  (80) 
energy

$$$$
80:0
     RDKit          3D

 23 24  0  0  0  0  0  0  0  0999 V2000
   54.3990   26.7100   46.7380 H   0  0  0  0  0  0  0  0  0  0  0  0
   55.1620   26.4880   46.1110 O   0  0  0  0  0  0  0  0  0  0  0  0
   56.0660   27.4680   45.7160 C   0  0  0  0  0  0  0  0  0  0  0  0
   55.6580   28.6330   45.1440 N   0  0  0  0  0  0  0  0  0  0  0  0
   56.7100   29.4140   44.8270 C   0  0  0  0  0  0  0  0  0  0  0  0
   56.5890   30.5410   44.2820 O   0  0  0  0  0  0  0  0  0  0  0  0
   58.1810   28.7080   45.2270 S   0  0  0  0  0  0  0  0  0  0  0  0
   57.4440   27.3310   45.8750 C   0  0  0  0  0  0  0  0  0  0  0  0
   58.1230   26.1160   46.3680 C   0  0  0  0  0  0  0  0  0  0  0  0
   58.1369   25.9528   47.4557 H   0  0  0  0  0  0  0  0  0  0  0  0
   58.7240   25.1950   45.6010 C   0  0  0  0  0  0  0  0  0  0  0  0
   59.8228   25.2144   45.5539 H   0  0  0  0  0  0  0  0  0  0  0  0
   58.0280   24.1560   44.8140 C   0  0  0  0  0  0  0  0  0  0  0  0
   58.3960   22.8010   44.9090 C   0  0  0  0  0  0  0  0  0  0  0  0
   59.2366   22.5048   45.5538 H   0  0  0  0  0  0  0  0  0  0  0  0
   57.6960   21.8300   44.1860 C   0  0  0  0  0  0  0  0  0  0  0  0
   57.9987   20.7743   44.2484 H   0  0  0  0  0  0  0  0  0  0  0  0
   56.6120   22.1990   43.3840 C   0  0  0  0  0  0  0  0  0  0  0  0
   55.9190   21.2310   42.6660 O   0  0  0  0  0  0  0  0  0  0  0  0
   56.2230   23.5400   43.3090 C   0  0  0  0  0  0  0  0  0  0  0  0
   55.3664   23.8293   42.6824 H   0  0  0  0  0  0  0  0  0  0  0  0
   56.9210   24.5130   44.0290 C   0  0  0  0  0  0  0  0  0  0  0  0
   56.6011   25.5643   43.9802 H   0  0  0  0  0  0  0  0  0  0  0  0
  1  2  1  0
  2  3  1  0
  3  4  1  0
  4  5  1  0
  5  6  2  0
  5  7  1  0
  7  8  1  0
  8  9  1  0
  9 10  1  0
  9 11  2  0
 11 12  1  0
 11 13  1  0
 13 14  2  0
 14 15  1  0
 14 16  1  0
 16 17  1  0
 16 18  2  0
 18 19  1  0
 18 20  1  0
 20 21  1  0
 20 22  2  0
 22 23  1  0
  8  3  2  0
 22 13  1  0
M  CHG  2   4  -1  19  -1
M  END
>  <UniqueID>  (81) 
75

>  <SMILES>  (81) 
O=c1[n-]c(O)c(/C=C\c2ccc([O-])cc2)s1

>  <Energy>  (81) 
62.66871012638416

>  <Genealogy>  (81) 
O=c1[n-]c(O)c(C=Cc2ccc([O-])cc2)s1 (protonated)
O=c1[n-]c(O)c(/C=C\c2ccc([O-])cc2)s1 (cis-trans isomerization)
O=c1[n-]c(O)c(/C=C\c2ccc([O-])cc2)s1 (3D coordinates assigned)
O=c1[n-]c(O)c(/C=C\c2ccc([O-])cc2)s1 (optimized conformer: 62.66871012638416 kcal/mol)

>  <smiles>  (81) 
O=c1[nH]c(O)c(C=Cc2ccc(O)cc2)s1

>  <score_type>  (81) 
oracle

>  <origin>  (81) 
adg

>  <m_score__min__energy>  (81) 
-10.550000000000001

>  <m_primary>  (81) 
energy

$$$$
81:0
     RDKit          3D

 27 28  0  0  0  0  0  0  0  0999 V2000
   58.8140   27.7990   44.8130 O   0  0  0  0  0  0  0  0  0  0  0  0
   57.7060   27.6180   45.3890 C   0  0  0  0  0  0  0  0  0  0  0  0
   56.7440   28.6760   45.4060 N   0  0  0  0  0  0  0  0  0  0  0  0
   56.2750   29.3430   44.1990 C   0  0  0  0  0  0  0  0  0  0  0  0
   56.9620   30.6710   44.0660 C   0  0  0  0  0  0  0  0  0  0  0  0
   57.4100   31.3520   45.2090 C   0  0  0  0  0  0  0  0  0  0  0  0
   58.0840   32.5720   45.0830 C   0  0  0  0  0  0  0  0  0  0  0  0
   58.3250   33.1110   43.8160 C   0  0  0  0  0  0  0  0  0  0  0  0
   57.8970   32.4290   42.6740 C   0  0  0  0  0  0  0  0  0  0  0  0
   57.2230   31.2100   42.7960 C   0  0  0  0  0  0  0  0  0  0  0  0
   57.4090   26.3160   46.0510 C   0  0  0  0  0  0  0  0  0  0  0  0
   56.0830   25.9110   46.3160 C   0  0  0  0  0  0  0  0  0  0  0  0
   55.0010   26.7060   45.9500 O   0  0  0  0  0  0  0  0  0  0  0  0
   55.8470   24.7190   46.9250 N   0  0  0  0  0  0  0  0  0  0  0  0
   56.8620   23.8970   47.2860 C   0  0  0  0  0  0  0  0  0  0  0  0
   56.5390   22.4730   48.0150 S   0  0  0  0  0  0  0  0  0  0  0  0
   58.1460   24.2570   47.0400 N   0  0  0  0  0  0  0  0  0  0  0  0
   58.4440   25.4360   46.4370 C   0  0  0  0  0  0  0  0  0  0  0  0
   59.6540   25.7290   46.2420 O   0  0  0  0  0  0  0  0  0  0  0  0
   56.5061   28.7205   43.3220 H   0  0  0  0  0  0  0  0  0  0  0  0
   55.1875   29.4959   44.2619 H   0  0  0  0  0  0  0  0  0  0  0  0
   57.2307   30.9253   46.2069 H   0  0  0  0  0  0  0  0  0  0  0  0
   58.4244   33.1072   45.9817 H   0  0  0  0  0  0  0  0  0  0  0  0
   58.8515   34.0718   43.7180 H   0  0  0  0  0  0  0  0  0  0  0  0
   58.0907   32.8519   41.6772 H   0  0  0  0  0  0  0  0  0  0  0  0
   56.8962   30.6716   41.8942 H   0  0  0  0  0  0  0  0  0  0  0  0
   55.1360   27.5580   45.4200 H   0  0  0  0  0  0  0  0  0  0  0  0
  1  2  2  0
  2  3  1  0
  3  4  1  0
  4  5  1  0
  5  6  2  0
  6  7  1  0
  7  8  2  0
  8  9  1  0
  9 10  2  0
  2 11  1  0
 11 12  2  0
 12 13  1  0
 12 14  1  0
 14 15  1  0
 15 16  2  0
 15 17  1  0
 17 18  1  0
 18 19  2  0
 10  5  1  0
 18 11  1  0
  4 20  1  0
  4 21  1  0
  6 22  1  0
  7 23  1  0
  8 24  1  0
  9 25  1  0
 10 26  1  0
 13 27  1  0
M  CHG  3   3  -1  14  -1  17  -1
M  END
>  <UniqueID>  (82) 
76

>  <SMILES>  (82) 
O=C([N-]Cc1ccccc1)c1c(O)[n-]c(=S)[n-]c1=O

>  <Energy>  (82) 
29.60897194681275

>  <Genealogy>  (82) 
O=C([N-]Cc1ccccc1)c1c(O)[n-]c(=S)[n-]c1=O (protonated)
O=C([N-]Cc1ccccc1)c1c(O)[n-]c(=S)[n-]c1=O (3D coordinates assigned)
O=C([N-]Cc1ccccc1)c1c(O)[n-]c(=S)[n-]c1=O (optimized conformer: 29.60897194681275 kcal/mol)

>  <smiles>  (82) 
O=C(NCc1ccccc1)c1c(O)[nH]c(=S)[nH]c1=O

>  <score_type>  (82) 
oracle

>  <origin>  (82) 
adg

>  <m_score__min__energy>  (82) 
-12.56

>  <m_primary>  (82) 
energy

$$$$
82:0
     RDKit          3D

 44 46  0  0  0  0  0  0  0  0999 V2000
   61.5470   31.0110   47.1230 C   0  0  0  0  0  0  0  0  0  0  0  0
   60.5510   32.1500   47.1140 C   0  0  0  0  0  0  0  0  0  0  0  0
   59.3370   32.0130   46.4000 C   0  0  0  0  0  0  0  0  0  0  0  0
   59.0390   30.8090   45.6770 N   0  0  0  0  0  0  0  0  0  0  0  0
   58.3530   30.7860   44.4110 C   0  0  0  0  0  0  0  0  0  0  0  0
   57.9030   32.1780   43.6630 S   0  0  0  0  0  0  0  0  0  0  0  0
   58.1030   29.5390   43.7460 N   0  0  0  0  0  0  0  0  0  0  0  0
   57.8500   28.3040   44.4350 C   0  0  0  0  0  0  0  0  0  0  0  0
   57.3750   28.2920   45.7570 C   0  0  0  0  0  0  0  0  0  0  0  0
   57.1160   27.0810   46.4050 C   0  0  0  0  0  0  0  0  0  0  0  0
   57.2930   25.8610   45.7310 C   0  0  0  0  0  0  0  0  0  0  0  0
   57.0610   24.5530   46.4450 C   0  0  0  0  0  0  0  0  0  0  0  0
   57.4210   24.6900   47.7720 F   0  0  0  0  0  0  0  0  0  0  0  0
   55.7280   24.1870   46.3750 F   0  0  0  0  0  0  0  0  0  0  0  0
   57.8170   23.5440   45.8740 F   0  0  0  0  0  0  0  0  0  0  0  0
   57.7690   25.8760   44.4090 C   0  0  0  0  0  0  0  0  0  0  0  0
   58.0280   27.0890   43.7630 C   0  0  0  0  0  0  0  0  0  0  0  0
   58.4270   33.0780   46.3560 C   0  0  0  0  0  0  0  0  0  0  0  0
   58.6900   34.2620   47.0400 C   0  0  0  0  0  0  0  0  0  0  0  0
   59.8580   34.3930   47.7870 C   0  0  0  0  0  0  0  0  0  0  0  0
   60.7880   33.3420   47.8510 C   0  0  0  0  0  0  0  0  0  0  0  0
   61.9820   33.5160   48.7100 C   0  0  0  0  0  0  0  0  0  0  0  0
   61.8340   33.8570   50.0650 C   0  0  0  0  0  0  0  0  0  0  0  0
   62.9590   34.0060   50.8810 C   0  0  0  0  0  0  0  0  0  0  0  0
   64.2380   33.8060   50.3540 C   0  0  0  0  0  0  0  0  0  0  0  0
   64.3940   33.4540   49.0100 C   0  0  0  0  0  0  0  0  0  0  0  0
   63.2700   33.3040   48.1900 C   0  0  0  0  0  0  0  0  0  0  0  0
   61.7843   30.7396   48.1623 H   0  0  0  0  0  0  0  0  0  0  0  0
   61.1143   30.1414   46.6066 H   0  0  0  0  0  0  0  0  0  0  0  0
   62.4665   31.3239   46.6066 H   0  0  0  0  0  0  0  0  0  0  0  0
   59.3560   29.9070   46.0950 H   0  0  0  0  0  0  0  0  0  0  0  0
   58.1030   29.5300   42.7000 H   0  0  0  0  0  0  0  0  0  0  0  0
   57.2058   29.2417   46.2856 H   0  0  0  0  0  0  0  0  0  0  0  0
   56.7713   27.0831   47.4496 H   0  0  0  0  0  0  0  0  0  0  0  0
   57.9390   24.9274   43.8787 H   0  0  0  0  0  0  0  0  0  0  0  0
   58.3742   27.0883   42.7189 H   0  0  0  0  0  0  0  0  0  0  0  0
   57.4975   32.9777   45.7764 H   0  0  0  0  0  0  0  0  0  0  0  0
   57.9738   35.0954   46.9902 H   0  0  0  0  0  0  0  0  0  0  0  0
   60.0542   35.3281   48.3320 H   0  0  0  0  0  0  0  0  0  0  0  0
   60.8287   34.0073   50.4853 H   0  0  0  0  0  0  0  0  0  0  0  0
   62.8376   34.2810   51.9391 H   0  0  0  0  0  0  0  0  0  0  0  0
   65.1224   33.9256   50.9971 H   0  0  0  0  0  0  0  0  0  0  0  0
   65.4010   33.2948   48.5968 H   0  0  0  0  0  0  0  0  0  0  0  0
   63.3952   33.0192   47.1349 H   0  0  0  0  0  0  0  0  0  0  0  0
  1  2  1  0
  2  3  2  0
  3  4  1  0
  4  5  1  0
  5  6  2  0
  5  7  1  0
  7  8  1  0
  8  9  2  0
  9 10  1  0
 10 11  2  0
 11 12  1  0
 12 13  1  0
 12 14  1  0
 12 15  1  0
 11 16  1  0
 16 17  2  0
  3 18  1  0
 18 19  2  0
 19 20  1  0
 20 21  2  0
 21 22  1  0
 22 23  2  0
 23 24  1  0
 24 25  2  0
 25 26  1  0
 26 27  2  0
 21  2  1  0
 27 22  1  0
 17  8  1  0
  1 28  1  0
  1 29  1  0
  1 30  1  0
  4 31  1  0
  7 32  1  0
  9 33  1  0
 10 34  1  0
 16 35  1  0
 17 36  1  0
 18 37  1  0
 19 38  1  0
 20 39  1  0
 23 40  1  0
 24 41  1  0
 25 42  1  0
 26 43  1  0
 27 44  1  0
M  END
>  <UniqueID>  (83) 
77

>  <SMILES>  (83) 
Cc1c(NC(=S)Nc2ccc(C(F)(F)F)cc2)cccc1-c1ccccc1

>  <Energy>  (83) 
66.08128580720343

>  <Genealogy>  (83) 
Cc1c(NC(=S)Nc2ccc(C(F)(F)F)cc2)cccc1-c1ccccc1 (3D coordinates assigned)
Cc1c(NC(=S)Nc2ccc(C(F)(F)F)cc2)cccc1-c1ccccc1 (optimized conformer: 66.08128580720343 kcal/mol)

>  <smiles>  (83) 
Cc1c(NC(=S)Nc2ccc(C(F)(F)F)cc2)cccc1-c1ccccc1

>  <score_type>  (83) 
oracle

>  <origin>  (83) 
adg

>  <m_score__min__energy>  (83) 
-7.8099999999999996

>  <m_primary>  (83) 
energy

$$$$
84:0
     RDKit          3D

 58 61  0  0  0  0  0  0  0  0999 V2000
   58.6200   23.4870   45.4030 C   0  0  0  0  0  0  0  0  0  0  0  0
   58.9460   24.5900   46.2430 O   0  0  0  0  0  0  0  0  0  0  0  0
   58.4430   25.8890   46.0750 C   0  0  0  0  0  0  0  0  0  0  0  0
   59.3220   26.9680   46.2190 C   0  0  0  0  0  0  0  0  0  0  0  0
   58.8720   28.2820   46.0580 C   0  0  0  0  0  0  0  0  0  0  0  0
   57.5280   28.5340   45.7310 C   0  0  0  0  0  0  0  0  0  0  0  0
   57.0170   29.8670   45.5780 N   0  0  0  0  0  0  0  0  0  0  0  0
   57.4260   30.8280   44.5970 C   0  0  0  0  0  0  0  0  0  0  0  0
   57.2470   30.5960   43.3720 O   0  0  0  0  0  0  0  0  0  0  0  0
   58.0160   32.1220   45.0290 C   0  0  0  0  0  0  0  0  0  0  0  0
   58.3790   32.3450   46.3780 C   0  0  0  0  0  0  0  0  0  0  0  0
   58.2580   31.2730   47.3260 N   0  0  0  0  0  0  0  0  0  0  0  0
   59.2820   30.9600   48.2880 C   0  0  0  0  0  0  0  0  0  0  0  0
   60.5690   30.6250   47.8420 C   0  0  0  0  0  0  0  0  0  0  0  0
   61.5800   30.3160   48.7560 C   0  0  0  0  0  0  0  0  0  0  0  0
   61.3220   30.3450   50.1350 C   0  0  0  0  0  0  0  0  0  0  0  0
   62.3970   29.9720   51.1140 C   0  0  0  0  0  0  0  0  0  0  0  0
   60.0320   30.6580   50.5860 C   0  0  0  0  0  0  0  0  0  0  0  0
   59.0190   30.9680   49.6720 C   0  0  0  0  0  0  0  0  0  0  0  0
   58.8970   33.5620   46.7700 N   0  0  0  0  0  0  0  0  0  0  0  0
   59.2560   33.8190   48.1810 C   0  0  0  0  0  0  0  0  0  0  0  0
   60.7530   33.7920   48.3650 C   0  0  0  0  0  0  0  0  0  0  0  0
   61.3200   34.0030   49.6340 C   0  0  0  0  0  0  0  0  0  0  0  0
   62.7070   33.9780   49.8010 C   0  0  0  0  0  0  0  0  0  0  0  0
   63.5400   33.7440   48.7040 C   0  0  0  0  0  0  0  0  0  0  0  0
   62.9860   33.5330   47.4380 C   0  0  0  0  0  0  0  0  0  0  0  0
   61.5980   33.5590   47.2670 C   0  0  0  0  0  0  0  0  0  0  0  0
   59.0920   34.5620   45.8520 C   0  0  0  0  0  0  0  0  0  0  0  0
   59.6310   35.7890   46.2470 O   0  0  0  0  0  0  0  0  0  0  0  0
   58.7570   34.3670   44.5110 C   0  0  0  0  0  0  0  0  0  0  0  0
   58.2130   33.1570   44.0990 C   0  0  0  0  0  0  0  0  0  0  0  0
   57.8870   33.0140   42.8890 O   0  0  0  0  0  0  0  0  0  0  0  0
   56.6410   27.4570   45.6130 C   0  0  0  0  0  0  0  0  0  0  0  0
   57.0910   26.1430   45.7750 C   0  0  0  0  0  0  0  0  0  0  0  0
   58.3627   22.6165   46.0243 H   0  0  0  0  0  0  0  0  0  0  0  0
   57.7614   23.7509   44.7680 H   0  0  0  0  0  0  0  0  0  0  0  0
   59.4841   23.2418   44.7680 H   0  0  0  0  0  0  0  0  0  0  0  0
   60.3784   26.7805   46.4615 H   0  0  0  0  0  0  0  0  0  0  0  0
   59.5715   29.1210   46.1875 H   0  0  0  0  0  0  0  0  0  0  0  0
   57.3930   30.6860   47.2900 H   0  0  0  0  0  0  0  0  0  0  0  0
   60.7844   30.6053   46.7635 H   0  0  0  0  0  0  0  0  0  0  0  0
   62.5832   30.0487   48.3925 H   0  0  0  0  0  0  0  0  0  0  0  0
   62.0206   30.1026   52.1393 H   0  0  0  0  0  0  0  0  0  0  0  0
   62.6847   28.9215   50.9601 H   0  0  0  0  0  0  0  0  0  0  0  0
   63.2735   30.6185   50.9601 H   0  0  0  0  0  0  0  0  0  0  0  0
   59.8150   30.6599   51.6644 H   0  0  0  0  0  0  0  0  0  0  0  0
   58.0119   31.2193   50.0360 H   0  0  0  0  0  0  0  0  0  0  0  0
   58.8739   34.8073   48.4763 H   0  0  0  0  0  0  0  0  0  0  0  0
   58.8089   33.0334   48.8078 H   0  0  0  0  0  0  0  0  0  0  0  0
   60.6681   34.1888   50.5003 H   0  0  0  0  0  0  0  0  0  0  0  0
   63.1435   34.1427   50.7971 H   0  0  0  0  0  0  0  0  0  0  0  0
   64.6318   33.7258   48.8365 H   0  0  0  0  0  0  0  0  0  0  0  0
   63.6424   33.3463   46.5753 H   0  0  0  0  0  0  0  0  0  0  0  0
   61.1661   33.3963   46.2685 H   0  0  0  0  0  0  0  0  0  0  0  0
   59.2850   36.2890   47.0570 H   0  0  0  0  0  0  0  0  0  0  0  0
   58.9239   35.1719   43.7801 H   0  0  0  0  0  0  0  0  0  0  0  0
   55.5804   27.6463   45.3908 H   0  0  0  0  0  0  0  0  0  0  0  0
   56.3865   25.3051   45.6677 H   0  0  0  0  0  0  0  0  0  0  0  0
  1  2  1  0
  2  3  1  0
  3  4  2  0
  4  5  1  0
  5  6  2  0
  6  7  1  0
  7  8  1  0
  8  9  2  0
  8 10  1  0
 10 11  2  0
 11 12  1  0
 12 13  1  0
 13 14  2  0
 14 15  1  0
 15 16  2  0
 16 17  1  0
 16 18  1  0
 18 19  2  0
 11 20  1  0
 20 21  1  0
 21 22  1  0
 22 23  2  0
 23 24  1  0
 24 25  2  0
 25 26  1  0
 26 27  2  0
 20 28  1  0
 28 29  1  0
 28 30  2  0
 30 31  1  0
 31 32  2  0
  6 33  1  0
 33 34  2  0
 34  3  1  0
 31 10  1  0
 19 13  1  0
 27 22  1  0
  1 35  1  0
  1 36  1  0
  1 37  1  0
  4 38  1  0
  5 39  1  0
 12 40  1  0
 14 41  1  0
 15 42  1  0
 17 43  1  0
 17 44  1  0
 17 45  1  0
 18 46  1  0
 19 47  1  0
 21 48  1  0
 21 49  1  0
 23 50  1  0
 24 51  1  0
 25 52  1  0
 26 53  1  0
 27 54  1  0
 29 55  1  0
 30 56  1  0
 33 57  1  0
 34 58  1  0
M  CHG  1   7  -1
M  END
>  <UniqueID>  (84) 
78

>  <SMILES>  (84) 
COc1ccc([N-]C(=O)c2c(Nc3ccc(C)cc3)n(Cc3ccccc3)c(O)cc2=O)cc1

>  <Energy>  (84) 
80.10278674018618

>  <Genealogy>  (84) 
COc1ccc([N-]C(=O)c2c(Nc3ccc(C)cc3)n(Cc3ccccc3)c(O)cc2=O)cc1 (protonated)
COc1ccc([N-]C(=O)c2c(Nc3ccc(C)cc3)n(Cc3ccccc3)c(O)cc2=O)cc1 (3D coordinates assigned)
COc1ccc([N-]C(=O)c2c(Nc3ccc(C)cc3)n(Cc3ccccc3)c(O)cc2=O)cc1 (optimized conformer: 80.10278674018618 kcal/mol)

>  <smiles>  (84) 
COc1ccc(NC(=O)c2c(Nc3ccc(C)cc3)n(Cc3ccccc3)c(O)cc2=O)cc1

>  <score_type>  (84) 
oracle

>  <origin>  (84) 
adg

>  <m_score__min__energy>  (84) 
-9.3399999999999999

>  <m_primary>  (84) 
energy

$$$$
85:0
     RDKit          3D

 40 41  0  0  0  0  0  0  0  0999 V2000
   55.5700   24.6920   46.9780 O   0  0  0  0  0  0  0  0  0  0  0  0
   55.9220   25.5600   46.1360 C   0  0  0  0  0  0  0  0  0  0  0  0
   55.1460   26.6990   45.9720 O   0  0  0  0  0  0  0  0  0  0  0  0
   57.1780   25.4310   45.3700 C   0  0  0  0  0  0  0  0  0  0  0  0
   58.1620   26.3430   45.3160 C   0  0  0  0  0  0  0  0  0  0  0  0
   57.9770   27.7910   45.0890 C   0  0  0  0  0  0  0  0  0  0  0  0
   57.3880   28.2750   43.9090 C   0  0  0  0  0  0  0  0  0  0  0  0
   57.1780   29.6450   43.7350 C   0  0  0  0  0  0  0  0  0  0  0  0
   57.5330   30.5530   44.7480 C   0  0  0  0  0  0  0  0  0  0  0  0
   57.3100   32.0040   44.5910 C   0  0  0  0  0  0  0  0  0  0  0  0
   57.8120   32.8440   45.4430 N   0  0  0  0  0  0  0  0  0  0  0  0
   58.1180   34.2120   45.1510 C   0  0  0  0  0  0  0  0  0  0  0  0
   57.2400   34.9890   44.6870 O   0  0  0  0  0  0  0  0  0  0  0  0
   59.5210   34.7040   45.3500 C   0  0  0  0  0  0  0  0  0  0  0  0
   59.9220   34.6980   46.8340 C   0  0  0  0  0  0  0  0  0  0  0  0
   60.9290   33.6150   47.1460 C   0  0  0  0  0  0  0  0  0  0  0  0
   62.2960   33.8430   46.9050 C   0  0  0  0  0  0  0  0  0  0  0  0
   63.2320   32.8290   47.1210 C   0  0  0  0  0  0  0  0  0  0  0  0
   62.8150   31.5790   47.5820 C   0  0  0  0  0  0  0  0  0  0  0  0
   61.4610   31.3410   47.8300 C   0  0  0  0  0  0  0  0  0  0  0  0
   60.5120   32.3510   47.6120 C   0  0  0  0  0  0  0  0  0  0  0  0
   59.1610   32.1010   47.8480 O   0  0  0  0  0  0  0  0  0  0  0  0
   58.0890   30.0640   45.9410 C   0  0  0  0  0  0  0  0  0  0  0  0
   58.3000   28.6930   46.1130 C   0  0  0  0  0  0  0  0  0  0  0  0
   57.3200   24.5057   44.7924 H   0  0  0  0  0  0  0  0  0  0  0  0
   59.1920   25.9817   45.4522 H   0  0  0  0  0  0  0  0  0  0  0  0
   57.0905   27.5712   43.1177 H   0  0  0  0  0  0  0  0  0  0  0  0
   56.7323   30.0155   42.8001 H   0  0  0  0  0  0  0  0  0  0  0  0
   56.7135   32.3759   43.7449 H   0  0  0  0  0  0  0  0  0  0  0  0
   60.2095   34.0522   44.7923 H   0  0  0  0  0  0  0  0  0  0  0  0
   59.5754   35.7402   44.9849 H   0  0  0  0  0  0  0  0  0  0  0  0
   60.3612   35.6743   47.0868 H   0  0  0  0  0  0  0  0  0  0  0  0
   59.0177   34.5015   47.4286 H   0  0  0  0  0  0  0  0  0  0  0  0
   62.6302   34.8268   46.5439 H   0  0  0  0  0  0  0  0  0  0  0  0
   64.2987   33.0155   46.9277 H   0  0  0  0  0  0  0  0  0  0  0  0
   63.5531   30.7809   47.7501 H   0  0  0  0  0  0  0  0  0  0  0  0
   61.1371   30.3563   48.1982 H   0  0  0  0  0  0  0  0  0  0  0  0
   58.4580   32.2740   47.1410 H   0  0  0  0  0  0  0  0  0  0  0  0
   58.3601   30.7640   46.7450 H   0  0  0  0  0  0  0  0  0  0  0  0
   58.7221   28.3193   47.0575 H   0  0  0  0  0  0  0  0  0  0  0  0
  1  2  2  0
  2  3  1  0
  2  4  1  0
  4  5  2  3
  5  6  1  0
  6  7  2  0
  7  8  1  0
  8  9  2  0
  9 10  1  0
 10 11  2  3
 11 12  1  0
 12 13  2  0
 12 14  1  0
 14 15  1  0
 15 16  1  0
 16 17  2  0
 17 18  1  0
 18 19  2  0
 19 20  1  0
 20 21  2  0
 21 22  1  0
  9 23  1  0
 23 24  2  0
 24  6  1  0
 21 16  1  0
  4 25  1  0
  5 26  1  0
  7 27  1  0
  8 28  1  0
 10 29  1  0
 14 30  1  0
 14 31  1  0
 15 32  1  0
 15 33  1  0
 17 34  1  0
 18 35  1  0
 19 36  1  0
 20 37  1  0
 22 38  1  0
 23 39  1  0
 24 40  1  0
M  CHG  1   3  -1
M  END
>  <UniqueID>  (85) 
79

>  <SMILES>  (85) 
O=C([O-])C=Cc1ccc(C=NC(=O)CCc2ccccc2O)cc1

>  <Energy>  (85) 
42.344928591727104

>  <Genealogy>  (85) 
O=C([O-])C=Cc1ccc(C=NC(=O)CCc2ccccc2O)cc1 (protonated)
O=C([O-])C=Cc1ccc(C=NC(=O)CCc2ccccc2O)cc1 (3D coordinates assigned)
O=C([O-])C=Cc1ccc(C=NC(=O)CCc2ccccc2O)cc1 (optimized conformer: 42.344928591727104 kcal/mol)

>  <smiles>  (85) 
O=C(O)C=Cc1ccc(C=NC(=O)CCc2ccccc2O)cc1

>  <score_type>  (85) 
oracle

>  <origin>  (85) 
adg

>  <m_score__min__energy>  (85) 
-10.6

>  <m_primary>  (85) 
energy

$$$$
86:0
     RDKit          3D

 64 67  0  0  0  0  0  0  0  0999 V2000
   55.5050   28.9720   44.8950 N   0  0  0  0  0  0  0  0  0  0  0  0
   56.3950   29.3410   43.8430 C   0  0  0  0  0  0  0  0  0  0  0  0
   57.1950   28.4910   43.3700 O   0  0  0  0  0  0  0  0  0  0  0  0
   56.4130   30.7480   43.3330 C   0  0  0  0  0  0  0  0  0  0  0  0
   56.4590   31.6790   44.4160 O   0  0  0  0  0  0  0  0  0  0  0  0
   57.5330   31.8400   45.3060 C   0  0  0  0  0  0  0  0  0  0  0  0
   57.8640   33.0820   45.8800 C   0  0  0  0  0  0  0  0  0  0  0  0
   58.9600   33.1960   46.7550 C   0  0  0  0  0  0  0  0  0  0  0  0
   59.3360   34.5110   47.3290 C   0  0  0  0  0  0  0  0  0  0  0  0
   59.6770   35.4570   46.5700 O   0  0  0  0  0  0  0  0  0  0  0  0
   59.3190   34.7000   48.7470 N   0  0  0  0  0  0  0  0  0  0  0  0
   59.8850   33.5430   49.9070 S   0  0  0  0  0  0  0  0  0  0  0  0
   59.8590   34.1610   51.2780 O   0  0  0  0  0  0  0  0  0  0  0  0
   59.0000   32.3270   49.9220 O   0  0  0  0  0  0  0  0  0  0  0  0
   61.5360   33.0830   49.5050 C   0  0  0  0  0  0  0  0  0  0  0  0
   62.1190   31.9750   50.1360 C   0  0  0  0  0  0  0  0  0  0  0  0
   63.4290   31.5980   49.8230 C   0  0  0  0  0  0  0  0  0  0  0  0
   64.1630   32.3300   48.8850 C   0  0  0  0  0  0  0  0  0  0  0  0
   63.5890   33.4400   48.2600 C   0  0  0  0  0  0  0  0  0  0  0  0
   62.2790   33.8200   48.5710 C   0  0  0  0  0  0  0  0  0  0  0  0
   59.7050   32.0470   47.0680 C   0  0  0  0  0  0  0  0  0  0  0  0
   59.3800   30.7990   46.5110 C   0  0  0  0  0  0  0  0  0  0  0  0
   60.1710   29.6300   46.8210 N   0  0  0  0  0  0  0  0  0  0  0  0
   60.7930   29.4470   48.1360 C   0  0  0  0  0  0  0  0  0  0  0  0
   60.3440   28.1120   48.7500 C   0  0  0  0  0  0  0  0  0  0  0  0
   60.0680   27.0650   47.7370 N   0  0  0  0  0  0  0  0  0  0  0  0
   58.6810   26.5510   47.6980 C   0  0  0  0  0  0  0  0  0  0  0  0
   57.8010   27.1820   46.6030 C   0  0  0  0  0  0  0  0  0  0  0  0
   57.0640   26.1120   45.8500 C   0  0  0  0  0  0  0  0  0  0  0  0
   57.6630   25.4640   44.7580 C   0  0  0  0  0  0  0  0  0  0  0  0
   56.9620   24.4560   44.0930 C   0  0  0  0  0  0  0  0  0  0  0  0
   55.6830   24.0970   44.5250 C   0  0  0  0  0  0  0  0  0  0  0  0
   55.1220   24.7540   45.6250 C   0  0  0  0  0  0  0  0  0  0  0  0
   55.8190   25.7340   46.2590 N   0  0  0  0  0  0  0  0  0  0  0  0
   60.7290   27.2440   46.4270 C   0  0  0  0  0  0  0  0  0  0  0  0
   60.4420   28.6170   45.7950 C   0  0  0  0  0  0  0  0  0  0  0  0
   58.2980   30.7130   45.6200 C   0  0  0  0  0  0  0  0  0  0  0  0
   54.5360   29.3580   44.9350 H   0  0  0  0  0  0  0  0  0  0  0  0
   57.2994   30.8900   42.6973 H   0  0  0  0  0  0  0  0  0  0  0  0
   55.4947   30.9253   42.7540 H   0  0  0  0  0  0  0  0  0  0  0  0
   57.2609   33.9707   45.6425 H   0  0  0  0  0  0  0  0  0  0  0  0
   61.5451   31.4012   50.8785 H   0  0  0  0  0  0  0  0  0  0  0  0
   63.8821   30.7249   50.3153 H   0  0  0  0  0  0  0  0  0  0  0  0
   65.1929   32.0320   48.6389 H   0  0  0  0  0  0  0  0  0  0  0  0
   64.1677   34.0157   47.5227 H   0  0  0  0  0  0  0  0  0  0  0  0
   61.8311   34.6979   48.0825 H   0  0  0  0  0  0  0  0  0  0  0  0
   60.5563   32.1257   47.7602 H   0  0  0  0  0  0  0  0  0  0  0  0
   61.8873   29.4465   48.0242 H   0  0  0  0  0  0  0  0  0  0  0  0
   60.4853   30.2699   48.7980 H   0  0  0  0  0  0  0  0  0  0  0  0
   61.1389   27.7502   49.4187 H   0  0  0  0  0  0  0  0  0  0  0  0
   59.4037   28.3006   49.2888 H   0  0  0  0  0  0  0  0  0  0  0  0
   58.7208   25.4655   47.5247 H   0  0  0  0  0  0  0  0  0  0  0  0
   58.2208   26.8139   48.6619 H   0  0  0  0  0  0  0  0  0  0  0  0
   57.0748   27.8645   47.0687 H   0  0  0  0  0  0  0  0  0  0  0  0
   58.4422   27.7373   45.9026 H   0  0  0  0  0  0  0  0  0  0  0  0
   58.6739   25.7474   44.4298 H   0  0  0  0  0  0  0  0  0  0  0  0
   57.4160   23.9457   43.2307 H   0  0  0  0  0  0  0  0  0  0  0  0
   55.1228   23.3057   44.0054 H   0  0  0  0  0  0  0  0  0  0  0  0
   54.1171   24.4778   45.9770 H   0  0  0  0  0  0  0  0  0  0  0  0
   61.8155   27.1412   46.5650 H   0  0  0  0  0  0  0  0  0  0  0  0
   60.3286   26.4773   45.7474 H   0  0  0  0  0  0  0  0  0  0  0  0
   61.3161   28.9296   45.2049 H   0  0  0  0  0  0  0  0  0  0  0  0
   59.5526   28.5252   45.1543 H   0  0  0  0  0  0  0  0  0  0  0  0
   58.0487   29.7443   45.1623 H   0  0  0  0  0  0  0  0  0  0  0  0
  1  2  1  0
  2  3  2  0
  2  4  1  0
  4  5  1  0
  5  6  1  0
  6  7  2  0
  7  8  1  0
  8  9  1  0
  9 10  2  0
  9 11  1  0
 11 12  1  0
 12 13  2  0
 12 14  2  0
 12 15  1  0
 15 16  2  0
 16 17  1  0
 17 18  2  0
 18 19  1  0
 19 20  2  0
  8 21  2  0
 21 22  1  0
 22 23  1  0
 23 24  1  0
 24 25  1  0
 25 26  1  0
 26 27  1  0
 27 28  1  0
 28 29  1  0
 29 30  2  0
 30 31  1  0
 31 32  2  0
 32 33  1  0
 33 34  2  0
 26 35  1  0
 35 36  1  0
 22 37  2  0
 37  6  1  0
 20 15  1  0
 36 23  1  0
 34 29  1  0
  1 38  1  0
  4 39  1  0
  4 40  1  0
  7 41  1  0
 16 42  1  0
 17 43  1  0
 18 44  1  0
 19 45  1  0
 20 46  1  0
 21 47  1  0
 24 48  1  0
 24 49  1  0
 25 50  1  0
 25 51  1  0
 27 52  1  0
 27 53  1  0
 28 54  1  0
 28 55  1  0
 30 56  1  0
 31 57  1  0
 32 58  1  0
 33 59  1  0
 35 60  1  0
 35 61  1  0
 36 62  1  0
 36 63  1  0
 37 64  1  0
M  CHG  2   1  -1  11  -1
M  END
>  <UniqueID>  (86) 
80

>  <SMILES>  (86) 
[NH-]C(=O)COc1cc(C(=O)[N-]S(=O)(=O)c2ccccc2)cc(N2CCN(CCc3ccccn3)CC2)c1

>  <Energy>  (86) 
85.33475400705949

>  <Genealogy>  (86) 
[NH-]C(=O)COc1cc(C(=O)[N-]S(=O)(=O)c2ccccc2)cc(N2CCN(CCc3ccccn3)CC2)c1 (protonated)
[NH-]C(=O)COc1cc(C(=O)[N-]S(=O)(=O)c2ccccc2)cc(N2CCN(CCc3ccccn3)CC2)c1 (3D coordinates assigned)
[NH-]C(=O)COc1cc(C(=O)[N-]S(=O)(=O)c2ccccc2)cc(N2CCN(CCc3ccccn3)CC2)c1 (nonaromatic ring conformer: 85.33475400705949 kcal/mol)

>  <smiles>  (86) 
NC(=O)COc1cc(C(=O)NS(=O)(=O)c2ccccc2)cc(N2CCN(CCc3ccccn3)CC2)c1

>  <score_type>  (86) 
oracle

>  <origin>  (86) 
adg

>  <m_score__min__energy>  (86) 
-15.220000000000001

>  <m_primary>  (86) 
energy

$$$$
87:0
     RDKit          3D

 53 56  0  0  0  0  0  0  0  0999 V2000
   56.2700   20.3370   44.3880 C   0  0  0  0  0  0  0  0  0  0  0  0
   56.9160   21.4990   43.1450 S   0  0  0  0  0  0  0  0  0  0  0  0
   57.1140   22.8360   44.3250 C   0  0  0  0  0  0  0  0  0  0  0  0
   57.1980   22.5560   45.6940 C   0  0  0  0  0  0  0  0  0  0  0  0
   57.3380   23.5990   46.6120 C   0  0  0  0  0  0  0  0  0  0  0  0
   57.4030   24.9230   46.1670 C   0  0  0  0  0  0  0  0  0  0  0  0
   57.3470   25.2140   44.7910 C   0  0  0  0  0  0  0  0  0  0  0  0
   57.4040   26.5650   44.3040 N   0  0  0  0  0  0  0  0  0  0  0  0
   57.9190   27.6750   45.0600 C   0  0  0  0  0  0  0  0  0  0  0  0
   58.6650   27.4670   46.0570 O   0  0  0  0  0  0  0  0  0  0  0  0
   57.6430   29.0660   44.6320 C   0  0  0  0  0  0  0  0  0  0  0  0
   57.0730   29.3240   43.3740 C   0  0  0  0  0  0  0  0  0  0  0  0
   56.7540   30.6320   42.9990 C   0  0  0  0  0  0  0  0  0  0  0  0
   57.0100   31.6950   43.8680 C   0  0  0  0  0  0  0  0  0  0  0  0
   57.6160   31.4610   45.1050 C   0  0  0  0  0  0  0  0  0  0  0  0
   57.8310   32.5580   46.0020 N   0  0  0  0  0  0  0  0  0  0  0  0
   58.0170   33.9100   45.5690 C   0  0  0  0  0  0  0  0  0  0  0  0
   57.0640   34.5430   45.0410 O   0  0  0  0  0  0  0  0  0  0  0  0
   59.3520   34.5650   45.7200 C   0  0  0  0  0  0  0  0  0  0  0  0
   59.9390   34.1950   47.0100 N   0  0  0  0  0  0  0  0  0  0  0  0
   59.2990   34.2020   48.2030 C   0  0  0  0  0  0  0  0  0  0  0  0
   60.1930   33.9110   49.2280 C   0  0  0  0  0  0  0  0  0  0  0  0
   59.8750   33.7930   50.6830 C   0  0  0  0  0  0  0  0  0  0  0  0
   61.4190   33.7200   48.6210 C   0  0  0  0  0  0  0  0  0  0  0  0
   62.6720   33.4240   49.1580 C   0  0  0  0  0  0  0  0  0  0  0  0
   63.7590   33.3200   48.2720 C   0  0  0  0  0  0  0  0  0  0  0  0
   63.5720   33.5110   46.8850 C   0  0  0  0  0  0  0  0  0  0  0  0
   62.2970   33.8080   46.3710 C   0  0  0  0  0  0  0  0  0  0  0  0
   61.2320   33.9040   47.2730 C   0  0  0  0  0  0  0  0  0  0  0  0
   57.9290   30.1440   45.4850 C   0  0  0  0  0  0  0  0  0  0  0  0
   57.1770   24.1610   43.8790 C   0  0  0  0  0  0  0  0  0  0  0  0
   56.4840   20.7220   45.3960 H   0  0  0  0  0  0  0  0  0  0  0  0
   55.1828   20.2298   44.2596 H   0  0  0  0  0  0  0  0  0  0  0  0
   56.7528   19.3570   44.2596 H   0  0  0  0  0  0  0  0  0  0  0  0
   57.1538   21.5149   46.0465 H   0  0  0  0  0  0  0  0  0  0  0  0
   57.3973   23.3784   47.6880 H   0  0  0  0  0  0  0  0  0  0  0  0
   57.4984   25.7413   46.8959 H   0  0  0  0  0  0  0  0  0  0  0  0
   57.1930   26.7250   43.2950 H   0  0  0  0  0  0  0  0  0  0  0  0
   56.8769   28.4926   42.6810 H   0  0  0  0  0  0  0  0  0  0  0  0
   56.2997   30.8250   42.0160 H   0  0  0  0  0  0  0  0  0  0  0  0
   56.7337   32.7194   43.5777 H   0  0  0  0  0  0  0  0  0  0  0  0
   60.0158   34.2342   44.9076 H   0  0  0  0  0  0  0  0  0  0  0  0
   59.2297   35.6572   45.6747 H   0  0  0  0  0  0  0  0  0  0  0  0
   58.2274   34.4080   48.3416 H   0  0  0  0  0  0  0  0  0  0  0  0
   60.7439   34.1154   51.2755 H   0  0  0  0  0  0  0  0  0  0  0  0
   59.0110   34.4304   50.9224 H   0  0  0  0  0  0  0  0  0  0  0  0
   59.6359   32.7463   50.9224 H   0  0  0  0  0  0  0  0  0  0  0  0
   62.8055   33.2767   50.2399 H   0  0  0  0  0  0  0  0  0  0  0  0
   64.7613   33.0884   48.6615 H   0  0  0  0  0  0  0  0  0  0  0  0
   64.4300   33.4268   46.2018 H   0  0  0  0  0  0  0  0  0  0  0  0
   62.1419   33.9602   45.2927 H   0  0  0  0  0  0  0  0  0  0  0  0
   58.4025   29.9564   46.4600 H   0  0  0  0  0  0  0  0  0  0  0  0
   57.0925   24.3790   42.8041 H   0  0  0  0  0  0  0  0  0  0  0  0
  1  2  1  0
  2  3  1  0
  3  4  2  0
  4  5  1  0
  5  6  2  0
  6  7  1  0
  7  8  1  0
  8  9  1  0
  9 10  2  0
  9 11  1  0
 11 12  2  0
 12 13  1  0
 13 14  2  0
 14 15  1  0
 15 16  1  0
 16 17  1  0
 17 18  2  0
 17 19  1  0
 19 20  1  0
 20 21  1  0
 21 22  2  0
 22 23  1  0
 22 24  1  0
 24 25  2  0
 25 26  1  0
 26 27  2  0
 27 28  1  0
 28 29  2  0
 15 30  2  0
  7 31  2  0
 31  3  1  0
 30 11  1  0
 29 20  1  0
 29 24  1  0
  1 32  1  0
  1 33  1  0
  1 34  1  0
  4 35  1  0
  5 36  1  0
  6 37  1  0
  8 38  1  0
 12 39  1  0
 13 40  1  0
 14 41  1  0
 19 42  1  0
 19 43  1  0
 21 44  1  0
 23 45  1  0
 23 46  1  0
 23 47  1  0
 25 48  1  0
 26 49  1  0
 27 50  1  0
 28 51  1  0
 30 52  1  0
 31 53  1  0
M  CHG  1  16  -1
M  END
>  <UniqueID>  (87) 
81

>  <SMILES>  (87) 
CSc1cccc(NC(=O)c2cccc([N-]C(=O)Cn3cc(C)c4ccccc43)c2)c1

>  <Energy>  (87) 
91.27549791839289

>  <Genealogy>  (87) 
CSc1cccc(NC(=O)c2cccc([N-]C(=O)Cn3cc(C)c4ccccc43)c2)c1 (protonated)
CSc1cccc(NC(=O)c2cccc([N-]C(=O)Cn3cc(C)c4ccccc43)c2)c1 (3D coordinates assigned)
CSc1cccc(NC(=O)c2cccc([N-]C(=O)Cn3cc(C)c4ccccc43)c2)c1 (optimized conformer: 91.27549791839289 kcal/mol)

>  <smiles>  (87) 
CSc1cccc(NC(=O)c2cccc(NC(=O)Cn3cc(C)c4ccccc43)c2)c1

>  <score_type>  (87) 
oracle

>  <origin>  (87) 
adg

>  <m_score__min__energy>  (87) 
-10.49

>  <m_primary>  (87) 
energy

$$$$
88:0
     RDKit          3D

 34 35  0  0  0  0  0  0  0  0999 V2000
   52.9200   22.2060   48.5770 C   0  0  0  0  0  0  0  0  0  0  0  0
   54.3810   22.6060   48.7520 C   0  0  0  0  0  0  0  0  0  0  0  0
   55.0850   22.4910   47.5160 O   0  0  0  0  0  0  0  0  0  0  0  0
   56.2850   23.1600   47.2460 C   0  0  0  0  0  0  0  0  0  0  0  0
   57.3910   22.5890   47.4420 O   0  0  0  0  0  0  0  0  0  0  0  0
   56.2350   24.5420   46.7380 C   0  0  0  0  0  0  0  0  0  0  0  0
   57.4530   25.6780   46.9840 S   0  0  0  0  0  0  0  0  0  0  0  0
   56.6420   26.8900   46.1350 C   0  0  0  0  0  0  0  0  0  0  0  0
   57.0540   28.1090   45.9370 N   0  0  0  0  0  0  0  0  0  0  0  0
   56.4990   29.0890   45.0440 C   0  0  0  0  0  0  0  0  0  0  0  0
   55.2540   29.1930   44.8840 O   0  0  0  0  0  0  0  0  0  0  0  0
   57.3570   30.0160   44.3680 N   0  0  0  0  0  0  0  0  0  0  0  0
   57.9040   31.2210   44.9200 C   0  0  0  0  0  0  0  0  0  0  0  0
   57.5280   32.4500   44.3620 C   0  0  0  0  0  0  0  0  0  0  0  0
   58.0570   33.6450   44.8590 C   0  0  0  0  0  0  0  0  0  0  0  0
   58.9820   33.6190   45.9080 C   0  0  0  0  0  0  0  0  0  0  0  0
   59.6480   35.1180   46.5290 Cl  0  0  0  0  0  0  0  0  0  0  0  0
   59.3830   32.3960   46.4530 C   0  0  0  0  0  0  0  0  0  0  0  0
   58.8550   31.1990   45.9580 C   0  0  0  0  0  0  0  0  0  0  0  0
   55.4550   26.4540   45.6660 N   0  0  0  0  0  0  0  0  0  0  0  0
   55.2170   25.1530   45.9910 C   0  0  0  0  0  0  0  0  0  0  0  0
   53.9530   24.4750   45.5670 C   0  0  0  0  0  0  0  0  0  0  0  0
   52.4539   22.0784   49.5652 H   0  0  0  0  0  0  0  0  0  0  0  0
   52.3889   22.9918   48.0198 H   0  0  0  0  0  0  0  0  0  0  0  0
   52.8633   21.2593   48.0198 H   0  0  0  0  0  0  0  0  0  0  0  0
   54.4312   23.6480   49.1010 H   0  0  0  0  0  0  0  0  0  0  0  0
   54.8465   21.9349   49.4889 H   0  0  0  0  0  0  0  0  0  0  0  0
   56.8119   32.4749   43.5274 H   0  0  0  0  0  0  0  0  0  0  0  0
   57.7455   34.6064   44.4247 H   0  0  0  0  0  0  0  0  0  0  0  0
   60.1156   32.3747   47.2732 H   0  0  0  0  0  0  0  0  0  0  0  0
   59.1836   30.2381   46.3808 H   0  0  0  0  0  0  0  0  0  0  0  0
   53.3841   24.1698   46.4576 H   0  0  0  0  0  0  0  0  0  0  0  0
   53.3481   25.1697   44.9658 H   0  0  0  0  0  0  0  0  0  0  0  0
   54.1972   23.5868   44.9658 H   0  0  0  0  0  0  0  0  0  0  0  0
  1  2  1  0
  2  3  1  0
  3  4  1  0
  4  5  2  0
  4  6  1  0
  6  7  1  0
  7  8  1  0
  8  9  2  3
  9 10  1  0
 10 11  2  0
 10 12  1  0
 12 13  1  0
 13 14  2  0
 14 15  1  0
 15 16  2  0
 16 17  1  0
 16 18  1  0
 18 19  2  0
  8 20  1  0
 20 21  1  0
 21 22  1  0
 21  6  2  0
 19 13  1  0
  1 23  1  0
  1 24  1  0
  1 25  1  0
  2 26  1  0
  2 27  1  0
 14 28  1  0
 15 29  1  0
 18 30  1  0
 19 31  1  0
 22 32  1  0
 22 33  1  0
 22 34  1  0
M  CHG  2  12  -1  20  -1
M  END
>  <UniqueID>  (88) 
82

>  <SMILES>  (88) 
CCOC(=O)c1sc(=NC(=O)[N-]c2ccc(Cl)cc2)[n-]c1C

>  <Energy>  (88) 
66.08426260243162

>  <Genealogy>  (88) 
CCOC(=O)c1sc(=NC(=O)[N-]c2ccc(Cl)cc2)[n-]c1C (protonated)
CCOC(=O)c1sc(=NC(=O)[N-]c2ccc(Cl)cc2)[n-]c1C (3D coordinates assigned)
CCOC(=O)c1sc(=NC(=O)[N-]c2ccc(Cl)cc2)[n-]c1C (optimized conformer: 66.08426260243162 kcal/mol)

>  <smiles>  (88) 
CCOC(=O)c1sc(=NC(=O)Nc2ccc(Cl)cc2)[nH]c1C

>  <score_type>  (88) 
oracle

>  <origin>  (88) 
adg

>  <m_score__min__energy>  (88) 
-9.9000000000000004

>  <m_primary>  (88) 
energy

$$$$
89:0
     RDKit          3D

 48 49  0  0  1  0  0  0  0  0999 V2000
   51.6680   24.0870   44.5330 C   0  0  0  0  0  0  0  0  0  0  0  0
   52.4650   22.9980   44.8580 O   0  0  0  0  0  0  0  0  0  0  0  0
   52.6270   22.8170   46.2160 C   0  0  0  0  0  0  0  0  0  0  0  0
   54.0530   22.6430   46.6340 C   0  0  0  0  0  0  0  0  0  0  0  0
   54.8420   21.9740   45.6730 O   0  0  0  0  0  0  0  0  0  0  0  0
   55.5880   22.6490   44.7150 C   0  0  0  0  0  0  0  0  0  0  0  0
   55.8970   22.0950   43.5080 N   0  0  0  0  0  0  0  0  0  0  0  0
   56.6210   22.9810   42.8140 N   0  0  0  0  0  0  0  0  0  0  0  0
   56.7740   24.0860   43.5650 C   0  0  0  0  0  0  0  0  0  0  0  0
   57.4260   25.2930   43.3280 C   0  0  0  0  0  0  0  0  0  0  0  0
   57.4050   26.2430   44.2980 C   0  0  0  0  0  0  0  0  0  0  0  0
   58.0510   27.3600   44.0540 N   0  0  0  0  0  0  0  0  0  0  0  0
   57.5180   28.5820   44.5210 C   0  0  0  0  0  0  0  0  0  0  0  0
   56.6590   28.8270   45.2840 O   0  0  0  0  0  0  0  0  0  0  0  0
   58.3110   29.9080   43.8000 N   0  0  0  0  0  0  0  0  0  0  0  0
   57.5740   30.8940   44.4430 C   0  0  0  0  0  0  0  0  0  0  0  0
   56.6960   31.0050   45.2460 O   0  0  0  0  0  0  0  0  0  0  0  0
   58.0990   32.2000   43.9160 N   0  0  0  0  0  0  0  0  0  0  0  0
   57.5550   33.4210   44.3740 C   0  0  0  0  0  0  0  0  0  0  0  0
   58.3610   34.1490   45.3470 C   0  0  0  0  0  0  0  0  0  0  0  0
   58.9050   35.2320   44.8810 O   0  0  0  0  0  0  0  0  0  0  0  0
   58.6480   33.8960   46.6900 N   0  0  0  0  0  0  0  0  0  0  0  0
   59.5620   34.8530   47.3430 C   0  0  0  0  0  0  0  0  0  0  0  0
   58.1320   32.8600   47.5400 C   0  0  0  0  0  0  0  0  0  0  0  0
   56.7660   26.0720   45.5000 N   0  0  0  0  0  0  0  0  0  0  0  0
   56.1150   24.8980   45.7630 C   0  0  0  0  0  0  0  0  0  0  0  0
   56.1300   23.9180   44.7860 C   0  0  0  0  0  0  0  0  0  0  0  0
   51.3141   24.5706   45.4554 H   0  0  0  0  0  0  0  0  0  0  0  0
   52.2539   24.8071   43.9430 H   0  0  0  0  0  0  0  0  0  0  0  0
   50.8044   23.7463   43.9430 H   0  0  0  0  0  0  0  0  0  0  0  0
   52.2180   23.6965   46.7347 H   0  0  0  0  0  0  0  0  0  0  0  0
   52.0988   21.8895   46.4818 H   0  0  0  0  0  0  0  0  0  0  0  0
   54.4882   23.6376   46.8110 H   0  0  0  0  0  0  0  0  0  0  0  0
   54.0515   22.0219   47.5419 H   0  0  0  0  0  0  0  0  0  0  0  0
   56.9890   22.8080   41.8490 H   0  0  0  0  0  0  0  0  0  0  0  0
   57.9467   25.4731   42.3759 H   0  0  0  0  0  0  0  0  0  0  0  0
   58.7930   29.2630   43.3810 H   0  0  0  0  0  0  0  0  0  0  0  0
   58.8830   32.0940   43.2000 H   0  0  0  0  0  0  0  0  0  0  0  0
   57.4085   34.0739   43.5009 H   0  0  0  0  0  0  0  0  0  0  0  0
   56.6235   33.1563   44.8957 H   0  0  0  0  0  0  0  0  0  0  0  0
   59.4721   34.7589   48.4353 H   0  0  0  0  0  0  0  0  0  0  0  0
   60.5971   34.6364   47.0402 H   0  0  0  0  0  0  0  0  0  0  0  0
   59.2981   35.8771   47.0402 H   0  0  0  0  0  0  0  0  0  0  0  0
   58.2739   33.1450   48.5929 H   0  0  0  0  0  0  0  0  0  0  0  0
   57.0595   32.7211   47.3391 H   0  0  0  0  0  0  0  0  0  0  0  0
   58.6673   31.9203   47.3391 H   0  0  0  0  0  0  0  0  0  0  0  0
   56.7610   26.8170   46.2280 H   0  0  0  0  0  0  0  0  0  0  0  0
   55.5965   24.7381   46.7199 H   0  0  0  0  0  0  0  0  0  0  0  0
  1  2  1  0
  2  3  1  0
  3  4  1  0
  4  5  1  0
  5  6  1  0
  6  7  2  0
  7  8  1  0
  8  9  1  0
  9 10  2  0
 10 11  1  0
 11 12  2  0
 12 13  1  0
 13 14  2  0
 13 15  1  0
 15 16  1  0
 16 17  2  0
 16 18  1  0
 18 19  1  0
 19 20  1  0
 20 21  2  0
 20 22  1  0
 22 23  1  0
 22 24  1  0
 11 25  1  0
 25 26  1  0
 26 27  2  0
 27  6  1  0
 27  9  1  0
  1 28  1  0
  1 29  1  0
  1 30  1  0
  3 31  1  0
  3 32  1  0
  4 33  1  0
  4 34  1  0
  8 35  1  0
 10 36  1  0
 15 37  1  0
 18 38  1  0
 19 39  1  0
 19 40  1  0
 23 41  1  0
 23 42  1  0
 23 43  1  0
 24 44  1  0
 24 45  1  0
 24 46  1  0
 25 47  1  0
 26 48  1  0
M  END
>  <smiles>  (89) 
COCCOc1n[nH]c2cc(=NC(=O)NC(=O)NCC(=O)N(C)C)[nH]cc12

>  <score_type>  (89) 
oracle

>  <origin>  (89) 
adg

>  <m_score__min__energy>  (89) 
-7.3799999999999999

>  <m_primary>  (89) 
energy

$$$$
90:0
     RDKit          3D

 39 41  0  0  0  0  0  0  0  0999 V2000
   58.6160   34.8058   47.8054 H   0  0  0  0  0  0  0  0  0  0  0  0
   58.4690   34.2170   46.8880 C   0  0  0  0  0  0  0  0  0  0  0  0
   57.7770   33.0460   46.8750 N   0  0  0  0  0  0  0  0  0  0  0  0
   57.7400   32.5080   45.6360 C   0  0  0  0  0  0  0  0  0  0  0  0
   57.1230   31.4040   45.3340 N   0  0  0  0  0  0  0  0  0  0  0  0
   57.7380   30.1940   44.8650 C   0  0  0  0  0  0  0  0  0  0  0  0
   58.2620   30.1890   43.7190 O   0  0  0  0  0  0  0  0  0  0  0  0
   57.8390   28.9810   45.7080 C   0  0  0  0  0  0  0  0  0  0  0  0
   56.9860   27.8940   45.4480 C   0  0  0  0  0  0  0  0  0  0  0  0
   56.2892   27.9402   44.5981 H   0  0  0  0  0  0  0  0  0  0  0  0
   57.0140   26.7540   46.2590 C   0  0  0  0  0  0  0  0  0  0  0  0
   55.9360   25.4060   45.9180 S   0  0  0  0  0  0  0  0  0  0  0  0
   55.8730   24.4940   47.1120 O   0  0  0  0  0  0  0  0  0  0  0  0
   54.5520   25.9150   45.6280 O   0  0  0  0  0  0  0  0  0  0  0  0
   56.5430   24.5050   44.5110 C   0  0  0  0  0  0  0  0  0  0  0  0
   57.1268   23.6384   44.8546 H   0  0  0  0  0  0  0  0  0  0  0  0
   55.6940   24.1577   43.9039 H   0  0  0  0  0  0  0  0  0  0  0  0
   57.1838   25.1614   43.9039 H   0  0  0  0  0  0  0  0  0  0  0  0
   57.8770   26.7070   47.3580 C   0  0  0  0  0  0  0  0  0  0  0  0
   57.8873   25.8211   48.0100 H   0  0  0  0  0  0  0  0  0  0  0  0
   58.7260   27.7820   47.6300 C   0  0  0  0  0  0  0  0  0  0  0  0
   59.4030   27.7365   48.4958 H   0  0  0  0  0  0  0  0  0  0  0  0
   58.7230   28.9190   46.8090 C   0  0  0  0  0  0  0  0  0  0  0  0
   59.6530   29.9800   47.0720 N   0  0  0  0  0  0  0  0  0  0  0  0
   59.5290   30.8860   48.1980 C   0  0  0  0  0  0  0  0  0  0  0  0
   58.5873   31.4511   48.1358 H   0  0  0  0  0  0  0  0  0  0  0  0
   59.5149   30.3480   49.1573 H   0  0  0  0  0  0  0  0  0  0  0  0
   60.7220   31.8250   48.0920 C   0  0  0  0  0  0  0  0  0  0  0  0
   60.4151   32.7865   47.6546 H   0  0  0  0  0  0  0  0  0  0  0  0
   61.1555   32.0421   49.0794 H   0  0  0  0  0  0  0  0  0  0  0  0
   61.7260   31.1210   47.1790 C   0  0  0  0  0  0  0  0  0  0  0  0
   62.2100   31.8475   46.5098 H   0  0  0  0  0  0  0  0  0  0  0  0
   62.5236   30.6308   47.7565 H   0  0  0  0  0  0  0  0  0  0  0  0
   60.9180   30.1130   46.3720 C   0  0  0  0  0  0  0  0  0  0  0  0
   60.7542   30.4825   45.3490 H   0  0  0  0  0  0  0  0  0  0  0  0
   61.4394   29.1484   46.2848 H   0  0  0  0  0  0  0  0  0  0  0  0
   58.5420   33.4600   44.5120 S   0  0  0  0  0  0  0  0  0  0  0  0
   58.9770   34.6150   45.6560 C   0  0  0  0  0  0  0  0  0  0  0  0
   59.5616   35.5265   45.4629 H   0  0  0  0  0  0  0  0  0  0  0  0
  1  2  1  0
  2  3  1  0
  3  4  1  0
  4  5  2  0
  5  6  1  0
  6  7  2  0
  6  8  1  0
  8  9  2  0
  9 10  1  0
  9 11  1  0
 11 12  1  0
 12 13  2  0
 12 14  2  0
 12 15  1  0
 15 16  1  0
 15 17  1  0
 15 18  1  0
 11 19  2  0
 19 20  1  0
 19 21  1  0
 21 22  1  0
 21 23  2  0
 23 24  1  0
 24 25  1  0
 25 26  1  0
 25 27  1  0
 25 28  1  0
 28 29  1  0
 28 30  1  0
 28 31  1  0
 31 32  1  0
 31 33  1  0
 31 34  1  0
 34 35  1  0
 34 36  1  0
  4 37  1  0
 37 38  1  0
 38 39  1  0
 38  2  2  0
 23  8  1  0
 34 24  1  0
M  CHG  1   3  -1
M  END
>  <UniqueID>  (90) 
83

>  <SMILES>  (90) 
CS(=O)(=O)c1ccc(N2CCCC2)c(C(=O)/N=c2\[n-]ccs2)c1

>  <Energy>  (90) 
80.16550722116068

>  <Genealogy>  (90) 
CS(=O)(=O)c1ccc(N2CCCC2)c(C(=O)N=c2[n-]ccs2)c1 (protonated)
CS(=O)(=O)c1ccc(N2CCCC2)c(C(=O)/N=c2\[n-]ccs2)c1 (cis-trans isomerization)
CS(=O)(=O)c1ccc(N2CCCC2)c(C(=O)/N=c2\[n-]ccs2)c1 (3D coordinates assigned)
CS(=O)(=O)c1ccc(N2CCCC2)c(C(=O)/N=c2\[n-]ccs2)c1 (nonaromatic ring conformer: 80.16550722116068 kcal/mol)

>  <smiles>  (90) 
CS(=O)(=O)c1ccc(N2CCCC2)c(C(=O)N=c2[nH]ccs2)c1

>  <score_type>  (90) 
oracle

>  <origin>  (90) 
adg

>  <m_score__min__energy>  (90) 
-9.4199999999999999

>  <m_primary>  (90) 
energy

$$$$
91:0
     RDKit          3D

 67 70  0  0  0  0  0  0  0  0999 V2000
   54.8810   22.6440   48.0330 C   0  0  0  0  0  0  0  0  0  0  0  0
   54.5120   22.2140   46.7280 O   0  0  0  0  0  0  0  0  0  0  0  0
   55.2250   22.5100   45.5550 C   0  0  0  0  0  0  0  0  0  0  0  0
   56.2190   21.6460   45.0510 C   0  0  0  0  0  0  0  0  0  0  0  0
   56.9170   21.9790   43.8880 C   0  0  0  0  0  0  0  0  0  0  0  0
   56.6240   23.1630   43.2090 C   0  0  0  0  0  0  0  0  0  0  0  0
   55.6350   24.0220   43.6920 C   0  0  0  0  0  0  0  0  0  0  0  0
   54.9370   23.7100   44.8700 C   0  0  0  0  0  0  0  0  0  0  0  0
   53.9200   24.6720   45.4210 C   0  0  0  0  0  0  0  0  0  0  0  0
   54.5660   25.9300   45.7760 N   0  0  0  0  0  0  0  0  0  0  0  0
   55.9120   26.0710   46.2500 C   0  0  0  0  0  0  0  0  0  0  0  0
   56.4750   25.0750   46.7670 O   0  0  0  0  0  0  0  0  0  0  0  0
   56.6820   27.3610   46.1400 C   0  0  0  0  0  0  0  0  0  0  0  0
   58.0670   27.2510   45.4700 C   0  0  2  0  0  0  0  0  0  0  0  0
   59.1900   27.7410   46.3330 C   0  0  0  0  0  0  0  0  0  0  0  0
   59.7050   26.9370   47.1600 O   0  0  0  0  0  0  0  0  0  0  0  0
   59.6640   29.0840   46.3310 N   0  0  0  0  0  0  0  0  0  0  0  0
   59.1130   30.2720   45.7460 C   0  0  0  0  0  0  0  0  0  0  0  0
   59.4480   31.4770   46.3800 C   0  0  0  0  0  0  0  0  0  0  0  0
   58.9580   32.7070   45.9230 C   0  0  0  0  0  0  0  0  0  0  0  0
   59.4640   34.2090   46.7080 S   0  0  0  0  0  0  0  0  0  0  0  0
   58.5280   34.4990   47.8470 O   0  0  0  0  0  0  0  0  0  0  0  0
   59.3140   35.3190   45.7070 O   0  0  0  0  0  0  0  0  0  0  0  0
   61.1260   34.2240   47.2700 N   0  0  0  0  0  0  0  0  0  0  0  0
   61.9870   33.1370   46.7670 C   0  0  0  0  0  0  0  0  0  0  0  0
   62.2890   32.0240   47.8070 C   0  0  1  0  0  0  0  0  0  0  0  0
   63.7330   32.1110   48.3280 C   0  0  0  0  0  0  0  0  0  0  0  0
   61.2730   32.0250   48.9590 C   0  0  0  0  0  0  0  0  0  0  0  0
   61.1800   33.3930   49.6620 C   0  0  2  0  0  0  0  0  0  0  0  0
   59.8980   33.4960   50.4970 C   0  0  0  0  0  0  0  0  0  0  0  0
   61.3240   34.5860   48.6830 C   0  0  0  0  0  0  0  0  0  0  0  0
   58.1730   32.7390   44.7660 C   0  0  0  0  0  0  0  0  0  0  0  0
   57.8480   31.5530   44.1110 C   0  0  0  0  0  0  0  0  0  0  0  0
   58.3120   30.3030   44.5760 C   0  0  0  0  0  0  0  0  0  0  0  0
   58.0720   29.1630   43.7310 N   0  0  0  0  0  0  0  0  0  0  0  0
   58.1370   27.7730   44.0650 C   0  0  0  0  0  0  0  0  0  0  0  0
   58.1990   26.9330   43.1240 O   0  0  0  0  0  0  0  0  0  0  0  0
   54.3566   22.0329   48.7824 H   0  0  0  0  0  0  0  0  0  0  0  0
   55.9674   22.5309   48.1628 H   0  0  0  0  0  0  0  0  0  0  0  0
   54.6043   23.7007   48.1628 H   0  0  0  0  0  0  0  0  0  0  0  0
   56.4455   20.7062   45.5758 H   0  0  0  0  0  0  0  0  0  0  0  0
   57.6995   21.3067   43.5062 H   0  0  0  0  0  0  0  0  0  0  0  0
   57.1736   23.4198   42.2914 H   0  0  0  0  0  0  0  0  0  0  0  0
   55.4012   24.9483   43.1468 H   0  0  0  0  0  0  0  0  0  0  0  0
   53.1476   24.8607   44.6609 H   0  0  0  0  0  0  0  0  0  0  0  0
   53.4596   24.2358   46.3198 H   0  0  0  0  0  0  0  0  0  0  0  0
   56.0769   28.0682   45.5538 H   0  0  0  0  0  0  0  0  0  0  0  0
   56.8706   27.6898   47.1726 H   0  0  0  0  0  0  0  0  0  0  0  0
   58.2152   26.1663   45.3627 H   0  0  0  0  0  0  0  0  0  0  0  0
   60.1114   31.4558   47.2572 H   0  0  0  0  0  0  0  0  0  0  0  0
   61.4874   32.6742   45.9032 H   0  0  0  0  0  0  0  0  0  0  0  0
   62.9529   33.5957   46.5089 H   0  0  0  0  0  0  0  0  0  0  0  0
   62.1855   31.0610   47.2855 H   0  0  0  0  0  0  0  0  0  0  0  0
   63.7266   32.1106   49.4280 H   0  0  0  0  0  0  0  0  0  0  0  0
   64.3068   31.2458   47.9644 H   0  0  0  0  0  0  0  0  0  0  0  0
   64.1987   33.0388   47.9644 H   0  0  0  0  0  0  0  0  0  0  0  0
   60.2824   31.7673   48.5561 H   0  0  0  0  0  0  0  0  0  0  0  0
   61.6106   31.2888   49.7033 H   0  0  0  0  0  0  0  0  0  0  0  0
   62.0393   33.4571   50.3458 H   0  0  0  0  0  0  0  0  0  0  0  0
   60.1544   33.4754   51.5665 H   0  0  0  0  0  0  0  0  0  0  0  0
   59.3819   34.4385   50.2617 H   0  0  0  0  0  0  0  0  0  0  0  0
   59.2381   32.6480   50.2617 H   0  0  0  0  0  0  0  0  0  0  0  0
   60.5782   35.3481   48.9533 H   0  0  0  0  0  0  0  0  0  0  0  0
   62.3563   34.9541   48.7771 H   0  0  0  0  0  0  0  0  0  0  0  0
   57.8120   33.7009   44.3729 H   0  0  0  0  0  0  0  0  0  0  0  0
   57.2159   31.5912   43.2116 H   0  0  0  0  0  0  0  0  0  0  0  0
   57.8180   29.3650   42.7370 H   0  0  0  0  0  0  0  0  0  0  0  0
  1  2  1  0
  2  3  1  0
  3  4  2  0
  4  5  1  0
  5  6  2  0
  6  7  1  0
  7  8  2  0
  8  9  1  0
  9 10  1  0
 10 11  1  0
 11 12  2  0
 11 13  1  0
 13 14  1  0
 14 15  1  0
 15 16  2  0
 15 17  1  0
 17 18  1  0
 18 19  2  0
 19 20  1  0
 20 21  1  0
 21 22  2  0
 21 23  2  0
 21 24  1  0
 24 25  1  0
 25 26  1  0
 26 27  1  0
 26 28  1  0
 28 29  1  0
 29 30  1  0
 29 31  1  0
 20 32  2  0
 32 33  1  0
 33 34  2  0
 34 35  1  0
 35 36  1  0
 36 37  2  0
  8  3  1  0
 36 14  1  0
 34 18  1  0
 31 24  1  0
  1 38  1  0
  1 39  1  0
  1 40  1  0
  4 41  1  0
  5 42  1  0
  6 43  1  0
  7 44  1  0
  9 45  1  0
  9 46  1  0
 13 47  1  0
 13 48  1  0
 14 49  1  6
 19 50  1  0
 25 51  1  0
 25 52  1  0
 26 53  1  6
 27 54  1  0
 27 55  1  0
 27 56  1  0
 28 57  1  0
 28 58  1  0
 29 59  1  1
 30 60  1  0
 30 61  1  0
 30 62  1  0
 31 63  1  0
 31 64  1  0
 32 65  1  0
 33 66  1  0
 35 67  1  0
M  CHG  2  10  -1  17  -1
M  END
>  <UniqueID>  (91) 
84

>  <SMILES>  (91) 
COc1ccccc1C[N-]C(=O)C[C@@H]1C(=O)[N-]c2cc(S(=O)(=O)N3CC(C)C[C@H](C)C3)ccc2NC1=O

>  <Energy>  (91) 
93.10689467113251

>  <Genealogy>  (91) 
COc1ccccc1C[N-]C(=O)CC1C(=O)[N-]c2cc(S(=O)(=O)N3CC(C)CC(C)C3)ccc2NC1=O (protonated)
COc1ccccc1C[N-]C(=O)C[C@@H]1C(=O)[N-]c2cc(S(=O)(=O)N3CC(C)C[C@H](C)C3)ccc2NC1=O (chirality)
COc1ccccc1C[N-]C(=O)C[C@@H]1C(=O)[N-]c2cc(S(=O)(=O)N3CC(C)C[C@H](C)C3)ccc2NC1=O (3D coordinates assigned)
COc1ccccc1C[N-]C(=O)C[C@@H]1C(=O)[N-]c2cc(S(=O)(=O)N3CC(C)C[C@H](C)C3)ccc2NC1=O (nonaromatic ring conformer: 93.10689467113251 kcal/mol)

>  <smiles>  (91) 
COc1ccccc1CNC(=O)CC1C(=O)Nc2ccc(S(=O)(=O)N3CC(C)CC(C)C3)cc2NC1=O

>  <score_type>  (91) 
oracle

>  <origin>  (91) 
adg

>  <m_score__min__energy>  (91) 
-12.66

>  <m_primary>  (91) 
energy

$$$$
