0:0
     RDKit          3D

 51 53  0  0  0  0  0  0  0  0999 V2000
   55.0470   22.2070   47.7210 C   0  0  0  0  0  0  0  0  0  0  0  0
   53.9110   22.6640   46.8460 C   0  0  0  0  0  0  0  0  0  0  0  0
   52.5990   22.2870   47.1830 C   0  0  0  0  0  0  0  0  0  0  0  0
   51.5250   22.6600   46.3730 C   0  0  0  0  0  0  0  0  0  0  0  0
   51.7450   23.4140   45.2210 C   0  0  0  0  0  0  0  0  0  0  0  0
   53.0400   23.8130   44.8830 C   0  0  0  0  0  0  0  0  0  0  0  0
   54.1250   23.4690   45.7020 C   0  0  0  0  0  0  0  0  0  0  0  0
   55.4380   23.9150   45.3300 N   0  0  0  0  0  0  0  0  0  0  0  0
   55.9130   25.2380   45.6130 C   0  0  0  0  0  0  0  0  0  0  0  0
   55.1510   26.0770   46.1660 O   0  0  0  0  0  0  0  0  0  0  0  0
   57.2650   25.5870   45.2880 N   0  0  0  0  0  0  0  0  0  0  0  0
   57.7700   26.9300   45.3160 C   0  0  0  0  0  0  0  0  0  0  0  0
   59.2990   27.1740   45.8660 S   0  0  0  0  0  0  0  0  0  0  0  0
   56.9500   28.0310   44.8750 N   0  0  0  0  0  0  0  0  0  0  0  0
   57.4150   29.3800   44.7170 C   0  0  0  0  0  0  0  0  0  0  0  0
   58.4340   29.8960   45.5350 C   0  0  0  0  0  0  0  0  0  0  0  0
   58.8890   31.2040   45.3540 C   0  0  0  0  0  0  0  0  0  0  0  0
   58.3390   32.0150   44.3480 C   0  0  0  0  0  0  0  0  0  0  0  0
   58.8010   33.4430   44.1730 C   0  0  0  0  0  0  0  0  0  0  0  0
   58.2560   34.3760   45.1870 N   0  0  0  0  0  0  0  0  0  0  0  0
   59.2680   35.1270   45.9610 C   0  0  0  0  0  0  0  0  0  0  0  0
   59.4190   34.6080   47.4020 C   0  0  0  0  0  0  0  0  0  0  0  0
   59.0250   33.2580   47.4930 O   0  0  0  0  0  0  0  0  0  0  0  0
   57.6270   33.1610   47.3050 C   0  0  0  0  0  0  0  0  0  0  0  0
   57.1460   33.8390   46.0000 C   0  0  0  0  0  0  0  0  0  0  0  0
   57.3550   31.4800   43.5000 C   0  0  0  0  0  0  0  0  0  0  0  0
   56.9020   30.1710   43.6810 C   0  0  0  0  0  0  0  0  0  0  0  0
   54.7644   22.3207   48.7780 H   0  0  0  0  0  0  0  0  0  0  0  0
   55.2683   21.1499   47.5123 H   0  0  0  0  0  0  0  0  0  0  0  0
   55.9387   22.8164   47.5123 H   0  0  0  0  0  0  0  0  0  0  0  0
   52.4176   21.6939   48.0915 H   0  0  0  0  0  0  0  0  0  0  0  0
   50.5026   22.3583   46.6443 H   0  0  0  0  0  0  0  0  0  0  0  0
   50.8979   23.6948   44.5779 H   0  0  0  0  0  0  0  0  0  0  0  0
   53.2099   24.4007   43.9688 H   0  0  0  0  0  0  0  0  0  0  0  0
   55.9890   23.3250   44.6660 H   0  0  0  0  0  0  0  0  0  0  0  0
   57.9420   24.8100   45.1210 H   0  0  0  0  0  0  0  0  0  0  0  0
   55.9390   27.8600   44.6780 H   0  0  0  0  0  0  0  0  0  0  0  0
   58.8756   29.2668   46.3218 H   0  0  0  0  0  0  0  0  0  0  0  0
   59.6830   31.6014   46.0034 H   0  0  0  0  0  0  0  0  0  0  0  0
   59.8989   33.4628   44.2380 H   0  0  0  0  0  0  0  0  0  0  0  0
   58.4312   33.7819   43.1940 H   0  0  0  0  0  0  0  0  0  0  0  0
   60.2386   35.0375   45.4512 H   0  0  0  0  0  0  0  0  0  0  0  0
   58.9334   36.1733   46.0180 H   0  0  0  0  0  0  0  0  0  0  0  0
   60.4715   34.6977   47.7089 H   0  0  0  0  0  0  0  0  0  0  0  0
   58.7746   35.2079   48.0615 H   0  0  0  0  0  0  0  0  0  0  0  0
   57.3506   32.0969   47.2700 H   0  0  0  0  0  0  0  0  0  0  0  0
   57.1443   33.6822   48.1448 H   0  0  0  0  0  0  0  0  0  0  0  0
   56.5990   33.0968   45.4001 H   0  0  0  0  0  0  0  0  0  0  0  0
   56.5064   34.6871   46.2856 H   0  0  0  0  0  0  0  0  0  0  0  0
   56.9388   32.0954   42.6888 H   0  0  0  0  0  0  0  0  0  0  0  0
   56.1377   29.7588   43.0058 H   0  0  0  0  0  0  0  0  0  0  0  0
  1  2  1  0
  2  3  2  0
  3  4  1  0
  4  5  2  0
  5  6  1  0
  6  7  2  0
  7  8  1  0
  8  9  1  0
  9 10  2  0
  9 11  1  0
 11 12  1  0
 12 13  2  0
 12 14  1  0
 14 15  1  0
 15 16  2  0
 16 17  1  0
 17 18  2  0
 18 19  1  0
 19 20  1  0
 20 21  1  0
 21 22  1  0
 22 23  1  0
 23 24  1  0
 24 25  1  0
 18 26  1  0
 26 27  2  0
  7  2  1  0
 27 15  1  0
 25 20  1  0
  1 28  1  0
  1 29  1  0
  1 30  1  0
  3 31  1  0
  4 32  1  0
  5 33  1  0
  6 34  1  0
  8 35  1  0
 11 36  1  0
 14 37  1  0
 16 38  1  0
 17 39  1  0
 19 40  1  0
 19 41  1  0
 21 42  1  0
 21 43  1  0
 22 44  1  0
 22 45  1  0
 24 46  1  0
 24 47  1  0
 25 48  1  0
 25 49  1  0
 26 50  1  0
 27 51  1  0
M  END
>  <UniqueID>  (1) 
1

>  <SMILES>  (1) 
Cc1ccccc1NC(=O)NC(=S)Nc1ccc(CN2CCOCC2)cc1

>  <Energy>  (1) 
80.61832191946198

>  <Genealogy>  (1) 
Cc1ccccc1NC(=O)NC(=S)Nc1ccc(CN2CCOCC2)cc1 (3D coordinates assigned)
Cc1ccccc1NC(=O)NC(=S)Nc1ccc(CN2CCOCC2)cc1 (nonaromatic ring conformer: 80.61832191946198 kcal/mol)

>  <smiles>  (1) 
Cc1ccccc1NC(=O)NC(=S)Nc1ccc(CN2CCOCC2)cc1

>  <score_type>  (1) 
oracle

>  <origin>  (1) 
adg

>  <m_score__min__energy>  (1) 
-8.3300000000000001

>  <m_primary>  (1) 
energy

$$$$
1:0
     RDKit          3D

 68 72  0  0  0  0  0  0  0  0999 V2000
   56.9220   26.0960   43.5110 H   0  0  0  0  0  0  0  0  0  0  0  0
   57.6400   25.6040   44.0880 N   0  0  0  0  0  0  0  0  0  0  0  0
   58.1580   26.1100   45.1630 C   0  0  0  0  0  0  0  0  0  0  0  0
   59.2480   25.5140   45.7130 N   0  0  0  0  0  0  0  0  0  0  0  0
   59.8570   26.0000   46.8280 C   0  0  0  0  0  0  0  0  0  0  0  0
   60.7365   25.4842   47.2410 H   0  0  0  0  0  0  0  0  0  0  0  0
   59.3670   27.1580   47.4540 C   0  0  0  0  0  0  0  0  0  0  0  0
   59.9870   27.6770   48.6940 C   0  0  0  0  0  0  0  0  0  0  0  0
   60.6190   26.8290   49.5460 N   0  0  0  0  0  0  0  0  0  0  0  0
   61.2070   27.2910   50.6790 C   0  0  0  0  0  0  0  0  0  0  0  0
   61.8790   26.3800   51.5750 N   0  0  0  0  0  0  0  0  0  0  0  0
   61.1890   25.1700   52.0430 C   0  0  0  0  0  0  0  0  0  0  0  0
   60.5518   25.4253   52.9025 H   0  0  0  0  0  0  0  0  0  0  0  0
   60.5742   24.7695   51.2235 H   0  0  0  0  0  0  0  0  0  0  0  0
   62.2070   24.1070   52.4670 C   0  0  0  0  0  0  0  0  0  0  0  0
   61.6776   23.2747   52.9538 H   0  0  0  0  0  0  0  0  0  0  0  0
   62.7388   23.7517   51.5720 H   0  0  0  0  0  0  0  0  0  0  0  0
   63.1510   24.6470   53.3700 O   0  0  0  0  0  0  0  0  0  0  0  0
   63.9310   25.6230   52.7100 C   0  0  0  0  0  0  0  0  0  0  0  0
   64.7323   25.9607   53.3837 H   0  0  0  0  0  0  0  0  0  0  0  0
   64.3593   25.1770   51.8003 H   0  0  0  0  0  0  0  0  0  0  0  0
   63.0700   26.8260   52.3100 C   0  0  0  0  0  0  0  0  0  0  0  0
   62.7563   27.3648   53.2162 H   0  0  0  0  0  0  0  0  0  0  0  0
   63.6619   27.4895   51.6624 H   0  0  0  0  0  0  0  0  0  0  0  0
   61.1540   28.6210   50.9580 N   0  0  0  0  0  0  0  0  0  0  0  0
   60.5270   29.4840   50.1160 C   0  0  0  0  0  0  0  0  0  0  0  0
   60.4670   30.8920   50.4260 N   0  0  0  0  0  0  0  0  0  0  0  0
   61.6670   31.5750   50.9290 C   0  0  0  0  0  0  0  0  0  0  0  0
   61.7752   31.3704   52.0044 H   0  0  0  0  0  0  0  0  0  0  0  0
   62.5438   31.2011   50.3799 H   0  0  0  0  0  0  0  0  0  0  0  0
   61.5580   33.0880   50.7130 C   0  0  0  0  0  0  0  0  0  0  0  0
   62.3843   33.5875   51.2399 H   0  0  0  0  0  0  0  0  0  0  0  0
   61.6106   33.2938   49.6337 H   0  0  0  0  0  0  0  0  0  0  0  0
   60.3300   33.5800   51.2070 O   0  0  0  0  0  0  0  0  0  0  0  0
   59.2690   33.0510   50.4390 C   0  0  0  0  0  0  0  0  0  0  0  0
   58.3262   33.5215   50.7549 H   0  0  0  0  0  0  0  0  0  0  0  0
   59.4654   33.2598   49.3770 H   0  0  0  0  0  0  0  0  0  0  0  0
   59.1610   31.5350   50.6280 C   0  0  0  0  0  0  0  0  0  0  0  0
   58.8078   31.3225   51.6478 H   0  0  0  0  0  0  0  0  0  0  0  0
   58.4520   31.1359   49.8877 H   0  0  0  0  0  0  0  0  0  0  0  0
   59.9490   29.0030   48.9830 N   0  0  0  0  0  0  0  0  0  0  0  0
   58.2500   27.7960   46.8920 C   0  0  0  0  0  0  0  0  0  0  0  0
   57.8631   28.7196   47.3472 H   0  0  0  0  0  0  0  0  0  0  0  0
   57.6260   27.2680   45.7600 C   0  0  0  0  0  0  0  0  0  0  0  0
   56.5130   27.9190   45.2170 O   0  0  0  0  0  0  0  0  0  0  0  0
   56.4750   29.3250   44.9630 C   0  0  0  0  0  0  0  0  0  0  0  0
   57.0220   30.0130   46.0330 F   0  0  0  0  0  0  0  0  0  0  0  0
   55.1490   29.7000   44.8470 F   0  0  0  0  0  0  0  0  0  0  0  0
   57.1930   29.6720   43.6460 C   0  0  0  0  0  0  0  0  0  0  0  0
   57.5668   28.7427   43.1914 H   0  0  0  0  0  0  0  0  0  0  0  0
   56.4682   30.1767   42.9903 H   0  0  0  0  0  0  0  0  0  0  0  0
   58.3240   30.5850   43.8520 N   0  0  0  0  0  0  0  0  0  0  0  0
   59.1710   30.3950   43.2720 H   0  0  0  0  0  0  0  0  0  0  0  0
   58.2670   31.8160   44.6110 C   0  0  0  0  0  0  0  0  0  0  0  0
   57.4070   32.8680   44.2210 C   0  0  0  0  0  0  0  0  0  0  0  0
   56.7270   32.7251   43.3682 H   0  0  0  0  0  0  0  0  0  0  0  0
   57.4090   34.0850   44.9030 C   0  0  0  0  0  0  0  0  0  0  0  0
   56.7301   34.8910   44.5877 H   0  0  0  0  0  0  0  0  0  0  0  0
   58.2670   34.2830   45.9810 C   0  0  0  0  0  0  0  0  0  0  0  0
   58.2736   35.2482   46.5086 H   0  0  0  0  0  0  0  0  0  0  0  0
   59.1180   33.2580   46.3920 C   0  0  0  0  0  0  0  0  0  0  0  0
   59.7941   33.4215   47.2441 H   0  0  0  0  0  0  0  0  0  0  0  0
   59.1220   32.0180   45.7300 C   0  0  0  0  0  0  0  0  0  0  0  0
   59.9850   30.9430   46.2630 C   0  0  0  0  0  0  0  0  0  0  0  0
   60.0680   29.8440   45.6550 O   0  0  0  0  0  0  0  0  0  0  0  0
   60.6940   31.1190   47.4910 N   0  0  0  0  0  0  0  0  0  0  0  0
   61.2640   30.3380   47.8850 H   0  0  0  0  0  0  0  0  0  0  0  0
   60.6800   32.0350   47.9930 H   0  0  0  0  0  0  0  0  0  0  0  0
  1  2  1  0
  2  3  2  0
  3  4  1  0
  4  5  1  0
  5  6  1  0
  5  7  2  0
  7  8  1  0
  8  9  2  0
  9 10  1  0
 10 11  1  0
 11 12  1  0
 12 13  1  0
 12 14  1  0
 12 15  1  0
 15 16  1  0
 15 17  1  0
 15 18  1  0
 18 19  1  0
 19 20  1  0
 19 21  1  0
 19 22  1  0
 22 23  1  0
 22 24  1  0
 10 25  2  0
 25 26  1  0
 26 27  1  0
 27 28  1  0
 28 29  1  0
 28 30  1  0
 28 31  1  0
 31 32  1  0
 31 33  1  0
 31 34  1  0
 34 35  1  0
 35 36  1  0
 35 37  1  0
 35 38  1  0
 38 39  1  0
 38 40  1  0
 26 41  2  0
  7 42  1  0
 42 43  1  0
 42 44  2  0
 44 45  1  0
 45 46  1  0
 46 47  1  0
 46 48  1  0
 46 49  1  0
 49 50  1  0
 49 51  1  0
 49 52  1  0
 52 53  1  0
 52 54  1  0
 54 55  2  0
 55 56  1  0
 55 57  1  0
 57 58  1  0
 57 59  2  0
 59 60  1  0
 59 61  1  0
 61 62  1  0
 61 63  2  0
 63 64  1  0
 64 65  2  0
 64 66  1  0
 66 67  1  0
 66 68  1  0
 44  3  1  0
 63 54  1  0
 41  8  1  0
 22 11  1  0
 38 27  1  0
M  CHG  1   4  -1
M  END
>  <UniqueID>  (2) 
2

>  <SMILES>  (2) 
[H]/N=c1/[n-]cc(-c2nc(N3CCOCC3)nc(N3CCOCC3)n2)cc1OC(F)(F)CNc1ccccc1C(N)=O

>  <Energy>  (2) 
89.20256556003498

>  <Genealogy>  (2) 
N=c1[n-]cc(-c2nc(N3CCOCC3)nc(N3CCOCC3)n2)cc1OC(F)(F)CNc1ccccc1C(N)=O (protonated)
[H]/N=c1/[n-]cc(-c2nc(N3CCOCC3)nc(N3CCOCC3)n2)cc1OC(F)(F)CNc1ccccc1C(N)=O (cis-trans isomerization)
[H]/N=c1/[n-]cc(-c2nc(N3CCOCC3)nc(N3CCOCC3)n2)cc1OC(F)(F)CNc1ccccc1C(N)=O (3D coordinates assigned)
[H]/N=c1/[n-]cc(-c2nc(N3CCOCC3)nc(N3CCOCC3)n2)cc1OC(F)(F)CNc1ccccc1C(N)=O (nonaromatic ring conformer: 89.20256556003498 kcal/mol)

>  <smiles>  (2) 
N=c1[nH]cc(-c2nc(N3CCOCC3)nc(N3CCOCC3)n2)cc1OC(F)(F)CNc1ccccc1C(N)=O

>  <score_type>  (2) 
oracle

>  <origin>  (2) 
adg

>  <m_score__min__energy>  (2) 
-9.3599999999999994

>  <m_primary>  (2) 
energy

$$$$
2:0
     RDKit          3D

 17 17  0  0  0  0  0  0  0  0999 V2000
   60.6140   28.8910   45.1850 C   0  0  0  0  0  0  0  0  0  0  0  0
   59.4360   28.2910   45.4260 C   0  0  0  0  0  0  0  0  0  0  0  0
   59.4860   27.0480   45.9720 N   0  0  0  0  0  0  0  0  0  0  0  0
   58.3830   26.3220   46.2700 C   0  0  0  0  0  0  0  0  0  0  0  0
   57.1060   26.8340   46.0200 C   0  0  0  0  0  0  0  0  0  0  0  0
   55.9170   26.0080   46.3590 C   0  0  0  0  0  0  0  0  0  0  0  0
   54.7640   26.3370   45.9720 O   0  0  0  0  0  0  0  0  0  0  0  0
   56.0590   24.8500   47.1150 O   0  0  0  0  0  0  0  0  0  0  0  0
   56.9990   28.1220   45.4520 C   0  0  0  0  0  0  0  0  0  0  0  0
   55.8540   28.6040   45.2180 O   0  0  0  0  0  0  0  0  0  0  0  0
   58.1630   28.8760   45.1440 C   0  0  0  0  0  0  0  0  0  0  0  0
   58.0260   30.1070   44.6010 C   0  0  0  0  0  0  0  0  0  0  0  0
   60.6381   29.8983   44.7437 H   0  0  0  0  0  0  0  0  0  0  0  0
   61.5542   28.3748   45.4290 H   0  0  0  0  0  0  0  0  0  0  0  0
   58.4922   25.3209   46.7125 H   0  0  0  0  0  0  0  0  0  0  0  0
   58.9179   30.7029   44.3570 H   0  0  0  0  0  0  0  0  0  0  0  0
   57.0227   30.5124   44.4033 H   0  0  0  0  0  0  0  0  0  0  0  0
  1  2  2  0
  2  3  1  0
  3  4  1  0
  4  5  2  0
  5  6  1  0
  6  7  2  0
  6  8  1  0
  5  9  1  0
  9 10  2  0
  9 11  1  0
 11 12  2  0
 11  2  1  0
  1 13  1  0
  1 14  1  0
  4 15  1  0
 12 16  1  0
 12 17  1  0
M  CHG  2   3  -1   8  -1
M  END
>  <UniqueID>  (3) 
3

>  <SMILES>  (3) 
C=c1[n-]cc(C(=O)[O-])c(=O)c1=C

>  <Energy>  (3) 
27.44341005086072

>  <Genealogy>  (3) 
C=c1[n-]cc(C(=O)[O-])c(=O)c1=C (protonated)
C=c1[n-]cc(C(=O)[O-])c(=O)c1=C (3D coordinates assigned)
C=c1[n-]cc(C(=O)[O-])c(=O)c1=C (optimized conformer: 27.44341005086072 kcal/mol)

>  <smiles>  (3) 
C=c1[nH]cc(C(=O)O)c(=O)c1=C

>  <score_type>  (3) 
oracle

>  <origin>  (3) 
adg

>  <m_score__min__energy>  (3) 
-9.3599999999999994

>  <m_primary>  (3) 
energy

$$$$
3:0
     RDKit          3D

 54 57  0  0  0  0  0  0  0  0999 V2000
   55.1580   26.7010   45.9990 N   0  0  0  0  0  0  0  0  0  0  0  0
   56.5550   25.7220   46.2790 S   0  0  0  0  0  0  0  0  0  0  0  0
   56.4320   25.0400   47.6120 O   0  0  0  0  0  0  0  0  0  0  0  0
   56.6580   24.6740   45.2070 O   0  0  0  0  0  0  0  0  0  0  0  0
   57.9920   26.7390   46.2570 C   0  0  0  0  0  0  0  0  0  0  0  0
   58.4690   27.2550   45.0450 C   0  0  0  0  0  0  0  0  0  0  0  0
   59.5990   28.0760   45.0280 C   0  0  0  0  0  0  0  0  0  0  0  0
   60.2540   28.3950   46.2200 C   0  0  0  0  0  0  0  0  0  0  0  0
   59.7800   27.8920   47.4420 C   0  0  0  0  0  0  0  0  0  0  0  0
   60.4700   28.2650   48.7270 C   0  0  0  0  0  0  0  0  0  0  0  0
   59.9120   29.5080   49.2620 N   0  0  0  0  0  0  0  0  0  0  0  0
   58.6070   29.7650   49.4840 C   0  0  0  0  0  0  0  0  0  0  0  0
   58.4000   30.9780   50.0370 N   0  0  0  0  0  0  0  0  0  0  0  0
   59.6360   31.5020   50.1730 C   0  0  0  0  0  0  0  0  0  0  0  0
   60.5670   30.6020   49.7030 C   0  0  0  0  0  0  0  0  0  0  0  0
   62.0550   30.8090   49.6900 C   0  0  0  0  0  0  0  0  0  0  0  0
   62.4010   32.2020   49.4000 N   0  0  0  0  0  0  0  0  0  0  0  0
   62.4060   32.5190   47.6880 S   0  0  0  0  0  0  0  0  0  0  0  0
   62.8360   31.2820   46.9500 O   0  0  0  0  0  0  0  0  0  0  0  0
   63.3930   33.6120   47.3950 O   0  0  0  0  0  0  0  0  0  0  0  0
   60.8130   33.0360   47.1370 C   0  0  0  0  0  0  0  0  0  0  0  0
   60.3360   34.3190   47.4300 C   0  0  0  0  0  0  0  0  0  0  0  0
   59.0840   34.7230   46.9680 C   0  0  0  0  0  0  0  0  0  0  0  0
   58.3010   33.8530   46.2050 C   0  0  0  0  0  0  0  0  0  0  0  0
   58.7670   32.5610   45.8880 C   0  0  0  0  0  0  0  0  0  0  0  0
   57.9450   31.6160   45.0810 C   0  0  0  0  0  0  0  0  0  0  0  0
   57.4430   30.4750   45.5310 C   0  0  0  0  0  0  0  0  0  0  0  0
   56.6560   29.7510   44.5030 C   0  0  0  0  0  0  0  0  0  0  0  0
   56.8570   30.5690   43.2270 C   0  0  0  0  0  0  0  0  0  0  0  0
   57.5520   31.8610   43.6630 C   0  0  0  0  0  0  0  0  0  0  0  0
   60.0290   32.1630   46.3720 C   0  0  0  0  0  0  0  0  0  0  0  0
   58.6470   27.0610   47.4530 C   0  0  0  0  0  0  0  0  0  0  0  0
   54.8550   27.0700   46.9280 H   0  0  0  0  0  0  0  0  0  0  0  0
   57.9524   27.0130   44.1045 H   0  0  0  0  0  0  0  0  0  0  0  0
   59.9743   28.4726   44.0731 H   0  0  0  0  0  0  0  0  0  0  0  0
   61.1434   29.0420   46.2011 H   0  0  0  0  0  0  0  0  0  0  0  0
   60.3292   27.4585   49.4616 H   0  0  0  0  0  0  0  0  0  0  0  0
   61.5419   28.4110   48.5278 H   0  0  0  0  0  0  0  0  0  0  0  0
   57.7978   29.0609   49.2403 H   0  0  0  0  0  0  0  0  0  0  0  0
   59.8644   32.4926   50.5933 H   0  0  0  0  0  0  0  0  0  0  0  0
   62.4622   30.5373   50.6751 H   0  0  0  0  0  0  0  0  0  0  0  0
   62.4845   30.1753   48.9001 H   0  0  0  0  0  0  0  0  0  0  0  0
   60.9502   35.0100   48.0260 H   0  0  0  0  0  0  0  0  0  0  0  0
   58.7113   35.7304   47.2051 H   0  0  0  0  0  0  0  0  0  0  0  0
   57.3127   34.1790   45.8487 H   0  0  0  0  0  0  0  0  0  0  0  0
   57.5936   30.1049   46.5559 H   0  0  0  0  0  0  0  0  0  0  0  0
   57.0346   28.7265   44.3726 H   0  0  0  0  0  0  0  0  0  0  0  0
   55.5951   29.6543   44.7772 H   0  0  0  0  0  0  0  0  0  0  0  0
   57.4872   30.0173   42.5139 H   0  0  0  0  0  0  0  0  0  0  0  0
   55.9007   30.7745   42.7238 H   0  0  0  0  0  0  0  0  0  0  0  0
   58.4391   32.0536   43.0418 H   0  0  0  0  0  0  0  0  0  0  0  0
   56.9013   32.7415   43.5563 H   0  0  0  0  0  0  0  0  0  0  0  0
   60.4034   31.1536   46.1462 H   0  0  0  0  0  0  0  0  0  0  0  0
   58.2719   26.6608   48.4065 H   0  0  0  0  0  0  0  0  0  0  0  0
  1  2  1  0
  2  3  2  0
  2  4  2  0
  2  5  1  0
  5  6  2  0
  6  7  1  0
  7  8  2  0
  8  9  1  0
  9 10  1  0
 10 11  1  0
 11 12  1  0
 12 13  2  0
 13 14  1  0
 14 15  2  0
 15 16  1  0
 16 17  1  0
 17 18  1  0
 18 19  2  0
 18 20  2  0
 18 21  1  0
 21 22  2  0
 22 23  1  0
 23 24  2  0
 24 25  1  0
 25 26  1  0
 26 27  2  0
 27 28  1  0
 28 29  1  0
 29 30  1  0
 25 31  2  0
  9 32  2  0
 32  5  1  0
 15 11  1  0
 31 21  1  0
 30 26  1  0
  1 33  1  0
  6 34  1  0
  7 35  1  0
  8 36  1  0
 10 37  1  0
 10 38  1  0
 12 39  1  0
 14 40  1  0
 16 41  1  0
 16 42  1  0
 22 43  1  0
 23 44  1  0
 24 45  1  0
 27 46  1  0
 28 47  1  0
 28 48  1  0
 29 49  1  0
 29 50  1  0
 30 51  1  0
 30 52  1  0
 31 53  1  0
 32 54  1  0
M  CHG  2   1  -1  17  -1
M  END
>  <UniqueID>  (4) 
4

>  <SMILES>  (4) 
[NH-]S(=O)(=O)c1cccc(Cn2cncc2C[N-]S(=O)(=O)c2cccc(C3=CCCC3)c2)c1

>  <Energy>  (4) 
88.87974875715868

>  <Genealogy>  (4) 
[NH-]S(=O)(=O)c1cccc(Cn2cncc2C[N-]S(=O)(=O)c2cccc(C3=CCCC3)c2)c1 (protonated)
[NH-]S(=O)(=O)c1cccc(Cn2cncc2C[N-]S(=O)(=O)c2cccc(C3=CCCC3)c2)c1 (3D coordinates assigned)
[NH-]S(=O)(=O)c1cccc(Cn2cncc2C[N-]S(=O)(=O)c2cccc(C3=CCCC3)c2)c1 (nonaromatic ring conformer: 88.87974875715868 kcal/mol)

>  <smiles>  (4) 
NS(=O)(=O)c1cccc(Cn2cncc2CNS(=O)(=O)c2cccc(C3=CCCC3)c2)c1

>  <score_type>  (4) 
oracle

>  <origin>  (4) 
adg

>  <m_score__min__energy>  (4) 
-14

>  <m_primary>  (4) 
energy

$$$$
4:0
     RDKit          3D

 39 41  0  0  0  0  0  0  0  0999 V2000
   55.1440   28.1810   44.9260 H   0  0  0  0  0  0  0  0  0  0  0  0
   55.7530   27.6510   45.5340 O   0  0  0  0  0  0  0  0  0  0  0  0
   57.1300   27.8840   45.6580 C   0  0  0  0  0  0  0  0  0  0  0  0
   57.7010   29.0840   45.1810 C   0  0  0  0  0  0  0  0  0  0  0  0
   56.9080   30.0860   44.4330 C   0  0  0  0  0  0  0  0  0  0  0  0
   56.4470   29.8000   43.2960 O   0  0  0  0  0  0  0  0  0  0  0  0
   56.6570   31.3700   45.0200 N   0  0  0  0  0  0  0  0  0  0  0  0
   57.6320   32.3830   45.3090 C   0  0  0  0  0  0  0  0  0  0  0  0
   58.0710   33.2110   44.2670 C   0  0  0  0  0  0  0  0  0  0  0  0
   57.6782   33.0645   43.2500 H   0  0  0  0  0  0  0  0  0  0  0  0
   59.0050   34.2220   44.5120 C   0  0  0  0  0  0  0  0  0  0  0  0
   59.3545   34.8586   43.6858 H   0  0  0  0  0  0  0  0  0  0  0  0
   59.4950   34.4250   45.8040 C   0  0  0  0  0  0  0  0  0  0  0  0
   60.2350   35.2166   45.9934 H   0  0  0  0  0  0  0  0  0  0  0  0
   59.0450   33.6220   46.8570 C   0  0  0  0  0  0  0  0  0  0  0  0
   59.6390   33.8960   48.4840 Cl  0  0  0  0  0  0  0  0  0  0  0  0
   58.1110   32.6080   46.6140 C   0  0  0  0  0  0  0  0  0  0  0  0
   57.7499   31.9847   47.4454 H   0  0  0  0  0  0  0  0  0  0  0  0
   59.0620   29.3130   45.4280 C   0  0  0  0  0  0  0  0  0  0  0  0
   59.6070   30.3920   45.0720 O   0  0  0  0  0  0  0  0  0  0  0  0
   59.8080   28.3780   45.9920 O   0  0  0  0  0  0  0  0  0  0  0  0
   59.3440   27.1990   46.3920 C   0  0  0  0  0  0  0  0  0  0  0  0
   60.2670   26.2970   46.7530 C   0  0  0  0  0  0  0  0  0  0  0  0
   59.9562   25.2988   47.0952 H   0  0  0  0  0  0  0  0  0  0  0  0
   61.3354   26.5548   46.7071 H   0  0  0  0  0  0  0  0  0  0  0  0
   57.9380   26.9340   46.3360 C   0  0  0  0  0  0  0  0  0  0  0  0
   57.3260   25.8620   46.9120 C   0  0  0  0  0  0  0  0  0  0  0  0
   57.1326   25.9236   47.9931 H   0  0  0  0  0  0  0  0  0  0  0  0
   56.8960   24.6240   46.2280 C   0  0  0  0  0  0  0  0  0  0  0  0
   57.1490   24.4710   44.8560 C   0  0  0  0  0  0  0  0  0  0  0  0
   57.6952   25.2535   44.3088 H   0  0  0  0  0  0  0  0  0  0  0  0
   56.7090   23.3270   44.1820 C   0  0  0  0  0  0  0  0  0  0  0  0
   56.9254   23.2040   43.1105 H   0  0  0  0  0  0  0  0  0  0  0  0
   55.9950   22.3400   44.8670 C   0  0  0  0  0  0  0  0  0  0  0  0
   55.5600   21.2040   44.1960 O   0  0  0  0  0  0  0  0  0  0  0  0
   55.7130   22.4990   46.2270 C   0  0  0  0  0  0  0  0  0  0  0  0
   55.1458   21.7248   46.7645 H   0  0  0  0  0  0  0  0  0  0  0  0
   56.1510   23.6410   46.9050 C   0  0  0  0  0  0  0  0  0  0  0  0
   55.9123   23.7712   47.9709 H   0  0  0  0  0  0  0  0  0  0  0  0
  1  2  1  0
  2  3  1  0
  3  4  2  0
  4  5  1  0
  5  6  2  0
  5  7  1  0
  7  8  1  0
  8  9  2  0
  9 10  1  0
  9 11  1  0
 11 12  1  0
 11 13  2  0
 13 14  1  0
 13 15  1  0
 15 16  1  0
 15 17  2  0
 17 18  1  0
  4 19  1  0
 19 20  2  0
 19 21  1  0
 21 22  1  0
 22 23  2  0
 23 24  1  0
 23 25  1  0
 22 26  1  0
 26 27  2  0
 27 28  1  0
 27 29  1  0
 29 30  2  0
 30 31  1  0
 30 32  1  0
 32 33  1  0
 32 34  2  0
 34 35  1  0
 34 36  1  0
 36 37  1  0
 36 38  2  0
 38 39  1  0
 26  3  1  0
 38 29  1  0
 17  8  1  0
M  CHG  2   7  -1  35  -1
M  END
>  <UniqueID>  (5) 
5

>  <SMILES>  (5) 
C=c1oc(=O)c(C(=O)[N-]c2cccc(Cl)c2)c(O)/c1=C/c1ccc([O-])cc1

>  <Energy>  (5) 
76.64553355563875

>  <Genealogy>  (5) 
C=c1oc(=O)c(C(=O)[N-]c2cccc(Cl)c2)c(O)c1=Cc1ccc([O-])cc1 (protonated)
C=c1oc(=O)c(C(=O)[N-]c2cccc(Cl)c2)c(O)/c1=C/c1ccc([O-])cc1 (cis-trans isomerization)
C=c1oc(=O)c(C(=O)[N-]c2cccc(Cl)c2)c(O)/c1=C/c1ccc([O-])cc1 (3D coordinates assigned)
C=c1oc(=O)c(C(=O)[N-]c2cccc(Cl)c2)c(O)/c1=C/c1ccc([O-])cc1 (optimized conformer: 76.64553355563875 kcal/mol)

>  <smiles>  (5) 
C=c1oc(=O)c(C(=O)Nc2cccc(Cl)c2)c(O)c1=Cc1ccc(O)cc1

>  <score_type>  (5) 
oracle

>  <origin>  (5) 
adg

>  <m_score__min__energy>  (5) 
-12.470000000000001

>  <m_primary>  (5) 
energy

$$$$
5:0
     RDKit          3D

 43 46  0  0  0  0  0  0  0  0999 V2000
   55.6980   28.9580   55.3440 C   0  0  0  0  0  0  0  0  0  0  0  0
   55.0830   29.5370   54.3090 C   0  0  0  0  0  0  0  0  0  0  0  0
   53.7700   29.8420   54.3130 N   0  0  0  0  0  0  0  0  0  0  0  0
   53.5000   30.4420   53.1360 C   0  0  0  0  0  0  0  0  0  0  0  0
   52.2710   30.8570   52.7940 C   0  0  0  0  0  0  0  0  0  0  0  0
   51.8440   31.1400   51.4120 C   0  0  0  0  0  0  0  0  0  0  0  0
   51.8450   30.2150   50.4360 N   0  0  0  0  0  0  0  0  0  0  0  0
   51.3130   30.8690   49.3810 C   0  0  0  0  0  0  0  0  0  0  0  0
   51.1590   30.3280   48.2560 O   0  0  0  0  0  0  0  0  0  0  0  0
   50.9500   32.1440   49.6300 N   0  0  0  0  0  0  0  0  0  0  0  0
   51.2800   32.2980   50.9220 C   0  0  0  0  0  0  0  0  0  0  0  0
   51.0250   33.4570   51.6460 O   0  0  0  0  0  0  0  0  0  0  0  0
   54.6480   30.5060   52.3580 C   0  0  0  0  0  0  0  0  0  0  0  0
   55.6640   29.9390   53.1090 C   0  0  0  0  0  0  0  0  0  0  0  0
   57.0580   29.7390   52.6480 C   0  0  0  0  0  0  0  0  0  0  0  0
   57.6810   28.7030   53.0040 O   0  0  0  0  0  0  0  0  0  0  0  0
   57.7260   30.7060   51.7420 C   0  0  0  0  0  0  0  0  0  0  0  0
   57.8650   32.0490   52.1260 C   0  0  0  0  0  0  0  0  0  0  0  0
   58.4860   32.9710   51.2790 C   0  0  0  0  0  0  0  0  0  0  0  0
   58.9700   32.5710   50.0200 C   0  0  0  0  0  0  0  0  0  0  0  0
   59.6380   33.5350   49.1140 C   0  0  0  0  0  0  0  0  0  0  0  0
   60.6330   34.1900   49.5310 O   0  0  0  0  0  0  0  0  0  0  0  0
   59.1810   33.7280   47.7660 N   0  0  0  0  0  0  0  0  0  0  0  0
   59.7620   34.7580   46.9100 C   0  0  0  0  0  0  0  0  0  0  0  0
   60.3950   34.2140   45.6400 C   0  0  0  0  0  0  0  0  0  0  0  0
   59.0410   34.9050   45.5790 C   0  0  0  0  0  0  0  0  0  0  0  0
   58.8250   31.2270   49.6340 C   0  0  0  0  0  0  0  0  0  0  0  0
   58.2020   30.3080   50.4810 C   0  0  0  0  0  0  0  0  0  0  0  0
   56.7728   28.7305   55.2880 H   0  0  0  0  0  0  0  0  0  0  0  0
   55.1296   28.7087   56.2522 H   0  0  0  0  0  0  0  0  0  0  0  0
   53.0910   29.6560   55.0860 H   0  0  0  0  0  0  0  0  0  0  0  0
   51.5332   30.9952   53.5981 H   0  0  0  0  0  0  0  0  0  0  0  0
   54.7337   30.9247   51.3444 H   0  0  0  0  0  0  0  0  0  0  0  0
   57.4815   32.3788   53.1028 H   0  0  0  0  0  0  0  0  0  0  0  0
   58.5972   34.0175   51.5992 H   0  0  0  0  0  0  0  0  0  0  0  0
   58.5300   33.0370   47.3330 H   0  0  0  0  0  0  0  0  0  0  0  0
   60.0850   35.4435   47.7073 H   0  0  0  0  0  0  0  0  0  0  0  0
   61.2826   34.7047   45.2141 H   0  0  0  0  0  0  0  0  0  0  0  0
   60.7837   33.2352   45.3223 H   0  0  0  0  0  0  0  0  0  0  0  0
   58.9495   35.8955   45.1093 H   0  0  0  0  0  0  0  0  0  0  0  0
   58.0450   34.6332   45.1993 H   0  0  0  0  0  0  0  0  0  0  0  0
   59.2056   30.8964   48.6563 H   0  0  0  0  0  0  0  0  0  0  0  0
   58.0828   29.2632   50.1583 H   0  0  0  0  0  0  0  0  0  0  0  0
  1  2  2  0
  2  3  1  0
  3  4  1  0
  4  5  2  3
  5  6  1  0
  6  7  1  0
  7  8  1  0
  8  9  2  0
  8 10  1  0
 10 11  1  0
 11 12  1  0
  4 13  1  0
 13 14  2  0
 14 15  1  0
 15 16  2  0
 15 17  1  0
 17 18  2  0
 18 19  1  0
 19 20  2  0
 20 21  1  0
 21 22  2  0
 21 23  1  0
 23 24  1  0
 24 25  1  0
 25 26  1  0
 20 27  1  0
 27 28  2  0
 14  2  1  0
 28 17  1  0
 11  6  2  0
 26 24  1  0
  1 29  1  0
  1 30  1  0
  3 31  1  0
  5 32  1  0
 13 33  1  0
 18 34  1  0
 19 35  1  0
 23 36  1  0
 24 37  1  0
 25 38  1  0
 25 39  1  0
 26 40  1  0
 26 41  1  0
 27 42  1  0
 28 43  1  0
M  CHG  3   7  -1  10  -1  12  -1
M  END
>  <UniqueID>  (6) 
6

>  <SMILES>  (6) 
C=c1[nH]c(=Cc2[n-]c(=O)[n-]c2[O-])cc1C(=O)c1ccc(C(=O)NC2CC2)cc1

>  <Energy>  (6) 
378.5225183296488

>  <Genealogy>  (6) 
C=c1[nH]c(=Cc2[n-]c(=O)[n-]c2[O-])cc1C(=O)c1ccc(C(=O)NC2CC2)cc1 (protonated)
C=c1[nH]c(=Cc2[n-]c(=O)[n-]c2[O-])cc1C(=O)c1ccc(C(=O)NC2CC2)cc1 (3D coordinates assigned)
C=c1[nH]c(=Cc2[n-]c(=O)[n-]c2[O-])cc1C(=O)c1ccc(C(=O)NC2CC2)cc1 (nonaromatic ring conformer: 378.5225183296488 kcal/mol)

>  <smiles>  (6) 
C=c1[nH]c(=Cc2[nH]c(=O)[nH]c2O)cc1C(=O)c1ccc(C(=O)NC2CC2)cc1

>  <score_type>  (6) 
oracle

>  <origin>  (6) 
adg

>  <m_score__min__energy>  (6) 
-17.09

>  <m_primary>  (6) 
energy

$$$$
6:0
     RDKit          3D

 58 61  0  0  0  0  0  0  0  0999 V2000
   60.4320   33.6550   48.5400 O   0  0  0  0  0  0  0  0  0  0  0  0
   60.6800   33.5240   47.0620 S   0  0  0  0  0  0  0  0  0  0  0  0
   60.5870   34.8980   46.4610 O   0  0  0  0  0  0  0  0  0  0  0  0
   59.4240   32.5090   46.3520 C   0  0  0  0  0  0  0  0  0  0  0  0
   58.2190   33.0760   45.9160 C   0  0  0  0  0  0  0  0  0  0  0  0
   57.2190   32.2680   45.3740 C   0  0  0  0  0  0  0  0  0  0  0  0
   57.4160   30.8890   45.2490 C   0  0  0  0  0  0  0  0  0  0  0  0
   56.3960   30.1060   44.7180 O   0  0  0  0  0  0  0  0  0  0  0  0
   58.6320   30.3090   45.6560 C   0  0  0  0  0  0  0  0  0  0  0  0
   58.8550   28.8190   45.5550 C   0  0  0  0  0  0  0  0  0  0  0  0
   59.2590   28.2660   46.8090 O   0  0  0  0  0  0  0  0  0  0  0  0
   59.5070   29.0050   47.9780 C   0  0  0  0  0  0  0  0  0  0  0  0
   58.5150   29.7780   48.6120 C   0  0  0  0  0  0  0  0  0  0  0  0
   58.8120   30.4830   49.7810 C   0  0  0  0  0  0  0  0  0  0  0  0
   60.1020   30.4330   50.3330 C   0  0  0  0  0  0  0  0  0  0  0  0
   60.4250   31.1890   51.6010 C   0  0  0  0  0  0  0  0  0  0  0  0
   60.6340   32.6360   51.3460 N   0  0  0  0  0  0  0  0  0  0  0  0
   61.3620   33.2980   52.4420 C   0  0  0  0  0  0  0  0  0  0  0  0
   60.3300   33.8320   53.4260 C   0  0  0  0  0  0  0  0  0  0  0  0
   59.0140   33.8490   52.6660 C   0  0  0  0  0  0  0  0  0  0  0  0
   59.3480   33.3490   51.2670 C   0  0  0  0  0  0  0  0  0  0  0  0
   61.0920   29.6720   49.6940 C   0  0  0  0  0  0  0  0  0  0  0  0
   60.7940   28.9640   48.5260 C   0  0  0  0  0  0  0  0  0  0  0  0
   59.6260   31.1290   46.2230 C   0  0  0  0  0  0  0  0  0  0  0  0
   62.2900   32.8860   46.8020 N   0  0  0  0  0  0  0  0  0  0  0  0
   62.4780   31.5420   47.3900 C   0  0  0  0  0  0  0  0  0  0  0  0
   63.2500   31.5720   48.7190 C   0  0  0  0  0  0  0  0  0  0  0  0
   63.0270   32.7900   49.3920 O   0  0  0  0  0  0  0  0  0  0  0  0
   63.6570   33.8450   48.6910 C   0  0  0  0  0  0  0  0  0  0  0  0
   63.3460   33.8450   47.1760 C   0  0  0  0  0  0  0  0  0  0  0  0
   58.0610   34.1613   46.0013 H   0  0  0  0  0  0  0  0  0  0  0  0
   56.2711   32.7177   45.0434 H   0  0  0  0  0  0  0  0  0  0  0  0
   57.9185   28.3377   45.2367 H   0  0  0  0  0  0  0  0  0  0  0  0
   59.6556   28.6377   44.8227 H   0  0  0  0  0  0  0  0  0  0  0  0
   57.5024   29.8268   48.1851 H   0  0  0  0  0  0  0  0  0  0  0  0
   58.0302   31.0811   50.2721 H   0  0  0  0  0  0  0  0  0  0  0  0
   59.5910   31.0696   52.3082 H   0  0  0  0  0  0  0  0  0  0  0  0
   61.3580   30.7779   52.0141 H   0  0  0  0  0  0  0  0  0  0  0  0
   61.1510   32.7640   50.4440 H   0  0  0  0  0  0  0  0  0  0  0  0
   62.0205   32.5747   52.9452 H   0  0  0  0  0  0  0  0  0  0  0  0
   61.9835   34.1177   52.0523 H   0  0  0  0  0  0  0  0  0  0  0  0
   60.2585   33.1726   54.3035 H   0  0  0  0  0  0  0  0  0  0  0  0
   60.5995   34.8318   53.7971 H   0  0  0  0  0  0  0  0  0  0  0  0
   58.2827   33.1836   53.1480 H   0  0  0  0  0  0  0  0  0  0  0  0
   58.5668   34.8538   52.6452 H   0  0  0  0  0  0  0  0  0  0  0  0
   58.5611   32.6659   50.9147 H   0  0  0  0  0  0  0  0  0  0  0  0
   59.4145   34.1900   50.5611 H   0  0  0  0  0  0  0  0  0  0  0  0
   62.1079   29.6321   50.1140 H   0  0  0  0  0  0  0  0  0  0  0  0
   61.5778   28.3697   48.0336 H   0  0  0  0  0  0  0  0  0  0  0  0
   60.5700   30.6818   46.5679 H   0  0  0  0  0  0  0  0  0  0  0  0
   61.4886   31.0959   47.5690 H   0  0  0  0  0  0  0  0  0  0  0  0
   63.0714   30.9505   46.6773 H   0  0  0  0  0  0  0  0  0  0  0  0
   62.9104   30.7403   49.3537 H   0  0  0  0  0  0  0  0  0  0  0  0
   64.3251   31.4737   48.5082 H   0  0  0  0  0  0  0  0  0  0  0  0
   63.3160   34.8000   49.1173 H   0  0  0  0  0  0  0  0  0  0  0  0
   64.7427   33.7061   48.8005 H   0  0  0  0  0  0  0  0  0  0  0  0
   63.0207   34.8548   46.8854 H   0  0  0  0  0  0  0  0  0  0  0  0
   64.2647   33.5416   46.6527 H   0  0  0  0  0  0  0  0  0  0  0  0
  1  2  2  0
  2  3  2  0
  2  4  1  0
  4  5  2  0
  5  6  1  0
  6  7  2  0
  7  8  1  0
  7  9  1  0
  9 10  1  0
 10 11  1  0
 11 12  1  0
 12 13  2  0
 13 14  1  0
 14 15  2  0
 15 16  1  0
 16 17  1  0
 17 18  1  0
 18 19  1  0
 19 20  1  0
 20 21  1  0
 15 22  1  0
 22 23  2  0
  9 24  2  0
  2 25  1  0
 25 26  1  0
 26 27  1  0
 27 28  1  0
 28 29  1  0
 29 30  1  0
 24  4  1  0
 30 25  1  0
 23 12  1  0
 21 17  1  0
  5 31  1  0
  6 32  1  0
 10 33  1  0
 10 34  1  0
 13 35  1  0
 14 36  1  0
 16 37  1  0
 16 38  1  0
 17 39  1  0
 18 40  1  0
 18 41  1  0
 19 42  1  0
 19 43  1  0
 20 44  1  0
 20 45  1  0
 21 46  1  0
 21 47  1  0
 22 48  1  0
 23 49  1  0
 24 50  1  0
 26 51  1  0
 26 52  1  0
 27 53  1  0
 27 54  1  0
 29 55  1  0
 29 56  1  0
 30 57  1  0
 30 58  1  0
M  CHG  2   8  -1  17   1
M  END
>  <UniqueID>  (7) 
7

>  <SMILES>  (7) 
O=S(=O)(c1ccc([O-])c(COc2ccc(C[NH+]3CCCC3)cc2)c1)N1CCOCC1

>  <Energy>  (7) 
74.64048658850454

>  <Genealogy>  (7) 
O=S(=O)(c1ccc([O-])c(COc2ccc(C[NH+]3CCCC3)cc2)c1)N1CCOCC1 (protonated)
O=S(=O)(c1ccc([O-])c(COc2ccc(C[NH+]3CCCC3)cc2)c1)N1CCOCC1 (3D coordinates assigned)
O=S(=O)(c1ccc([O-])c(COc2ccc(C[NH+]3CCCC3)cc2)c1)N1CCOCC1 (nonaromatic ring conformer: 74.64048658850454 kcal/mol)

>  <smiles>  (7) 
O=S(=O)(c1ccc(O)c(COc2ccc(CN3CCCC3)cc2)c1)N1CCOCC1

>  <score_type>  (7) 
oracle

>  <origin>  (7) 
adg

>  <m_score__min__energy>  (7) 
-11.41

>  <m_primary>  (7) 
energy

$$$$
7:0
     RDKit          3D

 42 44  0  0  0  0  0  0  0  0999 V2000
   59.3150   34.9440   48.5200 O   0  0  0  0  0  0  0  0  0  0  0  0
   59.9680   34.1120   47.8330 C   0  0  0  0  0  0  0  0  0  0  0  0
   59.3120   33.4730   46.6750 C   0  0  0  0  0  0  0  0  0  0  0  0
   59.4710   33.9970   45.3820 C   0  0  0  0  0  0  0  0  0  0  0  0
   58.8540   33.3800   44.2890 C   0  0  0  0  0  0  0  0  0  0  0  0
   58.0860   32.2200   44.4700 C   0  0  0  0  0  0  0  0  0  0  0  0
   57.3920   31.5790   43.3020 C   0  0  0  0  0  0  0  0  0  0  0  0
   56.5520   30.0920   43.8170 S   0  0  0  0  0  0  0  0  0  0  0  0
   55.9260   29.4140   42.6310 O   0  0  0  0  0  0  0  0  0  0  0  0
   55.4670   30.4430   44.7980 O   0  0  0  0  0  0  0  0  0  0  0  0
   57.7160   29.0040   44.5710 C   0  0  0  0  0  0  0  0  0  0  0  0
   59.0900   29.1700   44.3410 C   0  0  0  0  0  0  0  0  0  0  0  0
   60.0130   28.2990   44.9310 C   0  0  0  0  0  0  0  0  0  0  0  0
   59.5690   27.2580   45.7480 C   0  0  0  0  0  0  0  0  0  0  0  0
   58.2010   27.0820   45.9760 C   0  0  0  0  0  0  0  0  0  0  0  0
   57.2740   27.9500   45.3890 C   0  0  0  0  0  0  0  0  0  0  0  0
   55.9500   27.7560   45.6140 F   0  0  0  0  0  0  0  0  0  0  0  0
   57.9350   31.6900   45.7610 C   0  0  0  0  0  0  0  0  0  0  0  0
   58.5530   32.3060   46.8540 C   0  0  0  0  0  0  0  0  0  0  0  0
   61.3340   33.8230   48.1830 N   0  0  0  0  0  0  0  0  0  0  0  0
   62.3330   33.3510   47.2360 C   0  0  0  0  0  0  0  0  0  0  0  0
   63.6810   33.6210   47.8930 C   0  0  0  0  0  0  0  0  0  0  0  0
   63.3830   33.8220   49.3750 C   0  0  0  0  0  0  0  0  0  0  0  0
   61.9200   34.2340   49.4480 C   0  0  0  0  0  0  0  0  0  0  0  0
   60.0839   34.8973   45.2280 H   0  0  0  0  0  0  0  0  0  0  0  0
   58.9715   33.8066   43.2819 H   0  0  0  0  0  0  0  0  0  0  0  0
   56.6578   32.2841   42.8852 H   0  0  0  0  0  0  0  0  0  0  0  0
   58.1418   31.3195   42.5401 H   0  0  0  0  0  0  0  0  0  0  0  0
   59.4429   29.9873   43.6949 H   0  0  0  0  0  0  0  0  0  0  0  0
   61.0896   28.4349   44.7507 H   0  0  0  0  0  0  0  0  0  0  0  0
   60.2959   26.5757   46.2127 H   0  0  0  0  0  0  0  0  0  0  0  0
   57.8528   26.2595   46.6181 H   0  0  0  0  0  0  0  0  0  0  0  0
   57.3276   30.7857   45.9138 H   0  0  0  0  0  0  0  0  0  0  0  0
   58.4436   31.8735   47.8595 H   0  0  0  0  0  0  0  0  0  0  0  0
   62.2060   32.2745   47.0487 H   0  0  0  0  0  0  0  0  0  0  0  0
   62.2448   33.8594   46.2645 H   0  0  0  0  0  0  0  0  0  0  0  0
   64.3561   32.7644   47.7500 H   0  0  0  0  0  0  0  0  0  0  0  0
   64.1780   34.4993   47.4554 H   0  0  0  0  0  0  0  0  0  0  0  0
   63.5461   32.8861   49.9295 H   0  0  0  0  0  0  0  0  0  0  0  0
   64.0416   34.5809   49.8225 H   0  0  0  0  0  0  0  0  0  0  0  0
   61.4196   33.7264   50.2858 H   0  0  0  0  0  0  0  0  0  0  0  0
   61.8099   35.3157   49.6150 H   0  0  0  0  0  0  0  0  0  0  0  0
  1  2  2  0
  2  3  1  0
  3  4  2  0
  4  5  1  0
  5  6  2  0
  6  7  1  0
  7  8  1  0
  8  9  2  0
  8 10  2  0
  8 11  1  0
 11 12  2  0
 12 13  1  0
 13 14  2  0
 14 15  1  0
 15 16  2  0
 16 17  1  0
  6 18  1  0
 18 19  2  0
  2 20  1  0
 20 21  1  0
 21 22  1  0
 22 23  1  0
 23 24  1  0
 19  3  1  0
 24 20  1  0
 16 11  1  0
  4 25  1  0
  5 26  1  0
  7 27  1  0
  7 28  1  0
 12 29  1  0
 13 30  1  0
 14 31  1  0
 15 32  1  0
 18 33  1  0
 19 34  1  0
 21 35  1  0
 21 36  1  0
 22 37  1  0
 22 38  1  0
 23 39  1  0
 23 40  1  0
 24 41  1  0
 24 42  1  0
M  END
>  <UniqueID>  (8) 
8

>  <SMILES>  (8) 
O=C(c1ccc(CS(=O)(=O)c2ccccc2F)cc1)N1CCCC1

>  <Energy>  (8) 
44.52721797098898

>  <Genealogy>  (8) 
O=C(c1ccc(CS(=O)(=O)c2ccccc2F)cc1)N1CCCC1 (3D coordinates assigned)
O=C(c1ccc(CS(=O)(=O)c2ccccc2F)cc1)N1CCCC1 (nonaromatic ring conformer: 44.52721797098898 kcal/mol)

>  <smiles>  (8) 
O=C(c1ccc(CS(=O)(=O)c2ccccc2F)cc1)N1CCCC1

>  <score_type>  (8) 
oracle

>  <origin>  (8) 
adg

>  <m_score__min__energy>  (8) 
-9.3599999999999994

>  <m_primary>  (8) 
energy

$$$$
8:0
     RDKit          3D

 46 48  0  0  0  0  0  0  0  0999 V2000
   60.5890   29.5280   48.0590 N   0  0  0  0  0  0  0  0  0  0  0  0
   60.3010   28.1460   47.8460 C   0  0  0  0  0  0  0  0  0  0  0  0
   60.2570   27.3630   48.8340 O   0  0  0  0  0  0  0  0  0  0  0  0
   60.0110   27.6290   46.4580 C   0  0  0  0  0  0  0  0  0  0  0  0
   58.6440   26.9020   46.3960 C   0  0  0  0  0  0  0  0  0  0  0  0
   57.5420   27.8330   45.8780 C   0  0  0  0  0  0  0  0  0  0  0  0
   57.8230   28.3070   44.5030 N   0  0  0  0  0  0  0  0  0  0  0  0
   56.8960   29.7490   44.1450 S   0  0  0  0  0  0  0  0  0  0  0  0
   55.5480   29.6400   44.8050 O   0  0  0  0  0  0  0  0  0  0  0  0
   56.6630   29.8300   42.6630 O   0  0  0  0  0  0  0  0  0  0  0  0
   57.6980   31.2220   44.7390 C   0  0  0  0  0  0  0  0  0  0  0  0
   57.9780   31.3130   46.1130 C   0  0  0  0  0  0  0  0  0  0  0  0
   58.6560   32.4230   46.6480 C   0  0  0  0  0  0  0  0  0  0  0  0
   58.9690   32.4910   48.0950 C   0  0  0  0  0  0  0  0  0  0  0  0
   58.1760   33.0840   48.8770 O   0  0  0  0  0  0  0  0  0  0  0  0
   60.2170   31.9660   48.5820 N   0  0  0  0  0  0  0  0  0  0  0  0
   61.4330   32.3800   48.3510 C   0  0  0  0  0  0  0  0  0  0  0  0
   62.0270   33.4560   49.0450 C   0  0  0  0  0  0  0  0  0  0  0  0
   63.3380   33.8290   48.7410 C   0  0  0  0  0  0  0  0  0  0  0  0
   64.0540   33.1330   47.7680 C   0  0  0  0  0  0  0  0  0  0  0  0
   63.4470   32.0620   47.1140 C   0  0  0  0  0  0  0  0  0  0  0  0
   62.1700   31.7130   47.4200 N   0  0  0  0  0  0  0  0  0  0  0  0
   59.0310   33.4660   45.7880 C   0  0  0  0  0  0  0  0  0  0  0  0
   58.7370   33.3990   44.4250 C   0  0  0  0  0  0  0  0  0  0  0  0
   58.0740   32.2900   43.8920 C   0  0  0  0  0  0  0  0  0  0  0  0
   57.7350   32.3160   42.1650 Cl  0  0  0  0  0  0  0  0  0  0  0  0
   59.2600   28.4790   44.1880 C   0  0  0  0  0  0  0  0  0  0  0  0
   60.1080   28.7810   45.4320 C   0  0  0  0  0  0  0  0  0  0  0  0
   60.7800   29.8830   49.0220 H   0  0  0  0  0  0  0  0  0  0  0  0
   60.6030   30.2030   47.2620 H   0  0  0  0  0  0  0  0  0  0  0  0
   60.7717   26.8788   46.1962 H   0  0  0  0  0  0  0  0  0  0  0  0
   58.7284   26.0367   45.7221 H   0  0  0  0  0  0  0  0  0  0  0  0
   58.3761   26.5783   47.4126 H   0  0  0  0  0  0  0  0  0  0  0  0
   56.5864   27.2882   45.8784 H   0  0  0  0  0  0  0  0  0  0  0  0
   57.4972   28.7107   46.5395 H   0  0  0  0  0  0  0  0  0  0  0  0
   57.6608   30.5004   46.7831 H   0  0  0  0  0  0  0  0  0  0  0  0
   61.4620   33.9963   49.8189 H   0  0  0  0  0  0  0  0  0  0  0  0
   63.8061   34.6725   49.2696 H   0  0  0  0  0  0  0  0  0  0  0  0
   65.0849   33.4253   47.5195 H   0  0  0  0  0  0  0  0  0  0  0  0
   64.0024   31.4989   46.3495 H   0  0  0  0  0  0  0  0  0  0  0  0
   59.5602   34.3424   46.1904 H   0  0  0  0  0  0  0  0  0  0  0  0
   59.0302   34.2276   43.7636 H   0  0  0  0  0  0  0  0  0  0  0  0
   59.6319   27.5531   43.7250 H   0  0  0  0  0  0  0  0  0  0  0  0
   59.3502   29.3389   43.5080 H   0  0  0  0  0  0  0  0  0  0  0  0
   61.1582   28.9071   45.1301 H   0  0  0  0  0  0  0  0  0  0  0  0
   59.7299   29.7017   45.9003 H   0  0  0  0  0  0  0  0  0  0  0  0
  1  2  1  0
  2  3  2  0
  2  4  1  0
  4  5  1  0
  5  6  1  0
  6  7  1  0
  7  8  1  0
  8  9  2  0
  8 10  2  0
  8 11  1  0
 11 12  2  0
 12 13  1  0
 13 14  1  0
 14 15  2  0
 14 16  1  0
 16 17  2  3
 17 18  1  0
 18 19  2  0
 19 20  1  0
 20 21  2  0
 21 22  1  0
 13 23  2  0
 23 24  1  0
 24 25  2  0
 25 26  1  0
  7 27  1  0
 27 28  1  0
 28  4  1  0
 25 11  1  0
 22 17  1  0
  1 29  1  0
  1 30  1  0
  4 31  1  0
  5 32  1  0
  5 33  1  0
  6 34  1  0
  6 35  1  0
 12 36  1  0
 18 37  1  0
 19 38  1  0
 20 39  1  0
 21 40  1  0
 23 41  1  0
 24 42  1  0
 27 43  1  0
 27 44  1  0
 28 45  1  0
 28 46  1  0
M  CHG  1  22  -1
M  END
>  <UniqueID>  (9) 
9

>  <SMILES>  (9) 
NC(=O)C1CCN(S(=O)(=O)c2cc(C(=O)N=c3cccc[n-]3)ccc2Cl)CC1

>  <Energy>  (9) 
63.78250481329465

>  <Genealogy>  (9) 
NC(=O)C1CCN(S(=O)(=O)c2cc(C(=O)N=c3cccc[n-]3)ccc2Cl)CC1 (protonated)
NC(=O)C1CCN(S(=O)(=O)c2cc(C(=O)N=c3cccc[n-]3)ccc2Cl)CC1 (3D coordinates assigned)
NC(=O)C1CCN(S(=O)(=O)c2cc(C(=O)N=c3cccc[n-]3)ccc2Cl)CC1 (nonaromatic ring conformer: 63.78250481329465 kcal/mol)

>  <smiles>  (9) 
NC(=O)C1CCN(S(=O)(=O)c2cc(C(=O)N=c3cccc[nH]3)ccc2Cl)CC1

>  <score_type>  (9) 
oracle

>  <origin>  (9) 
adg

>  <m_score__min__energy>  (9) 
-11.029999999999999

>  <m_primary>  (9) 
energy

$$$$
9:0
     RDKit          3D

 68 71  0  0  0  0  0  0  0  0999 V2000
   63.7980   31.5680   50.0400 C   0  0  0  0  0  0  0  0  0  0  0  0
   64.4200   33.1620   49.4190 S   0  0  0  0  0  0  0  0  0  0  0  0
   62.9250   33.5220   48.4950 C   0  0  0  0  0  0  0  0  0  0  0  0
   61.7390   33.8340   49.1710 C   0  0  0  0  0  0  0  0  0  0  0  0
   60.5710   34.1020   48.4500 C   0  0  0  0  0  0  0  0  0  0  0  0
   60.5820   34.0760   47.0490 C   0  0  0  0  0  0  0  0  0  0  0  0
   59.3310   34.3120   46.3100 C   0  0  0  0  0  0  0  0  0  0  0  0
   58.1880   33.6330   46.4830 C   0  0  0  0  0  0  0  0  0  0  0  0
   57.6390   32.6080   45.5720 C   0  0  0  0  0  0  0  0  0  0  0  0
   56.4260   32.6880   45.2390 O   0  0  0  0  0  0  0  0  0  0  0  0
   58.4390   31.5800   45.0610 O   0  0  0  0  0  0  0  0  0  0  0  0
   57.9380   30.5260   44.2370 C   0  0  0  0  0  0  0  0  0  0  0  0
   56.7750   29.8230   44.8720 C   0  0  0  0  0  0  0  0  0  0  0  0
   55.6110   30.0740   44.4630 O   0  0  0  0  0  0  0  0  0  0  0  0
   56.9780   28.9210   45.9660 N   0  0  0  0  0  0  0  0  0  0  0  0
   57.7270   27.7020   45.9040 C   0  0  0  0  0  0  0  0  0  0  0  0
   57.1000   26.5740   45.3630 C   0  0  0  0  0  0  0  0  0  0  0  0
   57.7800   25.3560   45.2560 C   0  0  0  0  0  0  0  0  0  0  0  0
   56.9700   23.9560   44.5530 S   0  0  0  0  0  0  0  0  0  0  0  0
   56.9660   24.0940   43.0550 O   0  0  0  0  0  0  0  0  0  0  0  0
   55.5420   23.9380   45.0250 O   0  0  0  0  0  0  0  0  0  0  0  0
   57.8170   22.4910   45.0340 N   0  0  0  0  0  0  0  0  0  0  0  0
   56.9500   21.5830   45.8170 C   0  0  0  0  0  0  0  0  0  0  0  0
   56.1320   20.6290   44.9200 C   0  0  0  0  0  0  0  0  0  0  0  0
   56.0460   21.1190   43.5990 O   0  0  0  0  0  0  0  0  0  0  0  0
   57.3280   21.1160   42.9980 C   0  0  0  0  0  0  0  0  0  0  0  0
   58.4080   21.7870   43.8800 C   0  0  0  0  0  0  0  0  0  0  0  0
   59.1000   25.2620   45.7150 C   0  0  0  0  0  0  0  0  0  0  0  0
   59.7290   26.3740   46.2780 C   0  0  0  0  0  0  0  0  0  0  0  0
   59.0530   27.6000   46.3900 C   0  0  0  0  0  0  0  0  0  0  0  0
   59.6910   28.6980   47.0660 N   0  0  0  0  0  0  0  0  0  0  0  0
   60.6110   29.6100   46.4090 C   0  0  0  0  0  0  0  0  0  0  0  0
   61.1100   30.5340   47.5100 C   0  0  0  0  0  0  0  0  0  0  0  0
   60.0580   30.4610   48.6120 C   0  0  0  0  0  0  0  0  0  0  0  0
   59.3310   29.1350   48.4060 C   0  0  0  0  0  0  0  0  0  0  0  0
   61.7660   33.7320   46.3740 C   0  0  0  0  0  0  0  0  0  0  0  0
   62.9320   33.4570   47.0960 C   0  0  0  0  0  0  0  0  0  0  0  0
   63.8013   31.5765   51.1400 H   0  0  0  0  0  0  0  0  0  0  0  0
   62.7717   31.4086   49.6777 H   0  0  0  0  0  0  0  0  0  0  0  0
   64.4451   30.7556   49.6777 H   0  0  0  0  0  0  0  0  0  0  0  0
   61.7260   33.8683   50.2704 H   0  0  0  0  0  0  0  0  0  0  0  0
   59.6387   34.3344   48.9855 H   0  0  0  0  0  0  0  0  0  0  0  0
   59.3342   35.1109   45.5539 H   0  0  0  0  0  0  0  0  0  0  0  0
   57.6048   33.8603   47.3875 H   0  0  0  0  0  0  0  0  0  0  0  0
   57.6148   30.9500   43.2749 H   0  0  0  0  0  0  0  0  0  0  0  0
   58.7444   29.7912   44.0962 H   0  0  0  0  0  0  0  0  0  0  0  0
   56.0583   26.6459   45.0171 H   0  0  0  0  0  0  0  0  0  0  0  0
   58.6060   22.7940   45.6550 H   0  0  0  0  0  0  0  0  0  0  0  0
   57.5822   20.9820   46.4872 H   0  0  0  0  0  0  0  0  0  0  0  0
   56.2387   22.2036   46.3817 H   0  0  0  0  0  0  0  0  0  0  0  0
   56.6198   19.6432   44.9060 H   0  0  0  0  0  0  0  0  0  0  0  0
   55.1142   20.5522   45.3301 H   0  0  0  0  0  0  0  0  0  0  0  0
   57.6255   20.0737   42.8109 H   0  0  0  0  0  0  0  0  0  0  0  0
   57.2568   21.6950   42.0655 H   0  0  0  0  0  0  0  0  0  0  0  0
   59.0961   21.0128   44.2502 H   0  0  0  0  0  0  0  0  0  0  0  0
   58.9387   22.5280   43.2642 H   0  0  0  0  0  0  0  0  0  0  0  0
   59.6428   24.3089   45.6316 H   0  0  0  0  0  0  0  0  0  0  0  0
   60.7651   26.2890   46.6377 H   0  0  0  0  0  0  0  0  0  0  0  0
   61.4491   29.0562   45.9607 H   0  0  0  0  0  0  0  0  0  0  0  0
   60.1264   30.1664   45.5932 H   0  0  0  0  0  0  0  0  0  0  0  0
   62.0853   30.1917   47.8864 H   0  0  0  0  0  0  0  0  0  0  0  0
   61.2496   31.5629   47.1469 H   0  0  0  0  0  0  0  0  0  0  0  0
   60.5377   30.4851   49.6016 H   0  0  0  0  0  0  0  0  0  0  0  0
   59.3648   31.3139   48.5670 H   0  0  0  0  0  0  0  0  0  0  0  0
   59.6594   28.3966   49.1523 H   0  0  0  0  0  0  0  0  0  0  0  0
   58.2425   29.2445   48.5207 H   0  0  0  0  0  0  0  0  0  0  0  0
   61.7756   33.6789   45.2753 H   0  0  0  0  0  0  0  0  0  0  0  0
   63.8566   33.1891   46.5638 H   0  0  0  0  0  0  0  0  0  0  0  0
  1  2  1  0
  2  3  1  0
  3  4  2  0
  4  5  1  0
  5  6  2  0
  6  7  1  0
  7  8  2  3
  8  9  1  0
  9 10  2  0
  9 11  1  0
 11 12  1  0
 12 13  1  0
 13 14  2  0
 13 15  1  0
 15 16  1  0
 16 17  2  0
 17 18  1  0
 18 19  1  0
 19 20  2  0
 19 21  2  0
 19 22  1  0
 22 23  1  0
 23 24  1  0
 24 25  1  0
 25 26  1  0
 26 27  1  0
 18 28  2  0
 28 29  1  0
 29 30  2  0
 30 31  1  0
 31 32  1  0
 32 33  1  0
 33 34  1  0
 34 35  1  0
  6 36  1  0
 36 37  2  0
 37  3  1  0
 30 16  1  0
 35 31  1  0
 27 22  1  0
  1 38  1  0
  1 39  1  0
  1 40  1  0
  4 41  1  0
  5 42  1  0
  7 43  1  0
  8 44  1  0
 12 45  1  0
 12 46  1  0
 17 47  1  0
 22 48  1  0
 23 49  1  0
 23 50  1  0
 24 51  1  0
 24 52  1  0
 26 53  1  0
 26 54  1  0
 27 55  1  0
 27 56  1  0
 28 57  1  0
 29 58  1  0
 32 59  1  0
 32 60  1  0
 33 61  1  0
 33 62  1  0
 34 63  1  0
 34 64  1  0
 35 65  1  0
 35 66  1  0
 36 67  1  0
 37 68  1  0
M  CHG  2  15  -1  22   1
M  END
>  <UniqueID>  (10) 
10

>  <SMILES>  (10) 
CSc1ccc(C=CC(=O)OCC(=O)[N-]c2cc(S(=O)(=O)[NH+]3CCOCC3)ccc2N2CCCC2)cc1

>  <Energy>  (10) 
89.77048961374929

>  <Genealogy>  (10) 
CSc1ccc(C=CC(=O)OCC(=O)[N-]c2cc(S(=O)(=O)[NH+]3CCOCC3)ccc2N2CCCC2)cc1 (protonated)
CSc1ccc(C=CC(=O)OCC(=O)[N-]c2cc(S(=O)(=O)[NH+]3CCOCC3)ccc2N2CCCC2)cc1 (3D coordinates assigned)
CSc1ccc(C=CC(=O)OCC(=O)[N-]c2cc(S(=O)(=O)[NH+]3CCOCC3)ccc2N2CCCC2)cc1 (nonaromatic ring conformer: 89.77048961374929 kcal/mol)

>  <smiles>  (10) 
CSc1ccc(C=CC(=O)OCC(=O)Nc2cc(S(=O)(=O)N3CCOCC3)ccc2N2CCCC2)cc1

>  <score_type>  (10) 
oracle

>  <origin>  (10) 
adg

>  <m_score__min__energy>  (10) 
-10.59

>  <m_primary>  (10) 
energy

$$$$
10:0
     RDKit          3D

 27 28  0  0  0  0  0  0  0  0999 V2000
   57.7230   33.2560   44.4590 C   0  0  0  0  0  0  0  0  0  0  0  0
   58.0650   33.1640   45.7440 C   0  0  0  0  0  0  0  0  0  0  0  0
   57.7640   33.8560   46.8710 N   0  0  0  0  0  0  0  0  0  0  0  0
   58.5660   33.0160   47.5770 C   0  0  0  0  0  0  0  0  0  0  0  0
   58.9190   32.9070   48.8510 C   0  0  0  0  0  0  0  0  0  0  0  0
   58.8620   32.3300   46.4500 N   0  0  0  0  0  0  0  0  0  0  0  0
   59.6610   31.1950   46.0540 C   0  0  0  0  0  0  0  0  0  0  0  0
   58.8390   29.9490   45.9850 C   0  0  0  0  0  0  0  0  0  0  0  0
   57.5740   30.0530   45.5150 N   0  0  0  0  0  0  0  0  0  0  0  0
   56.7960   28.9520   45.4360 C   0  0  0  0  0  0  0  0  0  0  0  0
   55.6310   29.0290   45.0080 O   0  0  0  0  0  0  0  0  0  0  0  0
   57.3350   27.7350   45.8460 C   0  0  0  0  0  0  0  0  0  0  0  0
   56.5290   26.5030   45.7810 C   0  0  0  0  0  0  0  0  0  0  0  0
   57.0310   25.4060   45.3850 O   0  0  0  0  0  0  0  0  0  0  0  0
   55.1850   26.5440   46.1610 O   0  0  0  0  0  0  0  0  0  0  0  0
   58.6290   27.6330   46.3250 C   0  0  0  0  0  0  0  0  0  0  0  0
   59.3530   28.7590   46.3810 N   0  0  0  0  0  0  0  0  0  0  0  0
   58.1273   32.5388   43.7295 H   0  0  0  0  0  0  0  0  0  0  0  0
   57.0365   34.0492   44.1280 H   0  0  0  0  0  0  0  0  0  0  0  0
   57.1660   34.6950   47.1220 H   0  0  0  0  0  0  0  0  0  0  0  0
   59.6067   32.1078   49.1648 H   0  0  0  0  0  0  0  0  0  0  0  0
   58.5241   33.6158   49.5937 H   0  0  0  0  0  0  0  0  0  0  0  0
   60.0968   31.3919   45.0634 H   0  0  0  0  0  0  0  0  0  0  0  0
   60.4512   31.0481   46.8050 H   0  0  0  0  0  0  0  0  0  0  0  0
   54.7660   27.4680   46.3040 H   0  0  0  0  0  0  0  0  0  0  0  0
   59.0462   26.6673   46.6466 H   0  0  0  0  0  0  0  0  0  0  0  0
   60.3450   28.7900   46.7290 H   0  0  0  0  0  0  0  0  0  0  0  0
  1  2  2  0
  2  3  1  0
  3  4  1  0
  4  5  2  0
  4  6  1  0
  6  7  1  0
  7  8  1  0
  8  9  2  0
  9 10  1  0
 10 11  2  0
 10 12  1  0
 12 13  1  0
 13 14  2  0
 13 15  1  0
 12 16  2  0
 16 17  1  0
  6  2  1  0
 17  8  1  0
  1 18  1  0
  1 19  1  0
  3 20  1  0
  5 21  1  0
  5 22  1  0
  7 23  1  0
  7 24  1  0
 15 25  1  0
 16 26  1  0
 17 27  1  0
M  END
>  <smiles>  (11) 
C=c1[nH]c(=C)n1Cc1nc(=O)c(C(=O)O)c[nH]1

>  <score_type>  (11) 
oracle

>  <origin>  (11) 
adg

>  <m_score__min__energy>  (11) 
-6.8700000000000001

>  <m_primary>  (11) 
energy

$$$$
11:0
     RDKit          3D

 57 60  0  0  0  0  0  0  0  0999 V2000
   66.7710   34.6230   52.2870 N   0  0  0  0  0  0  0  0  0  0  0  0
   65.8870   34.2830   51.6210 C   0  0  0  0  0  0  0  0  0  0  0  0
   64.7890   33.8590   50.7930 C   0  0  0  0  0  0  0  0  0  0  0  0
   63.4930   34.3110   51.0600 C   0  0  0  0  0  0  0  0  0  0  0  0
   62.4250   33.8990   50.2570 C   0  0  0  0  0  0  0  0  0  0  0  0
   62.6410   33.0250   49.1750 C   0  0  0  0  0  0  0  0  0  0  0  0
   61.5160   32.5880   48.3130 C   0  0  0  0  0  0  0  0  0  0  0  0
   61.5060   31.4120   47.8540 O   0  0  0  0  0  0  0  0  0  0  0  0
   60.4180   33.4720   48.0300 N   0  0  0  0  0  0  0  0  0  0  0  0
   59.5420   33.3210   46.8990 C   0  0  0  0  0  0  0  0  0  0  0  0
   59.2660   34.4330   46.0900 C   0  0  0  0  0  0  0  0  0  0  0  0
   58.4380   34.3060   44.9720 C   0  0  0  0  0  0  0  0  0  0  0  0
   57.8920   33.0650   44.6410 C   0  0  0  0  0  0  0  0  0  0  0  0
   58.1800   31.9330   45.4210 C   0  0  0  0  0  0  0  0  0  0  0  0
   57.6080   30.5820   45.0500 C   0  0  0  0  0  0  0  0  0  0  0  0
   58.4410   29.4390   45.4840 N   0  0  0  0  0  0  0  0  0  0  0  0
   59.8810   29.6570   45.2970 C   0  0  0  0  0  0  0  0  0  0  0  0
   60.6510   28.3330   45.4720 C   0  0  0  0  0  0  0  0  0  0  0  0
   59.8610   27.2720   46.1340 N   0  0  0  0  0  0  0  0  0  0  0  0
   59.2860   26.2450   45.2340 C   0  0  0  0  0  0  0  0  0  0  0  0
   58.0170   25.6160   45.7610 C   0  0  0  0  0  0  0  0  0  0  0  0
   58.0500   24.3490   46.3670 C   0  0  0  0  0  0  0  0  0  0  0  0
   56.8680   23.7490   46.8120 C   0  0  0  0  0  0  0  0  0  0  0  0
   55.6470   24.4120   46.6630 C   0  0  0  0  0  0  0  0  0  0  0  0
   55.6060   25.6780   46.0740 C   0  0  0  0  0  0  0  0  0  0  0  0
   54.3910   26.3370   45.9270 O   0  0  0  0  0  0  0  0  0  0  0  0
   56.7870   26.2820   45.6300 C   0  0  0  0  0  0  0  0  0  0  0  0
   58.9730   27.7360   47.2210 C   0  0  0  0  0  0  0  0  0  0  0  0
   58.1540   28.9940   46.8570 C   0  0  0  0  0  0  0  0  0  0  0  0
   59.0040   32.0680   46.5510 C   0  0  0  0  0  0  0  0  0  0  0  0
   63.9510   32.5850   48.9080 C   0  0  0  0  0  0  0  0  0  0  0  0
   65.0160   32.9960   49.7130 C   0  0  0  0  0  0  0  0  0  0  0  0
   63.3131   34.9928   51.9043 H   0  0  0  0  0  0  0  0  0  0  0  0
   61.4087   34.2605   50.4724 H   0  0  0  0  0  0  0  0  0  0  0  0
   60.1780   34.2000   48.7400 H   0  0  0  0  0  0  0  0  0  0  0  0
   59.7042   35.4112   46.3374 H   0  0  0  0  0  0  0  0  0  0  0  0
   58.2158   35.1863   44.3510 H   0  0  0  0  0  0  0  0  0  0  0  0
   57.2330   32.9730   43.7651 H   0  0  0  0  0  0  0  0  0  0  0  0
   56.6168   30.4854   45.5171 H   0  0  0  0  0  0  0  0  0  0  0  0
   57.5624   30.5451   43.9516 H   0  0  0  0  0  0  0  0  0  0  0  0
   60.0600   30.0496   44.2851 H   0  0  0  0  0  0  0  0  0  0  0  0
   60.2339   30.3777   46.0494 H   0  0  0  0  0  0  0  0  0  0  0  0
   60.9534   27.9724   44.4777 H   0  0  0  0  0  0  0  0  0  0  0  0
   61.5141   28.5448   46.1203 H   0  0  0  0  0  0  0  0  0  0  0  0
   59.0632   26.7174   44.2659 H   0  0  0  0  0  0  0  0  0  0  0  0
   60.0312   25.4405   45.1474 H   0  0  0  0  0  0  0  0  0  0  0  0
   59.0100   23.8266   46.4920 H   0  0  0  0  0  0  0  0  0  0  0  0
   56.8993   22.7540   47.2799 H   0  0  0  0  0  0  0  0  0  0  0  0
   54.7175   23.9367   47.0097 H   0  0  0  0  0  0  0  0  0  0  0  0
   56.7524   27.2834   45.1760 H   0  0  0  0  0  0  0  0  0  0  0  0
   58.2725   26.9246   47.4679 H   0  0  0  0  0  0  0  0  0  0  0  0
   59.6175   28.0058   48.0706 H   0  0  0  0  0  0  0  0  0  0  0  0
   57.0823   28.7610   46.9417 H   0  0  0  0  0  0  0  0  0  0  0  0
   58.4320   29.8021   47.5496 H   0  0  0  0  0  0  0  0  0  0  0  0
   59.2306   31.1867   47.1690 H   0  0  0  0  0  0  0  0  0  0  0  0
   64.1377   31.9118   48.0583 H   0  0  0  0  0  0  0  0  0  0  0  0
   66.0349   32.6413   49.4985 H   0  0  0  0  0  0  0  0  0  0  0  0
  1  2  3  0
  2  3  1  0
  3  4  2  0
  4  5  1  0
  5  6  2  0
  6  7  1  0
  7  8  2  0
  7  9  1  0
  9 10  1  0
 10 11  2  0
 11 12  1  0
 12 13  2  0
 13 14  1  0
 14 15  1  0
 15 16  1  0
 16 17  1  0
 17 18  1  0
 18 19  1  0
 19 20  1  0
 20 21  1  0
 21 22  2  0
 22 23  1  0
 23 24  2  0
 24 25  1  0
 25 26  1  0
 25 27  2  0
 19 28  1  0
 28 29  1  0
 14 30  2  0
  6 31  1  0
 31 32  2  0
 32  3  1  0
 30 10  1  0
 29 16  1  0
 27 21  1  0
  4 33  1  0
  5 34  1  0
  9 35  1  0
 11 36  1  0
 12 37  1  0
 13 38  1  0
 15 39  1  0
 15 40  1  0
 17 41  1  0
 17 42  1  0
 18 43  1  0
 18 44  1  0
 20 45  1  0
 20 46  1  0
 22 47  1  0
 23 48  1  0
 24 49  1  0
 27 50  1  0
 28 51  1  0
 28 52  1  0
 29 53  1  0
 29 54  1  0
 30 55  1  0
 31 56  1  0
 32 57  1  0
M  CHG  1  26  -1
M  END
>  <UniqueID>  (12) 
11

>  <SMILES>  (12) 
N#Cc1ccc(C(=O)Nc2cccc(CN3CCN(Cc4cccc([O-])c4)CC3)c2)cc1

>  <Energy>  (12) 
80.7815900541481

>  <Genealogy>  (12) 
N#Cc1ccc(C(=O)Nc2cccc(CN3CCN(Cc4cccc([O-])c4)CC3)c2)cc1 (protonated)
N#Cc1ccc(C(=O)Nc2cccc(CN3CCN(Cc4cccc([O-])c4)CC3)c2)cc1 (3D coordinates assigned)
N#Cc1ccc(C(=O)Nc2cccc(CN3CCN(Cc4cccc([O-])c4)CC3)c2)cc1 (nonaromatic ring conformer: 80.7815900541481 kcal/mol)

>  <smiles>  (12) 
N#Cc1ccc(C(=O)Nc2cccc(CN3CCN(Cc4cccc(O)c4)CC3)c2)cc1

>  <score_type>  (12) 
oracle

>  <origin>  (12) 
adg

>  <m_score__min__energy>  (12) 
-13.279999999999999

>  <m_primary>  (12) 
energy

$$$$
12:0
     RDKit          3D

 34 35  0  0  0  0  0  0  0  0999 V2000
   59.3450   26.7170   47.5390 H   0  0  0  0  0  0  0  0  0  0  0  0
   58.7190   26.0150   47.1640 O   0  0  0  0  0  0  0  0  0  0  0  0
   57.4750   26.3740   46.6540 C   0  0  0  0  0  0  0  0  0  0  0  0
   56.3790   25.5990   46.7380 N   0  0  0  0  0  0  0  0  0  0  0  0
   55.4480   26.3390   46.0990 C   0  0  0  0  0  0  0  0  0  0  0  0
   54.2590   25.9530   45.9530 O   0  0  0  0  0  0  0  0  0  0  0  0
   55.8940   27.5200   45.6190 N   0  0  0  0  0  0  0  0  0  0  0  0
   57.1850   27.5460   45.9990 C   0  0  0  0  0  0  0  0  0  0  0  0
   58.1650   28.5890   45.6240 C   0  0  0  0  0  0  0  0  0  0  0  0
   59.1891   28.2566   45.3987 H   0  0  0  0  0  0  0  0  0  0  0  0
   57.9120   29.9230   45.5330 C   0  0  0  0  0  0  0  0  0  0  0  0
   58.6360   30.8460   46.3250 C   0  0  0  0  0  0  0  0  0  0  0  0
   59.3877   30.4633   47.0310 H   0  0  0  0  0  0  0  0  0  0  0  0
   58.4290   32.2370   46.2420 C   0  0  0  0  0  0  0  0  0  0  0  0
   59.2520   33.1940   47.1310 C   0  0  0  0  0  0  0  0  0  0  0  0
   58.9200   32.9300   48.6150 C   0  0  0  0  0  0  0  0  0  0  0  0
   59.6216   33.4879   49.2526 H   0  0  0  0  0  0  0  0  0  0  0  0
   57.8919   33.2600   48.8250 H   0  0  0  0  0  0  0  0  0  0  0  0
   59.0099   31.8540   48.8250 H   0  0  0  0  0  0  0  0  0  0  0  0
   60.7800   33.0250   46.9510 C   0  0  0  0  0  0  0  0  0  0  0  0
   61.2618   32.9717   47.9384 H   0  0  0  0  0  0  0  0  0  0  0  0
   60.9833   32.0989   46.3933 H   0  0  0  0  0  0  0  0  0  0  0  0
   61.1808   33.8843   46.3933 H   0  0  0  0  0  0  0  0  0  0  0  0
   58.9030   34.6580   46.7800 C   0  0  0  0  0  0  0  0  0  0  0  0
   58.7656   35.2345   47.7067 H   0  0  0  0  0  0  0  0  0  0  0  0
   59.7212   35.0991   46.1917 H   0  0  0  0  0  0  0  0  0  0  0  0
   57.9738   34.6825   46.1917 H   0  0  0  0  0  0  0  0  0  0  0  0
   57.4830   32.6900   45.3080 C   0  0  0  0  0  0  0  0  0  0  0  0
   57.2969   33.7688   45.2002 H   0  0  0  0  0  0  0  0  0  0  0  0
   56.7980   31.8110   44.5390 N   0  0  0  0  0  0  0  0  0  0  0  0
   56.9630   30.4630   44.6090 C   0  0  0  0  0  0  0  0  0  0  0  0
   56.1780   29.7230   43.8090 C   0  0  0  0  0  0  0  0  0  0  0  0
   56.2619   28.6262   43.8178 H   0  0  0  0  0  0  0  0  0  0  0  0
   55.4511   30.2137   43.1450 H   0  0  0  0  0  0  0  0  0  0  0  0
  1  2  1  0
  2  3  1  0
  3  4  1  0
  4  5  1  0
  5  6  2  0
  5  7  1  0
  7  8  1  0
  8  9  1  0
  9 10  1  0
  9 11  2  0
 11 12  1  0
 12 13  1  0
 12 14  2  0
 14 15  1  0
 15 16  1  0
 16 17  1  0
 16 18  1  0
 16 19  1  0
 15 20  1  0
 20 21  1  0
 20 22  1  0
 20 23  1  0
 15 24  1  0
 24 25  1  0
 24 26  1  0
 24 27  1  0
 14 28  1  0
 28 29  1  0
 28 30  2  0
 30 31  1  0
 31 32  2  0
 32 33  1  0
 32 34  1  0
  8  3  2  0
 31 11  1  0
M  CHG  2   4  -1   7  -1
M  END
>  <UniqueID>  (13) 
12

>  <SMILES>  (13) 
C=c1ncc(C(C)(C)C)c/c1=C\c1[n-]c(=O)[n-]c1O

>  <Energy>  (13) 
78.27904423821485

>  <Genealogy>  (13) 
C=c1ncc(C(C)(C)C)cc1=Cc1[n-]c(=O)[n-]c1O (protonated)
C=c1ncc(C(C)(C)C)c/c1=C\c1[n-]c(=O)[n-]c1O (cis-trans isomerization)
C=c1ncc(C(C)(C)C)c/c1=C\c1[n-]c(=O)[n-]c1O (3D coordinates assigned)
C=c1ncc(C(C)(C)C)c/c1=C\c1[n-]c(=O)[n-]c1O (optimized conformer: 78.27904423821485 kcal/mol)

>  <smiles>  (13) 
C=c1ncc(C(C)(C)C)cc1=Cc1[nH]c(=O)[nH]c1O

>  <score_type>  (13) 
oracle

>  <origin>  (13) 
adg

>  <m_score__min__energy>  (13) 
-11.51

>  <m_primary>  (13) 
energy

$$$$
13:0
     RDKit          3D

 36 37  0  0  0  0  0  0  0  0999 V2000
   58.7730   28.9390   48.7710 C   0  0  0  0  0  0  0  0  0  0  0  0
   59.9500   28.0460   48.3820 C   0  0  0  0  0  0  0  0  0  0  0  0
   59.9600   27.7700   46.9330 N   0  0  0  0  0  0  0  0  0  0  0  0
   60.6640   28.6870   46.0140 C   0  0  0  0  0  0  0  0  0  0  0  0
   60.5720   30.1340   46.4280 C   0  0  0  0  0  0  0  0  0  0  0  0
   61.6320   30.7670   46.6790 O   0  0  0  0  0  0  0  0  0  0  0  0
   59.3280   30.8440   46.4410 N   0  0  0  0  0  0  0  0  0  0  0  0
   58.3120   30.7950   45.4330 C   0  0  0  0  0  0  0  0  0  0  0  0
   58.4540   31.4880   44.2200 C   0  0  0  0  0  0  0  0  0  0  0  0
   57.4810   31.3680   43.2230 C   0  0  0  0  0  0  0  0  0  0  0  0
   56.3730   30.5410   43.4210 C   0  0  0  0  0  0  0  0  0  0  0  0
   56.2390   29.8260   44.6160 C   0  0  0  0  0  0  0  0  0  0  0  0
   55.1430   28.9950   44.8100 O   0  0  0  0  0  0  0  0  0  0  0  0
   57.2120   29.9460   45.6150 C   0  0  0  0  0  0  0  0  0  0  0  0
   59.6990   26.4110   46.5070 C   0  0  0  0  0  0  0  0  0  0  0  0
   60.6360   25.7310   46.0020 O   0  0  0  0  0  0  0  0  0  0  0  0
   58.3690   25.7740   46.6560 C   0  0  0  0  0  0  0  0  0  0  0  0
   57.2100   26.4340   46.2200 C   0  0  0  0  0  0  0  0  0  0  0  0
   55.9790   25.7910   46.3600 C   0  0  0  0  0  0  0  0  0  0  0  0
   54.9210   26.3600   45.9840 O   0  0  0  0  0  0  0  0  0  0  0  0
   55.9220   24.5490   46.9030 N   0  0  0  0  0  0  0  0  0  0  0  0
   57.0510   23.9150   47.3120 C   0  0  0  0  0  0  0  0  0  0  0  0
   56.9770   22.7650   47.8150 O   0  0  0  0  0  0  0  0  0  0  0  0
   58.2590   24.5240   47.1810 N   0  0  0  0  0  0  0  0  0  0  0  0
   58.7009   28.9937   49.8673 H   0  0  0  0  0  0  0  0  0  0  0  0
   58.9282   29.9486   48.3629 H   0  0  0  0  0  0  0  0  0  0  0  0
   57.8425   28.5176   48.3629 H   0  0  0  0  0  0  0  0  0  0  0  0
   60.8881   28.5504   48.6568 H   0  0  0  0  0  0  0  0  0  0  0  0
   59.8503   27.0895   48.9160 H   0  0  0  0  0  0  0  0  0  0  0  0
   61.7255   28.4004   45.9803 H   0  0  0  0  0  0  0  0  0  0  0  0
   60.1790   28.5982   45.0307 H   0  0  0  0  0  0  0  0  0  0  0  0
   59.3335   32.1273   44.0536 H   0  0  0  0  0  0  0  0  0  0  0  0
   57.5884   31.9259   42.2811 H   0  0  0  0  0  0  0  0  0  0  0  0
   55.6060   30.4519   42.6376 H   0  0  0  0  0  0  0  0  0  0  0  0
   57.1128   29.3711   46.5475 H   0  0  0  0  0  0  0  0  0  0  0  0
   57.2704   27.4388   45.7764 H   0  0  0  0  0  0  0  0  0  0  0  0
  1  2  1  0
  2  3  1  0
  3  4  1  0
  4  5  1  0
  5  6  2  0
  5  7  1  0
  7  8  1  0
  8  9  2  0
  9 10  1  0
 10 11  2  0
 11 12  1  0
 12 13  1  0
 12 14  2  0
  3 15  1  0
 15 16  2  0
 15 17  1  0
 17 18  2  0
 18 19  1  0
 19 20  2  0
 19 21  1  0
 21 22  1  0
 22 23  2  0
 22 24  1  0
 14  8  1  0
 24 17  1  0
  1 25  1  0
  1 26  1  0
  1 27  1  0
  2 28  1  0
  2 29  1  0
  4 30  1  0
  4 31  1  0
  9 32  1  0
 10 33  1  0
 11 34  1  0
 14 35  1  0
 18 36  1  0
M  CHG  4   7  -1  13  -1  21  -1  24  -1
M  END
>  <UniqueID>  (14) 
13

>  <SMILES>  (14) 
CCN(CC(=O)[N-]c1cccc([O-])c1)C(=O)c1cc(=O)[n-]c(=O)[n-]1

>  <Energy>  (14) 
44.34566853962886

>  <Genealogy>  (14) 
CCN(CC(=O)[N-]c1cccc([O-])c1)C(=O)c1cc(=O)[n-]c(=O)[n-]1 (protonated)
CCN(CC(=O)[N-]c1cccc([O-])c1)C(=O)c1cc(=O)[n-]c(=O)[n-]1 (3D coordinates assigned)
CCN(CC(=O)[N-]c1cccc([O-])c1)C(=O)c1cc(=O)[n-]c(=O)[n-]1 (optimized conformer: 44.34566853962886 kcal/mol)

>  <smiles>  (14) 
CCN(CC(=O)Nc1cccc(O)c1)C(=O)c1cc(=O)[nH]c(=O)[nH]1

>  <score_type>  (14) 
oracle

>  <origin>  (14) 
adg

>  <m_score__min__energy>  (14) 
-14.779999999999999

>  <m_primary>  (14) 
energy

$$$$
14:0
     RDKit          3D

 49 52  0  0  0  0  0  0  0  0999 V2000
   55.9210   21.7960   42.6140 N   0  0  0  0  0  0  0  0  0  0  0  0
   55.7870   23.1020   43.7410 S   0  0  0  0  0  0  0  0  0  0  0  0
   54.4220   23.7220   43.6510 O   0  0  0  0  0  0  0  0  0  0  0  0
   56.8130   24.1380   43.3780 O   0  0  0  0  0  0  0  0  0  0  0  0
   56.0740   22.5190   45.3910 C   0  0  0  0  0  0  0  0  0  0  0  0
   55.9290   21.1480   45.6590 C   0  0  0  0  0  0  0  0  0  0  0  0
   56.1000   20.6540   46.9540 C   0  0  0  0  0  0  0  0  0  0  0  0
   56.4160   21.5220   47.9980 C   0  0  0  0  0  0  0  0  0  0  0  0
   56.5730   22.8870   47.7490 C   0  0  0  0  0  0  0  0  0  0  0  0
   56.4170   23.3970   46.4500 C   0  0  0  0  0  0  0  0  0  0  0  0
   56.6220   24.8430   46.2380 C   0  0  0  0  0  0  0  0  0  0  0  0
   57.9160   25.3800   46.2160 C   0  0  0  0  0  0  0  0  0  0  0  0
   58.1010   26.7470   46.0060 C   0  0  0  0  0  0  0  0  0  0  0  0
   56.9870   27.5700   45.8070 C   0  0  0  0  0  0  0  0  0  0  0  0
   57.1580   28.8440   45.6100 N   0  0  0  0  0  0  0  0  0  0  0  0
   58.4050   29.4610   45.1600 C   0  0  0  0  0  0  0  0  0  0  0  0
   58.4760   30.9020   45.6050 C   0  0  0  0  0  0  0  0  0  0  0  0
   59.6650   31.3820   46.1800 C   0  0  0  0  0  0  0  0  0  0  0  0
   59.7810   32.7190   46.5960 C   0  0  0  0  0  0  0  0  0  0  0  0
   61.0550   33.2020   47.1890 C   0  0  0  0  0  0  0  0  0  0  0  0
   61.1850   33.4420   48.5690 C   0  0  0  0  0  0  0  0  0  0  0  0
   62.4050   33.8920   49.0780 C   0  0  0  0  0  0  0  0  0  0  0  0
   63.4850   34.0940   48.2190 C   0  0  0  0  0  0  0  0  0  0  0  0
   63.3300   33.8380   46.8570 C   0  0  0  0  0  0  0  0  0  0  0  0
   62.1340   33.4010   46.3790 N   0  0  0  0  0  0  0  0  0  0  0  0
   58.6870   33.5830   46.4110 C   0  0  0  0  0  0  0  0  0  0  0  0
   57.5020   33.1160   45.8400 C   0  0  0  0  0  0  0  0  0  0  0  0
   57.3880   31.7800   45.4350 C   0  0  0  0  0  0  0  0  0  0  0  0
   56.1980   31.3280   44.8630 O   0  0  0  0  0  0  0  0  0  0  0  0
   55.7370   27.0240   45.8160 N   0  0  0  0  0  0  0  0  0  0  0  0
   55.5330   25.6960   46.0190 C   0  0  0  0  0  0  0  0  0  0  0  0
   56.1870   22.2040   41.6900 H   0  0  0  0  0  0  0  0  0  0  0  0
   55.6783   20.4566   44.8410 H   0  0  0  0  0  0  0  0  0  0  0  0
   55.9851   19.5778   47.1506 H   0  0  0  0  0  0  0  0  0  0  0  0
   56.5418   21.1314   49.0186 H   0  0  0  0  0  0  0  0  0  0  0  0
   56.8207   23.5679   48.5767 H   0  0  0  0  0  0  0  0  0  0  0  0
   58.7863   24.7238   46.3643 H   0  0  0  0  0  0  0  0  0  0  0  0
   59.1146   27.1743   45.9970 H   0  0  0  0  0  0  0  0  0  0  0  0
   59.2557   28.9088   45.5859 H   0  0  0  0  0  0  0  0  0  0  0  0
   58.4409   29.4271   44.0611 H   0  0  0  0  0  0  0  0  0  0  0  0
   60.5187   30.7000   46.3065 H   0  0  0  0  0  0  0  0  0  0  0  0
   60.3313   33.2763   49.2426 H   0  0  0  0  0  0  0  0  0  0  0  0
   62.5141   34.0869   50.1551 H   0  0  0  0  0  0  0  0  0  0  0  0
   64.4485   34.4513   48.6115 H   0  0  0  0  0  0  0  0  0  0  0  0
   64.1750   33.9895   46.1692 H   0  0  0  0  0  0  0  0  0  0  0  0
   58.7658   34.6361   46.7190 H   0  0  0  0  0  0  0  0  0  0  0  0
   56.6521   33.8016   45.7072 H   0  0  0  0  0  0  0  0  0  0  0  0
   55.7090   30.5160   45.2240 H   0  0  0  0  0  0  0  0  0  0  0  0
   54.5106   25.2902   46.0113 H   0  0  0  0  0  0  0  0  0  0  0  0
  1  2  1  0
  2  3  2  0
  2  4  2  0
  2  5  1  0
  5  6  2  0
  6  7  1  0
  7  8  2  0
  8  9  1  0
  9 10  2  0
 10 11  1  0
 11 12  1  0
 12 13  2  0
 13 14  1  0
 14 15  2  3
 15 16  1  0
 16 17  1  0
 17 18  2  0
 18 19  1  0
 19 20  1  0
 20 21  2  0
 21 22  1  0
 22 23  2  0
 23 24  1  0
 24 25  2  0
 19 26  2  0
 26 27  1  0
 27 28  2  0
 28 29  1  0
 14 30  1  0
 30 31  1  0
 10  5  1  0
 31 11  2  0
 28 17  1  0
 25 20  1  0
  1 32  1  0
  6 33  1  0
  7 34  1  0
  8 35  1  0
  9 36  1  0
 12 37  1  0
 13 38  1  0
 16 39  1  0
 16 40  1  0
 18 41  1  0
 21 42  1  0
 22 43  1  0
 23 44  1  0
 24 45  1  0
 26 46  1  0
 27 47  1  0
 29 48  1  0
 31 49  1  0
M  CHG  2   1  -1  30  -1
M  END
>  <UniqueID>  (15) 
14

>  <SMILES>  (15) 
[NH-]S(=O)(=O)c1ccccc1-c1ccc(=NCc2cc(-c3ccccn3)ccc2O)[n-]c1

>  <Energy>  (15) 
67.57653441001641

>  <Genealogy>  (15) 
[NH-]S(=O)(=O)c1ccccc1-c1ccc(=NCc2cc(-c3ccccn3)ccc2O)[n-]c1 (protonated)
[NH-]S(=O)(=O)c1ccccc1-c1ccc(=NCc2cc(-c3ccccn3)ccc2O)[n-]c1 (3D coordinates assigned)
[NH-]S(=O)(=O)c1ccccc1-c1ccc(=NCc2cc(-c3ccccn3)ccc2O)[n-]c1 (optimized conformer: 67.57653441001641 kcal/mol)

>  <smiles>  (15) 
NS(=O)(=O)c1ccccc1-c1ccc(=NCc2cc(-c3ccccn3)ccc2O)[nH]c1

>  <score_type>  (15) 
oracle

>  <origin>  (15) 
adg

>  <m_score__min__energy>  (15) 
-12.83

>  <m_primary>  (15) 
energy

$$$$
15:0
     RDKit          3D

 32 34  0  0  0  0  0  0  0  0999 V2000
   59.9622   27.4761   47.8639 H   0  0  0  0  0  0  0  0  0  0  0  0
   59.2130   27.9940   47.2470 C   0  0  0  0  0  0  0  0  0  0  0  0
   59.4260   29.3150   46.8560 C   0  0  0  0  0  0  0  0  0  0  0  0
   60.3385   29.8412   47.1728 H   0  0  0  0  0  0  0  0  0  0  0  0
   58.4830   29.9710   46.0630 C   0  0  0  0  0  0  0  0  0  0  0  0
   58.6614   31.0114   45.7536 H   0  0  0  0  0  0  0  0  0  0  0  0
   57.3060   29.3150   45.6550 C   0  0  0  0  0  0  0  0  0  0  0  0
   56.3170   30.0410   44.8200 C   0  0  0  0  0  0  0  0  0  0  0  0
   56.5140   31.2480   44.5140 O   0  0  0  0  0  0  0  0  0  0  0  0
   55.1370   29.3900   44.3430 N   0  0  0  0  0  0  0  0  0  0  0  0
   54.4760   29.9000   43.7160 H   0  0  0  0  0  0  0  0  0  0  0  0
   54.8770   28.4310   44.6630 H   0  0  0  0  0  0  0  0  0  0  0  0
   57.0750   27.9840   46.0820 C   0  0  0  0  0  0  0  0  0  0  0  0
   55.9080   27.2780   45.6210 N   0  0  0  0  0  0  0  0  0  0  0  0
   55.5250   26.0880   45.9840 C   0  0  0  0  0  0  0  0  0  0  0  0
   56.3130   25.2990   46.7630 N   0  0  0  0  0  0  0  0  0  0  0  0
   55.8790   24.0730   47.1480 C   0  0  0  0  0  0  0  0  0  0  0  0
   56.6120   23.3420   47.8620 O   0  0  0  0  0  0  0  0  0  0  0  0
   54.6550   23.6360   46.7620 N   0  0  0  0  0  0  0  0  0  0  0  0
   53.8540   24.4190   45.9940 C   0  0  0  0  0  0  0  0  0  0  0  0
   52.6690   24.0330   45.6080 N   0  0  0  0  0  0  0  0  0  0  0  0
   51.9890   24.0440   44.2980 C   0  0  0  0  0  0  0  0  0  0  0  0
   52.9338   24.0180   43.7353 H   0  0  0  0  0  0  0  0  0  0  0  0
   50.6990   24.8410   44.1910 C   0  0  0  0  0  0  0  0  0  0  0  0
   50.3266   25.4050   45.0589 H   0  0  0  0  0  0  0  0  0  0  0  0
   50.3220   25.6267   43.5198 H   0  0  0  0  0  0  0  0  0  0  0  0
   50.6610   23.3110   44.1980 C   0  0  0  0  0  0  0  0  0  0  0  0
   50.2613   22.7741   45.0709 H   0  0  0  0  0  0  0  0  0  0  0  0
   50.2453   22.5389   43.5339 H   0  0  0  0  0  0  0  0  0  0  0  0
   54.2970   25.6450   45.6130 N   0  0  0  0  0  0  0  0  0  0  0  0
   58.0510   27.3280   46.8570 C   0  0  0  0  0  0  0  0  0  0  0  0
   57.8956   26.2813   47.1574 H   0  0  0  0  0  0  0  0  0  0  0  0
  1  2  1  0
  2  3  2  0
  3  4  1  0
  3  5  1  0
  5  6  1  0
  5  7  2  0
  7  8  1  0
  8  9  2  0
  8 10  1  0
 10 11  1  0
 10 12  1  0
  7 13  1  0
 13 14  1  0
 14 15  2  0
 15 16  1  0
 16 17  1  0
 17 18  2  0
 17 19  1  0
 19 20  1  0
 20 21  2  3
 21 22  1  0
 22 23  1  0
 22 24  1  0
 24 25  1  0
 24 26  1  0
 24 27  1  0
 27 28  1  0
 27 29  1  0
 20 30  1  0
 13 31  2  0
 31 32  1  0
 31  2  1  0
 30 15  1  0
 27 22  1  0
M  CHG  3  16  -1  19  -1  30  -1
M  END
>  <UniqueID>  (16) 
15

>  <SMILES>  (16) 
NC(=O)c1ccccc1/N=c1\[n-]c(=O)[n-]c(=NC2CC2)[n-]1

>  <Energy>  (16) 
318.4089534317367

>  <Genealogy>  (16) 
NC(=O)c1ccccc1N=c1[n-]c(=O)[n-]c(=NC2CC2)[n-]1 (protonated)
NC(=O)c1ccccc1/N=c1\[n-]c(=O)[n-]c(=NC2CC2)[n-]1 (cis-trans isomerization)
NC(=O)c1ccccc1/N=c1\[n-]c(=O)[n-]c(=NC2CC2)[n-]1 (3D coordinates assigned)
NC(=O)c1ccccc1/N=c1\[n-]c(=O)[n-]c(=NC2CC2)[n-]1 (nonaromatic ring conformer: 318.4089534317367 kcal/mol)

>  <smiles>  (16) 
NC(=O)c1ccccc1N=c1[nH]c(=O)[nH]c(=NC2CC2)[nH]1

>  <score_type>  (16) 
oracle

>  <origin>  (16) 
adg

>  <m_score__min__energy>  (16) 
-12.84

>  <m_primary>  (16) 
energy

$$$$
16:0
     RDKit          3D

 35 36  0  0  0  0  0  0  0  0999 V2000
   57.1610   31.0140   42.7550 O   0  0  0  0  0  0  0  0  0  0  0  0
   57.0940   30.8980   44.0070 C   0  0  0  0  0  0  0  0  0  0  0  0
   56.8800   32.0710   44.8040 N   0  0  0  0  0  0  0  0  0  0  0  0
   57.8420   32.6070   45.7630 C   0  0  0  0  0  0  0  0  0  0  0  0
   58.2770   34.0120   45.3460 C   0  0  0  0  0  0  0  0  0  0  0  0
   59.4750   34.7090   46.4760 S   0  0  0  0  0  0  0  0  0  0  0  0
   59.8530   36.0730   45.9700 O   0  0  0  0  0  0  0  0  0  0  0  0
   58.9060   34.8650   47.8590 O   0  0  0  0  0  0  0  0  0  0  0  0
   60.9080   33.7290   46.4990 N   0  0  0  0  0  0  0  0  0  0  0  0
   61.8760   33.6200   47.5520 C   0  0  0  0  0  0  0  0  0  0  0  0
   63.1560   33.1480   47.2280 C   0  0  0  0  0  0  0  0  0  0  0  0
   64.1400   33.0280   48.2130 C   0  0  0  0  0  0  0  0  0  0  0  0
   63.8550   33.3850   49.5330 C   0  0  0  0  0  0  0  0  0  0  0  0
   62.5860   33.8630   49.8670 C   0  0  0  0  0  0  0  0  0  0  0  0
   62.3100   34.2100   51.1480 F   0  0  0  0  0  0  0  0  0  0  0  0
   61.5990   33.9860   48.8830 C   0  0  0  0  0  0  0  0  0  0  0  0
   57.2450   29.5610   44.6160 C   0  0  0  0  0  0  0  0  0  0  0  0
   58.5260   29.0230   44.8130 C   0  0  0  0  0  0  0  0  0  0  0  0
   58.6800   27.7630   45.3960 C   0  0  0  0  0  0  0  0  0  0  0  0
   57.5570   27.0290   45.7840 C   0  0  0  0  0  0  0  0  0  0  0  0
   56.2770   27.5590   45.6020 C   0  0  0  0  0  0  0  0  0  0  0  0
   55.1630   26.8250   45.9940 O   0  0  0  0  0  0  0  0  0  0  0  0
   56.1160   28.8270   45.0250 C   0  0  0  0  0  0  0  0  0  0  0  0
   54.8370   29.3450   44.8480 O   0  0  0  0  0  0  0  0  0  0  0  0
   57.3762   32.6514   46.7585 H   0  0  0  0  0  0  0  0  0  0  0  0
   58.7248   31.9514   45.7901 H   0  0  0  0  0  0  0  0  0  0  0  0
   58.7239   33.9615   44.3421 H   0  0  0  0  0  0  0  0  0  0  0  0
   57.3871   34.6585   45.3549 H   0  0  0  0  0  0  0  0  0  0  0  0
   63.3876   32.8697   46.1893 H   0  0  0  0  0  0  0  0  0  0  0  0
   65.1395   32.6522   47.9487 H   0  0  0  0  0  0  0  0  0  0  0  0
   64.6292   33.2897   50.3086 H   0  0  0  0  0  0  0  0  0  0  0  0
   60.6034   34.3699   49.1501 H   0  0  0  0  0  0  0  0  0  0  0  0
   59.4134   29.5964   44.5068 H   0  0  0  0  0  0  0  0  0  0  0  0
   59.6872   27.3483   45.5497 H   0  0  0  0  0  0  0  0  0  0  0  0
   57.6803   26.0326   46.2334 H   0  0  0  0  0  0  0  0  0  0  0  0
  1  2  2  0
  2  3  1  0
  3  4  1  0
  4  5  1  0
  5  6  1  0
  6  7  2  0
  6  8  2  0
  6  9  1  0
  9 10  1  0
 10 11  2  0
 11 12  1  0
 12 13  2  0
 13 14  1  0
 14 15  1  0
 14 16  2  0
  2 17  1  0
 17 18  2  0
 18 19  1  0
 19 20  2  0
 20 21  1  0
 21 22  1  0
 21 23  2  0
 23 24  1  0
 16 10  1  0
 23 17  1  0
  4 25  1  0
  4 26  1  0
  5 27  1  0
  5 28  1  0
 11 29  1  0
 12 30  1  0
 13 31  1  0
 16 32  1  0
 18 33  1  0
 19 34  1  0
 20 35  1  0
M  CHG  4   3  -1   9  -1  22  -1  24  -1
M  END
>  <UniqueID>  (17) 
16

>  <SMILES>  (17) 
O=C([N-]CCS(=O)(=O)[N-]c1cccc(F)c1)c1cccc([O-])c1[O-]

>  <Energy>  (17) 
36.42614628933469

>  <Genealogy>  (17) 
O=C([N-]CCS(=O)(=O)[N-]c1cccc(F)c1)c1cccc([O-])c1[O-] (protonated)
O=C([N-]CCS(=O)(=O)[N-]c1cccc(F)c1)c1cccc([O-])c1[O-] (3D coordinates assigned)
O=C([N-]CCS(=O)(=O)[N-]c1cccc(F)c1)c1cccc([O-])c1[O-] (optimized conformer: 36.42614628933469 kcal/mol)

>  <smiles>  (17) 
O=C(NCCS(=O)(=O)Nc1cccc(F)c1)c1cccc(O)c1O

>  <score_type>  (17) 
oracle

>  <origin>  (17) 
adg

>  <m_score__min__energy>  (17) 
-17.449999999999999

>  <m_primary>  (17) 
energy

$$$$
17:0
     RDKit          3D

 40 43  0  0  0  0  0  0  0  0999 V2000
   57.1990   24.6590   43.4220 C   0  0  0  0  0  0  0  0  0  0  0  0
   57.7370   25.0180   44.5910 C   0  0  0  0  0  0  0  0  0  0  0  0
   57.8530   24.1780   45.5940 O   0  0  0  0  0  0  0  0  0  0  0  0
   58.4120   24.7940   46.6080 C   0  0  0  0  0  0  0  0  0  0  0  0
   58.6860   26.1050   46.2670 C   0  0  0  0  0  0  0  0  0  0  0  0
   59.5210   26.9940   47.0930 C   0  0  0  0  0  0  0  0  0  0  0  0
   60.3910   26.4890   47.8540 O   0  0  0  0  0  0  0  0  0  0  0  0
   59.3970   28.4200   46.9860 N   0  0  0  0  0  0  0  0  0  0  0  0
   60.1180   29.3360   47.8650 C   0  0  0  0  0  0  0  0  0  0  0  0
   59.9220   30.7480   47.4080 C   0  0  0  0  0  0  0  0  0  0  0  0
   60.6560   31.8450   47.8530 C   0  0  0  0  0  0  0  0  0  0  0  0
   60.1650   32.9120   47.1350 C   0  0  0  0  0  0  0  0  0  0  0  0
   60.5210   34.2590   47.1530 C   0  0  0  0  0  0  0  0  0  0  0  0
   59.8380   35.1310   46.2860 C   0  0  0  0  0  0  0  0  0  0  0  0
   58.8260   34.6410   45.4300 C   0  0  0  0  0  0  0  0  0  0  0  0
   58.4900   33.2740   45.4320 C   0  0  0  0  0  0  0  0  0  0  0  0
   59.1850   32.4350   46.3040 C   0  0  0  0  0  0  0  0  0  0  0  0
   59.0270   31.1100   46.4590 N   0  0  0  0  0  0  0  0  0  0  0  0
   58.2290   26.2740   44.9570 C   0  0  0  0  0  0  0  0  0  0  0  0
   58.2200   27.3870   44.1930 C   0  0  0  0  0  0  0  0  0  0  0  0
   57.3380   28.5490   44.4010 C   0  0  0  0  0  0  0  0  0  0  0  0
   57.6380   29.8170   44.0640 N   0  0  0  0  0  0  0  0  0  0  0  0
   56.5870   30.5220   44.5330 C   0  0  0  0  0  0  0  0  0  0  0  0
   56.4920   31.7690   44.3950 O   0  0  0  0  0  0  0  0  0  0  0  0
   55.6490   29.7870   45.1680 N   0  0  0  0  0  0  0  0  0  0  0  0
   56.1460   28.5430   45.0860 C   0  0  0  0  0  0  0  0  0  0  0  0
   55.5240   27.4230   45.6250 O   0  0  0  0  0  0  0  0  0  0  0  0
   57.1191   25.3915   42.6052 H   0  0  0  0  0  0  0  0  0  0  0  0
   56.8359   23.6309   43.2763 H   0  0  0  0  0  0  0  0  0  0  0  0
   58.6301   24.3357   47.5839 H   0  0  0  0  0  0  0  0  0  0  0  0
   58.7670   28.8240   46.2580 H   0  0  0  0  0  0  0  0  0  0  0  0
   59.7380   29.2298   48.8918 H   0  0  0  0  0  0  0  0  0  0  0  0
   61.1906   29.0936   47.8361 H   0  0  0  0  0  0  0  0  0  0  0  0
   61.4527   31.8563   48.6113 H   0  0  0  0  0  0  0  0  0  0  0  0
   61.3107   34.6286   47.8236 H   0  0  0  0  0  0  0  0  0  0  0  0
   60.0932   36.2009   46.2742 H   0  0  0  0  0  0  0  0  0  0  0  0
   58.2972   35.3325   44.7575 H   0  0  0  0  0  0  0  0  0  0  0  0
   57.7059   32.8804   44.7685 H   0  0  0  0  0  0  0  0  0  0  0  0
   58.3610   30.4890   45.9490 H   0  0  0  0  0  0  0  0  0  0  0  0
   58.9255   27.4298   43.3502 H   0  0  0  0  0  0  0  0  0  0  0  0
  1  2  2  0
  2  3  1  0
  3  4  1  0
  4  5  2  0
  5  6  1  0
  6  7  2  0
  6  8  1  0
  8  9  1  0
  9 10  1  0
 10 11  2  0
 11 12  1  0
 12 13  2  0
 13 14  1  0
 14 15  2  0
 15 16  1  0
 16 17  2  0
 17 18  1  0
  5 19  1  0
 19 20  2  3
 20 21  1  0
 21 22  1  0
 22 23  1  0
 23 24  2  0
 23 25  1  0
 25 26  1  0
 26 27  1  0
 19  2  1  0
 26 21  2  0
 18 10  1  0
 17 12  1  0
  1 28  1  0
  1 29  1  0
  4 30  1  0
  8 31  1  0
  9 32  1  0
  9 33  1  0
 11 34  1  0
 13 35  1  0
 14 36  1  0
 15 37  1  0
 16 38  1  0
 18 39  1  0
 20 40  1  0
M  CHG  3  22  -1  25  -1  27  -1
M  END
>  <UniqueID>  (18) 
17

>  <SMILES>  (18) 
C=c1occ(C(=O)NCc2cc3ccccc3[nH]2)c1=Cc1[n-]c(=O)[n-]c1[O-]

>  <Energy>  (18) 
142.88200901147746

>  <Genealogy>  (18) 
C=c1occ(C(=O)NCc2cc3ccccc3[nH]2)c1=Cc1[n-]c(=O)[n-]c1[O-] (protonated)
C=c1occ(C(=O)NCc2cc3ccccc3[nH]2)c1=Cc1[n-]c(=O)[n-]c1[O-] (3D coordinates assigned)
C=c1occ(C(=O)NCc2cc3ccccc3[nH]2)c1=Cc1[n-]c(=O)[n-]c1[O-] (optimized conformer: 142.88200901147746 kcal/mol)

>  <smiles>  (18) 
C=c1occ(C(=O)NCc2cc3ccccc3[nH]2)c1=Cc1[nH]c(=O)[nH]c1O

>  <score_type>  (18) 
oracle

>  <origin>  (18) 
adg

>  <m_score__min__energy>  (18) 
-16.829999999999998

>  <m_primary>  (18) 
energy

$$$$
18:0
     RDKit          3D

 33 35  0  0  0  0  0  0  0  0999 V2000
   54.2420   26.7230   46.7430 H   0  0  0  0  0  0  0  0  0  0  0  0
   54.8370   26.3320   46.0240 O   0  0  0  0  0  0  0  0  0  0  0  0
   56.0220   25.6510   46.3080 C   0  0  0  0  0  0  0  0  0  0  0  0
   55.9610   24.5510   47.1030 N   0  0  0  0  0  0  0  0  0  0  0  0
   57.0660   23.8160   47.3800 C   0  0  0  0  0  0  0  0  0  0  0  0
   56.9790   22.8030   48.1220 O   0  0  0  0  0  0  0  0  0  0  0  0
   58.2660   24.1670   46.8520 N   0  0  0  0  0  0  0  0  0  0  0  0
   58.3890   25.2600   46.0570 C   0  0  0  0  0  0  0  0  0  0  0  0
   59.5200   25.5570   45.5850 O   0  0  0  0  0  0  0  0  0  0  0  0
   57.2660   26.0570   45.7780 C   0  0  0  0  0  0  0  0  0  0  0  0
   57.4080   27.2600   44.9270 C   0  0  0  0  0  0  0  0  0  0  0  0
   57.4139   27.1181   43.8362 H   0  0  0  0  0  0  0  0  0  0  0  0
   57.5310   28.5220   45.3990 C   0  0  0  0  0  0  0  0  0  0  0  0
   56.8880   29.6910   44.7410 C   0  0  0  0  0  0  0  0  0  0  0  0
   55.5880   29.6760   44.4120 C   0  0  0  0  0  0  0  0  0  0  0  0
   55.1335   30.5519   43.9260 H   0  0  0  0  0  0  0  0  0  0  0  0
   54.9762   28.7878   44.6281 H   0  0  0  0  0  0  0  0  0  0  0  0
   57.7040   30.9270   44.6550 C   0  0  0  0  0  0  0  0  0  0  0  0
   57.4920   31.8580   43.7160 C   0  0  0  0  0  0  0  0  0  0  0  0
   56.6669   31.7376   42.9985 H   0  0  0  0  0  0  0  0  0  0  0  0
   58.1429   32.7431   43.6622 H   0  0  0  0  0  0  0  0  0  0  0  0
   58.7840   31.0950   45.5860 N   0  0  0  0  0  0  0  0  0  0  0  0
   59.3430   31.9790   45.5760 H   0  0  0  0  0  0  0  0  0  0  0  0
   59.0740   30.0980   46.5820 C   0  0  0  0  0  0  0  0  0  0  0  0
   59.9760   30.3940   47.6150 C   0  0  0  0  0  0  0  0  0  0  0  0
   60.4729   31.3750   47.6433 H   0  0  0  0  0  0  0  0  0  0  0  0
   60.2460   29.4500   48.6070 C   0  0  0  0  0  0  0  0  0  0  0  0
   60.9582   29.6867   49.4112 H   0  0  0  0  0  0  0  0  0  0  0  0
   59.6140   28.2070   48.5800 C   0  0  0  0  0  0  0  0  0  0  0  0
   59.8197   27.4701   49.3703 H   0  0  0  0  0  0  0  0  0  0  0  0
   58.7210   27.8950   47.5530 C   0  0  0  0  0  0  0  0  0  0  0  0
   58.2207   26.9154   47.5428 H   0  0  0  0  0  0  0  0  0  0  0  0
   58.4560   28.8280   46.5280 C   0  0  0  0  0  0  0  0  0  0  0  0
  1  2  1  0
  2  3  1  0
  3  4  1  0
  4  5  1  0
  5  6  2  0
  5  7  1  0
  7  8  1  0
  8  9  2  0
  8 10  1  0
 10 11  1  0
 11 12  1  0
 11 13  2  0
 13 14  1  0
 14 15  2  0
 15 16  1  0
 15 17  1  0
 14 18  1  0
 18 19  2  0
 19 20  1  0
 19 21  1  0
 18 22  1  0
 22 23  1  0
 22 24  1  0
 24 25  2  0
 25 26  1  0
 25 27  1  0
 27 28  1  0
 27 29  2  0
 29 30  1  0
 29 31  1  0
 31 32  1  0
 31 33  2  0
 10  3  2  0
 33 13  1  0
 33 24  1  0
M  CHG  2   4  -1   7  -1
M  END
>  <UniqueID>  (19) 
18

>  <SMILES>  (19) 
C=C1Nc2ccccc2/C(=C/c2c(O)[n-]c(=O)[n-]c2=O)C1=C

>  <Energy>  (19) 
58.05012550891397

>  <Genealogy>  (19) 
C=C1Nc2ccccc2C(=Cc2c(O)[n-]c(=O)[n-]c2=O)C1=C (protonated)
C=C1Nc2ccccc2/C(=C/c2c(O)[n-]c(=O)[n-]c2=O)C1=C (cis-trans isomerization)
C=C1Nc2ccccc2/C(=C/c2c(O)[n-]c(=O)[n-]c2=O)C1=C (3D coordinates assigned)
C=C1Nc2ccccc2/C(=C/c2c(O)[n-]c(=O)[n-]c2=O)C1=C (nonaromatic ring conformer: 58.05012550891397 kcal/mol)

>  <smiles>  (19) 
C=C1Nc2ccccc2C(=Cc2c(O)[nH]c(=O)[nH]c2=O)C1=C

>  <score_type>  (19) 
oracle

>  <origin>  (19) 
adg

>  <m_score__min__energy>  (19) 
-13.08

>  <m_primary>  (19) 
energy

$$$$
19:0
     RDKit          3D

 45 47  0  0  0  0  0  0  0  0999 V2000
   55.1820   26.7180   45.9780 N   0  0  0  0  0  0  0  0  0  0  0  0
   56.5880   26.5000   45.8930 C   0  0  0  0  0  0  0  0  0  0  0  0
   57.0200   25.3940   45.4740 O   0  0  0  0  0  0  0  0  0  0  0  0
   57.5400   27.5280   46.3420 C   0  0  0  0  0  0  0  0  0  0  0  0
   58.5820   27.2460   47.1510 N   0  0  0  0  0  0  0  0  0  0  0  0
   59.1810   28.3880   47.4490 N   0  0  0  0  0  0  0  0  0  0  0  0
   60.3980   28.4840   48.2490 C   0  0  0  0  0  0  0  0  0  0  0  0
   60.0560   28.6630   49.7030 C   0  0  0  0  0  0  0  0  0  0  0  0
   60.3700   27.7560   50.5190 O   0  0  0  0  0  0  0  0  0  0  0  0
   59.3580   29.8740   50.2000 C   0  0  0  0  0  0  0  0  0  0  0  0
   59.4930   31.0800   49.4890 C   0  0  0  0  0  0  0  0  0  0  0  0
   58.8200   32.2410   49.9090 C   0  0  0  0  0  0  0  0  0  0  0  0
   58.9040   33.4760   49.1840 N   0  0  0  0  0  0  0  0  0  0  0  0
   59.5180   33.6440   47.5710 S   0  0  0  0  0  0  0  0  0  0  0  0
   59.0360   34.9480   46.9950 O   0  0  0  0  0  0  0  0  0  0  0  0
   59.0020   32.5150   46.7240 O   0  0  0  0  0  0  0  0  0  0  0  0
   61.2780   33.5870   47.5900 C   0  0  0  0  0  0  0  0  0  0  0  0
   61.9660   33.2370   48.7610 C   0  0  0  0  0  0  0  0  0  0  0  0
   63.3620   33.1490   48.7580 C   0  0  0  0  0  0  0  0  0  0  0  0
   64.0750   33.4120   47.5840 C   0  0  0  0  0  0  0  0  0  0  0  0
   63.3930   33.7660   46.4150 C   0  0  0  0  0  0  0  0  0  0  0  0
   61.9980   33.8530   46.4170 C   0  0  0  0  0  0  0  0  0  0  0  0
   58.0320   32.1960   51.0650 C   0  0  0  0  0  0  0  0  0  0  0  0
   57.9110   31.0100   51.7910 C   0  0  0  0  0  0  0  0  0  0  0  0
   58.5700   29.8520   51.3680 C   0  0  0  0  0  0  0  0  0  0  0  0
   58.4630   28.7290   52.1230 F   0  0  0  0  0  0  0  0  0  0  0  0
   58.5540   29.4130   46.8410 C   0  0  0  0  0  0  0  0  0  0  0  0
   57.4980   28.9030   46.1150 C   0  0  0  0  0  0  0  0  0  0  0  0
   56.6080   29.6830   45.2400 C   0  0  0  0  0  0  0  0  0  0  0  0
   55.3810   29.1330   44.7570 N   0  0  0  0  0  0  0  0  0  0  0  0
   56.9580   30.8360   44.8670 O   0  0  0  0  0  0  0  0  0  0  0  0
   54.7500   27.0930   46.8520 H   0  0  0  0  0  0  0  0  0  0  0  0
   60.9866   27.5629   48.1257 H   0  0  0  0  0  0  0  0  0  0  0  0
   60.9809   29.3529   47.9096 H   0  0  0  0  0  0  0  0  0  0  0  0
   60.1321   31.1154   48.5944 H   0  0  0  0  0  0  0  0  0  0  0  0
   61.4058   33.0310   49.6850 H   0  0  0  0  0  0  0  0  0  0  0  0
   63.8984   32.8733   49.6779 H   0  0  0  0  0  0  0  0  0  0  0  0
   65.1727   33.3405   47.5798 H   0  0  0  0  0  0  0  0  0  0  0  0
   63.9552   33.9761   45.4932 H   0  0  0  0  0  0  0  0  0  0  0  0
   61.4640   34.1308   45.4963 H   0  0  0  0  0  0  0  0  0  0  0  0
   57.5051   33.1004   51.4032 H   0  0  0  0  0  0  0  0  0  0  0  0
   57.2936   30.9864   52.7011 H   0  0  0  0  0  0  0  0  0  0  0  0
   58.8355   30.4740   46.9112 H   0  0  0  0  0  0  0  0  0  0  0  0
   55.1450   28.1280   44.9180 H   0  0  0  0  0  0  0  0  0  0  0  0
   54.7360   29.7150   44.1790 H   0  0  0  0  0  0  0  0  0  0  0  0
  1  2  1  0
  2  3  2  0
  2  4  1  0
  4  5  2  0
  5  6  1  0
  6  7  1  0
  7  8  1  0
  8  9  2  0
  8 10  1  0
 10 11  2  0
 11 12  1  0
 12 13  1  0
 13 14  1  0
 14 15  2  0
 14 16  2  0
 14 17  1  0
 17 18  2  0
 18 19  1  0
 19 20  2  0
 20 21  1  0
 21 22  2  0
 12 23  2  0
 23 24  1  0
 24 25  2  0
 25 26  1  0
  6 27  1  0
 27 28  2  0
 28 29  1  0
 29 30  1  0
 29 31  2  0
 28  4  1  0
 25 10  1  0
 22 17  1  0
  1 32  1  0
  7 33  1  0
  7 34  1  0
 11 35  1  0
 18 36  1  0
 19 37  1  0
 20 38  1  0
 21 39  1  0
 22 40  1  0
 23 41  1  0
 24 42  1  0
 27 43  1  0
 30 44  1  0
 30 45  1  0
M  CHG  2   1  -1  13  -1
M  END
>  <UniqueID>  (20) 
19

>  <SMILES>  (20) 
[NH-]C(=O)c1nn(CC(=O)c2cc([N-]S(=O)(=O)c3ccccc3)ccc2F)cc1C(N)=O

>  <Energy>  (20) 
85.44424753130419

>  <Genealogy>  (20) 
[NH-]C(=O)c1nn(CC(=O)c2cc([N-]S(=O)(=O)c3ccccc3)ccc2F)cc1C(N)=O (protonated)
[NH-]C(=O)c1nn(CC(=O)c2cc([N-]S(=O)(=O)c3ccccc3)ccc2F)cc1C(N)=O (3D coordinates assigned)
[NH-]C(=O)c1nn(CC(=O)c2cc([N-]S(=O)(=O)c3ccccc3)ccc2F)cc1C(N)=O (optimized conformer: 85.44424753130419 kcal/mol)

>  <smiles>  (20) 
NC(=O)c1cn(CC(=O)c2cc(NS(=O)(=O)c3ccccc3)ccc2F)nc1C(N)=O

>  <score_type>  (20) 
oracle

>  <origin>  (20) 
adg

>  <m_score__min__energy>  (20) 
-13.4

>  <m_primary>  (20) 
energy

$$$$
20:0
     RDKit          3D

 29 30  0  0  0  0  0  0  0  0999 V2000
   56.3790   32.7970   46.0940 H   0  0  0  0  0  0  0  0  0  0  0  0
   57.0370   33.5590   45.8180 N   0  0  0  0  0  0  0  0  0  0  0  0
   58.0870   33.3150   44.8860 C   0  0  0  0  0  0  0  0  0  0  0  0
   58.8230   34.2650   44.5060 O   0  0  0  0  0  0  0  0  0  0  0  0
   58.2810   31.9440   44.3180 C   0  0  0  0  0  0  0  0  0  0  0  0
   58.0634   31.9652   43.2400 H   0  0  0  0  0  0  0  0  0  0  0  0
   59.3220   31.6329   44.4900 H   0  0  0  0  0  0  0  0  0  0  0  0
   57.3870   30.9840   44.9710 N   0  0  0  0  0  0  0  0  0  0  0  0
   56.6450   31.3380   45.6180 H   0  0  0  0  0  0  0  0  0  0  0  0
   57.4780   29.6990   44.7770 C   0  0  0  0  0  0  0  0  0  0  0  0
   57.3350   28.4760   46.1000 S   0  0  0  0  0  0  0  0  0  0  0  0
   57.6980   27.2010   44.8870 C   0  0  0  0  0  0  0  0  0  0  0  0
   57.8010   25.9130   45.2450 C   0  0  0  0  0  0  0  0  0  0  0  0
   58.7960   25.5360   45.5239 H   0  0  0  0  0  0  0  0  0  0  0  0
   56.6690   24.9670   45.2900 C   0  0  0  0  0  0  0  0  0  0  0  0
   56.8740   23.6380   44.8930 C   0  0  0  0  0  0  0  0  0  0  0  0
   57.8750   23.3092   44.5770 H   0  0  0  0  0  0  0  0  0  0  0  0
   55.8120   22.7290   44.8970 C   0  0  0  0  0  0  0  0  0  0  0  0
   55.9827   21.6838   44.5997 H   0  0  0  0  0  0  0  0  0  0  0  0
   54.5340   23.1460   45.2780 C   0  0  0  0  0  0  0  0  0  0  0  0
   53.4800   22.2410   45.2840 O   0  0  0  0  0  0  0  0  0  0  0  0
   54.3150   24.4760   45.6500 C   0  0  0  0  0  0  0  0  0  0  0  0
   53.3078   24.8040   45.9466 H   0  0  0  0  0  0  0  0  0  0  0  0
   55.3740   25.3910   45.6460 C   0  0  0  0  0  0  0  0  0  0  0  0
   55.1300   26.7180   45.9850 O   0  0  0  0  0  0  0  0  0  0  0  0
   57.8190   27.7510   43.5320 C   0  0  0  0  0  0  0  0  0  0  0  0
   57.9610   27.0580   42.4890 O   0  0  0  0  0  0  0  0  0  0  0  0
   57.7110   29.1600   43.4810 N   0  0  0  0  0  0  0  0  0  0  0  0
   57.7880   29.7240   42.6050 H   0  0  0  0  0  0  0  0  0  0  0  0
  1  2  1  0
  2  3  1  0
  3  4  2  0
  3  5  1  0
  5  6  1  0
  5  7  1  0
  5  8  1  0
  8  9  1  0
  8 10  2  0
 10 11  1  0
 11 12  1  0
 12 13  2  3
 13 14  1  0
 13 15  1  0
 15 16  2  0
 16 17  1  0
 16 18  1  0
 18 19  1  0
 18 20  2  0
 20 21  1  0
 20 22  1  0
 22 23  1  0
 22 24  2  0
 24 25  1  0
 12 26  1  0
 26 27  2  0
 26 28  1  0
 28 29  1  0
 28 10  1  0
 24 15  1  0
M  CHG  4   2  -1   8   1  21  -1  25  -1
M  END
>  <UniqueID>  (21) 
20

>  <SMILES>  (21) 
[NH-]C(=O)C/[NH+]=C1/NC(=O)C(=Cc2ccc([O-])cc2[O-])S1

>  <Energy>  (21) 
54.323037213776225

>  <Genealogy>  (21) 
[NH-]C(=O)C[NH+]=C1NC(=O)C(=Cc2ccc([O-])cc2[O-])S1 (protonated)
[NH-]C(=O)C/[NH+]=C1/NC(=O)C(=Cc2ccc([O-])cc2[O-])S1 (cis-trans isomerization)
[NH-]C(=O)C/[NH+]=C1/NC(=O)C(=Cc2ccc([O-])cc2[O-])S1 (3D coordinates assigned)
[NH-]C(=O)C/[NH+]=C1/NC(=O)C(=Cc2ccc([O-])cc2[O-])S1 (nonaromatic ring conformer: 54.323037213776225 kcal/mol)

>  <smiles>  (21) 
NC(=O)CN=C1NC(=O)C(=Cc2ccc(O)cc2O)S1

>  <score_type>  (21) 
oracle

>  <origin>  (21) 
adg

>  <m_score__min__energy>  (21) 
-13.51

>  <m_primary>  (21) 
energy

$$$$
21:0
     RDKit          3D

 56 59  0  0  0  0  0  0  0  0999 V2000
   58.4330   29.6210   47.1760 C   0  0  0  0  0  0  0  0  0  0  0  0
   58.4860   28.9800   45.8190 C   0  0  0  0  0  0  0  0  0  0  0  0
   57.5210   29.0980   44.8250 C   0  0  0  0  0  0  0  0  0  0  0  0
   56.2720   29.8880   44.8710 C   0  0  0  0  0  0  0  0  0  0  0  0
   55.2000   29.3360   45.2350 O   0  0  0  0  0  0  0  0  0  0  0  0
   56.2580   31.2920   44.5850 N   0  0  0  0  0  0  0  0  0  0  0  0
   57.3530   32.2000   44.7720 C   0  0  0  0  0  0  0  0  0  0  0  0
   57.8780   32.9480   43.7050 C   0  0  0  0  0  0  0  0  0  0  0  0
   58.9350   33.8350   43.9220 C   0  0  0  0  0  0  0  0  0  0  0  0
   59.4630   33.9970   45.2050 C   0  0  0  0  0  0  0  0  0  0  0  0
   58.9230   33.2870   46.2890 C   0  0  0  0  0  0  0  0  0  0  0  0
   59.4830   33.4470   47.6490 C   0  0  0  0  0  0  0  0  0  0  0  0
   58.9680   34.2950   48.4300 O   0  0  0  0  0  0  0  0  0  0  0  0
   60.6020   32.6600   48.0960 N   0  0  0  0  0  0  0  0  0  0  0  0
   61.7610   32.4680   47.2090 C   0  0  0  0  0  0  0  0  0  0  0  0
   62.9980   32.0020   47.9900 C   0  0  0  0  0  0  0  0  0  0  0  0
   63.1740   32.8460   49.2690 C   0  0  0  0  0  0  0  0  0  0  0  0
   64.4200   32.4250   50.0260 C   0  0  0  0  0  0  0  0  0  0  0  0
   64.3690   31.3440   50.9270 C   0  0  0  0  0  0  0  0  0  0  0  0
   65.5120   30.9530   51.6280 C   0  0  0  0  0  0  0  0  0  0  0  0
   66.7190   31.6340   51.4400 C   0  0  0  0  0  0  0  0  0  0  0  0
   68.1540   31.1400   52.3220 Cl  0  0  0  0  0  0  0  0  0  0  0  0
   66.7810   32.7090   50.5500 C   0  0  0  0  0  0  0  0  0  0  0  0
   65.6400   33.1040   49.8460 C   0  0  0  0  0  0  0  0  0  0  0  0
   61.9140   32.8250   50.1820 C   0  0  0  0  0  0  0  0  0  0  0  0
   60.6800   32.2220   49.4960 C   0  0  0  0  0  0  0  0  0  0  0  0
   57.8690   32.3840   46.0610 C   0  0  0  0  0  0  0  0  0  0  0  0
   57.9840   28.3740   43.7390 C   0  0  0  0  0  0  0  0  0  0  0  0
   59.2060   27.8490   44.1060 C   0  0  0  0  0  0  0  0  0  0  0  0
   59.5120   28.2250   45.3640 N   0  0  0  0  0  0  0  0  0  0  0  0
   60.7280   27.8610   46.0860 C   0  0  0  0  0  0  0  0  0  0  0  0
   58.4973   28.8435   47.9515 H   0  0  0  0  0  0  0  0  0  0  0  0
   59.2765   30.3185   47.2852 H   0  0  0  0  0  0  0  0  0  0  0  0
   57.4864   30.1705   47.2852 H   0  0  0  0  0  0  0  0  0  0  0  0
   57.4555   32.8348   42.6957 H   0  0  0  0  0  0  0  0  0  0  0  0
   59.3526   34.4073   43.0805 H   0  0  0  0  0  0  0  0  0  0  0  0
   60.3063   34.6845   45.3668 H   0  0  0  0  0  0  0  0  0  0  0  0
   61.5100   31.7101   46.4523 H   0  0  0  0  0  0  0  0  0  0  0  0
   61.9959   33.4326   46.7353 H   0  0  0  0  0  0  0  0  0  0  0  0
   62.8748   30.9447   48.2673 H   0  0  0  0  0  0  0  0  0  0  0  0
   63.8883   32.1244   47.3556 H   0  0  0  0  0  0  0  0  0  0  0  0
   63.3020   33.8907   48.9494 H   0  0  0  0  0  0  0  0  0  0  0  0
   63.4229   30.8040   51.0797 H   0  0  0  0  0  0  0  0  0  0  0  0
   65.4627   30.1073   52.3297 H   0  0  0  0  0  0  0  0  0  0  0  0
   67.7298   33.2457   50.4029 H   0  0  0  0  0  0  0  0  0  0  0  0
   65.6957   33.9512   49.1466 H   0  0  0  0  0  0  0  0  0  0  0  0
   62.1417   32.2294   51.0784 H   0  0  0  0  0  0  0  0  0  0  0  0
   61.6726   33.8691   50.4300 H   0  0  0  0  0  0  0  0  0  0  0  0
   60.7483   31.1246   49.5283 H   0  0  0  0  0  0  0  0  0  0  0  0
   59.7778   32.5624   50.0252 H   0  0  0  0  0  0  0  0  0  0  0  0
   57.4459   31.8168   46.9032 H   0  0  0  0  0  0  0  0  0  0  0  0
   57.4763   28.2430   42.7720 H   0  0  0  0  0  0  0  0  0  0  0  0
   59.8382   27.2162   43.4658 H   0  0  0  0  0  0  0  0  0  0  0  0
   60.5421   27.9166   47.1687 H   0  0  0  0  0  0  0  0  0  0  0  0
   61.0214   26.8357   45.8166 H   0  0  0  0  0  0  0  0  0  0  0  0
   61.5365   28.5565   45.8166 H   0  0  0  0  0  0  0  0  0  0  0  0
  1  2  1  0
  2  3  2  0
  3  4  1  0
  4  5  2  0
  4  6  1  0
  6  7  1  0
  7  8  2  0
  8  9  1  0
  9 10  2  0
 10 11  1  0
 11 12  1  0
 12 13  2  0
 12 14  1  0
 14 15  1  0
 15 16  1  0
 16 17  1  0
 17 18  1  0
 18 19  2  0
 19 20  1  0
 20 21  2  0
 21 22  1  0
 21 23  1  0
 23 24  2  0
 17 25  1  0
 25 26  1  0
 11 27  2  0
  3 28  1  0
 28 29  2  0
 29 30  1  0
 30 31  1  0
 30  2  1  0
 27  7  1  0
 26 14  1  0
 24 18  1  0
  1 32  1  0
  1 33  1  0
  1 34  1  0
  8 35  1  0
  9 36  1  0
 10 37  1  0
 15 38  1  0
 15 39  1  0
 16 40  1  0
 16 41  1  0
 17 42  1  0
 19 43  1  0
 20 44  1  0
 23 45  1  0
 24 46  1  0
 25 47  1  0
 25 48  1  0
 26 49  1  0
 26 50  1  0
 27 51  1  0
 28 52  1  0
 29 53  1  0
 31 54  1  0
 31 55  1  0
 31 56  1  0
M  CHG  1   6  -1
M  END
>  <UniqueID>  (22) 
21

>  <SMILES>  (22) 
Cc1c(C(=O)[N-]c2cccc(C(=O)N3CCC(c4ccc(Cl)cc4)CC3)c2)ccn1C

>  <Energy>  (22) 
98.68796075541907

>  <Genealogy>  (22) 
Cc1c(C(=O)[N-]c2cccc(C(=O)N3CCC(c4ccc(Cl)cc4)CC3)c2)ccn1C (protonated)
Cc1c(C(=O)[N-]c2cccc(C(=O)N3CCC(c4ccc(Cl)cc4)CC3)c2)ccn1C (3D coordinates assigned)
Cc1c(C(=O)[N-]c2cccc(C(=O)N3CCC(c4ccc(Cl)cc4)CC3)c2)ccn1C (nonaromatic ring conformer: 98.68796075541907 kcal/mol)

>  <smiles>  (22) 
Cc1c(C(=O)Nc2cccc(C(=O)N3CCC(c4ccc(Cl)cc4)CC3)c2)ccn1C

>  <score_type>  (22) 
oracle

>  <origin>  (22) 
adg

>  <m_score__min__energy>  (22) 
-12.26

>  <m_primary>  (22) 
energy

$$$$
22:0
     RDKit          3D

 48 51  0  0  0  0  0  0  0  0999 V2000
   52.9300   21.2410   47.6580 C   0  0  0  0  0  0  0  0  0  0  0  0
   53.6340   22.2750   46.8450 C   0  0  0  0  0  0  0  0  0  0  0  0
   54.7100   23.0280   47.2570 C   0  0  0  0  0  0  0  0  0  0  0  0
   55.0050   23.8980   46.2730 N   0  0  0  0  0  0  0  0  0  0  0  0
   56.0600   24.8800   46.2610 C   0  0  0  0  0  0  0  0  0  0  0  0
   57.3210   24.5840   46.8100 C   0  0  0  0  0  0  0  0  0  0  0  0
   58.3480   25.5290   46.7790 C   0  0  0  0  0  0  0  0  0  0  0  0
   58.1290   26.7850   46.2110 C   0  0  0  0  0  0  0  0  0  0  0  0
   56.8750   27.1150   45.6830 C   0  0  0  0  0  0  0  0  0  0  0  0
   56.6830   28.4090   45.0880 N   0  0  0  0  0  0  0  0  0  0  0  0
   57.1850   29.6350   45.6480 C   0  0  0  0  0  0  0  0  0  0  0  0
   57.7940   29.6340   46.7500 O   0  0  0  0  0  0  0  0  0  0  0  0
   56.9790   30.8840   44.9780 N   0  0  0  0  0  0  0  0  0  0  0  0
   57.5940   32.1320   45.3210 C   0  0  0  0  0  0  0  0  0  0  0  0
   57.4500   33.2700   44.5080 C   0  0  0  0  0  0  0  0  0  0  0  0
   58.0810   34.4660   44.8550 C   0  0  0  0  0  0  0  0  0  0  0  0
   58.8820   34.5300   45.9980 C   0  0  0  0  0  0  0  0  0  0  0  0
   59.0720   33.3860   46.7940 C   0  0  0  0  0  0  0  0  0  0  0  0
   59.8600   33.4120   47.9540 O   0  0  0  0  0  0  0  0  0  0  0  0
   61.2630   33.4350   47.9830 C   0  0  0  0  0  0  0  0  0  0  0  0
   61.9110   33.3960   49.2230 C   0  0  0  0  0  0  0  0  0  0  0  0
   63.3080   33.4080   49.2920 C   0  0  0  0  0  0  0  0  0  0  0  0
   64.0660   33.4450   48.1180 C   0  0  0  0  0  0  0  0  0  0  0  0
   63.4280   33.4620   46.8760 C   0  0  0  0  0  0  0  0  0  0  0  0
   62.0320   33.4510   46.8050 C   0  0  0  0  0  0  0  0  0  0  0  0
   58.4200   32.1950   46.4500 C   0  0  0  0  0  0  0  0  0  0  0  0
   55.8510   26.1500   45.6900 C   0  0  0  0  0  0  0  0  0  0  0  0
   54.0990   23.6560   45.2980 C   0  0  0  0  0  0  0  0  0  0  0  0
   53.2360   22.6680   45.6190 N   0  0  0  0  0  0  0  0  0  0  0  0
   53.0750   21.4540   48.7274 H   0  0  0  0  0  0  0  0  0  0  0  0
   51.8555   21.2588   47.4230 H   0  0  0  0  0  0  0  0  0  0  0  0
   53.3403   20.2478   47.4230 H   0  0  0  0  0  0  0  0  0  0  0  0
   55.2353   22.9354   48.2190 H   0  0  0  0  0  0  0  0  0  0  0  0
   57.4992   23.5997   47.2675 H   0  0  0  0  0  0  0  0  0  0  0  0
   59.3326   25.2831   47.2034 H   0  0  0  0  0  0  0  0  0  0  0  0
   58.9467   27.5201   46.1780 H   0  0  0  0  0  0  0  0  0  0  0  0
   56.2100   28.4420   44.1580 H   0  0  0  0  0  0  0  0  0  0  0  0
   56.8381   33.2178   43.5954 H   0  0  0  0  0  0  0  0  0  0  0  0
   57.9473   35.3595   44.2275 H   0  0  0  0  0  0  0  0  0  0  0  0
   59.3656   35.4780   46.2762 H   0  0  0  0  0  0  0  0  0  0  0  0
   61.3182   33.3557   50.1487 H   0  0  0  0  0  0  0  0  0  0  0  0
   63.8103   33.3883   50.2704 H   0  0  0  0  0  0  0  0  0  0  0  0
   65.1645   33.4607   48.1726 H   0  0  0  0  0  0  0  0  0  0  0  0
   64.0248   33.4841   45.9522 H   0  0  0  0  0  0  0  0  0  0  0  0
   61.5330   33.4549   45.8247 H   0  0  0  0  0  0  0  0  0  0  0  0
   58.5583   31.2994   47.0735 H   0  0  0  0  0  0  0  0  0  0  0  0
   54.8748   26.3908   45.2437 H   0  0  0  0  0  0  0  0  0  0  0  0
   54.0685   24.2053   44.3455 H   0  0  0  0  0  0  0  0  0  0  0  0
  1  2  1  0
  2  3  2  0
  3  4  1  0
  4  5  1  0
  5  6  2  0
  6  7  1  0
  7  8  2  0
  8  9  1  0
  9 10  1  0
 10 11  1  0
 11 12  2  0
 11 13  1  0
 13 14  1  0
 14 15  2  0
 15 16  1  0
 16 17  2  0
 17 18  1  0
 18 19  1  0
 19 20  1  0
 20 21  2  0
 21 22  1  0
 22 23  2  0
 23 24  1  0
 24 25  2  0
 18 26  2  0
  9 27  2  0
  4 28  1  0
 28 29  2  0
 29  2  1  0
 27  5  1  0
 26 14  1  0
 25 20  1  0
  1 30  1  0
  1 31  1  0
  1 32  1  0
  3 33  1  0
  6 34  1  0
  7 35  1  0
  8 36  1  0
 10 37  1  0
 15 38  1  0
 16 39  1  0
 17 40  1  0
 21 41  1  0
 22 42  1  0
 23 43  1  0
 24 44  1  0
 25 45  1  0
 26 46  1  0
 27 47  1  0
 28 48  1  0
M  CHG  1  13  -1
M  END
>  <UniqueID>  (23) 
22

>  <SMILES>  (23) 
Cc1cn(-c2cccc(NC(=O)[N-]c3cccc(Oc4ccccc4)c3)c2)cn1

>  <Energy>  (23) 
98.89346038415034

>  <Genealogy>  (23) 
Cc1cn(-c2cccc(NC(=O)[N-]c3cccc(Oc4ccccc4)c3)c2)cn1 (protonated)
Cc1cn(-c2cccc(NC(=O)[N-]c3cccc(Oc4ccccc4)c3)c2)cn1 (3D coordinates assigned)
Cc1cn(-c2cccc(NC(=O)[N-]c3cccc(Oc4ccccc4)c3)c2)cn1 (optimized conformer: 98.89346038415034 kcal/mol)

>  <smiles>  (23) 
Cc1cn(-c2cccc(NC(=O)Nc3cccc(Oc4ccccc4)c3)c2)cn1

>  <score_type>  (23) 
oracle

>  <origin>  (23) 
adg

>  <m_score__min__energy>  (23) 
-10.9

>  <m_primary>  (23) 
energy

$$$$
23:0
     RDKit          3D

 59 62  0  0  0  0  0  0  0  0999 V2000
   60.3690   28.0380   48.1670 O   0  0  0  0  0  0  0  0  0  0  0  0
   59.3890   28.3530   47.4380 C   0  0  0  0  0  0  0  0  0  0  0  0
   59.0960   29.7300   47.1540 N   0  0  0  0  0  0  0  0  0  0  0  0
   59.8940   30.8330   47.6140 C   0  0  0  0  0  0  0  0  0  0  0  0
   60.8860   31.3570   46.7740 C   0  0  0  0  0  0  0  0  0  0  0  0
   61.6650   32.4400   47.1890 C   0  0  0  0  0  0  0  0  0  0  0  0
   61.4450   33.0210   48.4400 C   0  0  0  0  0  0  0  0  0  0  0  0
   60.4340   32.5310   49.2780 C   0  0  0  0  0  0  0  0  0  0  0  0
   60.1270   33.2930   50.8410 S   0  0  0  0  0  0  0  0  0  0  0  0
   61.4320   33.7410   51.4380 O   0  0  0  0  0  0  0  0  0  0  0  0
   59.2680   34.5100   50.6380 O   0  0  0  0  0  0  0  0  0  0  0  0
   59.3250   32.2010   51.9480 N   0  0  0  0  0  0  0  0  0  0  0  0
   57.8570   32.3730   51.9210 C   0  0  0  0  0  0  0  0  0  0  0  0
   57.1540   31.2290   51.1680 C   0  0  0  0  0  0  0  0  0  0  0  0
   57.4190   29.9480   51.7230 O   0  0  0  0  0  0  0  0  0  0  0  0
   58.7250   29.8190   52.2730 C   0  0  0  0  0  0  0  0  0  0  0  0
   59.7500   30.8100   51.6960 C   0  0  0  0  0  0  0  0  0  0  0  0
   59.6610   31.4370   48.8620 C   0  0  0  0  0  0  0  0  0  0  0  0
   58.5390   27.2840   46.8840 C   0  0  0  0  0  0  0  0  0  0  0  0
   58.4580   26.0710   47.5870 C   0  0  0  0  0  0  0  0  0  0  0  0
   57.6350   25.0400   47.1340 C   0  0  0  0  0  0  0  0  0  0  0  0
   56.8840   25.2060   45.9710 C   0  0  0  0  0  0  0  0  0  0  0  0
   56.9670   26.3980   45.2490 C   0  0  0  0  0  0  0  0  0  0  0  0
   57.8050   27.4410   45.6800 C   0  0  0  0  0  0  0  0  0  0  0  0
   57.9410   28.8800   44.6520 S   0  0  0  0  0  0  0  0  0  0  0  0
   57.5070   28.5750   43.2440 O   0  0  0  0  0  0  0  0  0  0  0  0
   59.3700   29.3440   44.6400 O   0  0  0  0  0  0  0  0  0  0  0  0
   56.9440   30.1550   45.2840 N   0  0  0  0  0  0  0  0  0  0  0  0
   56.9610   31.2970   44.3740 C   0  0  0  0  0  0  0  0  0  0  0  0
   57.6810   32.4380   45.0330 C   0  0  0  0  0  0  0  0  0  0  0  0
   58.5160   33.2750   44.2740 C   0  0  0  0  0  0  0  0  0  0  0  0
   59.1590   34.3600   44.8780 C   0  0  0  0  0  0  0  0  0  0  0  0
   58.9650   34.6220   46.2380 C   0  0  0  0  0  0  0  0  0  0  0  0
   58.1230   33.8020   46.9940 C   0  0  0  0  0  0  0  0  0  0  0  0
   57.4770   32.7160   46.3950 C   0  0  0  0  0  0  0  0  0  0  0  0
   58.3130   29.9410   46.4970 H   0  0  0  0  0  0  0  0  0  0  0  0
   61.0523   30.9127   45.7816 H   0  0  0  0  0  0  0  0  0  0  0  0
   62.4521   32.8354   46.5301 H   0  0  0  0  0  0  0  0  0  0  0  0
   62.0675   33.8662   48.7687 H   0  0  0  0  0  0  0  0  0  0  0  0
   57.4838   32.3989   52.9554 H   0  0  0  0  0  0  0  0  0  0  0  0
   57.6355   33.3124   51.3934 H   0  0  0  0  0  0  0  0  0  0  0  0
   56.0687   31.4055   51.1983 H   0  0  0  0  0  0  0  0  0  0  0  0
   57.5435   31.2267   50.1393 H   0  0  0  0  0  0  0  0  0  0  0  0
   58.6602   29.9821   53.3589 H   0  0  0  0  0  0  0  0  0  0  0  0
   59.0795   28.8100   52.0154 H   0  0  0  0  0  0  0  0  0  0  0  0
   60.7267   30.6383   52.1720 H   0  0  0  0  0  0  0  0  0  0  0  0
   59.8237   30.6525   50.6098 H   0  0  0  0  0  0  0  0  0  0  0  0
   58.8669   31.0489   49.5168 H   0  0  0  0  0  0  0  0  0  0  0  0
   59.0495   25.9326   48.5040 H   0  0  0  0  0  0  0  0  0  0  0  0
   57.5784   24.0953   47.6946 H   0  0  0  0  0  0  0  0  0  0  0  0
   56.2255   24.3970   45.6220 H   0  0  0  0  0  0  0  0  0  0  0  0
   56.3704   26.5223   44.3333 H   0  0  0  0  0  0  0  0  0  0  0  0
   57.4810   31.0203   43.4450 H   0  0  0  0  0  0  0  0  0  0  0  0
   55.9299   31.5970   44.1356 H   0  0  0  0  0  0  0  0  0  0  0  0
   58.6643   33.0764   43.2023 H   0  0  0  0  0  0  0  0  0  0  0  0
   59.8184   35.0084   44.2825 H   0  0  0  0  0  0  0  0  0  0  0  0
   59.4750   35.4733   46.7125 H   0  0  0  0  0  0  0  0  0  0  0  0
   57.9680   34.0113   48.0627 H   0  0  0  0  0  0  0  0  0  0  0  0
   56.8079   32.0782   46.9913 H   0  0  0  0  0  0  0  0  0  0  0  0
  1  2  2  0
  2  3  1  0
  3  4  1  0
  4  5  2  0
  5  6  1  0
  6  7  2  0
  7  8  1  0
  8  9  1  0
  9 10  2  0
  9 11  2  0
  9 12  1  0
 12 13  1  0
 13 14  1  0
 14 15  1  0
 15 16  1  0
 16 17  1  0
  8 18  2  0
  2 19  1  0
 19 20  2  0
 20 21  1  0
 21 22  2  0
 22 23  1  0
 23 24  2  0
 24 25  1  0
 25 26  2  0
 25 27  2  0
 25 28  1  0
 28 29  1  0
 29 30  1  0
 30 31  2  0
 31 32  1  0
 32 33  2  0
 33 34  1  0
 34 35  2  0
 18  4  1  0
 24 19  1  0
 35 30  1  0
 17 12  1  0
  3 36  1  0
  5 37  1  0
  6 38  1  0
  7 39  1  0
 13 40  1  0
 13 41  1  0
 14 42  1  0
 14 43  1  0
 16 44  1  0
 16 45  1  0
 17 46  1  0
 17 47  1  0
 18 48  1  0
 20 49  1  0
 21 50  1  0
 22 51  1  0
 23 52  1  0
 29 53  1  0
 29 54  1  0
 31 55  1  0
 32 56  1  0
 33 57  1  0
 34 58  1  0
 35 59  1  0
M  CHG  1  28  -1
M  END
>  <UniqueID>  (24) 
23

>  <SMILES>  (24) 
O=C(Nc1cccc(S(=O)(=O)N2CCOCC2)c1)c1ccccc1S(=O)(=O)[N-]Cc1ccccc1

>  <Energy>  (24) 
82.72208897704498

>  <Genealogy>  (24) 
O=C(Nc1cccc(S(=O)(=O)N2CCOCC2)c1)c1ccccc1S(=O)(=O)[N-]Cc1ccccc1 (protonated)
O=C(Nc1cccc(S(=O)(=O)N2CCOCC2)c1)c1ccccc1S(=O)(=O)[N-]Cc1ccccc1 (3D coordinates assigned)
O=C(Nc1cccc(S(=O)(=O)N2CCOCC2)c1)c1ccccc1S(=O)(=O)[N-]Cc1ccccc1 (nonaromatic ring conformer: 82.72208897704498 kcal/mol)

>  <smiles>  (24) 
O=C(Nc1cccc(S(=O)(=O)N2CCOCC2)c1)c1ccccc1S(=O)(=O)NCc1ccccc1

>  <score_type>  (24) 
oracle

>  <origin>  (24) 
adg

>  <m_score__min__energy>  (24) 
-11.85

>  <m_primary>  (24) 
energy

$$$$
24:0
     RDKit          3D

 45 46  0  0  0  0  0  0  0  0999 V2000
   59.3600   29.0730   47.3260 C   0  0  0  0  0  0  0  0  0  0  0  0
   59.2500   27.7220   46.6230 C   0  0  0  0  0  0  0  0  0  0  0  0
   57.8450   27.4200   46.2700 N   0  0  0  0  0  0  0  0  0  0  0  0
   57.3800   26.0990   46.7500 C   0  0  0  0  0  0  0  0  0  0  0  0
   55.9710   25.7830   46.3450 C   0  0  0  0  0  0  0  0  0  0  0  0
   55.1900   26.7110   46.0060 O   0  0  0  0  0  0  0  0  0  0  0  0
   55.5150   24.4280   46.4110 N   0  0  0  0  0  0  0  0  0  0  0  0
   56.2890   23.2920   46.8160 C   0  0  0  0  0  0  0  0  0  0  0  0
   57.3010   22.7150   46.0860 C   0  0  0  0  0  0  0  0  0  0  0  0
   57.7970   23.1590   44.7490 C   0  0  0  0  0  0  0  0  0  0  0  0
   57.7310   21.6080   46.7200 N   0  0  0  0  0  0  0  0  0  0  0  0
   57.0190   21.4560   47.8290 N   0  0  0  0  0  0  0  0  0  0  0  0
   56.1190   22.4570   47.9070 C   0  0  0  0  0  0  0  0  0  0  0  0
   55.0950   22.5500   48.9920 C   0  0  0  0  0  0  0  0  0  0  0  0
   57.4290   27.7500   44.8820 C   0  0  0  0  0  0  0  0  0  0  0  0
   57.2500   29.2220   44.6270 C   0  0  0  0  0  0  0  0  0  0  0  0
   58.2150   30.0400   44.1650 N   0  0  0  0  0  0  0  0  0  0  0  0
   57.5690   31.2250   44.1430 C   0  0  0  0  0  0  0  0  0  0  0  0
   58.2100   32.5240   43.7420 C   0  0  0  0  0  0  0  0  0  0  0  0
   57.5610   33.6960   44.4840 C   0  0  0  0  0  0  0  0  0  0  0  0
   58.1200   32.7160   42.2260 C   0  0  0  0  0  0  0  0  0  0  0  0
   56.2930   31.1280   44.5640 N   0  0  0  0  0  0  0  0  0  0  0  0
   56.1350   29.8720   44.8510 O   0  0  0  0  0  0  0  0  0  0  0  0
   59.3477   28.9215   48.4154 H   0  0  0  0  0  0  0  0  0  0  0  0
   60.3010   29.5625   47.0345 H   0  0  0  0  0  0  0  0  0  0  0  0
   58.5106   29.7083   47.0345 H   0  0  0  0  0  0  0  0  0  0  0  0
   59.8547   27.7443   45.7044 H   0  0  0  0  0  0  0  0  0  0  0  0
   59.6150   26.9410   47.3062 H   0  0  0  0  0  0  0  0  0  0  0  0
   58.0437   25.3245   46.3382 H   0  0  0  0  0  0  0  0  0  0  0  0
   57.4050   26.1246   47.8494 H   0  0  0  0  0  0  0  0  0  0  0  0
   58.6105   23.8872   44.8830 H   0  0  0  0  0  0  0  0  0  0  0  0
   58.1719   22.2892   44.1896 H   0  0  0  0  0  0  0  0  0  0  0  0
   56.9739   23.6276   44.1896 H   0  0  0  0  0  0  0  0  0  0  0  0
   55.5935   22.5047   49.9715 H   0  0  0  0  0  0  0  0  0  0  0  0
   54.5502   23.5013   48.9015 H   0  0  0  0  0  0  0  0  0  0  0  0
   54.3877   21.7124   48.9015 H   0  0  0  0  0  0  0  0  0  0  0  0
   58.1972   27.3709   44.1920 H   0  0  0  0  0  0  0  0  0  0  0  0
   56.4471   27.2796   44.7252 H   0  0  0  0  0  0  0  0  0  0  0  0
   59.2734   32.4930   44.0216 H   0  0  0  0  0  0  0  0  0  0  0  0
   57.6490   33.5370   45.5689 H   0  0  0  0  0  0  0  0  0  0  0  0
   58.0696   34.6315   44.2080 H   0  0  0  0  0  0  0  0  0  0  0  0
   56.4982   33.7613   44.2080 H   0  0  0  0  0  0  0  0  0  0  0  0
   57.6625   33.6920   42.0065 H   0  0  0  0  0  0  0  0  0  0  0  0
   59.1296   32.6782   41.7910 H   0  0  0  0  0  0  0  0  0  0  0  0
   57.5032   31.9158   41.7910 H   0  0  0  0  0  0  0  0  0  0  0  0
  1  2  1  0
  2  3  1  0
  3  4  1  0
  4  5  1  0
  5  6  2  0
  5  7  1  0
  7  8  1  0
  8  9  1  0
  9 10  1  0
  9 11  2  0
 11 12  1  0
 12 13  1  0
 13 14  1  0
  3 15  1  0
 15 16  1  0
 16 17  2  0
 17 18  1  0
 18 19  1  0
 19 20  1  0
 19 21  1  0
 18 22  2  0
 22 23  1  0
 13  8  2  0
 23 16  1  0
  1 24  1  0
  1 25  1  0
  1 26  1  0
  2 27  1  0
  2 28  1  0
  4 29  1  0
  4 30  1  0
 10 31  1  0
 10 32  1  0
 10 33  1  0
 14 34  1  0
 14 35  1  0
 14 36  1  0
 15 37  1  0
 15 38  1  0
 19 39  1  0
 20 40  1  0
 20 41  1  0
 20 42  1  0
 21 43  1  0
 21 44  1  0
 21 45  1  0
M  CHG  2   7  -1  12  -1
M  END
>  <UniqueID>  (25) 
24

>  <SMILES>  (25) 
CCN(CC(=O)[N-]c1c(C)n[n-]c1C)Cc1nc(C(C)C)no1

>  <Energy>  (25) 
106.22482279509892

>  <Genealogy>  (25) 
CCN(CC(=O)[N-]c1c(C)n[n-]c1C)Cc1nc(C(C)C)no1 (protonated)
CCN(CC(=O)[N-]c1c(C)n[n-]c1C)Cc1nc(C(C)C)no1 (3D coordinates assigned)
CCN(CC(=O)[N-]c1c(C)n[n-]c1C)Cc1nc(C(C)C)no1 (optimized conformer: 106.22482279509892 kcal/mol)

>  <smiles>  (25) 
CCN(CC(=O)Nc1c(C)n[nH]c1C)Cc1nc(C(C)C)no1

>  <score_type>  (25) 
oracle

>  <origin>  (25) 
adg

>  <m_score__min__energy>  (25) 
-11.41

>  <m_primary>  (25) 
energy

$$$$
25:0
     RDKit          3D

 60 63  0  0  0  0  0  0  0  0999 V2000
   57.4270   31.1630   43.3460 C   0  0  0  0  0  0  0  0  0  0  0  0
   56.2510   30.2110   43.5690 C   0  0  0  0  0  0  0  0  0  0  0  0
   56.1580   29.8360   44.9430 O   0  0  0  0  0  0  0  0  0  0  0  0
   56.8200   28.7240   45.4850 C   0  0  0  0  0  0  0  0  0  0  0  0
   56.4100   27.5530   45.2400 O   0  0  0  0  0  0  0  0  0  0  0  0
   57.9710   28.9270   46.3230 N   0  0  0  0  0  0  0  0  0  0  0  0
   58.5240   27.8190   47.1180 C   0  0  0  0  0  0  0  0  0  0  0  0
   58.9930   28.3250   48.4870 C   0  0  0  0  0  0  0  0  0  0  0  0
   59.8040   29.5440   48.3650 N   0  0  0  0  0  0  0  0  0  0  0  0
   60.5290   30.0200   49.5070 C   0  0  0  0  0  0  0  0  0  0  0  0
   59.7090   30.3470   50.8940 S   0  0  0  0  0  0  0  0  0  0  0  0
   61.9330   30.3170   49.3910 N   0  0  0  0  0  0  0  0  0  0  0  0
   62.7830   30.5830   50.5180 C   0  0  0  0  0  0  0  0  0  0  0  0
   62.7390   29.7160   51.6190 C   0  0  0  0  0  0  0  0  0  0  0  0
   63.5580   29.9370   52.7280 C   0  0  0  0  0  0  0  0  0  0  0  0
   64.4190   31.0350   52.7530 C   0  0  0  0  0  0  0  0  0  0  0  0
   64.4540   31.9200   51.6740 C   0  0  0  0  0  0  0  0  0  0  0  0
   63.6300   31.7130   50.5580 C   0  0  0  0  0  0  0  0  0  0  0  0
   63.6440   32.9040   49.2620 S   0  0  0  0  0  0  0  0  0  0  0  0
   65.2030   33.4750   49.0000 O   0  0  0  0  0  0  0  0  0  0  0  0
   62.4700   34.2240   49.5200 C   0  0  0  0  0  0  0  0  0  0  0  0
   61.1830   33.9050   48.8220 C   0  0  0  0  0  0  0  0  0  0  0  0
   60.1480   33.2500   49.5030 C   0  0  0  0  0  0  0  0  0  0  0  0
   58.9210   33.0390   48.8650 C   0  0  0  0  0  0  0  0  0  0  0  0
   57.9960   32.4450   49.4830 O   0  0  0  0  0  0  0  0  0  0  0  0
   58.7340   33.4970   47.5470 C   0  0  0  0  0  0  0  0  0  0  0  0
   57.5180   33.3220   46.8620 C   0  0  0  0  0  0  0  0  0  0  0  0
   57.3720   33.8000   45.5560 C   0  0  0  0  0  0  0  0  0  0  0  0
   58.4340   34.4520   44.9220 C   0  0  0  0  0  0  0  0  0  0  0  0
   59.6490   34.6310   45.5910 C   0  0  0  0  0  0  0  0  0  0  0  0
   59.8050   34.1590   46.9000 C   0  0  0  0  0  0  0  0  0  0  0  0
   60.9830   34.3480   47.5520 N   0  0  0  0  0  0  0  0  0  0  0  0
   59.9690   30.2040   47.0660 C   0  0  0  0  0  0  0  0  0  0  0  0
   58.6330   30.2430   46.3160 C   0  0  0  0  0  0  0  0  0  0  0  0
   57.8265   31.4864   44.3185 H   0  0  0  0  0  0  0  0  0  0  0  0
   58.2153   30.6456   42.7795 H   0  0  0  0  0  0  0  0  0  0  0  0
   57.0851   32.0417   42.7795 H   0  0  0  0  0  0  0  0  0  0  0  0
   55.3191   30.7117   43.2677 H   0  0  0  0  0  0  0  0  0  0  0  0
   56.4104   29.3052   42.9656 H   0  0  0  0  0  0  0  0  0  0  0  0
   57.7476   27.0531   47.2613 H   0  0  0  0  0  0  0  0  0  0  0  0
   59.3839   27.3903   46.5825 H   0  0  0  0  0  0  0  0  0  0  0  0
   58.1116   28.5434   49.1078 H   0  0  0  0  0  0  0  0  0  0  0  0
   59.6146   27.5433   48.9479 H   0  0  0  0  0  0  0  0  0  0  0  0
   62.3460   30.4280   48.4380 H   0  0  0  0  0  0  0  0  0  0  0  0
   62.0541   28.8553   51.6090 H   0  0  0  0  0  0  0  0  0  0  0  0
   63.5246   29.2452   53.5826 H   0  0  0  0  0  0  0  0  0  0  0  0
   65.0704   31.2032   53.6233 H   0  0  0  0  0  0  0  0  0  0  0  0
   65.1324   32.7855   51.6992 H   0  0  0  0  0  0  0  0  0  0  0  0
   65.4750   33.0660   48.1380 H   0  0  0  0  0  0  0  0  0  0  0  0
   62.2817   34.3393   50.5976 H   0  0  0  0  0  0  0  0  0  0  0  0
   62.8811   35.1593   49.1124 H   0  0  0  0  0  0  0  0  0  0  0  0
   60.2999   32.9030   50.5357 H   0  0  0  0  0  0  0  0  0  0  0  0
   56.6798   32.8078   47.3549 H   0  0  0  0  0  0  0  0  0  0  0  0
   56.4182   33.6626   45.0255 H   0  0  0  0  0  0  0  0  0  0  0  0
   58.3135   34.8252   43.8943 H   0  0  0  0  0  0  0  0  0  0  0  0
   60.4828   35.1430   45.0884 H   0  0  0  0  0  0  0  0  0  0  0  0
   60.3266   31.2322   47.2241 H   0  0  0  0  0  0  0  0  0  0  0  0
   60.6990   29.6391   46.4677 H   0  0  0  0  0  0  0  0  0  0  0  0
   57.9728   30.9778   46.8000 H   0  0  0  0  0  0  0  0  0  0  0  0
   58.8320   30.5236   45.2712 H   0  0  0  0  0  0  0  0  0  0  0  0
  1  2  1  0
  2  3  1  0
  3  4  1  0
  4  5  2  0
  4  6  1  0
  6  7  1  0
  7  8  1  0
  8  9  1  0
  9 10  1  0
 10 11  2  0
 10 12  1  0
 12 13  1  0
 13 14  2  0
 14 15  1  0
 15 16  2  0
 16 17  1  0
 17 18  2  0
 18 19  1  0
 19 20  1  1
 19 21  1  0
 21 22  1  0
 22 23  2  0
 23 24  1  0
 24 25  2  0
 24 26  1  0
 26 27  2  0
 27 28  1  0
 28 29  2  0
 29 30  1  0
 30 31  2  0
 31 32  1  0
  9 33  1  0
 33 34  1  0
 34  6  1  0
 18 13  1  0
 32 22  1  0
 31 26  1  0
  1 35  1  0
  1 36  1  0
  1 37  1  0
  2 38  1  0
  2 39  1  0
  7 40  1  0
  7 41  1  0
  8 42  1  0
  8 43  1  0
 12 44  1  0
 14 45  1  0
 15 46  1  0
 16 47  1  0
 17 48  1  0
 20 49  1  0
 21 50  1  0
 21 51  1  0
 23 52  1  0
 27 53  1  0
 28 54  1  0
 29 55  1  0
 30 56  1  0
 33 57  1  0
 33 58  1  0
 34 59  1  0
 34 60  1  0
M  CHG  2  19   1  32  -1
M  END
>  <UniqueID>  (26) 
25

>  <SMILES>  (26) 
CCOC(=O)N1CCN(C(=S)Nc2ccccc2[S@+](O)Cc2cc(=O)c3ccccc3[n-]2)CC1

>  <Energy>  (26) 
68.6492834708239

>  <Genealogy>  (26) 
CCOC(=O)N1CCN(C(=S)Nc2ccccc2[S+](O)Cc2cc(=O)c3ccccc3[n-]2)CC1 (protonated)
CCOC(=O)N1CCN(C(=S)Nc2ccccc2[S@+](O)Cc2cc(=O)c3ccccc3[n-]2)CC1 (chirality)
CCOC(=O)N1CCN(C(=S)Nc2ccccc2[S@+](O)Cc2cc(=O)c3ccccc3[n-]2)CC1 (3D coordinates assigned)
CCOC(=O)N1CCN(C(=S)Nc2ccccc2[S@+](O)Cc2cc(=O)c3ccccc3[n-]2)CC1 (nonaromatic ring conformer: 68.6492834708239 kcal/mol)

>  <smiles>  (26) 
CCOC(=O)N1CCN(C(=S)Nc2ccccc2[S+]([O-])Cc2cc(=O)c3ccccc3[nH]2)CC1

>  <score_type>  (26) 
oracle

>  <origin>  (26) 
adg

>  <m_score__min__energy>  (26) 
-8.2699999999999996

>  <m_primary>  (26) 
energy

$$$$
26:0
     RDKit          3D

 51 54  0  0  0  0  0  0  0  0999 V2000
   54.1070   29.2640   54.6120 C   0  0  0  0  0  0  0  0  0  0  0  0
   54.4580   30.1200   53.6390 C   0  0  0  0  0  0  0  0  0  0  0  0
   53.6830   30.5120   52.5350 C   0  0  0  0  0  0  0  0  0  0  0  0
   52.3850   30.3010   52.2430 C   0  0  0  0  0  0  0  0  0  0  0  0
   51.6950   30.7500   51.0240 C   0  0  0  0  0  0  0  0  0  0  0  0
   51.6730   30.0440   49.8810 N   0  0  0  0  0  0  0  0  0  0  0  0
   51.0560   30.8760   49.0130 C   0  0  0  0  0  0  0  0  0  0  0  0
   50.8290   30.5590   47.8160 O   0  0  0  0  0  0  0  0  0  0  0  0
   50.7140   32.0780   49.5240 N   0  0  0  0  0  0  0  0  0  0  0  0
   51.1400   31.9880   50.7940 C   0  0  0  0  0  0  0  0  0  0  0  0
   51.0470   33.0260   51.7140 O   0  0  0  0  0  0  0  0  0  0  0  0
   54.5270   31.2320   51.7080 C   0  0  0  0  0  0  0  0  0  0  0  0
   55.7410   31.3230   52.3540 C   0  0  0  0  0  0  0  0  0  0  0  0
   56.9010   32.0650   51.8200 C   0  0  0  0  0  0  0  0  0  0  0  0
   57.0270   33.2810   52.1280 O   0  0  0  0  0  0  0  0  0  0  0  0
   57.8940   31.4300   50.9890 N   0  0  0  0  0  0  0  0  0  0  0  0
   58.2400   30.0120   51.1740 C   0  0  0  0  0  0  0  0  0  0  0  0
   58.5010   29.3530   49.8160 C   0  0  0  0  0  0  0  0  0  0  0  0
   59.4040   30.1590   48.9790 N   0  0  0  0  0  0  0  0  0  0  0  0
   59.9840   29.5900   47.7840 C   0  0  0  0  0  0  0  0  0  0  0  0
   61.0250   30.1060   47.2900 O   0  0  0  0  0  0  0  0  0  0  0  0
   59.4020   28.3390   47.1540 C   0  0  0  0  0  0  0  0  0  0  0  0
   60.1790   27.8830   45.9220 C   0  0  0  0  0  0  0  0  0  0  0  0
   58.9420   28.1010   45.0590 C   0  0  0  0  0  0  0  0  0  0  0  0
   58.1610   28.5550   46.2840 C   0  0  0  0  0  0  0  0  0  0  0  0
   59.8550   31.4770   49.4510 C   0  0  0  0  0  0  0  0  0  0  0  0
   58.6900   32.2590   50.0720 C   0  0  0  0  0  0  0  0  0  0  0  0
   55.7080   30.6410   53.5230 N   0  0  0  0  0  0  0  0  0  0  0  0
   56.8440   30.3780   54.4140 C   0  0  0  0  0  0  0  0  0  0  0  0
   54.8106   29.0394   55.4272 H   0  0  0  0  0  0  0  0  0  0  0  0
   53.1158   28.7873   54.5940 H   0  0  0  0  0  0  0  0  0  0  0  0
   51.7888   29.7441   52.9808 H   0  0  0  0  0  0  0  0  0  0  0  0
   54.2767   31.6518   50.7226 H   0  0  0  0  0  0  0  0  0  0  0  0
   59.1446   29.9362   51.7952 H   0  0  0  0  0  0  0  0  0  0  0  0
   57.4025   29.4983   51.6687 H   0  0  0  0  0  0  0  0  0  0  0  0
   58.9565   28.3655   49.9817 H   0  0  0  0  0  0  0  0  0  0  0  0
   57.5389   29.2630   49.2904 H   0  0  0  0  0  0  0  0  0  0  0  0
   59.3249   27.7129   48.0551 H   0  0  0  0  0  0  0  0  0  0  0  0
   61.0281   28.5319   45.6613 H   0  0  0  0  0  0  0  0  0  0  0  0
   60.6956   26.9119   45.9183 H   0  0  0  0  0  0  0  0  0  0  0  0
   59.0628   28.8789   44.2907 H   0  0  0  0  0  0  0  0  0  0  0  0
   58.5572   27.2884   44.4252 H   0  0  0  0  0  0  0  0  0  0  0  0
   57.8210   29.6001   46.2380 H   0  0  0  0  0  0  0  0  0  0  0  0
   57.2067   28.0746   46.5458 H   0  0  0  0  0  0  0  0  0  0  0  0
   60.6416   31.3398   50.2076 H   0  0  0  0  0  0  0  0  0  0  0  0
   60.2448   32.0451   48.5935 H   0  0  0  0  0  0  0  0  0  0  0  0
   59.0954   33.1159   50.6299 H   0  0  0  0  0  0  0  0  0  0  0  0
   58.0309   32.5899   49.2559 H   0  0  0  0  0  0  0  0  0  0  0  0
   56.5144   30.4543   55.4607 H   0  0  0  0  0  0  0  0  0  0  0  0
   57.2320   29.3663   54.2246 H   0  0  0  0  0  0  0  0  0  0  0  0
   57.6371   31.1163   54.2246 H   0  0  0  0  0  0  0  0  0  0  0  0
  1  2  2  0
  2  3  1  0
  3  4  2  3
  4  5  1  0
  5  6  1  0
  6  7  1  0
  7  8  2  0
  7  9  1  0
  9 10  1  0
 10 11  1  0
  3 12  1  0
 12 13  2  0
 13 14  1  0
 14 15  2  0
 14 16  1  0
 16 17  1  0
 17 18  1  0
 18 19  1  0
 19 20  1  0
 20 21  2  0
 20 22  1  0
 22 23  1  0
 23 24  1  0
 24 25  1  0
 19 26  1  0
 26 27  1  0
 13 28  1  0
 28 29  1  0
 28  2  1  0
 10  5  2  0
 27 16  1  0
 25 22  1  0
  1 30  1  0
  1 31  1  0
  4 32  1  0
 12 33  1  0
 17 34  1  0
 17 35  1  0
 18 36  1  0
 18 37  1  0
 22 38  1  0
 23 39  1  0
 23 40  1  0
 24 41  1  0
 24 42  1  0
 25 43  1  0
 25 44  1  0
 26 45  1  0
 26 46  1  0
 27 47  1  0
 27 48  1  0
 29 49  1  0
 29 50  1  0
 29 51  1  0
M  CHG  3   6  -1   9  -1  11  -1
M  END
>  <UniqueID>  (27) 
26

>  <SMILES>  (27) 
C=c1c(=Cc2[n-]c(=O)[n-]c2[O-])cc(C(=O)N2CCN(C(=O)C3CCC3)CC2)n1C

>  <Energy>  (27) 
189.4053700634431

>  <Genealogy>  (27) 
C=c1c(=Cc2[n-]c(=O)[n-]c2[O-])cc(C(=O)N2CCN(C(=O)C3CCC3)CC2)n1C (protonated)
C=c1c(=Cc2[n-]c(=O)[n-]c2[O-])cc(C(=O)N2CCN(C(=O)C3CCC3)CC2)n1C (3D coordinates assigned)
C=c1c(=Cc2[n-]c(=O)[n-]c2[O-])cc(C(=O)N2CCN(C(=O)C3CCC3)CC2)n1C (nonaromatic ring conformer: 189.4053700634431 kcal/mol)

>  <smiles>  (27) 
C=c1c(=Cc2[nH]c(=O)[nH]c2O)cc(C(=O)N2CCN(C(=O)C3CCC3)CC2)n1C

>  <score_type>  (27) 
oracle

>  <origin>  (27) 
adg

>  <m_score__min__energy>  (27) 
-17.59

>  <m_primary>  (27) 
energy

$$$$
27:0
     RDKit          3D

 60 63  0  0  0  0  0  0  0  0999 V2000
   65.4700   30.1410   51.6670 C   0  0  0  0  0  0  0  0  0  0  0  0
   64.3840   30.3490   52.7300 C   0  0  0  0  0  0  0  0  0  0  0  0
   63.3050   31.2680   52.2690 N   0  0  0  0  0  0  0  0  0  0  0  0
   63.2140   32.4470   53.1690 C   0  0  0  0  0  0  0  0  0  0  0  0
   62.0800   33.3960   52.7630 C   0  0  0  0  0  0  0  0  0  0  0  0
   62.0010   30.5410   52.2120 C   0  0  0  0  0  0  0  0  0  0  0  0
   61.8530   29.7190   50.9230 C   0  0  0  0  0  0  0  0  0  0  0  0
   62.5790   30.3310   49.8640 O   0  0  0  0  0  0  0  0  0  0  0  0
   62.1360   31.4900   49.2230 C   0  0  0  0  0  0  0  0  0  0  0  0
   60.9930   31.4060   48.4250 C   0  0  0  0  0  0  0  0  0  0  0  0
   60.5240   32.5300   47.7300 C   0  0  0  0  0  0  0  0  0  0  0  0
   61.1510   33.7870   47.9500 C   0  0  0  0  0  0  0  0  0  0  0  0
   62.2940   33.8670   48.7540 C   0  0  0  0  0  0  0  0  0  0  0  0
   62.8030   32.7160   49.3860 C   0  0  0  0  0  0  0  0  0  0  0  0
   63.9450   32.7610   50.2010 O   0  0  0  0  0  0  0  0  0  0  0  0
   65.2610   33.0340   49.7340 C   0  0  0  0  0  0  0  0  0  0  0  0
   60.6310   34.9280   47.3960 N   0  0  0  0  0  0  0  0  0  0  0  0
   59.5090   34.9140   46.6210 C   0  0  0  0  0  0  0  0  0  0  0  0
   58.9040   33.6880   46.3630 C   0  0  0  0  0  0  0  0  0  0  0  0
   59.4130   32.5160   46.8630 C   0  0  0  0  0  0  0  0  0  0  0  0
   58.6830   31.4810   46.3730 N   0  0  0  0  0  0  0  0  0  0  0  0
   58.9910   30.0800   46.3590 C   0  0  0  0  0  0  0  0  0  0  0  0
   59.6810   29.5190   45.2740 C   0  0  0  0  0  0  0  0  0  0  0  0
   59.9950   28.1550   45.2690 C   0  0  0  0  0  0  0  0  0  0  0  0
   59.6260   27.3460   46.3510 C   0  0  0  0  0  0  0  0  0  0  0  0
   60.0040   25.6340   46.3360 Cl  0  0  0  0  0  0  0  0  0  0  0  0
   58.9520   27.9050   47.4420 C   0  0  0  0  0  0  0  0  0  0  0  0
   58.6450   29.2680   47.4520 C   0  0  0  0  0  0  0  0  0  0  0  0
   57.7320   32.0780   45.6080 C   0  0  0  0  0  0  0  0  0  0  0  0
   56.8710   31.4370   44.9450 O   0  0  0  0  0  0  0  0  0  0  0  0
   57.8360   33.4270   45.5850 N   0  0  0  0  0  0  0  0  0  0  0  0
   57.0020   34.3840   44.8630 C   0  0  0  0  0  0  0  0  0  0  0  0
   66.4355   29.9561   52.1605 H   0  0  0  0  0  0  0  0  0  0  0  0
   65.2077   29.2768   51.0391 H   0  0  0  0  0  0  0  0  0  0  0  0
   65.5456   31.0410   51.0391 H   0  0  0  0  0  0  0  0  0  0  0  0
   63.9371   29.3739   52.9737 H   0  0  0  0  0  0  0  0  0  0  0  0
   64.8599   30.8060   53.6101 H   0  0  0  0  0  0  0  0  0  0  0  0
   63.5520   31.6110   51.3090 H   0  0  0  0  0  0  0  0  0  0  0  0
   63.0327   32.0964   54.1957 H   0  0  0  0  0  0  0  0  0  0  0  0
   64.1615   33.0013   53.0982 H   0  0  0  0  0  0  0  0  0  0  0  0
   61.5983   33.7991   53.6660 H   0  0  0  0  0  0  0  0  0  0  0  0
   62.4905   34.2236   52.1659 H   0  0  0  0  0  0  0  0  0  0  0  0
   61.3377   32.8460   52.1659 H   0  0  0  0  0  0  0  0  0  0  0  0
   61.9355   29.8621   53.0750 H   0  0  0  0  0  0  0  0  0  0  0  0
   61.1951   31.2894   52.2306 H   0  0  0  0  0  0  0  0  0  0  0  0
   62.2431   28.7045   51.0922 H   0  0  0  0  0  0  0  0  0  0  0  0
   60.7890   29.6712   50.6480 H   0  0  0  0  0  0  0  0  0  0  0  0
   60.4559   30.4497   48.3409 H   0  0  0  0  0  0  0  0  0  0  0  0
   62.7978   34.8349   48.8931 H   0  0  0  0  0  0  0  0  0  0  0  0
   65.9334   33.1735   50.5933 H   0  0  0  0  0  0  0  0  0  0  0  0
   65.6159   32.1904   49.1238 H   0  0  0  0  0  0  0  0  0  0  0  0
   65.2511   33.9492   49.1238 H   0  0  0  0  0  0  0  0  0  0  0  0
   59.0937   35.8465   46.2111 H   0  0  0  0  0  0  0  0  0  0  0  0
   59.9761   30.1528   44.4248 H   0  0  0  0  0  0  0  0  0  0  0  0
   60.5322   27.7180   44.4143 H   0  0  0  0  0  0  0  0  0  0  0  0
   58.6634   27.2707   48.2931 H   0  0  0  0  0  0  0  0  0  0  0  0
   58.1302   29.7071   48.3193 H   0  0  0  0  0  0  0  0  0  0  0  0
   56.4557   35.0108   45.5832 H   0  0  0  0  0  0  0  0  0  0  0  0
   57.6381   35.0211   44.2310 H   0  0  0  0  0  0  0  0  0  0  0  0
   56.2839   33.8409   44.2310 H   0  0  0  0  0  0  0  0  0  0  0  0
  1  2  1  0
  2  3  1  0
  3  4  1  0
  4  5  1  0
  3  6  1  0
  6  7  1  0
  7  8  1  0
  8  9  1  0
  9 10  2  0
 10 11  1  0
 11 12  2  0
 12 13  1  0
 13 14  2  0
 14 15  1  0
 15 16  1  0
 12 17  1  0
 17 18  2  0
 18 19  1  0
 19 20  2  0
 20 21  1  0
 21 22  1  0
 22 23  2  0
 23 24  1  0
 24 25  2  0
 25 26  1  0
 25 27  1  0
 27 28  2  0
 21 29  1  0
 29 30  2  0
 29 31  1  0
 31 32  1  0
 14  9  1  0
 31 19  1  0
 20 11  1  0
 28 22  1  0
  1 33  1  0
  1 34  1  0
  1 35  1  0
  2 36  1  0
  2 37  1  0
  3 38  1  0
  4 39  1  0
  4 40  1  0
  5 41  1  0
  5 42  1  0
  5 43  1  0
  6 44  1  0
  6 45  1  0
  7 46  1  0
  7 47  1  0
 10 48  1  0
 13 49  1  0
 16 50  1  0
 16 51  1  0
 16 52  1  0
 18 53  1  0
 23 54  1  0
 24 55  1  0
 27 56  1  0
 28 57  1  0
 32 58  1  0
 32 59  1  0
 32 60  1  0
M  CHG  1   3   1
M  END
>  <UniqueID>  (28) 
27

>  <SMILES>  (28) 
CC[NH+](CC)CCOc1cc2c(cc1OC)ncc1c2n(-c2ccc(Cl)cc2)c(=O)n1C

>  <Energy>  (28) 
121.38713830381616

>  <Genealogy>  (28) 
CC[NH+](CC)CCOc1cc2c(cc1OC)ncc1c2n(-c2ccc(Cl)cc2)c(=O)n1C (protonated)
CC[NH+](CC)CCOc1cc2c(cc1OC)ncc1c2n(-c2ccc(Cl)cc2)c(=O)n1C (3D coordinates assigned)
CC[NH+](CC)CCOc1cc2c(cc1OC)ncc1c2n(-c2ccc(Cl)cc2)c(=O)n1C (optimized conformer: 121.38713830381616 kcal/mol)

>  <smiles>  (28) 
CCN(CC)CCOc1cc2c(cc1OC)ncc1c2n(-c2ccc(Cl)cc2)c(=O)n1C

>  <score_type>  (28) 
oracle

>  <origin>  (28) 
adg

>  <m_score__min__energy>  (28) 
-5.21

>  <m_primary>  (28) 
energy

$$$$
28:0
     RDKit          3D

 42 44  0  0  0  0  0  0  0  0999 V2000
   55.9810   23.9930   44.1400 C   0  0  0  0  0  0  0  0  0  0  0  0
   55.8250   23.3920   45.5280 C   0  0  0  0  0  0  0  0  0  0  0  0
   55.4160   24.4270   46.4660 N   0  0  0  0  0  0  0  0  0  0  0  0
   55.8980   25.7720   46.4010 C   0  0  0  0  0  0  0  0  0  0  0  0
   55.1530   26.7000   45.9860 O   0  0  0  0  0  0  0  0  0  0  0  0
   57.3180   26.0650   46.7720 C   0  0  0  0  0  0  0  0  0  0  0  0
   58.3440   26.3270   45.2820 S   0  0  0  0  0  0  0  0  0  0  0  0
   58.2260   28.1140   45.3300 C   0  0  0  0  0  0  0  0  0  0  0  0
   57.1080   28.7380   44.8580 N   0  0  0  0  0  0  0  0  0  0  0  0
   56.9620   30.0910   44.9280 C   0  0  0  0  0  0  0  0  0  0  0  0
   55.9060   30.6250   44.4990 O   0  0  0  0  0  0  0  0  0  0  0  0
   57.9930   30.8560   45.4950 C   0  0  0  0  0  0  0  0  0  0  0  0
   58.0690   32.2520   45.6960 C   0  0  0  0  0  0  0  0  0  0  0  0
   57.0080   33.2240   45.2540 C   0  0  0  0  0  0  0  0  0  0  0  0
   59.2570   32.6270   46.3550 C   0  0  0  0  0  0  0  0  0  0  0  0
   59.6310   33.9770   46.8210 C   0  0  0  0  0  0  0  0  0  0  0  0
   58.7400   34.7540   47.2560 O   0  0  0  0  0  0  0  0  0  0  0  0
   61.0000   34.3950   46.8880 N   0  0  0  0  0  0  0  0  0  0  0  0
   61.9960   33.8840   47.7860 C   0  0  0  0  0  0  0  0  0  0  0  0
   61.8190   34.0620   49.1650 C   0  0  0  0  0  0  0  0  0  0  0  0
   62.7800   33.5920   50.0660 C   0  0  0  0  0  0  0  0  0  0  0  0
   63.9320   32.9560   49.5940 C   0  0  0  0  0  0  0  0  0  0  0  0
   64.1270   32.7980   48.2190 C   0  0  0  0  0  0  0  0  0  0  0  0
   63.1680   33.2660   47.3160 C   0  0  0  0  0  0  0  0  0  0  0  0
   60.1990   31.2480   46.6470 S   0  0  0  0  0  0  0  0  0  0  0  0
   59.1100   30.1850   45.9590 C   0  0  0  0  0  0  0  0  0  0  0  0
   59.2360   28.8410   45.8840 N   0  0  0  0  0  0  0  0  0  0  0  0
   56.2565   25.0542   44.2288 H   0  0  0  0  0  0  0  0  0  0  0  0
   56.7690   23.4541   43.5935 H   0  0  0  0  0  0  0  0  0  0  0  0
   55.0304   23.9054   43.5935 H   0  0  0  0  0  0  0  0  0  0  0  0
   55.0614   22.6007   45.5004 H   0  0  0  0  0  0  0  0  0  0  0  0
   56.7862   22.9657   45.8512 H   0  0  0  0  0  0  0  0  0  0  0  0
   57.3476   26.9724   47.3932 H   0  0  0  0  0  0  0  0  0  0  0  0
   57.7198   25.2045   47.3271 H   0  0  0  0  0  0  0  0  0  0  0  0
   56.5250   33.6665   46.1377 H   0  0  0  0  0  0  0  0  0  0  0  0
   57.4685   34.0202   44.6506 H   0  0  0  0  0  0  0  0  0  0  0  0
   56.2551   32.6957   44.6506 H   0  0  0  0  0  0  0  0  0  0  0  0
   60.9204   34.5736   49.5402 H   0  0  0  0  0  0  0  0  0  0  0  0
   62.6291   33.7230   51.1477 H   0  0  0  0  0  0  0  0  0  0  0  0
   64.6839   32.5805   50.3037 H   0  0  0  0  0  0  0  0  0  0  0  0
   65.0368   32.3044   47.8467 H   0  0  0  0  0  0  0  0  0  0  0  0
   63.3309   33.1504   46.2343 H   0  0  0  0  0  0  0  0  0  0  0  0
  1  2  1  0
  2  3  1  0
  3  4  1  0
  4  5  2  0
  4  6  1  0
  6  7  1  0
  7  8  1  0
  8  9  2  0
  9 10  1  0
 10 11  2  0
 10 12  1  0
 12 13  1  0
 13 14  1  0
 13 15  2  0
 15 16  1  0
 16 17  2  0
 16 18  1  0
 18 19  1  0
 19 20  2  0
 20 21  1  0
 21 22  2  0
 22 23  1  0
 23 24  2  0
 15 25  1  0
 25 26  1  0
 26 27  1  0
 27  8  1  0
 26 12  2  0
 24 19  1  0
  1 28  1  0
  1 29  1  0
  1 30  1  0
  2 31  1  0
  2 32  1  0
  6 33  1  0
  6 34  1  0
 14 35  1  0
 14 36  1  0
 14 37  1  0
 20 38  1  0
 21 39  1  0
 22 40  1  0
 23 41  1  0
 24 42  1  0
M  CHG  3   3  -1  18  -1  27  -1
M  END
>  <UniqueID>  (29) 
28

>  <SMILES>  (29) 
CC[N-]C(=O)CSc1nc(=O)c2c(C)c(C(=O)[N-]c3ccccc3)sc2[n-]1

>  <Energy>  (29) 
74.02652024963265

>  <Genealogy>  (29) 
CC[N-]C(=O)CSc1nc(=O)c2c(C)c(C(=O)[N-]c3ccccc3)sc2[n-]1 (protonated)
CC[N-]C(=O)CSc1nc(=O)c2c(C)c(C(=O)[N-]c3ccccc3)sc2[n-]1 (3D coordinates assigned)
CC[N-]C(=O)CSc1nc(=O)c2c(C)c(C(=O)[N-]c3ccccc3)sc2[n-]1 (optimized conformer: 74.02652024963265 kcal/mol)

>  <smiles>  (29) 
CCNC(=O)CSc1nc(=O)c2c(C)c(C(=O)Nc3ccccc3)sc2[nH]1

>  <score_type>  (29) 
oracle

>  <origin>  (29) 
adg

>  <m_score__min__energy>  (29) 
-12.73

>  <m_primary>  (29) 
energy

$$$$
29:0
     RDKit          3D

 61 65  0  0  0  0  0  0  0  0999 V2000
   60.2160   29.2430   48.9050 C   0  0  0  0  0  0  0  0  0  0  0  0
   59.7050   29.6460   47.5620 C   0  0  0  0  0  0  0  0  0  0  0  0
   60.0740   30.7610   46.8330 C   0  0  0  0  0  0  0  0  0  0  0  0
   59.4400   30.7210   45.6470 N   0  0  0  0  0  0  0  0  0  0  0  0
   58.7080   29.6190   45.5940 N   0  0  0  0  0  0  0  0  0  0  0  0
   57.8530   29.2480   44.4670 C   0  0  0  0  0  0  0  0  0  0  0  0
   56.4580   29.7640   44.6480 C   0  0  0  0  0  0  0  0  0  0  0  0
   55.5160   28.9680   44.9180 O   0  0  0  0  0  0  0  0  0  0  0  0
   56.2260   31.1780   44.5530 N   0  0  0  0  0  0  0  0  0  0  0  0
   57.1210   32.1120   44.6590 C   0  0  0  0  0  0  0  0  0  0  0  0
   58.0210   32.4200   43.6970 N   0  0  0  0  0  0  0  0  0  0  0  0
   58.8230   33.4510   44.0750 C   0  0  0  0  0  0  0  0  0  0  0  0
   58.5450   33.9680   45.3370 C   0  0  0  0  0  0  0  0  0  0  0  0
   59.2900   35.0750   46.0140 C   0  0  0  0  0  0  0  0  0  0  0  0
   60.3350   34.5120   46.9370 C   0  0  0  0  0  0  0  0  0  0  0  0
   61.4910   33.9110   46.4160 C   0  0  0  0  0  0  0  0  0  0  0  0
   62.4530   33.3730   47.2740 C   0  0  0  0  0  0  0  0  0  0  0  0
   62.2670   33.4090   48.6670 C   0  0  0  0  0  0  0  0  0  0  0  0
   63.2940   32.8560   49.5800 C   0  0  0  0  0  0  0  0  0  0  0  0
   64.4880   33.2530   49.4850 O   0  0  0  0  0  0  0  0  0  0  0  0
   62.9590   31.8520   50.5540 N   0  0  0  0  0  0  0  0  0  0  0  0
   61.9030   32.1110   51.5370 C   0  0  0  0  0  0  0  0  0  0  0  0
   61.2050   30.8020   51.9170 C   0  0  0  0  0  0  0  0  0  0  0  0
   62.2020   29.7840   52.3120 N   0  0  0  0  0  0  0  0  0  0  0  0
   61.6820   28.5150   52.8930 C   0  0  0  0  0  0  0  0  0  0  0  0
   62.1650   27.2360   52.2140 C   0  0  0  0  0  0  0  0  0  0  0  0
   60.7070   27.6500   52.0890 C   0  0  0  0  0  0  0  0  0  0  0  0
   63.1670   29.5120   51.2300 C   0  0  0  0  0  0  0  0  0  0  0  0
   63.9190   30.7890   50.8580 C   0  0  0  0  0  0  0  0  0  0  0  0
   61.1060   34.0080   49.1840 C   0  0  0  0  0  0  0  0  0  0  0  0
   60.1440   34.5470   48.3250 C   0  0  0  0  0  0  0  0  0  0  0  0
   57.2780   33.0910   46.0160 S   0  0  0  0  0  0  0  0  0  0  0  0
   58.8440   28.9350   46.7470 C   0  0  0  0  0  0  0  0  0  0  0  0
   59.6087   29.7219   49.6872 H   0  0  0  0  0  0  0  0  0  0  0  0
   60.1518   28.1498   49.0088 H   0  0  0  0  0  0  0  0  0  0  0  0
   61.2641   29.5602   49.0088 H   0  0  0  0  0  0  0  0  0  0  0  0
   60.7678   31.5471   47.1658 H   0  0  0  0  0  0  0  0  0  0  0  0
   59.5170   31.4270   44.8820 H   0  0  0  0  0  0  0  0  0  0  0  0
   58.2744   29.6712   43.5432 H   0  0  0  0  0  0  0  0  0  0  0  0
   57.8120   28.1503   44.4093 H   0  0  0  0  0  0  0  0  0  0  0  0
   59.6265   33.8446   43.4351 H   0  0  0  0  0  0  0  0  0  0  0  0
   59.7776   35.7026   45.2535 H   0  0  0  0  0  0  0  0  0  0  0  0
   58.5809   35.6772   46.6010 H   0  0  0  0  0  0  0  0  0  0  0  0
   61.6403   33.8633   45.3272 H   0  0  0  0  0  0  0  0  0  0  0  0
   63.3631   32.9176   46.8565 H   0  0  0  0  0  0  0  0  0  0  0  0
   62.3465   32.5614   52.4372 H   0  0  0  0  0  0  0  0  0  0  0  0
   61.1645   32.7988   51.0992 H   0  0  0  0  0  0  0  0  0  0  0  0
   60.5217   30.9864   52.7591 H   0  0  0  0  0  0  0  0  0  0  0  0
   60.6413   30.4320   51.0479 H   0  0  0  0  0  0  0  0  0  0  0  0
   61.6603   28.9278   53.9124 H   0  0  0  0  0  0  0  0  0  0  0  0
   62.8297   27.2959   51.3396 H   0  0  0  0  0  0  0  0  0  0  0  0
   62.6877   26.3286   52.5508 H   0  0  0  0  0  0  0  0  0  0  0  0
   60.3183   28.0104   51.1251 H   0  0  0  0  0  0  0  0  0  0  0  0
   59.7409   27.1676   52.2983 H   0  0  0  0  0  0  0  0  0  0  0  0
   63.8869   28.7522   51.5682 H   0  0  0  0  0  0  0  0  0  0  0  0
   62.6217   29.1473   50.3470 H   0  0  0  0  0  0  0  0  0  0  0  0
   64.5540   31.0990   51.7011 H   0  0  0  0  0  0  0  0  0  0  0  0
   64.5470   30.5997   49.9750 H   0  0  0  0  0  0  0  0  0  0  0  0
   60.9530   34.0531   50.2724 H   0  0  0  0  0  0  0  0  0  0  0  0
   59.2323   35.0010   48.7406 H   0  0  0  0  0  0  0  0  0  0  0  0
   58.3566   27.9807   46.9955 H   0  0  0  0  0  0  0  0  0  0  0  0
  1  2  1  0
  2  3  1  0
  3  4  2  0
  4  5  1  0
  5  6  1  0
  6  7  1  0
  7  8  2  0
  7  9  1  0
  9 10  2  3
 10 11  1  0
 11 12  1  0
 12 13  2  0
 13 14  1  0
 14 15  1  0
 15 16  2  0
 16 17  1  0
 17 18  2  0
 18 19  1  0
 19 20  2  0
 19 21  1  0
 21 22  1  0
 22 23  1  0
 23 24  1  0
 24 25  1  0
 25 26  1  0
 26 27  1  0
 24 28  1  0
 28 29  1  0
 18 30  1  0
 30 31  2  0
 13 32  1  0
  5 33  1  0
 33  2  2  0
 32 10  1  0
 31 15  1  0
 29 21  1  0
 27 25  1  0
  1 34  1  0
  1 35  1  0
  1 36  1  0
  3 37  1  0
  4 38  1  0
  6 39  1  0
  6 40  1  0
 12 41  1  0
 14 42  1  0
 14 43  1  0
 16 44  1  0
 17 45  1  0
 22 46  1  0
 22 47  1  0
 23 48  1  0
 23 49  1  0
 25 50  1  0
 26 51  1  0
 26 52  1  0
 27 53  1  0
 27 54  1  0
 28 55  1  0
 28 56  1  0
 29 57  1  0
 29 58  1  0
 30 59  1  0
 31 60  1  0
 33 61  1  0
M  CHG  2   4   1  11  -1
M  END
>  <UniqueID>  (30) 
29

>  <SMILES>  (30) 
Cc1c[nH+]n(CC(=O)N=c2[n-]cc(Cc3ccc(C(=O)N4CCN(C5CC5)CC4)cc3)s2)c1

>  <Energy>  (30) 
401.5286055494451

>  <Genealogy>  (30) 
Cc1c[nH+]n(CC(=O)N=c2[n-]cc(Cc3ccc(C(=O)N4CCN(C5CC5)CC4)cc3)s2)c1 (protonated)
Cc1c[nH+]n(CC(=O)N=c2[n-]cc(Cc3ccc(C(=O)N4CCN(C5CC5)CC4)cc3)s2)c1 (3D coordinates assigned)
Cc1c[nH+]n(CC(=O)N=c2[n-]cc(Cc3ccc(C(=O)N4CCN(C5CC5)CC4)cc3)s2)c1 (nonaromatic ring conformer: 401.5286055494451 kcal/mol)

>  <smiles>  (30) 
Cc1cnn(CC(=O)N=c2[nH]cc(Cc3ccc(C(=O)N4CCN(C5CC5)CC4)cc3)s2)c1

>  <score_type>  (30) 
oracle

>  <origin>  (30) 
adg

>  <m_score__min__energy>  (30) 
-10.43

>  <m_primary>  (30) 
energy

$$$$
30:0
     RDKit          3D

 52 55  0  0  0  0  0  0  0  0999 V2000
   56.2280   29.4910   42.9700 C   0  0  0  0  0  0  0  0  0  0  0  0
   57.1560   29.7020   44.0770 N   0  0  0  0  0  0  0  0  0  0  0  0
   57.5760   30.8880   44.4910 N   0  0  0  0  0  0  0  0  0  0  0  0
   58.4660   30.7120   45.4940 C   0  0  0  0  0  0  0  0  0  0  0  0
   59.1850   31.8370   46.2030 C   0  0  0  0  0  0  0  0  0  0  0  0
   58.3740   33.0660   46.3910 N   0  0  0  0  0  0  0  0  0  0  0  0
   58.8990   33.9740   47.4190 C   0  0  0  0  0  0  0  0  0  0  0  0
   59.6310   35.1100   46.7150 C   0  0  0  0  0  0  0  0  0  0  0  0
   59.2480   35.0050   45.2490 C   0  0  0  0  0  0  0  0  0  0  0  0
   58.2360   33.8710   45.1730 C   0  0  0  0  0  0  0  0  0  0  0  0
   58.6310   29.3460   45.6880 C   0  0  0  0  0  0  0  0  0  0  0  0
   57.7730   28.7490   44.8020 C   0  0  0  0  0  0  0  0  0  0  0  0
   57.7230   27.2650   44.5860 C   0  0  0  0  0  0  0  0  0  0  0  0
   58.3110   26.5340   45.7370 N   0  0  0  0  0  0  0  0  0  0  0  0
   57.3750   26.4310   46.8770 C   0  0  0  0  0  0  0  0  0  0  0  0
   56.0510   25.9090   46.4170 C   0  0  0  0  0  0  0  0  0  0  0  0
   55.1790   26.7170   45.9950 O   0  0  0  0  0  0  0  0  0  0  0  0
   55.8180   24.4920   46.4070 N   0  0  0  0  0  0  0  0  0  0  0  0
   55.8460   23.6670   45.3950 C   0  0  0  0  0  0  0  0  0  0  0  0
   55.5020   24.0460   44.0800 C   0  0  0  0  0  0  0  0  0  0  0  0
   55.5440   23.0970   43.0560 C   0  0  0  0  0  0  0  0  0  0  0  0
   55.9050   21.8140   43.3270 N   0  0  0  0  0  0  0  0  0  0  0  0
   56.2270   21.4170   44.5850 C   0  0  0  0  0  0  0  0  0  0  0  0
   56.1960   22.3330   45.6380 C   0  0  0  0  0  0  0  0  0  0  0  0
   59.6210   27.1080   46.1450 C   0  0  0  0  0  0  0  0  0  0  0  0
   59.5130   28.5760   46.6210 C   0  0  0  0  0  0  0  0  0  0  0  0
   55.2281   29.2636   43.3680 H   0  0  0  0  0  0  0  0  0  0  0  0
   56.1792   30.4010   42.3539 H   0  0  0  0  0  0  0  0  0  0  0  0
   56.5775   28.6494   42.3539 H   0  0  0  0  0  0  0  0  0  0  0  0
   57.2840   31.7990   44.0720 H   0  0  0  0  0  0  0  0  0  0  0  0
   59.4950   31.4753   47.1945 H   0  0  0  0  0  0  0  0  0  0  0  0
   60.0336   32.1180   45.5620 H   0  0  0  0  0  0  0  0  0  0  0  0
   58.0700   34.3788   48.0180 H   0  0  0  0  0  0  0  0  0  0  0  0
   59.5846   33.4357   48.0900 H   0  0  0  0  0  0  0  0  0  0  0  0
   59.3152   36.0808   47.1246 H   0  0  0  0  0  0  0  0  0  0  0  0
   60.7197   35.0375   46.8547 H   0  0  0  0  0  0  0  0  0  0  0  0
   58.7974   35.9462   44.9011 H   0  0  0  0  0  0  0  0  0  0  0  0
   60.1236   34.8138   44.6113 H   0  0  0  0  0  0  0  0  0  0  0  0
   57.2176   34.2817   45.1091 H   0  0  0  0  0  0  0  0  0  0  0  0
   58.4168   33.2532   44.2810 H   0  0  0  0  0  0  0  0  0  0  0  0
   56.6747   26.9557   44.4624 H   0  0  0  0  0  0  0  0  0  0  0  0
   58.3075   27.0245   43.6857 H   0  0  0  0  0  0  0  0  0  0  0  0
   57.7935   25.7461   47.6292 H   0  0  0  0  0  0  0  0  0  0  0  0
   57.2329   27.4303   47.3143 H   0  0  0  0  0  0  0  0  0  0  0  0
   55.2027   25.0820   43.8628 H   0  0  0  0  0  0  0  0  0  0  0  0
   55.2844   23.3881   42.0275 H   0  0  0  0  0  0  0  0  0  0  0  0
   56.5128   20.3718   44.7747 H   0  0  0  0  0  0  0  0  0  0  0  0
   56.4464   22.0070   46.6583 H   0  0  0  0  0  0  0  0  0  0  0  0
   60.0292   26.5016   46.9670 H   0  0  0  0  0  0  0  0  0  0  0  0
   60.2766   27.0947   45.2618 H   0  0  0  0  0  0  0  0  0  0  0  0
   59.0843   28.6013   47.6337 H   0  0  0  0  0  0  0  0  0  0  0  0
   60.5150   29.0297   46.6323 H   0  0  0  0  0  0  0  0  0  0  0  0
  1  2  1  0
  2  3  1  0
  3  4  2  0
  4  5  1  0
  5  6  1  0
  6  7  1  0
  7  8  1  0
  8  9  1  0
  9 10  1  0
  4 11  1  0
 11 12  2  0
 12 13  1  0
 13 14  1  0
 14 15  1  0
 15 16  1  0
 16 17  2  0
 16 18  1  0
 18 19  2  3
 19 20  1  0
 20 21  2  0
 21 22  1  0
 22 23  1  0
 23 24  2  0
 14 25  1  0
 25 26  1  0
 12  2  1  0
 24 19  1  0
 10  6  1  0
 26 11  1  0
  1 27  1  0
  1 28  1  0
  1 29  1  0
  3 30  1  0
  5 31  1  0
  5 32  1  0
  7 33  1  0
  7 34  1  0
  8 35  1  0
  8 36  1  0
  9 37  1  0
  9 38  1  0
 10 39  1  0
 10 40  1  0
 13 41  1  0
 13 42  1  0
 15 43  1  0
 15 44  1  0
 20 45  1  0
 21 46  1  0
 23 47  1  0
 24 48  1  0
 25 49  1  0
 25 50  1  0
 26 51  1  0
 26 52  1  0
M  CHG  2   3   1  22  -1
M  END
>  <UniqueID>  (31) 
30

>  <SMILES>  (31) 
Cn1[nH+]c(CN2CCCC2)c2c1CN(CC(=O)N=c1cc[n-]cc1)CC2

>  <Energy>  (31) 
102.36242766452665

>  <Genealogy>  (31) 
Cn1[nH+]c(CN2CCCC2)c2c1CN(CC(=O)N=c1cc[n-]cc1)CC2 (protonated)
Cn1[nH+]c(CN2CCCC2)c2c1CN(CC(=O)N=c1cc[n-]cc1)CC2 (3D coordinates assigned)
Cn1[nH+]c(CN2CCCC2)c2c1CN(CC(=O)N=c1cc[n-]cc1)CC2 (nonaromatic ring conformer: 102.36242766452665 kcal/mol)

>  <smiles>  (31) 
Cn1nc(CN2CCCC2)c2c1CN(CC(=O)N=c1cc[nH]cc1)CC2

>  <score_type>  (31) 
oracle

>  <origin>  (31) 
adg

>  <m_score__min__energy>  (31) 
-9.3399999999999999

>  <m_primary>  (31) 
energy

$$$$
31:0
     RDKit          3D

 33 34  0  0  0  0  0  0  0  0999 V2000
   59.8826   34.9899   44.3443 H   0  0  0  0  0  0  0  0  0  0  0  0
   59.2010   34.7040   45.1590 C   0  0  0  0  0  0  0  0  0  0  0  0
   57.9260   34.0520   44.8200 C   0  0  0  0  0  0  0  0  0  0  0  0
   56.8320   34.5320   45.2260 O   0  0  0  0  0  0  0  0  0  0  0  0
   57.9520   32.8320   44.0680 N   0  0  0  0  0  0  0  0  0  0  0  0
   57.8270   31.5010   44.5910 C   0  0  0  0  0  0  0  0  0  0  0  0
   58.8940   30.8440   45.2250 C   0  0  0  0  0  0  0  0  0  0  0  0
   59.8696   31.3442   45.3141 H   0  0  0  0  0  0  0  0  0  0  0  0
   58.7220   29.5580   45.7430 C   0  0  0  0  0  0  0  0  0  0  0  0
   59.5699   29.0449   46.2203 H   0  0  0  0  0  0  0  0  0  0  0  0
   57.4760   28.9140   45.6600 C   0  0  0  0  0  0  0  0  0  0  0  0
   57.3260   27.5530   46.2270 C   0  0  0  0  0  0  0  0  0  0  0  0
   57.9870   27.2360   47.2530 O   0  0  0  0  0  0  0  0  0  0  0  0
   56.4130   26.6090   45.6490 N   0  0  0  0  0  0  0  0  0  0  0  0
   55.7350   26.9220   44.9170 H   0  0  0  0  0  0  0  0  0  0  0  0
   56.3530   25.2260   46.1040 C   0  0  0  0  0  0  0  0  0  0  0  0
   56.3519   25.2015   47.2037 H   0  0  0  0  0  0  0  0  0  0  0  0
   55.4336   24.7552   45.7259 H   0  0  0  0  0  0  0  0  0  0  0  0
   57.2282   24.6773   45.7259 H   0  0  0  0  0  0  0  0  0  0  0  0
   56.4060   29.5750   45.0230 C   0  0  0  0  0  0  0  0  0  0  0  0
   55.1720   28.9530   44.8660 O   0  0  0  0  0  0  0  0  0  0  0  0
   56.5830   30.8650   44.5120 C   0  0  0  0  0  0  0  0  0  0  0  0
   55.7349   31.3853   44.0429 H   0  0  0  0  0  0  0  0  0  0  0  0
   59.5620   34.9620   46.4210 C   0  0  0  0  0  0  0  0  0  0  0  0
   58.9640   35.6674   47.0166 H   0  0  0  0  0  0  0  0  0  0  0  0
   60.7380   34.3260   47.0310 C   0  0  0  0  0  0  0  0  0  0  0  0
   61.1110   34.4860   48.2820 O   0  0  0  0  0  0  0  0  0  0  0  0
   62.1960   33.7740   48.4800 C   0  0  0  0  0  0  0  0  0  0  0  0
   63.1240   33.6760   50.1430 Br  0  0  0  0  0  0  0  0  0  0  0  0
   62.5550   33.1200   47.3210 C   0  0  0  0  0  0  0  0  0  0  0  0
   63.4167   32.4519   47.1759 H   0  0  0  0  0  0  0  0  0  0  0  0
   61.6110   33.4760   46.3810 C   0  0  0  0  0  0  0  0  0  0  0  0
   61.5632   33.1505   45.3313 H   0  0  0  0  0  0  0  0  0  0  0  0
  1  2  1  0
  2  3  1  0
  3  4  2  0
  3  5  1  0
  5  6  1  0
  6  7  2  0
  7  8  1  0
  7  9  1  0
  9 10  1  0
  9 11  2  0
 11 12  1  0
 12 13  2  0
 12 14  1  0
 14 15  1  0
 14 16  1  0
 16 17  1  0
 16 18  1  0
 16 19  1  0
 11 20  1  0
 20 21  1  0
 20 22  2  0
 22 23  1  0
  2 24  2  0
 24 25  1  0
 24 26  1  0
 26 27  1  0
 27 28  1  0
 28 29  1  0
 28 30  2  0
 30 31  1  0
 30 32  1  0
 32 33  1  0
 22  6  1  0
 32 26  2  0
M  CHG  2   5  -1  21  -1
M  END
>  <UniqueID>  (32) 
31

>  <SMILES>  (32) 
CNC(=O)c1ccc([N-]C(=O)/C=C/c2ccc(Br)o2)cc1[O-]

>  <Energy>  (32) 
62.030329900397376

>  <Genealogy>  (32) 
CNC(=O)c1ccc([N-]C(=O)C=Cc2ccc(Br)o2)cc1[O-] (protonated)
CNC(=O)c1ccc([N-]C(=O)/C=C/c2ccc(Br)o2)cc1[O-] (cis-trans isomerization)
CNC(=O)c1ccc([N-]C(=O)/C=C/c2ccc(Br)o2)cc1[O-] (3D coordinates assigned)
CNC(=O)c1ccc([N-]C(=O)/C=C/c2ccc(Br)o2)cc1[O-] (optimized conformer: 62.030329900397376 kcal/mol)

>  <smiles>  (32) 
CNC(=O)c1ccc(NC(=O)C=Cc2ccc(Br)o2)cc1O

>  <score_type>  (32) 
oracle

>  <origin>  (32) 
adg

>  <m_score__min__energy>  (32) 
-12.199999999999999

>  <m_primary>  (32) 
energy

$$$$
32:0
     RDKit          3D

 57 60  0  0  0  0  0  0  0  0999 V2000
   53.6530   28.2660   53.1580 C   0  0  0  0  0  0  0  0  0  0  0  0
   54.5110   29.2860   52.9990 C   0  0  0  0  0  0  0  0  0  0  0  0
   54.1990   30.5740   52.5360 C   0  0  0  0  0  0  0  0  0  0  0  0
   53.0150   31.1940   52.3910 C   0  0  0  0  0  0  0  0  0  0  0  0
   52.2630   31.3240   51.1300 C   0  0  0  0  0  0  0  0  0  0  0  0
   52.2390   30.3980   50.1540 N   0  0  0  0  0  0  0  0  0  0  0  0
   51.2990   30.8650   49.3040 C   0  0  0  0  0  0  0  0  0  0  0  0
   50.9960   30.2680   48.2380 O   0  0  0  0  0  0  0  0  0  0  0  0
   50.7090   32.0150   49.6890 N   0  0  0  0  0  0  0  0  0  0  0  0
   51.3250   32.2820   50.8530 C   0  0  0  0  0  0  0  0  0  0  0  0
   51.0200   33.3770   51.6520 O   0  0  0  0  0  0  0  0  0  0  0  0
   55.4020   31.1860   52.2390 C   0  0  0  0  0  0  0  0  0  0  0  0
   56.3910   30.3030   52.6050 C   0  0  0  0  0  0  0  0  0  0  0  0
   57.8340   30.5580   52.4240 C   0  0  0  0  0  0  0  0  0  0  0  0
   58.5500   30.6360   53.4600 O   0  0  0  0  0  0  0  0  0  0  0  0
   58.4440   30.7600   51.1230 N   0  0  0  0  0  0  0  0  0  0  0  0
   59.9190   30.8060   51.1720 C   0  0  0  0  0  0  0  0  0  0  0  0
   60.5270   30.8870   49.7590 C   0  0  0  0  0  0  0  0  0  0  0  0
   59.6320   31.5140   48.7550 N   0  0  0  0  0  0  0  0  0  0  0  0
   58.8940   30.5490   47.9070 C   0  0  0  0  0  0  0  0  0  0  0  0
   59.0050   30.9300   46.4550 C   0  0  0  0  0  0  0  0  0  0  0  0
   59.9340   30.4220   45.7670 O   0  0  0  0  0  0  0  0  0  0  0  0
   58.0410   31.7960   45.8170 N   0  0  0  0  0  0  0  0  0  0  0  0
   57.4560   31.3800   44.5360 C   0  0  0  0  0  0  0  0  0  0  0  0
   57.7740   33.1510   46.3180 C   0  0  0  0  0  0  0  0  0  0  0  0
   57.4590   34.1560   45.2170 C   0  0  0  0  0  0  0  0  0  0  0  0
   58.8010   34.2070   45.9220 C   0  0  0  0  0  0  0  0  0  0  0  0
   58.7580   32.5370   49.3490 C   0  0  0  0  0  0  0  0  0  0  0  0
   57.8880   31.9850   50.5020 C   0  0  0  0  0  0  0  0  0  0  0  0
   55.8620   29.1600   53.0970 N   0  0  0  0  0  0  0  0  0  0  0  0
   56.6410   27.9860   53.5050 C   0  0  0  0  0  0  0  0  0  0  0  0
   54.0145   27.2962   53.5304 H   0  0  0  0  0  0  0  0  0  0  0  0
   52.5884   28.4000   52.9159 H   0  0  0  0  0  0  0  0  0  0  0  0
   52.5691   31.6429   53.2908 H   0  0  0  0  0  0  0  0  0  0  0  0
   55.5412   32.1835   51.7967 H   0  0  0  0  0  0  0  0  0  0  0  0
   58.1740   29.9280   50.5460 H   0  0  0  0  0  0  0  0  0  0  0  0
   60.2304   31.6907   51.7467 H   0  0  0  0  0  0  0  0  0  0  0  0
   60.2780   29.8829   51.6505 H   0  0  0  0  0  0  0  0  0  0  0  0
   61.4535   31.4774   49.8138 H   0  0  0  0  0  0  0  0  0  0  0  0
   60.7043   29.8532   49.4277 H   0  0  0  0  0  0  0  0  0  0  0  0
   59.3168   29.5437   48.0507 H   0  0  0  0  0  0  0  0  0  0  0  0
   57.8330   30.5595   48.1972 H   0  0  0  0  0  0  0  0  0  0  0  0
   56.5726   30.7518   44.7231 H   0  0  0  0  0  0  0  0  0  0  0  0
   57.1581   32.2702   43.9626 H   0  0  0  0  0  0  0  0  0  0  0  0
   58.1991   30.8063   43.9626 H   0  0  0  0  0  0  0  0  0  0  0  0
   57.3094   32.8431   47.2663 H   0  0  0  0  0  0  0  0  0  0  0  0
   57.4007   33.8236   44.1700 H   0  0  0  0  0  0  0  0  0  0  0  0
   56.6503   34.8787   45.0335 H   0  0  0  0  0  0  0  0  0  0  0  0
   59.7150   33.9112   45.3862 H   0  0  0  0  0  0  0  0  0  0  0  0
   59.3669   34.9813   46.4608 H   0  0  0  0  0  0  0  0  0  0  0  0
   59.3855   33.3511   49.7408 H   0  0  0  0  0  0  0  0  0  0  0  0
   58.0775   32.8901   48.5602 H   0  0  0  0  0  0  0  0  0  0  0  0
   57.8026   32.7610   51.2769 H   0  0  0  0  0  0  0  0  0  0  0  0
   56.9112   31.7174   50.0728 H   0  0  0  0  0  0  0  0  0  0  0  0
   56.6762   27.9329   54.6032 H   0  0  0  0  0  0  0  0  0  0  0  0
   56.1671   27.0758   53.1089 H   0  0  0  0  0  0  0  0  0  0  0  0
   57.6639   28.0689   53.1089 H   0  0  0  0  0  0  0  0  0  0  0  0
  1  2  2  0
  2  3  1  0
  3  4  2  3
  4  5  1  0
  5  6  1  0
  6  7  1  0
  7  8  2  0
  7  9  1  0
  9 10  1  0
 10 11  1  0
  3 12  1  0
 12 13  2  0
 13 14  1  0
 14 15  2  0
 14 16  1  0
 16 17  1  0
 17 18  1  0
 18 19  1  0
 19 20  1  0
 20 21  1  0
 21 22  2  0
 21 23  1  0
 23 24  1  0
 23 25  1  0
 25 26  1  0
 26 27  1  0
 19 28  1  0
 28 29  1  0
 13 30  1  0
 30 31  1  0
 30  2  1  0
 10  5  2  0
 29 16  1  0
 27 25  1  0
  1 32  1  0
  1 33  1  0
  4 34  1  0
 12 35  1  0
 16 36  1  0
 17 37  1  0
 17 38  1  0
 18 39  1  0
 18 40  1  0
 20 41  1  0
 20 42  1  0
 24 43  1  0
 24 44  1  0
 24 45  1  0
 25 46  1  0
 26 47  1  0
 26 48  1  0
 27 49  1  0
 27 50  1  0
 28 51  1  0
 28 52  1  0
 29 53  1  0
 29 54  1  0
 31 55  1  0
 31 56  1  0
 31 57  1  0
M  CHG  4   6  -1   9  -1  11  -1  16   1
M  END
>  <UniqueID>  (33) 
32

>  <SMILES>  (33) 
C=c1c(=Cc2[n-]c(=O)[n-]c2[O-])cc(C(=O)[NH+]2CCN(CC(=O)N(C)C3CC3)CC2)n1C

>  <Energy>  (33) 
417.06150797637537

>  <Genealogy>  (33) 
C=c1c(=Cc2[n-]c(=O)[n-]c2[O-])cc(C(=O)[NH+]2CCN(CC(=O)N(C)C3CC3)CC2)n1C (protonated)
C=c1c(=Cc2[n-]c(=O)[n-]c2[O-])cc(C(=O)[NH+]2CCN(CC(=O)N(C)C3CC3)CC2)n1C (3D coordinates assigned)
C=c1c(=Cc2[n-]c(=O)[n-]c2[O-])cc(C(=O)[NH+]2CCN(CC(=O)N(C)C3CC3)CC2)n1C (nonaromatic ring conformer: 417.06150797637537 kcal/mol)

>  <smiles>  (33) 
C=c1c(=Cc2[nH]c(=O)[nH]c2O)cc(C(=O)N2CCN(CC(=O)N(C)C3CC3)CC2)n1C

>  <score_type>  (33) 
oracle

>  <origin>  (33) 
adg

>  <m_score__min__energy>  (33) 
-16.68

>  <m_primary>  (33) 
energy

$$$$
33:0
     RDKit          3D

 50 53  0  0  0  0  0  0  0  0999 V2000
   59.1020   29.5370   47.9480 O   0  0  0  0  0  0  0  0  0  0  0  0
   58.3740   29.0580   47.0380 C   0  0  0  0  0  0  0  0  0  0  0  0
   57.3930   29.9180   46.4360 N   0  0  0  0  0  0  0  0  0  0  0  0
   57.1420   30.1420   45.0380 C   0  0  0  0  0  0  0  0  0  0  0  0
   57.0310   29.0250   44.2020 C   0  0  0  0  0  0  0  0  0  0  0  0
   56.8060   29.1850   42.8350 C   0  0  0  0  0  0  0  0  0  0  0  0
   56.6780   30.4700   42.3130 C   0  0  0  0  0  0  0  0  0  0  0  0
   56.7500   31.5470   43.1360 N   0  0  0  0  0  0  0  0  0  0  0  0
   56.9570   31.4280   44.4800 C   0  0  0  0  0  0  0  0  0  0  0  0
   56.9970   32.4880   45.2350 N   0  0  0  0  0  0  0  0  0  0  0  0
   58.1240   32.9080   46.0200 C   0  0  0  0  0  0  0  0  0  0  0  0
   58.1150   32.6740   47.4020 C   0  0  0  0  0  0  0  0  0  0  0  0
   59.1960   33.0680   48.1940 C   0  0  0  0  0  0  0  0  0  0  0  0
   60.2860   33.7230   47.6150 C   0  0  0  0  0  0  0  0  0  0  0  0
   61.6430   34.2160   48.6100 Cl  0  0  0  0  0  0  0  0  0  0  0  0
   60.2890   33.9940   46.2420 C   0  0  0  0  0  0  0  0  0  0  0  0
   59.2100   33.5980   45.4440 C   0  0  0  0  0  0  0  0  0  0  0  0
   59.2070   33.9190   44.1270 F   0  0  0  0  0  0  0  0  0  0  0  0
   58.5290   27.6280   46.6680 C   0  0  0  0  0  0  0  0  0  0  0  0
   57.4130   26.7900   46.5000 C   0  0  0  0  0  0  0  0  0  0  0  0
   57.5770   25.4670   46.0850 C   0  0  0  0  0  0  0  0  0  0  0  0
   58.8600   24.9440   45.8630 C   0  0  0  0  0  0  0  0  0  0  0  0
   59.0150   23.5550   45.3790 C   0  0  0  0  0  0  0  0  0  0  0  0
   60.0870   22.9320   45.6120 O   0  0  0  0  0  0  0  0  0  0  0  0
   57.9520   22.9010   44.6620 N   0  0  0  0  0  0  0  0  0  0  0  0
   57.8080   21.4460   44.7520 C   0  0  0  0  0  0  0  0  0  0  0  0
   56.3570   21.0530   44.4540 C   0  0  0  0  0  0  0  0  0  0  0  0
   55.9260   21.6100   43.2260 O   0  0  0  0  0  0  0  0  0  0  0  0
   55.9030   23.0220   43.3230 C   0  0  0  0  0  0  0  0  0  0  0  0
   57.3160   23.5760   43.5260 C   0  0  0  0  0  0  0  0  0  0  0  0
   59.9820   25.7540   46.1030 C   0  0  0  0  0  0  0  0  0  0  0  0
   61.2370   25.2800   45.9030 F   0  0  0  0  0  0  0  0  0  0  0  0
   59.8140   27.0870   46.4960 C   0  0  0  0  0  0  0  0  0  0  0  0
   57.1218   28.0141   44.6260 H   0  0  0  0  0  0  0  0  0  0  0  0
   56.7305   28.3069   42.1769 H   0  0  0  0  0  0  0  0  0  0  0  0
   56.5186   30.6120   41.2339 H   0  0  0  0  0  0  0  0  0  0  0  0
   57.2506   32.1766   47.8661 H   0  0  0  0  0  0  0  0  0  0  0  0
   59.1892   32.8624   49.2746 H   0  0  0  0  0  0  0  0  0  0  0  0
   61.1422   34.5199   45.7888 H   0  0  0  0  0  0  0  0  0  0  0  0
   56.4032   27.1793   46.6969 H   0  0  0  0  0  0  0  0  0  0  0  0
   56.6937   24.8298   45.9309 H   0  0  0  0  0  0  0  0  0  0  0  0
   58.4747   20.9663   44.0203 H   0  0  0  0  0  0  0  0  0  0  0  0
   58.0749   21.1148   45.7664 H   0  0  0  0  0  0  0  0  0  0  0  0
   56.2849   19.9568   44.3975 H   0  0  0  0  0  0  0  0  0  0  0  0
   55.7153   21.4386   45.2599 H   0  0  0  0  0  0  0  0  0  0  0  0
   55.4812   23.4403   42.3972 H   0  0  0  0  0  0  0  0  0  0  0  0
   55.2852   23.3061   44.1877 H   0  0  0  0  0  0  0  0  0  0  0  0
   57.9111   23.4023   42.6173 H   0  0  0  0  0  0  0  0  0  0  0  0
   57.2588   24.6556   43.7287 H   0  0  0  0  0  0  0  0  0  0  0  0
   60.6978   27.7178   46.6721 H   0  0  0  0  0  0  0  0  0  0  0  0
  1  2  2  0
  2  3  1  0
  3  4  1  0
  4  5  2  0
  5  6  1  0
  6  7  2  0
  7  8  1  0
  8  9  1  0
  9 10  2  3
 10 11  1  0
 11 12  2  0
 12 13  1  0
 13 14  2  0
 14 15  1  0
 14 16  1  0
 16 17  2  0
 17 18  1  0
  2 19  1  0
 19 20  2  0
 20 21  1  0
 21 22  2  0
 22 23  1  0
 23 24  2  0
 23 25  1  0
 25 26  1  0
 26 27  1  0
 27 28  1  0
 28 29  1  0
 29 30  1  0
 22 31  1  0
 31 32  1  0
 31 33  2  0
  9  4  1  0
 17 11  1  0
 33 19  1  0
 30 25  1  0
  5 34  1  0
  6 35  1  0
  7 36  1  0
 12 37  1  0
 13 38  1  0
 16 39  1  0
 20 40  1  0
 21 41  1  0
 26 42  1  0
 26 43  1  0
 27 44  1  0
 27 45  1  0
 29 46  1  0
 29 47  1  0
 30 48  1  0
 30 49  1  0
 33 50  1  0
M  CHG  2   3  -1   8  -1
M  END
>  <UniqueID>  (34) 
33

>  <SMILES>  (34) 
O=C([N-]c1ccc[n-]c1=Nc1ccc(Cl)cc1F)c1ccc(C(=O)N2CCOCC2)c(F)c1

>  <Energy>  (34) 
75.13917451028098

>  <Genealogy>  (34) 
O=C([N-]c1ccc[n-]c1=Nc1ccc(Cl)cc1F)c1ccc(C(=O)N2CCOCC2)c(F)c1 (protonated)
O=C([N-]c1ccc[n-]c1=Nc1ccc(Cl)cc1F)c1ccc(C(=O)N2CCOCC2)c(F)c1 (3D coordinates assigned)
O=C([N-]c1ccc[n-]c1=Nc1ccc(Cl)cc1F)c1ccc(C(=O)N2CCOCC2)c(F)c1 (nonaromatic ring conformer: 75.13917451028098 kcal/mol)

>  <smiles>  (34) 
O=C(Nc1ccc[nH]c1=Nc1ccc(Cl)cc1F)c1ccc(C(=O)N2CCOCC2)c(F)c1

>  <score_type>  (34) 
oracle

>  <origin>  (34) 
adg

>  <m_score__min__energy>  (34) 
-12.029999999999999

>  <m_primary>  (34) 
energy

$$$$
34:0
     RDKit          3D

 55 58  0  0  1  0  0  0  0  0999 V2000
   60.7670   29.1420   45.8020 C   0  0  0  0  0  0  0  0  0  0  0  0
   59.9170   27.9570   46.1640 C   0  0  0  0  0  0  0  0  0  0  0  0
   60.4420   26.6760   46.0090 C   0  0  0  0  0  0  0  0  0  0  0  0
   59.6630   25.5910   46.3400 C   0  0  0  0  0  0  0  0  0  0  0  0
   58.3770   25.7820   46.8200 C   0  0  0  0  0  0  0  0  0  0  0  0
   57.8370   27.0620   46.9780 C   0  0  0  0  0  0  0  0  0  0  0  0
   58.6180   28.1290   46.6480 C   0  0  0  0  0  0  0  0  0  0  0  0
   58.1790   29.5280   46.7620 C   0  0  0  0  0  0  0  0  0  0  0  0
   58.4910   30.1600   47.7980 O   0  0  0  0  0  0  0  0  0  0  0  0
   57.4330   30.0600   45.6830 N   0  0  0  0  0  0  0  0  0  0  0  0
   57.7120   31.2350   45.2500 C   0  0  0  0  0  0  0  0  0  0  0  0
   58.1700   32.2440   46.0000 N   0  0  0  0  0  0  0  0  0  0  0  0
   58.4350   33.4560   45.4710 C   0  0  0  0  0  0  0  0  0  0  0  0
   58.8670   34.3670   46.2560 N   0  0  0  0  0  0  0  0  0  0  0  0
   60.0410   34.1460   47.0190 C   0  0  0  0  0  0  0  0  0  0  0  0
   59.9530   34.3020   48.4020 C   0  0  0  0  0  0  0  0  0  0  0  0
   61.0830   34.1010   49.1930 C   0  0  0  0  0  0  0  0  0  0  0  0
   62.3070   33.7460   48.6400 C   0  0  0  0  0  0  0  0  0  0  0  0
   63.4540   33.5470   49.4600 N   0  0  0  0  0  0  0  0  0  0  0  0
   64.5770   32.7490   49.0110 C   0  0  0  0  0  0  0  0  0  0  0  0
   65.2820   32.0990   50.1930 C   0  0  0  0  0  0  0  0  0  0  0  0
   65.6620   33.1180   51.0270 O   0  0  0  0  0  0  0  0  0  0  0  0
   64.6430   33.8170   51.6140 C   0  0  0  0  0  0  0  0  0  0  0  0
   63.4830   34.1620   50.7640 C   0  0  0  0  0  0  0  0  0  0  0  0
   62.3880   33.5940   47.2720 C   0  0  0  0  0  0  0  0  0  0  0  0
   61.2570   33.7950   46.4780 C   0  0  0  0  0  0  0  0  0  0  0  0
   58.2400   33.6700   44.1600 N   0  0  0  0  0  0  0  0  0  0  0  0
   57.7820   32.7120   43.3270 C   0  0  0  0  0  0  0  0  0  0  0  0
   57.5200   31.4800   43.9090 C   0  0  0  0  0  0  0  0  0  0  0  0
   57.0100   30.3930   43.0070 C   0  0  0  0  0  0  0  0  0  0  0  0
   61.1200   29.6342   46.7202 H   0  0  0  0  0  0  0  0  0  0  0  0
   61.6314   28.8062   45.2104 H   0  0  0  0  0  0  0  0  0  0  0  0
   60.1718   29.8531   45.2104 H   0  0  0  0  0  0  0  0  0  0  0  0
   61.4640   26.5339   45.6277 H   0  0  0  0  0  0  0  0  0  0  0  0
   60.0610   24.5721   46.2236 H   0  0  0  0  0  0  0  0  0  0  0  0
   57.7665   24.9056   47.0830 H   0  0  0  0  0  0  0  0  0  0  0  0
   56.8140   27.2034   47.3567 H   0  0  0  0  0  0  0  0  0  0  0  0
   58.3240   32.0830   47.0070 H   0  0  0  0  0  0  0  0  0  0  0  0
   58.9962   34.5824   48.8666 H   0  0  0  0  0  0  0  0  0  0  0  0
   61.0036   34.2267   50.2829 H   0  0  0  0  0  0  0  0  0  0  0  0
   64.2135   31.9642   48.3313 H   0  0  0  0  0  0  0  0  0  0  0  0
   65.2908   33.4043   48.4903 H   0  0  0  0  0  0  0  0  0  0  0  0
   64.5965   31.4157   50.7156 H   0  0  0  0  0  0  0  0  0  0  0  0
   66.1503   31.5095   49.8635 H   0  0  0  0  0  0  0  0  0  0  0  0
   64.2695   33.2141   52.4549 H   0  0  0  0  0  0  0  0  0  0  0  0
   65.0868   34.7837   51.8943 H   0  0  0  0  0  0  0  0  0  0  0  0
   62.5708   33.8602   51.2996 H   0  0  0  0  0  0  0  0  0  0  0  0
   63.5583   35.2442   50.5817 H   0  0  0  0  0  0  0  0  0  0  0  0
   63.3442   33.3142   46.8057 H   0  0  0  0  0  0  0  0  0  0  0  0
   61.3403   33.6691   45.3884 H   0  0  0  0  0  0  0  0  0  0  0  0
   58.4370   34.5990   43.7180 H   0  0  0  0  0  0  0  0  0  0  0  0
   57.6262   32.8964   42.2538 H   0  0  0  0  0  0  0  0  0  0  0  0
   56.6209   29.5637   43.6160 H   0  0  0  0  0  0  0  0  0  0  0  0
   56.2047   30.7911   42.3722 H   0  0  0  0  0  0  0  0  0  0  0  0
   57.8309   30.0281   42.3722 H   0  0  0  0  0  0  0  0  0  0  0  0
  1  2  1  0
  2  3  2  0
  3  4  1  0
  4  5  2  0
  5  6  1  0
  6  7  2  0
  7  8  1  0
  8  9  2  0
  8 10  1  0
 10 11  2  0
 11 12  1  0
 12 13  1  0
 13 14  2  0
 14 15  1  0
 15 16  2  0
 16 17  1  0
 17 18  2  0
 18 19  1  0
 19 20  1  0
 20 21  1  0
 21 22  1  0
 22 23  1  0
 23 24  1  0
 18 25  1  0
 25 26  2  0
 13 27  1  0
 27 28  1  0
 28 29  2  0
 29 30  1  0
  7  2  1  0
 29 11  1  0
 26 15  1  0
 24 19  1  0
  1 31  1  0
  1 32  1  0
  1 33  1  0
  3 34  1  0
  4 35  1  0
  5 36  1  0
  6 37  1  0
 12 38  1  0
 16 39  1  0
 17 40  1  0
 20 41  1  0
 20 42  1  0
 21 43  1  0
 21 44  1  0
 23 45  1  0
 23 46  1  0
 24 47  1  0
 24 48  1  0
 25 49  1  0
 26 50  1  0
 27 51  1  0
 28 52  1  0
 30 53  1  0
 30 54  1  0
 30 55  1  0
M  END
>  <smiles>  (35) 
Cc1ccccc1C(=O)N=c1[nH]c(=Nc2ccc(N3CCOCC3)cc2)[nH]cc1C

>  <score_type>  (35) 
oracle

>  <origin>  (35) 
adg

>  <m_score__min__energy>  (35) 
-9.2200000000000006

>  <m_primary>  (35) 
energy

$$$$
35:0
     RDKit          3D

 27 28  0  0  0  0  0  0  0  0999 V2000
   58.2635   33.2263   41.3858 H   0  0  0  0  0  0  0  0  0  0  0  0
   57.6410   32.3200   41.4190 C   0  0  0  0  0  0  0  0  0  0  0  0
   57.1780   31.9368   40.4977 H   0  0  0  0  0  0  0  0  0  0  0  0
   57.4480   31.6870   42.5740 C   0  0  0  0  0  0  0  0  0  0  0  0
   56.5230   30.2970   42.7640 S   0  0  0  0  0  0  0  0  0  0  0  0
   56.7650   30.1470   44.4230 C   0  0  0  0  0  0  0  0  0  0  0  0
   56.2590   29.1540   45.1670 C   0  0  0  0  0  0  0  0  0  0  0  0
   55.2401   29.2723   45.5643 H   0  0  0  0  0  0  0  0  0  0  0  0
   56.9890   27.9100   45.4850 C   0  0  0  0  0  0  0  0  0  0  0  0
   58.3820   27.8790   45.3180 C   0  0  0  0  0  0  0  0  0  0  0  0
   58.9107   28.7774   44.9669 H   0  0  0  0  0  0  0  0  0  0  0  0
   59.1010   26.7140   45.5950 C   0  0  0  0  0  0  0  0  0  0  0  0
   60.1947   26.7026   45.4776 H   0  0  0  0  0  0  0  0  0  0  0  0
   58.4330   25.5630   46.0210 C   0  0  0  0  0  0  0  0  0  0  0  0
   59.1490   24.4050   46.2990 O   0  0  0  0  0  0  0  0  0  0  0  0
   57.0420   25.5740   46.1630 C   0  0  0  0  0  0  0  0  0  0  0  0
   56.5172   24.6663   46.4956 H   0  0  0  0  0  0  0  0  0  0  0  0
   56.3160   26.7370   45.8830 C   0  0  0  0  0  0  0  0  0  0  0  0
   54.9280   26.7130   45.9850 O   0  0  0  0  0  0  0  0  0  0  0  0
   57.5930   31.1880   44.8520 C   0  0  0  0  0  0  0  0  0  0  0  0
   57.9146   31.3166   45.8961 H   0  0  0  0  0  0  0  0  0  0  0  0
   57.9730   32.0550   43.8100 C   0  0  0  0  0  0  0  0  0  0  0  0
   58.7950   33.1780   43.9740 O   0  0  0  0  0  0  0  0  0  0  0  0
   58.5850   34.1650   44.9770 C   0  0  0  0  0  0  0  0  0  0  0  0
   58.6830   33.7043   45.9710 H   0  0  0  0  0  0  0  0  0  0  0  0
   59.3333   34.9638   44.8677 H   0  0  0  0  0  0  0  0  0  0  0  0
   57.5763   34.5900   44.8677 H   0  0  0  0  0  0  0  0  0  0  0  0
  1  2  1  0
  2  3  1  0
  2  4  2  0
  4  5  1  0
  5  6  1  0
  6  7  2  0
  7  8  1  0
  7  9  1  0
  9 10  2  0
 10 11  1  0
 10 12  1  0
 12 13  1  0
 12 14  2  0
 14 15  1  0
 14 16  1  0
 16 17  1  0
 16 18  2  0
 18 19  1  0
  6 20  1  0
 20 21  1  0
 20 22  2  0
 22 23  1  0
 23 24  1  0
 24 25  1  0
 24 26  1  0
 24 27  1  0
 22  4  1  0
 18  9  1  0
M  CHG  2  15  -1  19  -1
M  END
>  <UniqueID>  (36) 
34

>  <SMILES>  (36) 
C=c1s/c(=C/c2ccc([O-])cc2[O-])cc1OC

>  <Energy>  (36) 
59.52262620580436

>  <Genealogy>  (36) 
C=c1sc(=Cc2ccc([O-])cc2[O-])cc1OC (protonated)
C=c1s/c(=C/c2ccc([O-])cc2[O-])cc1OC (cis-trans isomerization)
C=c1s/c(=C/c2ccc([O-])cc2[O-])cc1OC (3D coordinates assigned)
C=c1s/c(=C/c2ccc([O-])cc2[O-])cc1OC (optimized conformer: 59.52262620580436 kcal/mol)

>  <smiles>  (36) 
C=c1sc(=Cc2ccc(O)cc2O)cc1OC

>  <score_type>  (36) 
oracle

>  <origin>  (36) 
adg

>  <m_score__min__energy>  (36) 
-11.52

>  <m_primary>  (36) 
energy

$$$$
36:0
     RDKit          3D

 46 49  0  0  0  0  0  0  0  0999 V2000
   57.3940   30.0050   51.5080 O   0  0  0  0  0  0  0  0  0  0  0  0
   58.3990   30.1940   50.7730 C   0  0  0  0  0  0  0  0  0  0  0  0
   59.0960   29.0450   50.2620 N   0  0  0  0  0  0  0  0  0  0  0  0
   59.2790   28.6790   48.8860 C   0  0  0  0  0  0  0  0  0  0  0  0
   60.2130   27.6870   48.5720 C   0  0  0  0  0  0  0  0  0  0  0  0
   60.3770   27.2680   47.2510 C   0  0  0  0  0  0  0  0  0  0  0  0
   59.6160   27.8410   46.2310 C   0  0  0  0  0  0  0  0  0  0  0  0
   58.6950   28.8660   46.5190 C   0  0  0  0  0  0  0  0  0  0  0  0
   57.8430   29.4630   45.4610 C   0  0  0  0  0  0  0  0  0  0  0  0
   58.2600   30.4730   44.5850 C   0  0  0  0  0  0  0  0  0  0  0  0
   56.9870   30.8380   43.5460 S   0  0  0  0  0  0  0  0  0  0  0  0
   55.9710   29.7060   44.2480 C   0  0  0  0  0  0  0  0  0  0  0  0
   54.7870   29.4880   43.8810 O   0  0  0  0  0  0  0  0  0  0  0  0
   56.5600   29.0450   45.2630 N   0  0  0  0  0  0  0  0  0  0  0  0
   58.5570   29.2980   47.8510 C   0  0  0  0  0  0  0  0  0  0  0  0
   58.7940   31.5860   50.4370 C   0  0  0  0  0  0  0  0  0  0  0  0
   58.9570   32.5340   51.4600 C   0  0  0  0  0  0  0  0  0  0  0  0
   59.3780   33.8310   51.1580 C   0  0  0  0  0  0  0  0  0  0  0  0
   59.6450   34.1920   49.8370 C   0  0  0  0  0  0  0  0  0  0  0  0
   59.4650   33.2690   48.7970 C   0  0  0  0  0  0  0  0  0  0  0  0
   59.9130   33.7440   47.1490 S   0  0  0  0  0  0  0  0  0  0  0  0
   58.8050   33.3230   46.2240 O   0  0  0  0  0  0  0  0  0  0  0  0
   60.0220   35.2430   47.1080 O   0  0  0  0  0  0  0  0  0  0  0  0
   61.3990   33.0530   46.5350 N   0  0  0  0  0  0  0  0  0  0  0  0
   61.7170   31.7580   47.1380 C   0  0  0  0  0  0  0  0  0  0  0  0
   63.2280   31.6490   47.1540 C   0  0  0  0  0  0  0  0  0  0  0  0
   63.7190   33.0800   47.2160 C   0  0  0  0  0  0  0  0  0  0  0  0
   62.5610   33.9330   46.7050 C   0  0  0  0  0  0  0  0  0  0  0  0
   59.0150   31.9750   49.1040 C   0  0  0  0  0  0  0  0  0  0  0  0
   60.8210   27.2350   49.3695 H   0  0  0  0  0  0  0  0  0  0  0  0
   61.1093   26.4826   47.0126 H   0  0  0  0  0  0  0  0  0  0  0  0
   59.7366   27.4895   45.1957 H   0  0  0  0  0  0  0  0  0  0  0  0
   59.2522   30.9478   44.5772 H   0  0  0  0  0  0  0  0  0  0  0  0
   57.8762   30.1297   48.0850 H   0  0  0  0  0  0  0  0  0  0  0  0
   58.7522   32.2539   52.5038 H   0  0  0  0  0  0  0  0  0  0  0  0
   59.4994   34.5699   51.9638 H   0  0  0  0  0  0  0  0  0  0  0  0
   59.9993   35.2083   49.6097 H   0  0  0  0  0  0  0  0  0  0  0  0
   61.3218   31.7092   48.1634 H   0  0  0  0  0  0  0  0  0  0  0  0
   61.2652   30.9327   46.5681 H   0  0  0  0  0  0  0  0  0  0  0  0
   63.5664   31.0848   48.0356 H   0  0  0  0  0  0  0  0  0  0  0  0
   63.6149   31.1153   46.2734 H   0  0  0  0  0  0  0  0  0  0  0  0
   63.9713   33.3550   48.2508 H   0  0  0  0  0  0  0  0  0  0  0  0
   64.6283   33.2251   46.6142 H   0  0  0  0  0  0  0  0  0  0  0  0
   62.3285   34.7239   47.4333 H   0  0  0  0  0  0  0  0  0  0  0  0
   62.8261   34.4096   45.7497 H   0  0  0  0  0  0  0  0  0  0  0  0
   58.8330   31.2563   48.2913 H   0  0  0  0  0  0  0  0  0  0  0  0
  1  2  2  0
  2  3  1  0
  3  4  1  0
  4  5  2  0
  5  6  1  0
  6  7  2  0
  7  8  1  0
  8  9  1  0
  9 10  2  0
 10 11  1  0
 11 12  1  0
 12 13  2  0
 12 14  1  0
  8 15  2  0
  2 16  1  0
 16 17  2  0
 17 18  1  0
 18 19  2  0
 19 20  1  0
 20 21  1  0
 21 22  2  0
 21 23  2  0
 21 24  1  0
 24 25  1  0
 25 26  1  0
 26 27  1  0
 27 28  1  0
 20 29  2  0
 15  4  1  0
 29 16  1  0
 14  9  1  0
 28 24  1  0
  5 30  1  0
  6 31  1  0
  7 32  1  0
 10 33  1  0
 15 34  1  0
 17 35  1  0
 18 36  1  0
 19 37  1  0
 25 38  1  0
 25 39  1  0
 26 40  1  0
 26 41  1  0
 27 42  1  0
 27 43  1  0
 28 44  1  0
 28 45  1  0
 29 46  1  0
M  CHG  2   3  -1  14  -1
M  END
>  <UniqueID>  (37) 
35

>  <SMILES>  (37) 
O=C([N-]c1cccc(-c2csc(=O)[n-]2)c1)c1cccc(S(=O)(=O)N2CCCC2)c1

>  <Energy>  (37) 
89.3031745392654

>  <Genealogy>  (37) 
O=C([N-]c1cccc(-c2csc(=O)[n-]2)c1)c1cccc(S(=O)(=O)N2CCCC2)c1 (protonated)
O=C([N-]c1cccc(-c2csc(=O)[n-]2)c1)c1cccc(S(=O)(=O)N2CCCC2)c1 (3D coordinates assigned)
O=C([N-]c1cccc(-c2csc(=O)[n-]2)c1)c1cccc(S(=O)(=O)N2CCCC2)c1 (nonaromatic ring conformer: 89.3031745392654 kcal/mol)

>  <smiles>  (37) 
O=C(Nc1cccc(-c2csc(=O)[nH]2)c1)c1cccc(S(=O)(=O)N2CCCC2)c1

>  <score_type>  (37) 
oracle

>  <origin>  (37) 
adg

>  <m_score__min__energy>  (37) 
-13.359999999999999

>  <m_primary>  (37) 
energy

$$$$
37:0
     RDKit          3D

 61 66  0  0  0  0  0  0  0  0999 V2000
   59.1170   27.2200   47.6800 C   0  0  0  0  0  0  0  0  0  0  0  0
   58.0740   27.4810   46.7460 O   0  0  0  0  0  0  0  0  0  0  0  0
   57.9490   26.8620   45.4900 C   0  0  0  0  0  0  0  0  0  0  0  0
   57.7340   25.4740   45.3710 C   0  0  0  0  0  0  0  0  0  0  0  0
   57.5590   24.8770   44.1110 C   0  0  0  0  0  0  0  0  0  0  0  0
   57.3470   23.4570   43.9900 N   0  0  0  0  0  0  0  0  0  0  0  0
   58.2110   22.4220   44.5490 C   0  0  0  0  0  0  0  0  0  0  0  0
   57.4630   21.0880   44.3240 C   0  0  0  0  0  0  0  0  0  0  0  0
   56.2910   21.4010   43.5130 N   0  0  0  0  0  0  0  0  0  0  0  0
   56.2640   22.8020   43.3560 C   0  0  0  0  0  0  0  0  0  0  0  0
   55.3910   23.3910   42.6650 O   0  0  0  0  0  0  0  0  0  0  0  0
   57.6190   25.6790   42.9630 C   0  0  0  0  0  0  0  0  0  0  0  0
   57.8360   27.0530   43.0700 C   0  0  0  0  0  0  0  0  0  0  0  0
   58.0170   27.6540   44.3250 C   0  0  0  0  0  0  0  0  0  0  0  0
   58.2460   29.1150   44.3930 C   0  0  0  0  0  0  0  0  0  0  0  0
   58.8990   29.6350   45.4650 N   0  0  0  0  0  0  0  0  0  0  0  0
   59.1430   30.9680   45.5860 C   0  0  0  0  0  0  0  0  0  0  0  0
   59.8500   31.4460   46.7490 N   0  0  0  0  0  0  0  0  0  0  0  0
   59.7990   30.6200   47.9710 C   0  0  0  0  0  0  0  0  0  0  0  0
   60.3900   31.3390   49.1900 C   0  0  0  0  0  0  0  0  0  0  0  0
   61.7170   31.9440   48.8400 C   0  0  0  0  0  0  0  0  0  0  0  0
   62.7890   31.9190   49.7450 C   0  0  0  0  0  0  0  0  0  0  0  0
   64.0020   32.5250   49.4060 C   0  0  0  0  0  0  0  0  0  0  0  0
   64.1440   33.1710   48.1750 C   0  0  0  0  0  0  0  0  0  0  0  0
   63.0740   33.2100   47.2770 C   0  0  0  0  0  0  0  0  0  0  0  0
   61.8590   32.5900   47.6020 C   0  0  0  0  0  0  0  0  0  0  0  0
   60.6780   32.6650   46.6710 C   0  0  0  0  0  0  0  0  0  0  0  0
   58.6800   31.8420   44.5840 C   0  0  0  0  0  0  0  0  0  0  0  0
   58.8850   33.2230   44.7070 O   0  0  0  0  0  0  0  0  0  0  0  0
   57.9650   34.1160   45.3280 C   0  0  0  0  0  0  0  0  0  0  0  0
   57.7810   33.8210   46.8030 C   0  0  0  0  0  0  0  0  0  0  0  0
   56.6920   33.4470   45.8090 C   0  0  0  0  0  0  0  0  0  0  0  0
   57.9960   31.2880   43.4900 C   0  0  0  0  0  0  0  0  0  0  0  0
   57.7900   29.9480   43.4160 N   0  0  0  0  0  0  0  0  0  0  0  0
   58.7257   27.3179   48.7034 H   0  0  0  0  0  0  0  0  0  0  0  0
   59.4974   26.1990   47.5290 H   0  0  0  0  0  0  0  0  0  0  0  0
   59.9335   27.9415   47.5290 H   0  0  0  0  0  0  0  0  0  0  0  0
   57.7028   24.8500   46.2763 H   0  0  0  0  0  0  0  0  0  0  0  0
   59.1809   22.4103   44.0302 H   0  0  0  0  0  0  0  0  0  0  0  0
   58.4179   22.5972   45.6151 H   0  0  0  0  0  0  0  0  0  0  0  0
   58.1111   20.3736   43.7952 H   0  0  0  0  0  0  0  0  0  0  0  0
   57.1733   20.6285   45.2805 H   0  0  0  0  0  0  0  0  0  0  0  0
   57.4941   25.2217   41.9704 H   0  0  0  0  0  0  0  0  0  0  0  0
   57.8655   27.6717   42.1610 H   0  0  0  0  0  0  0  0  0  0  0  0
   58.7494   30.3691   48.1838 H   0  0  0  0  0  0  0  0  0  0  0  0
   60.4014   29.7176   47.7902 H   0  0  0  0  0  0  0  0  0  0  0  0
   59.7016   32.1341   49.5122 H   0  0  0  0  0  0  0  0  0  0  0  0
   60.5299   30.6118   50.0034 H   0  0  0  0  0  0  0  0  0  0  0  0
   62.6749   31.4230   50.7202 H   0  0  0  0  0  0  0  0  0  0  0  0
   64.8468   32.4934   50.1098 H   0  0  0  0  0  0  0  0  0  0  0  0
   65.0991   33.6494   47.9126 H   0  0  0  0  0  0  0  0  0  0  0  0
   63.1851   33.7282   46.3131 H   0  0  0  0  0  0  0  0  0  0  0  0
   60.0616   33.5340   46.9447 H   0  0  0  0  0  0  0  0  0  0  0  0
   61.0550   32.7611   45.6421 H   0  0  0  0  0  0  0  0  0  0  0  0
   58.1876   35.0081   44.7242 H   0  0  0  0  0  0  0  0  0  0  0  0
   58.3793   33.0341   47.2856 H   0  0  0  0  0  0  0  0  0  0  0  0
   57.8203   34.4170   47.7267 H   0  0  0  0  0  0  0  0  0  0  0  0
   56.5025   32.3896   45.5721 H   0  0  0  0  0  0  0  0  0  0  0  0
   55.6169   33.6601   45.7150 H   0  0  0  0  0  0  0  0  0  0  0  0
   57.6249   31.9434   42.6883 H   0  0  0  0  0  0  0  0  0  0  0  0
   57.2450   29.5710   42.6080 H   0  0  0  0  0  0  0  0  0  0  0  0
  1  2  1  0
  2  3  1  0
  3  4  2  0
  4  5  1  0
  5  6  1  0
  6  7  1  0
  7  8  1  0
  8  9  1  0
  9 10  1  0
 10 11  2  0
  5 12  2  0
 12 13  1  0
 13 14  2  0
 14 15  1  0
 15 16  2  0
 16 17  1  0
 17 18  1  0
 18 19  1  0
 19 20  1  0
 20 21  1  0
 21 22  2  0
 22 23  1  0
 23 24  2  0
 24 25  1  0
 25 26  2  0
 26 27  1  0
 17 28  2  0
 28 29  1  0
 29 30  1  0
 30 31  1  0
 31 32  1  0
 28 33  1  0
 33 34  2  0
 14  3  1  0
 34 15  1  0
 10  6  1  0
 27 18  1  0
 32 30  1  0
 26 21  1  0
  1 35  1  0
  1 36  1  0
  1 37  1  0
  4 38  1  0
  7 39  1  0
  7 40  1  0
  8 41  1  0
  8 42  1  0
 12 43  1  0
 13 44  1  0
 19 45  1  0
 19 46  1  0
 20 47  1  0
 20 48  1  0
 22 49  1  0
 23 50  1  0
 24 51  1  0
 25 52  1  0
 27 53  1  0
 27 54  1  0
 30 55  1  0
 31 56  1  0
 31 57  1  0
 32 58  1  0
 32 59  1  0
 33 60  1  0
 34 61  1  0
M  CHG  2   9  -1  34   1
M  END
>  <UniqueID>  (38) 
36

>  <SMILES>  (38) 
COc1cc(N2CC[N-]C2=O)ccc1-c1nc(N2CCc3ccccc3C2)c(OC2CC2)c[nH+]1

>  <Energy>  (38) 
359.02745833814686

>  <Genealogy>  (38) 
COc1cc(N2CC[N-]C2=O)ccc1-c1nc(N2CCc3ccccc3C2)c(OC2CC2)c[nH+]1 (protonated)
COc1cc(N2CC[N-]C2=O)ccc1-c1nc(N2CCc3ccccc3C2)c(OC2CC2)c[nH+]1 (3D coordinates assigned)
COc1cc(N2CC[N-]C2=O)ccc1-c1nc(N2CCc3ccccc3C2)c(OC2CC2)c[nH+]1 (nonaromatic ring conformer: 359.02745833814686 kcal/mol)

>  <smiles>  (38) 
COc1cc(N2CCNC2=O)ccc1-c1ncc(OC2CC2)c(N2CCc3ccccc3C2)n1

>  <score_type>  (38) 
oracle

>  <origin>  (38) 
adg

>  <m_score__min__energy>  (38) 
-9.25

>  <m_primary>  (38) 
energy

$$$$
38:0
     RDKit          3D

 31 33  0  0  0  0  0  0  0  0999 V2000
   51.3565   30.3872   55.6864 H   0  0  0  0  0  0  0  0  0  0  0  0
   52.3920   30.1840   55.9970 C   0  0  0  0  0  0  0  0  0  0  0  0
   52.6167   29.9620   57.0507 H   0  0  0  0  0  0  0  0  0  0  0  0
   53.3860   30.2070   55.0860 C   0  0  0  0  0  0  0  0  0  0  0  0
   54.6870   29.9380   55.5520 C   0  0  0  0  0  0  0  0  0  0  0  0
   54.8363   29.6732   56.6092 H   0  0  0  0  0  0  0  0  0  0  0  0
   55.7870   30.0000   54.7040 C   0  0  0  0  0  0  0  0  0  0  0  0
   56.7923   29.7938   55.1001 H   0  0  0  0  0  0  0  0  0  0  0  0
   55.6280   30.3220   53.3520 C   0  0  0  0  0  0  0  0  0  0  0  0
   56.8000   30.3810   52.4370 C   0  0  0  0  0  0  0  0  0  0  0  0
   57.0310   29.4220   51.6500 O   0  0  0  0  0  0  0  0  0  0  0  0
   57.7580   31.5420   52.4550 C   0  0  0  0  0  0  0  0  0  0  0  0
   58.4872   31.0796   53.1365 H   0  0  0  0  0  0  0  0  0  0  0  0
   57.0980   32.9080   52.3370 C   0  0  0  0  0  0  0  0  0  0  0  0
   56.0013   32.9878   52.3079 H   0  0  0  0  0  0  0  0  0  0  0  0
   57.1520   33.8486   52.9047 H   0  0  0  0  0  0  0  0  0  0  0  0
   57.8480   32.3260   51.1520 C   0  0  0  0  0  0  0  0  0  0  0  0
   57.2945   31.9840   50.2651 H   0  0  0  0  0  0  0  0  0  0  0  0
   58.6697   32.6701   50.5067 H   0  0  0  0  0  0  0  0  0  0  0  0
   54.3360   30.5700   52.8620 C   0  0  0  0  0  0  0  0  0  0  0  0
   54.2067   30.8058   51.7954 H   0  0  0  0  0  0  0  0  0  0  0  0
   53.1930   30.5260   53.6990 C   0  0  0  0  0  0  0  0  0  0  0  0
   51.9570   30.7280   53.1660 C   0  0  0  0  0  0  0  0  0  0  0  0
   51.0947   30.6430   53.8437 H   0  0  0  0  0  0  0  0  0  0  0  0
   51.6790   31.0520   51.7520 C   0  0  0  0  0  0  0  0  0  0  0  0
   51.8560   30.1790   50.7450 N   0  0  0  0  0  0  0  0  0  0  0  0
   51.3840   30.8430   49.6670 C   0  0  0  0  0  0  0  0  0  0  0  0
   51.3930   30.3490   48.5090 O   0  0  0  0  0  0  0  0  0  0  0  0
   50.8930   32.0730   49.9290 N   0  0  0  0  0  0  0  0  0  0  0  0
   51.0740   32.1860   51.2550 C   0  0  0  0  0  0  0  0  0  0  0  0
   50.6620   33.2850   51.9980 O   0  0  0  0  0  0  0  0  0  0  0  0
  1  2  1  0
  2  3  1  0
  2  4  2  0
  4  5  1  0
  5  6  1  0
  5  7  2  0
  7  8  1  0
  7  9  1  0
  9 10  1  0
 10 11  2  0
 10 12  1  0
 12 13  1  0
 12 14  1  0
 14 15  1  0
 14 16  1  0
 14 17  1  0
 17 18  1  0
 17 19  1  0
  9 20  2  0
 20 21  1  0
 20 22  1  0
 22 23  2  0
 23 24  1  0
 23 25  1  0
 25 26  1  0
 26 27  1  0
 27 28  2  0
 27 29  1  0
 29 30  1  0
 30 31  1  0
 22  4  1  0
 30 25  2  0
 17 12  1  0
M  CHG  3  26  -1  29  -1  31  -1
M  END
>  <UniqueID>  (39) 
37

>  <SMILES>  (39) 
C=c1ccc(C(=O)C2CC2)c/c1=C\c1[n-]c(=O)[n-]c1[O-]

>  <Energy>  (39) 
343.65780462692766

>  <Genealogy>  (39) 
C=c1ccc(C(=O)C2CC2)cc1=Cc1[n-]c(=O)[n-]c1[O-] (protonated)
C=c1ccc(C(=O)C2CC2)c/c1=C\c1[n-]c(=O)[n-]c1[O-] (cis-trans isomerization)
C=c1ccc(C(=O)C2CC2)c/c1=C\c1[n-]c(=O)[n-]c1[O-] (3D coordinates assigned)
C=c1ccc(C(=O)C2CC2)c/c1=C\c1[n-]c(=O)[n-]c1[O-] (nonaromatic ring conformer: 343.65780462692766 kcal/mol)

>  <smiles>  (39) 
C=c1ccc(C(=O)C2CC2)cc1=Cc1[nH]c(=O)[nH]c1O

>  <score_type>  (39) 
oracle

>  <origin>  (39) 
adg

>  <m_score__min__energy>  (39) 
-16.219999999999999

>  <m_primary>  (39) 
energy

$$$$
39:0
     RDKit          3D

 60 62  0  0  0  0  0  0  0  0999 V2000
   57.2520   26.8310   46.0150 C   0  0  0  0  0  0  0  0  0  0  0  0
   58.7220   26.8870   45.5890 C   0  0  0  0  0  0  0  0  0  0  0  0
   59.4150   27.9870   46.2730 N   0  0  0  0  0  0  0  0  0  0  0  0
   59.8840   27.8370   47.6590 C   0  0  0  0  0  0  0  0  0  0  0  0
   59.5660   29.0440   48.5140 C   0  0  0  0  0  0  0  0  0  0  0  0
   58.5230   29.0140   49.2250 O   0  0  0  0  0  0  0  0  0  0  0  0
   60.3820   30.2350   48.4860 N   0  0  0  0  0  0  0  0  0  0  0  0
   60.3210   31.2940   49.4680 C   0  0  0  0  0  0  0  0  0  0  0  0
   59.3330   32.3000   49.4180 C   0  0  0  0  0  0  0  0  0  0  0  0
   59.2760   33.2820   50.4120 C   0  0  0  0  0  0  0  0  0  0  0  0
   60.1810   33.2590   51.4770 C   0  0  0  0  0  0  0  0  0  0  0  0
   61.1480   32.2570   51.5500 C   0  0  0  0  0  0  0  0  0  0  0  0
   62.0080   32.2210   52.5990 F   0  0  0  0  0  0  0  0  0  0  0  0
   61.2200   31.2790   50.5500 C   0  0  0  0  0  0  0  0  0  0  0  0
   59.6970   29.2060   45.5710 C   0  0  0  0  0  0  0  0  0  0  0  0
   60.8600   29.7000   45.6120 O   0  0  0  0  0  0  0  0  0  0  0  0
   58.6660   29.8290   44.7310 C   0  0  0  0  0  0  0  0  0  0  0  0
   57.8770   30.8210   45.1720 C   0  0  0  0  0  0  0  0  0  0  0  0
   58.3410   32.2140   45.3530 C   0  0  0  0  0  0  0  0  0  0  0  0
   57.7300   33.2740   44.6640 C   0  0  0  0  0  0  0  0  0  0  0  0
   58.1480   34.5880   44.8790 C   0  0  0  0  0  0  0  0  0  0  0  0
   59.2080   34.8520   45.7480 C   0  0  0  0  0  0  0  0  0  0  0  0
   59.8810   33.8010   46.3820 C   0  0  0  0  0  0  0  0  0  0  0  0
   60.9940   34.1140   47.2300 N   0  0  0  0  0  0  0  0  0  0  0  0
   62.5390   33.3030   47.2310 S   0  0  0  0  0  0  0  0  0  0  0  0
   63.3720   33.8500   46.0960 O   0  0  0  0  0  0  0  0  0  0  0  0
   62.3120   31.8250   47.0060 O   0  0  0  0  0  0  0  0  0  0  0  0
   63.3980   33.4920   48.7620 C   0  0  0  0  0  0  0  0  0  0  0  0
   62.9510   34.4160   49.7230 C   0  0  0  0  0  0  0  0  0  0  0  0
   63.5980   34.5150   50.9610 C   0  0  0  0  0  0  0  0  0  0  0  0
   64.6950   33.6890   51.2560 C   0  0  0  0  0  0  0  0  0  0  0  0
   65.3950   33.8150   52.5790 C   0  0  0  0  0  0  0  0  0  0  0  0
   65.1680   32.7910   50.2770 C   0  0  0  0  0  0  0  0  0  0  0  0
   64.5260   32.7000   49.0360 C   0  0  0  0  0  0  0  0  0  0  0  0
   59.4270   32.4840   46.2020 C   0  0  0  0  0  0  0  0  0  0  0  0
   57.1883   26.8286   47.1132 H   0  0  0  0  0  0  0  0  0  0  0  0
   56.7217   27.7096   45.6189 H   0  0  0  0  0  0  0  0  0  0  0  0
   56.7901   25.9146   45.6189 H   0  0  0  0  0  0  0  0  0  0  0  0
   59.2101   25.9356   45.8472 H   0  0  0  0  0  0  0  0  0  0  0  0
   58.7712   27.0564   44.5032 H   0  0  0  0  0  0  0  0  0  0  0  0
   59.3994   26.9542   48.1014 H   0  0  0  0  0  0  0  0  0  0  0  0
   60.9782   27.7273   47.6307 H   0  0  0  0  0  0  0  0  0  0  0  0
   60.9870   30.4010   47.6540 H   0  0  0  0  0  0  0  0  0  0  0  0
   58.6046   32.3119   48.5938 H   0  0  0  0  0  0  0  0  0  0  0  0
   58.5162   34.0754   50.3556 H   0  0  0  0  0  0  0  0  0  0  0  0
   60.1303   34.0319   52.2581 H   0  0  0  0  0  0  0  0  0  0  0  0
   61.9863   30.4922   50.6112 H   0  0  0  0  0  0  0  0  0  0  0  0
   58.5353   29.4685   43.7000 H   0  0  0  0  0  0  0  0  0  0  0  0
   56.8295   30.5858   45.4116 H   0  0  0  0  0  0  0  0  0  0  0  0
   56.9179   33.0677   43.9513 H   0  0  0  0  0  0  0  0  0  0  0  0
   57.6414   35.4169   44.3629 H   0  0  0  0  0  0  0  0  0  0  0  0
   59.5160   35.8912   45.9355 H   0  0  0  0  0  0  0  0  0  0  0  0
   62.0898   35.0635   49.5015 H   0  0  0  0  0  0  0  0  0  0  0  0
   63.2453   35.2433   51.7061 H   0  0  0  0  0  0  0  0  0  0  0  0
   64.6669   33.6839   53.3930 H   0  0  0  0  0  0  0  0  0  0  0  0
   66.1745   33.0427   52.6564 H   0  0  0  0  0  0  0  0  0  0  0  0
   65.8563   34.8106   52.6564 H   0  0  0  0  0  0  0  0  0  0  0  0
   66.0439   32.1602   50.4889 H   0  0  0  0  0  0  0  0  0  0  0  0
   64.9062   32.0056   48.2723 H   0  0  0  0  0  0  0  0  0  0  0  0
   59.9257   31.6578   46.7299 H   0  0  0  0  0  0  0  0  0  0  0  0
  1  2  1  0
  2  3  1  0
  3  4  1  0
  4  5  1  0
  5  6  2  0
  5  7  1  0
  7  8  1  0
  8  9  2  0
  9 10  1  0
 10 11  2  0
 11 12  1  0
 12 13  1  0
 12 14  2  0
  3 15  1  0
 15 16  2  0
 15 17  1  0
 17 18  2  3
 18 19  1  0
 19 20  2  0
 20 21  1  0
 21 22  2  0
 22 23  1  0
 23 24  1  0
 24 25  1  0
 25 26  2  0
 25 27  2  0
 25 28  1  0
 28 29  2  0
 29 30  1  0
 30 31  2  0
 31 32  1  0
 31 33  1  0
 33 34  2  0
 23 35  2  0
 14  8  1  0
 35 19  1  0
 34 28  1  0
  1 36  1  0
  1 37  1  0
  1 38  1  0
  2 39  1  0
  2 40  1  0
  4 41  1  0
  4 42  1  0
  7 43  1  0
  9 44  1  0
 10 45  1  0
 11 46  1  0
 14 47  1  0
 17 48  1  0
 18 49  1  0
 20 50  1  0
 21 51  1  0
 22 52  1  0
 29 53  1  0
 30 54  1  0
 32 55  1  0
 32 56  1  0
 32 57  1  0
 33 58  1  0
 34 59  1  0
 35 60  1  0
M  CHG  1  24  -1
M  END
>  <UniqueID>  (40) 
38

>  <SMILES>  (40) 
CCN(CC(=O)Nc1cccc(F)c1)C(=O)C=Cc1cccc([N-]S(=O)(=O)c2ccc(C)cc2)c1

>  <Energy>  (40) 
80.16514828044501

>  <Genealogy>  (40) 
CCN(CC(=O)Nc1cccc(F)c1)C(=O)C=Cc1cccc([N-]S(=O)(=O)c2ccc(C)cc2)c1 (protonated)
CCN(CC(=O)Nc1cccc(F)c1)C(=O)C=Cc1cccc([N-]S(=O)(=O)c2ccc(C)cc2)c1 (3D coordinates assigned)
CCN(CC(=O)Nc1cccc(F)c1)C(=O)C=Cc1cccc([N-]S(=O)(=O)c2ccc(C)cc2)c1 (optimized conformer: 80.16514828044501 kcal/mol)

>  <smiles>  (40) 
CCN(CC(=O)Nc1cccc(F)c1)C(=O)C=Cc1cccc(NS(=O)(=O)c2ccc(C)cc2)c1

>  <score_type>  (40) 
oracle

>  <origin>  (40) 
adg

>  <m_score__min__energy>  (40) 
-11.75

>  <m_primary>  (40) 
energy

$$$$
40:0
     RDKit          3D

 45 47  0  0  0  0  0  0  0  0999 V2000
   64.0410   33.1440   47.6650 C   0  0  0  0  0  0  0  0  0  0  0  0
   62.6960   33.5000   48.0990 N   0  0  0  0  0  0  0  0  0  0  0  0
   62.3010   33.6920   49.3730 C   0  0  0  0  0  0  0  0  0  0  0  0
   60.9870   34.1150   49.3980 C   0  0  0  0  0  0  0  0  0  0  0  0
   60.5780   34.1850   48.0790 C   0  0  0  0  0  0  0  0  0  0  0  0
   59.2460   34.6680   47.5880 C   0  0  0  0  0  0  0  0  0  0  0  0
   59.1240   34.4890   46.0990 C   0  0  0  0  0  0  0  0  0  0  0  0
   59.5130   35.4290   45.3540 O   0  0  0  0  0  0  0  0  0  0  0  0
   58.5950   33.2830   45.5060 N   0  0  0  0  0  0  0  0  0  0  0  0
   58.3480   32.0660   46.2940 C   0  0  0  0  0  0  0  0  0  0  0  0
   58.6760   30.8160   45.4620 C   0  0  0  0  0  0  0  0  0  0  0  0
   58.1110   30.8460   44.0880 N   0  0  0  0  0  0  0  0  0  0  0  0
   57.3850   29.6110   43.7210 C   0  0  0  0  0  0  0  0  0  0  0  0
   56.1100   29.4230   44.4990 C   0  0  0  0  0  0  0  0  0  0  0  0
   55.2220   30.3170   44.4810 O   0  0  0  0  0  0  0  0  0  0  0  0
   55.9040   28.2240   45.2440 N   0  0  0  0  0  0  0  0  0  0  0  0
   57.0060   27.4780   45.8350 C   0  0  0  0  0  0  0  0  0  0  0  0
   56.6810   26.0210   46.0920 C   0  0  0  0  0  0  0  0  0  0  0  0
   57.5550   26.4100   44.9110 C   0  0  0  0  0  0  0  0  0  0  0  0
   57.3730   32.0720   43.7330 C   0  0  0  0  0  0  0  0  0  0  0  0
   58.1920   33.3110   44.0930 C   0  0  0  0  0  0  0  0  0  0  0  0
   61.6600   33.8170   47.3000 C   0  0  0  0  0  0  0  0  0  0  0  0
   64.6779   32.9754   48.5459 H   0  0  0  0  0  0  0  0  0  0  0  0
   64.0003   32.2257   47.0608 H   0  0  0  0  0  0  0  0  0  0  0  0
   64.4599   33.9622   47.0608 H   0  0  0  0  0  0  0  0  0  0  0  0
   62.9315   33.5351   50.2606 H   0  0  0  0  0  0  0  0  0  0  0  0
   60.3858   34.3494   50.2889 H   0  0  0  0  0  0  0  0  0  0  0  0
   58.4497   34.0952   48.0858 H   0  0  0  0  0  0  0  0  0  0  0  0
   59.1533   35.7389   47.8214 H   0  0  0  0  0  0  0  0  0  0  0  0
   58.9823   32.0805   47.1925 H   0  0  0  0  0  0  0  0  0  0  0  0
   57.2869   32.0356   46.5822 H   0  0  0  0  0  0  0  0  0  0  0  0
   59.7697   30.7272   45.3856 H   0  0  0  0  0  0  0  0  0  0  0  0
   58.2195   29.9584   45.9779 H   0  0  0  0  0  0  0  0  0  0  0  0
   57.1384   29.6549   42.6499 H   0  0  0  0  0  0  0  0  0  0  0  0
   58.0422   28.7612   43.9575 H   0  0  0  0  0  0  0  0  0  0  0  0
   57.4367   28.2944   46.4333 H   0  0  0  0  0  0  0  0  0  0  0  0
   57.1224   25.5029   46.9561 H   0  0  0  0  0  0  0  0  0  0  0  0
   55.7551   25.4404   46.2173 H   0  0  0  0  0  0  0  0  0  0  0  0
   58.6293   26.1737   44.9200 H   0  0  0  0  0  0  0  0  0  0  0  0
   57.5245   26.2280   43.8266 H   0  0  0  0  0  0  0  0  0  0  0  0
   57.1709   32.0729   42.6517 H   0  0  0  0  0  0  0  0  0  0  0  0
   56.4275   32.0941   44.2947 H   0  0  0  0  0  0  0  0  0  0  0  0
   59.0928   33.3426   43.4625 H   0  0  0  0  0  0  0  0  0  0  0  0
   57.5714   34.2032   43.9229 H   0  0  0  0  0  0  0  0  0  0  0  0
   61.6721   33.7879   46.2004 H   0  0  0  0  0  0  0  0  0  0  0  0
  1  2  1  0
  2  3  1  0
  3  4  2  0
  4  5  1  0
  5  6  1  0
  6  7  1  0
  7  8  2  0
  7  9  1  0
  9 10  1  0
 10 11  1  0
 11 12  1  0
 12 13  1  0
 13 14  1  0
 14 15  2  0
 14 16  1  0
 16 17  1  0
 17 18  1  0
 18 19  1  0
 12 20  1  0
 20 21  1  0
  5 22  2  0
 22  2  1  0
 21  9  1  0
 19 17  1  0
  1 23  1  0
  1 24  1  0
  1 25  1  0
  3 26  1  0
  4 27  1  0
  6 28  1  0
  6 29  1  0
 10 30  1  0
 10 31  1  0
 11 32  1  0
 11 33  1  0
 13 34  1  0
 13 35  1  0
 17 36  1  0
 18 37  1  0
 18 38  1  0
 19 39  1  0
 19 40  1  0
 20 41  1  0
 20 42  1  0
 21 43  1  0
 21 44  1  0
 22 45  1  0
M  CHG  1  16  -1
M  END
>  <UniqueID>  (41) 
39

>  <SMILES>  (41) 
Cn1ccc(CC(=O)N2CCN(CC(=O)[N-]C3CC3)CC2)c1

>  <Energy>  (41) 
338.38696884320524

>  <Genealogy>  (41) 
Cn1ccc(CC(=O)N2CCN(CC(=O)[N-]C3CC3)CC2)c1 (protonated)
Cn1ccc(CC(=O)N2CCN(CC(=O)[N-]C3CC3)CC2)c1 (3D coordinates assigned)
Cn1ccc(CC(=O)N2CCN(CC(=O)[N-]C3CC3)CC2)c1 (nonaromatic ring conformer: 338.38696884320524 kcal/mol)

>  <smiles>  (41) 
Cn1ccc(CC(=O)N2CCN(CC(=O)NC3CC3)CC2)c1

>  <score_type>  (41) 
oracle

>  <origin>  (41) 
adg

>  <m_score__min__energy>  (41) 
-9.6500000000000004

>  <m_primary>  (41) 
energy

$$$$
41:0
     RDKit          3D

 70 74  0  0  0  0  0  0  0  0999 V2000
   57.5030   31.8420   41.9430 C   0  0  0  0  0  0  0  0  0  0  0  0
   57.5940   31.3380   43.3560 C   0  0  0  0  0  0  0  0  0  0  0  0
   57.4020   29.9770   43.6330 C   0  0  0  0  0  0  0  0  0  0  0  0
   57.4200   29.4990   44.9580 C   0  0  0  0  0  0  0  0  0  0  0  0
   57.2690   28.0440   45.2180 C   0  0  0  0  0  0  0  0  0  0  0  0
   58.2850   27.3030   45.1030 O   0  0  0  0  0  0  0  0  0  0  0  0
   55.9980   27.4740   45.5910 N   0  0  0  0  0  0  0  0  0  0  0  0
   55.8080   26.1370   46.0820 C   0  0  0  0  0  0  0  0  0  0  0  0
   56.6500   25.4170   46.9270 C   0  0  0  0  0  0  0  0  0  0  0  0
   56.2100   24.1010   47.1690 C   0  0  0  0  0  0  0  0  0  0  0  0
   56.9970   23.1590   47.9990 C   0  0  0  0  0  0  0  0  0  0  0  0
   57.3070   21.8590   47.5010 N   0  0  0  0  0  0  0  0  0  0  0  0
   57.3870   23.4820   49.1510 O   0  0  0  0  0  0  0  0  0  0  0  0
   55.0020   23.7960   46.5190 C   0  0  0  0  0  0  0  0  0  0  0  0
   54.2800   22.4700   46.5380 C   0  0  0  0  0  0  0  0  0  0  0  0
   52.7840   22.6270   46.5890 C   0  0  0  0  0  0  0  0  0  0  0  0
   52.0600   22.1950   47.7150 C   0  0  0  0  0  0  0  0  0  0  0  0
   50.6700   22.3330   47.7530 C   0  0  0  0  0  0  0  0  0  0  0  0
   49.9910   22.8990   46.6680 C   0  0  0  0  0  0  0  0  0  0  0  0
   50.7030   23.3200   45.5400 C   0  0  0  0  0  0  0  0  0  0  0  0
   52.0950   23.1830   45.4950 C   0  0  0  0  0  0  0  0  0  0  0  0
   54.5390   25.1460   45.6130 S   0  0  0  0  0  0  0  0  0  0  0  0
   57.6210   30.4150   46.0080 C   0  0  0  0  0  0  0  0  0  0  0  0
   57.7870   31.7830   45.7380 C   0  0  0  0  0  0  0  0  0  0  0  0
   57.9620   32.7370   46.8490 C   0  0  0  0  0  0  0  0  0  0  0  0
   57.1370   33.6830   46.9820 O   0  0  0  0  0  0  0  0  0  0  0  0
   59.0480   32.5890   47.7840 N   0  0  0  0  0  0  0  0  0  0  0  0
   59.4700   33.7400   48.5990 C   0  0  0  0  0  0  0  0  0  0  0  0
   60.9550   33.6330   48.9830 C   0  0  0  0  0  0  0  0  0  0  0  0
   61.3160   32.2740   49.4270 N   0  0  0  0  0  0  0  0  0  0  0  0
   62.7030   31.9270   49.6120 C   0  0  0  0  0  0  0  0  0  0  0  0
   63.1330   30.8340   49.1470 O   0  0  0  0  0  0  0  0  0  0  0  0
   63.6460   32.8220   50.3210 C   0  0  0  0  0  0  0  0  0  0  0  0
   63.1570   33.8020   51.2040 C   0  0  0  0  0  0  0  0  0  0  0  0
   64.0410   34.6600   51.8680 C   0  0  0  0  0  0  0  0  0  0  0  0
   65.4180   34.5570   51.6480 C   0  0  0  0  0  0  0  0  0  0  0  0
   65.9120   33.6010   50.7570 C   0  0  0  0  0  0  0  0  0  0  0  0
   65.0310   32.7430   50.0890 C   0  0  0  0  0  0  0  0  0  0  0  0
   60.2950   31.2220   49.4350 C   0  0  0  0  0  0  0  0  0  0  0  0
   59.5410   31.2360   48.1040 C   0  0  0  0  0  0  0  0  0  0  0  0
   57.7850   32.2380   44.4130 C   0  0  0  0  0  0  0  0  0  0  0  0
   57.3075   32.9245   41.9517 H   0  0  0  0  0  0  0  0  0  0  0  0
   58.4513   31.6448   41.4216 H   0  0  0  0  0  0  0  0  0  0  0  0
   56.6836   31.3256   41.4216 H   0  0  0  0  0  0  0  0  0  0  0  0
   57.2351   29.2730   42.8045 H   0  0  0  0  0  0  0  0  0  0  0  0
   55.1450   28.0730   45.5540 H   0  0  0  0  0  0  0  0  0  0  0  0
   57.5691   25.8357   47.3628 H   0  0  0  0  0  0  0  0  0  0  0  0
   57.9830   21.7320   46.7150 H   0  0  0  0  0  0  0  0  0  0  0  0
   54.5449   21.9114   45.6282 H   0  0  0  0  0  0  0  0  0  0  0  0
   54.5903   21.9344   47.4473 H   0  0  0  0  0  0  0  0  0  0  0  0
   52.5899   21.7470   48.5685 H   0  0  0  0  0  0  0  0  0  0  0  0
   50.1086   21.9963   48.6370 H   0  0  0  0  0  0  0  0  0  0  0  0
   48.8974   23.0128   46.7023 H   0  0  0  0  0  0  0  0  0  0  0  0
   50.1673   23.7600   44.6859 H   0  0  0  0  0  0  0  0  0  0  0  0
   52.6510   23.5101   44.6040 H   0  0  0  0  0  0  0  0  0  0  0  0
   57.6482   30.0565   47.0476 H   0  0  0  0  0  0  0  0  0  0  0  0
   59.3137   34.6642   48.0233 H   0  0  0  0  0  0  0  0  0  0  0  0
   58.8711   33.7526   49.5216 H   0  0  0  0  0  0  0  0  0  0  0  0
   61.5676   33.8947   48.1076 H   0  0  0  0  0  0  0  0  0  0  0  0
   61.1394   34.3231   49.8195 H   0  0  0  0  0  0  0  0  0  0  0  0
   62.0741   33.8943   51.3734 H   0  0  0  0  0  0  0  0  0  0  0  0
   63.6517   35.4171   52.5646 H   0  0  0  0  0  0  0  0  0  0  0  0
   66.1116   35.2280   52.1759 H   0  0  0  0  0  0  0  0  0  0  0  0
   66.9949   33.5226   50.5803 H   0  0  0  0  0  0  0  0  0  0  0  0
   65.4244   32.0018   49.3777 H   0  0  0  0  0  0  0  0  0  0  0  0
   60.7776   30.2432   49.5732 H   0  0  0  0  0  0  0  0  0  0  0  0
   59.5890   31.4013   50.2593 H   0  0  0  0  0  0  0  0  0  0  0  0
   60.2187   30.9027   47.3043 H   0  0  0  0  0  0  0  0  0  0  0  0
   58.6765   30.5609   48.1865 H   0  0  0  0  0  0  0  0  0  0  0  0
   57.9341   33.3071   44.2013 H   0  0  0  0  0  0  0  0  0  0  0  0
  1  2  1  0
  2  3  2  0
  3  4  1  0
  4  5  1  0
  5  6  2  0
  5  7  1  0
  7  8  1  0
  8  9  2  0
  9 10  1  0
 10 11  1  0
 11 12  1  0
 11 13  2  0
 10 14  2  0
 14 15  1  0
 15 16  1  0
 16 17  2  0
 17 18  1  0
 18 19  2  0
 19 20  1  0
 20 21  2  0
 14 22  1  0
  4 23  2  0
 23 24  1  0
 24 25  1  0
 25 26  2  0
 25 27  1  0
 27 28  1  0
 28 29  1  0
 29 30  1  0
 30 31  1  0
 31 32  2  0
 31 33  1  0
 33 34  2  0
 34 35  1  0
 35 36  2  0
 36 37  1  0
 37 38  2  0
 30 39  1  0
 39 40  1  0
 24 41  2  0
 41  2  1  0
 22  8  1  0
 40 27  1  0
 21 16  1  0
 38 33  1  0
  1 42  1  0
  1 43  1  0
  1 44  1  0
  3 45  1  0
  7 46  1  0
  9 47  1  0
 12 48  1  0
 15 49  1  0
 15 50  1  0
 17 51  1  0
 18 52  1  0
 19 53  1  0
 20 54  1  0
 21 55  1  0
 23 56  1  0
 28 57  1  0
 28 58  1  0
 29 59  1  0
 29 60  1  0
 34 61  1  0
 35 62  1  0
 36 63  1  0
 37 64  1  0
 38 65  1  0
 39 66  1  0
 39 67  1  0
 40 68  1  0
 40 69  1  0
 41 70  1  0
M  CHG  1  12  -1
M  END
>  <UniqueID>  (42) 
40

>  <SMILES>  (42) 
Cc1cc(C(=O)Nc2cc(C([NH-])=O)c(Cc3ccccc3)s2)cc(C(=O)N2CCN(C(=O)c3ccccc3)CC2)c1

>  <Energy>  (42) 
118.91841079064334

>  <Genealogy>  (42) 
Cc1cc(C(=O)Nc2cc(C([NH-])=O)c(Cc3ccccc3)s2)cc(C(=O)N2CCN(C(=O)c3ccccc3)CC2)c1 (protonated)
Cc1cc(C(=O)Nc2cc(C([NH-])=O)c(Cc3ccccc3)s2)cc(C(=O)N2CCN(C(=O)c3ccccc3)CC2)c1 (3D coordinates assigned)
Cc1cc(C(=O)Nc2cc(C([NH-])=O)c(Cc3ccccc3)s2)cc(C(=O)N2CCN(C(=O)c3ccccc3)CC2)c1 (nonaromatic ring conformer: 118.91841079064334 kcal/mol)

>  <smiles>  (42) 
Cc1cc(C(=O)Nc2cc(C(N)=O)c(Cc3ccccc3)s2)cc(C(=O)N2CCN(C(=O)c3ccccc3)CC2)c1

>  <score_type>  (42) 
oracle

>  <origin>  (42) 
adg

>  <m_score__min__energy>  (42) 
-13.67

>  <m_primary>  (42) 
energy

$$$$
42:0
     RDKit          3D

 49 52  0  0  0  0  0  0  0  0999 V2000
   52.3177   27.6137   53.0933 H   0  0  0  0  0  0  0  0  0  0  0  0
   53.4150   27.6580   53.1560 C   0  0  0  0  0  0  0  0  0  0  0  0
   53.9840   26.7716   53.4730 H   0  0  0  0  0  0  0  0  0  0  0  0
   54.0570   28.7890   52.8470 C   0  0  0  0  0  0  0  0  0  0  0  0
   53.4930   29.9930   52.4180 C   0  0  0  0  0  0  0  0  0  0  0  0
   52.1840   30.2720   52.2700 C   0  0  0  0  0  0  0  0  0  0  0  0
   51.5250   30.1346   53.1399 H   0  0  0  0  0  0  0  0  0  0  0  0
   51.5810   30.7500   51.0140 C   0  0  0  0  0  0  0  0  0  0  0  0
   51.5560   30.0210   49.8840 N   0  0  0  0  0  0  0  0  0  0  0  0
   51.0010   30.8590   48.9810 C   0  0  0  0  0  0  0  0  0  0  0  0
   50.7950   30.5260   47.7850 O   0  0  0  0  0  0  0  0  0  0  0  0
   50.6960   32.0840   49.4580 N   0  0  0  0  0  0  0  0  0  0  0  0
   51.0810   32.0050   50.7420 C   0  0  0  0  0  0  0  0  0  0  0  0
   51.0180   33.0740   51.6290 O   0  0  0  0  0  0  0  0  0  0  0  0
   54.5560   30.8660   52.2270 C   0  0  0  0  0  0  0  0  0  0  0  0
   54.4950   31.9131   51.8955 H   0  0  0  0  0  0  0  0  0  0  0  0
   55.7070   30.1620   52.5350 C   0  0  0  0  0  0  0  0  0  0  0  0
   57.0870   30.6790   52.4720 C   0  0  0  0  0  0  0  0  0  0  0  0
   57.9730   30.1480   53.1960 O   0  0  0  0  0  0  0  0  0  0  0  0
   57.4180   31.7960   51.6300 N   0  0  0  0  0  0  0  0  0  0  0  0
   56.6550   32.4590   51.3670 H   0  0  0  0  0  0  0  0  0  0  0  0
   58.7620   32.1360   51.2450 C   0  0  0  0  0  0  0  0  0  0  0  0
   59.7240   31.1440   50.9870 C   0  0  0  0  0  0  0  0  0  0  0  0
   59.4575   30.0823   51.0958 H   0  0  0  0  0  0  0  0  0  0  0  0
   61.0170   31.4990   50.5930 C   0  0  0  0  0  0  0  0  0  0  0  0
   61.7611   30.7144   50.3911 H   0  0  0  0  0  0  0  0  0  0  0  0
   61.3730   32.8500   50.4530 C   0  0  0  0  0  0  0  0  0  0  0  0
   62.7700   33.2330   50.0050 C   0  0  0  0  0  0  0  0  0  0  0  0
   63.1620   33.9798   50.7112 H   0  0  0  0  0  0  0  0  0  0  0  0
   63.3533   32.3005   49.9867 H   0  0  0  0  0  0  0  0  0  0  0  0
   62.8560   33.8010   48.6420 N   0  0  0  0  0  0  0  0  0  0  0  0
   61.6460   33.6770   47.8290 C   0  0  0  0  0  0  0  0  0  0  0  0
   61.2090   32.6741   47.9439 H   0  0  0  0  0  0  0  0  0  0  0  0
   60.8782   34.4032   48.1343 H   0  0  0  0  0  0  0  0  0  0  0  0
   62.0860   33.9010   46.3890 C   0  0  0  0  0  0  0  0  0  0  0  0
   61.5764   33.1949   45.7170 H   0  0  0  0  0  0  0  0  0  0  0  0
   61.8365   34.9134   46.0387 H   0  0  0  0  0  0  0  0  0  0  0  0
   63.5900   33.6540   46.3800 C   0  0  0  0  0  0  0  0  0  0  0  0
   63.8394   32.8244   45.7021 H   0  0  0  0  0  0  0  0  0  0  0  0
   64.1464   34.5346   46.0265 H   0  0  0  0  0  0  0  0  0  0  0  0
   63.9510   33.2960   47.8140 C   0  0  0  0  0  0  0  0  0  0  0  0
   64.0425   32.2054   47.9245 H   0  0  0  0  0  0  0  0  0  0  0  0
   64.9155   33.7351   48.1089 H   0  0  0  0  0  0  0  0  0  0  0  0
   60.3990   33.8380   50.6660 C   0  0  0  0  0  0  0  0  0  0  0  0
   60.6551   34.8981   50.5221 H   0  0  0  0  0  0  0  0  0  0  0  0
   59.1050   33.4830   51.0600 C   0  0  0  0  0  0  0  0  0  0  0  0
   58.3507   34.2662   51.2260 H   0  0  0  0  0  0  0  0  0  0  0  0
   55.3990   28.9030   52.9050 N   0  0  0  0  0  0  0  0  0  0  0  0
   56.0750   28.1580   53.1900 H   0  0  0  0  0  0  0  0  0  0  0  0
  1  2  1  0
  2  3  1  0
  2  4  2  0
  4  5  1  0
  5  6  2  0
  6  7  1  0
  6  8  1  0
  8  9  1  0
  9 10  1  0
 10 11  2  0
 10 12  1  0
 12 13  1  0
 13 14  1  0
  5 15  1  0
 15 16  1  0
 15 17  2  0
 17 18  1  0
 18 19  2  0
 18 20  1  0
 20 21  1  0
 20 22  1  0
 22 23  2  0
 23 24  1  0
 23 25  1  0
 25 26  1  0
 25 27  2  0
 27 28  1  0
 28 29  1  0
 28 30  1  0
 28 31  1  0
 31 32  1  0
 32 33  1  0
 32 34  1  0
 32 35  1  0
 35 36  1  0
 35 37  1  0
 35 38  1  0
 38 39  1  0
 38 40  1  0
 38 41  1  0
 41 42  1  0
 41 43  1  0
 27 44  1  0
 44 45  1  0
 44 46  2  0
 46 47  1  0
 17 48  1  0
 48 49  1  0
 48  4  1  0
 13  8  2  0
 46 22  1  0
 41 31  1  0
M  CHG  3   9  -1  12  -1  14  -1
M  END
>  <UniqueID>  (43) 
41

>  <SMILES>  (43) 
C=c1[nH]c(C(=O)Nc2ccc(CN3CCCC3)cc2)c/c1=C\c1[n-]c(=O)[n-]c1[O-]

>  <Energy>  (43) 
125.35547570961538

>  <Genealogy>  (43) 
C=c1[nH]c(C(=O)Nc2ccc(CN3CCCC3)cc2)cc1=Cc1[n-]c(=O)[n-]c1[O-] (protonated)
C=c1[nH]c(C(=O)Nc2ccc(CN3CCCC3)cc2)c/c1=C\c1[n-]c(=O)[n-]c1[O-] (cis-trans isomerization)
C=c1[nH]c(C(=O)Nc2ccc(CN3CCCC3)cc2)c/c1=C\c1[n-]c(=O)[n-]c1[O-] (3D coordinates assigned)
C=c1[nH]c(C(=O)Nc2ccc(CN3CCCC3)cc2)c/c1=C\c1[n-]c(=O)[n-]c1[O-] (nonaromatic ring conformer: 125.35547570961538 kcal/mol)

>  <smiles>  (43) 
C=c1[nH]c(C(=O)Nc2ccc(CN3CCCC3)cc2)cc1=Cc1[nH]c(=O)[nH]c1O

>  <score_type>  (43) 
oracle

>  <origin>  (43) 
adg

>  <m_score__min__energy>  (43) 
-17.829999999999998

>  <m_primary>  (43) 
energy

$$$$
43:0
     RDKit          3D

 57 61  0  0  0  0  0  0  0  0999 V2000
   58.4000   28.7300   53.3880 O   0  0  0  0  0  0  0  0  0  0  0  0
   58.2520   29.5290   52.4730 C   0  0  0  0  0  0  0  0  0  0  0  0
   59.4540   29.9050   51.6430 C   0  0  0  0  0  0  0  0  0  0  0  0
   59.0630   30.9050   50.6460 N   0  0  0  0  0  0  0  0  0  0  0  0
   59.0610   30.5510   49.2510 C   0  0  0  0  0  0  0  0  0  0  0  0
   58.5230   29.4630   48.9050 O   0  0  0  0  0  0  0  0  0  0  0  0
   59.6200   31.4710   48.1630 C   0  0  0  0  0  0  0  0  0  0  0  0
   61.1370   31.6920   48.3530 C   0  0  0  0  0  0  0  0  0  0  0  0
   61.8820   32.4540   47.4230 C   0  0  0  0  0  0  0  0  0  0  0  0
   63.2370   32.7210   47.6340 C   0  0  0  0  0  0  0  0  0  0  0  0
   63.8680   32.2710   48.7930 C   0  0  0  0  0  0  0  0  0  0  0  0
   63.1400   31.5730   49.7550 C   0  0  0  0  0  0  0  0  0  0  0  0
   61.7830   31.3030   49.5490 C   0  0  0  0  0  0  0  0  0  0  0  0
   58.9450   32.8850   48.1290 C   0  0  0  0  0  0  0  0  0  0  0  0
   58.4900   33.0370   46.7260 C   0  0  0  0  0  0  0  0  0  0  0  0
   57.9070   34.1740   46.1600 C   0  0  0  0  0  0  0  0  0  0  0  0
   57.5350   34.1400   44.8070 C   0  0  0  0  0  0  0  0  0  0  0  0
   57.7460   32.9770   44.0470 C   0  0  0  0  0  0  0  0  0  0  0  0
   58.3280   31.8450   44.6360 C   0  0  0  0  0  0  0  0  0  0  0  0
   58.6990   31.9030   45.9820 C   0  0  0  0  0  0  0  0  0  0  0  0
   59.2940   30.8090   46.7820 C   0  0  0  0  0  0  0  0  0  0  0  0
   58.2740   32.0460   51.1250 C   0  0  0  0  0  0  0  0  0  0  0  0
   57.1260   31.5410   51.9640 C   0  0  0  0  0  0  0  0  0  0  0  0
   56.3410   32.3550   52.4330 O   0  0  0  0  0  0  0  0  0  0  0  0
   56.9490   30.1080   52.1650 N   0  0  0  0  0  0  0  0  0  0  0  0
   55.9120   29.8070   53.1890 C   0  0  0  0  0  0  0  0  0  0  0  0
   54.5150   29.7960   52.6060 C   0  0  0  0  0  0  0  0  0  0  0  0
   53.5490   28.9000   53.0980 C   0  0  0  0  0  0  0  0  0  0  0  0
   52.2610   28.8840   52.5560 C   0  0  0  0  0  0  0  0  0  0  0  0
   51.9270   29.7550   51.5150 C   0  0  0  0  0  0  0  0  0  0  0  0
   52.8850   30.6380   51.0100 C   0  0  0  0  0  0  0  0  0  0  0  0
   54.1740   30.6580   51.5490 C   0  0  0  0  0  0  0  0  0  0  0  0
   60.2345   30.3231   52.2957 H   0  0  0  0  0  0  0  0  0  0  0  0
   59.8433   29.0110   51.1339 H   0  0  0  0  0  0  0  0  0  0  0  0
   61.3873   32.8421   46.5204 H   0  0  0  0  0  0  0  0  0  0  0  0
   63.8076   33.2878   46.8836 H   0  0  0  0  0  0  0  0  0  0  0  0
   64.9393   32.4666   48.9480 H   0  0  0  0  0  0  0  0  0  0  0  0
   63.6334   31.2339   50.6778 H   0  0  0  0  0  0  0  0  0  0  0  0
   61.2100   30.7803   50.3290 H   0  0  0  0  0  0  0  0  0  0  0  0
   58.0922   32.9270   48.8225 H   0  0  0  0  0  0  0  0  0  0  0  0
   59.6311   33.6871   48.4387 H   0  0  0  0  0  0  0  0  0  0  0  0
   57.7427   35.0788   46.7636 H   0  0  0  0  0  0  0  0  0  0  0  0
   57.0776   35.0251   44.3408 H   0  0  0  0  0  0  0  0  0  0  0  0
   57.4538   32.9544   42.9868 H   0  0  0  0  0  0  0  0  0  0  0  0
   58.4894   30.9286   44.0494 H   0  0  0  0  0  0  0  0  0  0  0  0
   58.5781   29.9830   46.9054 H   0  0  0  0  0  0  0  0  0  0  0  0
   60.1847   30.3756   46.3036 H   0  0  0  0  0  0  0  0  0  0  0  0
   58.9118   32.7045   51.7330 H   0  0  0  0  0  0  0  0  0  0  0  0
   57.8823   32.6100   50.2657 H   0  0  0  0  0  0  0  0  0  0  0  0
   56.6390   29.7160   51.2470 H   0  0  0  0  0  0  0  0  0  0  0  0
   56.1213   28.8188   53.6246 H   0  0  0  0  0  0  0  0  0  0  0  0
   55.9522   30.5988   53.9515 H   0  0  0  0  0  0  0  0  0  0  0  0
   53.8085   28.2086   53.9132 H   0  0  0  0  0  0  0  0  0  0  0  0
   51.5086   28.1846   52.9493 H   0  0  0  0  0  0  0  0  0  0  0  0
   50.9109   29.7453   51.0937 H   0  0  0  0  0  0  0  0  0  0  0  0
   52.6239   31.3188   50.1864 H   0  0  0  0  0  0  0  0  0  0  0  0
   54.9257   31.3517   51.1443 H   0  0  0  0  0  0  0  0  0  0  0  0
  1  2  2  0
  2  3  1  0
  3  4  1  0
  4  5  1  0
  5  6  2  0
  5  7  1  0
  7  8  1  0
  8  9  2  0
  9 10  1  0
 10 11  2  0
 11 12  1  0
 12 13  2  0
  7 14  1  0
 14 15  1  0
 15 16  2  0
 16 17  1  0
 17 18  2  0
 18 19  1  0
 19 20  2  0
 20 21  1  0
  4 22  1  0
 22 23  1  0
 23 24  2  0
 23 25  1  0
 25 26  1  0
 26 27  1  0
 27 28  2  0
 28 29  1  0
 29 30  2  0
 30 31  1  0
 31 32  2  0
 25  2  1  0
 32 27  1  0
 21  7  1  0
 13  8  1  0
 20 15  1  0
  3 33  1  0
  3 34  1  0
  9 35  1  0
 10 36  1  0
 11 37  1  0
 12 38  1  0
 13 39  1  0
 14 40  1  0
 14 41  1  0
 16 42  1  0
 17 43  1  0
 18 44  1  0
 19 45  1  0
 21 46  1  0
 21 47  1  0
 22 48  1  0
 22 49  1  0
 25 50  1  0
 26 51  1  0
 26 52  1  0
 28 53  1  0
 29 54  1  0
 30 55  1  0
 31 56  1  0
 32 57  1  0
M  CHG  1  25   1
M  END
>  <UniqueID>  (44) 
42

>  <SMILES>  (44) 
O=C1CN(C(=O)C2(c3ccccc3)Cc3ccccc3C2)CC(=O)[NH+]1Cc1ccccc1

>  <Energy>  (44) 
96.29102353285953

>  <Genealogy>  (44) 
O=C1CN(C(=O)C2(c3ccccc3)Cc3ccccc3C2)CC(=O)[NH+]1Cc1ccccc1 (protonated)
O=C1CN(C(=O)C2(c3ccccc3)Cc3ccccc3C2)CC(=O)[NH+]1Cc1ccccc1 (3D coordinates assigned)
O=C1CN(C(=O)C2(c3ccccc3)Cc3ccccc3C2)CC(=O)[NH+]1Cc1ccccc1 (nonaromatic ring conformer: 96.29102353285953 kcal/mol)

>  <smiles>  (44) 
O=C1CN(C(=O)C2(c3ccccc3)Cc3ccccc3C2)CC(=O)N1Cc1ccccc1

>  <score_type>  (44) 
oracle

>  <origin>  (44) 
adg

>  <m_score__min__energy>  (44) 
-8.0399999999999991

>  <m_primary>  (44) 
energy

$$$$
44:0
     RDKit          3D

 57 60  0  0  0  0  0  0  0  0999 V2000
   57.0106   25.2341   48.3779 H   0  0  0  0  0  0  0  0  0  0  0  0
   57.0120   25.1180   47.2840 C   0  0  0  0  0  0  0  0  0  0  0  0
   58.0600   25.5200   46.6230 N   0  0  0  0  0  0  0  0  0  0  0  0
   58.1070   26.5800   45.6540 C   0  0  0  0  0  0  0  0  0  0  0  0
   58.1470   26.3130   44.2740 C   0  0  0  0  0  0  0  0  0  0  0  0
   58.1657   25.2728   43.9168 H   0  0  0  0  0  0  0  0  0  0  0  0
   58.1630   27.3650   43.3560 C   0  0  0  0  0  0  0  0  0  0  0  0
   58.2001   27.1516   42.2775 H   0  0  0  0  0  0  0  0  0  0  0  0
   58.1320   28.6880   43.8040 C   0  0  0  0  0  0  0  0  0  0  0  0
   58.1476   29.5125   43.0760 H   0  0  0  0  0  0  0  0  0  0  0  0
   58.0810   28.9710   45.1780 C   0  0  0  0  0  0  0  0  0  0  0  0
   58.0410   30.3750   45.6470 C   0  0  0  0  0  0  0  0  0  0  0  0
   57.1750   31.1550   45.1650 O   0  0  0  0  0  0  0  0  0  0  0  0
   58.9640   30.8700   46.6370 N   0  0  0  0  0  0  0  0  0  0  0  0
   58.5130   31.9110   47.5710 C   0  0  0  0  0  0  0  0  0  0  0  0
   58.2709   32.8204   47.0014 H   0  0  0  0  0  0  0  0  0  0  0  0
   57.6286   31.5329   48.1047 H   0  0  0  0  0  0  0  0  0  0  0  0
   59.5900   32.2470   48.6090 C   0  0  0  0  0  0  0  0  0  0  0  0
   59.3002   33.1600   49.1498 H   0  0  0  0  0  0  0  0  0  0  0  0
   59.6838   31.4060   49.3117 H   0  0  0  0  0  0  0  0  0  0  0  0
   60.8860   32.4650   47.9490 N   0  0  0  0  0  0  0  0  0  0  0  0
   61.7800   33.4930   48.4310 C   0  0  0  0  0  0  0  0  0  0  0  0
   61.5230   34.1020   49.5060 O   0  0  0  0  0  0  0  0  0  0  0  0
   63.0350   33.8470   47.6920 C   0  0  0  0  0  0  0  0  0  0  0  0
   63.8342   34.0724   48.4135 H   0  0  0  0  0  0  0  0  0  0  0  0
   63.3398   32.9998   47.0601 H   0  0  0  0  0  0  0  0  0  0  0  0
   62.8521   34.7286   47.0601 H   0  0  0  0  0  0  0  0  0  0  0  0
   61.3170   31.5620   46.8670 C   0  0  0  0  0  0  0  0  0  0  0  0
   61.3640   32.1304   45.9264 H   0  0  0  0  0  0  0  0  0  0  0  0
   62.3040   31.1560   47.1335 H   0  0  0  0  0  0  0  0  0  0  0  0
   60.3510   30.3860   46.6880 C   0  0  0  0  0  0  0  0  0  0  0  0
   60.5873   29.8615   45.7504 H   0  0  0  0  0  0  0  0  0  0  0  0
   60.4600   29.6997   47.5407 H   0  0  0  0  0  0  0  0  0  0  0  0
   58.0390   27.9070   46.0960 C   0  0  0  0  0  0  0  0  0  0  0  0
   57.9519   28.1190   47.1719 H   0  0  0  0  0  0  0  0  0  0  0  0
   55.8200   24.5120   46.6410 C   0  0  0  0  0  0  0  0  0  0  0  0
   54.9010   25.3340   45.9640 C   0  0  0  0  0  0  0  0  0  0  0  0
   55.1000   26.7080   45.8840 O   0  0  0  0  0  0  0  0  0  0  0  0
   53.8110   24.7920   45.3660 N   0  0  0  0  0  0  0  0  0  0  0  0
   53.5610   23.4590   45.3760 C   0  0  0  0  0  0  0  0  0  0  0  0
   52.5250   23.0260   44.8030 O   0  0  0  0  0  0  0  0  0  0  0  0
   54.4540   22.5820   46.0180 C   0  0  0  0  0  0  0  0  0  0  0  0
   54.2190   21.1950   46.0440 C   0  0  0  0  0  0  0  0  0  0  0  0
   53.3271   20.7826   45.5495 H   0  0  0  0  0  0  0  0  0  0  0  0
   55.1100   20.3390   46.6930 C   0  0  0  0  0  0  0  0  0  0  0  0
   54.9124   19.2570   46.7104 H   0  0  0  0  0  0  0  0  0  0  0  0
   56.2550   20.8470   47.3230 C   0  0  0  0  0  0  0  0  0  0  0  0
   57.1540   19.9610   48.0220 N   0  0  0  0  0  0  0  0  0  0  0  0
   56.7660   18.9890   48.0330 H   0  0  0  0  0  0  0  0  0  0  0  0
   58.0810   19.9330   47.5380 H   0  0  0  0  0  0  0  0  0  0  0  0
   57.3410   20.4180   49.4010 C   0  0  0  0  0  0  0  0  0  0  0  0
   57.0180   19.6287   50.0958 H   0  0  0  0  0  0  0  0  0  0  0  0
   58.4039   20.6441   49.5714 H   0  0  0  0  0  0  0  0  0  0  0  0
   56.7415   21.3244   49.5714 H   0  0  0  0  0  0  0  0  0  0  0  0
   56.4910   22.2310   47.3100 C   0  0  0  0  0  0  0  0  0  0  0  0
   57.3797   22.6339   47.8179 H   0  0  0  0  0  0  0  0  0  0  0  0
   55.6050   23.1130   46.6550 C   0  0  0  0  0  0  0  0  0  0  0  0
  1  2  1  0
  2  3  2  0
  3  4  1  0
  4  5  2  0
  5  6  1  0
  5  7  1  0
  7  8  1  0
  7  9  2  0
  9 10  1  0
  9 11  1  0
 11 12  1  0
 12 13  2  0
 12 14  1  0
 14 15  1  0
 15 16  1  0
 15 17  1  0
 15 18  1  0
 18 19  1  0
 18 20  1  0
 18 21  1  0
 21 22  1  0
 22 23  2  0
 22 24  1  0
 24 25  1  0
 24 26  1  0
 24 27  1  0
 21 28  1  0
 28 29  1  0
 28 30  1  0
 28 31  1  0
 31 32  1  0
 31 33  1  0
 11 34  2  0
 34 35  1  0
  2 36  1  0
 36 37  2  0
 37 38  1  0
 37 39  1  0
 39 40  1  0
 40 41  2  0
 40 42  1  0
 42 43  2  0
 43 44  1  0
 43 45  1  0
 45 46  1  0
 45 47  2  0
 47 48  1  0
 48 49  1  0
 48 50  1  0
 48 51  1  0
 51 52  1  0
 51 53  1  0
 51 54  1  0
 47 55  1  0
 55 56  1  0
 55 57  2  0
 34  4  1  0
 57 36  1  0
 31 14  1  0
 57 42  1  0
M  CHG  3  38  -1  39  -1  48   1
M  END
>  <UniqueID>  (45) 
43

>  <SMILES>  (45) 
C[NH2+]c1ccc2c(=O)[n-]c([O-])c(/C=N\c3cccc(C(=O)N4CCN(C(C)=O)CC4)c3)c2c1

>  <Energy>  (45) 
82.98796261044453

>  <Genealogy>  (45) 
C[NH2+]c1ccc2c(=O)[n-]c([O-])c(C=Nc3cccc(C(=O)N4CCN(C(C)=O)CC4)c3)c2c1 (protonated)
C[NH2+]c1ccc2c(=O)[n-]c([O-])c(/C=N\c3cccc(C(=O)N4CCN(C(C)=O)CC4)c3)c2c1 (cis-trans isomerization)
C[NH2+]c1ccc2c(=O)[n-]c([O-])c(/C=N\c3cccc(C(=O)N4CCN(C(C)=O)CC4)c3)c2c1 (3D coordinates assigned)
C[NH2+]c1ccc2c(=O)[n-]c([O-])c(/C=N\c3cccc(C(=O)N4CCN(C(C)=O)CC4)c3)c2c1 (nonaromatic ring conformer: 82.98796261044453 kcal/mol)

>  <smiles>  (45) 
CNc1ccc2c(=O)[nH]c(O)c(C=Nc3cccc(C(=O)N4CCN(C(C)=O)CC4)c3)c2c1

>  <score_type>  (45) 
oracle

>  <origin>  (45) 
adg

>  <m_score__min__energy>  (45) 
-13.82

>  <m_primary>  (45) 
energy

$$$$
45:0
     RDKit          3D

 61 65  0  0  0  0  0  0  0  0999 V2000
   55.1400   27.5010   45.4000 H   0  0  0  0  0  0  0  0  0  0  0  0
   55.0120   26.6980   46.0040 O   0  0  0  0  0  0  0  0  0  0  0  0
   55.4450   25.4370   45.6080 C   0  0  0  0  0  0  0  0  0  0  0  0
   54.6360   24.3700   45.4970 N   0  0  0  0  0  0  0  0  0  0  0  0
   55.4660   23.4150   45.0280 C   0  0  0  0  0  0  0  0  0  0  0  0
   55.0790   22.2440   44.7790 O   0  0  0  0  0  0  0  0  0  0  0  0
   56.7410   23.8160   44.8360 N   0  0  0  0  0  0  0  0  0  0  0  0
   56.7280   25.1020   45.2310 C   0  0  0  0  0  0  0  0  0  0  0  0
   57.8980   25.9910   45.1280 C   0  0  0  0  0  0  0  0  0  0  0  0
   58.3111   26.1865   44.1274 H   0  0  0  0  0  0  0  0  0  0  0  0
   58.4930   26.5790   46.1830 C   0  0  0  0  0  0  0  0  0  0  0  0
   59.3370   25.9650   47.1010 C   0  0  0  0  0  0  0  0  0  0  0  0
   59.6193   24.9021   47.1256 H   0  0  0  0  0  0  0  0  0  0  0  0
   59.7520   26.9490   47.9760 C   0  0  0  0  0  0  0  0  0  0  0  0
   60.6850   26.7230   49.1280 C   0  0  0  0  0  0  0  0  0  0  0  0
   60.1388   26.8553   50.0736 H   0  0  0  0  0  0  0  0  0  0  0  0
   61.0889   25.7011   49.0777 H   0  0  0  0  0  0  0  0  0  0  0  0
   61.5117   27.4469   49.0777 H   0  0  0  0  0  0  0  0  0  0  0  0
   59.1990   28.1380   47.6480 N   0  0  0  0  0  0  0  0  0  0  0  0
   59.4200   29.3840   48.3320 C   0  0  0  0  0  0  0  0  0  0  0  0
   58.6700   29.7060   49.4700 C   0  0  0  0  0  0  0  0  0  0  0  0
   57.9035   29.0080   49.8378 H   0  0  0  0  0  0  0  0  0  0  0  0
   58.8930   30.9100   50.1380 C   0  0  0  0  0  0  0  0  0  0  0  0
   58.3007   31.1587   51.0309 H   0  0  0  0  0  0  0  0  0  0  0  0
   59.8650   31.8010   49.6780 C   0  0  0  0  0  0  0  0  0  0  0  0
   60.0322   32.7484   50.2114 H   0  0  0  0  0  0  0  0  0  0  0  0
   60.6340   31.4970   48.5360 C   0  0  0  0  0  0  0  0  0  0  0  0
   61.6460   32.4130   48.0540 N   0  0  0  0  0  0  0  0  0  0  0  0
   62.9100   32.6310   48.7420 C   0  0  0  0  0  0  0  0  0  0  0  0
   62.7579   33.2594   49.6319 H   0  0  0  0  0  0  0  0  0  0  0  0
   63.3520   31.6838   49.0847 H   0  0  0  0  0  0  0  0  0  0  0  0
   63.8120   33.3390   47.7420 C   0  0  0  0  0  0  0  0  0  0  0  0
   64.3882   34.1328   48.2399 H   0  0  0  0  0  0  0  0  0  0  0  0
   64.5390   32.6482   47.2902 H   0  0  0  0  0  0  0  0  0  0  0  0
   62.8780   33.9360   46.6970 C   0  0  0  0  0  0  0  0  0  0  0  0
   62.6611   34.9885   46.9320 H   0  0  0  0  0  0  0  0  0  0  0  0
   63.3253   33.9170   45.6922 H   0  0  0  0  0  0  0  0  0  0  0  0
   61.5990   33.0990   46.7640 C   0  0  2  0  0  0  0  0  0  0  0  0
   61.5332   32.3779   45.9360 H   0  0  0  0  0  0  0  0  0  0  0  0
   60.3730   33.9860   46.6450 C   0  0  0  0  0  0  0  0  0  0  0  0
   60.4280   35.1550   47.1190 O   0  0  0  0  0  0  0  0  0  0  0  0
   59.1930   33.5690   45.9190 N   0  0  0  0  0  0  0  0  0  0  0  0
   58.3970   34.6000   45.2360 C   0  0  0  0  0  0  0  0  0  0  0  0
   58.3225   35.4847   45.8854 H   0  0  0  0  0  0  0  0  0  0  0  0
   58.8956   34.8552   44.2893 H   0  0  0  0  0  0  0  0  0  0  0  0
   56.9890   34.0920   44.9210 C   0  0  0  0  0  0  0  0  0  0  0  0
   56.4228   33.9919   45.8588 H   0  0  0  0  0  0  0  0  0  0  0  0
   56.4943   34.8116   44.2521 H   0  0  0  0  0  0  0  0  0  0  0  0
   57.0450   32.8370   44.2770 O   0  0  0  0  0  0  0  0  0  0  0  0
   57.5400   31.8730   45.1830 C   0  0  0  0  0  0  0  0  0  0  0  0
   56.9297   31.8930   46.0979 H   0  0  0  0  0  0  0  0  0  0  0  0
   57.4869   30.8839   44.7045 H   0  0  0  0  0  0  0  0  0  0  0  0
   59.0000   32.1590   45.5490 C   0  0  0  0  0  0  0  0  0  0  0  0
   59.2872   31.5231   46.3994 H   0  0  0  0  0  0  0  0  0  0  0  0
   59.6263   31.9421   44.6711 H   0  0  0  0  0  0  0  0  0  0  0  0
   60.4010   30.2760   47.8730 C   0  0  0  0  0  0  0  0  0  0  0  0
   60.9957   30.0187   46.9841 H   0  0  0  0  0  0  0  0  0  0  0  0
   58.4330   27.9280   46.5480 C   0  0  0  0  0  0  0  0  0  0  0  0
   57.7020   28.8820   45.9490 C   0  0  0  0  0  0  0  0  0  0  0  0
   57.7329   29.9155   46.3243 H   0  0  0  0  0  0  0  0  0  0  0  0
   57.0723   28.6299   45.0830 H   0  0  0  0  0  0  0  0  0  0  0  0
  1  2  1  0
  2  3  1  0
  3  4  1  0
  4  5  1  0
  5  6  2  0
  5  7  1  0
  7  8  1  0
  8  9  1  0
  9 10  1  0
  9 11  2  0
 11 12  1  0
 12 13  1  0
 12 14  2  0
 14 15  1  0
 15 16  1  0
 15 17  1  0
 15 18  1  0
 14 19  1  0
 19 20  1  0
 20 21  2  0
 21 22  1  0
 21 23  1  0
 23 24  1  0
 23 25  2  0
 25 26  1  0
 25 27  1  0
 27 28  1  0
 28 29  1  0
 29 30  1  0
 29 31  1  0
 29 32  1  0
 32 33  1  0
 32 34  1  0
 32 35  1  0
 35 36  1  0
 35 37  1  0
 35 38  1  0
 38 39  1  6
 38 40  1  0
 40 41  2  0
 40 42  1  0
 42 43  1  0
 43 44  1  0
 43 45  1  0
 43 46  1  0
 46 47  1  0
 46 48  1  0
 46 49  1  0
 49 50  1  0
 50 51  1  0
 50 52  1  0
 50 53  1  0
 53 54  1  0
 53 55  1  0
 27 56  2  0
 56 57  1  0
 19 58  1  0
 58 59  2  0
 59 60  1  0
 59 61  1  0
  8  3  2  0
 58 11  1  0
 56 20  1  0
 38 28  1  0
 53 42  1  0
M  CHG  2   4  -1   7  -1
M  END
>  <UniqueID>  (46) 
44

>  <SMILES>  (46) 
C=c1/c(=C/c2[n-]c(=O)[n-]c2O)cc(C)n1-c1cccc(N2CCC[C@@H]2C(=O)N2CCOCC2)c1

>  <Energy>  (46) 
140.38267069865952

>  <Genealogy>  (46) 
C=c1c(=Cc2[n-]c(=O)[n-]c2O)cc(C)n1-c1cccc(N2CCCC2C(=O)N2CCOCC2)c1 (protonated)
C=c1c(=Cc2[n-]c(=O)[n-]c2O)cc(C)n1-c1cccc(N2CCC[C@@H]2C(=O)N2CCOCC2)c1 (chirality)
C=c1/c(=C/c2[n-]c(=O)[n-]c2O)cc(C)n1-c1cccc(N2CCC[C@@H]2C(=O)N2CCOCC2)c1 (cis-trans isomerization)
C=c1/c(=C/c2[n-]c(=O)[n-]c2O)cc(C)n1-c1cccc(N2CCC[C@@H]2C(=O)N2CCOCC2)c1 (3D coordinates assigned)
C=c1/c(=C/c2[n-]c(=O)[n-]c2O)cc(C)n1-c1cccc(N2CCC[C@@H]2C(=O)N2CCOCC2)c1 (nonaromatic ring conformer: 140.38267069865952 kcal/mol)

>  <smiles>  (46) 
C=c1c(=Cc2[nH]c(=O)[nH]c2O)cc(C)n1-c1cccc(N2CCCC2C(=O)N2CCOCC2)c1

>  <score_type>  (46) 
oracle

>  <origin>  (46) 
adg

>  <m_score__min__energy>  (46) 
-14.81

>  <m_primary>  (46) 
energy

$$$$
46:0
     RDKit          3D

 61 64  0  0  0  0  0  0  0  0999 V2000
   59.9020   27.8160   46.4860 C   0  0  0  0  0  0  0  0  0  0  0  0
   58.9190   28.5730   45.9730 C   0  0  0  0  0  0  0  0  0  0  0  0
   57.9150   28.1620   45.0800 C   0  0  0  0  0  0  0  0  0  0  0  0
   57.5270   26.9320   44.6900 C   0  0  0  0  0  0  0  0  0  0  0  0
   57.0480   25.8640   45.5830 C   0  0  0  0  0  0  0  0  0  0  0  0
   57.8120   24.8660   46.0650 N   0  0  0  0  0  0  0  0  0  0  0  0
   56.9880   24.2320   46.9280 C   0  0  0  0  0  0  0  0  0  0  0  0
   57.3410   23.2150   47.5800 O   0  0  0  0  0  0  0  0  0  0  0  0
   55.7600   24.7800   47.0450 N   0  0  0  0  0  0  0  0  0  0  0  0
   55.8200   25.8200   46.1980 C   0  0  0  0  0  0  0  0  0  0  0  0
   54.7780   26.7140   45.9950 O   0  0  0  0  0  0  0  0  0  0  0  0
   57.3100   29.3190   44.6200 C   0  0  0  0  0  0  0  0  0  0  0  0
   57.8930   30.3720   45.2940 C   0  0  0  0  0  0  0  0  0  0  0  0
   57.5150   31.8110   45.1150 C   0  0  0  0  0  0  0  0  0  0  0  0
   58.8690   29.9220   46.1160 N   0  0  0  0  0  0  0  0  0  0  0  0
   59.7150   30.7380   46.9450 C   0  0  0  0  0  0  0  0  0  0  0  0
   61.1010   30.7540   46.7350 C   0  0  0  0  0  0  0  0  0  0  0  0
   61.9260   31.5490   47.5360 C   0  0  0  0  0  0  0  0  0  0  0  0
   61.3750   32.3480   48.5530 C   0  0  0  0  0  0  0  0  0  0  0  0
   62.2560   33.1840   49.3980 C   0  0  0  0  0  0  0  0  0  0  0  0
   61.8390   34.3080   49.7880 O   0  0  0  0  0  0  0  0  0  0  0  0
   63.5730   32.7440   49.7870 N   0  0  0  0  0  0  0  0  0  0  0  0
   63.8530   31.3260   50.0410 C   0  0  0  0  0  0  0  0  0  0  0  0
   64.8090   31.1940   51.2300 C   0  0  0  0  0  0  0  0  0  0  0  0
   66.0960   31.9060   51.0080 N   0  0  0  0  0  0  0  0  0  0  0  0
   66.9520   32.0780   52.2310 C   0  0  0  0  0  0  0  0  0  0  0  0
   67.4600   30.7070   52.7520 C   0  0  0  0  0  0  0  0  0  0  0  0
   68.2150   32.9000   51.8720 C   0  0  0  0  0  0  0  0  0  0  0  0
   66.1890   32.7830   53.3770 C   0  0  0  0  0  0  0  0  0  0  0  0
   65.9920   33.0980   50.1170 C   0  0  0  0  0  0  0  0  0  0  0  0
   64.5960   33.7380   50.1210 C   0  0  0  0  0  0  0  0  0  0  0  0
   59.9870   32.3120   48.7740 C   0  0  0  0  0  0  0  0  0  0  0  0
   59.1630   31.5180   47.9710 C   0  0  0  0  0  0  0  0  0  0  0  0
   60.6318   28.2585   47.1799 H   0  0  0  0  0  0  0  0  0  0  0  0
   59.9776   26.7533   46.2124 H   0  0  0  0  0  0  0  0  0  0  0  0
   57.5719   26.7070   43.6142 H   0  0  0  0  0  0  0  0  0  0  0  0
   56.5159   29.3859   43.8617 H   0  0  0  0  0  0  0  0  0  0  0  0
   57.3910   32.2829   46.1009 H   0  0  0  0  0  0  0  0  0  0  0  0
   58.3069   32.3314   44.5564 H   0  0  0  0  0  0  0  0  0  0  0  0
   56.5696   31.8750   44.5564 H   0  0  0  0  0  0  0  0  0  0  0  0
   61.5412   30.1385   45.9367 H   0  0  0  0  0  0  0  0  0  0  0  0
   63.0133   31.5494   47.3694 H   0  0  0  0  0  0  0  0  0  0  0  0
   62.9126   30.8025   50.2680 H   0  0  0  0  0  0  0  0  0  0  0  0
   64.3174   30.8807   49.1488 H   0  0  0  0  0  0  0  0  0  0  0  0
   64.3224   31.6148   52.1223 H   0  0  0  0  0  0  0  0  0  0  0  0
   65.0362   30.1255   51.3592 H   0  0  0  0  0  0  0  0  0  0  0  0
   67.4591   30.7096   53.8520 H   0  0  0  0  0  0  0  0  0  0  0  0
   66.7983   29.9079   52.3866 H   0  0  0  0  0  0  0  0  0  0  0  0
   68.4827   30.5320   52.3866 H   0  0  0  0  0  0  0  0  0  0  0  0
   68.7154   33.2257   52.7959 H   0  0  0  0  0  0  0  0  0  0  0  0
   68.9031   32.2763   51.2826 H   0  0  0  0  0  0  0  0  0  0  0  0
   67.9233   33.7818   51.2826 H   0  0  0  0  0  0  0  0  0  0  0  0
   66.5725   32.4287   54.3452 H   0  0  0  0  0  0  0  0  0  0  0  0
   66.3355   33.8705   53.3004 H   0  0  0  0  0  0  0  0  0  0  0  0
   65.1164   32.5512   53.3004 H   0  0  0  0  0  0  0  0  0  0  0  0
   66.7218   33.8496   50.4523 H   0  0  0  0  0  0  0  0  0  0  0  0
   66.1915   32.7565   49.0905 H   0  0  0  0  0  0  0  0  0  0  0  0
   64.3890   34.1482   51.1205 H   0  0  0  0  0  0  0  0  0  0  0  0
   64.5709   34.5398   49.3684 H   0  0  0  0  0  0  0  0  0  0  0  0
   59.5467   32.9123   49.5838 H   0  0  0  0  0  0  0  0  0  0  0  0
   58.0769   31.5051   48.1448 H   0  0  0  0  0  0  0  0  0  0  0  0
  1  2  2  0
  2  3  1  0
  3  4  2  3
  4  5  1  0
  5  6  1  0
  6  7  1  0
  7  8  2  0
  7  9  1  0
  9 10  1  0
 10 11  1  0
  3 12  1  0
 12 13  2  0
 13 14  1  0
 13 15  1  0
 15 16  1  0
 16 17  2  0
 17 18  1  0
 18 19  2  0
 19 20  1  0
 20 21  2  0
 20 22  1  0
 22 23  1  0
 23 24  1  0
 24 25  1  0
 25 26  1  0
 26 27  1  0
 26 28  1  0
 26 29  1  0
 25 30  1  0
 30 31  1  0
 19 32  1  0
 32 33  2  0
 15  2  1  0
 33 16  1  0
 10  5  2  0
 31 22  1  0
  1 34  1  0
  1 35  1  0
  4 36  1  0
 12 37  1  0
 14 38  1  0
 14 39  1  0
 14 40  1  0
 17 41  1  0
 18 42  1  0
 23 43  1  0
 23 44  1  0
 24 45  1  0
 24 46  1  0
 27 47  1  0
 27 48  1  0
 27 49  1  0
 28 50  1  0
 28 51  1  0
 28 52  1  0
 29 53  1  0
 29 54  1  0
 29 55  1  0
 30 56  1  0
 30 57  1  0
 31 58  1  0
 31 59  1  0
 32 60  1  0
 33 61  1  0
M  CHG  3   6  -1   9  -1  11  -1
M  END
>  <UniqueID>  (47) 
45

>  <SMILES>  (47) 
C=c1c(=Cc2[n-]c(=O)[n-]c2[O-])cc(C)n1-c1ccc(C(=O)N2CCN(C(C)(C)C)CC2)cc1

>  <Energy>  (47) 
155.11243834617198

>  <Genealogy>  (47) 
C=c1c(=Cc2[n-]c(=O)[n-]c2[O-])cc(C)n1-c1ccc(C(=O)N2CCN(C(C)(C)C)CC2)cc1 (protonated)
C=c1c(=Cc2[n-]c(=O)[n-]c2[O-])cc(C)n1-c1ccc(C(=O)N2CCN(C(C)(C)C)CC2)cc1 (3D coordinates assigned)
C=c1c(=Cc2[n-]c(=O)[n-]c2[O-])cc(C)n1-c1ccc(C(=O)N2CCN(C(C)(C)C)CC2)cc1 (nonaromatic ring conformer: 155.11243834617198 kcal/mol)

>  <smiles>  (47) 
C=c1c(=Cc2[nH]c(=O)[nH]c2O)cc(C)n1-c1ccc(C(=O)N2CCN(C(C)(C)C)CC2)cc1

>  <score_type>  (47) 
oracle

>  <origin>  (47) 
adg

>  <m_score__min__energy>  (47) 
-16.66

>  <m_primary>  (47) 
energy

$$$$
47:0
     RDKit          3D

 65 68  0  0  0  0  0  0  0  0999 V2000
   56.6000   21.7920   48.0480 C   0  0  0  0  0  0  0  0  0  0  0  0
   55.8760   23.0170   47.9940 O   0  0  0  0  0  0  0  0  0  0  0  0
   56.3470   24.1960   47.3920 C   0  0  0  0  0  0  0  0  0  0  0  0
   57.5300   24.8220   47.8210 C   0  0  0  0  0  0  0  0  0  0  0  0
   57.9560   26.0110   47.2290 C   0  0  0  0  0  0  0  0  0  0  0  0
   57.2210   26.5960   46.1860 C   0  0  0  0  0  0  0  0  0  0  0  0
   57.6810   27.8780   45.5990 C   0  0  0  0  0  0  0  0  0  0  0  0
   58.9150   28.0460   45.3960 O   0  0  0  0  0  0  0  0  0  0  0  0
   56.7510   28.9270   45.2660 N   0  0  0  0  0  0  0  0  0  0  0  0
   57.1270   30.1120   44.5450 C   0  0  0  0  0  0  0  0  0  0  0  0
   56.8650   30.2390   43.1700 C   0  0  0  0  0  0  0  0  0  0  0  0
   57.2250   31.4030   42.4890 C   0  0  0  0  0  0  0  0  0  0  0  0
   57.8460   32.4520   43.1690 C   0  0  0  0  0  0  0  0  0  0  0  0
   58.1100   32.3470   44.5450 C   0  0  0  0  0  0  0  0  0  0  0  0
   58.7630   33.4630   45.2690 C   0  0  0  0  0  0  0  0  0  0  0  0
   58.3860   34.6470   45.0510 O   0  0  0  0  0  0  0  0  0  0  0  0
   59.8380   33.2220   46.1940 N   0  0  0  0  0  0  0  0  0  0  0  0
   60.9200   34.2000   46.3220 C   0  0  0  0  0  0  0  0  0  0  0  0
   62.2390   33.4870   46.6290 C   0  0  0  0  0  0  0  0  0  0  0  0
   62.0630   32.5230   47.7270 N   0  0  0  0  0  0  0  0  0  0  0  0
   63.1280   32.2720   48.6760 C   0  0  0  0  0  0  0  0  0  0  0  0
   64.1790   33.3000   48.9750 C   0  0  0  0  0  0  0  0  0  0  0  0
   63.1960   31.1590   49.2660 O   0  0  0  0  0  0  0  0  0  0  0  0
   60.9640   31.5530   47.6000 C   0  0  0  0  0  0  0  0  0  0  0  0
   59.6520   32.2740   47.2980 C   0  0  0  0  0  0  0  0  0  0  0  0
   57.7240   31.1810   45.2310 C   0  0  0  0  0  0  0  0  0  0  0  0
   56.0390   25.9710   45.7540 C   0  0  0  0  0  0  0  0  0  0  0  0
   55.6070   24.7720   46.3430 C   0  0  0  0  0  0  0  0  0  0  0  0
   54.0690   24.0610   45.8490 S   0  0  0  0  0  0  0  0  0  0  0  0
   53.4210   23.3370   46.9940 O   0  0  0  0  0  0  0  0  0  0  0  0
   53.1430   25.1450   45.3790 O   0  0  0  0  0  0  0  0  0  0  0  0
   54.3720   22.9590   44.5530 N   0  0  0  0  0  0  0  0  0  0  0  0
   55.6420   22.3190   44.4320 C   0  0  0  0  0  0  0  0  0  0  0  0
   56.7110   23.0090   43.8440 C   0  0  0  0  0  0  0  0  0  0  0  0
   57.9720   22.4100   43.7620 C   0  0  0  0  0  0  0  0  0  0  0  0
   58.1660   21.1170   44.2610 C   0  0  0  0  0  0  0  0  0  0  0  0
   57.0990   20.4200   44.8400 C   0  0  0  0  0  0  0  0  0  0  0  0
   55.8390   21.0190   44.9310 C   0  0  0  0  0  0  0  0  0  0  0  0
   54.8100   20.3300   45.4880 F   0  0  0  0  0  0  0  0  0  0  0  0
   56.7664   21.5104   49.0983 H   0  0  0  0  0  0  0  0  0  0  0  0
   56.0232   21.0027   47.5437 H   0  0  0  0  0  0  0  0  0  0  0  0
   57.5696   21.9166   47.5437 H   0  0  0  0  0  0  0  0  0  0  0  0
   58.1242   24.3710   48.6294 H   0  0  0  0  0  0  0  0  0  0  0  0
   58.8778   26.4954   47.5833 H   0  0  0  0  0  0  0  0  0  0  0  0
   55.7650   28.8640   45.6010 H   0  0  0  0  0  0  0  0  0  0  0  0
   56.3740   29.4173   42.6281 H   0  0  0  0  0  0  0  0  0  0  0  0
   57.0186   31.4940   41.4124 H   0  0  0  0  0  0  0  0  0  0  0  0
   58.1300   33.3650   42.6251 H   0  0  0  0  0  0  0  0  0  0  0  0
   61.0190   34.7586   45.3796 H   0  0  0  0  0  0  0  0  0  0  0  0
   60.6847   34.8921   47.1440 H   0  0  0  0  0  0  0  0  0  0  0  0
   62.5790   32.9526   45.7297 H   0  0  0  0  0  0  0  0  0  0  0  0
   62.9854   34.2364   46.9311 H   0  0  0  0  0  0  0  0  0  0  0  0
   64.2881   33.4067   50.0644 H   0  0  0  0  0  0  0  0  0  0  0  0
   65.1378   32.9814   48.5399 H   0  0  0  0  0  0  0  0  0  0  0  0
   63.8817   34.2656   48.5399 H   0  0  0  0  0  0  0  0  0  0  0  0
   61.1902   30.8536   46.7817 H   0  0  0  0  0  0  0  0  0  0  0  0
   60.8604   31.0040   48.5476 H   0  0  0  0  0  0  0  0  0  0  0  0
   58.8873   31.5348   47.0174 H   0  0  0  0  0  0  0  0  0  0  0  0
   59.3304   32.8249   48.1941 H   0  0  0  0  0  0  0  0  0  0  0  0
   57.8917   31.1064   46.3156 H   0  0  0  0  0  0  0  0  0  0  0  0
   55.4464   26.4256   44.9464 H   0  0  0  0  0  0  0  0  0  0  0  0
   56.5578   24.0232   43.4465 H   0  0  0  0  0  0  0  0  0  0  0  0
   58.8113   22.9551   43.3053 H   0  0  0  0  0  0  0  0  0  0  0  0
   59.1588   20.6475   44.1981 H   0  0  0  0  0  0  0  0  0  0  0  0
   57.2520   19.4005   45.2236 H   0  0  0  0  0  0  0  0  0  0  0  0
  1  2  1  0
  2  3  1  0
  3  4  2  0
  4  5  1  0
  5  6  2  0
  6  7  1  0
  7  8  2  0
  7  9  1  0
  9 10  1  0
 10 11  2  0
 11 12  1  0
 12 13  2  0
 13 14  1  0
 14 15  1  0
 15 16  2  0
 15 17  1  0
 17 18  1  0
 18 19  1  0
 19 20  1  0
 20 21  1  0
 21 22  1  0
 21 23  2  0
 20 24  1  0
 24 25  1  0
 14 26  2  0
  6 27  1  0
 27 28  2  0
 28 29  1  0
 29 30  2  0
 29 31  2  0
 29 32  1  0
 32 33  1  0
 33 34  2  0
 34 35  1  0
 35 36  2  0
 36 37  1  0
 37 38  2  0
 38 39  1  0
 28  3  1  0
 38 33  1  0
 26 10  1  0
 25 17  1  0
  1 40  1  0
  1 41  1  0
  1 42  1  0
  4 43  1  0
  5 44  1  0
  9 45  1  0
 11 46  1  0
 12 47  1  0
 13 48  1  0
 18 49  1  0
 18 50  1  0
 19 51  1  0
 19 52  1  0
 22 53  1  0
 22 54  1  0
 22 55  1  0
 24 56  1  0
 24 57  1  0
 25 58  1  0
 25 59  1  0
 26 60  1  0
 27 61  1  0
 34 62  1  0
 35 63  1  0
 36 64  1  0
 37 65  1  0
M  CHG  1  32  -1
M  END
>  <UniqueID>  (48) 
46

>  <SMILES>  (48) 
COc1ccc(C(=O)Nc2cccc(C(=O)N3CCN(C(C)=O)CC3)c2)cc1S(=O)(=O)[N-]c1ccccc1F

>  <Energy>  (48) 
87.96893155723164

>  <Genealogy>  (48) 
COc1ccc(C(=O)Nc2cccc(C(=O)N3CCN(C(C)=O)CC3)c2)cc1S(=O)(=O)[N-]c1ccccc1F (protonated)
COc1ccc(C(=O)Nc2cccc(C(=O)N3CCN(C(C)=O)CC3)c2)cc1S(=O)(=O)[N-]c1ccccc1F (3D coordinates assigned)
COc1ccc(C(=O)Nc2cccc(C(=O)N3CCN(C(C)=O)CC3)c2)cc1S(=O)(=O)[N-]c1ccccc1F (nonaromatic ring conformer: 87.96893155723164 kcal/mol)

>  <smiles>  (48) 
COc1ccc(C(=O)Nc2cccc(C(=O)N3CCN(C(C)=O)CC3)c2)cc1S(=O)(=O)Nc1ccccc1F

>  <score_type>  (48) 
oracle

>  <origin>  (48) 
adg

>  <m_score__min__energy>  (48) 
-11.56

>  <m_primary>  (48) 
energy

$$$$
48:0
     RDKit          3D

 47 49  0  0  0  0  0  0  0  0999 V2000
   58.8010   29.8560   45.4150 C   0  0  0  0  0  0  0  0  0  0  0  0
   59.1970   30.7490   46.5040 N   0  0  0  0  0  0  0  0  0  0  0  0
   59.1520   32.1780   46.3230 C   0  0  0  0  0  0  0  0  0  0  0  0
   60.3330   32.9410   46.3900 C   0  0  0  0  0  0  0  0  0  0  0  0
   60.2870   34.3300   46.2370 C   0  0  0  0  0  0  0  0  0  0  0  0
   59.0660   34.9680   46.0030 C   0  0  0  0  0  0  0  0  0  0  0  0
   57.8910   34.2170   45.9090 C   0  0  0  0  0  0  0  0  0  0  0  0
   57.9320   32.8290   46.0650 C   0  0  0  0  0  0  0  0  0  0  0  0
   59.7670   30.0690   48.0040 S   0  0  0  0  0  0  0  0  0  0  0  0
   59.1130   28.7290   48.2050 O   0  0  0  0  0  0  0  0  0  0  0  0
   61.2600   29.8950   47.9570 O   0  0  0  0  0  0  0  0  0  0  0  0
   59.3890   31.1390   49.3530 C   0  0  0  0  0  0  0  0  0  0  0  0
   60.0740   32.3500   49.5060 C   0  0  0  0  0  0  0  0  0  0  0  0
   59.7620   33.2020   50.5650 C   0  0  0  0  0  0  0  0  0  0  0  0
   58.7620   32.8550   51.4850 C   0  0  0  0  0  0  0  0  0  0  0  0
   58.4280   33.9830   52.7970 Cl  0  0  0  0  0  0  0  0  0  0  0  0
   58.0590   31.6330   51.3460 C   0  0  0  0  0  0  0  0  0  0  0  0
   57.0350   31.2620   52.2990 N   0  0  0  0  0  0  0  0  0  0  0  0
   55.6070   31.2000   51.9910 C   0  0  0  0  0  0  0  0  0  0  0  0
   55.0230   29.9120   52.4770 C   0  0  0  0  0  0  0  0  0  0  0  0
   55.7920   28.9690   52.8100 O   0  0  0  0  0  0  0  0  0  0  0  0
   53.5950   29.7490   52.4890 N   0  0  0  0  0  0  0  0  0  0  0  0
   52.6750   30.6230   52.1820 C   0  0  0  0  0  0  0  0  0  0  0  0
   52.4110   31.0400   50.8570 C   0  0  0  0  0  0  0  0  0  0  0  0
   51.3900   31.9690   50.6140 C   0  0  0  0  0  0  0  0  0  0  0  0
   50.6450   32.4520   51.6420 N   0  0  0  0  0  0  0  0  0  0  0  0
   50.8640   32.0540   52.9260 C   0  0  0  0  0  0  0  0  0  0  0  0
   51.8800   31.1360   53.2160 C   0  0  0  0  0  0  0  0  0  0  0  0
   58.3830   30.7900   50.2630 C   0  0  0  0  0  0  0  0  0  0  0  0
   58.3888   28.9265   45.8346 H   0  0  0  0  0  0  0  0  0  0  0  0
   58.0372   30.3491   44.7958 H   0  0  0  0  0  0  0  0  0  0  0  0
   59.6793   29.6210   44.7958 H   0  0  0  0  0  0  0  0  0  0  0  0
   61.2976   32.4416   46.5637 H   0  0  0  0  0  0  0  0  0  0  0  0
   61.2126   34.9210   46.3009 H   0  0  0  0  0  0  0  0  0  0  0  0
   59.0296   36.0618   45.8927 H   0  0  0  0  0  0  0  0  0  0  0  0
   56.9325   34.7194   45.7119 H   0  0  0  0  0  0  0  0  0  0  0  0
   57.0050   32.2421   45.9856 H   0  0  0  0  0  0  0  0  0  0  0  0
   60.8601   32.6302   48.7894 H   0  0  0  0  0  0  0  0  0  0  0  0
   60.3038   34.1524   50.6795 H   0  0  0  0  0  0  0  0  0  0  0  0
   57.3070   30.9820   53.2730 H   0  0  0  0  0  0  0  0  0  0  0  0
   55.0935   32.0391   52.4832 H   0  0  0  0  0  0  0  0  0  0  0  0
   55.4747   31.2622   50.9008 H   0  0  0  0  0  0  0  0  0  0  0  0
   53.0033   30.6378   50.0219 H   0  0  0  0  0  0  0  0  0  0  0  0
   51.1912   32.3083   49.5867 H   0  0  0  0  0  0  0  0  0  0  0  0
   50.2401   32.4555   53.7381 H   0  0  0  0  0  0  0  0  0  0  0  0
   52.0543   30.8175   54.2543 H   0  0  0  0  0  0  0  0  0  0  0  0
   57.8374   29.8440   50.1308 H   0  0  0  0  0  0  0  0  0  0  0  0
  1  2  1  0
  2  3  1  0
  3  4  2  0
  4  5  1  0
  5  6  2  0
  6  7  1  0
  7  8  2  0
  2  9  1  0
  9 10  2  0
  9 11  2  0
  9 12  1  0
 12 13  2  0
 13 14  1  0
 14 15  2  0
 15 16  1  0
 15 17  1  0
 17 18  1  0
 18 19  1  0
 19 20  1  0
 20 21  2  0
 20 22  1  0
 22 23  2  3
 23 24  1  0
 24 25  2  0
 25 26  1  0
 26 27  1  0
 27 28  2  0
 17 29  2  0
  8  3  1  0
 29 12  1  0
 28 23  1  0
  1 30  1  0
  1 31  1  0
  1 32  1  0
  4 33  1  0
  5 34  1  0
  6 35  1  0
  7 36  1  0
  8 37  1  0
 13 38  1  0
 14 39  1  0
 18 40  1  0
 19 41  1  0
 19 42  1  0
 24 43  1  0
 25 44  1  0
 27 45  1  0
 28 46  1  0
 29 47  1  0
M  CHG  1  26  -1
M  END
>  <UniqueID>  (49) 
47

>  <SMILES>  (49) 
CN(c1ccccc1)S(=O)(=O)c1ccc(Cl)c(NCC(=O)N=c2cc[n-]cc2)c1

>  <Energy>  (49) 
58.62393203063993

>  <Genealogy>  (49) 
CN(c1ccccc1)S(=O)(=O)c1ccc(Cl)c(NCC(=O)N=c2cc[n-]cc2)c1 (protonated)
CN(c1ccccc1)S(=O)(=O)c1ccc(Cl)c(NCC(=O)N=c2cc[n-]cc2)c1 (3D coordinates assigned)
CN(c1ccccc1)S(=O)(=O)c1ccc(Cl)c(NCC(=O)N=c2cc[n-]cc2)c1 (optimized conformer: 58.62393203063993 kcal/mol)

>  <smiles>  (49) 
CN(c1ccccc1)S(=O)(=O)c1ccc(Cl)c(NCC(=O)N=c2cc[nH]cc2)c1

>  <score_type>  (49) 
oracle

>  <origin>  (49) 
adg

>  <m_score__min__energy>  (49) 
-11.56

>  <m_primary>  (49) 
energy

$$$$
49:0
     RDKit          3D

 50 53  0  0  0  0  0  0  0  0999 V2000
   59.8170   29.3920   44.7140 C   0  0  0  0  0  0  0  0  0  0  0  0
   59.5470   29.1110   45.9980 C   0  0  0  0  0  0  0  0  0  0  0  0
   58.7800   28.0380   46.4810 C   0  0  0  0  0  0  0  0  0  0  0  0
   57.9650   27.1740   45.8430 C   0  0  0  0  0  0  0  0  0  0  0  0
   57.2700   26.0350   46.4650 C   0  0  0  0  0  0  0  0  0  0  0  0
   57.8790   24.9460   46.9680 N   0  0  0  0  0  0  0  0  0  0  0  0
   56.8490   24.1340   47.2900 C   0  0  0  0  0  0  0  0  0  0  0  0
   57.0160   23.0020   47.8130 O   0  0  0  0  0  0  0  0  0  0  0  0
   55.6260   24.6260   46.9980 N   0  0  0  0  0  0  0  0  0  0  0  0
   55.9130   25.8240   46.4630 C   0  0  0  0  0  0  0  0  0  0  0  0
   54.9540   26.7030   45.9770 O   0  0  0  0  0  0  0  0  0  0  0  0
   58.9790   28.0060   47.8500 C   0  0  0  0  0  0  0  0  0  0  0  0
   59.7830   29.0820   48.1640 C   0  0  0  0  0  0  0  0  0  0  0  0
   60.2310   29.4260   49.5520 C   0  0  0  0  0  0  0  0  0  0  0  0
   60.1240   29.7610   47.0430 N   0  0  0  0  0  0  0  0  0  0  0  0
   60.9900   30.9510   46.9800 C   0  0  0  0  0  0  0  0  0  0  0  0
   60.1650   32.2060   46.7720 C   0  0  0  0  0  0  0  0  0  0  0  0
   58.7750   32.0730   46.5930 C   0  0  0  0  0  0  0  0  0  0  0  0
   57.9770   33.1930   46.3490 C   0  0  0  0  0  0  0  0  0  0  0  0
   58.5510   34.4600   46.2860 C   0  0  0  0  0  0  0  0  0  0  0  0
   59.9230   34.6160   46.4860 C   0  0  0  0  0  0  0  0  0  0  0  0
   60.7390   33.5050   46.7540 C   0  0  0  0  0  0  0  0  0  0  0  0
   62.1790   33.7430   46.9970 C   0  0  0  0  0  0  0  0  0  0  0  0
   62.8970   34.1120   46.0270 O   0  0  0  0  0  0  0  0  0  0  0  0
   62.7710   33.5780   48.3040 N   0  0  0  0  0  0  0  0  0  0  0  0
   62.1720   34.2310   49.4800 C   0  0  0  0  0  0  0  0  0  0  0  0
   62.3120   33.3310   50.7010 C   0  0  0  0  0  0  0  0  0  0  0  0
   63.7100   32.9910   50.9020 N   0  0  0  0  0  0  0  0  0  0  0  0
   64.5790   32.7500   49.7950 C   0  0  0  0  0  0  0  0  0  0  0  0
   65.7490   32.3350   50.0060 O   0  0  0  0  0  0  0  0  0  0  0  0
   64.1270   33.0050   48.3820 C   0  0  0  0  0  0  0  0  0  0  0  0
   60.4339   30.2667   44.4604 H   0  0  0  0  0  0  0  0  0  0  0  0
   59.4214   28.7476   43.9150 H   0  0  0  0  0  0  0  0  0  0  0  0
   57.8059   27.3337   44.7663 H   0  0  0  0  0  0  0  0  0  0  0  0
   58.5734   27.2641   48.5536 H   0  0  0  0  0  0  0  0  0  0  0  0
   59.5787   28.9251   50.2825 H   0  0  0  0  0  0  0  0  0  0  0  0
   61.2686   29.0903   49.6962 H   0  0  0  0  0  0  0  0  0  0  0  0
   60.1746   30.5151   49.6962 H   0  0  0  0  0  0  0  0  0  0  0  0
   61.5503   31.0397   47.9224 H   0  0  0  0  0  0  0  0  0  0  0  0
   61.6822   30.8392   46.1324 H   0  0  0  0  0  0  0  0  0  0  0  0
   58.3125   31.0764   46.6459 H   0  0  0  0  0  0  0  0  0  0  0  0
   56.8928   33.0739   46.2063 H   0  0  0  0  0  0  0  0  0  0  0  0
   57.9224   35.3385   46.0784 H   0  0  0  0  0  0  0  0  0  0  0  0
   60.3701   35.6196   46.4332 H   0  0  0  0  0  0  0  0  0  0  0  0
   62.6865   35.1847   49.6691 H   0  0  0  0  0  0  0  0  0  0  0  0
   61.1049   34.4157   49.2870 H   0  0  0  0  0  0  0  0  0  0  0  0
   61.9327   33.8580   51.5889 H   0  0  0  0  0  0  0  0  0  0  0  0
   61.7326   32.4096   50.5422 H   0  0  0  0  0  0  0  0  0  0  0  0
   64.8312   33.7061   47.9102 H   0  0  0  0  0  0  0  0  0  0  0  0
   64.1037   32.0346   47.8645 H   0  0  0  0  0  0  0  0  0  0  0  0
  1  2  2  0
  2  3  1  0
  3  4  2  3
  4  5  1  0
  5  6  1  0
  6  7  1  0
  7  8  2  0
  7  9  1  0
  9 10  1  0
 10 11  1  0
  3 12  1  0
 12 13  2  0
 13 14  1  0
 13 15  1  0
 15 16  1  0
 16 17  1  0
 17 18  2  0
 18 19  1  0
 19 20  2  0
 20 21  1  0
 21 22  2  0
 22 23  1  0
 23 24  2  0
 23 25  1  0
 25 26  1  0
 26 27  1  0
 27 28  1  0
 28 29  1  0
 29 30  2  0
 29 31  1  0
 15  2  1  0
 22 17  1  0
 31 25  1  0
 10  5  2  0
  1 32  1  0
  1 33  1  0
  4 34  1  0
 12 35  1  0
 14 36  1  0
 14 37  1  0
 14 38  1  0
 16 39  1  0
 16 40  1  0
 18 41  1  0
 19 42  1  0
 20 43  1  0
 21 44  1  0
 26 45  1  0
 26 46  1  0
 27 47  1  0
 27 48  1  0
 31 49  1  0
 31 50  1  0
M  CHG  4   6  -1   9  -1  11  -1  28  -1
M  END
>  <UniqueID>  (50) 
48

>  <SMILES>  (50) 
C=c1c(=Cc2[n-]c(=O)[n-]c2[O-])cc(C)n1Cc1ccccc1C(=O)N1CC[N-]C(=O)C1

>  <Energy>  (50) 
128.05142795146344

>  <Genealogy>  (50) 
C=c1c(=Cc2[n-]c(=O)[n-]c2[O-])cc(C)n1Cc1ccccc1C(=O)N1CC[N-]C(=O)C1 (protonated)
C=c1c(=Cc2[n-]c(=O)[n-]c2[O-])cc(C)n1Cc1ccccc1C(=O)N1CC[N-]C(=O)C1 (3D coordinates assigned)
C=c1c(=Cc2[n-]c(=O)[n-]c2[O-])cc(C)n1Cc1ccccc1C(=O)N1CC[N-]C(=O)C1 (nonaromatic ring conformer: 128.05142795146344 kcal/mol)

>  <smiles>  (50) 
C=c1c(=Cc2[nH]c(=O)[nH]c2O)cc(C)n1Cc1ccccc1C(=O)N1CCNC(=O)C1

>  <score_type>  (50) 
oracle

>  <origin>  (50) 
adg

>  <m_score__min__energy>  (50) 
-17.02

>  <m_primary>  (50) 
energy

$$$$
50:0
     RDKit          3D

 39 41  0  0  1  0  0  0  0  0999 V2000
   65.3810   33.8050   51.1850 C   0  0  0  0  0  0  0  0  0  0  0  0
   64.1830   33.7870   50.3650 N   0  0  0  0  0  0  0  0  0  0  0  0
   63.0470   34.4980   50.5050 C   0  0  0  0  0  0  0  0  0  0  0  0
   62.1550   34.1570   49.4870 C   0  0  0  0  0  0  0  0  0  0  0  0
   62.8130   33.2050   48.7260 C   0  0  0  0  0  0  0  0  0  0  0  0
   62.3460   32.5020   47.5320 C   0  0  0  0  0  0  0  0  0  0  0  0
   63.0660   31.5530   47.1270 O   0  0  0  0  0  0  0  0  0  0  0  0
   61.1260   32.8770   46.8580 N   0  0  0  0  0  0  0  0  0  0  0  0
   61.0330   34.2060   46.3450 C   0  0  0  0  0  0  0  0  0  0  0  0
   59.6600   34.8240   46.5070 C   0  0  0  0  0  0  0  0  0  0  0  0
   58.6720   33.8160   46.0350 C   0  0  0  0  0  0  0  0  0  0  0  0
   57.4630   34.0120   45.4420 N   0  0  0  0  0  0  0  0  0  0  0  0
   56.9350   32.8220   45.1990 N   0  0  0  0  0  0  0  0  0  0  0  0
   57.7490   31.8380   45.6080 C   0  0  0  0  0  0  0  0  0  0  0  0
   57.5980   30.5700   45.5480 N   0  0  0  0  0  0  0  0  0  0  0  0
   56.6100   29.8650   44.3510 S   0  0  0  0  0  0  0  0  0  0  0  0
   57.4200   28.5990   43.4140 C   0  0  0  0  0  0  0  0  0  0  0  0
   56.2810   30.9780   43.3670 O   0  0  0  0  0  0  0  0  0  0  0  0
   55.2890   29.3850   44.8700 O   0  0  0  0  0  0  0  0  0  0  0  0
   58.8670   32.4550   46.1470 C   0  0  0  0  0  0  0  0  0  0  0  0
   60.0990   31.8880   46.7560 C   0  0  0  0  0  0  0  0  0  0  0  0
   64.0680   32.9800   49.2750 C   0  0  0  0  0  0  0  0  0  0  0  0
   65.0979   33.8007   52.2479 H   0  0  0  0  0  0  0  0  0  0  0  0
   65.9899   32.9159   50.9642 H   0  0  0  0  0  0  0  0  0  0  0  0
   65.9629   34.7120   50.9642 H   0  0  0  0  0  0  0  0  0  0  0  0
   62.8525   35.2338   51.2992 H   0  0  0  0  0  0  0  0  0  0  0  0
   61.1442   34.5590   49.3238 H   0  0  0  0  0  0  0  0  0  0  0  0
   61.7624   34.8354   46.8758 H   0  0  0  0  0  0  0  0  0  0  0  0
   61.2360   34.1498   45.2654 H   0  0  0  0  0  0  0  0  0  0  0  0
   59.4770   35.0664   47.5642 H   0  0  0  0  0  0  0  0  0  0  0  0
   59.5777   35.7559   45.9284 H   0  0  0  0  0  0  0  0  0  0  0  0
   57.0350   34.9390   45.2200 H   0  0  0  0  0  0  0  0  0  0  0  0
   56.0100   32.6500   44.7470 H   0  0  0  0  0  0  0  0  0  0  0  0
   57.8834   27.8747   44.1001 H   0  0  0  0  0  0  0  0  0  0  0  0
   56.6833   28.0839   42.7800 H   0  0  0  0  0  0  0  0  0  0  0  0
   58.1964   29.0520   42.7800 H   0  0  0  0  0  0  0  0  0  0  0  0
   59.8618   31.5116   47.7620 H   0  0  0  0  0  0  0  0  0  0  0  0
   60.4624   31.0726   46.1133 H   0  0  0  0  0  0  0  0  0  0  0  0
   64.8283   32.2796   48.8990 H   0  0  0  0  0  0  0  0  0  0  0  0
  1  2  1  0
  2  3  1  0
  3  4  2  0
  4  5  1  0
  5  6  1  0
  6  7  2  0
  6  8  1  0
  8  9  1  0
  9 10  1  0
 10 11  1  0
 11 12  1  0
 12 13  1  0
 13 14  1  0
 14 15  2  0
 15 16  1  0
 16 17  1  0
 16 18  2  0
 16 19  2  0
 14 20  1  0
 20 21  1  0
  5 22  2  0
 22  2  1  0
 21  8  1  0
 20 11  2  0
  1 23  1  0
  1 24  1  0
  1 25  1  0
  3 26  1  0
  4 27  1  0
  9 28  1  0
  9 29  1  0
 10 30  1  0
 10 31  1  0
 12 32  1  0
 13 33  1  0
 17 34  1  0
 17 35  1  0
 17 36  1  0
 21 37  1  0
 21 38  1  0
 22 39  1  0
M  END
>  <smiles>  (51) 
Cn1ccc(C(=O)N2CCc3[nH][nH]c(=NS(C)(=O)=O)c3C2)c1

>  <score_type>  (51) 
oracle

>  <origin>  (51) 
adg

>  <m_score__min__energy>  (51) 
-7.7000000000000002

>  <m_primary>  (51) 
energy

$$$$
51:0
     RDKit          3D

 58 62  0  0  0  0  0  0  0  0999 V2000
   54.7910   31.2160   52.2940 C   0  0  0  0  0  0  0  0  0  0  0  0
   54.7120   29.9900   52.8330 C   0  0  0  0  0  0  0  0  0  0  0  0
   53.5530   29.2220   53.0360 C   0  0  0  0  0  0  0  0  0  0  0  0
   52.2490   29.5390   52.9250 C   0  0  0  0  0  0  0  0  0  0  0  0
   51.7080   30.7250   52.2430 C   0  0  0  0  0  0  0  0  0  0  0  0
   51.9680   31.0600   50.9660 N   0  0  0  0  0  0  0  0  0  0  0  0
   51.3880   32.2740   50.8370 C   0  0  0  0  0  0  0  0  0  0  0  0
   51.4040   32.9210   49.7580 O   0  0  0  0  0  0  0  0  0  0  0  0
   50.8030   32.7430   51.9590 N   0  0  0  0  0  0  0  0  0  0  0  0
   51.0270   31.7560   52.8430 C   0  0  0  0  0  0  0  0  0  0  0  0
   50.6230   31.7950   54.1740 O   0  0  0  0  0  0  0  0  0  0  0  0
   53.9860   27.9670   53.4340 C   0  0  0  0  0  0  0  0  0  0  0  0
   55.3620   28.0240   53.5170 C   0  0  0  0  0  0  0  0  0  0  0  0
   56.2410   26.8900   53.9480 C   0  0  0  0  0  0  0  0  0  0  0  0
   55.8030   29.2510   53.1650 N   0  0  0  0  0  0  0  0  0  0  0  0
   57.1840   29.6430   53.0830 C   0  0  0  0  0  0  0  0  0  0  0  0
   57.9430   29.8050   54.2500 C   0  0  0  0  0  0  0  0  0  0  0  0
   59.2750   30.2120   54.1680 C   0  0  0  0  0  0  0  0  0  0  0  0
   59.8590   30.4600   52.9220 C   0  0  0  0  0  0  0  0  0  0  0  0
   59.1140   30.2900   51.7430 C   0  0  0  0  0  0  0  0  0  0  0  0
   59.7200   30.5590   50.4190 C   0  0  0  0  0  0  0  0  0  0  0  0
   59.8380   29.6120   49.5950 O   0  0  0  0  0  0  0  0  0  0  0  0
   60.1740   31.8760   50.0460 N   0  0  0  0  0  0  0  0  0  0  0  0
   60.7820   32.7780   51.0290 C   0  0  0  0  0  0  0  0  0  0  0  0
   62.0470   33.4030   50.4330 C   0  0  0  0  0  0  0  0  0  0  0  0
   61.8100   34.0630   49.1190 N   0  0  0  0  0  0  0  0  0  0  0  0
   62.9340   34.0760   48.1430 C   0  0  0  0  0  0  0  0  0  0  0  0
   62.6120   33.5770   46.7490 C   0  0  0  0  0  0  0  0  0  0  0  0
   63.4770   32.4720   46.8740 O   0  0  0  0  0  0  0  0  0  0  0  0
   63.8500   32.8690   48.1760 C   0  0  0  0  0  0  0  0  0  0  0  0
   60.5110   33.7580   48.4720 C   0  0  0  0  0  0  0  0  0  0  0  0
   60.0960   32.2900   48.6410 C   0  0  0  0  0  0  0  0  0  0  0  0
   57.7690   29.8960   51.8340 C   0  0  0  0  0  0  0  0  0  0  0  0
   55.7686   31.7099   52.1916 H   0  0  0  0  0  0  0  0  0  0  0  0
   53.8782   31.7274   51.9544 H   0  0  0  0  0  0  0  0  0  0  0  0
   51.5245   28.8506   53.3847 H   0  0  0  0  0  0  0  0  0  0  0  0
   50.9900   31.1300   54.8430 H   0  0  0  0  0  0  0  0  0  0  0  0
   53.3531   27.0921   53.6438 H   0  0  0  0  0  0  0  0  0  0  0  0
   56.2733   26.8483   55.0467 H   0  0  0  0  0  0  0  0  0  0  0  0
   55.8377   25.9443   53.5569 H   0  0  0  0  0  0  0  0  0  0  0  0
   57.2574   27.0448   53.5569 H   0  0  0  0  0  0  0  0  0  0  0  0
   57.4877   29.6109   55.2324 H   0  0  0  0  0  0  0  0  0  0  0  0
   59.8674   30.3381   55.0862 H   0  0  0  0  0  0  0  0  0  0  0  0
   60.9068   30.7898   52.8646 H   0  0  0  0  0  0  0  0  0  0  0  0
   60.0674   33.5729   51.2887 H   0  0  0  0  0  0  0  0  0  0  0  0
   61.0442   32.2112   51.9345 H   0  0  0  0  0  0  0  0  0  0  0  0
   62.4314   34.1548   51.1380 H   0  0  0  0  0  0  0  0  0  0  0  0
   62.7673   32.5886   50.2655 H   0  0  0  0  0  0  0  0  0  0  0  0
   63.2626   35.1026   48.3625 H   0  0  0  0  0  0  0  0  0  0  0  0
   61.5569   33.2953   46.6168 H   0  0  0  0  0  0  0  0  0  0  0  0
   62.7394   34.2597   45.8959 H   0  0  0  0  0  0  0  0  0  0  0  0
   63.5830   32.1363   48.9518 H   0  0  0  0  0  0  0  0  0  0  0  0
   64.9161   33.0138   48.4053 H   0  0  0  0  0  0  0  0  0  0  0  0
   59.7358   34.3968   48.9204 H   0  0  0  0  0  0  0  0  0  0  0  0
   60.6229   33.9500   47.3947 H   0  0  0  0  0  0  0  0  0  0  0  0
   59.0618   32.1663   48.2872 H   0  0  0  0  0  0  0  0  0  0  0  0
   60.7838   31.6634   48.0542 H   0  0  0  0  0  0  0  0  0  0  0  0
   57.1698   29.7850   50.9182 H   0  0  0  0  0  0  0  0  0  0  0  0
  1  2  2  0
  2  3  1  0
  3  4  2  3
  4  5  1  0
  5  6  1  0
  6  7  1  0
  7  8  2  0
  7  9  1  0
  9 10  1  0
 10 11  1  0
  3 12  1  0
 12 13  2  0
 13 14  1  0
 13 15  1  0
 15 16  1  0
 16 17  2  0
 17 18  1  0
 18 19  2  0
 19 20  1  0
 20 21  1  0
 21 22  2  0
 21 23  1  0
 23 24  1  0
 24 25  1  0
 25 26  1  0
 26 27  1  0
 27 28  1  0
 28 29  1  0
 29 30  1  0
 26 31  1  0
 31 32  1  0
 20 33  2  0
 15  2  1  0
 33 16  1  0
 10  5  2  0
 32 23  1  0
 30 27  1  0
  1 34  1  0
  1 35  1  0
  4 36  1  0
 11 37  1  0
 12 38  1  0
 14 39  1  0
 14 40  1  0
 14 41  1  0
 17 42  1  0
 18 43  1  0
 19 44  1  0
 24 45  1  0
 24 46  1  0
 25 47  1  0
 25 48  1  0
 27 49  1  0
 28 50  1  0
 28 51  1  0
 30 52  1  0
 30 53  1  0
 31 54  1  0
 31 55  1  0
 32 56  1  0
 32 57  1  0
 33 58  1  0
M  CHG  2   6  -1   9  -1
M  END
>  <UniqueID>  (52) 
49

>  <SMILES>  (52) 
C=c1c(=Cc2[n-]c(=O)[n-]c2O)cc(C)n1-c1cccc(C(=O)N2CCN(C3COC3)CC2)c1

>  <Energy>  (52) 
219.01207634225906

>  <Genealogy>  (52) 
C=c1c(=Cc2[n-]c(=O)[n-]c2O)cc(C)n1-c1cccc(C(=O)N2CCN(C3COC3)CC2)c1 (protonated)
C=c1c(=Cc2[n-]c(=O)[n-]c2O)cc(C)n1-c1cccc(C(=O)N2CCN(C3COC3)CC2)c1 (3D coordinates assigned)
C=c1c(=Cc2[n-]c(=O)[n-]c2O)cc(C)n1-c1cccc(C(=O)N2CCN(C3COC3)CC2)c1 (nonaromatic ring conformer: 219.01207634225906 kcal/mol)

>  <smiles>  (52) 
C=c1c(=Cc2[nH]c(=O)[nH]c2O)cc(C)n1-c1cccc(C(=O)N2CCN(C3COC3)CC2)c1

>  <score_type>  (52) 
oracle

>  <origin>  (52) 
adg

>  <m_score__min__energy>  (52) 
-15.029999999999999

>  <m_primary>  (52) 
energy

$$$$
52:0
     RDKit          3D

 71 75  0  0  0  0  0  0  0  0999 V2000
   57.4106   28.1430   42.7450 H   0  0  0  0  0  0  0  0  0  0  0  0
   57.7150   28.3320   43.7850 C   0  0  0  0  0  0  0  0  0  0  0  0
   57.9150   29.6070   44.2130 N   0  0  0  0  0  0  0  0  0  0  0  0
   58.3020   29.8680   45.4890 C   0  0  0  0  0  0  0  0  0  0  0  0
   58.4490   31.1030   45.8730 N   0  0  0  0  0  0  0  0  0  0  0  0
   59.4710   31.5690   46.7680 C   0  0  0  0  0  0  0  0  0  0  0  0
   60.5010   30.6980   47.1250 C   0  0  0  0  0  0  0  0  0  0  0  0
   60.4929   29.6635   46.7511 H   0  0  0  0  0  0  0  0  0  0  0  0
   61.5410   31.1250   47.9510 C   0  0  0  0  0  0  0  0  0  0  0  0
   62.3547   30.4301   48.2057 H   0  0  0  0  0  0  0  0  0  0  0  0
   61.5590   32.4350   48.4610 C   0  0  0  0  0  0  0  0  0  0  0  0
   62.6540   32.8890   49.2930 N   0  0  0  0  0  0  0  0  0  0  0  0
   64.0040   33.0310   48.7260 C   0  0  0  0  0  0  0  0  0  0  0  0
   64.2173   32.1662   48.0806 H   0  0  0  0  0  0  0  0  0  0  0  0
   64.0462   33.9625   48.1425 H   0  0  0  0  0  0  0  0  0  0  0  0
   65.0520   33.0990   49.8360 C   0  0  0  0  0  0  0  0  0  0  0  0
   65.0483   32.1511   50.3941 H   0  0  0  0  0  0  0  0  0  0  0  0
   66.0382   33.2708   49.3800 H   0  0  0  0  0  0  0  0  0  0  0  0
   64.7600   34.2090   50.7650 N   0  0  0  0  0  0  0  0  0  0  0  0
   65.6860   34.1720   51.9060 C   0  0  0  0  0  0  0  0  0  0  0  0
   65.1126   34.1949   52.8445 H   0  0  0  0  0  0  0  0  0  0  0  0
   66.2833   33.2493   51.8637 H   0  0  0  0  0  0  0  0  0  0  0  0
   66.3550   35.0441   51.8637 H   0  0  0  0  0  0  0  0  0  0  0  0
   63.3440   34.2830   51.2170 C   0  0  0  0  0  0  0  0  0  0  0  0
   63.3334   34.2869   52.3169 H   0  0  0  0  0  0  0  0  0  0  0  0
   62.9223   35.2010   50.7817 H   0  0  0  0  0  0  0  0  0  0  0  0
   62.4620   33.1200   50.7310 C   0  0  0  0  0  0  0  0  0  0  0  0
   62.7316   32.2073   51.2826 H   0  0  0  0  0  0  0  0  0  0  0  0
   61.4075   33.3767   50.9105 H   0  0  0  0  0  0  0  0  0  0  0  0
   60.4840   33.2920   48.1530 C   0  0  0  0  0  0  0  0  0  0  0  0
   60.4639   34.3081   48.5738 H   0  0  0  0  0  0  0  0  0  0  0  0
   59.4350   32.8680   47.3150 C   0  0  0  0  0  0  0  0  0  0  0  0
   58.3420   33.6980   47.0190 O   0  0  0  0  0  0  0  0  0  0  0  0
   58.0290   34.1910   45.7200 C   0  0  0  0  0  0  0  0  0  0  0  0
   57.4414   35.1165   45.8108 H   0  0  0  0  0  0  0  0  0  0  0  0
   58.9602   34.4000   45.1730 H   0  0  0  0  0  0  0  0  0  0  0  0
   57.4437   33.4373   45.1730 H   0  0  0  0  0  0  0  0  0  0  0  0
   58.4900   28.8380   46.3580 N   0  0  0  0  0  0  0  0  0  0  0  0
   58.3210   27.5450   45.9780 C   0  0  0  0  0  0  0  0  0  0  0  0
   57.8960   27.2600   44.6660 C   0  0  0  0  0  0  0  0  0  0  0  0
   57.6810   25.8460   44.1870 C   0  0  0  0  0  0  0  0  0  0  0  0
   56.7079   25.7834   43.6780 H   0  0  0  0  0  0  0  0  0  0  0  0
   58.4964   25.5835   43.4969 H   0  0  0  0  0  0  0  0  0  0  0  0
   57.6970   24.9010   45.3060 N   0  0  0  0  0  0  0  0  0  0  0  0
   56.9820   23.6580   45.2030 C   0  0  0  0  0  0  0  0  0  0  0  0
   55.5990   23.6350   45.4500 C   0  0  0  0  0  0  0  0  0  0  0  0
   55.0800   24.5640   45.7287 H   0  0  0  0  0  0  0  0  0  0  0  0
   54.8760   22.4430   45.3450 C   0  0  0  0  0  0  0  0  0  0  0  0
   53.4610   22.4680   45.5770 N   0  0  0  0  0  0  0  0  0  0  0  0
   52.5400   23.3550   44.9350 C   0  0  0  0  0  0  0  0  0  0  0  0
   52.7700   23.7320   43.7540 O   0  0  0  0  0  0  0  0  0  0  0  0
   51.4310   23.8470   45.6330 O   0  0  0  0  0  0  0  0  0  0  0  0
   50.3550   23.0150   46.0520 C   0  0  0  0  0  0  0  0  0  0  0  0
   50.3193   22.9874   47.1511 H   0  0  0  0  0  0  0  0  0  0  0  0
   49.4076   23.4178   45.6644 H   0  0  0  0  0  0  0  0  0  0  0  0
   50.5064   21.9968   45.6644 H   0  0  0  0  0  0  0  0  0  0  0  0
   55.5380   21.2690   44.9530 C   0  0  0  0  0  0  0  0  0  0  0  0
   54.9704   20.3339   44.8374 H   0  0  0  0  0  0  0  0  0  0  0  0
   56.9120   21.2810   44.7090 C   0  0  0  0  0  0  0  0  0  0  0  0
   57.4202   20.3551   44.4016 H   0  0  0  0  0  0  0  0  0  0  0  0
   57.6500   22.4660   44.8530 C   0  0  0  0  0  0  0  0  0  0  0  0
   59.1300   22.4550   44.5830 C   0  0  0  0  0  0  0  0  0  0  0  0
   59.6768   22.4509   45.5375 H   0  0  0  0  0  0  0  0  0  0  0  0
   59.3910   21.5549   44.0071 H   0  0  0  0  0  0  0  0  0  0  0  0
   59.4043   23.3511   44.0071 H   0  0  0  0  0  0  0  0  0  0  0  0
   58.6850   25.0860   46.3700 C   0  0  0  0  0  0  0  0  0  0  0  0
   58.5494   24.3070   47.1347 H   0  0  0  0  0  0  0  0  0  0  0  0
   59.6970   25.0132   45.9450 H   0  0  0  0  0  0  0  0  0  0  0  0
   58.5010   26.4620   47.0080 C   0  0  0  0  0  0  0  0  0  0  0  0
   57.6118   26.4368   47.6551 H   0  0  0  0  0  0  0  0  0  0  0  0
   59.4088   26.6915   47.5853 H   0  0  0  0  0  0  0  0  0  0  0  0
  1  2  1  0
  2  3  2  0
  3  4  1  0
  4  5  2  0
  5  6  1  0
  6  7  2  0
  7  8  1  0
  7  9  1  0
  9 10  1  0
  9 11  2  0
 11 12  1  0
 12 13  1  0
 13 14  1  0
 13 15  1  0
 13 16  1  0
 16 17  1  0
 16 18  1  0
 16 19  1  0
 19 20  1  0
 20 21  1  0
 20 22  1  0
 20 23  1  0
 19 24  1  0
 24 25  1  0
 24 26  1  0
 24 27  1  0
 27 28  1  0
 27 29  1  0
 11 30  1  0
 30 31  1  0
 30 32  2  0
 32 33  1  0
 33 34  1  0
 34 35  1  0
 34 36  1  0
 34 37  1  0
  4 38  1  0
 38 39  1  0
 39 40  2  0
 40 41  1  0
 41 42  1  0
 41 43  1  0
 41 44  1  0
 44 45  1  0
 45 46  2  0
 46 47  1  0
 46 48  1  0
 48 49  1  0
 49 50  1  0
 50 51  2  0
 50 52  1  0
 52 53  1  0
 53 54  1  0
 53 55  1  0
 53 56  1  0
 48 57  2  0
 57 58  1  0
 57 59  1  0
 59 60  1  0
 59 61  2  0
 61 62  1  0
 62 63  1  0
 62 64  1  0
 62 65  1  0
 44 66  1  0
 66 67  1  0
 66 68  1  0
 66 69  1  0
 69 70  1  0
 69 71  1  0
 40  2  1  0
 61 45  1  0
 32  6  1  0
 69 39  1  0
 27 12  1  0
M  CHG  2  38  -1  49  -1
M  END
>  <UniqueID>  (53) 
50

>  <SMILES>  (53) 
COC(=O)[N-]c1ccc(C)c(N2CCc3[n-]/c(=N\c4ccc(N5CCN(C)CC5)cc4OC)ncc3C2)c1

>  <Energy>  (53) 
98.97897361047752

>  <Genealogy>  (53) 
COC(=O)[N-]c1ccc(C)c(N2CCc3[n-]c(=Nc4ccc(N5CCN(C)CC5)cc4OC)ncc3C2)c1 (protonated)
COC(=O)[N-]c1ccc(C)c(N2CCc3[n-]/c(=N\c4ccc(N5CCN(C)CC5)cc4OC)ncc3C2)c1 (cis-trans isomerization)
COC(=O)[N-]c1ccc(C)c(N2CCc3[n-]/c(=N\c4ccc(N5CCN(C)CC5)cc4OC)ncc3C2)c1 (3D coordinates assigned)
COC(=O)[N-]c1ccc(C)c(N2CCc3[n-]/c(=N\c4ccc(N5CCN(C)CC5)cc4OC)ncc3C2)c1 (nonaromatic ring conformer: 98.97897361047752 kcal/mol)

>  <smiles>  (53) 
COC(=O)Nc1ccc(C)c(N2CCc3[nH]c(=Nc4ccc(N5CCN(C)CC5)cc4OC)ncc3C2)c1

>  <score_type>  (53) 
oracle

>  <origin>  (53) 
adg

>  <m_score__min__energy>  (53) 
-10.81

>  <m_primary>  (53) 
energy

$$$$
53:0
     RDKit          3D

 79 83  0  0  0  0  0  0  0  0999 V2000
   57.4650   33.4220   47.2800 O   0  0  0  0  0  0  0  0  0  0  0  0
   58.4260   32.6170   47.1460 C   0  0  0  0  0  0  0  0  0  0  0  0
   58.1380   31.2130   46.6910 C   0  0  0  0  0  0  0  0  0  0  0  0
   57.7170   31.2210   45.2460 C   0  0  0  0  0  0  0  0  0  0  0  0
   56.9940   30.1400   44.7130 C   0  0  0  0  0  0  0  0  0  0  0  0
   56.6500   30.1190   43.3570 C   0  0  0  0  0  0  0  0  0  0  0  0
   57.0340   31.1680   42.5160 C   0  0  0  0  0  0  0  0  0  0  0  0
   57.7590   32.2440   43.0370 C   0  0  0  0  0  0  0  0  0  0  0  0
   58.1040   32.2700   44.3960 C   0  0  0  0  0  0  0  0  0  0  0  0
   59.7600   33.0940   47.3730 N   0  0  0  0  0  0  0  0  0  0  0  0
   60.9730   32.6160   46.7080 C   0  0  1  0  0  0  0  0  0  0  0  0
   62.0680   33.6870   46.8080 C   0  0  0  0  0  0  0  0  0  0  0  0
   62.7220   33.6640   48.1640 C   0  0  0  0  0  0  0  0  0  0  0  0
   64.0050   33.1180   48.3280 C   0  0  0  0  0  0  0  0  0  0  0  0
   64.5900   33.0600   49.5970 C   0  0  0  0  0  0  0  0  0  0  0  0
   63.8920   33.5350   50.7110 C   0  0  0  0  0  0  0  0  0  0  0  0
   62.6120   34.0720   50.5580 C   0  0  0  0  0  0  0  0  0  0  0  0
   62.0280   34.1410   49.2890 C   0  0  0  0  0  0  0  0  0  0  0  0
   61.4460   31.3420   47.3540 C   0  0  0  0  0  0  0  0  0  0  0  0
   62.5960   30.8980   47.1010 O   0  0  0  0  0  0  0  0  0  0  0  0
   60.5730   30.6370   48.2510 N   0  0  0  0  0  0  0  0  0  0  0  0
   60.9990   29.5310   49.1060 C   0  0  1  0  0  0  0  0  0  0  0  0
   60.9370   29.9120   50.6010 C   0  0  0  0  0  0  0  0  0  0  0  0
   59.7290   30.7560   50.9540 C   0  0  0  0  0  0  0  0  0  0  0  0
   58.4700   30.1570   51.1450 C   0  0  0  0  0  0  0  0  0  0  0  0
   57.3590   30.9450   51.4560 C   0  0  0  0  0  0  0  0  0  0  0  0
   57.4950   32.3310   51.5820 C   0  0  0  0  0  0  0  0  0  0  0  0
   58.7430   32.9320   51.3950 C   0  0  0  0  0  0  0  0  0  0  0  0
   59.8590   32.1490   51.0850 C   0  0  0  0  0  0  0  0  0  0  0  0
   60.1530   28.3100   48.8180 C   0  0  0  0  0  0  0  0  0  0  0  0
   60.4200   27.2220   49.3950 O   0  0  0  0  0  0  0  0  0  0  0  0
   59.1460   28.3120   47.7950 N   0  0  0  0  0  0  0  0  0  0  0  0
   58.7620   27.1920   46.9870 C   0  0  0  0  0  0  0  0  0  0  0  0
   59.6520   26.1420   46.7190 C   0  0  0  0  0  0  0  0  0  0  0  0
   59.2470   25.0580   45.9330 C   0  0  0  0  0  0  0  0  0  0  0  0
   57.9530   25.0220   45.3900 C   0  0  0  0  0  0  0  0  0  0  0  0
   57.5310   23.9050   44.5820 N   0  0  0  0  0  0  0  0  0  0  0  0
   56.4010   24.1030   43.6580 C   0  0  0  0  0  0  0  0  0  0  0  0
   56.1170   22.8590   42.8180 C   0  0  0  0  0  0  0  0  0  0  0  0
   56.2550   21.6920   43.6000 O   0  0  0  0  0  0  0  0  0  0  0  0
   57.6240   21.4960   43.8820 C   0  0  0  0  0  0  0  0  0  0  0  0
   58.1510   22.5910   44.8260 C   0  0  0  0  0  0  0  0  0  0  0  0
   57.0790   26.0960   45.6330 C   0  0  0  0  0  0  0  0  0  0  0  0
   57.4840   27.1730   46.4260 C   0  0  0  0  0  0  0  0  0  0  0  0
   59.0441   30.5996   46.8039 H   0  0  0  0  0  0  0  0  0  0  0  0
   57.3266   30.7923   47.3031 H   0  0  0  0  0  0  0  0  0  0  0  0
   56.6969   29.3058   45.3656 H   0  0  0  0  0  0  0  0  0  0  0  0
   56.0751   29.2737   42.9508 H   0  0  0  0  0  0  0  0  0  0  0  0
   56.7669   31.1468   41.4491 H   0  0  0  0  0  0  0  0  0  0  0  0
   58.0597   33.0726   42.3790 H   0  0  0  0  0  0  0  0  0  0  0  0
   58.6805   33.1161   44.7982 H   0  0  0  0  0  0  0  0  0  0  0  0
   60.7510   32.4177   45.6490 H   0  0  0  0  0  0  0  0  0  0  0  0
   62.8297   33.4958   46.0378 H   0  0  0  0  0  0  0  0  0  0  0  0
   61.6075   34.6746   46.6573 H   0  0  0  0  0  0  0  0  0  0  0  0
   64.5525   32.7341   47.4546 H   0  0  0  0  0  0  0  0  0  0  0  0
   65.5996   32.6405   49.7185 H   0  0  0  0  0  0  0  0  0  0  0  0
   64.3514   33.4858   51.7092 H   0  0  0  0  0  0  0  0  0  0  0  0
   62.0625   34.4411   51.4365 H   0  0  0  0  0  0  0  0  0  0  0  0
   61.0220   34.5701   49.1712 H   0  0  0  0  0  0  0  0  0  0  0  0
   62.0499   29.2990   48.8785 H   0  0  0  0  0  0  0  0  0  0  0  0
   60.9030   28.9874   51.1960 H   0  0  0  0  0  0  0  0  0  0  0  0
   61.8310   30.5137   50.8216 H   0  0  0  0  0  0  0  0  0  0  0  0
   58.3604   29.0667   51.0493 H   0  0  0  0  0  0  0  0  0  0  0  0
   56.3756   30.4743   51.6020 H   0  0  0  0  0  0  0  0  0  0  0  0
   56.6190   32.9489   51.8285 H   0  0  0  0  0  0  0  0  0  0  0  0
   58.8473   34.0228   51.4919 H   0  0  0  0  0  0  0  0  0  0  0  0
   60.8408   32.6244   50.9434 H   0  0  0  0  0  0  0  0  0  0  0  0
   60.6726   26.1709   47.1284 H   0  0  0  0  0  0  0  0  0  0  0  0
   59.9454   24.2304   45.7396 H   0  0  0  0  0  0  0  0  0  0  0  0
   55.5028   24.3472   44.2442 H   0  0  0  0  0  0  0  0  0  0  0  0
   56.6658   24.9206   42.9714 H   0  0  0  0  0  0  0  0  0  0  0  0
   55.0904   22.9131   42.4267 H   0  0  0  0  0  0  0  0  0  0  0  0
   56.8377   22.8182   41.9880 H   0  0  0  0  0  0  0  0  0  0  0  0
   57.7566   20.5140   44.3596 H   0  0  0  0  0  0  0  0  0  0  0  0
   58.1880   21.5430   42.9388 H   0  0  0  0  0  0  0  0  0  0  0  0
   57.9412   22.2910   45.8633 H   0  0  0  0  0  0  0  0  0  0  0  0
   59.2302   22.6955   44.6406 H   0  0  0  0  0  0  0  0  0  0  0  0
   56.0696   26.0885   45.1960 H   0  0  0  0  0  0  0  0  0  0  0  0
   56.7930   28.0091   46.6088 H   0  0  0  0  0  0  0  0  0  0  0  0
  1  2  2  0
  2  3  1  0
  3  4  1  0
  4  5  2  0
  5  6  1  0
  6  7  2  0
  7  8  1  0
  8  9  2  0
  2 10  1  0
 10 11  1  0
 11 12  1  0
 12 13  1  0
 13 14  2  0
 14 15  1  0
 15 16  2  0
 16 17  1  0
 17 18  2  0
 11 19  1  0
 19 20  2  0
 19 21  1  0
 21 22  1  0
 22 23  1  0
 23 24  1  0
 24 25  2  0
 25 26  1  0
 26 27  2  0
 27 28  1  0
 28 29  2  0
 22 30  1  0
 30 31  2  0
 30 32  1  0
 32 33  1  0
 33 34  2  0
 34 35  1  0
 35 36  2  0
 36 37  1  0
 37 38  1  0
 38 39  1  0
 39 40  1  0
 40 41  1  0
 41 42  1  0
 36 43  1  0
 43 44  2  0
  9  4  1  0
 18 13  1  0
 29 24  1  0
 44 33  1  0
 42 37  1  0
  3 45  1  0
  3 46  1  0
  5 47  1  0
  6 48  1  0
  7 49  1  0
  8 50  1  0
  9 51  1  0
 11 52  1  6
 12 53  1  0
 12 54  1  0
 14 55  1  0
 15 56  1  0
 16 57  1  0
 17 58  1  0
 18 59  1  0
 22 60  1  6
 23 61  1  0
 23 62  1  0
 25 63  1  0
 26 64  1  0
 27 65  1  0
 28 66  1  0
 29 67  1  0
 34 68  1  0
 35 69  1  0
 38 70  1  0
 38 71  1  0
 39 72  1  0
 39 73  1  0
 41 74  1  0
 41 75  1  0
 42 76  1  0
 42 77  1  0
 43 78  1  0
 44 79  1  0
M  CHG  3  10  -1  21  -1  32  -1
M  END
>  <UniqueID>  (54) 
51

>  <SMILES>  (54) 
O=C(Cc1ccccc1)[N-][C@@H](Cc1ccccc1)C(=O)[N-][C@@H](Cc1ccccc1)C(=O)[N-]c1ccc(N2CCOCC2)cc1

>  <Energy>  (54) 
87.22044793967527

>  <Genealogy>  (54) 
O=C(Cc1ccccc1)[N-]C(Cc1ccccc1)C(=O)[N-]C(Cc1ccccc1)C(=O)[N-]c1ccc(N2CCOCC2)cc1 (protonated)
O=C(Cc1ccccc1)[N-][C@@H](Cc1ccccc1)C(=O)[N-][C@@H](Cc1ccccc1)C(=O)[N-]c1ccc(N2CCOCC2)cc1 (chirality)
O=C(Cc1ccccc1)[N-][C@@H](Cc1ccccc1)C(=O)[N-][C@@H](Cc1ccccc1)C(=O)[N-]c1ccc(N2CCOCC2)cc1 (3D coordinates assigned)
O=C(Cc1ccccc1)[N-][C@@H](Cc1ccccc1)C(=O)[N-][C@@H](Cc1ccccc1)C(=O)[N-]c1ccc(N2CCOCC2)cc1 (nonaromatic ring conformer: 87.22044793967527 kcal/mol)

>  <smiles>  (54) 
O=C(Cc1ccccc1)NC(Cc1ccccc1)C(=O)NC(Cc1ccccc1)C(=O)Nc1ccc(N2CCOCC2)cc1

>  <score_type>  (54) 
oracle

>  <origin>  (54) 
adg

>  <m_score__min__energy>  (54) 
-14.57

>  <m_primary>  (54) 
energy

$$$$
54:0
     RDKit          3D

 49 52  0  0  0  0  0  0  0  0999 V2000
   56.2470   30.0580   43.1830 C   0  0  0  0  0  0  0  0  0  0  0  0
   56.8890   29.8160   44.3260 C   0  0  0  0  0  0  0  0  0  0  0  0
   56.9520   28.5950   44.8930 N   0  0  0  0  0  0  0  0  0  0  0  0
   57.6400   28.7380   46.0460 C   0  0  0  0  0  0  0  0  0  0  0  0
   57.9040   27.7690   46.9390 C   0  0  0  0  0  0  0  0  0  0  0  0
   57.3560   26.3960   46.9210 C   0  0  0  0  0  0  0  0  0  0  0  0
   57.9800   25.2910   47.3660 N   0  0  0  0  0  0  0  0  0  0  0  0
   57.0730   24.3130   47.1680 C   0  0  0  0  0  0  0  0  0  0  0  0
   57.2990   23.1090   47.4540 O   0  0  0  0  0  0  0  0  0  0  0  0
   55.9020   24.7260   46.6370 N   0  0  0  0  0  0  0  0  0  0  0  0
   56.0990   26.0460   46.4910 C   0  0  0  0  0  0  0  0  0  0  0  0
   55.1450   26.9150   45.9770 O   0  0  0  0  0  0  0  0  0  0  0  0
   58.0200   30.0590   46.2140 C   0  0  0  0  0  0  0  0  0  0  0  0
   57.5550   30.7460   45.1110 C   0  0  0  0  0  0  0  0  0  0  0  0
   57.6570   32.2300   44.9120 C   0  0  0  0  0  0  0  0  0  0  0  0
   58.5840   32.8270   45.9230 C   0  0  0  0  0  0  0  0  0  0  0  0
   59.8480   33.3470   45.6660 C   0  0  0  0  0  0  0  0  0  0  0  0
   60.4930   33.8290   46.8130 C   0  0  0  0  0  0  0  0  0  0  0  0
   59.7440   33.6690   47.9730 C   0  0  0  0  0  0  0  0  0  0  0  0
   60.1410   34.0990   49.3240 C   0  0  0  0  0  0  0  0  0  0  0  0
   59.2760   34.5770   50.1050 O   0  0  0  0  0  0  0  0  0  0  0  0
   61.4940   33.9450   49.7730 N   0  0  0  0  0  0  0  0  0  0  0  0
   61.7500   33.3930   51.1050 C   0  0  0  0  0  0  0  0  0  0  0  0
   63.2450   33.0770   51.2830 C   0  0  0  0  0  0  0  0  0  0  0  0
   63.8530   32.5600   50.0370 N   0  0  0  0  0  0  0  0  0  0  0  0
   63.3260   31.2330   49.6720 C   0  0  0  0  0  0  0  0  0  0  0  0
   63.7760   33.5240   48.9080 C   0  0  0  0  0  0  0  0  0  0  0  0
   62.6040   34.5200   49.0090 C   0  0  0  0  0  0  0  0  0  0  0  0
   58.2730   32.9560   47.5700 S   0  0  0  0  0  0  0  0  0  0  0  0
   56.2292   31.0762   42.7671 H   0  0  0  0  0  0  0  0  0  0  0  0
   55.7350   29.2395   42.6558 H   0  0  0  0  0  0  0  0  0  0  0  0
   56.5040   27.7360   44.5110 H   0  0  0  0  0  0  0  0  0  0  0  0
   58.5918   28.0209   47.7597 H   0  0  0  0  0  0  0  0  0  0  0  0
   58.5825   30.4787   47.0610 H   0  0  0  0  0  0  0  0  0  0  0  0
   58.0411   32.4351   43.9018 H   0  0  0  0  0  0  0  0  0  0  0  0
   56.6592   32.6767   45.0337 H   0  0  0  0  0  0  0  0  0  0  0  0
   60.2969   33.3770   44.6622 H   0  0  0  0  0  0  0  0  0  0  0  0
   61.4924   34.2882   46.7969 H   0  0  0  0  0  0  0  0  0  0  0  0
   61.4427   34.1262   51.8652 H   0  0  0  0  0  0  0  0  0  0  0  0
   61.1751   32.4621   51.2192 H   0  0  0  0  0  0  0  0  0  0  0  0
   63.7699   33.9971   51.5794 H   0  0  0  0  0  0  0  0  0  0  0  0
   63.3390   32.2997   52.0556 H   0  0  0  0  0  0  0  0  0  0  0  0
   63.1001   30.6641   50.5860 H   0  0  0  0  0  0  0  0  0  0  0  0
   62.4076   31.3537   49.0788 H   0  0  0  0  0  0  0  0  0  0  0  0
   64.0770   30.6907   49.0788 H   0  0  0  0  0  0  0  0  0  0  0  0
   64.7145   34.0970   48.8785 H   0  0  0  0  0  0  0  0  0  0  0  0
   63.6107   32.9315   47.9961 H   0  0  0  0  0  0  0  0  0  0  0  0
   62.9512   35.4350   49.5113 H   0  0  0  0  0  0  0  0  0  0  0  0
   62.2497   34.7502   47.9934 H   0  0  0  0  0  0  0  0  0  0  0  0
  1  2  2  0
  2  3  1  0
  3  4  1  0
  4  5  2  3
  5  6  1  0
  6  7  1  0
  7  8  1  0
  8  9  2  0
  8 10  1  0
 10 11  1  0
 11 12  1  0
  4 13  1  0
 13 14  2  0
 14 15  1  0
 15 16  1  0
 16 17  2  0
 17 18  1  0
 18 19  2  0
 19 20  1  0
 20 21  2  0
 20 22  1  0
 22 23  1  0
 23 24  1  0
 24 25  1  0
 25 26  1  0
 25 27  1  0
 27 28  1  0
 19 29  1  0
 14  2  1  0
 29 16  1  0
 11  6  2  0
 28 22  1  0
  1 30  1  0
  1 31  1  0
  3 32  1  0
  5 33  1  0
 13 34  1  0
 15 35  1  0
 15 36  1  0
 17 37  1  0
 18 38  1  0
 23 39  1  0
 23 40  1  0
 24 41  1  0
 24 42  1  0
 26 43  1  0
 26 44  1  0
 26 45  1  0
 27 46  1  0
 27 47  1  0
 28 48  1  0
 28 49  1  0
M  CHG  3   7  -1  10  -1  12  -1
M  END
>  <UniqueID>  (55) 
52

>  <SMILES>  (55) 
C=c1[nH]c(=Cc2[n-]c(=O)[n-]c2[O-])cc1Cc1ccc(C(=O)N2CCN(C)CC2)s1

>  <Energy>  (55) 
144.39715743929005

>  <Genealogy>  (55) 
C=c1[nH]c(=Cc2[n-]c(=O)[n-]c2[O-])cc1Cc1ccc(C(=O)N2CCN(C)CC2)s1 (protonated)
C=c1[nH]c(=Cc2[n-]c(=O)[n-]c2[O-])cc1Cc1ccc(C(=O)N2CCN(C)CC2)s1 (3D coordinates assigned)
C=c1[nH]c(=Cc2[n-]c(=O)[n-]c2[O-])cc1Cc1ccc(C(=O)N2CCN(C)CC2)s1 (nonaromatic ring conformer: 144.39715743929005 kcal/mol)

>  <smiles>  (55) 
C=c1[nH]c(=Cc2[nH]c(=O)[nH]c2O)cc1Cc1ccc(C(=O)N2CCN(C)CC2)s1

>  <score_type>  (55) 
oracle

>  <origin>  (55) 
adg

>  <m_score__min__energy>  (55) 
-17.620000000000001

>  <m_primary>  (55) 
energy

$$$$
55:0
     RDKit          3D

 55 57  0  0  0  0  0  0  0  0999 V2000
   57.0700   31.6140   42.0130 C   0  0  0  0  0  0  0  0  0  0  0  0
   56.8250   31.1880   43.4000 N   0  0  0  0  0  0  0  0  0  0  0  0
   57.3850   32.1670   44.3690 C   0  0  0  0  0  0  0  0  0  0  0  0
   58.5850   31.6310   45.1610 C   0  0  0  0  0  0  0  0  0  0  0  0
   58.2290   30.3580   45.8010 N   0  0  0  0  0  0  0  0  0  0  0  0
   58.7770   30.0000   47.0910 C   0  0  0  0  0  0  0  0  0  0  0  0
   59.0920   28.6620   47.3890 C   0  0  0  0  0  0  0  0  0  0  0  0
   59.6030   28.3110   48.6420 C   0  0  0  0  0  0  0  0  0  0  0  0
   59.8230   29.2940   49.6200 C   0  0  0  0  0  0  0  0  0  0  0  0
   60.3250   28.8920   50.9850 C   0  0  0  0  0  0  0  0  0  0  0  0
   59.2470   28.9920   52.0290 C   0  0  0  0  0  0  0  0  0  0  0  0
   59.2890   28.2610   53.0580 O   0  0  0  0  0  0  0  0  0  0  0  0
   58.1340   29.8710   51.8170 N   0  0  0  0  0  0  0  0  0  0  0  0
   57.0960   30.0810   52.8260 C   0  0  0  0  0  0  0  0  0  0  0  0
   56.1460   31.2120   52.4110 C   0  0  0  0  0  0  0  0  0  0  0  0
   54.7210   30.7260   52.3270 C   0  0  0  0  0  0  0  0  0  0  0  0
   54.3990   29.4150   52.7070 C   0  0  0  0  0  0  0  0  0  0  0  0
   53.0720   28.9800   52.6740 C   0  0  0  0  0  0  0  0  0  0  0  0
   52.0550   29.8510   52.2700 C   0  0  0  0  0  0  0  0  0  0  0  0
   52.3570   31.1740   51.8940 C   0  0  0  0  0  0  0  0  0  0  0  0
   51.2810   32.1030   51.4710 C   0  0  0  0  0  0  0  0  0  0  0  0
   51.0190   32.3300   50.0850 N   0  0  0  0  0  0  0  0  0  0  0  0
   50.5840   32.7040   52.3310 O   0  0  0  0  0  0  0  0  0  0  0  0
   53.6970   31.6040   51.9300 C   0  0  0  0  0  0  0  0  0  0  0  0
   59.5070   30.6350   49.3300 C   0  0  0  0  0  0  0  0  0  0  0  0
   59.6920   31.6300   50.2840 O   0  0  0  0  0  0  0  0  0  0  0  0
   58.9970   30.9820   48.0740 C   0  0  0  0  0  0  0  0  0  0  0  0
   57.3640   29.4180   45.0760 C   0  0  0  0  0  0  0  0  0  0  0  0
   57.2830   29.7930   43.5920 C   0  0  0  0  0  0  0  0  0  0  0  0
   57.6184   32.5676   42.0137 H   0  0  0  0  0  0  0  0  0  0  0  0
   57.6659   30.8487   41.4942 H   0  0  0  0  0  0  0  0  0  0  0  0
   56.1088   31.7442   41.4942 H   0  0  0  0  0  0  0  0  0  0  0  0
   57.7061   33.0607   43.8139 H   0  0  0  0  0  0  0  0  0  0  0  0
   56.5914   32.3892   45.0976 H   0  0  0  0  0  0  0  0  0  0  0  0
   59.4322   31.4720   44.4776 H   0  0  0  0  0  0  0  0  0  0  0  0
   58.8654   32.3610   45.9346 H   0  0  0  0  0  0  0  0  0  0  0  0
   58.9346   27.8835   46.6280 H   0  0  0  0  0  0  0  0  0  0  0  0
   59.8341   27.2585   48.8630 H   0  0  0  0  0  0  0  0  0  0  0  0
   60.6825   27.8526   50.9409 H   0  0  0  0  0  0  0  0  0  0  0  0
   61.1374   29.5783   51.2660 H   0  0  0  0  0  0  0  0  0  0  0  0
   58.0430   30.3630   50.8980 H   0  0  0  0  0  0  0  0  0  0  0  0
   56.5187   29.1525   52.9467 H   0  0  0  0  0  0  0  0  0  0  0  0
   57.5800   30.3601   53.7736 H   0  0  0  0  0  0  0  0  0  0  0  0
   56.2057   32.0211   53.1539 H   0  0  0  0  0  0  0  0  0  0  0  0
   56.4491   31.5736   51.4174 H   0  0  0  0  0  0  0  0  0  0  0  0
   55.1937   28.7273   53.0320 H   0  0  0  0  0  0  0  0  0  0  0  0
   52.8260   27.9486   52.9668 H   0  0  0  0  0  0  0  0  0  0  0  0
   51.0127   29.5003   52.2458 H   0  0  0  0  0  0  0  0  0  0  0  0
   50.0400   32.3500   49.7190 H   0  0  0  0  0  0  0  0  0  0  0  0
   53.9454   32.6369   51.6448 H   0  0  0  0  0  0  0  0  0  0  0  0
   58.7655   32.0344   47.8528 H   0  0  0  0  0  0  0  0  0  0  0  0
   57.7754   28.4022   45.1701 H   0  0  0  0  0  0  0  0  0  0  0  0
   56.3533   29.4612   45.5080 H   0  0  0  0  0  0  0  0  0  0  0  0
   58.2803   29.6808   43.1417 H   0  0  0  0  0  0  0  0  0  0  0  0
   56.5536   29.1250   43.1105 H   0  0  0  0  0  0  0  0  0  0  0  0
  1  2  1  0
  2  3  1  0
  3  4  1  0
  4  5  1  0
  5  6  1  0
  6  7  2  0
  7  8  1  0
  8  9  2  0
  9 10  1  0
 10 11  1  0
 11 12  2  0
 11 13  1  0
 13 14  1  0
 14 15  1  0
 15 16  1  0
 16 17  2  0
 17 18  1  0
 18 19  2  0
 19 20  1  0
 20 21  1  0
 21 22  1  0
 21 23  2  0
 20 24  2  0
  9 25  1  0
 25 26  1  0
 25 27  2  0
  5 28  1  0
 28 29  1  0
 29  2  1  0
 27  6  1  0
 24 16  1  0
  1 30  1  0
  1 31  1  0
  1 32  1  0
  3 33  1  0
  3 34  1  0
  4 35  1  0
  4 36  1  0
  7 37  1  0
  8 38  1  0
 10 39  1  0
 10 40  1  0
 13 41  1  0
 14 42  1  0
 14 43  1  0
 15 44  1  0
 15 45  1  0
 17 46  1  0
 18 47  1  0
 19 48  1  0
 22 49  1  0
 24 50  1  0
 27 51  1  0
 28 52  1  0
 28 53  1  0
 29 54  1  0
 29 55  1  0
M  CHG  2  22  -1  26  -1
M  END
>  <UniqueID>  (56) 
53

>  <SMILES>  (56) 
CN1CCN(c2ccc(CC(=O)NCCc3cccc(C([NH-])=O)c3)c([O-])c2)CC1

>  <Energy>  (56) 
60.033550541835055

>  <Genealogy>  (56) 
CN1CCN(c2ccc(CC(=O)NCCc3cccc(C([NH-])=O)c3)c([O-])c2)CC1 (protonated)
CN1CCN(c2ccc(CC(=O)NCCc3cccc(C([NH-])=O)c3)c([O-])c2)CC1 (3D coordinates assigned)
CN1CCN(c2ccc(CC(=O)NCCc3cccc(C([NH-])=O)c3)c([O-])c2)CC1 (nonaromatic ring conformer: 60.033550541835055 kcal/mol)

>  <smiles>  (56) 
CN1CCN(c2ccc(CC(=O)NCCc3cccc(C(N)=O)c3)c(O)c2)CC1

>  <score_type>  (56) 
oracle

>  <origin>  (56) 
adg

>  <m_score__min__energy>  (56) 
-12.83

>  <m_primary>  (56) 
energy

$$$$
56:0
     RDKit          3D

 39 41  0  0  0  0  0  0  0  0999 V2000
   57.8070   28.4300   44.2710 O   0  0  0  0  0  0  0  0  0  0  0  0
   57.0370   28.4830   45.2680 C   0  0  0  0  0  0  0  0  0  0  0  0
   57.3640   27.7070   46.5020 C   0  0  0  0  0  0  0  0  0  0  0  0
   56.7090   26.3580   46.4450 C   0  0  0  0  0  0  0  0  0  0  0  0
   57.3970   25.2110   46.8620 C   0  0  0  0  0  0  0  0  0  0  0  0
   56.7340   23.9820   46.8200 C   0  0  0  0  0  0  0  0  0  0  0  0
   57.3240   22.9290   47.1830 O   0  0  0  0  0  0  0  0  0  0  0  0
   55.4490   23.9200   46.3850 N   0  0  0  0  0  0  0  0  0  0  0  0
   54.7910   25.0440   45.9920 C   0  0  0  0  0  0  0  0  0  0  0  0
   53.5980   24.9680   45.6000 O   0  0  0  0  0  0  0  0  0  0  0  0
   55.4180   26.2500   46.0300 N   0  0  0  0  0  0  0  0  0  0  0  0
   55.8720   29.3120   45.2440 N   0  0  0  0  0  0  0  0  0  0  0  0
   55.1870   29.7150   44.0200 C   0  0  0  0  0  0  0  0  0  0  0  0
   56.1750   30.2840   42.9930 C   0  0  0  0  0  0  0  0  0  0  0  0
   57.0410   31.3530   43.5980 C   0  0  0  0  0  0  0  0  0  0  0  0
   57.7000   32.3150   42.8370 C   0  0  0  0  0  0  0  0  0  0  0  0
   58.5710   33.2870   43.8970 S   0  0  0  0  0  0  0  0  0  0  0  0
   58.0870   32.4520   45.2810 C   0  0  0  0  0  0  0  0  0  0  0  0
   58.5030   32.7810   46.6690 C   0  0  0  0  0  0  0  0  0  0  0  0
   58.4970   31.8040   47.6840 C   0  0  0  0  0  0  0  0  0  0  0  0
   58.8820   32.1310   48.9880 C   0  0  0  0  0  0  0  0  0  0  0  0
   59.2830   33.4330   49.2970 C   0  0  0  0  0  0  0  0  0  0  0  0
   59.7680   33.8360   50.9330 Cl  0  0  0  0  0  0  0  0  0  0  0  0
   59.3010   34.4110   48.3000 C   0  0  0  0  0  0  0  0  0  0  0  0
   58.9150   34.0900   46.9950 C   0  0  0  0  0  0  0  0  0  0  0  0
   57.2580   31.4350   44.9400 N   0  0  0  0  0  0  0  0  0  0  0  0
   58.4542   27.5804   46.5752 H   0  0  0  0  0  0  0  0  0  0  0  0
   56.9934   28.2529   47.3822 H   0  0  0  0  0  0  0  0  0  0  0  0
   58.4368   25.2767   47.2149 H   0  0  0  0  0  0  0  0  0  0  0  0
   54.6829   28.8390   43.5858 H   0  0  0  0  0  0  0  0  0  0  0  0
   54.4563   30.4979   44.2713 H   0  0  0  0  0  0  0  0  0  0  0  0
   56.8165   29.4699   42.6245 H   0  0  0  0  0  0  0  0  0  0  0  0
   55.5988   30.7307   42.1693 H   0  0  0  0  0  0  0  0  0  0  0  0
   57.6584   32.4199   41.7428 H   0  0  0  0  0  0  0  0  0  0  0  0
   58.1868   30.7752   47.4488 H   0  0  0  0  0  0  0  0  0  0  0  0
   58.8690   31.3605   49.7730 H   0  0  0  0  0  0  0  0  0  0  0  0
   59.6194   35.4357   48.5419 H   0  0  0  0  0  0  0  0  0  0  0  0
   58.9328   34.8656   46.2152 H   0  0  0  0  0  0  0  0  0  0  0  0
   56.8080   30.7820   45.6190 H   0  0  0  0  0  0  0  0  0  0  0  0
  1  2  2  0
  2  3  1  0
  3  4  1  0
  4  5  2  0
  5  6  1  0
  6  7  2  0
  6  8  1  0
  8  9  1  0
  9 10  2  0
  9 11  1  0
  2 12  1  0
 12 13  1  0
 13 14  1  0
 14 15  1  0
 15 16  2  0
 16 17  1  0
 17 18  1  0
 18 19  1  0
 19 20  2  0
 20 21  1  0
 21 22  2  0
 22 23  1  0
 22 24  1  0
 24 25  2  0
 18 26  2  0
 11  4  1  0
 26 15  1  0
 25 19  1  0
  3 27  1  0
  3 28  1  0
  5 29  1  0
 13 30  1  0
 13 31  1  0
 14 32  1  0
 14 33  1  0
 16 34  1  0
 20 35  1  0
 21 36  1  0
 24 37  1  0
 25 38  1  0
 26 39  1  0
M  CHG  4   8  -1  11  -1  12  -1  26   1
M  END
>  <UniqueID>  (57) 
54

>  <SMILES>  (57) 
O=C(Cc1cc(=O)[n-]c(=O)[n-]1)[N-]CCc1csc(-c2ccc(Cl)cc2)[nH+]1

>  <Energy>  (57) 
64.00248282335859

>  <Genealogy>  (57) 
O=C(Cc1cc(=O)[n-]c(=O)[n-]1)[N-]CCc1csc(-c2ccc(Cl)cc2)[nH+]1 (protonated)
O=C(Cc1cc(=O)[n-]c(=O)[n-]1)[N-]CCc1csc(-c2ccc(Cl)cc2)[nH+]1 (3D coordinates assigned)
O=C(Cc1cc(=O)[n-]c(=O)[n-]1)[N-]CCc1csc(-c2ccc(Cl)cc2)[nH+]1 (optimized conformer: 64.00248282335859 kcal/mol)

>  <smiles>  (57) 
O=C(Cc1cc(=O)[nH]c(=O)[nH]1)NCCc1csc(-c2ccc(Cl)cc2)n1

>  <score_type>  (57) 
oracle

>  <origin>  (57) 
adg

>  <m_score__min__energy>  (57) 
-12.859999999999999

>  <m_primary>  (57) 
energy

$$$$
57:0
     RDKit          3D

 33 35  0  0  0  0  0  0  0  0999 V2000
   57.7140   29.0330   46.0250 O   0  0  0  0  0  0  0  0  0  0  0  0
   56.6610   28.4840   45.6050 C   0  0  0  0  0  0  0  0  0  0  0  0
   55.7290   29.2830   44.8600 N   0  0  0  0  0  0  0  0  0  0  0  0
   55.9980   30.0470   43.6450 C   0  0  0  0  0  0  0  0  0  0  0  0
   56.9300   31.1840   43.9290 C   0  0  0  0  0  0  0  0  0  0  0  0
   57.3250   31.5470   45.1700 N   0  0  0  0  0  0  0  0  0  0  0  0
   58.1940   32.5950   45.1600 C   0  0  0  0  0  0  0  0  0  0  0  0
   58.7060   33.1910   46.4090 C   0  0  0  0  0  0  0  0  0  0  0  0
   57.9040   33.8290   47.1430 O   0  0  0  0  0  0  0  0  0  0  0  0
   60.0800   33.0500   46.8190 N   0  0  0  0  0  0  0  0  0  0  0  0
   61.0160   34.1680   46.8380 C   0  0  0  0  0  0  0  0  0  0  0  0
   62.4190   33.5960   46.7290 C   0  0  0  0  0  0  0  0  0  0  0  0
   62.4060   31.9550   47.5000 S   0  0  0  0  0  0  0  0  0  0  0  0
   60.6670   31.7340   47.0310 C   0  0  0  0  0  0  0  0  0  0  0  0
   58.4950   33.0840   43.8890 C   0  0  0  0  0  0  0  0  0  0  0  0
   57.6560   32.1540   42.7640 S   0  0  0  0  0  0  0  0  0  0  0  0
   56.4460   27.0500   45.8950 C   0  0  0  0  0  0  0  0  0  0  0  0
   57.4390   26.1250   46.1440 C   0  0  0  0  0  0  0  0  0  0  0  0
   56.8790   24.9260   46.3840 N   0  0  0  0  0  0  0  0  0  0  0  0
   55.5580   25.1710   46.2750 C   0  0  0  0  0  0  0  0  0  0  0  0
   54.6860   24.2790   46.4340 O   0  0  0  0  0  0  0  0  0  0  0  0
   55.2460   26.4500   45.9860 N   0  0  0  0  0  0  0  0  0  0  0  0
   56.4552   29.3841   42.8957 H   0  0  0  0  0  0  0  0  0  0  0  0
   55.0489   30.4544   43.2665 H   0  0  0  0  0  0  0  0  0  0  0  0
   56.9990   31.0720   46.0420 H   0  0  0  0  0  0  0  0  0  0  0  0
   60.8172   34.8378   45.9884 H   0  0  0  0  0  0  0  0  0  0  0  0
   60.9065   34.7470   47.7668 H   0  0  0  0  0  0  0  0  0  0  0  0
   62.7077   33.5107   45.6710 H   0  0  0  0  0  0  0  0  0  0  0  0
   63.1433   34.2529   47.2328 H   0  0  0  0  0  0  0  0  0  0  0  0
   60.6036   31.1447   46.1043 H   0  0  0  0  0  0  0  0  0  0  0  0
   60.1249   31.2006   47.8257 H   0  0  0  0  0  0  0  0  0  0  0  0
   59.1626   33.9282   43.6617 H   0  0  0  0  0  0  0  0  0  0  0  0
   58.5187   26.3351   46.1459 H   0  0  0  0  0  0  0  0  0  0  0  0
  1  2  2  0
  2  3  1  0
  3  4  1  0
  4  5  1  0
  5  6  2  0
  6  7  1  0
  7  8  1  0
  8  9  2  0
  8 10  1  0
 10 11  1  0
 11 12  1  0
 12 13  1  0
 13 14  1  0
  7 15  2  0
 15 16  1  0
  2 17  1  0
 17 18  2  0
 18 19  1  0
 19 20  1  0
 20 21  2  0
 20 22  1  0
 16  5  1  0
 22 17  1  0
 14 10  1  0
  4 23  1  0
  4 24  1  0
  6 25  1  0
 11 26  1  0
 11 27  1  0
 12 28  1  0
 12 29  1  0
 14 30  1  0
 14 31  1  0
 15 32  1  0
 18 33  1  0
M  CHG  4   3  -1   6   1  19  -1  22  -1
M  END
>  <UniqueID>  (58) 
55

>  <SMILES>  (58) 
O=C([N-]Cc1[nH+]c(C(=O)N2CCSC2)cs1)c1c[n-]c(=O)[n-]1

>  <Energy>  (58) 
88.13748401267563

>  <Genealogy>  (58) 
O=C([N-]Cc1[nH+]c(C(=O)N2CCSC2)cs1)c1c[n-]c(=O)[n-]1 (protonated)
O=C([N-]Cc1[nH+]c(C(=O)N2CCSC2)cs1)c1c[n-]c(=O)[n-]1 (3D coordinates assigned)
O=C([N-]Cc1[nH+]c(C(=O)N2CCSC2)cs1)c1c[n-]c(=O)[n-]1 (nonaromatic ring conformer: 88.13748401267563 kcal/mol)

>  <smiles>  (58) 
O=C(NCc1nc(C(=O)N2CCSC2)cs1)c1c[nH]c(=O)[nH]1

>  <score_type>  (58) 
oracle

>  <origin>  (58) 
adg

>  <m_score__min__energy>  (58) 
-11.789999999999999

>  <m_primary>  (58) 
energy

$$$$
58:0
     RDKit          3D

 53 53  0  0  0  0  0  0  0  0999 V2000
   58.0778   24.4172   43.0775 H   0  0  0  0  0  0  0  0  0  0  0  0
   57.0190   24.4650   43.3720 C   0  0  0  0  0  0  0  0  0  0  0  0
   56.5663   25.4305   43.6419 H   0  0  0  0  0  0  0  0  0  0  0  0
   56.2780   23.3430   43.4020 C   0  0  0  0  0  0  0  0  0  0  0  0
   56.8800   22.0160   43.0140 C   0  0  0  0  0  0  0  0  0  0  0  0
   57.1368   22.0272   41.9445 H   0  0  0  0  0  0  0  0  0  0  0  0
   57.7905   21.8365   43.6046 H   0  0  0  0  0  0  0  0  0  0  0  0
   55.9420   20.9890   43.2640 O   0  0  0  0  0  0  0  0  0  0  0  0
   56.2900   20.3180   44.4550 C   0  0  0  0  0  0  0  0  0  0  0  0
   55.9773   20.9209   45.3203 H   0  0  0  0  0  0  0  0  0  0  0  0
   55.7847   19.3414   44.4867 H   0  0  0  0  0  0  0  0  0  0  0  0
   57.3793   20.1684   44.4867 H   0  0  0  0  0  0  0  0  0  0  0  0
   54.8250   23.4080   43.8060 C   0  0  0  0  0  0  0  0  0  0  0  0
   54.2243   23.7325   42.9435 H   0  0  0  0  0  0  0  0  0  0  0  0
   54.5050   22.4097   44.1392 H   0  0  0  0  0  0  0  0  0  0  0  0
   54.6280   24.4010   44.9600 C   0  0  0  0  0  0  0  0  0  0  0  0
   55.3938   25.1877   44.8916 H   0  0  0  0  0  0  0  0  0  0  0  0
   53.6201   24.8343   44.8797 H   0  0  0  0  0  0  0  0  0  0  0  0
   54.7500   23.7000   46.3190 C   0  0  0  0  0  0  0  0  0  0  0  0
   54.0768   24.1874   47.0396 H   0  0  0  0  0  0  0  0  0  0  0  0
   54.4751   22.6416   46.1996 H   0  0  0  0  0  0  0  0  0  0  0  0
   58.4260   27.8190   45.3900 C   0  0  0  0  0  0  0  0  0  0  0  0
   58.1130   26.4920   45.9810 C   0  0  0  0  0  0  0  0  0  0  0  0
   58.9197   25.7446   46.0063 H   0  0  0  0  0  0  0  0  0  0  0  0
   56.9250   26.1360   46.4850 C   0  0  0  0  0  0  0  0  0  0  0  0
   56.0588   26.7818   46.2785 H   0  0  0  0  0  0  0  0  0  0  0  0
   57.7560   28.9290   45.7580 C   0  0  0  0  0  0  0  0  0  0  0  0
   58.1439   29.4978   46.6159 H   0  0  0  0  0  0  0  0  0  0  0  0
   56.1710   23.7820   46.8310 C   0  0  0  0  0  0  0  0  0  0  0  0
   56.7120   24.9230   47.3040 C   0  0  0  0  0  0  0  0  0  0  0  0
   57.0127   24.9534   48.3617 H   0  0  0  0  0  0  0  0  0  0  0  0
   56.5400   29.4370   45.0940 C   0  0  0  0  0  0  0  0  0  0  0  0
   55.5410   28.6880   44.9260 O   0  0  0  0  0  0  0  0  0  0  0  0
   56.5530   30.7670   44.5610 N   0  0  0  0  0  0  0  0  0  0  0  0
   57.4000   31.8570   44.9600 C   0  0  0  0  0  0  0  0  0  0  0  0
   57.7820   32.8750   44.0640 C   0  0  0  0  0  0  0  0  0  0  0  0
   57.4444   32.8414   43.0176 H   0  0  0  0  0  0  0  0  0  0  0  0
   58.5900   33.9280   44.5040 C   0  0  0  0  0  0  0  0  0  0  0  0
   58.9069   34.7060   43.7939 H   0  0  0  0  0  0  0  0  0  0  0  0
   58.9980   34.0000   45.8380 C   0  0  0  0  0  0  0  0  0  0  0  0
   59.9990   35.3530   46.3500 Cl  0  0  0  0  0  0  0  0  0  0  0  0
   58.5830   33.0130   46.7440 C   0  0  0  0  0  0  0  0  0  0  0  0
   59.0670   33.0690   48.4330 Cl  0  0  0  0  0  0  0  0  0  0  0  0
   57.7840   31.9500   46.3030 C   0  0  0  0  0  0  0  0  0  0  0  0
   57.4555   31.1817   47.0184 H   0  0  0  0  0  0  0  0  0  0  0  0
   57.0260   22.5460   46.7950 C   0  0  0  0  0  0  0  0  0  0  0  0
   57.2487   22.2241   47.8230 H   0  0  0  0  0  0  0  0  0  0  0  0
   56.4888   21.7438   46.2678 H   0  0  0  0  0  0  0  0  0  0  0  0
   57.9661   22.7657   46.2678 H   0  0  0  0  0  0  0  0  0  0  0  0
   59.6180   27.9730   44.4810 C   0  0  0  0  0  0  0  0  0  0  0  0
   60.5285   28.0906   45.0870 H   0  0  0  0  0  0  0  0  0  0  0  0
   59.7129   27.0797   43.8462 H   0  0  0  0  0  0  0  0  0  0  0  0
   59.4827   28.8611   43.8462 H   0  0  0  0  0  0  0  0  0  0  0  0
  1  2  1  0
  2  3  1  0
  2  4  2  0
  4  5  1  0
  5  6  1  0
  5  7  1  0
  5  8  1  0
  8  9  1  0
  9 10  1  0
  9 11  1  0
  9 12  1  0
  4 13  1  0
 13 14  1  0
 13 15  1  0
 13 16  1  0
 16 17  1  0
 16 18  1  0
 16 19  1  0
 19 20  1  0
 19 21  1  0
 19 22  1  0
 22 23  2  0
 23 24  1  0
 23 25  1  0
 25 26  1  0
 25 27  2  0
 27 28  1  0
 27 29  1  0
 29 30  2  3
 30 31  1  0
 30 32  1  0
 32 33  2  0
 32 34  1  0
 34 35  1  0
 35 36  2  0
 36 37  1  0
 36 38  1  0
 38 39  1  0
 38 40  2  0
 40 41  1  0
 40 42  1  0
 42 43  1  0
 42 44  2  0
 44 45  1  0
 29 46  1  0
 46 47  1  0
 46 48  1  0
 46 49  1  0
 22 50  1  0
 50 51  1  0
 50 52  1  0
 50 53  1  0
 44 35  1  0
M  CHG  1  34  -1
M  END
>  <UniqueID>  (59) 
56

>  <SMILES>  (59) 
C=C(CCC/C(C)=C\C=C/C(C)=CC(=O)[N-]c1ccc(Cl)c(Cl)c1)COC

>  <Energy>  (59) 
54.4744106743104

>  <Genealogy>  (59) 
C=C(CCCC(C)=CC=CC(C)=CC(=O)[N-]c1ccc(Cl)c(Cl)c1)COC (protonated)
C=C(CCC/C(C)=C\C=C/C(C)=CC(=O)[N-]c1ccc(Cl)c(Cl)c1)COC (cis-trans isomerization)
C=C(CCC/C(C)=C\C=C/C(C)=CC(=O)[N-]c1ccc(Cl)c(Cl)c1)COC (3D coordinates assigned)
C=C(CCC/C(C)=C\C=C/C(C)=CC(=O)[N-]c1ccc(Cl)c(Cl)c1)COC (optimized conformer: 54.4744106743104 kcal/mol)

>  <smiles>  (59) 
C=C(CCCC(C)=CC=CC(C)=CC(=O)Nc1ccc(Cl)c(Cl)c1)COC

>  <score_type>  (59) 
oracle

>  <origin>  (59) 
adg

>  <m_score__min__energy>  (59) 
-10.26

>  <m_primary>  (59) 
energy

$$$$
59:0
     RDKit          3D

 81 85  0  0  0  0  0  0  0  0999 V2000
   59.9170   34.5850   49.2230 C   0  0  0  0  0  0  0  0  0  0  0  0
   60.9830   33.5010   49.0000 C   0  0  2  0  0  0  0  0  0  0  0  0
   62.3900   34.0570   49.3580 C   0  0  0  0  0  0  0  0  0  0  0  0
   63.4310   33.7400   48.3640 N   0  0  0  0  0  0  0  0  0  0  0  0
   63.8710   32.3250   48.3670 C   0  0  0  0  0  0  0  0  0  0  0  0
   64.4580   31.9440   49.7030 C   0  0  0  0  0  0  0  0  0  0  0  0
   65.7980   32.2370   49.9990 C   0  0  0  0  0  0  0  0  0  0  0  0
   66.3040   32.0050   51.2840 C   0  0  0  0  0  0  0  0  0  0  0  0
   67.6280   32.3060   51.5740 O   0  0  0  0  0  0  0  0  0  0  0  0
   65.4700   31.4880   52.2820 C   0  0  0  0  0  0  0  0  0  0  0  0
   64.1350   31.1790   51.9900 C   0  0  0  0  0  0  0  0  0  0  0  0
   63.2230   30.7290   53.0520 C   0  0  0  0  0  0  0  0  0  0  0  0
   63.2710   29.5200   53.4170 O   0  0  0  0  0  0  0  0  0  0  0  0
   62.2300   31.6230   53.6060 N   0  0  0  0  0  0  0  0  0  0  0  0
   61.3880   31.2080   54.7350 C   0  0  0  0  0  0  0  0  0  0  0  0
   59.9300   31.0950   54.2710 C   0  0  0  0  0  0  0  0  0  0  0  0
   59.4510   32.2700   53.3470 C   0  0  0  0  0  0  0  0  0  0  0  0
   59.0750   31.7310   51.9980 N   0  0  0  0  0  0  0  0  0  0  0  0
   58.9290   30.2490   51.9960 C   0  0  0  0  0  0  0  0  0  0  0  0
   57.6130   29.7720   52.6420 C   0  0  0  0  0  0  0  0  0  0  0  0
   56.4050   30.4540   52.0020 C   0  0  0  0  0  0  0  0  0  0  0  0
   56.5830   31.9720   51.9990 C   0  0  0  0  0  0  0  0  0  0  0  0
   57.9060   32.3450   51.3210 C   0  0  0  0  0  0  0  0  0  0  0  0
   60.5200   33.4030   53.3170 C   0  0  0  0  0  0  0  0  0  0  0  0
   61.9030   32.8760   52.9070 C   0  0  0  0  0  0  0  0  0  0  0  0
   63.6360   31.3930   50.6980 C   0  0  0  0  0  0  0  0  0  0  0  0
   62.9960   34.1980   47.0340 C   0  0  0  0  0  0  0  0  0  0  0  0
   61.7620   33.4370   46.5320 C   0  0  0  0  0  0  0  0  0  0  0  0
   60.8840   32.9660   47.6220 N   0  0  0  0  0  0  0  0  0  0  0  0
   59.8230   32.0240   47.3180 C   0  0  0  0  0  0  0  0  0  0  0  0
   59.5770   31.0750   48.1100 O   0  0  0  0  0  0  0  0  0  0  0  0
   59.0090   32.1200   46.0890 C   0  0  0  0  0  0  0  0  0  0  0  0
   58.9140   33.3450   45.4080 C   0  0  0  0  0  0  0  0  0  0  0  0
   58.1160   33.4560   44.2670 C   0  0  0  0  0  0  0  0  0  0  0  0
   57.3970   32.3500   43.8050 C   0  0  0  0  0  0  0  0  0  0  0  0
   57.4610   31.1290   44.4930 C   0  0  0  0  0  0  0  0  0  0  0  0
   56.5550   29.7380   43.9070 S   0  0  0  0  0  0  0  0  0  0  0  0
   57.6210   28.3900   43.7100 N   0  0  0  0  0  0  0  0  0  0  0  0
   55.9120   30.0710   42.5880 O   0  0  0  0  0  0  0  0  0  0  0  0
   55.4760   29.3760   44.8920 O   0  0  0  0  0  0  0  0  0  0  0  0
   58.2640   31.0210   45.6370 C   0  0  0  0  0  0  0  0  0  0  0  0
   59.7682   34.7363   50.3023 H   0  0  0  0  0  0  0  0  0  0  0  0
   60.2502   35.5271   48.7632 H   0  0  0  0  0  0  0  0  0  0  0  0
   58.9695   34.2676   48.7632 H   0  0  0  0  0  0  0  0  0  0  0  0
   60.8077   32.6490   49.6733 H   0  0  0  0  0  0  0  0  0  0  0  0
   62.3174   35.1511   49.4458 H   0  0  0  0  0  0  0  0  0  0  0  0
   62.6922   33.5754   50.2997 H   0  0  0  0  0  0  0  0  0  0  0  0
   63.0059   31.6789   48.1568 H   0  0  0  0  0  0  0  0  0  0  0  0
   64.6443   32.1970   47.5953 H   0  0  0  0  0  0  0  0  0  0  0  0
   66.4536   32.6506   49.2185 H   0  0  0  0  0  0  0  0  0  0  0  0
   65.8629   31.3242   53.2963 H   0  0  0  0  0  0  0  0  0  0  0  0
   61.7306   30.2318   55.1086 H   0  0  0  0  0  0  0  0  0  0  0  0
   61.4599   31.9543   55.5399 H   0  0  0  0  0  0  0  0  0  0  0  0
   59.8179   30.1525   53.7151 H   0  0  0  0  0  0  0  0  0  0  0  0
   59.3080   31.1347   55.1774 H   0  0  0  0  0  0  0  0  0  0  0  0
   58.5412   32.7374   53.7518 H   0  0  0  0  0  0  0  0  0  0  0  0
   58.9565   29.8956   50.9547 H   0  0  0  0  0  0  0  0  0  0  0  0
   59.7563   29.8363   52.5920 H   0  0  0  0  0  0  0  0  0  0  0  0
   57.5223   28.6837   52.5102 H   0  0  0  0  0  0  0  0  0  0  0  0
   57.6348   30.0325   53.7105 H   0  0  0  0  0  0  0  0  0  0  0  0
   56.2973   30.1006   50.9659 H   0  0  0  0  0  0  0  0  0  0  0  0
   55.5064   30.2036   52.5849 H   0  0  0  0  0  0  0  0  0  0  0  0
   55.7496   32.4351   51.4504 H   0  0  0  0  0  0  0  0  0  0  0  0
   56.5950   32.3355   53.0371 H   0  0  0  0  0  0  0  0  0  0  0  0
   57.8791   31.9991   50.2772 H   0  0  0  0  0  0  0  0  0  0  0  0
   58.0183   33.4378   51.3776 H   0  0  0  0  0  0  0  0  0  0  0  0
   60.2040   34.1708   52.5955 H   0  0  0  0  0  0  0  0  0  0  0  0
   60.6018   33.8209   54.3312 H   0  0  0  0  0  0  0  0  0  0  0  0
   61.9088   32.6926   51.8224 H   0  0  0  0  0  0  0  0  0  0  0  0
   62.6554   33.6306   53.1798 H   0  0  0  0  0  0  0  0  0  0  0  0
   62.5947   31.1277   50.4627 H   0  0  0  0  0  0  0  0  0  0  0  0
   62.7523   35.2692   47.0908 H   0  0  0  0  0  0  0  0  0  0  0  0
   63.8180   34.0104   46.3275 H   0  0  0  0  0  0  0  0  0  0  0  0
   61.1810   34.1053   45.8795 H   0  0  0  0  0  0  0  0  0  0  0  0
   62.1233   32.5468   45.9963 H   0  0  0  0  0  0  0  0  0  0  0  0
   59.4702   34.2203   45.7748 H   0  0  0  0  0  0  0  0  0  0  0  0
   58.0533   34.4148   43.7315 H   0  0  0  0  0  0  0  0  0  0  0  0
   56.7791   32.4372   42.8992 H   0  0  0  0  0  0  0  0  0  0  0  0
   58.2760   28.6300   42.9320 H   0  0  0  0  0  0  0  0  0  0  0  0
   57.0380   27.5880   43.3780 H   0  0  0  0  0  0  0  0  0  0  0  0
   58.3101   30.0677   46.1839 H   0  0  0  0  0  0  0  0  0  0  0  0
  1  2  1  0
  2  3  1  0
  3  4  1  0
  4  5  1  0
  5  6  1  0
  6  7  2  0
  7  8  1  0
  8  9  1  0
  8 10  2  0
 10 11  1  0
 11 12  1  0
 12 13  2  0
 12 14  1  0
 14 15  1  0
 15 16  1  0
 16 17  1  0
 17 18  1  0
 18 19  1  0
 19 20  1  0
 20 21  1  0
 21 22  1  0
 22 23  1  0
 17 24  1  0
 24 25  1  0
 11 26  2  0
  4 27  1  0
 27 28  1  0
 28 29  1  0
 29 30  1  0
 30 31  2  0
 30 32  1  0
 32 33  2  0
 33 34  1  0
 34 35  2  0
 35 36  1  0
 36 37  1  0
 37 38  1  0
 37 39  2  0
 37 40  2  0
 36 41  2  0
 29  2  1  0
 41 32  1  0
 26  6  1  0
 25 14  1  0
 23 18  1  0
  1 42  1  0
  1 43  1  0
  1 44  1  0
  2 45  1  1
  3 46  1  0
  3 47  1  0
  5 48  1  0
  5 49  1  0
  7 50  1  0
 10 51  1  0
 15 52  1  0
 15 53  1  0
 16 54  1  0
 16 55  1  0
 17 56  1  0
 19 57  1  0
 19 58  1  0
 20 59  1  0
 20 60  1  0
 21 61  1  0
 21 62  1  0
 22 63  1  0
 22 64  1  0
 23 65  1  0
 23 66  1  0
 24 67  1  0
 24 68  1  0
 25 69  1  0
 25 70  1  0
 26 71  1  0
 27 72  1  0
 27 73  1  0
 28 74  1  0
 28 75  1  0
 33 76  1  0
 34 77  1  0
 35 78  1  0
 38 79  1  0
 38 80  1  0
 41 81  1  0
M  CHG  1   9  -1
M  END
>  <UniqueID>  (60) 
57

>  <SMILES>  (60) 
C[C@@H]1CN(Cc2cc([O-])cc(C(=O)N3CCC(N4CCCCC4)CC3)c2)CCN1C(=O)c1cccc(S(N)(=O)=O)c1

>  <Energy>  (60) 
112.37593770604919

>  <Genealogy>  (60) 
CC1CN(Cc2cc([O-])cc(C(=O)N3CCC(N4CCCCC4)CC3)c2)CCN1C(=O)c1cccc(S(N)(=O)=O)c1 (protonated)
C[C@@H]1CN(Cc2cc([O-])cc(C(=O)N3CCC(N4CCCCC4)CC3)c2)CCN1C(=O)c1cccc(S(N)(=O)=O)c1 (chirality)
C[C@@H]1CN(Cc2cc([O-])cc(C(=O)N3CCC(N4CCCCC4)CC3)c2)CCN1C(=O)c1cccc(S(N)(=O)=O)c1 (3D coordinates assigned)
C[C@@H]1CN(Cc2cc([O-])cc(C(=O)N3CCC(N4CCCCC4)CC3)c2)CCN1C(=O)c1cccc(S(N)(=O)=O)c1 (nonaromatic ring conformer: 112.37593770604919 kcal/mol)

>  <smiles>  (60) 
CC1CN(Cc2cc(O)cc(C(=O)N3CCC(N4CCCCC4)CC3)c2)CCN1C(=O)c1cccc(S(N)(=O)=O)c1

>  <score_type>  (60) 
oracle

>  <origin>  (60) 
adg

>  <m_score__min__energy>  (60) 
-13.029999999999999

>  <m_primary>  (60) 
energy

$$$$
60:0
     RDKit          3D

 43 45  0  0  0  0  0  0  0  0999 V2000
   55.1190   27.4530   46.7440 H   0  0  0  0  0  0  0  0  0  0  0  0
   55.1400   26.6520   46.1250 O   0  0  0  0  0  0  0  0  0  0  0  0
   56.0570   25.6260   46.3240 C   0  0  0  0  0  0  0  0  0  0  0  0
   55.8460   24.5820   47.1440 N   0  0  0  0  0  0  0  0  0  0  0  0
   56.9800   23.8640   47.0030 C   0  0  0  0  0  0  0  0  0  0  0  0
   57.1800   22.7850   47.6180 O   0  0  0  0  0  0  0  0  0  0  0  0
   57.8810   24.3920   46.1480 N   0  0  0  0  0  0  0  0  0  0  0  0
   57.2910   25.5230   45.7230 C   0  0  0  0  0  0  0  0  0  0  0  0
   57.8370   26.4690   44.7250 C   0  0  0  0  0  0  0  0  0  0  0  0
   57.9170   26.1123   43.6875 H   0  0  0  0  0  0  0  0  0  0  0  0
   58.2460   27.7320   44.9750 C   0  0  0  0  0  0  0  0  0  0  0  0
   59.1300   28.1420   45.9630 C   0  0  0  0  0  0  0  0  0  0  0  0
   59.6322   27.4993   46.7011 H   0  0  0  0  0  0  0  0  0  0  0  0
   59.2580   29.5090   45.8420 C   0  0  0  0  0  0  0  0  0  0  0  0
   60.1470   30.3440   46.7160 C   0  0  0  0  0  0  0  0  0  0  0  0
   59.9239   30.1345   47.7726 H   0  0  0  0  0  0  0  0  0  0  0  0
   61.1993   30.1002   46.5081 H   0  0  0  0  0  0  0  0  0  0  0  0
   59.9695   31.4095   46.5081 H   0  0  0  0  0  0  0  0  0  0  0  0
   58.5260   29.9710   44.7990 N   0  0  0  0  0  0  0  0  0  0  0  0
   58.4990   31.3710   44.3290 C   0  0  0  0  0  0  0  0  0  0  0  0
   59.4608   31.8464   44.5717 H   0  0  0  0  0  0  0  0  0  0  0  0
   58.3240   31.3632   43.2430 H   0  0  0  0  0  0  0  0  0  0  0  0
   57.3870   32.1600   44.9770 C   0  0  0  0  0  0  0  0  0  0  0  0
   56.2030   31.7470   44.8630 O   0  0  0  0  0  0  0  0  0  0  0  0
   57.6320   33.3450   45.7470 N   0  0  0  0  0  0  0  0  0  0  0  0
   58.7470   33.5430   46.6210 C   0  0  0  0  0  0  0  0  0  0  0  0
   58.6290   33.3310   48.0020 C   0  0  0  0  0  0  0  0  0  0  0  0
   57.6762   32.9779   48.4233 H   0  0  0  0  0  0  0  0  0  0  0  0
   59.7180   33.5670   48.8440 C   0  0  0  0  0  0  0  0  0  0  0  0
   59.6219   33.3926   49.9258 H   0  0  0  0  0  0  0  0  0  0  0  0
   60.9350   34.0260   48.3150 C   0  0  0  0  0  0  0  0  0  0  0  0
   62.1070   34.2730   49.2180 C   0  0  0  0  0  0  0  0  0  0  0  0
   61.7826   34.2046   50.2668 H   0  0  0  0  0  0  0  0  0  0  0  0
   62.8842   33.5189   49.0247 H   0  0  0  0  0  0  0  0  0  0  0  0
   62.5137   35.2766   49.0247 H   0  0  0  0  0  0  0  0  0  0  0  0
   61.0650   34.1870   46.9280 C   0  0  0  0  0  0  0  0  0  0  0  0
   62.0265   34.5088   46.5015 H   0  0  0  0  0  0  0  0  0  0  0  0
   59.9770   33.9400   46.0850 C   0  0  0  0  0  0  0  0  0  0  0  0
   60.0885   34.0582   44.9971 H   0  0  0  0  0  0  0  0  0  0  0  0
   57.8600   28.8950   44.2930 C   0  0  0  0  0  0  0  0  0  0  0  0
   56.9560   28.9540   43.2980 C   0  0  0  0  0  0  0  0  0  0  0  0
   56.7211   29.9188   42.8248 H   0  0  0  0  0  0  0  0  0  0  0  0
   56.4519   28.0374   42.9578 H   0  0  0  0  0  0  0  0  0  0  0  0
  1  2  1  0
  2  3  1  0
  3  4  1  0
  4  5  1  0
  5  6  2  0
  5  7  1  0
  7  8  1  0
  8  9  1  0
  9 10  1  0
  9 11  2  0
 11 12  1  0
 12 13  1  0
 12 14  2  0
 14 15  1  0
 15 16  1  0
 15 17  1  0
 15 18  1  0
 14 19  1  0
 19 20  1  0
 20 21  1  0
 20 22  1  0
 20 23  1  0
 23 24  2  0
 23 25  1  0
 25 26  1  0
 26 27  2  0
 27 28  1  0
 27 29  1  0
 29 30  1  0
 29 31  2  0
 31 32  1  0
 32 33  1  0
 32 34  1  0
 32 35  1  0
 31 36  1  0
 36 37  1  0
 36 38  2  0
 38 39  1  0
 19 40  1  0
 40 41  2  0
 41 42  1  0
 41 43  1  0
  8  3  2  0
 40 11  1  0
 38 26  1  0
M  CHG  3   4  -1   7  -1  25  -1
M  END
>  <UniqueID>  (61) 
58

>  <SMILES>  (61) 
C=c1/c(=C/c2[n-]c(=O)[n-]c2O)cc(C)n1CC(=O)[N-]c1ccc(C)cc1

>  <Energy>  (61) 
108.97692383128768

>  <Genealogy>  (61) 
C=c1c(=Cc2[n-]c(=O)[n-]c2O)cc(C)n1CC(=O)[N-]c1ccc(C)cc1 (protonated)
C=c1/c(=C/c2[n-]c(=O)[n-]c2O)cc(C)n1CC(=O)[N-]c1ccc(C)cc1 (cis-trans isomerization)
C=c1/c(=C/c2[n-]c(=O)[n-]c2O)cc(C)n1CC(=O)[N-]c1ccc(C)cc1 (3D coordinates assigned)
C=c1/c(=C/c2[n-]c(=O)[n-]c2O)cc(C)n1CC(=O)[N-]c1ccc(C)cc1 (optimized conformer: 108.97692383128768 kcal/mol)

>  <smiles>  (61) 
C=c1c(=Cc2[nH]c(=O)[nH]c2O)cc(C)n1CC(=O)Nc1ccc(C)cc1

>  <score_type>  (61) 
oracle

>  <origin>  (61) 
adg

>  <m_score__min__energy>  (61) 
-13.949999999999999

>  <m_primary>  (61) 
energy

$$$$
61:0
     RDKit          3D

 57 60  0  0  0  0  0  0  0  0999 V2000
   54.6310   24.9930   45.6300 C   0  0  0  0  0  0  0  0  0  0  0  0
   55.0350   26.3260   45.9370 O   0  0  0  0  0  0  0  0  0  0  0  0
   56.3660   26.7760   45.9820 C   0  0  0  0  0  0  0  0  0  0  0  0
   57.4060   25.9210   46.3950 C   0  0  0  0  0  0  0  0  0  0  0  0
   58.7250   26.3670   46.4230 C   0  0  0  0  0  0  0  0  0  0  0  0
   59.0370   27.6600   46.0140 C   0  0  0  0  0  0  0  0  0  0  0  0
   58.0260   28.5300   45.5750 C   0  0  0  0  0  0  0  0  0  0  0  0
   58.3850   29.9050   45.1640 C   0  0  0  0  0  0  0  0  0  0  0  0
   59.3260   30.0850   44.3440 O   0  0  0  0  0  0  0  0  0  0  0  0
   57.6380   31.0310   45.6530 N   0  0  0  0  0  0  0  0  0  0  0  0
   58.1490   32.3760   45.6750 C   0  0  0  0  0  0  0  0  0  0  0  0
   57.5560   33.3810   44.8890 C   0  0  0  0  0  0  0  0  0  0  0  0
   58.0950   34.6710   44.8640 C   0  0  0  0  0  0  0  0  0  0  0  0
   59.2390   34.9660   45.6060 C   0  0  0  0  0  0  0  0  0  0  0  0
   59.8470   33.9740   46.3780 C   0  0  0  0  0  0  0  0  0  0  0  0
   59.3060   32.6810   46.4220 C   0  0  0  0  0  0  0  0  0  0  0  0
   59.9170   31.6920   47.2620 N   0  0  0  0  0  0  0  0  0  0  0  0
   61.1910   31.0840   46.8720 C   0  0  0  0  0  0  0  0  0  0  0  0
   62.1820   31.1830   48.0360 C   0  0  0  0  0  0  0  0  0  0  0  0
   61.5710   30.7700   49.3140 N   0  0  0  0  0  0  0  0  0  0  0  0
   62.3870   30.6710   50.5030 C   0  0  0  0  0  0  0  0  0  0  0  0
   61.9290   30.1160   51.5380 O   0  0  0  0  0  0  0  0  0  0  0  0
   63.8120   31.1620   50.5100 C   0  0  0  0  0  0  0  0  0  0  0  0
   63.9490   32.6590   50.2630 C   0  0  0  0  0  0  0  0  0  0  0  0
   64.1890   32.0940   51.6510 C   0  0  0  0  0  0  0  0  0  0  0  0
   60.1510   30.3720   49.3490 C   0  0  0  0  0  0  0  0  0  0  0  0
   59.3000   31.3700   48.5560 C   0  0  0  0  0  0  0  0  0  0  0  0
   56.6740   28.1060   45.5930 C   0  0  0  0  0  0  0  0  0  0  0  0
   55.6810   29.0420   45.2430 O   0  0  0  0  0  0  0  0  0  0  0  0
   55.5740   29.7020   43.9770 C   0  0  0  0  0  0  0  0  0  0  0  0
   54.4624   24.4367   46.5639 H   0  0  0  0  0  0  0  0  0  0  0  0
   53.7000   25.0176   45.0447 H   0  0  0  0  0  0  0  0  0  0  0  0
   55.4191   24.4966   45.0447 H   0  0  0  0  0  0  0  0  0  0  0  0
   57.1740   24.8896   46.6988 H   0  0  0  0  0  0  0  0  0  0  0  0
   59.5234   25.6945   46.7698 H   0  0  0  0  0  0  0  0  0  0  0  0
   60.0821   28.0027   46.0347 H   0  0  0  0  0  0  0  0  0  0  0  0
   56.6510   30.8660   45.9550 H   0  0  0  0  0  0  0  0  0  0  0  0
   56.6625   33.1504   44.2902 H   0  0  0  0  0  0  0  0  0  0  0  0
   57.6162   35.4545   44.2583 H   0  0  0  0  0  0  0  0  0  0  0  0
   59.6624   35.9810   45.5829 H   0  0  0  0  0  0  0  0  0  0  0  0
   60.7544   34.2078   46.9542 H   0  0  0  0  0  0  0  0  0  0  0  0
   61.0295   30.0262   46.6169 H   0  0  0  0  0  0  0  0  0  0  0  0
   61.5978   31.6141   45.9982 H   0  0  0  0  0  0  0  0  0  0  0  0
   63.0433   30.5316   47.8264 H   0  0  0  0  0  0  0  0  0  0  0  0
   62.4938   32.2336   48.1305 H   0  0  0  0  0  0  0  0  0  0  0  0
   64.2506   30.2454   50.0888 H   0  0  0  0  0  0  0  0  0  0  0  0
   64.7934   33.0440   49.6723 H   0  0  0  0  0  0  0  0  0  0  0  0
   63.2989   33.4407   49.8432 H   0  0  0  0  0  0  0  0  0  0  0  0
   65.2074   32.0704   52.0661 H   0  0  0  0  0  0  0  0  0  0  0  0
   63.7844   32.2980   52.6533 H   0  0  0  0  0  0  0  0  0  0  0  0
   60.0436   29.3709   48.9060 H   0  0  0  0  0  0  0  0  0  0  0  0
   59.8081   30.3600   50.3941 H   0  0  0  0  0  0  0  0  0  0  0  0
   58.3065   30.9321   48.3796 H   0  0  0  0  0  0  0  0  0  0  0  0
   59.2196   32.2978   49.1414 H   0  0  0  0  0  0  0  0  0  0  0  0
   55.3998   30.7763   44.1371 H   0  0  0  0  0  0  0  0  0  0  0  0
   56.5065   29.5621   43.4106 H   0  0  0  0  0  0  0  0  0  0  0  0
   54.7334   29.2747   43.4106 H   0  0  0  0  0  0  0  0  0  0  0  0
  1  2  1  0
  2  3  1  0
  3  4  2  0
  4  5  1  0
  5  6  2  0
  6  7  1  0
  7  8  1  0
  8  9  2  0
  8 10  1  0
 10 11  1  0
 11 12  2  0
 12 13  1  0
 13 14  2  0
 14 15  1  0
 15 16  2  0
 16 17  1  0
 17 18  1  0
 18 19  1  0
 19 20  1  0
 20 21  1  0
 21 22  2  0
 21 23  1  0
 23 24  1  0
 24 25  1  0
 20 26  1  0
 26 27  1  0
  7 28  2  0
 28 29  1  0
 29 30  1  0
 28  3  1  0
 16 11  1  0
 27 17  1  0
 25 23  1  0
  1 31  1  0
  1 32  1  0
  1 33  1  0
  4 34  1  0
  5 35  1  0
  6 36  1  0
 10 37  1  0
 12 38  1  0
 13 39  1  0
 14 40  1  0
 15 41  1  0
 18 42  1  0
 18 43  1  0
 19 44  1  0
 19 45  1  0
 23 46  1  0
 24 47  1  0
 24 48  1  0
 25 49  1  0
 25 50  1  0
 26 51  1  0
 26 52  1  0
 27 53  1  0
 27 54  1  0
 30 55  1  0
 30 56  1  0
 30 57  1  0
M  END
>  <UniqueID>  (62) 
59

>  <SMILES>  (62) 
COc1cccc(C(=O)Nc2ccccc2N2CCN(C(=O)C3CC3)CC2)c1OC

>  <Energy>  (62) 
337.9021068551518

>  <Genealogy>  (62) 
COc1cccc(C(=O)Nc2ccccc2N2CCN(C(=O)C3CC3)CC2)c1OC (3D coordinates assigned)
COc1cccc(C(=O)Nc2ccccc2N2CCN(C(=O)C3CC3)CC2)c1OC (nonaromatic ring conformer: 337.9021068551518 kcal/mol)

>  <smiles>  (62) 
COc1cccc(C(=O)Nc2ccccc2N2CCN(C(=O)C3CC3)CC2)c1OC

>  <score_type>  (62) 
oracle

>  <origin>  (62) 
adg

>  <m_score__min__energy>  (62) 
-9.7899999999999991

>  <m_primary>  (62) 
energy

$$$$
62:0
     RDKit          3D

 42 44  0  0  0  0  0  0  0  0999 V2000
   61.4130   30.4550   50.5700 O   0  0  0  0  0  0  0  0  0  0  0  0
   60.7690   31.6150   49.8640 S   0  0  0  0  0  0  0  0  0  0  0  0
   60.2840   31.1570   48.5150 O   0  0  0  0  0  0  0  0  0  0  0  0
   59.4100   32.1730   50.8350 C   0  0  0  0  0  0  0  0  0  0  0  0
   59.5340   33.2940   51.6670 C   0  0  0  0  0  0  0  0  0  0  0  0
   58.4450   33.7220   52.4310 C   0  0  0  0  0  0  0  0  0  0  0  0
   57.2310   33.0320   52.3730 C   0  0  0  0  0  0  0  0  0  0  0  0
   57.1000   31.8950   51.5550 C   0  0  0  0  0  0  0  0  0  0  0  0
   55.8540   31.1820   51.4560 N   0  0  0  0  0  0  0  0  0  0  0  0
   55.3390   30.3080   52.4730 C   0  0  0  0  0  0  0  0  0  0  0  0
   56.3440   29.2370   53.2010 S   0  0  0  0  0  0  0  0  0  0  0  0
   53.9300   30.0530   52.5470 N   0  0  0  0  0  0  0  0  0  0  0  0
   52.9610   30.8630   52.2170 C   0  0  0  0  0  0  0  0  0  0  0  0
   52.8330   31.4180   50.9250 C   0  0  0  0  0  0  0  0  0  0  0  0
   51.7720   32.2850   50.6500 C   0  0  0  0  0  0  0  0  0  0  0  0
   50.8750   32.5980   51.6220 N   0  0  0  0  0  0  0  0  0  0  0  0
   50.9810   32.0890   52.8780 C   0  0  0  0  0  0  0  0  0  0  0  0
   52.0280   31.2230   53.1980 C   0  0  0  0  0  0  0  0  0  0  0  0
   58.1920   31.4840   50.7760 C   0  0  0  0  0  0  0  0  0  0  0  0
   61.9130   32.9280   49.6850 N   0  0  0  0  0  0  0  0  0  0  0  0
   63.2700   32.4330   49.3940 C   0  0  0  0  0  0  0  0  0  0  0  0
   63.4130   31.9330   47.9360 C   0  0  0  0  0  0  0  0  0  0  0  0
   62.3940   32.4060   47.0700 O   0  0  0  0  0  0  0  0  0  0  0  0
   62.1300   33.7670   47.3240 C   0  0  0  0  0  0  0  0  0  0  0  0
   61.4530   33.9300   48.6970 C   0  0  0  0  0  0  0  0  0  0  0  0
   60.4891   33.8372   51.7186 H   0  0  0  0  0  0  0  0  0  0  0  0
   58.5436   34.6047   53.0800 H   0  0  0  0  0  0  0  0  0  0  0  0
   56.3745   33.3794   52.9694 H   0  0  0  0  0  0  0  0  0  0  0  0
   55.2810   31.3090   50.5910 H   0  0  0  0  0  0  0  0  0  0  0  0
   53.5631   31.1697   50.1406 H   0  0  0  0  0  0  0  0  0  0  0  0
   51.6625   32.7155   49.6437 H   0  0  0  0  0  0  0  0  0  0  0  0
   50.2398   32.3602   53.6442 H   0  0  0  0  0  0  0  0  0  0  0  0
   52.1203   30.8239   54.2189 H   0  0  0  0  0  0  0  0  0  0  0  0
   58.0907   30.6124   50.1126 H   0  0  0  0  0  0  0  0  0  0  0  0
   63.9876   33.2500   49.5597 H   0  0  0  0  0  0  0  0  0  0  0  0
   63.4683   31.5822   50.0624 H   0  0  0  0  0  0  0  0  0  0  0  0
   64.3847   32.2708   47.5464 H   0  0  0  0  0  0  0  0  0  0  0  0
   63.3304   30.8364   47.9619 H   0  0  0  0  0  0  0  0  0  0  0  0
   63.0760   34.3282   47.3164 H   0  0  0  0  0  0  0  0  0  0  0  0
   61.4576   34.1538   46.5441 H   0  0  0  0  0  0  0  0  0  0  0  0
   61.6793   34.9346   49.0836 H   0  0  0  0  0  0  0  0  0  0  0  0
   60.3724   33.7824   48.5535 H   0  0  0  0  0  0  0  0  0  0  0  0
  1  2  2  0
  2  3  2  0
  2  4  1  0
  4  5  2  0
  5  6  1  0
  6  7  2  0
  7  8  1  0
  8  9  1  0
  9 10  1  0
 10 11  2  0
 10 12  1  0
 12 13  2  3
 13 14  1  0
 14 15  2  0
 15 16  1  0
 16 17  1  0
 17 18  2  0
  8 19  2  0
  2 20  1  0
 20 21  1  0
 21 22  1  0
 22 23  1  0
 23 24  1  0
 24 25  1  0
 19  4  1  0
 25 20  1  0
 18 13  1  0
  5 26  1  0
  6 27  1  0
  7 28  1  0
  9 29  1  0
 14 30  1  0
 15 31  1  0
 17 32  1  0
 18 33  1  0
 19 34  1  0
 21 35  1  0
 21 36  1  0
 22 37  1  0
 22 38  1  0
 24 39  1  0
 24 40  1  0
 25 41  1  0
 25 42  1  0
M  CHG  1  16  -1
M  END
>  <UniqueID>  (63) 
60

>  <SMILES>  (63) 
O=S(=O)(c1cccc(NC(=S)N=c2cc[n-]cc2)c1)N1CCOCC1

>  <Energy>  (63) 
66.56558810576912

>  <Genealogy>  (63) 
O=S(=O)(c1cccc(NC(=S)N=c2cc[n-]cc2)c1)N1CCOCC1 (protonated)
O=S(=O)(c1cccc(NC(=S)N=c2cc[n-]cc2)c1)N1CCOCC1 (3D coordinates assigned)
O=S(=O)(c1cccc(NC(=S)N=c2cc[n-]cc2)c1)N1CCOCC1 (nonaromatic ring conformer: 66.56558810576912 kcal/mol)

>  <smiles>  (63) 
O=S(=O)(c1cccc(NC(=S)N=c2cc[nH]cc2)c1)N1CCOCC1

>  <score_type>  (63) 
oracle

>  <origin>  (63) 
adg

>  <m_score__min__energy>  (63) 
-10.380000000000001

>  <m_primary>  (63) 
energy

$$$$
63:0
     RDKit          3D

 64 68  0  0  0  0  0  0  0  0999 V2000
   56.7030   31.9230   44.8650 O   0  0  0  0  0  0  0  0  0  0  0  0
   57.6540   32.1410   45.6670 C   0  0  0  0  0  0  0  0  0  0  0  0
   57.7890   33.4940   46.3040 C   0  0  0  0  0  0  0  0  0  0  0  0
   59.1450   33.6650   46.9350 C   0  0  0  0  0  0  0  0  0  0  0  0
   60.2940   33.7630   46.1360 C   0  0  0  0  0  0  0  0  0  0  0  0
   61.5490   33.9360   46.7260 C   0  0  0  0  0  0  0  0  0  0  0  0
   61.6760   34.0260   48.1160 C   0  0  0  0  0  0  0  0  0  0  0  0
   62.9620   34.2060   48.6530 O   0  0  0  0  0  0  0  0  0  0  0  0
   64.1310   33.4930   48.2480 C   0  0  0  0  0  0  0  0  0  0  0  0
   64.6480   32.6360   49.3720 C   0  0  0  0  0  0  0  0  0  0  0  0
   65.9900   32.7410   49.7770 C   0  0  0  0  0  0  0  0  0  0  0  0
   66.4760   31.9430   50.8170 C   0  0  0  0  0  0  0  0  0  0  0  0
   65.6320   31.0300   51.4530 C   0  0  0  0  0  0  0  0  0  0  0  0
   64.3000   30.9090   51.0490 C   0  0  0  0  0  0  0  0  0  0  0  0
   63.8080   31.7070   50.0100 C   0  0  0  0  0  0  0  0  0  0  0  0
   60.5230   33.9320   48.9190 C   0  0  0  0  0  0  0  0  0  0  0  0
   59.2670   33.7550   48.3300 C   0  0  0  0  0  0  0  0  0  0  0  0
   58.6710   31.1480   45.8760 N   0  0  0  0  0  0  0  0  0  0  0  0
   58.5500   29.7790   45.4550 C   0  0  0  0  0  0  0  0  0  0  0  0
   58.8170   29.3940   44.1310 C   0  0  0  0  0  0  0  0  0  0  0  0
   58.6670   28.0610   43.7430 C   0  0  0  0  0  0  0  0  0  0  0  0
   58.2520   27.1030   44.6690 C   0  0  0  0  0  0  0  0  0  0  0  0
   57.9800   27.4640   45.9970 C   0  0  0  0  0  0  0  0  0  0  0  0
   57.4760   26.4040   46.9560 C   0  0  0  0  0  0  0  0  0  0  0  0
   56.4260   25.5030   46.3470 C   0  0  0  0  0  0  0  0  0  0  0  0
   55.1430   25.9550   46.3290 N   0  0  0  0  0  0  0  0  0  0  0  0
   54.1630   25.2870   45.7240 N   0  0  0  0  0  0  0  0  0  0  0  0
   54.3960   24.1300   45.0610 C   0  0  0  0  0  0  0  0  0  0  0  0
   53.4350   23.5380   44.4970 O   0  0  0  0  0  0  0  0  0  0  0  0
   55.6980   23.6080   45.0040 C   0  0  0  0  0  0  0  0  0  0  0  0
   56.7330   24.2760   45.7040 C   0  0  0  0  0  0  0  0  0  0  0  0
   58.1610   23.7510   45.6680 C   0  0  0  0  0  0  0  0  0  0  0  0
   58.2780   22.3150   45.1500 C   0  0  0  0  0  0  0  0  0  0  0  0
   57.4230   22.1230   43.9030 C   0  0  0  0  0  0  0  0  0  0  0  0
   55.9490   22.3160   44.2530 C   0  0  0  0  0  0  0  0  0  0  0  0
   58.1030   28.8180   46.3710 C   0  0  0  0  0  0  0  0  0  0  0  0
   57.6508   34.2682   45.5349 H   0  0  0  0  0  0  0  0  0  0  0  0
   57.0247   33.5873   47.0896 H   0  0  0  0  0  0  0  0  0  0  0  0
   60.2068   33.7034   45.0411 H   0  0  0  0  0  0  0  0  0  0  0  0
   62.4451   34.0020   46.0915 H   0  0  0  0  0  0  0  0  0  0  0  0
   63.8833   32.8515   47.3894 H   0  0  0  0  0  0  0  0  0  0  0  0
   64.9093   34.2190   47.9702 H   0  0  0  0  0  0  0  0  0  0  0  0
   66.6601   33.4536   49.2739 H   0  0  0  0  0  0  0  0  0  0  0  0
   67.5251   32.0344   51.1349 H   0  0  0  0  0  0  0  0  0  0  0  0
   66.0163   30.4055   52.2729 H   0  0  0  0  0  0  0  0  0  0  0  0
   63.6377   30.1861   51.5479 H   0  0  0  0  0  0  0  0  0  0  0  0
   62.7599   31.6069   49.6914 H   0  0  0  0  0  0  0  0  0  0  0  0
   60.6106   33.9980   50.0135 H   0  0  0  0  0  0  0  0  0  0  0  0
   58.3703   33.6860   48.9634 H   0  0  0  0  0  0  0  0  0  0  0  0
   59.5970   31.4680   46.2450 H   0  0  0  0  0  0  0  0  0  0  0  0
   59.1453   30.1449   43.3973 H   0  0  0  0  0  0  0  0  0  0  0  0
   58.8766   27.7652   42.7044 H   0  0  0  0  0  0  0  0  0  0  0  0
   58.1371   26.0551   44.3547 H   0  0  0  0  0  0  0  0  0  0  0  0
   58.3282   25.7844   47.2720 H   0  0  0  0  0  0  0  0  0  0  0  0
   57.0083   26.9254   47.8042 H   0  0  0  0  0  0  0  0  0  0  0  0
   58.7548   24.4055   45.0130 H   0  0  0  0  0  0  0  0  0  0  0  0
   58.5280   23.7487   46.7050 H   0  0  0  0  0  0  0  0  0  0  0  0
   59.3291   22.1041   44.9036 H   0  0  0  0  0  0  0  0  0  0  0  0
   57.9247   21.6263   45.9316 H   0  0  0  0  0  0  0  0  0  0  0  0
   57.7172   22.8600   43.1412 H   0  0  0  0  0  0  0  0  0  0  0  0
   57.5737   21.1060   43.5118 H   0  0  0  0  0  0  0  0  0  0  0  0
   55.3636   22.3292   43.3218 H   0  0  0  0  0  0  0  0  0  0  0  0
   55.6478   21.4841   44.9067 H   0  0  0  0  0  0  0  0  0  0  0  0
   57.8445   29.1237   47.3956 H   0  0  0  0  0  0  0  0  0  0  0  0
  1  2  2  0
  2  3  1  0
  3  4  1  0
  4  5  2  0
  5  6  1  0
  6  7  2  0
  7  8  1  0
  8  9  1  0
  9 10  1  0
 10 11  2  0
 11 12  1  0
 12 13  2  0
 13 14  1  0
 14 15  2  0
  7 16  1  0
 16 17  2  0
  2 18  1  0
 18 19  1  0
 19 20  2  0
 20 21  1  0
 21 22  2  0
 22 23  1  0
 23 24  1  0
 24 25  1  0
 25 26  2  0
 26 27  1  0
 27 28  1  0
 28 29  2  0
 28 30  1  0
 30 31  2  0
 31 32  1  0
 32 33  1  0
 33 34  1  0
 34 35  1  0
 23 36  2  0
 17  4  1  0
 36 19  1  0
 15 10  1  0
 31 25  1  0
 35 30  1  0
  3 37  1  0
  3 38  1  0
  5 39  1  0
  6 40  1  0
  9 41  1  0
  9 42  1  0
 11 43  1  0
 12 44  1  0
 13 45  1  0
 14 46  1  0
 15 47  1  0
 16 48  1  0
 17 49  1  0
 18 50  1  0
 20 51  1  0
 21 52  1  0
 22 53  1  0
 24 54  1  0
 24 55  1  0
 32 56  1  0
 32 57  1  0
 33 58  1  0
 33 59  1  0
 34 60  1  0
 34 61  1  0
 35 62  1  0
 35 63  1  0
 36 64  1  0
M  CHG  1  27  -1
M  END
>  <UniqueID>  (64) 
61

>  <SMILES>  (64) 
O=C(Cc1ccc(OCc2ccccc2)cc1)Nc1cccc(Cc2n[n-]c(=O)c3c2CCCC3)c1

>  <Energy>  (64) 
76.54556041191486

>  <Genealogy>  (64) 
O=C(Cc1ccc(OCc2ccccc2)cc1)Nc1cccc(Cc2n[n-]c(=O)c3c2CCCC3)c1 (protonated)
O=C(Cc1ccc(OCc2ccccc2)cc1)Nc1cccc(Cc2n[n-]c(=O)c3c2CCCC3)c1 (3D coordinates assigned)
O=C(Cc1ccc(OCc2ccccc2)cc1)Nc1cccc(Cc2n[n-]c(=O)c3c2CCCC3)c1 (nonaromatic ring conformer: 76.54556041191486 kcal/mol)

>  <smiles>  (64) 
O=C(Cc1ccc(OCc2ccccc2)cc1)Nc1cccc(Cc2n[nH]c(=O)c3c2CCCC3)c1

>  <score_type>  (64) 
oracle

>  <origin>  (64) 
adg

>  <m_score__min__energy>  (64) 
-13.77

>  <m_primary>  (64) 
energy

$$$$
64:0
     RDKit          3D

 37 39  0  0  0  0  0  0  0  0999 V2000
   59.6430   35.8330   46.4360 O   0  0  0  0  0  0  0  0  0  0  0  0
   59.6570   34.6720   46.9300 C   0  0  0  0  0  0  0  0  0  0  0  0
   60.1590   34.5070   48.3420 C   0  0  0  0  0  0  0  0  0  0  0  0
   61.5400   34.0020   48.3500 N   0  0  0  0  0  0  0  0  0  0  0  0
   62.1900   33.7560   47.1710 C   0  0  0  0  0  0  0  0  0  0  0  0
   63.5020   33.2740   47.1700 C   0  0  0  0  0  0  0  0  0  0  0  0
   64.1510   33.0530   48.3830 C   0  0  0  0  0  0  0  0  0  0  0  0
   63.4870   33.3190   49.5790 C   0  0  0  0  0  0  0  0  0  0  0  0
   62.1760   33.8000   49.5450 C   0  0  0  0  0  0  0  0  0  0  0  0
   59.1400   33.5320   46.1260 C   0  0  0  0  0  0  0  0  0  0  0  0
   58.2690   33.7770   45.0460 C   0  0  0  0  0  0  0  0  0  0  0  0
   57.7660   32.7200   44.2830 C   0  0  0  0  0  0  0  0  0  0  0  0
   58.1170   31.3970   44.5860 C   0  0  0  0  0  0  0  0  0  0  0  0
   57.6060   30.2620   43.7420 C   0  0  0  0  0  0  0  0  0  0  0  0
   57.4560   29.0280   44.5750 C   0  0  0  0  0  0  0  0  0  0  0  0
   58.6400   27.8410   44.7740 S   0  0  0  0  0  0  0  0  0  0  0  0
   57.6320   26.8670   45.7030 C   0  0  0  0  0  0  0  0  0  0  0  0
   57.9670   25.7570   46.1940 O   0  0  0  0  0  0  0  0  0  0  0  0
   56.4070   27.4090   45.8630 N   0  0  0  0  0  0  0  0  0  0  0  0
   56.3000   28.6070   45.2310 C   0  0  0  0  0  0  0  0  0  0  0  0
   55.1220   29.3420   45.2420 O   0  0  0  0  0  0  0  0  0  0  0  0
   58.9990   31.1470   45.6470 C   0  0  0  0  0  0  0  0  0  0  0  0
   59.5040   32.2030   46.4110 C   0  0  0  0  0  0  0  0  0  0  0  0
   60.1284   35.4813   48.8517 H   0  0  0  0  0  0  0  0  0  0  0  0
   59.5157   33.7821   48.8623 H   0  0  0  0  0  0  0  0  0  0  0  0
   61.6756   33.9392   46.2161 H   0  0  0  0  0  0  0  0  0  0  0  0
   64.0177   33.0709   46.2198 H   0  0  0  0  0  0  0  0  0  0  0  0
   65.1823   32.6705   48.3965 H   0  0  0  0  0  0  0  0  0  0  0  0
   63.9913   33.1515   50.5422 H   0  0  0  0  0  0  0  0  0  0  0  0
   61.6504   34.0182   50.4864 H   0  0  0  0  0  0  0  0  0  0  0  0
   57.9822   34.8103   44.8011 H   0  0  0  0  0  0  0  0  0  0  0  0
   57.0907   32.9272   43.4397 H   0  0  0  0  0  0  0  0  0  0  0  0
   56.6286   30.5355   43.3178 H   0  0  0  0  0  0  0  0  0  0  0  0
   58.3237   30.0644   42.9322 H   0  0  0  0  0  0  0  0  0  0  0  0
   55.6320   26.9600   46.4000 H   0  0  0  0  0  0  0  0  0  0  0  0
   59.2953   30.1135   45.8795 H   0  0  0  0  0  0  0  0  0  0  0  0
   60.1924   31.9931   47.2429 H   0  0  0  0  0  0  0  0  0  0  0  0
  1  2  2  0
  2  3  1  0
  3  4  1  0
  4  5  2  0
  5  6  1  0
  6  7  2  0
  7  8  1  0
  8  9  2  0
  2 10  1  0
 10 11  2  0
 11 12  1  0
 12 13  2  0
 13 14  1  0
 14 15  1  0
 15 16  1  0
 16 17  1  0
 17 18  2  0
 17 19  1  0
 19 20  1  0
 20 21  1  0
 13 22  1  0
 22 23  2  0
  9  4  1  0
 23 10  1  0
 20 15  2  0
  3 24  1  0
  3 25  1  0
  5 26  1  0
  6 27  1  0
  7 28  1  0
  8 29  1  0
  9 30  1  0
 11 31  1  0
 12 32  1  0
 14 33  1  0
 14 34  1  0
 19 35  1  0
 22 36  1  0
 23 37  1  0
M  CHG  2   4   1  21  -1
M  END
>  <UniqueID>  (65) 
62

>  <SMILES>  (65) 
O=C(C[n+]1ccccc1)c1ccc(Cc2sc(=O)[nH]c2[O-])cc1

>  <Energy>  (65) 
70.60637992831371

>  <Genealogy>  (65) 
O=C(C[n+]1ccccc1)c1ccc(Cc2sc(=O)[nH]c2[O-])cc1 (protonated)
O=C(C[n+]1ccccc1)c1ccc(Cc2sc(=O)[nH]c2[O-])cc1 (3D coordinates assigned)
O=C(C[n+]1ccccc1)c1ccc(Cc2sc(=O)[nH]c2[O-])cc1 (optimized conformer: 70.60637992831371 kcal/mol)

>  <smiles>  (65) 
O=C(C[n+]1ccccc1)c1ccc(Cc2sc(=O)[nH]c2O)cc1

>  <score_type>  (65) 
oracle

>  <origin>  (65) 
adg

>  <m_score__min__energy>  (65) 
-10.470000000000001

>  <m_primary>  (65) 
energy

$$$$
65:0
     RDKit          3D

 46 48  0  0  0  0  0  0  0  0999 V2000
   55.1700   26.5060   46.0280 O   0  0  0  0  0  0  0  0  0  0  0  0
   56.3990   26.2830   45.8560 C   0  0  0  0  0  0  0  0  0  0  0  0
   57.0740   25.2170   46.6560 C   0  0  0  0  0  0  0  0  0  0  0  0
   56.0810   24.5140   47.4680 N   0  0  0  0  0  0  0  0  0  0  0  0
   56.1310   22.8130   47.1130 S   0  0  0  0  0  0  0  0  0  0  0  0
   57.2860   22.1840   47.8410 O   0  0  0  0  0  0  0  0  0  0  0  0
   54.8540   22.1640   47.5730 O   0  0  0  0  0  0  0  0  0  0  0  0
   56.3510   22.5800   45.3780 C   0  0  0  0  0  0  0  0  0  0  0  0
   57.3640   21.7380   44.8940 C   0  0  0  0  0  0  0  0  0  0  0  0
   57.5230   21.5480   43.5180 C   0  0  0  0  0  0  0  0  0  0  0  0
   56.6730   22.1980   42.6190 C   0  0  0  0  0  0  0  0  0  0  0  0
   55.6630   23.0380   43.0940 C   0  0  0  0  0  0  0  0  0  0  0  0
   55.4990   23.2320   44.4690 C   0  0  0  0  0  0  0  0  0  0  0  0
   54.5130   24.0500   44.9130 F   0  0  0  0  0  0  0  0  0  0  0  0
   57.1830   27.1070   44.9860 N   0  0  0  0  0  0  0  0  0  0  0  0
   57.6210   28.4500   45.2410 C   0  0  0  0  0  0  0  0  0  0  0  0
   57.0910   29.4850   44.4690 C   0  0  0  0  0  0  0  0  0  0  0  0
   57.4660   30.8110   44.6960 C   0  0  0  0  0  0  0  0  0  0  0  0
   58.3850   31.1440   45.7190 C   0  0  0  0  0  0  0  0  0  0  0  0
   58.7850   32.5300   45.9580 N   0  0  0  0  0  0  0  0  0  0  0  0
   59.2790   32.9180   47.2960 C   0  0  0  0  0  0  0  0  0  0  0  0
   59.7600   34.3690   47.3700 C   0  0  0  0  0  0  0  0  0  0  0  0
   58.9110   35.2150   46.6320 O   0  0  0  0  0  0  0  0  0  0  0  0
   59.0870   34.9350   45.2640 C   0  0  0  0  0  0  0  0  0  0  0  0
   58.5500   33.5440   44.9080 C   0  0  0  0  0  0  0  0  0  0  0  0
   58.8900   30.0860   46.5130 C   0  0  0  0  0  0  0  0  0  0  0  0
   58.5090   28.7620   46.2800 C   0  0  0  0  0  0  0  0  0  0  0  0
   57.5638   24.5036   45.9769 H   0  0  0  0  0  0  0  0  0  0  0  0
   57.8280   25.6742   47.3136 H   0  0  0  0  0  0  0  0  0  0  0  0
   55.1320   24.8560   47.1910 H   0  0  0  0  0  0  0  0  0  0  0  0
   58.0350   21.2259   45.5994 H   0  0  0  0  0  0  0  0  0  0  0  0
   58.3177   20.8864   43.1427 H   0  0  0  0  0  0  0  0  0  0  0  0
   56.7994   22.0480   41.5366 H   0  0  0  0  0  0  0  0  0  0  0  0
   54.9949   23.5482   42.3845 H   0  0  0  0  0  0  0  0  0  0  0  0
   56.3691   29.2534   43.6720 H   0  0  0  0  0  0  0  0  0  0  0  0
   57.0403   31.6089   44.0698 H   0  0  0  0  0  0  0  0  0  0  0  0
   58.4629   32.7840   48.0212 H   0  0  0  0  0  0  0  0  0  0  0  0
   60.1446   32.2775   47.5205 H   0  0  0  0  0  0  0  0  0  0  0  0
   59.7675   34.6933   48.4211 H   0  0  0  0  0  0  0  0  0  0  0  0
   60.7726   34.4270   46.9443 H   0  0  0  0  0  0  0  0  0  0  0  0
   58.5489   35.6896   44.6714 H   0  0  0  0  0  0  0  0  0  0  0  0
   60.1636   34.9601   45.0396 H   0  0  0  0  0  0  0  0  0  0  0  0
   57.4661   33.6232   44.7379 H   0  0  0  0  0  0  0  0  0  0  0  0
   59.0921   33.2098   44.0111 H   0  0  0  0  0  0  0  0  0  0  0  0
   59.5945   30.3103   47.3275 H   0  0  0  0  0  0  0  0  0  0  0  0
   58.9087   27.9587   46.9164 H   0  0  0  0  0  0  0  0  0  0  0  0
  1  2  2  0
  2  3  1  0
  3  4  1  0
  4  5  1  0
  5  6  2  0
  5  7  2  0
  5  8  1  0
  8  9  2  0
  9 10  1  0
 10 11  2  0
 11 12  1  0
 12 13  2  0
 13 14  1  0
  2 15  1  0
 15 16  1  0
 16 17  2  0
 17 18  1  0
 18 19  2  0
 19 20  1  0
 20 21  1  0
 21 22  1  0
 22 23  1  0
 23 24  1  0
 24 25  1  0
 19 26  1  0
 26 27  2  0
 13  8  1  0
 27 16  1  0
 25 20  1  0
  3 28  1  0
  3 29  1  0
  4 30  1  0
  9 31  1  0
 10 32  1  0
 11 33  1  0
 12 34  1  0
 17 35  1  0
 18 36  1  0
 21 37  1  0
 21 38  1  0
 22 39  1  0
 22 40  1  0
 24 41  1  0
 24 42  1  0
 25 43  1  0
 25 44  1  0
 26 45  1  0
 27 46  1  0
M  CHG  1  15  -1
M  END
>  <UniqueID>  (66) 
63

>  <SMILES>  (66) 
O=C(CNS(=O)(=O)c1ccccc1F)[N-]c1ccc(N2CCOCC2)cc1

>  <Energy>  (66) 
55.47618660454711

>  <Genealogy>  (66) 
O=C(CNS(=O)(=O)c1ccccc1F)[N-]c1ccc(N2CCOCC2)cc1 (protonated)
O=C(CNS(=O)(=O)c1ccccc1F)[N-]c1ccc(N2CCOCC2)cc1 (3D coordinates assigned)
O=C(CNS(=O)(=O)c1ccccc1F)[N-]c1ccc(N2CCOCC2)cc1 (nonaromatic ring conformer: 55.47618660454711 kcal/mol)

>  <smiles>  (66) 
O=C(CNS(=O)(=O)c1ccccc1F)Nc1ccc(N2CCOCC2)cc1

>  <score_type>  (66) 
oracle

>  <origin>  (66) 
adg

>  <m_score__min__energy>  (66) 
-9.9100000000000001

>  <m_primary>  (66) 
energy

$$$$
66:0
     RDKit          3D

 57 61  0  0  0  0  0  0  0  0999 V2000
   62.2850   34.6760   49.4590 O   0  0  0  0  0  0  0  0  0  0  0  0
   61.2910   34.3060   48.7680 C   0  0  0  0  0  0  0  0  0  0  0  0
   59.9260   34.4530   49.3790 C   0  0  0  0  0  0  0  0  0  0  0  0
   59.7930   33.5300   50.5660 C   0  0  0  0  0  0  0  0  0  0  0  0
   58.8750   33.8160   51.5890 C   0  0  0  0  0  0  0  0  0  0  0  0
   58.8560   33.0480   52.7570 C   0  0  0  0  0  0  0  0  0  0  0  0
   59.7590   31.9940   52.9190 C   0  0  0  0  0  0  0  0  0  0  0  0
   60.6700   31.6870   51.8990 C   0  0  0  0  0  0  0  0  0  0  0  0
   61.6160   30.5670   52.0620 C   0  0  0  0  0  0  0  0  0  0  0  0
   62.7900   30.8140   52.4600 O   0  0  0  0  0  0  0  0  0  0  0  0
   61.1690   29.2000   51.8880 N   0  0  0  0  0  0  0  0  0  0  0  0
   62.2980   28.2830   51.6240 C   0  0  0  0  0  0  0  0  0  0  0  0
   61.7980   26.8300   51.5650 C   0  0  0  0  0  0  0  0  0  0  0  0
   61.1360   26.4750   52.7640 O   0  0  0  0  0  0  0  0  0  0  0  0
   60.0050   27.3050   52.9520 C   0  0  0  0  0  0  0  0  0  0  0  0
   60.4280   28.7730   53.0900 C   0  0  0  0  0  0  0  0  0  0  0  0
   60.6840   32.4570   50.7290 C   0  0  0  0  0  0  0  0  0  0  0  0
   61.5020   33.8970   47.3940 N   0  0  0  0  0  0  0  0  0  0  0  0
   62.8650   33.4750   47.0510 C   0  0  0  0  0  0  0  0  0  0  0  0
   63.0810   31.6550   47.2680 S   0  0  0  0  0  0  0  0  0  0  0  0
   61.4030   31.1560   47.7730 C   0  0  0  0  0  0  0  0  0  0  0  0
   61.2630   30.0330   48.5970 C   0  0  0  0  0  0  0  0  0  0  0  0
   59.9940   29.5600   48.9410 C   0  0  0  0  0  0  0  0  0  0  0  0
   59.8660   28.4470   49.7610 O   0  0  0  0  0  0  0  0  0  0  0  0
   58.8520   30.2070   48.4580 C   0  0  0  0  0  0  0  0  0  0  0  0
   58.9750   31.3510   47.6630 C   0  0  0  0  0  0  0  0  0  0  0  0
   60.2500   31.8530   47.3380 C   0  0  0  0  0  0  0  0  0  0  0  0
   60.4650   33.1710   46.6370 C   0  0  1  0  0  0  0  0  0  0  0  0
   59.1950   34.0230   46.3950 C   0  0  0  0  0  0  0  0  0  0  0  0
   59.2840   34.9750   45.2100 C   0  0  0  0  0  0  0  0  0  0  0  0
   58.4260   33.7230   45.1120 C   0  0  0  0  0  0  0  0  0  0  0  0
   59.7835   35.4930   49.7078 H   0  0  0  0  0  0  0  0  0  0  0  0
   59.1637   34.1923   48.6300 H   0  0  0  0  0  0  0  0  0  0  0  0
   58.1666   34.6492   51.4708 H   0  0  0  0  0  0  0  0  0  0  0  0
   58.1284   33.2740   53.5504 H   0  0  0  0  0  0  0  0  0  0  0  0
   59.7549   31.4047   53.8478 H   0  0  0  0  0  0  0  0  0  0  0  0
   60.5200   29.1540   51.0680 H   0  0  0  0  0  0  0  0  0  0  0  0
   62.7634   28.5466   50.6628 H   0  0  0  0  0  0  0  0  0  0  0  0
   63.0346   28.3769   52.4356 H   0  0  0  0  0  0  0  0  0  0  0  0
   61.0989   26.7236   50.7224 H   0  0  0  0  0  0  0  0  0  0  0  0
   62.6642   26.1653   51.4316 H   0  0  0  0  0  0  0  0  0  0  0  0
   59.3337   27.2023   52.0867 H   0  0  0  0  0  0  0  0  0  0  0  0
   59.4890   26.9971   53.8734 H   0  0  0  0  0  0  0  0  0  0  0  0
   59.5323   29.4006   53.2078 H   0  0  0  0  0  0  0  0  0  0  0  0
   61.0774   28.8802   53.9714 H   0  0  0  0  0  0  0  0  0  0  0  0
   61.4007   32.2186   49.9293 H   0  0  0  0  0  0  0  0  0  0  0  0
   63.0674   33.7369   46.0020 H   0  0  0  0  0  0  0  0  0  0  0  0
   63.5665   33.9896   47.7241 H   0  0  0  0  0  0  0  0  0  0  0  0
   62.1586   29.5192   48.9764 H   0  0  0  0  0  0  0  0  0  0  0  0
   57.8542   29.8149   48.7041 H   0  0  0  0  0  0  0  0  0  0  0  0
   58.0737   31.8599   47.2907 H   0  0  0  0  0  0  0  0  0  0  0  0
   60.7903   32.9598   45.6077 H   0  0  0  0  0  0  0  0  0  0  0  0
   58.9230   34.1113   47.4572 H   0  0  0  0  0  0  0  0  0  0  0  0
   58.8075   35.9650   45.2634 H   0  0  0  0  0  0  0  0  0  0  0  0
   60.1059   35.4019   44.6165 H   0  0  0  0  0  0  0  0  0  0  0  0
   57.3294   33.8076   45.0954 H   0  0  0  0  0  0  0  0  0  0  0  0
   58.3706   32.8701   44.4196 H   0  0  0  0  0  0  0  0  0  0  0  0
  1  2  2  0
  2  3  1  0
  3  4  1  0
  4  5  2  0
  5  6  1  0
  6  7  2  0
  7  8  1  0
  8  9  1  0
  9 10  2  0
  9 11  1  0
 11 12  1  0
 12 13  1  0
 13 14  1  0
 14 15  1  0
 15 16  1  0
  8 17  2  0
  2 18  1  0
 18 19  1  0
 19 20  1  0
 20 21  1  0
 21 22  2  0
 22 23  1  0
 23 24  1  0
 23 25  2  0
 25 26  1  0
 26 27  2  0
 27 28  1  0
 28 29  1  0
 29 30  1  0
 30 31  1  0
 17  4  1  0
 28 18  1  0
 31 29  1  0
 16 11  1  0
 27 21  1  0
  3 32  1  0
  3 33  1  0
  5 34  1  0
  6 35  1  0
  7 36  1  0
 11 37  1  0
 12 38  1  0
 12 39  1  0
 13 40  1  0
 13 41  1  0
 15 42  1  0
 15 43  1  0
 16 44  1  0
 16 45  1  0
 17 46  1  0
 19 47  1  0
 19 48  1  0
 22 49  1  0
 25 50  1  0
 26 51  1  0
 28 52  1  6
 29 53  1  0
 30 54  1  0
 30 55  1  0
 31 56  1  0
 31 57  1  0
M  CHG  2  11   1  24  -1
M  END
>  <UniqueID>  (67) 
64

>  <SMILES>  (67) 
O=C(Cc1cccc(C(=O)[NH+]2CCOCC2)c1)N1CSc2cc([O-])ccc2[C@H]1C1CC1

>  <Energy>  (67) 
355.74134249090923

>  <Genealogy>  (67) 
O=C(Cc1cccc(C(=O)[NH+]2CCOCC2)c1)N1CSc2cc([O-])ccc2C1C1CC1 (protonated)
O=C(Cc1cccc(C(=O)[NH+]2CCOCC2)c1)N1CSc2cc([O-])ccc2[C@H]1C1CC1 (chirality)
O=C(Cc1cccc(C(=O)[NH+]2CCOCC2)c1)N1CSc2cc([O-])ccc2[C@H]1C1CC1 (3D coordinates assigned)
O=C(Cc1cccc(C(=O)[NH+]2CCOCC2)c1)N1CSc2cc([O-])ccc2[C@H]1C1CC1 (nonaromatic ring conformer: 355.74134249090923 kcal/mol)

>  <smiles>  (67) 
O=C(c1cccc(CC(=O)N2CSc3cc(O)ccc3C2C2CC2)c1)N1CCOCC1

>  <score_type>  (67) 
oracle

>  <origin>  (67) 
adg

>  <m_score__min__energy>  (67) 
-9.5899999999999999

>  <m_primary>  (67) 
energy

$$$$
67:0
     RDKit          3D

 65 68  0  0  0  0  0  0  0  0999 V2000
   58.9860   29.5320   45.1180 C   0  0  0  0  0  0  0  0  0  0  0  0
   59.0180   29.5570   46.4600 C   0  0  0  0  0  0  0  0  0  0  0  0
   58.8380   28.4640   47.3250 C   0  0  0  0  0  0  0  0  0  0  0  0
   58.7940   27.1390   47.0810 C   0  0  0  0  0  0  0  0  0  0  0  0
   57.5880   26.3000   47.1170 C   0  0  0  0  0  0  0  0  0  0  0  0
   57.5270   25.1170   47.7520 N   0  0  0  0  0  0  0  0  0  0  0  0
   56.2860   24.6700   47.4610 C   0  0  0  0  0  0  0  0  0  0  0  0
   55.8390   23.5780   47.9010 O   0  0  0  0  0  0  0  0  0  0  0  0
   55.5650   25.4800   46.6570 N   0  0  0  0  0  0  0  0  0  0  0  0
   56.4050   26.5030   46.4340 C   0  0  0  0  0  0  0  0  0  0  0  0
   56.0940   27.5830   45.6110 O   0  0  0  0  0  0  0  0  0  0  0  0
   58.7150   28.9930   48.5950 C   0  0  0  0  0  0  0  0  0  0  0  0
   58.8640   30.3590   48.4810 C   0  0  0  0  0  0  0  0  0  0  0  0
   58.8060   31.2780   49.6360 C   0  0  0  0  0  0  0  0  0  0  0  0
   59.4020   32.3870   49.5590 O   0  0  0  0  0  0  0  0  0  0  0  0
   58.1080   30.9300   50.8440 N   0  0  0  0  0  0  0  0  0  0  0  0
   58.1540   29.5490   51.3510 C   0  0  0  0  0  0  0  0  0  0  0  0
   57.2470   29.3720   52.5740 C   0  0  0  0  0  0  0  0  0  0  0  0
   55.9790   30.0840   52.3520 N   0  0  0  0  0  0  0  0  0  0  0  0
   54.7160   29.3920   52.4050 C   0  0  0  0  0  0  0  0  0  0  0  0
   54.6620   28.1770   52.7370 O   0  0  0  0  0  0  0  0  0  0  0  0
   53.5070   30.0700   52.0450 N   0  0  0  0  0  0  0  0  0  0  0  0
   52.7520   30.7830   53.0730 C   0  0  0  0  0  0  0  0  0  0  0  0
   51.9150   31.8870   52.4160 C   0  0  0  0  0  0  0  0  0  0  0  0
   51.1390   31.3650   51.3530 O   0  0  0  0  0  0  0  0  0  0  0  0
   51.9890   30.8970   50.3210 C   0  0  0  0  0  0  0  0  0  0  0  0
   52.8280   29.7100   50.8030 C   0  0  0  0  0  0  0  0  0  0  0  0
   56.0090   31.5080   51.9740 C   0  0  0  0  0  0  0  0  0  0  0  0
   57.4280   31.9700   51.6260 C   0  0  0  0  0  0  0  0  0  0  0  0
   59.0950   30.7050   47.1880 N   0  0  0  0  0  0  0  0  0  0  0  0
   59.3830   32.0590   46.6750 C   0  0  0  0  0  0  0  0  0  0  0  0
   58.2100   32.6380   45.9230 C   0  0  0  0  0  0  0  0  0  0  0  0
   57.2390   31.8770   45.6560 O   0  0  0  0  0  0  0  0  0  0  0  0
   58.1430   34.0320   45.5470 N   0  0  0  0  0  0  0  0  0  0  0  0
   56.9330   34.5280   44.8840 C   0  0  0  0  0  0  0  0  0  0  0  0
   59.2410   34.9570   45.8450 C   0  0  0  0  0  0  0  0  0  0  0  0
   59.1420   30.4590   44.5468 H   0  0  0  0  0  0  0  0  0  0  0  0
   58.8038   28.5845   44.5897 H   0  0  0  0  0  0  0  0  0  0  0  0
   59.7438   26.6424   46.8333 H   0  0  0  0  0  0  0  0  0  0  0  0
   55.1430   27.7660   45.3140 H   0  0  0  0  0  0  0  0  0  0  0  0
   58.5326   28.4305   49.5225 H   0  0  0  0  0  0  0  0  0  0  0  0
   57.8213   28.8648   50.5566 H   0  0  0  0  0  0  0  0  0  0  0  0
   59.1881   29.3246   51.6514 H   0  0  0  0  0  0  0  0  0  0  0  0
   57.0444   28.3019   52.7283 H   0  0  0  0  0  0  0  0  0  0  0  0
   57.7470   29.7828   53.4635 H   0  0  0  0  0  0  0  0  0  0  0  0
   52.0867   30.0791   53.5943 H   0  0  0  0  0  0  0  0  0  0  0  0
   53.4489   31.2314   53.7964 H   0  0  0  0  0  0  0  0  0  0  0  0
   51.2450   32.3278   53.1689 H   0  0  0  0  0  0  0  0  0  0  0  0
   52.5949   32.6522   52.0132 H   0  0  0  0  0  0  0  0  0  0  0  0
   51.3756   30.5807   49.4644 H   0  0  0  0  0  0  0  0  0  0  0  0
   52.6673   31.7115   50.0267 H   0  0  0  0  0  0  0  0  0  0  0  0
   52.1723   28.8448   50.9804 H   0  0  0  0  0  0  0  0  0  0  0  0
   53.5742   29.4517   50.0372 H   0  0  0  0  0  0  0  0  0  0  0  0
   55.3599   31.6587   51.0988 H   0  0  0  0  0  0  0  0  0  0  0  0
   55.6557   32.0990   52.8318 H   0  0  0  0  0  0  0  0  0  0  0  0
   57.3766   32.8967   51.0357 H   0  0  0  0  0  0  0  0  0  0  0  0
   57.9894   32.1544   52.5538 H   0  0  0  0  0  0  0  0  0  0  0  0
   59.6213   32.7173   47.5234 H   0  0  0  0  0  0  0  0  0  0  0  0
   60.2314   31.9860   45.9787 H   0  0  0  0  0  0  0  0  0  0  0  0
   56.1965   34.8299   45.6432 H   0  0  0  0  0  0  0  0  0  0  0  0
   57.1880   35.3941   44.2557 H   0  0  0  0  0  0  0  0  0  0  0  0
   56.5067   33.7321   44.2557 H   0  0  0  0  0  0  0  0  0  0  0  0
   59.3544   35.0525   46.9350 H   0  0  0  0  0  0  0  0  0  0  0  0
   60.1748   34.5693   45.4118 H   0  0  0  0  0  0  0  0  0  0  0  0
   59.0175   35.9431   45.4118 H   0  0  0  0  0  0  0  0  0  0  0  0
  1  2  2  0
  2  3  1  0
  3  4  2  3
  4  5  1  0
  5  6  1  0
  6  7  1  0
  7  8  2  0
  7  9  1  0
  9 10  1  0
 10 11  1  0
  3 12  1  0
 12 13  2  0
 13 14  1  0
 14 15  2  0
 14 16  1  0
 16 17  1  0
 17 18  1  0
 18 19  1  0
 19 20  1  0
 20 21  2  0
 20 22  1  0
 22 23  1  0
 23 24  1  0
 24 25  1  0
 25 26  1  0
 26 27  1  0
 19 28  1  0
 28 29  1  0
 13 30  1  0
 30 31  1  0
 31 32  1  0
 32 33  2  0
 32 34  1  0
 34 35  1  0
 34 36  1  0
 30  2  1  0
 10  5  2  0
 29 16  1  0
 27 22  1  0
  1 37  1  0
  1 38  1  0
  4 39  1  0
 11 40  1  0
 12 41  1  0
 17 42  1  0
 17 43  1  0
 18 44  1  0
 18 45  1  0
 23 46  1  0
 23 47  1  0
 24 48  1  0
 24 49  1  0
 26 50  1  0
 26 51  1  0
 27 52  1  0
 27 53  1  0
 28 54  1  0
 28 55  1  0
 29 56  1  0
 29 57  1  0
 31 58  1  0
 31 59  1  0
 35 60  1  0
 35 61  1  0
 35 62  1  0
 36 63  1  0
 36 64  1  0
 36 65  1  0
M  CHG  2   6  -1   9  -1
M  END
>  <UniqueID>  (68) 
65

>  <SMILES>  (68) 
C=c1c(=Cc2[n-]c(=O)[n-]c2O)cc(C(=O)N2CCN(C(=O)N3CCOCC3)CC2)n1CC(=O)N(C)C

>  <Energy>  (68) 
142.95886656653965

>  <Genealogy>  (68) 
C=c1c(=Cc2[n-]c(=O)[n-]c2O)cc(C(=O)N2CCN(C(=O)N3CCOCC3)CC2)n1CC(=O)N(C)C (protonated)
C=c1c(=Cc2[n-]c(=O)[n-]c2O)cc(C(=O)N2CCN(C(=O)N3CCOCC3)CC2)n1CC(=O)N(C)C (3D coordinates assigned)
C=c1c(=Cc2[n-]c(=O)[n-]c2O)cc(C(=O)N2CCN(C(=O)N3CCOCC3)CC2)n1CC(=O)N(C)C (nonaromatic ring conformer: 142.95886656653965 kcal/mol)

>  <smiles>  (68) 
C=c1c(=Cc2[nH]c(=O)[nH]c2O)cc(C(=O)N2CCN(C(=O)N3CCOCC3)CC2)n1CC(=O)N(C)C

>  <score_type>  (68) 
oracle

>  <origin>  (68) 
adg

>  <m_score__min__energy>  (68) 
-12.960000000000001

>  <m_primary>  (68) 
energy

$$$$
68:0
     RDKit          3D

 62 65  0  0  0  0  0  0  0  0999 V2000
   66.7580   30.4940   51.1940 C   0  0  0  0  0  0  0  0  0  0  0  0
   66.7530   29.0380   51.4260 C   0  0  0  0  0  0  0  0  0  0  0  0
   67.5410   28.2300   50.6150 C   0  0  0  0  0  0  0  0  0  0  0  0
   67.4930   26.8770   50.8890 C   0  0  0  0  0  0  0  0  0  0  0  0
   68.3170   25.9420   50.0580 C   0  0  0  0  0  0  0  0  0  0  0  0
   66.7080   26.4270   51.9000 N   0  0  0  0  0  0  0  0  0  0  0  0
   65.9600   27.2040   52.6700 C   0  0  0  0  0  0  0  0  0  0  0  0
   65.2150   26.8280   53.6310 N   0  0  0  0  0  0  0  0  0  0  0  0
   63.7260   26.0240   53.5520 S   0  0  0  0  0  0  0  0  0  0  0  0
   63.1130   25.6990   54.8820 O   0  0  0  0  0  0  0  0  0  0  0  0
   63.9420   24.6810   52.8670 O   0  0  0  0  0  0  0  0  0  0  0  0
   62.6130   26.9280   52.5400 C   0  0  0  0  0  0  0  0  0  0  0  0
   61.8690   26.2860   51.5820 C   0  0  0  0  0  0  0  0  0  0  0  0
   61.0040   27.0430   50.8170 C   0  0  0  0  0  0  0  0  0  0  0  0
   60.9380   28.3950   51.0630 C   0  0  0  0  0  0  0  0  0  0  0  0
   60.0410   29.1680   50.3280 N   0  0  0  0  0  0  0  0  0  0  0  0
   60.4800   29.8670   49.0790 C   0  0  0  0  0  0  0  0  0  0  0  0
   61.5850   29.7150   48.7400 O   0  0  0  0  0  0  0  0  0  0  0  0
   59.2900   30.5830   48.6370 N   0  0  0  0  0  0  0  0  0  0  0  0
   59.9930   31.1910   47.2280 C   0  0  0  0  0  0  0  0  0  0  0  0
   61.1090   30.8920   46.9930 O   0  0  0  0  0  0  0  0  0  0  0  0
   59.1610   32.0240   46.4380 C   0  0  0  0  0  0  0  0  0  0  0  0
   58.2900   31.3240   45.5680 C   0  0  0  0  0  0  0  0  0  0  0  0
   57.4070   31.9740   44.7550 C   0  0  0  0  0  0  0  0  0  0  0  0
   56.5700   31.2000   43.9140 N   0  0  0  0  0  0  0  0  0  0  0  0
   56.7130   31.1630   42.6800 O   0  0  0  0  0  0  0  0  0  0  0  0
   55.5730   30.4750   44.5000 O   0  0  0  0  0  0  0  0  0  0  0  0
   57.3060   33.3470   44.7280 C   0  0  0  0  0  0  0  0  0  0  0  0
   58.1390   34.0430   45.5620 C   0  0  0  0  0  0  0  0  0  0  0  0
   59.0410   33.3790   46.3930 C   0  0  0  0  0  0  0  0  0  0  0  0
   59.8220   34.1950   47.1780 O   0  0  0  0  0  0  0  0  0  0  0  0
   61.1200   33.9860   47.5130 C   0  0  0  0  0  0  0  0  0  0  0  0
   61.4990   33.9220   48.8450 C   0  0  0  0  0  0  0  0  0  0  0  0
   62.8270   33.7080   49.1550 C   0  0  0  0  0  0  0  0  0  0  0  0
   63.7300   33.5670   48.1270 C   0  0  0  0  0  0  0  0  0  0  0  0
   63.3870   33.6240   46.7930 C   0  0  0  0  0  0  0  0  0  0  0  0
   62.0550   33.8380   46.5030 C   0  0  0  0  0  0  0  0  0  0  0  0
   61.6940   29.0350   52.0330 C   0  0  0  0  0  0  0  0  0  0  0  0
   62.5400   28.2800   52.7750 C   0  0  0  0  0  0  0  0  0  0  0  0
   65.9880   28.5440   52.4200 N   0  0  0  0  0  0  0  0  0  0  0  0
   66.7598   31.0193   52.1605 H   0  0  0  0  0  0  0  0  0  0  0  0
   67.6571   30.7714   50.6242 H   0  0  0  0  0  0  0  0  0  0  0  0
   65.8608   30.7776   50.6242 H   0  0  0  0  0  0  0  0  0  0  0  0
   68.1631   28.6416   49.8066 H   0  0  0  0  0  0  0  0  0  0  0  0
   68.8991   25.2815   50.7175 H   0  0  0  0  0  0  0  0  0  0  0  0
   67.6547   25.3351   49.4231 H   0  0  0  0  0  0  0  0  0  0  0  0
   69.0023   26.5228   49.4231 H   0  0  0  0  0  0  0  0  0  0  0  0
   66.7080   25.4130   52.0590 H   0  0  0  0  0  0  0  0  0  0  0  0
   61.9591   25.2005   51.4282 H   0  0  0  0  0  0  0  0  0  0  0  0
   60.3861   26.5789   50.0342 H   0  0  0  0  0  0  0  0  0  0  0  0
   59.0210   29.3070   50.6050 H   0  0  0  0  0  0  0  0  0  0  0  0
   58.6260   30.9850   48.3870 H   0  0  0  0  0  0  0  0  0  0  0  0
   58.3261   30.2248   45.5468 H   0  0  0  0  0  0  0  0  0  0  0  0
   56.5906   33.8597   44.0682 H   0  0  0  0  0  0  0  0  0  0  0  0
   58.0963   35.1421   45.5770 H   0  0  0  0  0  0  0  0  0  0  0  0
   60.7519   34.0401   49.6437 H   0  0  0  0  0  0  0  0  0  0  0  0
   63.1565   33.6514   50.2030 H   0  0  0  0  0  0  0  0  0  0  0  0
   64.7863   33.3992   48.3841 H   0  0  0  0  0  0  0  0  0  0  0  0
   64.1384   33.5047   45.9986 H   0  0  0  0  0  0  0  0  0  0  0  0
   61.7312   33.8918   45.4531 H   0  0  0  0  0  0  0  0  0  0  0  0
   61.6099   30.1198   52.1950 H   0  0  0  0  0  0  0  0  0  0  0  0
   63.1607   28.7437   53.5559 H   0  0  0  0  0  0  0  0  0  0  0  0
  1  2  1  0
  2  3  1  0
  3  4  2  0
  4  5  1  0
  4  6  1  0
  6  7  1  0
  7  8  2  3
  8  9  1  0
  9 10  2  0
  9 11  2  0
  9 12  1  0
 12 13  2  0
 13 14  1  0
 14 15  2  0
 15 16  1  0
 16 17  1  0
 17 18  2  0
 17 19  1  0
 19 20  1  0
 20 21  2  0
 20 22  1  0
 22 23  2  0
 23 24  1  0
 24 25  1  0
 25 26  2  0
 25 27  1  0
 24 28  2  0
 28 29  1  0
 29 30  2  0
 30 31  1  0
 31 32  1  0
 32 33  2  0
 33 34  1  0
 34 35  2  0
 35 36  1  0
 36 37  2  0
 15 38  1  0
 38 39  2  0
  7 40  1  0
 40  2  2  0
 39 12  1  0
 30 22  1  0
 37 32  1  0
  1 41  1  0
  1 42  1  0
  1 43  1  0
  3 44  1  0
  5 45  1  0
  5 46  1  0
  5 47  1  0
  6 48  1  0
 13 49  1  0
 14 50  1  0
 16 51  1  0
 19 52  1  0
 23 53  1  0
 28 54  1  0
 29 55  1  0
 33 56  1  0
 34 57  1  0
 35 58  1  0
 36 59  1  0
 37 60  1  0
 38 61  1  0
 39 62  1  0
M  CHG  2  25   1  27  -1
M  END
>  <smiles>  (69) 
Cc1cc(C)[nH]c(=NS(=O)(=O)c2ccc(NC(=O)NC(=O)c3cc([N+](=O)[O-])ccc3Oc3ccccc3)cc2)n1

>  <score_type>  (69) 
oracle

>  <origin>  (69) 
adg

>  <m_score__min__energy>  (69) 
-10.26

>  <m_primary>  (69) 
energy

$$$$
69:0
     RDKit          3D

 28 29  0  0  0  0  0  0  0  0999 V2000
   59.0907   31.2336   44.1989 H   0  0  0  0  0  0  0  0  0  0  0  0
   58.5810   30.3470   44.6040 C   0  0  0  0  0  0  0  0  0  0  0  0
   57.1930   30.2260   44.4880 C   0  0  0  0  0  0  0  0  0  0  0  0
   56.6118   31.0178   43.9929 H   0  0  0  0  0  0  0  0  0  0  0  0
   56.5430   29.0990   45.0010 C   0  0  0  0  0  0  0  0  0  0  0  0
   55.1650   28.9780   44.8820 O   0  0  0  0  0  0  0  0  0  0  0  0
   57.2830   28.0920   45.6310 C   0  0  0  0  0  0  0  0  0  0  0  0
   56.7705   27.2050   46.0316 H   0  0  0  0  0  0  0  0  0  0  0  0
   58.6770   28.2090   45.7540 C   0  0  0  0  0  0  0  0  0  0  0  0
   59.4690   27.1100   46.4140 C   0  0  0  0  0  0  0  0  0  0  0  0
   59.9914   27.5179   47.2919 H   0  0  0  0  0  0  0  0  0  0  0  0
   60.1955   26.7123   45.6901 H   0  0  0  0  0  0  0  0  0  0  0  0
   58.5860   26.0250   46.8410 N   0  0  0  0  0  0  0  0  0  0  0  0
   58.1960   25.0410   46.0830 C   0  0  0  0  0  0  0  0  0  0  0  0
   56.9380   25.0160   45.5680 N   0  0  0  0  0  0  0  0  0  0  0  0
   56.5160   23.9960   44.7800 C   0  0  0  0  0  0  0  0  0  0  0  0
   55.3400   24.0130   44.3270 O   0  0  0  0  0  0  0  0  0  0  0  0
   57.3860   22.9400   44.4800 C   0  0  0  0  0  0  0  0  0  0  0  0
   56.9450   21.8480   43.6420 C   0  0  0  0  0  0  0  0  0  0  0  0
   56.5910   20.9750   42.9700 N   0  0  0  0  0  0  0  0  0  0  0  0
   58.6880   22.9770   45.0160 C   0  0  0  0  0  0  0  0  0  0  0  0
   59.6310   21.9300   44.7510 N   0  0  0  0  0  0  0  0  0  0  0  0
   59.3170   20.9340   44.7220 H   0  0  0  0  0  0  0  0  0  0  0  0
   60.6420   22.1230   44.5820 H   0  0  0  0  0  0  0  0  0  0  0  0
   59.0590   24.0270   45.8030 N   0  0  0  0  0  0  0  0  0  0  0  0
   60.0270   24.0520   46.2000 H   0  0  0  0  0  0  0  0  0  0  0  0
   59.3220   29.3430   45.2340 C   0  0  0  0  0  0  0  0  0  0  0  0
   60.4140   29.4415   45.3228 H   0  0  0  0  0  0  0  0  0  0  0  0
  1  2  1  0
  2  3  2  0
  3  4  1  0
  3  5  1  0
  5  6  1  0
  5  7  2  0
  7  8  1  0
  7  9  1  0
  9 10  1  0
 10 11  1  0
 10 12  1  0
 10 13  1  0
 13 14  2  0
 14 15  1  0
 15 16  1  0
 16 17  2  0
 16 18  1  0
 18 19  1  0
 19 20  3  0
 18 21  2  0
 21 22  1  0
 22 23  1  0
 22 24  1  0
 21 25  1  0
 25 26  1  0
  9 27  2  0
 27 28  1  0
 27  2  1  0
 25 14  1  0
M  CHG  2   6  -1  15  -1
M  END
>  <UniqueID>  (70) 
66

>  <SMILES>  (70) 
N#Cc1c(N)[nH]/c(=N/Cc2cccc([O-])c2)[n-]c1=O

>  <Energy>  (70) 
29.08533776727005

>  <Genealogy>  (70) 
N#Cc1c(N)[nH]c(=NCc2cccc([O-])c2)[n-]c1=O (protonated)
N#Cc1c(N)[nH]/c(=N/Cc2cccc([O-])c2)[n-]c1=O (cis-trans isomerization)
N#Cc1c(N)[nH]/c(=N/Cc2cccc([O-])c2)[n-]c1=O (3D coordinates assigned)
N#Cc1c(N)[nH]/c(=N/Cc2cccc([O-])c2)[n-]c1=O (optimized conformer: 29.08533776727005 kcal/mol)

>  <smiles>  (70) 
N#Cc1c(N)[nH]c(=NCc2cccc(O)c2)[nH]c1=O

>  <score_type>  (70) 
oracle

>  <origin>  (70) 
adg

>  <m_score__min__energy>  (70) 
-11.279999999999999

>  <m_primary>  (70) 
energy

$$$$
70:0
     RDKit          3D

 38 40  0  0  0  0  0  0  0  0999 V2000
   64.4940   33.4800   48.8020 N   0  0  0  0  0  0  0  0  0  0  0  0
   63.1900   33.6880   48.2540 C   0  0  0  0  0  0  0  0  0  0  0  0
   62.1120   33.9980   49.0940 C   0  0  0  0  0  0  0  0  0  0  0  0
   60.8370   34.2020   48.5580 C   0  0  0  0  0  0  0  0  0  0  0  0
   60.6290   34.1100   47.1700 C   0  0  0  0  0  0  0  0  0  0  0  0
   59.3620   34.2910   46.5960 O   0  0  0  0  0  0  0  0  0  0  0  0
   58.7100   33.3760   45.7570 C   0  0  0  0  0  0  0  0  0  0  0  0
   58.3660   33.6950   44.4320 C   0  0  0  0  0  0  0  0  0  0  0  0
   57.7430   32.7440   43.6200 C   0  0  0  0  0  0  0  0  0  0  0  0
   57.4600   31.4700   44.1190 C   0  0  0  0  0  0  0  0  0  0  0  0
   57.7940   31.1410   45.4450 C   0  0  0  0  0  0  0  0  0  0  0  0
   57.5510   29.8340   45.9890 N   0  0  0  0  0  0  0  0  0  0  0  0
   56.7150   28.8140   45.4250 C   0  0  0  0  0  0  0  0  0  0  0  0
   55.6490   29.1340   44.8340 O   0  0  0  0  0  0  0  0  0  0  0  0
   57.0830   27.3820   45.5870 C   0  0  0  0  0  0  0  0  0  0  0  0
   58.4300   26.9880   45.4520 C   0  0  0  0  0  0  0  0  0  0  0  0
   58.8010   25.6490   45.5990 C   0  0  0  0  0  0  0  0  0  0  0  0
   57.8380   24.6830   45.8830 C   0  0  0  0  0  0  0  0  0  0  0  0
   56.4990   25.0520   46.0200 C   0  0  0  0  0  0  0  0  0  0  0  0
   56.1140   26.3890   45.8730 C   0  0  0  0  0  0  0  0  0  0  0  0
   54.7700   26.7130   46.0140 O   0  0  0  0  0  0  0  0  0  0  0  0
   58.4420   32.0900   46.2450 C   0  0  0  0  0  0  0  0  0  0  0  0
   61.7040   33.7810   46.3360 C   0  0  0  0  0  0  0  0  0  0  0  0
   62.9800   33.5770   46.8730 C   0  0  0  0  0  0  0  0  0  0  0  0
   64.7040   33.7290   49.7950 H   0  0  0  0  0  0  0  0  0  0  0  0
   65.2610   33.0750   48.2190 H   0  0  0  0  0  0  0  0  0  0  0  0
   62.2696   34.0812   50.1795 H   0  0  0  0  0  0  0  0  0  0  0  0
   59.9934   34.4353   49.2242 H   0  0  0  0  0  0  0  0  0  0  0  0
   58.5879   34.6959   44.0334 H   0  0  0  0  0  0  0  0  0  0  0  0
   57.4744   32.9991   42.5843 H   0  0  0  0  0  0  0  0  0  0  0  0
   56.9750   30.7229   43.4735 H   0  0  0  0  0  0  0  0  0  0  0  0
   59.1976   27.7435   45.2284 H   0  0  0  0  0  0  0  0  0  0  0  0
   59.8559   25.3568   45.4902 H   0  0  0  0  0  0  0  0  0  0  0  0
   58.1330   23.6297   45.9992 H   0  0  0  0  0  0  0  0  0  0  0  0
   55.7415   24.2868   46.2450 H   0  0  0  0  0  0  0  0  0  0  0  0
   58.7442   31.8230   47.2684 H   0  0  0  0  0  0  0  0  0  0  0  0
   61.5448   33.6822   45.2521 H   0  0  0  0  0  0  0  0  0  0  0  0
   63.8210   33.3287   46.2088 H   0  0  0  0  0  0  0  0  0  0  0  0
  1  2  1  0
  2  3  2  0
  3  4  1  0
  4  5  2  0
  5  6  1  0
  6  7  1  0
  7  8  2  0
  8  9  1  0
  9 10  2  0
 10 11  1  0
 11 12  1  0
 12 13  1  0
 13 14  2  0
 13 15  1  0
 15 16  2  0
 16 17  1  0
 17 18  2  0
 18 19  1  0
 19 20  2  0
 20 21  1  0
 11 22  2  0
  5 23  1  0
 23 24  2  0
 24  2  1  0
 22  7  1  0
 20 15  1  0
  1 25  1  0
  1 26  1  0
  3 27  1  0
  4 28  1  0
  8 29  1  0
  9 30  1  0
 10 31  1  0
 16 32  1  0
 17 33  1  0
 18 34  1  0
 19 35  1  0
 22 36  1  0
 23 37  1  0
 24 38  1  0
M  CHG  2  12  -1  21  -1
M  END
>  <UniqueID>  (71) 
67

>  <SMILES>  (71) 
Nc1ccc(Oc2cccc([N-]C(=O)c3ccccc3[O-])c2)cc1

>  <Energy>  (71) 
52.66776115558395

>  <Genealogy>  (71) 
Nc1ccc(Oc2cccc([N-]C(=O)c3ccccc3[O-])c2)cc1 (protonated)
Nc1ccc(Oc2cccc([N-]C(=O)c3ccccc3[O-])c2)cc1 (3D coordinates assigned)
Nc1ccc(Oc2cccc([N-]C(=O)c3ccccc3[O-])c2)cc1 (optimized conformer: 52.66776115558395 kcal/mol)

>  <smiles>  (71) 
Nc1ccc(Oc2cccc(NC(=O)c3ccccc3O)c2)cc1

>  <score_type>  (71) 
oracle

>  <origin>  (71) 
adg

>  <m_score__min__energy>  (71) 
-13.869999999999999

>  <m_primary>  (71) 
energy

$$$$
71:0
     RDKit          3D

 30 31  0  0  1  0  0  0  0  0999 V2000
   60.3670   34.6110   47.0320 C   0  0  0  0  0  0  0  0  0  0  0  0
   59.2860   33.7600   46.4870 C   0  0  0  0  0  0  0  0  0  0  0  0
   58.8520   33.7870   45.1770 C   0  0  0  0  0  0  0  0  0  0  0  0
   57.8330   32.8590   45.0390 C   0  0  0  0  0  0  0  0  0  0  0  0
   57.1430   32.5500   43.9950 N   0  0  0  0  0  0  0  0  0  0  0  0
   56.9480   31.2190   43.5260 C   0  0  0  0  0  0  0  0  0  0  0  0
   57.3050   30.8320   42.3820 O   0  0  0  0  0  0  0  0  0  0  0  0
   56.2990   30.2740   44.4320 C   0  0  0  0  0  0  0  0  0  0  0  0
   55.1560   29.7860   44.1960 O   0  0  0  0  0  0  0  0  0  0  0  0
   56.9210   29.8460   45.6420 N   0  0  0  0  0  0  0  0  0  0  0  0
   57.6170   28.7680   45.6020 C   0  0  0  0  0  0  0  0  0  0  0  0
   58.9660   28.9240   45.5720 N   0  0  0  0  0  0  0  0  0  0  0  0
   59.8070   27.8730   45.5290 C   0  0  0  0  0  0  0  0  0  0  0  0
   59.2640   26.6050   45.5170 C   0  0  0  0  0  0  0  0  0  0  0  0
   57.9010   26.3950   45.5470 C   0  0  0  0  0  0  0  0  0  0  0  0
   57.0770   27.4990   45.5900 C   0  0  0  0  0  0  0  0  0  0  0  0
   55.7050   27.3490   45.6210 O   0  0  0  0  0  0  0  0  0  0  0  0
   57.6760   32.2980   46.2500 N   0  0  0  0  0  0  0  0  0  0  0  0
   58.5300   32.8260   47.1120 N   0  0  0  0  0  0  0  0  0  0  0  0
   60.3347   34.5856   48.1312 H   0  0  0  0  0  0  0  0  0  0  0  0
   61.3405   34.2343   46.6849 H   0  0  0  0  0  0  0  0  0  0  0  0
   60.2294   35.6457   46.6849 H   0  0  0  0  0  0  0  0  0  0  0  0
   59.2472   34.4340   44.3800 H   0  0  0  0  0  0  0  0  0  0  0  0
   59.3930   29.8770   45.5810 H   0  0  0  0  0  0  0  0  0  0  0  0
   60.8966   28.0216   45.5041 H   0  0  0  0  0  0  0  0  0  0  0  0
   59.9375   25.7360   45.4825 H   0  0  0  0  0  0  0  0  0  0  0  0
   57.4843   25.3771   45.5369 H   0  0  0  0  0  0  0  0  0  0  0  0
   55.1430   28.1990   45.6570 H   0  0  0  0  0  0  0  0  0  0  0  0
   57.0010   31.5620   46.5170 H   0  0  0  0  0  0  0  0  0  0  0  0
   58.6610   32.6070   48.1240 H   0  0  0  0  0  0  0  0  0  0  0  0
  1  2  1  0
  2  3  2  0
  3  4  1  0
  4  5  2  0
  5  6  1  0
  6  7  2  0
  6  8  1  0
  8  9  2  0
  8 10  1  0
 10 11  2  0
 11 12  1  0
 12 13  1  0
 13 14  2  0
 14 15  1  0
 15 16  2  0
 16 17  1  0
  4 18  1  0
 18 19  1  0
 19  2  1  0
 16 11  1  0
  1 20  1  0
  1 21  1  0
  1 22  1  0
  3 23  1  0
 12 24  1  0
 13 25  1  0
 14 26  1  0
 15 27  1  0
 17 28  1  0
 18 29  1  0
 19 30  1  0
M  END
>  <smiles>  (72) 
Cc1cc(=NC(=O)C(=O)N=c2[nH]cccc2O)[nH][nH]1

>  <score_type>  (72) 
oracle

>  <origin>  (72) 
adg

>  <m_score__min__energy>  (72) 
-7.4400000000000004

>  <m_primary>  (72) 
energy

$$$$
72:0
     RDKit          3D

 51 54  0  0  0  0  0  0  0  0999 V2000
   56.2630   29.3450   42.3780 C   0  0  0  0  0  0  0  0  0  0  0  0
   57.2890   30.1050   43.0810 N   0  0  0  0  0  0  0  0  0  0  0  0
   56.9850   30.4850   44.4190 C   0  0  0  0  0  0  0  0  0  0  0  0
   55.8360   30.1230   44.8560 O   0  0  0  0  0  0  0  0  0  0  0  0
   57.8240   31.2170   45.3100 C   0  0  0  0  0  0  0  0  0  0  0  0
   57.9790   32.5740   45.0950 C   0  0  0  0  0  0  0  0  0  0  0  0
   58.7370   33.3740   45.8970 C   0  0  0  0  0  0  0  0  0  0  0  0
   59.3910   32.8360   46.9830 C   0  0  0  0  0  0  0  0  0  0  0  0
   60.1770   33.5880   47.9370 C   0  0  0  0  0  0  0  0  0  0  0  0
   59.9960   34.8750   47.8920 O   0  0  0  0  0  0  0  0  0  0  0  0
   61.0920   33.1460   48.8830 N   0  0  0  0  0  0  0  0  0  0  0  0
   61.5120   31.8260   49.2160 C   0  0  0  0  0  0  0  0  0  0  0  0
   62.5080   31.8690   50.4030 C   0  0  0  0  0  0  0  0  0  0  0  0
   63.6240   32.7190   49.9780 N   0  0  0  0  0  0  0  0  0  0  0  0
   64.9810   32.3810   50.1420 C   0  0  0  0  0  0  0  0  0  0  0  0
   65.8520   33.1340   49.6600 O   0  0  0  0  0  0  0  0  0  0  0  0
   65.4620   31.1590   50.8620 C   0  0  0  0  0  0  0  0  0  0  0  0
   66.9280   30.8360   50.8730 C   0  0  0  0  0  0  0  0  0  0  0  0
   66.2010   31.3360   52.1140 C   0  0  0  0  0  0  0  0  0  0  0  0
   63.2480   33.9910   49.3670 C   0  0  0  0  0  0  0  0  0  0  0  0
   61.7670   34.2180   49.6860 C   0  0  0  0  0  0  0  0  0  0  0  0
   59.2240   31.4840   47.1760 C   0  0  0  0  0  0  0  0  0  0  0  0
   58.4710   30.6390   46.3920 C   0  0  0  0  0  0  0  0  0  0  0  0
   58.3690   29.2350   46.7360 C   0  0  0  0  0  0  0  0  0  0  0  0
   59.3280   28.5980   47.4770 N   0  0  0  0  0  0  0  0  0  0  0  0
   59.0070   27.3390   47.6270 N   0  0  0  0  0  0  0  0  0  0  0  0
   57.8470   27.0980   47.0090 C   0  0  0  0  0  0  0  0  0  0  0  0
   57.2100   25.9880   46.9370 O   0  0  0  0  0  0  0  0  0  0  0  0
   57.4860   28.2850   46.4710 N   0  0  0  0  0  0  0  0  0  0  0  0
   55.6030   28.8561   43.1096 H   0  0  0  0  0  0  0  0  0  0  0  0
   55.6713   30.0244   41.7469 H   0  0  0  0  0  0  0  0  0  0  0  0
   56.7405   28.5810   41.7469 H   0  0  0  0  0  0  0  0  0  0  0  0
   58.2060   30.3700   42.6740 H   0  0  0  0  0  0  0  0  0  0  0  0
   57.4659   33.0299   44.2354 H   0  0  0  0  0  0  0  0  0  0  0  0
   58.8263   34.4481   45.6771 H   0  0  0  0  0  0  0  0  0  0  0  0
   60.6349   31.2252   49.4983 H   0  0  0  0  0  0  0  0  0  0  0  0
   62.0089   31.3750   48.3444 H   0  0  0  0  0  0  0  0  0  0  0  0
   62.0216   32.2966   51.2921 H   0  0  0  0  0  0  0  0  0  0  0  0
   62.8550   30.8595   50.6684 H   0  0  0  0  0  0  0  0  0  0  0  0
   64.5624   30.5994   50.5662 H   0  0  0  0  0  0  0  0  0  0  0  0
   67.2673   29.7915   50.8108 H   0  0  0  0  0  0  0  0  0  0  0  0
   67.8099   31.1486   50.2947 H   0  0  0  0  0  0  0  0  0  0  0  0
   66.0226   30.6537   52.9582 H   0  0  0  0  0  0  0  0  0  0  0  0
   66.3485   32.1691   52.8170 H   0  0  0  0  0  0  0  0  0  0  0  0
   63.8547   34.8065   49.7875 H   0  0  0  0  0  0  0  0  0  0  0  0
   63.4179   33.9710   48.2804 H   0  0  0  0  0  0  0  0  0  0  0  0
   61.5686   34.0936   50.7608 H   0  0  0  0  0  0  0  0  0  0  0  0
   61.4174   35.2324   49.4434 H   0  0  0  0  0  0  0  0  0  0  0  0
   59.7406   31.0361   48.0377 H   0  0  0  0  0  0  0  0  0  0  0  0
   59.5680   26.6110   48.1510 H   0  0  0  0  0  0  0  0  0  0  0  0
   56.6140   28.4170   45.9350 H   0  0  0  0  0  0  0  0  0  0  0  0
  1  2  1  0
  2  3  1  0
  3  4  2  0
  3  5  1  0
  5  6  2  0
  6  7  1  0
  7  8  2  0
  8  9  1  0
  9 10  2  0
  9 11  1  0
 11 12  1  0
 12 13  1  0
 13 14  1  0
 14 15  1  0
 15 16  2  0
 15 17  1  0
 17 18  1  0
 18 19  1  0
 14 20  1  0
 20 21  1  0
  8 22  1  0
 22 23  2  0
 23 24  1  0
 24 25  2  0
 25 26  1  0
 26 27  1  0
 27 28  2  0
 27 29  1  0
 23  5  1  0
 29 24  1  0
 21 11  1  0
 19 17  1  0
  1 30  1  0
  1 31  1  0
  1 32  1  0
  2 33  1  0
  6 34  1  0
  7 35  1  0
 12 36  1  0
 12 37  1  0
 13 38  1  0
 13 39  1  0
 17 40  1  0
 18 41  1  0
 18 42  1  0
 19 43  1  0
 19 44  1  0
 20 45  1  0
 20 46  1  0
 21 47  1  0
 21 48  1  0
 22 49  1  0
 26 50  1  0
 29 51  1  0
M  END
>  <smiles>  (73) 
CNC(=O)c1ccc(C(=O)N2CCN(C(=O)C3CC3)CC2)cc1-c1n[nH]c(=O)[nH]1

>  <score_type>  (73) 
oracle

>  <origin>  (73) 
adg

>  <m_score__min__energy>  (73) 
-8.2799999999999994

>  <m_primary>  (73) 
energy

$$$$
73:0
     RDKit          3D

 33 35  0  0  0  0  0  0  0  0999 V2000
   61.2250   28.1580   48.7560 H   0  0  0  0  0  0  0  0  0  0  0  0
   60.7240   28.8850   48.2660 O   0  0  0  0  0  0  0  0  0  0  0  0
   60.2270   30.0500   48.8590 C   0  0  0  0  0  0  0  0  0  0  0  0
   59.2470   29.8930   49.8480 C   0  0  0  0  0  0  0  0  0  0  0  0
   58.9107   28.8809   50.1173 H   0  0  0  0  0  0  0  0  0  0  0  0
   58.6840   31.0040   50.5040 C   0  0  0  0  0  0  0  0  0  0  0  0
   57.7420   30.8470   51.4560 C   0  0  0  0  0  0  0  0  0  0  0  0
   57.8640   31.3060   52.7270 N   0  0  0  0  0  0  0  0  0  0  0  0
   56.7080   30.9220   53.2940 C   0  0  0  0  0  0  0  0  0  0  0  0
   56.4070   31.1560   54.4950 O   0  0  0  0  0  0  0  0  0  0  0  0
   55.9280   30.2530   52.3800 C   0  0  0  0  0  0  0  0  0  0  0  0
   54.7060   29.7400   52.5810 C   0  0  0  0  0  0  0  0  0  0  0  0
   54.6305   28.6777   52.8562 H   0  0  0  0  0  0  0  0  0  0  0  0
   53.4510   30.5170   52.4550 C   0  0  0  0  0  0  0  0  0  0  0  0
   52.5210   30.6190   53.5080 C   0  0  0  0  0  0  0  0  0  0  0  0
   52.7115   30.0993   54.4586 H   0  0  0  0  0  0  0  0  0  0  0  0
   51.3560   31.3780   53.3510 C   0  0  0  0  0  0  0  0  0  0  0  0
   50.6284   31.4433   54.1734 H   0  0  0  0  0  0  0  0  0  0  0  0
   51.1150   32.0530   52.1520 C   0  0  0  0  0  0  0  0  0  0  0  0
   49.9570   32.8050   51.9980 O   0  0  0  0  0  0  0  0  0  0  0  0
   52.0420   31.9760   51.1090 C   0  0  0  0  0  0  0  0  0  0  0  0
   51.8545   32.5111   50.1664 H   0  0  0  0  0  0  0  0  0  0  0  0
   53.2080   31.2190   51.2630 C   0  0  0  0  0  0  0  0  0  0  0  0
   53.9407   31.1731   50.4438 H   0  0  0  0  0  0  0  0  0  0  0  0
   56.5940   30.2270   51.2510 O   0  0  0  0  0  0  0  0  0  0  0  0
   59.1260   32.2900   50.1480 C   0  0  0  0  0  0  0  0  0  0  0  0
   58.7001   33.1709   50.6506 H   0  0  0  0  0  0  0  0  0  0  0  0
   60.1000   32.4600   49.1630 C   0  0  0  0  0  0  0  0  0  0  0  0
   60.4297   33.4753   48.8976 H   0  0  0  0  0  0  0  0  0  0  0  0
   60.6670   31.3540   48.5040 C   0  0  0  0  0  0  0  0  0  0  0  0
   61.6010   31.5770   47.5670 C   0  0  0  0  0  0  0  0  0  0  0  0
   62.0608   30.7303   47.0363 H   0  0  0  0  0  0  0  0  0  0  0  0
   61.9070   32.6065   47.3295 H   0  0  0  0  0  0  0  0  0  0  0  0
  1  2  1  0
  2  3  1  0
  3  4  2  0
  4  5  1  0
  4  6  1  0
  6  7  2  3
  7  8  1  0
  8  9  1  0
  9 10  2  0
  9 11  1  0
 11 12  2  0
 12 13  1  0
 12 14  1  0
 14 15  2  0
 15 16  1  0
 15 17  1  0
 17 18  1  0
 17 19  2  0
 19 20  1  0
 19 21  1  0
 21 22  1  0
 21 23  2  0
 23 24  1  0
 11 25  1  0
  6 26  1  0
 26 27  1  0
 26 28  2  0
 28 29  1  0
 28 30  1  0
 30 31  2  0
 31 32  1  0
 31 33  1  0
 30  3  1  0
 25  7  1  0
 23 14  1  0
M  CHG  2   8  -1  20  -1
M  END
>  <UniqueID>  (74) 
68

>  <SMILES>  (74) 
C=c1ccc(=c2[n-]c(=O)/c(=C/c3ccc([O-])cc3)o2)cc1O

>  <Energy>  (74) 
78.70073826540036

>  <Genealogy>  (74) 
C=c1ccc(=c2[n-]c(=O)c(=Cc3ccc([O-])cc3)o2)cc1O (protonated)
C=c1ccc(=c2[n-]c(=O)/c(=C/c3ccc([O-])cc3)o2)cc1O (cis-trans isomerization)
C=c1ccc(=c2[n-]c(=O)/c(=C/c3ccc([O-])cc3)o2)cc1O (3D coordinates assigned)
C=c1ccc(=c2[n-]c(=O)/c(=C/c3ccc([O-])cc3)o2)cc1O (optimized conformer: 78.70073826540036 kcal/mol)

>  <smiles>  (74) 
C=c1ccc(=c2[nH]c(=O)c(=Cc3ccc(O)cc3)o2)cc1O

>  <score_type>  (74) 
oracle

>  <origin>  (74) 
adg

>  <m_score__min__energy>  (74) 
-11.949999999999999

>  <m_primary>  (74) 
energy

$$$$
74:0
     RDKit          3D

 59 62  0  0  0  0  0  0  0  0999 V2000
   57.8429   25.7373   42.5755 H   0  0  0  0  0  0  0  0  0  0  0  0
   57.4080   25.1340   43.3860 C   0  0  0  0  0  0  0  0  0  0  0  0
   56.8667   24.2057   43.1510 H   0  0  0  0  0  0  0  0  0  0  0  0
   57.5380   25.5310   44.6630 C   0  0  0  0  0  0  0  0  0  0  0  0
   57.0380   24.8660   45.7960 C   0  0  0  0  0  0  0  0  0  0  0  0
   56.1720   23.8400   45.9130 C   0  0  0  0  0  0  0  0  0  0  0  0
   56.5843   22.8668   46.2179 H   0  0  0  0  0  0  0  0  0  0  0  0
   54.7220   23.9090   45.6680 C   0  0  0  0  0  0  0  0  0  0  0  0
   53.9600   22.8700   45.2800 N   0  0  0  0  0  0  0  0  0  0  0  0
   52.7540   23.4350   45.0570 C   0  0  0  0  0  0  0  0  0  0  0  0
   51.7520   22.7700   44.6860 O   0  0  0  0  0  0  0  0  0  0  0  0
   52.7090   24.7710   45.2540 N   0  0  0  0  0  0  0  0  0  0  0  0
   53.9670   25.0550   45.6250 C   0  0  0  0  0  0  0  0  0  0  0  0
   54.4170   26.3380   45.9110 O   0  0  0  0  0  0  0  0  0  0  0  0
   57.5930   25.5000   46.8940 C   0  0  0  0  0  0  0  0  0  0  0  0
   57.4620   25.2181   47.9492 H   0  0  0  0  0  0  0  0  0  0  0  0
   58.3410   26.5520   46.4120 C   0  0  0  0  0  0  0  0  0  0  0  0
   59.0610   27.5400   47.2810 C   0  0  0  0  0  0  0  0  0  0  0  0
   58.8831   27.2959   48.3387 H   0  0  0  0  0  0  0  0  0  0  0  0
   60.1398   27.4954   47.0708 H   0  0  0  0  0  0  0  0  0  0  0  0
   58.6881   28.5533   47.0708 H   0  0  0  0  0  0  0  0  0  0  0  0
   58.3120   26.5800   45.0590 N   0  0  0  0  0  0  0  0  0  0  0  0
   58.9780   27.5910   44.2190 C   0  0  0  0  0  0  0  0  0  0  0  0
   59.9807   27.7940   44.6232 H   0  0  0  0  0  0  0  0  0  0  0  0
   59.0543   27.2057   43.1915 H   0  0  0  0  0  0  0  0  0  0  0  0
   58.1820   28.8700   44.2020 C   0  0  0  0  0  0  0  0  0  0  0  0
   57.0760   29.0010   43.3500 C   0  0  0  0  0  0  0  0  0  0  0  0
   56.7998   28.1733   42.6802 H   0  0  0  0  0  0  0  0  0  0  0  0
   56.3240   30.1770   43.3480 C   0  0  0  0  0  0  0  0  0  0  0  0
   55.4536   30.2700   42.6818 H   0  0  0  0  0  0  0  0  0  0  0  0
   56.6730   31.2360   44.1890 C   0  0  0  0  0  0  0  0  0  0  0  0
   56.0719   32.1572   44.1853 H   0  0  0  0  0  0  0  0  0  0  0  0
   57.7880   31.1330   45.0410 C   0  0  0  0  0  0  0  0  0  0  0  0
   58.1740   32.2440   45.9490 C   0  0  0  0  0  0  0  0  0  0  0  0
   57.2660   32.9960   46.4040 O   0  0  0  0  0  0  0  0  0  0  0  0
   59.5610   32.5020   46.2900 N   0  0  0  0  0  0  0  0  0  0  0  0
   60.1790   31.9820   45.6250 H   0  0  0  0  0  0  0  0  0  0  0  0
   59.8720   32.0070   47.6510 C   0  0  0  0  0  0  0  0  0  0  0  0
   59.1075   32.3803   48.3483 H   0  0  0  0  0  0  0  0  0  0  0  0
   59.8784   30.9075   47.6201 H   0  0  0  0  0  0  0  0  0  0  0  0
   61.2620   32.4800   48.1340 C   0  0  0  0  0  0  0  0  0  0  0  0
   61.1311   33.2395   48.9189 H   0  0  0  0  0  0  0  0  0  0  0  0
   61.8114   31.6117   48.5267 H   0  0  0  0  0  0  0  0  0  0  0  0
   62.0370   33.0640   47.0210 N   0  0  0  0  0  0  0  0  0  0  0  0
   63.4050   33.4280   47.4480 C   0  0  0  0  0  0  0  0  0  0  0  0
   64.1187   33.1318   46.6652 H   0  0  0  0  0  0  0  0  0  0  0  0
   63.4478   34.5150   47.6110 H   0  0  0  0  0  0  0  0  0  0  0  0
   63.7680   32.7210   48.7510 C   0  0  0  0  0  0  0  0  0  0  0  0
   63.4508   33.3388   49.6041 H   0  0  0  0  0  0  0  0  0  0  0  0
   63.2584   31.7471   48.7940 H   0  0  0  0  0  0  0  0  0  0  0  0
   64.8564   32.5676   48.7940 H   0  0  0  0  0  0  0  0  0  0  0  0
   61.3320   34.2480   46.4830 C   0  0  0  0  0  0  0  0  0  0  0  0
   61.3889   35.0618   47.2209 H   0  0  0  0  0  0  0  0  0  0  0  0
   61.8180   34.5350   45.5388 H   0  0  0  0  0  0  0  0  0  0  0  0
   59.8450   33.9460   46.1850 C   0  0  0  0  0  0  0  0  0  0  0  0
   59.2172   34.4883   46.9073 H   0  0  0  0  0  0  0  0  0  0  0  0
   59.6235   34.2701   45.1574 H   0  0  0  0  0  0  0  0  0  0  0  0
   58.5320   29.9390   45.0440 C   0  0  0  0  0  0  0  0  0  0  0  0
   59.3988   29.8411   45.7141 H   0  0  0  0  0  0  0  0  0  0  0  0
  1  2  1  0
  2  3  1  0
  2  4  2  0
  4  5  1  0
  5  6  2  0
  6  7  1  0
  6  8  1  0
  8  9  1  0
  9 10  1  0
 10 11  2  0
 10 12  1  0
 12 13  1  0
 13 14  1  0
  5 15  1  0
 15 16  1  0
 15 17  2  0
 17 18  1  0
 18 19  1  0
 18 20  1  0
 18 21  1  0
 17 22  1  0
 22 23  1  0
 23 24  1  0
 23 25  1  0
 23 26  1  0
 26 27  2  0
 27 28  1  0
 27 29  1  0
 29 30  1  0
 29 31  2  0
 31 32  1  0
 31 33  1  0
 33 34  1  0
 34 35  2  0
 34 36  1  0
 36 37  1  0
 36 38  1  0
 38 39  1  0
 38 40  1  0
 38 41  1  0
 41 42  1  0
 41 43  1  0
 41 44  1  0
 44 45  1  0
 45 46  1  0
 45 47  1  0
 45 48  1  0
 48 49  1  0
 48 50  1  0
 48 51  1  0
 44 52  1  0
 52 53  1  0
 52 54  1  0
 52 55  1  0
 55 56  1  0
 55 57  1  0
 33 58  2  0
 58 59  1  0
 22  4  1  0
 58 26  1  0
 13  8  2  0
 55 36  1  0
M  CHG  4   9  -1  12  -1  14  -1  36   1
M  END
>  <UniqueID>  (75) 
69

>  <SMILES>  (75) 
C=c1/c(=C\c2[n-]c(=O)[n-]c2[O-])cc(C)n1Cc1cccc(C(=O)[NH+]2CCN(CC)CC2)c1

>  <Energy>  (75) 
142.1036676284528

>  <Genealogy>  (75) 
C=c1c(=Cc2[n-]c(=O)[n-]c2[O-])cc(C)n1Cc1cccc(C(=O)[NH+]2CCN(CC)CC2)c1 (protonated)
C=c1/c(=C\c2[n-]c(=O)[n-]c2[O-])cc(C)n1Cc1cccc(C(=O)[NH+]2CCN(CC)CC2)c1 (cis-trans isomerization)
C=c1/c(=C\c2[n-]c(=O)[n-]c2[O-])cc(C)n1Cc1cccc(C(=O)[NH+]2CCN(CC)CC2)c1 (3D coordinates assigned)
C=c1/c(=C\c2[n-]c(=O)[n-]c2[O-])cc(C)n1Cc1cccc(C(=O)[NH+]2CCN(CC)CC2)c1 (nonaromatic ring conformer: 142.1036676284528 kcal/mol)

>  <smiles>  (75) 
C=c1c(=Cc2[nH]c(=O)[nH]c2O)cc(C)n1Cc1cccc(C(=O)N2CCN(CC)CC2)c1

>  <score_type>  (75) 
oracle

>  <origin>  (75) 
adg

>  <m_score__min__energy>  (75) 
-16.399999999999999

>  <m_primary>  (75) 
energy

$$$$
75:0
     RDKit          3D

 45 47  0  0  1  0  0  0  0  0999 V2000
   63.1250   33.5540   47.6900 C   0  0  0  0  0  0  0  0  0  0  0  0
   62.5590   33.1920   49.0200 C   0  0  0  0  0  0  0  0  0  0  0  0
   61.6380   32.0480   48.8120 C   0  0  0  0  0  0  0  0  0  0  0  0
   60.7650   31.3840   49.2210 N   0  0  0  0  0  0  0  0  0  0  0  0
   60.1510   30.3640   48.7100 N   0  0  0  0  0  0  0  0  0  0  0  0
   60.5660   29.9880   47.5150 C   0  0  0  0  0  0  0  0  0  0  0  0
   60.2150   29.0390   46.6920 N   0  0  0  0  0  0  0  0  0  0  0  0
   58.8590   28.5530   46.7340 C   0  0  0  0  0  0  0  0  0  0  0  0
   58.1530   29.0230   47.6380 O   0  0  0  0  0  0  0  0  0  0  0  0
   58.4690   27.5850   45.7390 C   0  0  0  0  0  0  0  0  0  0  0  0
   58.3120   26.2640   46.1070 C   0  0  0  0  0  0  0  0  0  0  0  0
   57.9600   25.2540   45.2440 C   0  0  0  0  0  0  0  0  0  0  0  0
   57.7570   23.4470   45.8140 Br  0  0  0  0  0  0  0  0  0  0  0  0
   57.7470   25.5630   43.9220 C   0  0  0  0  0  0  0  0  0  0  0  0
   57.8990   26.8940   43.5160 C   0  0  0  0  0  0  0  0  0  0  0  0
   58.2530   27.8940   44.3990 C   0  0  0  0  0  0  0  0  0  0  0  0
   58.3730   29.2300   43.9280 N   0  0  0  0  0  0  0  0  0  0  0  0
   57.1750   30.4460   44.2540 S   0  0  0  0  0  0  0  0  0  0  0  0
   56.4650   30.8410   43.0040 O   0  0  0  0  0  0  0  0  0  0  0  0
   56.1690   29.8620   45.2430 O   0  0  0  0  0  0  0  0  0  0  0  0
   57.8740   31.8770   44.9670 C   0  0  0  0  0  0  0  0  0  0  0  0
   58.1840   33.0110   44.2490 C   0  0  0  0  0  0  0  0  0  0  0  0
   58.7400   34.1340   44.8420 C   0  0  0  0  0  0  0  0  0  0  0  0
   58.9980   34.1390   46.1870 C   0  0  0  0  0  0  0  0  0  0  0  0
   59.5950   35.3450   46.8270 C   0  0  0  0  0  0  0  0  0  0  0  0
   58.6950   33.0170   46.9160 C   0  0  0  0  0  0  0  0  0  0  0  0
   58.1360   31.8870   46.3190 C   0  0  0  0  0  0  0  0  0  0  0  0
   61.9270   31.1860   47.1110 S   0  0  0  0  0  0  0  0  0  0  0  0
   64.0441   34.1418   47.8303 H   0  0  0  0  0  0  0  0  0  0  0  0
   63.3583   32.6371   47.1289 H   0  0  0  0  0  0  0  0  0  0  0  0
   62.3904   34.1503   47.1289 H   0  0  0  0  0  0  0  0  0  0  0  0
   63.3680   32.9036   49.7073 H   0  0  0  0  0  0  0  0  0  0  0  0
   62.0246   34.0464   49.4610 H   0  0  0  0  0  0  0  0  0  0  0  0
   59.3580   29.8480   49.2070 H   0  0  0  0  0  0  0  0  0  0  0  0
   58.4799   26.0020   47.1621 H   0  0  0  0  0  0  0  0  0  0  0  0
   57.4638   24.7829   43.2000 H   0  0  0  0  0  0  0  0  0  0  0  0
   57.7310   27.1511   42.4597 H   0  0  0  0  0  0  0  0  0  0  0  0
   59.1910   29.5290   43.3840 H   0  0  0  0  0  0  0  0  0  0  0  0
   57.9834   33.0260   43.1675 H   0  0  0  0  0  0  0  0  0  0  0  0
   58.9736   35.0198   44.2331 H   0  0  0  0  0  0  0  0  0  0  0  0
   59.5443   35.2426   47.9210 H   0  0  0  0  0  0  0  0  0  0  0  0
   60.6456   35.4429   46.5162 H   0  0  0  0  0  0  0  0  0  0  0  0
   59.0358   36.2398   46.5162 H   0  0  0  0  0  0  0  0  0  0  0  0
   58.8977   33.0083   47.9971 H   0  0  0  0  0  0  0  0  0  0  0  0
   57.9039   31.0019   46.9295 H   0  0  0  0  0  0  0  0  0  0  0  0
  1  2  1  0
  2  3  1  0
  3  4  2  0
  4  5  1  0
  5  6  1  0
  6  7  2  0
  7  8  1  0
  8  9  2  0
  8 10  1  0
 10 11  2  0
 11 12  1  0
 12 13  1  0
 12 14  2  0
 14 15  1  0
 15 16  2  0
 16 17  1  0
 17 18  1  0
 18 19  2  0
 18 20  2  0
 18 21  1  0
 21 22  2  0
 22 23  1  0
 23 24  2  0
 24 25  1  0
 24 26  1  0
 26 27  2  0
  6 28  1  0
 28  3  1  0
 16 10  1  0
 27 21  1  0
  1 29  1  0
  1 30  1  0
  1 31  1  0
  2 32  1  0
  2 33  1  0
  5 34  1  0
 11 35  1  0
 14 36  1  0
 15 37  1  0
 17 38  1  0
 22 39  1  0
 23 40  1  0
 25 41  1  0
 25 42  1  0
 25 43  1  0
 26 44  1  0
 27 45  1  0
M  END
>  <smiles>  (76) 
CCc1n[nH]c(=NC(=O)c2cc(Br)ccc2NS(=O)(=O)c2ccc(C)cc2)s1

>  <score_type>  (76) 
oracle

>  <origin>  (76) 
adg

>  <m_score__min__energy>  (76) 
-9.5700000000000003

>  <m_primary>  (76) 
energy

$$$$
76:0
     RDKit          3D

 62 66  0  0  0  0  0  0  0  0999 V2000
   59.3968   31.7136   50.6665 H   0  0  0  0  0  0  0  0  0  0  0  0
   59.5960   30.6980   50.2940 C   0  0  0  0  0  0  0  0  0  0  0  0
   59.0290   30.2710   49.0900 C   0  0  0  0  0  0  0  0  0  0  0  0
   58.3877   30.9535   48.5130 H   0  0  0  0  0  0  0  0  0  0  0  0
   59.2750   28.9780   48.6170 C   0  0  0  0  0  0  0  0  0  0  0  0
   58.8295   28.6477   47.6670 H   0  0  0  0  0  0  0  0  0  0  0  0
   60.0890   28.1000   49.3510 C   0  0  0  0  0  0  0  0  0  0  0  0
   60.3870   26.7250   48.8210 C   0  0  0  0  0  0  0  0  0  0  0  0
   60.2037   25.9850   49.6140 H   0  0  0  0  0  0  0  0  0  0  0  0
   61.4390   26.6900   48.5014 H   0  0  0  0  0  0  0  0  0  0  0  0
   59.5160   26.4100   47.6440 C   0  0  0  0  0  0  0  0  0  0  0  0
   59.8840   26.7710   46.0400 S   0  0  0  0  0  0  0  0  0  0  0  0
   58.4310   26.1480   45.4700 C   0  0  0  0  0  0  0  0  0  0  0  0
   58.1110   26.1290   44.2090 N   0  0  0  0  0  0  0  0  0  0  0  0
   57.9010   27.2730   43.3670 C   0  0  0  0  0  0  0  0  0  0  0  0
   57.7670   27.0940   42.1280 O   0  0  0  0  0  0  0  0  0  0  0  0
   57.9050   28.6550   43.9070 C   0  0  0  0  0  0  0  0  0  0  0  0
   59.0610   29.1960   44.4950 C   0  0  0  0  0  0  0  0  0  0  0  0
   59.9882   28.6047   44.5201 H   0  0  0  0  0  0  0  0  0  0  0  0
   59.0420   30.4790   45.0480 C   0  0  0  0  0  0  0  0  0  0  0  0
   59.9515   30.8874   45.5128 H   0  0  0  0  0  0  0  0  0  0  0  0
   57.8680   31.2510   45.0140 C   0  0  0  0  0  0  0  0  0  0  0  0
   57.8250   32.5450   45.6450 N   0  0  0  0  0  0  0  0  0  0  0  0
   58.1590   32.6800   47.0670 C   0  0  0  0  0  0  0  0  0  0  0  0
   57.2554   32.5044   47.6692 H   0  0  0  0  0  0  0  0  0  0  0  0
   58.9342   31.9422   47.3216 H   0  0  0  0  0  0  0  0  0  0  0  0
   58.6980   34.0890   47.3630 C   0  0  0  0  0  0  0  0  0  0  0  0
   57.8486   34.7637   47.5456 H   0  0  0  0  0  0  0  0  0  0  0  0
   59.3510   34.0259   48.2460 H   0  0  0  0  0  0  0  0  0  0  0  0
   59.5000   34.6220   46.2350 N   0  0  0  0  0  0  0  0  0  0  0  0
   60.7490   33.8640   45.9910 C   0  0  0  0  0  0  0  0  0  0  0  0
   60.5242   33.0059   45.3405 H   0  0  0  0  0  0  0  0  0  0  0  0
   61.4736   34.5402   45.5139 H   0  0  0  0  0  0  0  0  0  0  0  0
   61.3530   33.3580   47.2770 C   0  0  0  0  0  0  0  0  0  0  0  0
   61.7760   32.0230   47.3930 C   0  0  0  0  0  0  0  0  0  0  0  0
   61.6588   31.3348   46.5429 H   0  0  0  0  0  0  0  0  0  0  0  0
   62.3450   31.5670   48.5850 C   0  0  0  0  0  0  0  0  0  0  0  0
   62.6786   30.5222   48.6696 H   0  0  0  0  0  0  0  0  0  0  0  0
   62.4910   32.4360   49.6700 C   0  0  0  0  0  0  0  0  0  0  0  0
   62.9378   32.0746   50.6079 H   0  0  0  0  0  0  0  0  0  0  0  0
   62.0690   33.7650   49.5630 C   0  0  0  0  0  0  0  0  0  0  0  0
   62.1842   34.4484   50.4172 H   0  0  0  0  0  0  0  0  0  0  0  0
   61.5010   34.2260   48.3720 C   0  0  0  0  0  0  0  0  0  0  0  0
   61.1688   35.2716   48.2917 H   0  0  0  0  0  0  0  0  0  0  0  0
   58.6930   34.7670   44.9920 C   0  0  0  0  0  0  0  0  0  0  0  0
   58.2776   35.7852   44.9655 H   0  0  0  0  0  0  0  0  0  0  0  0
   59.3680   34.5644   44.1474 H   0  0  0  0  0  0  0  0  0  0  0  0
   57.5260   33.7630   44.8840 C   0  0  0  0  0  0  0  0  0  0  0  0
   56.6121   34.2255   45.2852 H   0  0  0  0  0  0  0  0  0  0  0  0
   57.3827   33.4960   43.8266 H   0  0  0  0  0  0  0  0  0  0  0  0
   56.7170   30.7170   44.4090 C   0  0  0  0  0  0  0  0  0  0  0  0
   55.7929   31.3127   44.3739 H   0  0  0  0  0  0  0  0  0  0  0  0
   56.7370   29.4360   43.8520 C   0  0  0  0  0  0  0  0  0  0  0  0
   55.8340   29.0361   43.3677 H   0  0  0  0  0  0  0  0  0  0  0  0
   57.6710   25.6500   46.4750 N   0  0  0  0  0  0  0  0  0  0  0  0
   56.7500   25.1730   46.3610 H   0  0  0  0  0  0  0  0  0  0  0  0
   58.2630   25.8050   47.6880 C   0  0  0  0  0  0  0  0  0  0  0  0
   57.7914   25.4795   48.6269 H   0  0  0  0  0  0  0  0  0  0  0  0
   60.6660   28.5410   50.5550 C   0  0  0  0  0  0  0  0  0  0  0  0
   61.3167   27.8659   51.1302 H   0  0  0  0  0  0  0  0  0  0  0  0
   60.4160   29.8340   51.0240 C   0  0  0  0  0  0  0  0  0  0  0  0
   60.8657   30.1717   51.9694 H   0  0  0  0  0  0  0  0  0  0  0  0
  1  2  1  0
  2  3  2  0
  3  4  1  0
  3  5  1  0
  5  6  1  0
  5  7  2  0
  7  8  1  0
  8  9  1  0
  8 10  1  0
  8 11  1  0
 11 12  1  0
 12 13  1  0
 13 14  2  0
 14 15  1  0
 15 16  2  0
 15 17  1  0
 17 18  2  0
 18 19  1  0
 18 20  1  0
 20 21  1  0
 20 22  2  0
 22 23  1  0
 23 24  1  0
 24 25  1  0
 24 26  1  0
 24 27  1  0
 27 28  1  0
 27 29  1  0
 27 30  1  0
 30 31  1  0
 31 32  1  0
 31 33  1  0
 31 34  1  0
 34 35  2  0
 35 36  1  0
 35 37  1  0
 37 38  1  0
 37 39  2  0
 39 40  1  0
 39 41  1  0
 41 42  1  0
 41 43  2  0
 43 44  1  0
 30 45  1  0
 45 46  1  0
 45 47  1  0
 45 48  1  0
 48 49  1  0
 48 50  1  0
 22 51  1  0
 51 52  1  0
 51 53  2  0
 53 54  1  0
 13 55  1  0
 55 56  1  0
 55 57  1  0
 57 58  1  0
  7 59  1  0
 59 60  1  0
 59 61  2  0
 61 62  1  0
 61  2  1  0
 57 11  2  0
 53 17  1  0
 48 23  1  0
 43 34  1  0
M  END
>  <UniqueID>  (77) 
70

>  <SMILES>  (77) 
O=C(/N=c1\[nH]cc(Cc2ccccc2)s1)c1ccc(N2CCN(Cc3ccccc3)CC2)cc1

>  <Energy>  (77) 
116.71495601333962

>  <Genealogy>  (77) 
O=C(/N=c1\[nH]cc(Cc2ccccc2)s1)c1ccc(N2CCN(Cc3ccccc3)CC2)cc1 (cis-trans isomerization)
O=C(/N=c1\[nH]cc(Cc2ccccc2)s1)c1ccc(N2CCN(Cc3ccccc3)CC2)cc1 (3D coordinates assigned)
O=C(/N=c1\[nH]cc(Cc2ccccc2)s1)c1ccc(N2CCN(Cc3ccccc3)CC2)cc1 (nonaromatic ring conformer: 116.71495601333962 kcal/mol)

>  <smiles>  (77) 
O=C(N=c1[nH]cc(Cc2ccccc2)s1)c1ccc(N2CCN(Cc3ccccc3)CC2)cc1

>  <score_type>  (77) 
oracle

>  <origin>  (77) 
adg

>  <m_score__min__energy>  (77) 
-10.09

>  <m_primary>  (77) 
energy

$$$$
77:0
     RDKit          3D

 58 61  0  0  0  0  0  0  0  0999 V2000
   61.9890   34.3200   46.3550 O   0  0  0  0  0  0  0  0  0  0  0  0
   61.1330   33.9490   47.2050 C   0  0  0  0  0  0  0  0  0  0  0  0
   59.6900   34.3000   46.9900 C   0  0  0  0  0  0  0  0  0  0  0  0
   59.0100   33.2270   46.2380 N   0  0  0  0  0  0  0  0  0  0  0  0
   58.3860   33.5180   45.0500 C   0  0  0  0  0  0  0  0  0  0  0  0
   58.3970   34.6910   44.5860 O   0  0  0  0  0  0  0  0  0  0  0  0
   57.7430   32.5480   44.3530 N   0  0  0  0  0  0  0  0  0  0  0  0
   57.6860   31.2720   44.8050 C   0  0  0  0  0  0  0  0  0  0  0  0
   57.0180   30.2980   44.0600 C   0  0  0  0  0  0  0  0  0  0  0  0
   56.9520   28.9820   44.5230 C   0  0  0  0  0  0  0  0  0  0  0  0
   57.5480   28.6210   45.7450 C   0  0  0  0  0  0  0  0  0  0  0  0
   57.4680   27.2180   46.2200 C   0  0  0  0  0  0  0  0  0  0  0  0
   58.3050   26.8070   47.0710 O   0  0  0  0  0  0  0  0  0  0  0  0
   56.4710   26.3160   45.7130 N   0  0  0  0  0  0  0  0  0  0  0  0
   56.3140   24.9550   46.2240 C   0  0  0  0  0  0  0  0  0  0  0  0
   56.5680   23.9550   45.1260 C   0  0  0  0  0  0  0  0  0  0  0  0
   55.6930   23.8990   44.0290 C   0  0  0  0  0  0  0  0  0  0  0  0
   55.9200   22.9900   42.9910 C   0  0  0  0  0  0  0  0  0  0  0  0
   57.0210   22.1320   43.0390 C   0  0  0  0  0  0  0  0  0  0  0  0
   57.8980   22.1820   44.1250 C   0  0  0  0  0  0  0  0  0  0  0  0
   57.6780   23.0890   45.1680 C   0  0  0  0  0  0  0  0  0  0  0  0
   58.5440   23.1150   46.2130 F   0  0  0  0  0  0  0  0  0  0  0  0
   58.2300   29.6050   46.4860 C   0  0  0  0  0  0  0  0  0  0  0  0
   58.2960   30.9330   46.0240 C   0  0  0  0  0  0  0  0  0  0  0  0
   58.9580   31.9470   46.7390 C   0  0  0  0  0  0  0  0  0  0  0  0
   59.5020   31.6750   47.8440 O   0  0  0  0  0  0  0  0  0  0  0  0
   61.5300   33.2030   48.3680 N   0  0  0  0  0  0  0  0  0  0  0  0
   62.8710   32.7510   48.6140 C   0  0  0  0  0  0  0  0  0  0  0  0
   63.7750   32.9250   47.7510 O   0  0  0  0  0  0  0  0  0  0  0  0
   63.1810   32.0890   49.8470 N   0  0  0  0  0  0  0  0  0  0  0  0
   64.5190   31.5690   50.1180 C   0  0  0  0  0  0  0  0  0  0  0  0
   65.4090   32.6530   50.6650 C   0  0  0  0  0  0  0  0  0  0  0  0
   64.8760   33.6450   51.5040 C   0  0  0  0  0  0  0  0  0  0  0  0
   65.6960   34.6690   51.9920 C   0  0  0  0  0  0  0  0  0  0  0  0
   67.0500   34.7080   51.6420 C   0  0  0  0  0  0  0  0  0  0  0  0
   67.5810   33.7360   50.7910 C   0  0  0  0  0  0  0  0  0  0  0  0
   66.7620   32.7150   50.2970 C   0  0  0  0  0  0  0  0  0  0  0  0
   59.1980   34.4277   47.9655 H   0  0  0  0  0  0  0  0  0  0  0  0
   59.6305   35.2350   46.4136 H   0  0  0  0  0  0  0  0  0  0  0  0
   56.5424   30.5680   43.1056 H   0  0  0  0  0  0  0  0  0  0  0  0
   56.4288   28.2203   43.9262 H   0  0  0  0  0  0  0  0  0  0  0  0
   55.8810   26.5930   44.8960 H   0  0  0  0  0  0  0  0  0  0  0  0
   57.0319   24.7883   47.0406 H   0  0  0  0  0  0  0  0  0  0  0  0
   55.2866   24.8272   46.5956 H   0  0  0  0  0  0  0  0  0  0  0  0
   54.8250   24.5734   43.9861 H   0  0  0  0  0  0  0  0  0  0  0  0
   55.2302   22.9506   42.1351 H   0  0  0  0  0  0  0  0  0  0  0  0
   57.1974   21.4171   42.2218 H   0  0  0  0  0  0  0  0  0  0  0  0
   58.7649   21.5059   44.1607 H   0  0  0  0  0  0  0  0  0  0  0  0
   58.7158   29.3334   47.4348 H   0  0  0  0  0  0  0  0  0  0  0  0
   60.8020   32.9670   49.0790 H   0  0  0  0  0  0  0  0  0  0  0  0
   62.4230   31.9800   50.5590 H   0  0  0  0  0  0  0  0  0  0  0  0
   64.4479   30.7543   50.8537 H   0  0  0  0  0  0  0  0  0  0  0  0
   64.9514   31.1965   49.1777 H   0  0  0  0  0  0  0  0  0  0  0  0
   63.8111   33.6172   51.7784 H   0  0  0  0  0  0  0  0  0  0  0  0
   65.2758   35.4432   52.6508 H   0  0  0  0  0  0  0  0  0  0  0  0
   67.6970   35.5049   52.0374 H   0  0  0  0  0  0  0  0  0  0  0  0
   68.6436   33.7733   50.5091 H   0  0  0  0  0  0  0  0  0  0  0  0
   67.1801   31.9578   49.6174 H   0  0  0  0  0  0  0  0  0  0  0  0
  1  2  2  0
  2  3  1  0
  3  4  1  0
  4  5  1  0
  5  6  2  0
  5  7  1  0
  7  8  1  0
  8  9  2  0
  9 10  1  0
 10 11  2  0
 11 12  1  0
 12 13  2  0
 12 14  1  0
 14 15  1  0
 15 16  1  0
 16 17  2  0
 17 18  1  0
 18 19  2  0
 19 20  1  0
 20 21  2  0
 21 22  1  0
 11 23  1  0
 23 24  2  0
 24 25  1  0
 25 26  2  0
  2 27  1  0
 27 28  1  0
 28 29  2  0
 28 30  1  0
 30 31  1  0
 31 32  1  0
 32 33  2  0
 33 34  1  0
 34 35  2  0
 35 36  1  0
 36 37  2  0
 25  4  1  0
 37 32  1  0
 24  8  1  0
 21 16  1  0
  3 38  1  0
  3 39  1  0
  9 40  1  0
 10 41  1  0
 14 42  1  0
 15 43  1  0
 15 44  1  0
 17 45  1  0
 18 46  1  0
 19 47  1  0
 20 48  1  0
 23 49  1  0
 27 50  1  0
 30 51  1  0
 31 52  1  0
 31 53  1  0
 33 54  1  0
 34 55  1  0
 35 56  1  0
 36 57  1  0
 37 58  1  0
M  CHG  1   7  -1
M  END
>  <UniqueID>  (78) 
71

>  <SMILES>  (78) 
O=C(Cn1c(=O)[n-]c2ccc(C(=O)NCc3ccccc3F)cc2c1=O)NC(=O)NCc1ccccc1

>  <Energy>  (78) 
68.2600523605014

>  <Genealogy>  (78) 
O=C(Cn1c(=O)[n-]c2ccc(C(=O)NCc3ccccc3F)cc2c1=O)NC(=O)NCc1ccccc1 (protonated)
O=C(Cn1c(=O)[n-]c2ccc(C(=O)NCc3ccccc3F)cc2c1=O)NC(=O)NCc1ccccc1 (3D coordinates assigned)
O=C(Cn1c(=O)[n-]c2ccc(C(=O)NCc3ccccc3F)cc2c1=O)NC(=O)NCc1ccccc1 (optimized conformer: 68.2600523605014 kcal/mol)

>  <smiles>  (78) 
O=C(Cn1c(=O)[nH]c2ccc(C(=O)NCc3ccccc3F)cc2c1=O)NC(=O)NCc1ccccc1

>  <score_type>  (78) 
oracle

>  <origin>  (78) 
adg

>  <m_score__min__energy>  (78) 
-11.32

>  <m_primary>  (78) 
energy

$$$$
78:0
     RDKit          3D

 23 24  0  0  0  0  0  0  0  0999 V2000
   55.1600   29.7260   44.8570 O   0  0  0  0  0  0  0  0  0  0  0  0
   56.3540   29.3280   44.9350 C   0  0  0  0  0  0  0  0  0  0  0  0
   57.4170   30.1070   44.3680 N   0  0  0  0  0  0  0  0  0  0  0  0
   57.9390   31.3430   44.8780 C   0  0  0  0  0  0  0  0  0  0  0  0
   57.7110   32.5200   44.1590 C   0  0  0  0  0  0  0  0  0  0  0  0
   58.2240   33.7330   44.6190 C   0  0  0  0  0  0  0  0  0  0  0  0
   58.9790   33.7560   45.7930 C   0  0  0  0  0  0  0  0  0  0  0  0
   59.6340   35.2740   46.3820 Cl  0  0  0  0  0  0  0  0  0  0  0  0
   59.2160   32.6000   46.4730 N   0  0  0  0  0  0  0  0  0  0  0  0
   58.7240   31.4060   46.0410 C   0  0  0  0  0  0  0  0  0  0  0  0
   56.6430   28.0290   45.5710 C   0  0  0  0  0  0  0  0  0  0  0  0
   57.9020   27.7500   46.1220 C   0  0  0  0  0  0  0  0  0  0  0  0
   58.1120   26.5010   46.7090 C   0  0  0  0  0  0  0  0  0  0  0  0
   59.2300   26.2180   47.2140 O   0  0  0  0  0  0  0  0  0  0  0  0
   57.1070   25.5870   46.7380 N   0  0  0  0  0  0  0  0  0  0  0  0
   55.8930   25.8700   46.2010 C   0  0  0  0  0  0  0  0  0  0  0  0
   54.9740   25.0120   46.2380 O   0  0  0  0  0  0  0  0  0  0  0  0
   55.6690   27.0800   45.6250 N   0  0  0  0  0  0  0  0  0  0  0  0
   57.1256   32.4896   43.2282 H   0  0  0  0  0  0  0  0  0  0  0  0
   58.0354   34.6626   44.0619 H   0  0  0  0  0  0  0  0  0  0  0  0
   59.7970   32.6250   47.3410 H   0  0  0  0  0  0  0  0  0  0  0  0
   58.9422   30.4872   46.6051 H   0  0  0  0  0  0  0  0  0  0  0  0
   58.7068   28.4993   46.0923 H   0  0  0  0  0  0  0  0  0  0  0  0
  1  2  2  0
  2  3  1  0
  3  4  1  0
  4  5  2  0
  5  6  1  0
  6  7  2  0
  7  8  1  0
  7  9  1  0
  9 10  2  0
  2 11  1  0
 11 12  2  0
 12 13  1  0
 13 14  2  0
 13 15  1  0
 15 16  1  0
 16 17  2  0
 16 18  1  0
 10  4  1  0
 18 11  1  0
  5 19  1  0
  6 20  1  0
  9 21  1  0
 10 22  1  0
 12 23  1  0
M  CHG  4   3  -1   9   1  15  -1  18  -1
M  END
>  <UniqueID>  (79) 
72

>  <SMILES>  (79) 
O=C([N-]c1ccc(Cl)[nH+]c1)c1cc(=O)[n-]c(=O)[n-]1

>  <Energy>  (79) 
28.473568527486123

>  <Genealogy>  (79) 
O=C([N-]c1ccc(Cl)[nH+]c1)c1cc(=O)[n-]c(=O)[n-]1 (protonated)
O=C([N-]c1ccc(Cl)[nH+]c1)c1cc(=O)[n-]c(=O)[n-]1 (3D coordinates assigned)
O=C([N-]c1ccc(Cl)[nH+]c1)c1cc(=O)[n-]c(=O)[n-]1 (optimized conformer: 28.473568527486123 kcal/mol)

>  <smiles>  (79) 
O=C(Nc1ccc(Cl)nc1)c1cc(=O)[nH]c(=O)[nH]1

>  <score_type>  (79) 
oracle

>  <origin>  (79) 
adg

>  <m_score__min__energy>  (79) 
-10.99

>  <m_primary>  (79) 
energy

$$$$
79:0
     RDKit          3D

 37 39  0  0  0  0  0  0  0  0999 V2000
   55.0130   28.1721   51.9972 H   0  0  0  0  0  0  0  0  0  0  0  0
   54.4280   28.9320   52.5360 C   0  0  0  0  0  0  0  0  0  0  0  0
   55.1400   29.7900   53.5050 C   0  0  0  0  0  0  0  0  0  0  0  0
   54.8380   29.7410   54.7270 O   0  0  0  0  0  0  0  0  0  0  0  0
   56.1570   30.7050   53.0800 N   0  0  0  0  0  0  0  0  0  0  0  0
   56.4320   31.0470   51.6860 C   0  0  0  0  0  0  0  0  0  0  0  0
   56.7286   30.1385   51.1413 H   0  0  0  0  0  0  0  0  0  0  0  0
   55.5240   31.4763   51.2374 H   0  0  0  0  0  0  0  0  0  0  0  0
   57.5440   32.0600   51.6050 C   0  0  0  0  0  0  0  0  0  0  0  0
   57.8460   32.8810   52.7010 C   0  0  0  0  0  0  0  0  0  0  0  0
   57.2985   32.7648   53.6480 H   0  0  0  0  0  0  0  0  0  0  0  0
   58.8480   33.8480   52.5810 C   0  0  0  0  0  0  0  0  0  0  0  0
   59.0943   34.4931   53.4372 H   0  0  0  0  0  0  0  0  0  0  0  0
   59.5180   33.9920   51.4080 N   0  0  0  0  0  0  0  0  0  0  0  0
   59.2510   33.2070   50.3310 C   0  0  0  0  0  0  0  0  0  0  0  0
   59.9570   33.4110   49.1130 N   0  0  0  0  0  0  0  0  0  0  0  0
   60.8100   34.2250   48.1960 C   0  0  0  0  0  0  0  0  0  0  0  0
   60.3948   35.1301   47.7286 H   0  0  0  0  0  0  0  0  0  0  0  0
   61.7892   34.7154   48.2992 H   0  0  0  0  0  0  0  0  0  0  0  0
   60.4040   32.9840   47.7550 C   0  0  0  0  0  0  0  0  0  0  0  0
   59.6692   32.9114   46.9396 H   0  0  0  0  0  0  0  0  0  0  0  0
   60.9344   32.1007   47.3697 H   0  0  0  0  0  0  0  0  0  0  0  0
   58.2660   32.2180   50.4130 C   0  0  0  0  0  0  0  0  0  0  0  0
   58.0590   31.5689   49.5494 H   0  0  0  0  0  0  0  0  0  0  0  0
   53.1170   29.0170   52.2690 C   0  0  0  0  0  0  0  0  0  0  0  0
   52.5770   28.0791   52.0720 H   0  0  0  0  0  0  0  0  0  0  0  0
   52.3410   30.2750   52.2190 C   0  0  0  0  0  0  0  0  0  0  0  0
   51.9950   30.9160   53.4180 C   0  0  0  0  0  0  0  0  0  0  0  0
   52.2698   30.4613   54.3812 H   0  0  0  0  0  0  0  0  0  0  0  0
   51.3020   32.1310   53.3940 C   0  0  0  0  0  0  0  0  0  0  0  0
   51.0175   32.6188   54.3380 H   0  0  0  0  0  0  0  0  0  0  0  0
   50.9700   32.7270   52.1740 C   0  0  0  0  0  0  0  0  0  0  0  0
   50.2810   33.9340   52.1580 O   0  0  0  0  0  0  0  0  0  0  0  0
   51.3380   32.1100   50.9720 C   0  0  0  0  0  0  0  0  0  0  0  0
   51.0260   32.7060   49.7560 O   0  0  0  0  0  0  0  0  0  0  0  0
   52.0260   30.8930   50.9950 C   0  0  0  0  0  0  0  0  0  0  0  0
   52.3230   30.4155   50.0496 H   0  0  0  0  0  0  0  0  0  0  0  0
  1  2  1  0
  2  3  1  0
  3  4  2  0
  3  5  1  0
  5  6  1  0
  6  7  1  0
  6  8  1  0
  6  9  1  0
  9 10  2  0
 10 11  1  0
 10 12  1  0
 12 13  1  0
 12 14  2  0
 14 15  1  0
 15 16  1  0
 16 17  1  0
 17 18  1  0
 17 19  1  0
 17 20  1  0
 20 21  1  0
 20 22  1  0
 15 23  2  0
 23 24  1  0
  2 25  2  0
 25 26  1  0
 25 27  1  0
 27 28  2  0
 28 29  1  0
 28 30  1  0
 30 31  1  0
 30 32  2  0
 32 33  1  0
 32 34  1  0
 34 35  1  0
 34 36  2  0
 36 37  1  0
 23  9  1  0
 36 27  1  0
 20 16  1  0
M  CHG  3   5  -1  33  -1  35  -1
M  END
>  <UniqueID>  (80) 
73

>  <SMILES>  (80) 
O=C(/C=C\c1ccc([O-])c([O-])c1)[N-]Cc1ccnc(N2CC2)c1

>  <Energy>  (80) 
275.0071467548061

>  <Genealogy>  (80) 
O=C(C=Cc1ccc([O-])c([O-])c1)[N-]Cc1ccnc(N2CC2)c1 (protonated)
O=C(/C=C\c1ccc([O-])c([O-])c1)[N-]Cc1ccnc(N2CC2)c1 (cis-trans isomerization)
O=C(/C=C\c1ccc([O-])c([O-])c1)[N-]Cc1ccnc(N2CC2)c1 (3D coordinates assigned)
O=C(/C=C\c1ccc([O-])c([O-])c1)[N-]Cc1ccnc(N2CC2)c1 (nonaromatic ring conformer: 275.0071467548061 kcal/mol)

>  <smiles>  (80) 
O=C(C=Cc1ccc(O)c(O)c1)NCc1ccnc(N2CC2)c1

>  <score_type>  (80) 
oracle

>  <origin>  (80) 
adg

>  <m_score__min__energy>  (80) 
-16.649999999999999

>  <m_primary>  (80) 
energy

$$$$
80:0
     RDKit          3D

 64 67  0  0  0  0  0  0  0  0999 V2000
   57.2750   33.0940   40.0640 C   0  0  0  0  0  0  0  0  0  0  0  0
   57.9420   32.6760   41.1440 C   0  0  0  0  0  0  0  0  0  0  0  0
   57.3830   31.6100   42.0460 C   0  0  0  0  0  0  0  0  0  0  0  0
   58.2180   31.4580   43.2590 N   0  0  0  0  0  0  0  0  0  0  0  0
   58.5090   32.7580   43.9170 C   0  0  0  0  0  0  0  0  0  0  0  0
   58.2200   32.6430   45.4170 C   0  0  0  0  0  0  0  0  0  0  0  0
   58.0060   33.9830   46.0090 N   0  0  0  0  0  0  0  0  0  0  0  0
   57.9590   33.9470   47.4950 C   0  0  0  0  0  0  0  0  0  0  0  0
   59.2910   34.3230   48.1810 C   0  0  0  0  0  0  0  0  0  0  0  0
   60.4360   34.0760   47.2990 N   0  0  0  0  0  0  0  0  0  0  0  0
   61.6580   33.5330   47.8300 C   0  0  0  0  0  0  0  0  0  0  0  0
   62.3490   32.5280   47.1330 C   0  0  0  0  0  0  0  0  0  0  0  0
   63.5270   31.9880   47.6560 C   0  0  0  0  0  0  0  0  0  0  0  0
   64.0300   32.4480   48.8760 C   0  0  0  0  0  0  0  0  0  0  0  0
   63.3600   33.4620   49.5770 C   0  0  0  0  0  0  0  0  0  0  0  0
   63.8790   33.9290   50.9050 C   0  0  0  0  0  0  0  0  0  0  0  0
   62.1670   33.9890   49.0580 C   0  0  0  0  0  0  0  0  0  0  0  0
   60.4130   34.6020   45.9280 C   0  0  0  0  0  0  0  0  0  0  0  0
   58.9820   34.9730   45.5120 C   0  0  0  0  0  0  0  0  0  0  0  0
   57.7190   30.3790   44.1560 C   0  0  1  0  0  0  0  0  0  0  0  0
   56.3000   29.9310   43.7710 C   0  0  0  0  0  0  0  0  0  0  0  0
   55.7200   29.0180   44.8550 C   0  0  0  0  0  0  0  0  0  0  0  0
   56.6680   27.9090   45.2550 C   0  0  0  0  0  0  0  0  0  0  0  0
   56.1690   26.7970   45.9620 C   0  0  0  0  0  0  0  0  0  0  0  0
   54.8110   26.6890   46.2430 O   0  0  0  0  0  0  0  0  0  0  0  0
   57.0340   25.7890   46.3950 C   0  0  0  0  0  0  0  0  0  0  0  0
   58.4010   25.8810   46.1430 C   0  0  0  0  0  0  0  0  0  0  0  0
   58.9150   26.9830   45.4610 C   0  0  0  0  0  0  0  0  0  0  0  0
   58.0650   28.0150   45.0280 C   0  0  0  0  0  0  0  0  0  0  0  0
   58.6660   29.1590   44.2440 C   0  0  0  0  0  0  0  0  0  0  0  0
   57.7053   33.8751   39.4200 H   0  0  0  0  0  0  0  0  0  0  0  0
   56.2957   32.6570   39.8191 H   0  0  0  0  0  0  0  0  0  0  0  0
   58.9204   33.1209   41.3782 H   0  0  0  0  0  0  0  0  0  0  0  0
   56.3614   31.8886   42.3438 H   0  0  0  0  0  0  0  0  0  0  0  0
   57.3753   30.6547   41.5008 H   0  0  0  0  0  0  0  0  0  0  0  0
   59.5672   33.0175   43.7656 H   0  0  0  0  0  0  0  0  0  0  0  0
   57.8745   33.5425   43.4789 H   0  0  0  0  0  0  0  0  0  0  0  0
   57.3166   32.0333   45.5657 H   0  0  0  0  0  0  0  0  0  0  0  0
   59.0824   32.1704   45.9098 H   0  0  0  0  0  0  0  0  0  0  0  0
   57.1860   34.6530   47.8327 H   0  0  0  0  0  0  0  0  0  0  0  0
   57.7404   32.9070   47.7788 H   0  0  0  0  0  0  0  0  0  0  0  0
   59.2678   35.3901   48.4468 H   0  0  0  0  0  0  0  0  0  0  0  0
   59.4056   33.6990   49.0796 H   0  0  0  0  0  0  0  0  0  0  0  0
   61.9607   32.1641   46.1703 H   0  0  0  0  0  0  0  0  0  0  0  0
   64.0599   31.1985   47.1058 H   0  0  0  0  0  0  0  0  0  0  0  0
   64.9532   32.0141   49.2876 H   0  0  0  0  0  0  0  0  0  0  0  0
   63.3235   33.4291   51.7121 H   0  0  0  0  0  0  0  0  0  0  0  0
   64.9478   33.6825   50.9882 H   0  0  0  0  0  0  0  0  0  0  0  0
   63.7463   35.0178   50.9882 H   0  0  0  0  0  0  0  0  0  0  0  0
   61.6256   34.7660   49.6176 H   0  0  0  0  0  0  0  0  0  0  0  0
   61.0483   35.4984   45.8746 H   0  0  0  0  0  0  0  0  0  0  0  0
   60.7894   33.8258   45.2454 H   0  0  0  0  0  0  0  0  0  0  0  0
   58.7330   35.9611   45.9264 H   0  0  0  0  0  0  0  0  0  0  0  0
   58.9325   34.9885   44.4132 H   0  0  0  0  0  0  0  0  0  0  0  0
   57.6887   30.8275   45.1599 H   0  0  0  0  0  0  0  0  0  0  0  0
   55.6572   30.8167   43.6600 H   0  0  0  0  0  0  0  0  0  0  0  0
   56.3442   29.3770   42.8217 H   0  0  0  0  0  0  0  0  0  0  0  0
   55.4953   29.6261   45.7437 H   0  0  0  0  0  0  0  0  0  0  0  0
   54.8147   28.5480   44.4432 H   0  0  0  0  0  0  0  0  0  0  0  0
   56.6341   24.9193   46.9370 H   0  0  0  0  0  0  0  0  0  0  0  0
   59.0765   25.0822   46.4830 H   0  0  0  0  0  0  0  0  0  0  0  0
   59.9947   27.0452   45.2602 H   0  0  0  0  0  0  0  0  0  0  0  0
   59.5992   29.4716   44.7354 H   0  0  0  0  0  0  0  0  0  0  0  0
   58.8481   28.8027   43.2194 H   0  0  0  0  0  0  0  0  0  0  0  0
  1  2  2  0
  2  3  1  0
  3  4  1  0
  4  5  1  0
  5  6  1  0
  6  7  1  0
  7  8  1  0
  8  9  1  0
  9 10  1  0
 10 11  1  0
 11 12  2  0
 12 13  1  0
 13 14  2  0
 14 15  1  0
 15 16  1  0
 15 17  2  0
 10 18  1  0
 18 19  1  0
  4 20  1  0
 20 21  1  0
 21 22  1  0
 22 23  1  0
 23 24  2  0
 24 25  1  0
 24 26  1  0
 26 27  2  0
 27 28  1  0
 28 29  2  0
 29 30  1  0
 19  7  1  0
 30 20  1  0
 17 11  1  0
 29 23  1  0
  1 31  1  0
  1 32  1  0
  2 33  1  0
  3 34  1  0
  3 35  1  0
  5 36  1  0
  5 37  1  0
  6 38  1  0
  6 39  1  0
  8 40  1  0
  8 41  1  0
  9 42  1  0
  9 43  1  0
 12 44  1  0
 13 45  1  0
 14 46  1  0
 16 47  1  0
 16 48  1  0
 16 49  1  0
 17 50  1  0
 18 51  1  0
 18 52  1  0
 19 53  1  0
 19 54  1  0
 20 55  1  1
 21 56  1  0
 21 57  1  0
 22 58  1  0
 22 59  1  0
 26 60  1  0
 27 61  1  0
 28 62  1  0
 30 63  1  0
 30 64  1  0
M  CHG  1  25  -1
M  END
>  <UniqueID>  (81) 
74

>  <SMILES>  (81) 
C=CCN(CCN1CCN(c2cccc(C)c2)CC1)[C@H]1CCc2c([O-])cccc2C1

>  <Energy>  (81) 
81.4963180609915

>  <Genealogy>  (81) 
C=CCN(CCN1CCN(c2cccc(C)c2)CC1)C1CCc2c([O-])cccc2C1 (protonated)
C=CCN(CCN1CCN(c2cccc(C)c2)CC1)[C@H]1CCc2c([O-])cccc2C1 (chirality)
C=CCN(CCN1CCN(c2cccc(C)c2)CC1)[C@H]1CCc2c([O-])cccc2C1 (3D coordinates assigned)
C=CCN(CCN1CCN(c2cccc(C)c2)CC1)[C@H]1CCc2c([O-])cccc2C1 (nonaromatic ring conformer: 81.4963180609915 kcal/mol)

>  <smiles>  (81) 
C=CCN(CCN1CCN(c2cccc(C)c2)CC1)C1CCc2c(O)cccc2C1

>  <score_type>  (81) 
oracle

>  <origin>  (81) 
adg

>  <m_score__min__energy>  (81) 
-13.24

>  <m_primary>  (81) 
energy

$$$$
81:0
     RDKit          3D

 55 57  0  0  0  0  0  0  0  0999 V2000
   59.1000   32.9680   49.4370 C   0  0  0  0  0  0  0  0  0  0  0  0
   59.0390   32.6810   48.0080 N   0  0  0  0  0  0  0  0  0  0  0  0
   59.1740   31.3290   47.5510 C   0  0  0  0  0  0  0  0  0  0  0  0
   58.1800   30.7700   46.7370 C   0  0  0  0  0  0  0  0  0  0  0  0
   58.2750   29.4380   46.2890 C   0  0  0  0  0  0  0  0  0  0  0  0
   57.1990   28.8690   45.4270 C   0  0  0  0  0  0  0  0  0  0  0  0
   56.2660   29.6180   45.0260 O   0  0  0  0  0  0  0  0  0  0  0  0
   57.1550   27.4180   45.0300 C   0  0  0  0  0  0  0  0  0  0  0  0
   56.4040   26.6160   46.0470 C   0  0  0  0  0  0  0  0  0  0  0  0
   57.0040   26.1820   47.0690 O   0  0  0  0  0  0  0  0  0  0  0  0
   55.0130   26.3430   45.8520 N   0  0  0  0  0  0  0  0  0  0  0  0
   54.4760   25.0050   45.6280 C   0  0  0  0  0  0  0  0  0  0  0  0
   55.5460   24.0980   45.0850 C   0  0  0  0  0  0  0  0  0  0  0  0
   56.4680   23.4970   45.9580 C   0  0  0  0  0  0  0  0  0  0  0  0
   57.4790   22.6720   45.4550 C   0  0  0  0  0  0  0  0  0  0  0  0
   57.5810   22.4480   44.0790 C   0  0  0  0  0  0  0  0  0  0  0  0
   56.6720   23.0480   43.2050 C   0  0  0  0  0  0  0  0  0  0  0  0
   55.6580   23.8720   43.7030 C   0  0  0  0  0  0  0  0  0  0  0  0
   59.3930   28.6770   46.6800 C   0  0  0  0  0  0  0  0  0  0  0  0
   60.3850   29.2320   47.4920 C   0  0  0  0  0  0  0  0  0  0  0  0
   60.2850   30.5550   47.9290 C   0  0  0  0  0  0  0  0  0  0  0  0
   61.3020   31.0790   48.7280 O   0  0  0  0  0  0  0  0  0  0  0  0
   59.3330   33.9700   46.8820 S   0  0  0  0  0  0  0  0  0  0  0  0
   58.3290   33.9070   45.7650 O   0  0  0  0  0  0  0  0  0  0  0  0
   59.1960   35.2900   47.5860 O   0  0  0  0  0  0  0  0  0  0  0  0
   60.9780   33.7960   46.2130 C   0  0  0  0  0  0  0  0  0  0  0  0
   61.9820   33.6370   47.3200 C   0  0  0  0  0  0  0  0  0  0  0  0
   63.1410   32.8700   47.1200 C   0  0  0  0  0  0  0  0  0  0  0  0
   64.0630   32.7020   48.1580 C   0  0  0  0  0  0  0  0  0  0  0  0
   63.8280   33.2890   49.4050 C   0  0  0  0  0  0  0  0  0  0  0  0
   62.6690   34.0410   49.6170 C   0  0  0  0  0  0  0  0  0  0  0  0
   61.7450   34.2120   48.5800 C   0  0  0  0  0  0  0  0  0  0  0  0
   58.9041   32.0464   50.0048 H   0  0  0  0  0  0  0  0  0  0  0  0
   60.0995   33.3503   49.6919 H   0  0  0  0  0  0  0  0  0  0  0  0
   58.3424   33.7237   49.6919 H   0  0  0  0  0  0  0  0  0  0  0  0
   57.3130   31.3801   46.4436 H   0  0  0  0  0  0  0  0  0  0  0  0
   56.6545   27.3250   44.0549 H   0  0  0  0  0  0  0  0  0  0  0  0
   58.1847   27.0361   44.9671 H   0  0  0  0  0  0  0  0  0  0  0  0
   54.1047   24.5987   46.5804 H   0  0  0  0  0  0  0  0  0  0  0  0
   53.6545   25.0662   44.8990 H   0  0  0  0  0  0  0  0  0  0  0  0
   56.3945   23.6759   47.0409 H   0  0  0  0  0  0  0  0  0  0  0  0
   58.1949   22.1987   46.1431 H   0  0  0  0  0  0  0  0  0  0  0  0
   58.3771   21.7993   43.6847 H   0  0  0  0  0  0  0  0  0  0  0  0
   56.7539   22.8720   42.1223 H   0  0  0  0  0  0  0  0  0  0  0  0
   54.9459   24.3447   43.0106 H   0  0  0  0  0  0  0  0  0  0  0  0
   59.4864   27.6342   46.3425 H   0  0  0  0  0  0  0  0  0  0  0  0
   61.2512   28.6228   47.7895 H   0  0  0  0  0  0  0  0  0  0  0  0
   61.3720   30.8750   49.7170 H   0  0  0  0  0  0  0  0  0  0  0  0
   61.0125   32.9094   45.5628 H   0  0  0  0  0  0  0  0  0  0  0  0
   61.2248   34.6992   45.6357 H   0  0  0  0  0  0  0  0  0  0  0  0
   63.3245   32.3993   46.1429 H   0  0  0  0  0  0  0  0  0  0  0  0
   64.9738   32.1076   47.9932 H   0  0  0  0  0  0  0  0  0  0  0  0
   64.5556   33.1590   50.2197 H   0  0  0  0  0  0  0  0  0  0  0  0
   62.4830   34.4988   50.5998 H   0  0  0  0  0  0  0  0  0  0  0  0
   60.8303   34.7984   48.7518 H   0  0  0  0  0  0  0  0  0  0  0  0
  1  2  1  0
  2  3  1  0
  3  4  2  0
  4  5  1  0
  5  6  1  0
  6  7  2  0
  6  8  1  0
  8  9  1  0
  9 10  2  0
  9 11  1  0
 11 12  1  0
 12 13  1  0
 13 14  2  0
 14 15  1  0
 15 16  2  0
 16 17  1  0
 17 18  2  0
  5 19  2  0
 19 20  1  0
 20 21  2  0
 21 22  1  0
  2 23  1  0
 23 24  2  0
 23 25  2  0
 23 26  1  0
 26 27  1  0
 27 28  2  0
 28 29  1  0
 29 30  2  0
 30 31  1  0
 31 32  2  0
 21  3  1  0
 32 27  1  0
 18 13  1  0
  1 33  1  0
  1 34  1  0
  1 35  1  0
  4 36  1  0
  8 37  1  0
  8 38  1  0
 12 39  1  0
 12 40  1  0
 14 41  1  0
 15 42  1  0
 16 43  1  0
 17 44  1  0
 18 45  1  0
 19 46  1  0
 20 47  1  0
 22 48  1  0
 26 49  1  0
 26 50  1  0
 28 51  1  0
 29 52  1  0
 30 53  1  0
 31 54  1  0
 32 55  1  0
M  CHG  1  11  -1
M  END
>  <UniqueID>  (82) 
75

>  <SMILES>  (82) 
CN(c1cc(C(=O)CC(=O)[N-]Cc2ccccc2)ccc1O)S(=O)(=O)Cc1ccccc1

>  <Energy>  (82) 
55.815625990873805

>  <Genealogy>  (82) 
CN(c1cc(C(=O)CC(=O)[N-]Cc2ccccc2)ccc1O)S(=O)(=O)Cc1ccccc1 (protonated)
CN(c1cc(C(=O)CC(=O)[N-]Cc2ccccc2)ccc1O)S(=O)(=O)Cc1ccccc1 (3D coordinates assigned)
CN(c1cc(C(=O)CC(=O)[N-]Cc2ccccc2)ccc1O)S(=O)(=O)Cc1ccccc1 (optimized conformer: 55.815625990873805 kcal/mol)

>  <smiles>  (82) 
CN(c1cc(C(=O)CC(=O)NCc2ccccc2)ccc1O)S(=O)(=O)Cc1ccccc1

>  <score_type>  (82) 
oracle

>  <origin>  (82) 
adg

>  <m_score__min__energy>  (82) 
-10.69

>  <m_primary>  (82) 
energy

$$$$
82:0
     RDKit          3D

 41 42  0  0  0  0  0  0  0  0999 V2000
   58.8670   26.0840   45.5760 C   0  0  0  0  0  0  0  0  0  0  0  0
   57.8740   26.7210   44.9590 C   0  0  0  0  0  0  0  0  0  0  0  0
   56.6090   27.0570   45.6320 C   0  0  0  0  0  0  0  0  0  0  0  0
   56.1730   26.2930   46.5340 O   0  0  0  0  0  0  0  0  0  0  0  0
   55.8780   28.2330   45.2720 N   0  0  0  0  0  0  0  0  0  0  0  0
   56.5780   29.5150   44.3420 S   0  0  0  0  0  0  0  0  0  0  0  0
   57.1150   28.9620   43.0510 O   0  0  0  0  0  0  0  0  0  0  0  0
   55.5180   30.5310   44.0220 O   0  0  0  0  0  0  0  0  0  0  0  0
   57.8570   30.2890   45.2710 C   0  0  0  0  0  0  0  0  0  0  0  0
   58.8760   29.5080   45.8310 C   0  0  0  0  0  0  0  0  0  0  0  0
   59.9080   30.1080   46.5570 C   0  0  0  0  0  0  0  0  0  0  0  0
   59.9360   31.5000   46.7270 C   0  0  0  0  0  0  0  0  0  0  0  0
   60.9710   32.1120   47.4530 C   0  0  0  0  0  0  0  0  0  0  0  0
   60.9990   33.5130   47.6100 C   0  0  0  0  0  0  0  0  0  0  0  0
   62.0090   34.1870   48.3180 O   0  0  0  0  0  0  0  0  0  0  0  0
   62.2710   34.1020   49.7220 C   0  0  0  0  0  0  0  0  0  0  0  0
   63.7620   33.8670   49.9990 C   0  0  0  0  0  0  0  0  0  0  0  0
   64.3680   32.7660   49.1190 C   0  0  0  0  0  0  0  0  0  0  0  0
   64.0930   33.0190   47.7050 N   0  0  0  0  0  0  0  0  0  0  0  0
   59.9750   34.2840   47.0470 C   0  0  0  0  0  0  0  0  0  0  0  0
   58.9410   33.6840   46.3250 C   0  0  0  0  0  0  0  0  0  0  0  0
   58.9120   32.2940   46.1580 C   0  0  0  0  0  0  0  0  0  0  0  0
   57.8780   31.6810   45.4320 C   0  0  0  0  0  0  0  0  0  0  0  0
   59.7949   25.8540   45.0319 H   0  0  0  0  0  0  0  0  0  0  0  0
   58.7595   25.7877   46.6299 H   0  0  0  0  0  0  0  0  0  0  0  0
   58.0041   27.0074   43.9049 H   0  0  0  0  0  0  0  0  0  0  0  0
   58.8637   28.4161   45.6985 H   0  0  0  0  0  0  0  0  0  0  0  0
   60.7016   29.4863   46.9970 H   0  0  0  0  0  0  0  0  0  0  0  0
   61.7638   31.4952   47.9014 H   0  0  0  0  0  0  0  0  0  0  0  0
   61.9615   35.0423   50.2016 H   0  0  0  0  0  0  0  0  0  0  0  0
   61.7045   33.2517   50.1295 H   0  0  0  0  0  0  0  0  0  0  0  0
   64.3056   34.8047   49.8115 H   0  0  0  0  0  0  0  0  0  0  0  0
   63.8553   33.5410   51.0454 H   0  0  0  0  0  0  0  0  0  0  0  0
   65.4565   32.7383   49.2751 H   0  0  0  0  0  0  0  0  0  0  0  0
   63.9156   31.8031   49.3987 H   0  0  0  0  0  0  0  0  0  0  0  0
   64.0300   34.0490   47.5300 H   0  0  0  0  0  0  0  0  0  0  0  0
   63.1810   32.5770   47.4500 H   0  0  0  0  0  0  0  0  0  0  0  0
   64.8480   32.6050   47.1110 H   0  0  0  0  0  0  0  0  0  0  0  0
   59.9850   35.3765   47.1750 H   0  0  0  0  0  0  0  0  0  0  0  0
   58.1466   34.3055   45.8860 H   0  0  0  0  0  0  0  0  0  0  0  0
   57.0813   32.2959   44.9879 H   0  0  0  0  0  0  0  0  0  0  0  0
  1  2  2  0
  2  3  1  0
  3  4  2  0
  3  5  1  0
  5  6  1  0
  6  7  2  0
  6  8  2  0
  6  9  1  0
  9 10  2  0
 10 11  1  0
 11 12  2  0
 12 13  1  0
 13 14  2  0
 14 15  1  0
 15 16  1  0
 16 17  1  0
 17 18  1  0
 18 19  1  0
 14 20  1  0
 20 21  2  0
 21 22  1  0
 22 23  2  0
 23  9  1  0
 22 12  1  0
  1 24  1  0
  1 25  1  0
  2 26  1  0
 10 27  1  0
 11 28  1  0
 13 29  1  0
 16 30  1  0
 16 31  1  0
 17 32  1  0
 17 33  1  0
 18 34  1  0
 18 35  1  0
 19 36  1  0
 19 37  1  0
 19 38  1  0
 20 39  1  0
 21 40  1  0
 23 41  1  0
M  CHG  2   5  -1  19   1
M  END
>  <UniqueID>  (83) 
76

>  <SMILES>  (83) 
C=CC(=O)[N-]S(=O)(=O)c1ccc2cc(OCCC[NH3+])ccc2c1

>  <Energy>  (83) 
40.77636966184481

>  <Genealogy>  (83) 
C=CC(=O)[N-]S(=O)(=O)c1ccc2cc(OCCC[NH3+])ccc2c1 (protonated)
C=CC(=O)[N-]S(=O)(=O)c1ccc2cc(OCCC[NH3+])ccc2c1 (3D coordinates assigned)
C=CC(=O)[N-]S(=O)(=O)c1ccc2cc(OCCC[NH3+])ccc2c1 (optimized conformer: 40.77636966184481 kcal/mol)

>  <smiles>  (83) 
C=CC(=O)NS(=O)(=O)c1ccc2cc(OCCCN)ccc2c1

>  <score_type>  (83) 
oracle

>  <origin>  (83) 
adg

>  <m_score__min__energy>  (83) 
-7.6699999999999999

>  <m_primary>  (83) 
energy

$$$$
83:0
     RDKit          3D

 52 55  0  0  0  0  0  0  0  0999 V2000
   56.2470   30.7520   44.8270 O   0  0  0  0  0  0  0  0  0  0  0  0
   57.5010   30.8670   44.8920 C   0  0  0  0  0  0  0  0  0  0  0  0
   58.3320   29.7210   44.6610 N   0  0  0  0  0  0  0  0  0  0  0  0
   58.3830   28.5770   45.5220 C   0  0  0  0  0  0  0  0  0  0  0  0
   57.3630   27.6220   45.4250 C   0  0  0  0  0  0  0  0  0  0  0  0
   57.3440   26.5100   46.2780 C   0  0  0  0  0  0  0  0  0  0  0  0
   56.0310   25.3390   46.1780 S   0  0  0  0  0  0  0  0  0  0  0  0
   55.9650   24.5910   47.4800 O   0  0  0  0  0  0  0  0  0  0  0  0
   54.7320   26.0620   45.9540 O   0  0  0  0  0  0  0  0  0  0  0  0
   56.3350   24.2250   44.8600 N   0  0  0  0  0  0  0  0  0  0  0  0
   55.7620   22.8860   45.1260 C   0  0  0  0  0  0  0  0  0  0  0  0
   56.8180   21.8690   45.5950 C   0  0  0  0  0  0  0  0  0  0  0  0
   57.7990   22.5130   46.3770 O   0  0  0  0  0  0  0  0  0  0  0  0
   58.5860   23.3740   45.5690 C   0  0  0  0  0  0  0  0  0  0  0  0
   57.7680   24.1640   44.5190 C   0  0  0  0  0  0  0  0  0  0  0  0
   58.3560   26.3520   47.2310 C   0  0  0  0  0  0  0  0  0  0  0  0
   59.3960   27.2800   47.3100 C   0  0  0  0  0  0  0  0  0  0  0  0
   59.4330   28.3810   46.4470 C   0  0  0  0  0  0  0  0  0  0  0  0
   60.5340   29.2360   46.5090 O   0  0  0  0  0  0  0  0  0  0  0  0
   58.1120   32.1850   45.1800 C   0  0  0  0  0  0  0  0  0  0  0  0
   57.6070   33.3530   44.5970 C   0  0  0  0  0  0  0  0  0  0  0  0
   58.1850   34.5860   44.8880 C   0  0  0  0  0  0  0  0  0  0  0  0
   59.2720   34.6530   45.7630 C   0  0  0  0  0  0  0  0  0  0  0  0
   59.7680   35.7800   46.0360 O   0  0  0  0  0  0  0  0  0  0  0  0
   59.7760   33.5090   46.3280 N   0  0  0  0  0  0  0  0  0  0  0  0
   60.9040   33.5630   47.2250 C   0  0  0  0  0  0  0  0  0  0  0  0
   62.2080   33.3400   46.7480 C   0  0  0  0  0  0  0  0  0  0  0  0
   63.2970   33.3810   47.6260 C   0  0  0  0  0  0  0  0  0  0  0  0
   63.0950   33.6400   48.9840 C   0  0  0  0  0  0  0  0  0  0  0  0
   61.8010   33.8580   49.4670 C   0  0  0  0  0  0  0  0  0  0  0  0
   60.7090   33.8190   48.5950 C   0  0  0  0  0  0  0  0  0  0  0  0
   59.2130   32.2920   46.0490 C   0  0  0  0  0  0  0  0  0  0  0  0
   56.5700   27.7458   44.6728 H   0  0  0  0  0  0  0  0  0  0  0  0
   54.9939   22.9811   45.9076 H   0  0  0  0  0  0  0  0  0  0  0  0
   55.3385   22.5129   44.1818 H   0  0  0  0  0  0  0  0  0  0  0  0
   56.3290   21.0881   46.1959 H   0  0  0  0  0  0  0  0  0  0  0  0
   57.2991   21.4183   44.7144 H   0  0  0  0  0  0  0  0  0  0  0  0
   59.0967   24.0945   46.2248 H   0  0  0  0  0  0  0  0  0  0  0  0
   59.2910   22.7376   45.0140 H   0  0  0  0  0  0  0  0  0  0  0  0
   58.1623   25.1893   44.4611 H   0  0  0  0  0  0  0  0  0  0  0  0
   57.8637   23.6431   43.5549 H   0  0  0  0  0  0  0  0  0  0  0  0
   58.3322   25.4946   47.9197 H   0  0  0  0  0  0  0  0  0  0  0  0
   60.1926   27.1447   48.0564 H   0  0  0  0  0  0  0  0  0  0  0  0
   60.6610   30.0150   45.8750 H   0  0  0  0  0  0  0  0  0  0  0  0
   56.7517   33.2968   43.9075 H   0  0  0  0  0  0  0  0  0  0  0  0
   57.7872   35.5039   44.4306 H   0  0  0  0  0  0  0  0  0  0  0  0
   62.3727   33.1325   45.6804 H   0  0  0  0  0  0  0  0  0  0  0  0
   64.3148   33.2088   47.2459 H   0  0  0  0  0  0  0  0  0  0  0  0
   63.9526   33.6724   49.6721 H   0  0  0  0  0  0  0  0  0  0  0  0
   61.6418   34.0608   50.5364 H   0  0  0  0  0  0  0  0  0  0  0  0
   59.6932   33.9891   48.9813 H   0  0  0  0  0  0  0  0  0  0  0  0
   59.6281   31.3844   46.5115 H   0  0  0  0  0  0  0  0  0  0  0  0
  1  2  2  0
  2  3  1  0
  3  4  1  0
  4  5  2  0
  5  6  1  0
  6  7  1  0
  7  8  2  0
  7  9  2  0
  7 10  1  0
 10 11  1  0
 11 12  1  0
 12 13  1  0
 13 14  1  0
 14 15  1  0
  6 16  2  0
 16 17  1  0
 17 18  2  0
 18 19  1  0
  2 20  1  0
 20 21  1  0
 21 22  2  0
 22 23  1  0
 23 24  2  0
 23 25  1  0
 25 26  1  0
 26 27  2  0
 27 28  1  0
 28 29  2  0
 29 30  1  0
 30 31  2  0
 25 32  1  0
 18  4  1  0
 32 20  2  0
 15 10  1  0
 31 26  1  0
  5 33  1  0
 11 34  1  0
 11 35  1  0
 12 36  1  0
 12 37  1  0
 14 38  1  0
 14 39  1  0
 15 40  1  0
 15 41  1  0
 16 42  1  0
 17 43  1  0
 19 44  1  0
 21 45  1  0
 22 46  1  0
 27 47  1  0
 28 48  1  0
 29 49  1  0
 30 50  1  0
 31 51  1  0
 32 52  1  0
M  CHG  1   3  -1
M  END
>  <UniqueID>  (84) 
77

>  <SMILES>  (84) 
O=C([N-]c1cc(S(=O)(=O)N2CCOCC2)ccc1O)c1ccc(=O)n(-c2ccccc2)c1

>  <Energy>  (84) 
83.2817649189024

>  <Genealogy>  (84) 
O=C([N-]c1cc(S(=O)(=O)N2CCOCC2)ccc1O)c1ccc(=O)n(-c2ccccc2)c1 (protonated)
O=C([N-]c1cc(S(=O)(=O)N2CCOCC2)ccc1O)c1ccc(=O)n(-c2ccccc2)c1 (3D coordinates assigned)
O=C([N-]c1cc(S(=O)(=O)N2CCOCC2)ccc1O)c1ccc(=O)n(-c2ccccc2)c1 (nonaromatic ring conformer: 83.2817649189024 kcal/mol)

>  <smiles>  (84) 
O=C(Nc1cc(S(=O)(=O)N2CCOCC2)ccc1O)c1ccc(=O)n(-c2ccccc2)c1

>  <score_type>  (84) 
oracle

>  <origin>  (84) 
adg

>  <m_score__min__energy>  (84) 
-11.69

>  <m_primary>  (84) 
energy

$$$$
84:0
     RDKit          3D

 47 49  0  0  0  0  0  0  0  0999 V2000
   60.7950   34.0820   49.0590 C   0  0  0  0  0  0  0  0  0  0  0  0
   59.7310   34.5930   48.0980 C   0  0  0  0  0  0  0  0  0  0  0  0
   58.7740   33.5240   47.7700 N   0  0  0  0  0  0  0  0  0  0  0  0
   58.8350   32.2660   48.5330 C   0  0  0  0  0  0  0  0  0  0  0  0
   59.4820   31.1890   47.7150 C   0  0  0  0  0  0  0  0  0  0  0  0
   60.4210   31.3480   46.7140 C   0  0  0  0  0  0  0  0  0  0  0  0
   60.7780   30.1330   46.2450 N   0  0  0  0  0  0  0  0  0  0  0  0
   60.1030   29.2250   46.9320 N   0  0  0  0  0  0  0  0  0  0  0  0
   60.1880   27.7870   46.6900 C   0  0  0  0  0  0  0  0  0  0  0  0
   59.3030   29.8270   47.8330 C   0  0  0  0  0  0  0  0  0  0  0  0
   57.8530   33.7080   46.6660 C   0  0  0  0  0  0  0  0  0  0  0  0
   56.6700   33.2840   46.7670 O   0  0  0  0  0  0  0  0  0  0  0  0
   58.2590   34.3450   45.3590 C   0  0  0  0  0  0  0  0  0  0  0  0
   58.7050   33.3000   44.3300 C   0  0  0  0  0  0  0  0  0  0  0  0
   57.9430   32.0200   44.4740 C   0  0  0  0  0  0  0  0  0  0  0  0
   58.5110   30.8030   44.5300 N   0  0  0  0  0  0  0  0  0  0  0  0
   57.4450   29.9800   44.6170 C   0  0  0  0  0  0  0  0  0  0  0  0
   57.5110   28.5000   44.7050 C   0  0  0  0  0  0  0  0  0  0  0  0
   58.0610   27.7580   43.6420 C   0  0  0  0  0  0  0  0  0  0  0  0
   58.1360   26.3630   43.7120 C   0  0  0  0  0  0  0  0  0  0  0  0
   57.6670   25.6910   44.8430 C   0  0  0  0  0  0  0  0  0  0  0  0
   57.7760   23.7870   44.9380 Br  0  0  0  0  0  0  0  0  0  0  0  0
   57.1200   26.4180   45.9050 C   0  0  0  0  0  0  0  0  0  0  0  0
   57.0380   27.8120   45.8380 C   0  0  0  0  0  0  0  0  0  0  0  0
   56.2880   30.6770   44.6170 N   0  0  0  0  0  0  0  0  0  0  0  0
   56.6360   31.9280   44.5240 O   0  0  0  0  0  0  0  0  0  0  0  0
   60.4611   34.2424   50.0947 H   0  0  0  0  0  0  0  0  0  0  0  0
   60.9576   33.0075   48.8884 H   0  0  0  0  0  0  0  0  0  0  0  0
   61.7353   34.6268   48.8884 H   0  0  0  0  0  0  0  0  0  0  0  0
   59.1921   35.4296   48.5667 H   0  0  0  0  0  0  0  0  0  0  0  0
   60.2206   34.9277   47.1716 H   0  0  0  0  0  0  0  0  0  0  0  0
   59.4213   32.4263   49.4498 H   0  0  0  0  0  0  0  0  0  0  0  0
   57.8116   31.9538   48.7883 H   0  0  0  0  0  0  0  0  0  0  0  0
   60.8149   32.3107   46.3562 H   0  0  0  0  0  0  0  0  0  0  0  0
   60.2195   27.2545   47.6520 H   0  0  0  0  0  0  0  0  0  0  0  0
   59.3077   27.4588   46.1179 H   0  0  0  0  0  0  0  0  0  0  0  0
   61.1008   27.5648   46.1179 H   0  0  0  0  0  0  0  0  0  0  0  0
   58.6267   29.3216   48.5381 H   0  0  0  0  0  0  0  0  0  0  0  0
   57.4014   34.9013   44.9526 H   0  0  0  0  0  0  0  0  0  0  0  0
   59.1086   35.0156   45.5552 H   0  0  0  0  0  0  0  0  0  0  0  0
   58.5393   33.7016   43.3194 H   0  0  0  0  0  0  0  0  0  0  0  0
   59.7705   33.0853   44.4994 H   0  0  0  0  0  0  0  0  0  0  0  0
   59.5290   30.5780   44.5090 H   0  0  0  0  0  0  0  0  0  0  0  0
   58.4349   28.2800   42.7488 H   0  0  0  0  0  0  0  0  0  0  0  0
   58.5654   25.7939   42.8743 H   0  0  0  0  0  0  0  0  0  0  0  0
   56.7524   25.8904   46.7975 H   0  0  0  0  0  0  0  0  0  0  0  0
   56.6010   28.3747   46.6761 H   0  0  0  0  0  0  0  0  0  0  0  0
  1  2  1  0
  2  3  1  0
  3  4  1  0
  4  5  1  0
  5  6  1  0
  6  7  2  0
  7  8  1  0
  8  9  1  0
  8 10  1  0
  3 11  1  0
 11 12  2  0
 11 13  1  0
 13 14  1  0
 14 15  1  0
 15 16  2  0
 16 17  1  0
 17 18  1  0
 18 19  2  0
 19 20  1  0
 20 21  2  0
 21 22  1  0
 21 23  1  0
 23 24  2  0
 17 25  2  0
 25 26  1  0
 10  5  2  0
 26 15  1  0
 24 18  1  0
  1 27  1  0
  1 28  1  0
  1 29  1  0
  2 30  1  0
  2 31  1  0
  4 32  1  0
  4 33  1  0
  6 34  1  0
  9 35  1  0
  9 36  1  0
  9 37  1  0
 10 38  1  0
 13 39  1  0
 13 40  1  0
 14 41  1  0
 14 42  1  0
 16 43  1  0
 19 44  1  0
 20 45  1  0
 23 46  1  0
 24 47  1  0
M  CHG  1  16   1
M  END
>  <UniqueID>  (85) 
78

>  <SMILES>  (85) 
CCN(Cc1cnn(C)c1)C(=O)CCc1[nH+]c(-c2ccc(Br)cc2)no1

>  <Energy>  (85) 
102.61534623528732

>  <Genealogy>  (85) 
CCN(Cc1cnn(C)c1)C(=O)CCc1[nH+]c(-c2ccc(Br)cc2)no1 (protonated)
CCN(Cc1cnn(C)c1)C(=O)CCc1[nH+]c(-c2ccc(Br)cc2)no1 (3D coordinates assigned)
CCN(Cc1cnn(C)c1)C(=O)CCc1[nH+]c(-c2ccc(Br)cc2)no1 (optimized conformer: 102.61534623528732 kcal/mol)

>  <smiles>  (85) 
CCN(Cc1cnn(C)c1)C(=O)CCc1nc(-c2ccc(Br)cc2)no1

>  <score_type>  (85) 
oracle

>  <origin>  (85) 
adg

>  <m_score__min__energy>  (85) 
-6.5899999999999999

>  <m_primary>  (85) 
energy

$$$$
