0:0
     RDKit          3D

 42 44  0  0  0  0  0  0  0  0999 V2000
   55.1500   23.2850   43.1450 C   0  0  0  0  0  0  0  0  0  0  0  0
   56.4540   23.0890   43.7490 N   0  0  0  0  0  0  0  0  0  0  0  0
   57.1250   24.1010   44.3070 C   0  0  0  0  0  0  0  0  0  0  0  0
   58.3920   23.9330   44.8980 C   0  0  0  0  0  0  0  0  0  0  0  0
   58.9540   25.0510   45.4250 O   0  0  0  0  0  0  0  0  0  0  0  0
   58.5160   26.3330   45.3500 C   0  0  0  0  0  0  0  0  0  0  0  0
   58.2280   27.0500   44.2180 C   0  0  0  0  0  0  0  0  0  0  0  0
   57.7830   28.3570   44.2550 C   0  0  0  0  0  0  0  0  0  0  0  0
   57.6000   29.0230   45.4380 C   0  0  0  0  0  0  0  0  0  0  0  0
   57.1580   30.3200   45.4520 O   0  0  0  0  0  0  0  0  0  0  0  0
   57.2960   31.2590   44.4180 C   0  0  0  0  0  0  0  0  0  0  0  0
   57.8930   32.4850   45.0530 C   0  0  0  0  0  0  0  0  0  0  0  0
   58.5230   33.4470   44.2920 C   0  0  0  0  0  0  0  0  0  0  0  0
   59.0730   34.5730   44.8630 C   0  0  0  0  0  0  0  0  0  0  0  0
   58.9730   34.7130   46.2350 C   0  0  0  0  0  0  0  0  0  0  0  0
   58.3370   33.7460   47.0220 C   0  0  0  0  0  0  0  0  0  0  0  0
   57.7940   32.6250   46.4300 C   0  0  0  0  0  0  0  0  0  0  0  0
   57.8850   28.3170   46.6020 C   0  0  0  0  0  0  0  0  0  0  0  0
   58.3290   27.0120   46.5560 C   0  0  0  0  0  0  0  0  0  0  0  0
   58.8970   22.6650   44.8680 C   0  0  0  0  0  0  0  0  0  0  0  0
   60.0160   22.3080   45.3630 N   0  0  0  0  0  0  0  0  0  0  0  0
   58.1740   21.6560   44.2840 N   0  0  0  0  0  0  0  0  0  0  0  0
   56.9740   21.8560   43.7330 C   0  0  0  0  0  0  0  0  0  0  0  0
   56.3170   20.8890   43.1920 N   0  0  0  0  0  0  0  0  0  0  0  0
   54.3933   23.3987   43.9352 H   0  0  0  0  0  0  0  0  0  0  0  0
   55.1674   24.1906   42.5209 H   0  0  0  0  0  0  0  0  0  0  0  0
   54.9004   22.4143   42.5209 H   0  0  0  0  0  0  0  0  0  0  0  0
   56.6706   25.1027   44.3045 H   0  0  0  0  0  0  0  0  0  0  0  0
   58.3566   26.5644   43.2394 H   0  0  0  0  0  0  0  0  0  0  0  0
   57.5699   28.8770   43.3094 H   0  0  0  0  0  0  0  0  0  0  0  0
   57.9630   30.8703   43.6344 H   0  0  0  0  0  0  0  0  0  0  0  0
   56.3297   31.4804   43.9412 H   0  0  0  0  0  0  0  0  0  0  0  0
   58.5878   33.3117   43.2023 H   0  0  0  0  0  0  0  0  0  0  0  0
   59.5748   35.3351   44.2486 H   0  0  0  0  0  0  0  0  0  0  0  0
   59.4023   35.6031   46.7181 H   0  0  0  0  0  0  0  0  0  0  0  0
   58.2703   33.8800   48.1118 H   0  0  0  0  0  0  0  0  0  0  0  0
   57.2924   31.8571   47.0373 H   0  0  0  0  0  0  0  0  0  0  0  0
   57.7539   28.8085   47.5773 H   0  0  0  0  0  0  0  0  0  0  0  0
   58.5428   26.4890   47.4998 H   0  0  0  0  0  0  0  0  0  0  0  0
   60.9230   22.1640   44.9300 H   0  0  0  0  0  0  0  0  0  0  0  0
   58.5470   20.6760   44.2520 H   0  0  0  0  0  0  0  0  0  0  0  0
   56.7090   19.9040   43.2530 H   0  0  0  0  0  0  0  0  0  0  0  0
  1  2  1  0
  2  3  1  0
  3  4  2  0
  4  5  1  0
  5  6  1  0
  6  7  2  0
  7  8  1  0
  8  9  2  0
  9 10  1  0
 10 11  1  0
 11 12  1  0
 12 13  2  0
 13 14  1  0
 14 15  2  0
 15 16  1  0
 16 17  2  0
  9 18  1  0
 18 19  2  0
  4 20  1  0
 20 21  2  3
 20 22  1  0
 22 23  1  0
 23 24  2  3
 23  2  1  0
 19  6  1  0
 17 12  1  0
  1 25  1  0
  1 26  1  0
  1 27  1  0
  3 28  1  0
  7 29  1  0
  8 30  1  0
 11 31  1  0
 11 32  1  0
 13 33  1  0
 14 34  1  0
 15 35  1  0
 16 36  1  0
 17 37  1  0
 18 38  1  0
 19 39  1  0
 21 40  1  0
 22 41  1  0
 24 42  1  0
M  END
>  <smiles>  (1) 
Cn1cc(Oc2ccc(OCc3ccccc3)cc2)c(=N)[nH]c1=N

>  <score_type>  (1) 
oracle

>  <origin>  (1) 
adg

>  <m_score__min__energy>  (1) 
-8.8100000000000005

>  <m_primary>  (1) 
energy

$$$$
1:0
     RDKit          3D

 42 44  0  0  1  0  0  0  0  0999 V2000
   55.5530   30.8780   51.9710 C   0  0  0  0  0  0  0  0  0  0  0  0
   57.3490   30.8140   52.1460 S   0  0  0  0  0  0  0  0  0  0  0  0
   58.1770   30.9440   50.5820 C   0  0  0  0  0  0  0  0  0  0  0  0
   58.5380   32.0480   49.8850 N   0  0  0  0  0  0  0  0  0  0  0  0
   59.1480   31.6420   48.7390 C   0  0  0  0  0  0  0  0  0  0  0  0
   59.6450   32.3310   47.7940 N   0  0  0  0  0  0  0  0  0  0  0  0
   58.8250   33.2160   47.0270 C   0  0  0  0  0  0  0  0  0  0  0  0
   58.5180   34.3710   47.4190 O   0  0  0  0  0  0  0  0  0  0  0  0
   58.3590   32.6790   45.7340 C   0  0  0  0  0  0  0  0  0  0  0  0
   57.7910   31.4250   45.6440 C   0  0  0  0  0  0  0  0  0  0  0  0
   57.3890   31.0080   44.3910 C   0  0  0  0  0  0  0  0  0  0  0  0
   56.6450   29.4250   44.1350 S   0  0  0  0  0  0  0  0  0  0  0  0
   55.3060   29.4660   44.8300 O   0  0  0  0  0  0  0  0  0  0  0  0
   56.3970   29.3010   42.6620 O   0  0  0  0  0  0  0  0  0  0  0  0
   57.5770   28.1730   44.7990 N   0  0  0  0  0  0  0  0  0  0  0  0
   58.8910   28.1810   44.2480 C   0  0  0  0  0  0  0  0  0  0  0  0
   59.8280   28.8770   45.2300 C   0  0  0  0  0  0  0  0  0  0  0  0
   59.8950   28.2280   46.4380 O   0  0  0  0  0  0  0  0  0  0  0  0
   58.8220   27.3840   46.6580 C   0  0  0  0  0  0  0  0  0  0  0  0
   57.5150   28.0530   46.2170 C   0  0  0  0  0  0  0  0  0  0  0  0
   57.5480   31.8170   43.2640 C   0  0  0  0  0  0  0  0  0  0  0  0
   58.1180   33.0700   43.3680 C   0  0  0  0  0  0  0  0  0  0  0  0
   58.5250   33.5010   44.6130 C   0  0  0  0  0  0  0  0  0  0  0  0
   59.0950   34.7260   44.7550 F   0  0  0  0  0  0  0  0  0  0  0  0
   59.1460   30.2950   48.7620 N   0  0  0  0  0  0  0  0  0  0  0  0
   58.5660   29.8510   49.8650 N   0  0  0  0  0  0  0  0  0  0  0  0
   55.0878   30.8946   52.9677 H   0  0  0  0  0  0  0  0  0  0  0  0
   55.2705   31.7868   51.4194 H   0  0  0  0  0  0  0  0  0  0  0  0
   55.2065   29.9916   51.4194 H   0  0  0  0  0  0  0  0  0  0  0  0
   57.6642   30.7863   46.5306 H   0  0  0  0  0  0  0  0  0  0  0  0
   59.2294   27.1475   44.0824 H   0  0  0  0  0  0  0  0  0  0  0  0
   58.8913   28.7152   43.2864 H   0  0  0  0  0  0  0  0  0  0  0  0
   60.8362   28.9127   44.7916 H   0  0  0  0  0  0  0  0  0  0  0  0
   59.4325   29.8870   45.4130 H   0  0  0  0  0  0  0  0  0  0  0  0
   58.9664   26.4572   46.0833 H   0  0  0  0  0  0  0  0  0  0  0  0
   58.7614   27.1575   47.7327 H   0  0  0  0  0  0  0  0  0  0  0  0
   56.6543   27.4329   46.5081 H   0  0  0  0  0  0  0  0  0  0  0  0
   57.3929   29.0370   46.6932 H   0  0  0  0  0  0  0  0  0  0  0  0
   57.2150   31.4514   42.2814 H   0  0  0  0  0  0  0  0  0  0  0  0
   58.2442   33.7080   42.4808 H   0  0  0  0  0  0  0  0  0  0  0  0
   59.5450   29.6740   48.0190 H   0  0  0  0  0  0  0  0  0  0  0  0
   58.4420   28.8420   50.1120 H   0  0  0  0  0  0  0  0  0  0  0  0
  1  2  1  0
  2  3  1  0
  3  4  2  0
  4  5  1  0
  5  6  2  0
  6  7  1  0
  7  8  2  0
  7  9  1  0
  9 10  2  0
 10 11  1  0
 11 12  1  0
 12 13  2  0
 12 14  2  0
 12 15  1  0
 15 16  1  0
 16 17  1  0
 17 18  1  0
 18 19  1  0
 19 20  1  0
 11 21  2  0
 21 22  1  0
 22 23  2  0
 23 24  1  0
  5 25  1  0
 25 26  1  0
 26  3  1  0
 23  9  1  0
 20 15  1  0
  1 27  1  0
  1 28  1  0
  1 29  1  0
 10 30  1  0
 16 31  1  0
 16 32  1  0
 17 33  1  0
 17 34  1  0
 19 35  1  0
 19 36  1  0
 20 37  1  0
 20 38  1  0
 21 39  1  0
 22 40  1  0
 25 41  1  0
 26 42  1  0
M  END
>  <smiles>  (2) 
CSc1nc(=NC(=O)c2cc(S(=O)(=O)N3CCOCC3)ccc2F)[nH][nH]1

>  <score_type>  (2) 
oracle

>  <origin>  (2) 
adg

>  <m_score__min__energy>  (2) 
-8.6300000000000008

>  <m_primary>  (2) 
energy

$$$$
2:0
     RDKit          3D

 37 38  0  0  0  0  0  0  0  0999 V2000
   61.1680   31.0380   47.1460 C   0  0  0  0  0  0  0  0  0  0  0  0
   59.5820   30.1820   46.8990 S   0  0  0  0  0  0  0  0  0  0  0  0
   58.7220   31.6670   46.3610 C   0  0  0  0  0  0  0  0  0  0  0  0
   59.0070   32.8830   46.9940 C   0  0  0  0  0  0  0  0  0  0  0  0
   58.3400   34.0480   46.6100 C   0  0  0  0  0  0  0  0  0  0  0  0
   57.3880   34.0050   45.5890 C   0  0  0  0  0  0  0  0  0  0  0  0
   57.0970   32.7950   44.9530 C   0  0  0  0  0  0  0  0  0  0  0  0
   57.7490   31.6110   45.3460 C   0  0  0  0  0  0  0  0  0  0  0  0
   57.4940   30.3630   44.6810 N   0  0  0  0  0  0  0  0  0  0  0  0
   56.6470   29.3090   45.1530 C   0  0  0  0  0  0  0  0  0  0  0  0
   55.4090   29.3230   44.9190 O   0  0  0  0  0  0  0  0  0  0  0  0
   57.2280   28.2170   45.9950 C   0  0  0  0  0  0  0  0  0  0  0  0
   57.2460   26.9490   45.2640 N   0  0  0  0  0  0  0  0  0  0  0  0
   56.2030   25.7700   46.0100 S   0  0  0  0  0  0  0  0  0  0  0  0
   54.7920   26.2880   45.9950 O   0  0  0  0  0  0  0  0  0  0  0  0
   56.6170   25.5630   47.4400 O   0  0  0  0  0  0  0  0  0  0  0  0
   56.2520   24.2430   45.1320 C   0  0  0  0  0  0  0  0  0  0  0  0
   56.2140   23.0330   45.8370 C   0  0  0  0  0  0  0  0  0  0  0  0
   56.2280   21.8160   45.1480 C   0  0  0  0  0  0  0  0  0  0  0  0
   56.2740   21.8000   43.7490 C   0  0  0  0  0  0  0  0  0  0  0  0
   56.2830   20.5810   43.0750 O   0  0  0  0  0  0  0  0  0  0  0  0
   56.3080   23.0090   43.0410 C   0  0  0  0  0  0  0  0  0  0  0  0
   56.2970   24.2260   43.7300 C   0  0  0  0  0  0  0  0  0  0  0  0
   61.3638   31.1437   48.2233 H   0  0  0  0  0  0  0  0  0  0  0  0
   61.9762   30.4536   46.6820 H   0  0  0  0  0  0  0  0  0  0  0  0
   61.1231   32.0344   46.6820 H   0  0  0  0  0  0  0  0  0  0  0  0
   59.7587   32.9206   47.7962 H   0  0  0  0  0  0  0  0  0  0  0  0
   58.5646   35.0006   47.1121 H   0  0  0  0  0  0  0  0  0  0  0  0
   56.8666   34.9246   45.2850 H   0  0  0  0  0  0  0  0  0  0  0  0
   56.3549   32.7678   44.1415 H   0  0  0  0  0  0  0  0  0  0  0  0
   58.2572   28.4864   46.2747 H   0  0  0  0  0  0  0  0  0  0  0  0
   56.6054   28.0964   46.8938 H   0  0  0  0  0  0  0  0  0  0  0  0
   56.1730   23.0401   46.9362 H   0  0  0  0  0  0  0  0  0  0  0  0
   56.2028   20.8689   45.7069 H   0  0  0  0  0  0  0  0  0  0  0  0
   56.8960   19.8260   43.3570 H   0  0  0  0  0  0  0  0  0  0  0  0
   56.3434   23.0007   41.9416 H   0  0  0  0  0  0  0  0  0  0  0  0
   56.3237   25.1729   43.1708 H   0  0  0  0  0  0  0  0  0  0  0  0
  1  2  1  0
  2  3  1  0
  3  4  2  0
  4  5  1  0
  5  6  2  0
  6  7  1  0
  7  8  2  0
  8  9  1  0
  9 10  1  0
 10 11  2  0
 10 12  1  0
 12 13  1  0
 13 14  1  0
 14 15  2  0
 14 16  2  0
 14 17  1  0
 17 18  2  0
 18 19  1  0
 19 20  2  0
 20 21  1  0
 20 22  1  0
 22 23  2  0
  8  3  1  0
 23 17  1  0
  1 24  1  0
  1 25  1  0
  1 26  1  0
  4 27  1  0
  5 28  1  0
  6 29  1  0
  7 30  1  0
 12 31  1  0
 12 32  1  0
 18 33  1  0
 19 34  1  0
 21 35  1  0
 22 36  1  0
 23 37  1  0
M  CHG  2   9  -1  13  -1
M  END
>  <UniqueID>  (3) 
1

>  <SMILES>  (3) 
CSc1ccccc1[N-]C(=O)C[N-]S(=O)(=O)c1ccc(O)cc1

>  <Energy>  (3) 
33.1763017226002

>  <Genealogy>  (3) 
CSc1ccccc1[N-]C(=O)C[N-]S(=O)(=O)c1ccc(O)cc1 (protonated)
CSc1ccccc1[N-]C(=O)C[N-]S(=O)(=O)c1ccc(O)cc1 (3D coordinates assigned)
CSc1ccccc1[N-]C(=O)C[N-]S(=O)(=O)c1ccc(O)cc1 (optimized conformer: 33.1763017226002 kcal/mol)

>  <smiles>  (3) 
CSc1ccccc1NC(=O)CNS(=O)(=O)c1ccc(O)cc1

>  <score_type>  (3) 
oracle

>  <origin>  (3) 
adg

>  <m_score__min__energy>  (3) 
-11.44

>  <m_primary>  (3) 
energy

$$$$
3:0
     RDKit          3D

 34 36  0  0  0  0  0  0  0  0999 V2000
   62.2650   29.3530   53.8210 H   0  0  0  0  0  0  0  0  0  0  0  0
   61.6370   28.6210   53.5130 O   0  0  0  0  0  0  0  0  0  0  0  0
   60.2650   28.8350   53.4080 C   0  0  0  0  0  0  0  0  0  0  0  0
   59.4560   28.7050   54.5420 C   0  0  0  0  0  0  0  0  0  0  0  0
   59.9063   28.4333   55.5081 H   0  0  0  0  0  0  0  0  0  0  0  0
   58.0780   28.9190   54.4520 C   0  0  0  0  0  0  0  0  0  0  0  0
   57.4470   28.8127   55.3467 H   0  0  0  0  0  0  0  0  0  0  0  0
   57.4970   29.2690   53.2240 C   0  0  0  0  0  0  0  0  0  0  0  0
   56.0780   29.4760   53.1390 N   0  0  0  0  0  0  0  0  0  0  0  0
   55.1380   28.5430   53.3980 C   0  0  0  0  0  0  0  0  0  0  0  0
   55.4250   27.1520   53.8750 C   0  0  0  0  0  0  0  0  0  0  0  0
   55.4285   27.1350   54.9749 H   0  0  0  0  0  0  0  0  0  0  0  0
   54.6490   26.4684   53.5002 H   0  0  0  0  0  0  0  0  0  0  0  0
   56.4082   26.8314   53.5002 H   0  0  0  0  0  0  0  0  0  0  0  0
   53.8780   29.0540   53.1660 C   0  0  0  0  0  0  0  0  0  0  0  0
   52.9233   28.5181   53.2723 H   0  0  0  0  0  0  0  0  0  0  0  0
   54.0460   30.3730   52.7730 C   0  0  0  0  0  0  0  0  0  0  0  0
   53.0070   31.1980   52.5360 C   0  0  0  0  0  0  0  0  0  0  0  0
   52.7771   31.9500   53.3052 H   0  0  0  0  0  0  0  0  0  0  0  0
   52.1530   31.1800   51.3370 C   0  0  0  0  0  0  0  0  0  0  0  0
   52.2190   30.2550   50.3620 N   0  0  0  0  0  0  0  0  0  0  0  0
   51.3680   30.7270   49.4260 C   0  0  0  0  0  0  0  0  0  0  0  0
   51.1410   30.1180   48.3480 O   0  0  0  0  0  0  0  0  0  0  0  0
   50.7890   31.9080   49.7300 N   0  0  0  0  0  0  0  0  0  0  0  0
   51.3090   32.1870   50.9360 C   0  0  0  0  0  0  0  0  0  0  0  0
   51.0230   33.3420   51.6530 O   0  0  0  0  0  0  0  0  0  0  0  0
   55.4320   30.5950   52.7230 C   0  0  0  0  0  0  0  0  0  0  0  0
   56.0670   31.6710   52.2340 C   0  0  0  0  0  0  0  0  0  0  0  0
   57.1658   31.7183   52.2559 H   0  0  0  0  0  0  0  0  0  0  0  0
   55.4889   32.5058   51.8112 H   0  0  0  0  0  0  0  0  0  0  0  0
   58.3080   29.3910   52.0830 C   0  0  0  0  0  0  0  0  0  0  0  0
   57.7440   29.7160   50.8540 O   0  0  0  0  0  0  0  0  0  0  0  0
   59.6870   29.1790   52.1770 C   0  0  0  0  0  0  0  0  0  0  0  0
   60.3201   29.2822   51.2834 H   0  0  0  0  0  0  0  0  0  0  0  0
  1  2  1  0
  2  3  1  0
  3  4  2  0
  4  5  1  0
  4  6  1  0
  6  7  1  0
  6  8  2  0
  8  9  1  0
  9 10  1  0
 10 11  1  0
 11 12  1  0
 11 13  1  0
 11 14  1  0
 10 15  2  0
 15 16  1  0
 15 17  1  0
 17 18  2  0
 18 19  1  0
 18 20  1  0
 20 21  1  0
 21 22  1  0
 22 23  2  0
 22 24  1  0
 24 25  1  0
 25 26  1  0
 17 27  1  0
 27 28  2  0
 28 29  1  0
 28 30  1  0
  8 31  1  0
 31 32  1  0
 31 33  2  0
 33 34  1  0
 33  3  1  0
 27  9  1  0
 25 20  2  0
M  CHG  4  21  -1  24  -1  26  -1  32  -1
M  END
>  <UniqueID>  (4) 
2

>  <SMILES>  (4) 
C=c1/c(=C\c2[n-]c(=O)[n-]c2[O-])cc(C)n1-c1ccc(O)cc1[O-]

>  <Energy>  (4) 
111.68696927573266

>  <Genealogy>  (4) 
C=c1c(=Cc2[n-]c(=O)[n-]c2[O-])cc(C)n1-c1ccc(O)cc1[O-] (protonated)
C=c1/c(=C\c2[n-]c(=O)[n-]c2[O-])cc(C)n1-c1ccc(O)cc1[O-] (cis-trans isomerization)
C=c1/c(=C\c2[n-]c(=O)[n-]c2[O-])cc(C)n1-c1ccc(O)cc1[O-] (3D coordinates assigned)
C=c1/c(=C\c2[n-]c(=O)[n-]c2[O-])cc(C)n1-c1ccc(O)cc1[O-] (optimized conformer: 111.68696927573266 kcal/mol)

>  <smiles>  (4) 
C=c1c(=Cc2[nH]c(=O)[nH]c2O)cc(C)n1-c1ccc(O)cc1O

>  <score_type>  (4) 
oracle

>  <origin>  (4) 
adg

>  <m_score__min__energy>  (4) 
-16.239999999999998

>  <m_primary>  (4) 
energy

$$$$
4:0
     RDKit          3D

 59 61  0  0  0  0  0  0  0  0999 V2000
   56.9814   23.6188   42.3627 H   0  0  0  0  0  0  0  0  0  0  0  0
   56.4880   23.7160   43.3410 C   0  0  0  0  0  0  0  0  0  0  0  0
   55.1530   23.3330   43.4890 C   0  0  0  0  0  0  0  0  0  0  0  0
   54.6012   22.9325   42.6258 H   0  0  0  0  0  0  0  0  0  0  0  0
   54.5110   23.4550   44.7290 C   0  0  0  0  0  0  0  0  0  0  0  0
   53.1700   23.0560   44.8280 O   0  0  0  0  0  0  0  0  0  0  0  0
   52.0630   23.9530   44.8420 C   0  0  0  0  0  0  0  0  0  0  0  0
   51.7861   24.1774   45.8826 H   0  0  0  0  0  0  0  0  0  0  0  0
   52.3396   24.8849   44.3271 H   0  0  0  0  0  0  0  0  0  0  0  0
   51.2087   23.4892   44.3271 H   0  0  0  0  0  0  0  0  0  0  0  0
   55.2280   23.9710   45.8280 C   0  0  0  0  0  0  0  0  0  0  0  0
   54.7291   24.0831   46.8019 H   0  0  0  0  0  0  0  0  0  0  0  0
   56.5760   24.3430   45.6870 C   0  0  0  0  0  0  0  0  0  0  0  0
   57.3320   24.9250   46.8470 C   0  0  0  0  0  0  0  0  0  0  0  0
   57.2237   24.2701   47.7241 H   0  0  0  0  0  0  0  0  0  0  0  0
   58.3984   25.0109   46.5911 H   0  0  0  0  0  0  0  0  0  0  0  0
   56.8060   26.2040   47.1420 O   0  0  0  0  0  0  0  0  0  0  0  0
   57.8560   27.1370   47.3220 C   0  0  0  0  0  0  0  0  0  0  0  0
   57.8625   27.4752   48.3687 H   0  0  0  0  0  0  0  0  0  0  0  0
   58.8091   26.6481   47.0718 H   0  0  0  0  0  0  0  0  0  0  0  0
   57.6720   28.3340   46.4150 C   0  0  0  0  0  0  0  0  0  0  0  0
   56.5280   28.4480   45.6060 C   0  0  0  0  0  0  0  0  0  0  0  0
   55.5620   27.4450   45.6070 O   0  0  0  0  0  0  0  0  0  0  0  0
   56.3620   29.5860   44.8040 C   0  0  0  0  0  0  0  0  0  0  0  0
   55.1480   29.7470   43.9420 C   0  0  0  0  0  0  0  0  0  0  0  0
   54.2590   29.8649   44.5790 H   0  0  0  0  0  0  0  0  0  0  0  0
   55.2647   30.6375   43.3069 H   0  0  0  0  0  0  0  0  0  0  0  0
   55.0286   28.8568   43.3069 H   0  0  0  0  0  0  0  0  0  0  0  0
   57.3020   30.5690   44.8230 N   0  0  0  0  0  0  0  0  0  0  0  0
   58.4290   30.4920   45.5780 C   0  0  0  0  0  0  0  0  0  0  0  0
   59.2630   31.4930   45.5490 N   0  0  0  0  0  0  0  0  0  0  0  0
   58.9470   32.8740   45.7680 C   0  0  0  0  0  0  0  0  0  0  0  0
   58.0540   33.4150   45.0640 O   0  0  0  0  0  0  0  0  0  0  0  0
   59.6770   33.6590   46.7290 N   0  0  0  0  0  0  0  0  0  0  0  0
   59.1070   34.9410   47.1570 C   0  0  0  0  0  0  0  0  0  0  0  0
   59.0875   34.9850   48.2559 H   0  0  0  0  0  0  0  0  0  0  0  0
   59.7237   35.7646   46.7680 H   0  0  0  0  0  0  0  0  0  0  0  0
   58.0824   35.0348   46.7680 H   0  0  0  0  0  0  0  0  0  0  0  0
   60.9900   33.1940   47.2210 C   0  0  0  0  0  0  0  0  0  0  0  0
   61.0475   32.1056   47.0723 H   0  0  0  0  0  0  0  0  0  0  0  0
   61.1400   33.4460   48.7420 C   0  0  0  0  0  0  0  0  0  0  0  0
   60.4793   34.2792   49.0235 H   0  0  0  0  0  0  0  0  0  0  0  0
   60.8718   32.5094   49.2528 H   0  0  0  0  0  0  0  0  0  0  0  0
   62.5760   33.7980   49.1680 C   0  0  0  0  0  0  0  0  0  0  0  0
   62.7463   34.8718   49.0006 H   0  0  0  0  0  0  0  0  0  0  0  0
   62.6939   33.5464   50.2323 H   0  0  0  0  0  0  0  0  0  0  0  0
   63.6070   32.9980   48.3650 C   0  0  0  0  0  0  0  0  0  0  0  0
   64.6147   33.2746   48.7086 H   0  0  0  0  0  0  0  0  0  0  0  0
   63.4053   31.9292   48.5294 H   0  0  0  0  0  0  0  0  0  0  0  0
   63.5080   33.2690   46.8480 C   0  0  0  0  0  0  0  0  0  0  0  0
   64.2828   34.0003   46.5743 H   0  0  0  0  0  0  0  0  0  0  0  0
   63.6446   32.3036   46.3388 H   0  0  0  0  0  0  0  0  0  0  0  0
   62.1390   33.8220   46.4070 C   0  0  0  0  0  0  0  0  0  0  0  0
   62.1286   34.9119   46.5553 H   0  0  0  0  0  0  0  0  0  0  0  0
   61.9895   33.5710   45.3465 H   0  0  0  0  0  0  0  0  0  0  0  0
   58.6310   29.3590   46.3950 C   0  0  0  0  0  0  0  0  0  0  0  0
   59.5368   29.2794   47.0140 H   0  0  0  0  0  0  0  0  0  0  0  0
   57.1980   24.2220   44.4320 C   0  0  0  0  0  0  0  0  0  0  0  0
   58.2477   24.5270   44.3089 H   0  0  0  0  0  0  0  0  0  0  0  0
  1  2  1  0
  2  3  2  0
  3  4  1  0
  3  5  1  0
  5  6  1  0
  6  7  1  0
  7  8  1  0
  7  9  1  0
  7 10  1  0
  5 11  2  0
 11 12  1  0
 11 13  1  0
 13 14  1  0
 14 15  1  0
 14 16  1  0
 14 17  1  0
 17 18  1  0
 18 19  1  0
 18 20  1  0
 18 21  1  0
 21 22  1  0
 22 23  1  0
 22 24  2  0
 24 25  1  0
 25 26  1  0
 25 27  1  0
 25 28  1  0
 24 29  1  0
 29 30  1  0
 30 31  2  0
 31 32  1  0
 32 33  2  0
 32 34  1  0
 34 35  1  0
 35 36  1  0
 35 37  1  0
 35 38  1  0
 34 39  1  0
 39 40  1  0
 39 41  1  0
 41 42  1  0
 41 43  1  0
 41 44  1  0
 44 45  1  0
 44 46  1  0
 44 47  1  0
 47 48  1  0
 47 49  1  0
 47 50  1  0
 50 51  1  0
 50 52  1  0
 50 53  1  0
 53 54  1  0
 53 55  1  0
 30 56  1  0
 56 57  1  0
 13 58  2  0
 58 59  1  0
 58  2  1  0
 56 21  2  0
 53 39  1  0
M  CHG  2  23  -1  29  -1
M  END
>  <UniqueID>  (5) 
3

>  <SMILES>  (5) 
COc1cccc(COCc2c/c(=N\C(=O)N(C)C3CCCCC3)[n-]c(C)c2[O-])c1

>  <Energy>  (5) 
69.37189656931565

>  <Genealogy>  (5) 
COc1cccc(COCc2cc(=NC(=O)N(C)C3CCCCC3)[n-]c(C)c2[O-])c1 (protonated)
COc1cccc(COCc2c/c(=N\C(=O)N(C)C3CCCCC3)[n-]c(C)c2[O-])c1 (cis-trans isomerization)
COc1cccc(COCc2c/c(=N\C(=O)N(C)C3CCCCC3)[n-]c(C)c2[O-])c1 (3D coordinates assigned)
COc1cccc(COCc2c/c(=N\C(=O)N(C)C3CCCCC3)[n-]c(C)c2[O-])c1 (nonaromatic ring conformer: 69.37189656931565 kcal/mol)

>  <smiles>  (5) 
COc1cccc(COCc2cc(=NC(=O)N(C)C3CCCCC3)[nH]c(C)c2O)c1

>  <score_type>  (5) 
oracle

>  <origin>  (5) 
adg

>  <m_score__min__energy>  (5) 
-12.949999999999999

>  <m_primary>  (5) 
energy

$$$$
5:0
     RDKit          3D

 50 53  0  0  0  0  0  0  0  0999 V2000
   55.9680   23.0350   42.9920 C   0  0  0  0  0  0  0  0  0  0  0  0
   56.1990   22.1450   44.1260 N   0  0  0  0  0  0  0  0  0  0  0  0
   56.6110   20.8680   44.0610 C   0  0  0  0  0  0  0  0  0  0  0  0
   56.6040   20.3520   45.3360 C   0  0  0  0  0  0  0  0  0  0  0  0
   56.1740   21.2910   46.2040 N   0  0  0  0  0  0  0  0  0  0  0  0
   55.9380   22.3730   45.4320 C   0  0  0  0  0  0  0  0  0  0  0  0
   55.3720   23.6500   45.9810 C   0  0  0  0  0  0  0  0  0  0  0  0
   56.4590   24.6600   46.1740 C   0  0  0  0  0  0  0  0  0  0  0  0
   57.7560   24.3470   46.3690 N   0  0  0  0  0  0  0  0  0  0  0  0
   58.3650   25.5490   46.4650 C   0  0  0  0  0  0  0  0  0  0  0  0
   59.6000   25.6640   46.6810 O   0  0  0  0  0  0  0  0  0  0  0  0
   57.5210   26.6030   46.3290 N   0  0  0  0  0  0  0  0  0  0  0  0
   57.7890   28.0480   46.4290 C   0  0  1  0  0  0  0  0  0  0  0  0
   59.2180   28.3440   46.9470 C   0  0  0  0  0  0  0  0  0  0  0  0
   59.4870   29.7910   47.2960 C   0  0  0  0  0  0  0  0  0  0  0  0
   60.3340   30.5750   46.4920 C   0  0  0  0  0  0  0  0  0  0  0  0
   60.5790   31.9120   46.8190 C   0  0  0  0  0  0  0  0  0  0  0  0
   59.9690   32.4830   47.9380 C   0  0  0  0  0  0  0  0  0  0  0  0
   59.1010   31.7210   48.7250 C   0  0  0  0  0  0  0  0  0  0  0  0
   58.8520   30.3850   48.4010 C   0  0  0  0  0  0  0  0  0  0  0  0
   57.4270   28.7760   45.1550 C   0  0  0  0  0  0  0  0  0  0  0  0
   57.8160   28.2980   44.0560 O   0  0  0  0  0  0  0  0  0  0  0  0
   56.7810   30.0580   45.2070 N   0  0  0  0  0  0  0  0  0  0  0  0
   57.2380   31.2260   44.8440 C   0  0  0  0  0  0  0  0  0  0  0  0
   57.6250   31.3960   43.5080 C   0  0  0  0  0  0  0  0  0  0  0  0
   58.1280   32.6270   43.0800 C   0  0  0  0  0  0  0  0  0  0  0  0
   58.2550   33.6540   43.9580 N   0  0  0  0  0  0  0  0  0  0  0  0
   57.9050   33.5200   45.2640 C   0  0  0  0  0  0  0  0  0  0  0  0
   57.3980   32.3070   45.7370 C   0  0  0  0  0  0  0  0  0  0  0  0
   56.3180   26.0290   46.1540 C   0  0  0  0  0  0  0  0  0  0  0  0
   55.1260   26.7260   45.9860 O   0  0  0  0  0  0  0  0  0  0  0  0
   55.7076   24.0382   43.3604 H   0  0  0  0  0  0  0  0  0  0  0  0
   56.8805   23.0943   42.3806 H   0  0  0  0  0  0  0  0  0  0  0  0
   55.1418   22.6430   42.3806 H   0  0  0  0  0  0  0  0  0  0  0  0
   56.9030   20.3291   43.1476 H   0  0  0  0  0  0  0  0  0  0  0  0
   56.9036   19.3288   45.6068 H   0  0  0  0  0  0  0  0  0  0  0  0
   54.6271   24.0489   45.2768 H   0  0  0  0  0  0  0  0  0  0  0  0
   54.8996   23.4431   46.9526 H   0  0  0  0  0  0  0  0  0  0  0  0
   57.1195   28.4595   47.1987 H   0  0  0  0  0  0  0  0  0  0  0  0
   59.3852   27.7388   47.8502 H   0  0  0  0  0  0  0  0  0  0  0  0
   59.9008   28.0960   46.1210 H   0  0  0  0  0  0  0  0  0  0  0  0
   60.8059   30.1340   45.6016 H   0  0  0  0  0  0  0  0  0  0  0  0
   61.2535   32.5154   46.1937 H   0  0  0  0  0  0  0  0  0  0  0  0
   60.1716   33.5320   48.1999 H   0  0  0  0  0  0  0  0  0  0  0  0
   58.6132   32.1738   49.6008 H   0  0  0  0  0  0  0  0  0  0  0  0
   58.1552   29.7944   49.0139 H   0  0  0  0  0  0  0  0  0  0  0  0
   57.5329   30.5614   42.7974 H   0  0  0  0  0  0  0  0  0  0  0  0
   58.4218   32.7642   42.0289 H   0  0  0  0  0  0  0  0  0  0  0  0
   58.0213   34.3703   45.9520 H   0  0  0  0  0  0  0  0  0  0  0  0
   57.1257   32.1955   46.7969 H   0  0  0  0  0  0  0  0  0  0  0  0
  1  2  1  0
  2  3  1  0
  3  4  2  0
  4  5  1  0
  5  6  2  0
  6  7  1  0
  7  8  1  0
  8  9  1  0
  9 10  1  0
 10 11  2  0
 10 12  1  0
 12 13  1  0
 13 14  1  0
 14 15  1  0
 15 16  2  0
 16 17  1  0
 17 18  2  0
 18 19  1  0
 19 20  2  0
 13 21  1  0
 21 22  2  0
 21 23  1  0
 23 24  2  3
 24 25  1  0
 25 26  2  0
 26 27  1  0
 27 28  1  0
 28 29  2  0
 12 30  1  0
 30 31  1  0
  6  2  1  0
 30  8  2  0
 20 15  1  0
 29 24  1  0
  1 32  1  0
  1 33  1  0
  1 34  1  0
  3 35  1  0
  4 36  1  0
  7 37  1  0
  7 38  1  0
 13 39  1  1
 14 40  1  0
 14 41  1  0
 16 42  1  0
 17 43  1  0
 18 44  1  0
 19 45  1  0
 20 46  1  0
 25 47  1  0
 26 48  1  0
 28 49  1  0
 29 50  1  0
M  CHG  3   9  -1  27  -1  31  -1
M  END
>  <UniqueID>  (6) 
4

>  <SMILES>  (6) 
Cn1ccnc1Cc1[n-]c(=O)n([C@@H](Cc2ccccc2)C(=O)N=c2cc[n-]cc2)c1[O-]

>  <Energy>  (6) 
121.14524009262902

>  <Genealogy>  (6) 
Cn1ccnc1Cc1[n-]c(=O)n(C(Cc2ccccc2)C(=O)N=c2cc[n-]cc2)c1[O-] (protonated)
Cn1ccnc1Cc1[n-]c(=O)n([C@@H](Cc2ccccc2)C(=O)N=c2cc[n-]cc2)c1[O-] (chirality)
Cn1ccnc1Cc1[n-]c(=O)n([C@@H](Cc2ccccc2)C(=O)N=c2cc[n-]cc2)c1[O-] (3D coordinates assigned)
Cn1ccnc1Cc1[n-]c(=O)n([C@@H](Cc2ccccc2)C(=O)N=c2cc[n-]cc2)c1[O-] (optimized conformer: 121.14524009262902 kcal/mol)

>  <smiles>  (6) 
Cn1ccnc1Cc1[nH]c(=O)n(C(Cc2ccccc2)C(=O)N=c2cc[nH]cc2)c1O

>  <score_type>  (6) 
oracle

>  <origin>  (6) 
adg

>  <m_score__min__energy>  (6) 
-13.890000000000001

>  <m_primary>  (6) 
energy

$$$$
6:0
     RDKit          3D

 61 63  0  0  0  0  0  0  0  0999 V2000
   58.1973   29.4222   47.3001 H   0  0  0  0  0  0  0  0  0  0  0  0
   57.7610   29.8360   46.3790 C   0  0  0  0  0  0  0  0  0  0  0  0
   57.9080   31.1560   46.0940 N   0  0  0  0  0  0  0  0  0  0  0  0
   57.3960   31.7190   44.9660 C   0  0  0  0  0  0  0  0  0  0  0  0
   57.6430   32.9780   44.7380 N   0  0  0  0  0  0  0  0  0  0  0  0
   57.9940   34.0140   45.7120 C   0  0  0  0  0  0  0  0  0  0  0  0
   57.6820   33.6799   46.7125 H   0  0  0  0  0  0  0  0  0  0  0  0
   57.4779   34.9405   45.4202 H   0  0  0  0  0  0  0  0  0  0  0  0
   59.5080   34.3030   45.7350 C   0  0  0  0  0  0  0  0  0  0  0  0
   59.6592   35.3428   46.0606 H   0  0  0  0  0  0  0  0  0  0  0  0
   59.8871   34.1254   44.7178 H   0  0  0  0  0  0  0  0  0  0  0  0
   60.2950   33.3770   46.6800 C   0  0  0  0  0  0  0  0  0  0  0  0
   60.6867   32.5259   46.1037 H   0  0  0  0  0  0  0  0  0  0  0  0
   59.6153   33.0303   47.4723 H   0  0  0  0  0  0  0  0  0  0  0  0
   61.4280   34.0930   47.3150 N   0  0  0  0  0  0  0  0  0  0  0  0
   62.7410   33.5950   46.8330 C   0  0  0  0  0  0  0  0  0  0  0  0
   62.6648   33.4112   45.7511 H   0  0  0  0  0  0  0  0  0  0  0  0
   63.4839   34.3673   47.0813 H   0  0  0  0  0  0  0  0  0  0  0  0
   63.2060   32.3000   47.5100 C   0  0  0  0  0  0  0  0  0  0  0  0
   63.1625   32.4213   48.6024 H   0  0  0  0  0  0  0  0  0  0  0  0
   62.5492   31.4714   47.2066 H   0  0  0  0  0  0  0  0  0  0  0  0
   64.2399   32.0784   47.2066 H   0  0  0  0  0  0  0  0  0  0  0  0
   61.3010   34.1330   48.7920 C   0  0  0  0  0  0  0  0  0  0  0  0
   61.8206   35.0259   49.1698 H   0  0  0  0  0  0  0  0  0  0  0  0
   61.7477   33.2135   49.1982 H   0  0  0  0  0  0  0  0  0  0  0  0
   59.8290   34.1870   49.2390 C   0  0  0  0  0  0  0  0  0  0  0  0
   59.1909   34.2102   48.3433 H   0  0  0  0  0  0  0  0  0  0  0  0
   59.7040   35.0901   49.8544 H   0  0  0  0  0  0  0  0  0  0  0  0
   59.4210   32.9830   50.1000 C   0  0  0  0  0  0  0  0  0  0  0  0
   58.6382   33.3020   50.8039 H   0  0  0  0  0  0  0  0  0  0  0  0
   60.3196   32.6295   50.6269 H   0  0  0  0  0  0  0  0  0  0  0  0
   58.8850   31.8200   49.2650 C   0  0  0  0  0  0  0  0  0  0  0  0
   58.5193   31.0266   49.9335 H   0  0  0  0  0  0  0  0  0  0  0  0
   58.0593   32.1742   48.6304 H   0  0  0  0  0  0  0  0  0  0  0  0
   59.6907   31.4223   48.6304 H   0  0  0  0  0  0  0  0  0  0  0  0
   56.6540   30.9160   44.0760 C   0  0  0  0  0  0  0  0  0  0  0  0
   56.2021   31.3585   43.1760 H   0  0  0  0  0  0  0  0  0  0  0  0
   56.4970   29.5560   44.3450 C   0  0  0  0  0  0  0  0  0  0  0  0
   55.9339   28.9198   43.6463 H   0  0  0  0  0  0  0  0  0  0  0  0
   57.0550   28.9990   45.5030 C   0  0  0  0  0  0  0  0  0  0  0  0
   56.9830   27.5440   45.7620 C   0  0  0  0  0  0  0  0  0  0  0  0
   55.7800   26.9280   45.6090 N   0  0  0  0  0  0  0  0  0  0  0  0
   55.6040   25.6010   45.8380 C   0  0  0  0  0  0  0  0  0  0  0  0
   54.3350   25.0310   45.6760 C   0  0  0  0  0  0  0  0  0  0  0  0
   53.4878   25.6600   45.3653 H   0  0  0  0  0  0  0  0  0  0  0  0
   54.1390   23.6570   45.9090 C   0  0  0  0  0  0  0  0  0  0  0  0
   52.8860   23.0410   45.7660 O   0  0  0  0  0  0  0  0  0  0  0  0
   51.7290   23.6840   45.2430 C   0  0  0  0  0  0  0  0  0  0  0  0
   51.0978   24.0348   46.0728 H   0  0  0  0  0  0  0  0  0  0  0  0
   52.0338   24.5421   44.6260 H   0  0  0  0  0  0  0  0  0  0  0  0
   51.1612   22.9720   44.6260 H   0  0  0  0  0  0  0  0  0  0  0  0
   55.2250   22.8670   46.3020 C   0  0  0  0  0  0  0  0  0  0  0  0
   55.0787   21.7916   46.4814 H   0  0  0  0  0  0  0  0  0  0  0  0
   56.4930   23.4290   46.4690 C   0  0  0  0  0  0  0  0  0  0  0  0
   57.3370   22.7953   46.7790 H   0  0  0  0  0  0  0  0  0  0  0  0
   56.6940   24.8030   46.2420 C   0  0  0  0  0  0  0  0  0  0  0  0
   57.9570   25.4060   46.3990 C   0  0  0  0  0  0  0  0  0  0  0  0
   58.9540   24.7150   46.7520 O   0  0  0  0  0  0  0  0  0  0  0  0
   58.1080   26.7850   46.1580 C   0  0  0  0  0  0  0  0  0  0  0  0
   59.4200   27.3890   46.2660 C   0  0  0  0  0  0  0  0  0  0  0  0
   60.4690   27.8730   46.3500 N   0  0  0  0  0  0  0  0  0  0  0  0
  1  2  1  0
  2  3  1  0
  3  4  1  0
  4  5  2  0
  5  6  1  0
  6  7  1  0
  6  8  1  0
  6  9  1  0
  9 10  1  0
  9 11  1  0
  9 12  1  0
 12 13  1  0
 12 14  1  0
 12 15  1  0
 15 16  1  0
 16 17  1  0
 16 18  1  0
 16 19  1  0
 19 20  1  0
 19 21  1  0
 19 22  1  0
 15 23  1  0
 23 24  1  0
 23 25  1  0
 23 26  1  0
 26 27  1  0
 26 28  1  0
 26 29  1  0
 29 30  1  0
 29 31  1  0
 29 32  1  0
 32 33  1  0
 32 34  1  0
 32 35  1  0
  4 36  1  0
 36 37  1  0
 36 38  2  0
 38 39  1  0
 38 40  1  0
 40 41  1  0
 41 42  1  0
 42 43  1  0
 43 44  2  0
 44 45  1  0
 44 46  1  0
 46 47  1  0
 47 48  1  0
 48 49  1  0
 48 50  1  0
 48 51  1  0
 46 52  2  0
 52 53  1  0
 52 54  1  0
 54 55  1  0
 54 56  2  0
 56 57  1  0
 57 58  2  0
 57 59  1  0
 59 60  1  0
 60 61  3  0
 40  2  2  0
 59 41  2  0
 56 43  1  0
M  CHG  2   3  -1  42  -1
M  END
>  <UniqueID>  (7) 
5

>  <SMILES>  (7) 
CCCCN(CC)CCC/N=c1\ccc(-c2[n-]c3cc(OC)ccc3c(=O)c2C#N)c[n-]1

>  <Energy>  (7) 
69.1769459621031

>  <Genealogy>  (7) 
CCCCN(CC)CCCN=c1ccc(-c2[n-]c3cc(OC)ccc3c(=O)c2C#N)c[n-]1 (protonated)
CCCCN(CC)CCC/N=c1\ccc(-c2[n-]c3cc(OC)ccc3c(=O)c2C#N)c[n-]1 (cis-trans isomerization)
CCCCN(CC)CCC/N=c1\ccc(-c2[n-]c3cc(OC)ccc3c(=O)c2C#N)c[n-]1 (3D coordinates assigned)
CCCCN(CC)CCC/N=c1\ccc(-c2[n-]c3cc(OC)ccc3c(=O)c2C#N)c[n-]1 (optimized conformer: 69.1769459621031 kcal/mol)

>  <smiles>  (7) 
CCCCN(CC)CCCN=c1ccc(-c2[nH]c3cc(OC)ccc3c(=O)c2C#N)c[nH]1

>  <score_type>  (7) 
oracle

>  <origin>  (7) 
adg

>  <m_score__min__energy>  (7) 
-11

>  <m_primary>  (7) 
energy

$$$$
7:0
     RDKit          3D

 48 51  0  0  0  0  0  0  0  0999 V2000
   56.7170   21.2970   43.0030 C   0  0  0  0  0  0  0  0  0  0  0  0
   55.8070   22.2620   43.5190 O   0  0  0  0  0  0  0  0  0  0  0  0
   56.1900   23.4810   44.1000 C   0  0  0  0  0  0  0  0  0  0  0  0
   57.2970   24.1500   43.5680 C   0  0  0  0  0  0  0  0  0  0  0  0
   57.7190   25.3680   44.1100 C   0  0  0  0  0  0  0  0  0  0  0  0
   57.0360   25.9400   45.1970 C   0  0  0  0  0  0  0  0  0  0  0  0
   57.4830   27.2340   45.7740 C   0  0  0  0  0  0  0  0  0  0  0  0
   58.2580   27.2630   46.9470 C   0  0  0  0  0  0  0  0  0  0  0  0
   58.6780   28.4770   47.4940 C   0  0  0  0  0  0  0  0  0  0  0  0
   58.3280   29.6970   46.8840 C   0  0  0  0  0  0  0  0  0  0  0  0
   58.7140   30.9580   47.4020 C   0  0  0  0  0  0  0  0  0  0  0  0
   59.4810   31.1110   48.7010 C   0  0  0  0  0  0  0  0  0  0  0  0
   60.1430   32.4250   48.7760 N   0  0  0  0  0  0  0  0  0  0  0  0
   59.5630   33.5000   49.5870 C   0  0  0  0  0  0  0  0  0  0  0  0
   61.3760   32.6920   48.0740 C   0  0  0  0  0  0  0  0  0  0  0  0
   61.4330   33.6210   47.0210 C   0  0  0  0  0  0  0  0  0  0  0  0
   62.6470   33.8530   46.3710 C   0  0  0  0  0  0  0  0  0  0  0  0
   63.7900   33.1560   46.7650 C   0  0  0  0  0  0  0  0  0  0  0  0
   63.6990   32.2280   47.8030 C   0  0  0  0  0  0  0  0  0  0  0  0
   62.5080   32.0170   48.4240 N   0  0  0  0  0  0  0  0  0  0  0  0
   58.3440   32.1110   46.6940 C   0  0  0  0  0  0  0  0  0  0  0  0
   57.5930   31.9920   45.5240 C   0  0  0  0  0  0  0  0  0  0  0  0
   57.2520   33.0240   44.8890 O   0  0  0  0  0  0  0  0  0  0  0  0
   57.2310   30.7960   45.0760 O   0  0  0  0  0  0  0  0  0  0  0  0
   57.5600   29.6680   45.6940 C   0  0  0  0  0  0  0  0  0  0  0  0
   57.1430   28.4470   45.1550 C   0  0  0  0  0  0  0  0  0  0  0  0
   55.9240   25.2670   45.7300 C   0  0  0  0  0  0  0  0  0  0  0  0
   55.5030   24.0490   45.1880 C   0  0  0  0  0  0  0  0  0  0  0  0
   57.2094   20.7748   43.8366 H   0  0  0  0  0  0  0  0  0  0  0  0
   56.1690   20.5690   42.3868 H   0  0  0  0  0  0  0  0  0  0  0  0
   57.4759   21.8014   42.3868 H   0  0  0  0  0  0  0  0  0  0  0  0
   57.8401   23.7145   42.7163 H   0  0  0  0  0  0  0  0  0  0  0  0
   58.5922   25.8824   43.6823 H   0  0  0  0  0  0  0  0  0  0  0  0
   58.5363   26.3193   47.4388 H   0  0  0  0  0  0  0  0  0  0  0  0
   59.2877   28.4805   48.4096 H   0  0  0  0  0  0  0  0  0  0  0  0
   58.7818   31.0126   49.5445 H   0  0  0  0  0  0  0  0  0  0  0  0
   60.2529   30.3286   48.7445 H   0  0  0  0  0  0  0  0  0  0  0  0
   59.6903   33.2640   50.6538 H   0  0  0  0  0  0  0  0  0  0  0  0
   60.0722   34.4477   49.3578 H   0  0  0  0  0  0  0  0  0  0  0  0
   58.4913   33.5948   49.3578 H   0  0  0  0  0  0  0  0  0  0  0  0
   60.5269   34.1621   46.7107 H   0  0  0  0  0  0  0  0  0  0  0  0
   62.7022   34.5834   45.5504 H   0  0  0  0  0  0  0  0  0  0  0  0
   64.7520   33.3362   46.2628 H   0  0  0  0  0  0  0  0  0  0  0  0
   64.5909   31.6671   48.1189 H   0  0  0  0  0  0  0  0  0  0  0  0
   58.6444   33.1041   47.0593 H   0  0  0  0  0  0  0  0  0  0  0  0
   56.5410   28.4370   44.2344 H   0  0  0  0  0  0  0  0  0  0  0  0
   55.3798   25.7021   46.5812 H   0  0  0  0  0  0  0  0  0  0  0  0
   54.6304   23.5325   45.6144 H   0  0  0  0  0  0  0  0  0  0  0  0
  1  2  1  0
  2  3  1  0
  3  4  2  0
  4  5  1  0
  5  6  2  0
  6  7  1  0
  7  8  2  0
  8  9  1  0
  9 10  2  0
 10 11  1  0
 11 12  1  0
 12 13  1  0
 13 14  1  0
 13 15  1  0
 15 16  2  0
 16 17  1  0
 17 18  2  0
 18 19  1  0
 19 20  2  0
 11 21  2  0
 21 22  1  0
 22 23  2  0
 22 24  1  0
 24 25  1  0
 25 26  2  0
  6 27  1  0
 27 28  2  0
 28  3  1  0
 26  7  1  0
 25 10  1  0
 20 15  1  0
  1 29  1  0
  1 30  1  0
  1 31  1  0
  4 32  1  0
  5 33  1  0
  8 34  1  0
  9 35  1  0
 12 36  1  0
 12 37  1  0
 14 38  1  0
 14 39  1  0
 14 40  1  0
 16 41  1  0
 17 42  1  0
 18 43  1  0
 19 44  1  0
 21 45  1  0
 26 46  1  0
 27 47  1  0
 28 48  1  0
M  END
>  <UniqueID>  (8) 
6

>  <SMILES>  (8) 
COc1ccc(-c2ccc3c(CN(C)c4ccccn4)cc(=O)oc3c2)cc1

>  <Energy>  (8) 
64.38803270550913

>  <Genealogy>  (8) 
COc1ccc(-c2ccc3c(CN(C)c4ccccn4)cc(=O)oc3c2)cc1 (3D coordinates assigned)
COc1ccc(-c2ccc3c(CN(C)c4ccccn4)cc(=O)oc3c2)cc1 (optimized conformer: 64.38803270550913 kcal/mol)

>  <smiles>  (8) 
COc1ccc(-c2ccc3c(CN(C)c4ccccn4)cc(=O)oc3c2)cc1

>  <score_type>  (8) 
oracle

>  <origin>  (8) 
adg

>  <m_score__min__energy>  (8) 
-8.1099999999999994

>  <m_primary>  (8) 
energy

$$$$
8:0
     RDKit          3D

 47 49  0  0  0  0  0  0  0  0999 V2000
   62.8040   33.8600   46.4450 C   0  0  0  0  0  0  0  0  0  0  0  0
   61.3990   33.6090   46.8930 C   0  0  0  0  0  0  0  0  0  0  0  0
   60.3430   33.8410   46.0680 N   0  0  0  0  0  0  0  0  0  0  0  0
   59.1650   33.5690   46.6730 C   0  0  0  0  0  0  0  0  0  0  0  0
   57.9170   33.7120   46.0590 O   0  0  0  0  0  0  0  0  0  0  0  0
   57.7540   34.2120   44.7330 C   0  0  0  0  0  0  0  0  0  0  0  0
   57.9680   33.1000   43.7090 C   0  0  0  0  0  0  0  0  0  0  0  0
   57.1450   32.0120   44.0230 O   0  0  0  0  0  0  0  0  0  0  0  0
   59.3750   33.0340   48.2490 S   0  0  0  0  0  0  0  0  0  0  0  0
   61.0520   33.1670   48.1740 C   0  0  0  0  0  0  0  0  0  0  0  0
   61.9880   32.8170   49.2950 C   0  0  0  0  0  0  0  0  0  0  0  0
   61.9330   31.3850   49.5950 N   0  0  0  0  0  0  0  0  0  0  0  0
   61.2260   30.4760   48.9840 C   0  0  0  0  0  0  0  0  0  0  0  0
   60.3510   29.6090   49.6690 C   0  0  0  0  0  0  0  0  0  0  0  0
   59.6290   28.6540   48.9510 C   0  0  0  0  0  0  0  0  0  0  0  0
   59.7620   28.5720   47.5610 C   0  0  0  0  0  0  0  0  0  0  0  0
   59.0100   27.5590   46.7970 C   0  0  0  0  0  0  0  0  0  0  0  0
   59.2220   26.2050   47.1010 C   0  0  0  0  0  0  0  0  0  0  0  0
   58.5530   25.2060   46.3930 C   0  0  0  0  0  0  0  0  0  0  0  0
   57.6630   25.5480   45.3760 C   0  0  0  0  0  0  0  0  0  0  0  0
   57.4320   26.8910   45.0700 C   0  0  0  0  0  0  0  0  0  0  0  0
   58.0910   27.9110   45.7780 C   0  0  0  0  0  0  0  0  0  0  0  0
   57.7140   29.5990   45.3890 S   0  0  0  0  0  0  0  0  0  0  0  0
   58.8100   30.1940   44.1870 N   0  0  0  0  0  0  0  0  0  0  0  0
   57.8570   30.4500   46.6200 O   0  0  0  0  0  0  0  0  0  0  0  0
   56.3000   29.7040   44.8910 O   0  0  0  0  0  0  0  0  0  0  0  0
   60.6490   29.4420   46.9150 C   0  0  0  0  0  0  0  0  0  0  0  0
   61.3460   30.3630   47.6340 N   0  0  0  0  0  0  0  0  0  0  0  0
   63.4541   33.9761   47.3247 H   0  0  0  0  0  0  0  0  0  0  0  0
   63.1535   33.0101   45.8404 H   0  0  0  0  0  0  0  0  0  0  0  0
   62.8376   34.7784   45.8404 H   0  0  0  0  0  0  0  0  0  0  0  0
   56.7367   34.6154   44.6213 H   0  0  0  0  0  0  0  0  0  0  0  0
   58.4984   35.0028   44.5583 H   0  0  0  0  0  0  0  0  0  0  0  0
   57.7162   33.4725   42.7051 H   0  0  0  0  0  0  0  0  0  0  0  0
   59.0206   32.7812   43.7284 H   0  0  0  0  0  0  0  0  0  0  0  0
   57.4140   31.7160   44.9310 H   0  0  0  0  0  0  0  0  0  0  0  0
   63.0144   33.0846   49.0037 H   0  0  0  0  0  0  0  0  0  0  0  0
   61.6848   33.3756   50.1928 H   0  0  0  0  0  0  0  0  0  0  0  0
   60.2379   29.6842   50.7606 H   0  0  0  0  0  0  0  0  0  0  0  0
   58.9541   27.9646   49.4794 H   0  0  0  0  0  0  0  0  0  0  0  0
   59.9214   25.9293   47.9041 H   0  0  0  0  0  0  0  0  0  0  0  0
   58.7280   24.1479   46.6375 H   0  0  0  0  0  0  0  0  0  0  0  0
   57.1420   24.7591   44.8138 H   0  0  0  0  0  0  0  0  0  0  0  0
   56.7274   27.1532   44.2670 H   0  0  0  0  0  0  0  0  0  0  0  0
   59.0640   31.1700   44.4570 H   0  0  0  0  0  0  0  0  0  0  0  0
   58.2800   30.2680   43.2890 H   0  0  0  0  0  0  0  0  0  0  0  0
   60.7824   29.3807   45.8248 H   0  0  0  0  0  0  0  0  0  0  0  0
  1  2  1  0
  2  3  1  0
  3  4  2  0
  4  5  1  0
  5  6  1  0
  6  7  1  0
  7  8  1  0
  4  9  1  0
  9 10  1  0
 10 11  1  0
 11 12  1  0
 12 13  2  3
 13 14  1  0
 14 15  2  0
 15 16  1  0
 16 17  1  0
 17 18  2  0
 18 19  1  0
 19 20  2  0
 20 21  1  0
 21 22  2  0
 22 23  1  0
 23 24  1  0
 23 25  2  0
 23 26  2  0
 16 27  2  0
 27 28  1  0
 10  2  2  0
 28 13  1  0
 22 17  1  0
  1 29  1  0
  1 30  1  0
  1 31  1  0
  6 32  1  0
  6 33  1  0
  7 34  1  0
  7 35  1  0
  8 36  1  0
 11 37  1  0
 11 38  1  0
 14 39  1  0
 15 40  1  0
 18 41  1  0
 19 42  1  0
 20 43  1  0
 21 44  1  0
 24 45  1  0
 24 46  1  0
 27 47  1  0
M  CHG  1  28  -1
M  END
>  <UniqueID>  (9) 
7

>  <SMILES>  (9) 
Cc1nc(OCCO)sc1CN=c1ccc(-c2ccccc2S(N)(=O)=O)c[n-]1

>  <Energy>  (9) 
82.59052405319095

>  <Genealogy>  (9) 
Cc1nc(OCCO)sc1CN=c1ccc(-c2ccccc2S(N)(=O)=O)c[n-]1 (protonated)
Cc1nc(OCCO)sc1CN=c1ccc(-c2ccccc2S(N)(=O)=O)c[n-]1 (3D coordinates assigned)
Cc1nc(OCCO)sc1CN=c1ccc(-c2ccccc2S(N)(=O)=O)c[n-]1 (optimized conformer: 82.59052405319095 kcal/mol)

>  <smiles>  (9) 
Cc1nc(OCCO)sc1CN=c1ccc(-c2ccccc2S(N)(=O)=O)c[nH]1

>  <score_type>  (9) 
oracle

>  <origin>  (9) 
adg

>  <m_score__min__energy>  (9) 
-9.7699999999999996

>  <m_primary>  (9) 
energy

$$$$
9:0
     RDKit          3D

 53 56  0  0  0  0  0  0  0  0999 V2000
   52.6160   22.6400   45.3340 N   0  0  0  0  0  0  0  0  0  0  0  0
   54.0530   23.4910   44.8820 S   0  0  0  0  0  0  0  0  0  0  0  0
   54.0530   23.7530   43.4020 O   0  0  0  0  0  0  0  0  0  0  0  0
   54.0610   24.8100   45.6050 O   0  0  0  0  0  0  0  0  0  0  0  0
   55.4890   22.5480   45.3280 C   0  0  0  0  0  0  0  0  0  0  0  0
   55.3360   21.1920   45.6600 C   0  0  0  0  0  0  0  0  0  0  0  0
   56.4480   20.4110   45.9910 C   0  0  0  0  0  0  0  0  0  0  0  0
   57.7240   20.9730   45.9910 C   0  0  0  0  0  0  0  0  0  0  0  0
   57.8930   22.3220   45.6720 C   0  0  0  0  0  0  0  0  0  0  0  0
   56.7840   23.1220   45.3480 C   0  0  0  0  0  0  0  0  0  0  0  0
   57.0130   24.5500   45.0590 C   0  0  0  0  0  0  0  0  0  0  0  0
   57.6170   24.9340   43.8580 C   0  0  0  0  0  0  0  0  0  0  0  0
   57.8220   26.2870   43.5790 C   0  0  0  0  0  0  0  0  0  0  0  0
   57.4450   27.2580   44.5280 C   0  0  0  0  0  0  0  0  0  0  0  0
   57.5860   28.5390   44.3330 N   0  0  0  0  0  0  0  0  0  0  0  0
   57.0380   29.6340   45.0860 C   0  0  0  0  0  0  0  0  0  0  0  0
   55.8750   30.0690   44.8610 O   0  0  0  0  0  0  0  0  0  0  0  0
   57.8850   30.3040   46.1240 C   0  0  0  0  0  0  0  0  0  0  0  0
   58.1390   31.7340   45.7360 C   0  0  0  0  0  0  0  0  0  0  0  0
   57.4160   32.3270   44.6870 C   0  0  0  0  0  0  0  0  0  0  0  0
   57.6450   33.6610   44.3410 C   0  0  0  0  0  0  0  0  0  0  0  0
   58.5830   34.4190   45.0500 C   0  0  0  0  0  0  0  0  0  0  0  0
   59.2940   33.8470   46.1220 C   0  0  0  0  0  0  0  0  0  0  0  0
   60.2480   34.5740   46.8520 O   0  0  0  0  0  0  0  0  0  0  0  0
   60.7810   34.1900   48.0940 C   0  0  0  0  0  0  0  0  0  0  0  0
   59.9850   34.1430   49.2570 C   0  0  0  0  0  0  0  0  0  0  0  0
   60.5400   33.7470   50.4780 C   0  0  0  0  0  0  0  0  0  0  0  0
   61.8880   33.3860   50.5490 C   0  0  0  0  0  0  0  0  0  0  0  0
   62.6810   33.4110   49.3960 C   0  0  0  0  0  0  0  0  0  0  0  0
   62.1300   33.8050   48.1690 C   0  0  0  0  0  0  0  0  0  0  0  0
   63.1470   33.8290   46.7340 Cl  0  0  0  0  0  0  0  0  0  0  0  0
   59.0800   32.5020   46.4480 C   0  0  0  0  0  0  0  0  0  0  0  0
   56.8750   26.8500   45.6940 N   0  0  0  0  0  0  0  0  0  0  0  0
   56.6590   25.5390   45.9880 C   0  0  0  0  0  0  0  0  0  0  0  0
   56.0990   25.1890   47.2140 O   0  0  0  0  0  0  0  0  0  0  0  0
   51.9850   22.6290   44.5010 H   0  0  0  0  0  0  0  0  0  0  0  0
   54.3330   20.7403   45.6597 H   0  0  0  0  0  0  0  0  0  0  0  0
   56.3156   19.3506   46.2520 H   0  0  0  0  0  0  0  0  0  0  0  0
   58.5977   20.3537   46.2423 H   0  0  0  0  0  0  0  0  0  0  0  0
   58.9014   22.7615   45.6744 H   0  0  0  0  0  0  0  0  0  0  0  0
   57.9311   24.1696   43.1320 H   0  0  0  0  0  0  0  0  0  0  0  0
   58.2749   26.5928   42.6244 H   0  0  0  0  0  0  0  0  0  0  0  0
   57.3641   30.2764   47.0925 H   0  0  0  0  0  0  0  0  0  0  0  0
   58.8463   29.7749   46.2020 H   0  0  0  0  0  0  0  0  0  0  0  0
   56.6671   31.7388   44.1364 H   0  0  0  0  0  0  0  0  0  0  0  0
   57.0868   34.1162   43.5096 H   0  0  0  0  0  0  0  0  0  0  0  0
   58.7658   35.4666   44.7686 H   0  0  0  0  0  0  0  0  0  0  0  0
   58.9216   34.4194   49.2035 H   0  0  0  0  0  0  0  0  0  0  0  0
   59.9151   33.7197   51.3829 H   0  0  0  0  0  0  0  0  0  0  0  0
   62.3260   33.0821   51.5112 H   0  0  0  0  0  0  0  0  0  0  0  0
   63.7404   33.1204   49.4530 H   0  0  0  0  0  0  0  0  0  0  0  0
   59.6519   32.0417   47.2672 H   0  0  0  0  0  0  0  0  0  0  0  0
   55.1500   24.8430   47.2740 H   0  0  0  0  0  0  0  0  0  0  0  0
  1  2  1  0
  2  3  2  0
  2  4  2  0
  2  5  1  0
  5  6  2  0
  6  7  1  0
  7  8  2  0
  8  9  1  0
  9 10  2  0
 10 11  1  0
 11 12  1  0
 12 13  2  0
 13 14  1  0
 14 15  2  3
 15 16  1  0
 16 17  2  0
 16 18  1  0
 18 19  1  0
 19 20  2  0
 20 21  1  0
 21 22  2  0
 22 23  1  0
 23 24  1  0
 24 25  1  0
 25 26  2  0
 26 27  1  0
 27 28  2  0
 28 29  1  0
 29 30  2  0
 30 31  1  0
 23 32  2  0
 14 33  1  0
 33 34  1  0
 34 35  1  0
 10  5  1  0
 34 11  2  0
 32 19  1  0
 30 25  1  0
  1 36  1  0
  6 37  1  0
  7 38  1  0
  8 39  1  0
  9 40  1  0
 12 41  1  0
 13 42  1  0
 18 43  1  0
 18 44  1  0
 20 45  1  0
 21 46  1  0
 22 47  1  0
 26 48  1  0
 27 49  1  0
 28 50  1  0
 29 51  1  0
 32 52  1  0
 35 53  1  0
M  CHG  2   1  -1  33  -1
M  END
>  <UniqueID>  (10) 
8

>  <SMILES>  (10) 
[NH-]S(=O)(=O)c1ccccc1-c1ccc(=NC(=O)Cc2cccc(Oc3ccccc3Cl)c2)[n-]c1O

>  <Energy>  (10) 
79.20342442342363

>  <Genealogy>  (10) 
[NH-]S(=O)(=O)c1ccccc1-c1ccc(=NC(=O)Cc2cccc(Oc3ccccc3Cl)c2)[n-]c1O (protonated)
[NH-]S(=O)(=O)c1ccccc1-c1ccc(=NC(=O)Cc2cccc(Oc3ccccc3Cl)c2)[n-]c1O (3D coordinates assigned)
[NH-]S(=O)(=O)c1ccccc1-c1ccc(=NC(=O)Cc2cccc(Oc3ccccc3Cl)c2)[n-]c1O (optimized conformer: 79.20342442342363 kcal/mol)

>  <smiles>  (10) 
NS(=O)(=O)c1ccccc1-c1ccc(=NC(=O)Cc2cccc(Oc3ccccc3Cl)c2)[nH]c1O

>  <score_type>  (10) 
oracle

>  <origin>  (10) 
adg

>  <m_score__min__energy>  (10) 
-14.51

>  <m_primary>  (10) 
energy

$$$$
10:0
     RDKit          3D

 61 64  0  0  1  0  0  0  0  0999 V2000
   56.6850   22.3820   43.2930 C   0  0  0  0  0  0  0  0  0  0  0  0
   57.2750   22.5270   44.6810 C   0  0  0  0  0  0  0  0  0  0  0  0
   58.7450   22.2620   44.6200 C   0  0  0  0  0  0  0  0  0  0  0  0
   56.9450   23.8190   45.2520 N   0  0  0  0  0  0  0  0  0  0  0  0
   56.8930   23.9850   46.6530 C   0  0  0  0  0  0  0  0  0  0  0  0
   57.1370   22.9990   47.4130 O   0  0  0  0  0  0  0  0  0  0  0  0
   56.5700   25.2480   47.2330 N   0  0  0  0  0  0  0  0  0  0  0  0
   57.0180   26.3360   46.7170 C   0  0  0  0  0  0  0  0  0  0  0  0
   56.1790   27.0670   45.9570 N   0  0  0  0  0  0  0  0  0  0  0  0
   56.6110   28.2130   45.3990 C   0  0  0  0  0  0  0  0  0  0  0  0
   55.7500   28.9170   44.6470 N   0  0  0  0  0  0  0  0  0  0  0  0
   56.1760   30.0650   44.0880 C   0  0  0  0  0  0  0  0  0  0  0  0
   57.4580   30.5540   44.2490 C   0  0  0  0  0  0  0  0  0  0  0  0
   57.7730   31.7820   43.6000 C   0  0  0  0  0  0  0  0  0  0  0  0
   58.0440   32.7860   43.0820 N   0  0  0  0  0  0  0  0  0  0  0  0
   58.3140   29.8170   45.0200 C   0  0  0  0  0  0  0  0  0  0  0  0
   59.4900   30.2180   45.1990 N   0  0  0  0  0  0  0  0  0  0  0  0
   60.0620   30.8260   46.3330 C   0  0  0  0  0  0  0  0  0  0  0  0
   61.3150   30.3910   46.7250 C   0  0  0  0  0  0  0  0  0  0  0  0
   61.8890   31.0120   47.8140 C   0  0  0  0  0  0  0  0  0  0  0  0
   61.2700   32.0330   48.5150 C   0  0  0  0  0  0  0  0  0  0  0  0
   61.9080   32.6360   49.6340 N   0  0  0  0  0  0  0  0  0  0  0  0
   61.7020   32.2110   51.0020 C   0  0  0  0  0  0  0  0  0  0  0  0
   61.7960   33.4600   51.8730 C   0  0  0  0  0  0  0  0  0  0  0  0
   63.0820   34.0800   51.8340 N   0  0  0  0  0  0  0  0  0  0  0  0
   63.7680   33.8070   50.6080 C   0  0  0  0  0  0  0  0  0  0  0  0
   62.8240   33.7380   49.4150 C   0  0  0  0  0  0  0  0  0  0  0  0
   60.0220   32.4150   48.0670 C   0  0  0  0  0  0  0  0  0  0  0  0
   59.3860   31.8470   46.9940 C   0  0  0  0  0  0  0  0  0  0  0  0
   58.1490   32.1900   46.5110 O   0  0  0  0  0  0  0  0  0  0  0  0
   57.5510   33.4570   46.5950 C   0  0  0  0  0  0  0  0  0  0  0  0
   56.5260   33.4690   47.5510 F   0  0  0  0  0  0  0  0  0  0  0  0
   56.9760   33.8100   45.3680 F   0  0  0  0  0  0  0  0  0  0  0  0
   57.9070   28.6370   45.6070 C   0  0  0  0  0  0  0  0  0  0  0  0
   58.7700   27.8800   46.3920 C   0  0  0  0  0  0  0  0  0  0  0  0
   58.3030   26.7350   46.9350 N   0  0  0  0  0  0  0  0  0  0  0  0
   55.6196   22.1202   43.3730 H   0  0  0  0  0  0  0  0  0  0  0  0
   56.7892   23.3325   42.7492 H   0  0  0  0  0  0  0  0  0  0  0  0
   57.2179   21.5881   42.7492 H   0  0  0  0  0  0  0  0  0  0  0  0
   56.8334   21.7826   45.3598 H   0  0  0  0  0  0  0  0  0  0  0  0
   59.1472   22.1895   45.6413 H   0  0  0  0  0  0  0  0  0  0  0  0
   58.9254   21.3169   44.0869 H   0  0  0  0  0  0  0  0  0  0  0  0
   59.2441   23.0847   44.0869 H   0  0  0  0  0  0  0  0  0  0  0  0
   56.7540   24.5940   44.5890 H   0  0  0  0  0  0  0  0  0  0  0  0
   54.7730   28.5700   44.5090 H   0  0  0  0  0  0  0  0  0  0  0  0
   55.4692   30.6417   43.4733 H   0  0  0  0  0  0  0  0  0  0  0  0
   61.8330   29.5818   46.1893 H   0  0  0  0  0  0  0  0  0  0  0  0
   62.8856   30.6807   48.1413 H   0  0  0  0  0  0  0  0  0  0  0  0
   60.7095   31.7489   51.1092 H   0  0  0  0  0  0  0  0  0  0  0  0
   62.4539   31.4655   51.3002 H   0  0  0  0  0  0  0  0  0  0  0  0
   61.0474   34.1864   51.5238 H   0  0  0  0  0  0  0  0  0  0  0  0
   61.6164   33.1470   52.9121 H   0  0  0  0  0  0  0  0  0  0  0  0
   63.6270   33.7690   52.6550 H   0  0  0  0  0  0  0  0  0  0  0  0
   64.5038   34.6051   50.4301 H   0  0  0  0  0  0  0  0  0  0  0  0
   64.2532   32.8249   50.7078 H   0  0  0  0  0  0  0  0  0  0  0  0
   62.2619   34.6795   49.3284 H   0  0  0  0  0  0  0  0  0  0  0  0
   63.3921   33.5848   48.4856 H   0  0  0  0  0  0  0  0  0  0  0  0
   59.5061   33.2248   48.6038 H   0  0  0  0  0  0  0  0  0  0  0  0
   58.3427   34.1671   46.8760 H   0  0  0  0  0  0  0  0  0  0  0  0
   59.8062   28.2054   46.5661 H   0  0  0  0  0  0  0  0  0  0  0  0
   58.9540   26.1750   47.5210 H   0  0  0  0  0  0  0  0  0  0  0  0
  1  2  1  0
  2  3  1  0
  2  4  1  0
  4  5  1  0
  5  6  2  0
  5  7  1  0
  7  8  2  0
  8  9  1  0
  9 10  2  0
 10 11  1  0
 11 12  1  0
 12 13  2  0
 13 14  1  0
 14 15  3  0
 13 16  1  0
 16 17  2  0
 17 18  1  0
 18 19  2  0
 19 20  1  0
 20 21  2  0
 21 22  1  0
 22 23  1  0
 23 24  1  0
 24 25  1  0
 25 26  1  0
 26 27  1  0
 21 28  1  0
 28 29  2  0
 29 30  1  0
 30 31  1  0
 31 32  1  0
 31 33  1  0
 16 34  1  0
 34 35  2  0
 35 36  1  0
 36  8  1  0
 34 10  1  0
 29 18  1  0
 27 22  1  0
  1 37  1  0
  1 38  1  0
  1 39  1  0
  2 40  1  0
  3 41  1  0
  3 42  1  0
  3 43  1  0
  4 44  1  0
 11 45  1  0
 12 46  1  0
 19 47  1  0
 20 48  1  0
 23 49  1  0
 23 50  1  0
 24 51  1  0
 24 52  1  0
 25 53  1  0
 26 54  1  0
 26 55  1  0
 27 56  1  0
 27 57  1  0
 28 58  1  0
 31 59  1  0
 35 60  1  0
 36 61  1  0
M  END
>  <smiles>  (11) 
CC(C)NC(=O)N=c1nc2[nH]cc(C#N)c(=Nc3ccc(N4CCNCC4)cc3OC(F)F)c2c[nH]1

>  <score_type>  (11) 
oracle

>  <origin>  (11) 
adg

>  <m_score__min__energy>  (11) 
-8.1400000000000006

>  <m_primary>  (11) 
energy

$$$$
11:0
     RDKit          3D

 52 54  0  0  0  0  0  0  0  0999 V2000
   51.4580   24.2380   43.8260 C   0  0  0  0  0  0  0  0  0  0  0  0
   52.9190   23.7360   44.7130 S   0  0  0  0  0  0  0  0  0  0  0  0
   53.3540   24.8710   45.5950 O   0  0  0  0  0  0  0  0  0  0  0  0
   52.6010   22.5480   45.5750 O   0  0  0  0  0  0  0  0  0  0  0  0
   54.2230   23.3530   43.6230 N   0  0  0  0  0  0  0  0  0  0  0  0
   55.4590   23.0390   44.3440 C   0  0  0  0  0  0  0  0  0  0  0  0
   56.2620   24.2830   44.6140 C   0  0  0  0  0  0  0  0  0  0  0  0
   56.2320   24.8920   45.8770 C   0  0  0  0  0  0  0  0  0  0  0  0
   56.9700   26.0540   46.1190 C   0  0  0  0  0  0  0  0  0  0  0  0
   57.7600   26.6240   45.1050 C   0  0  0  0  0  0  0  0  0  0  0  0
   58.5350   27.8610   45.3680 C   0  0  0  0  0  0  0  0  0  0  0  0
   59.7650   27.7780   45.6330 O   0  0  0  0  0  0  0  0  0  0  0  0
   57.9130   29.1540   45.2740 N   0  0  0  0  0  0  0  0  0  0  0  0
   58.4430   30.3400   45.8900 C   0  0  0  0  0  0  0  0  0  0  0  0
   58.4760   31.5390   45.1620 C   0  0  0  0  0  0  0  0  0  0  0  0
   58.9720   32.7090   45.7440 C   0  0  0  0  0  0  0  0  0  0  0  0
   59.4360   32.6980   47.0650 C   0  0  0  0  0  0  0  0  0  0  0  0
   60.0830   34.1680   47.7950 S   0  0  0  0  0  0  0  0  0  0  0  0
   59.5230   35.3640   47.0750 O   0  0  0  0  0  0  0  0  0  0  0  0
   59.6240   34.2400   49.2250 O   0  0  0  0  0  0  0  0  0  0  0  0
   61.8340   34.2300   47.7480 N   0  0  0  0  0  0  0  0  0  0  0  0
   62.4470   34.0990   49.0880 C   0  0  0  0  0  0  0  0  0  0  0  0
   63.0160   32.6950   49.3500 C   0  0  0  0  0  0  0  0  0  0  0  0
   62.2790   31.7260   48.6440 O   0  0  0  0  0  0  0  0  0  0  0  0
   62.5260   31.8560   47.2570 C   0  0  0  0  0  0  0  0  0  0  0  0
   62.4050   33.3120   46.7470 C   0  0  0  0  0  0  0  0  0  0  0  0
   59.3760   31.5110   47.8070 C   0  0  0  0  0  0  0  0  0  0  0  0
   58.8810   30.3400   47.2260 C   0  0  0  0  0  0  0  0  0  0  0  0
   57.7820   26.0130   43.8370 C   0  0  0  0  0  0  0  0  0  0  0  0
   57.0420   24.8520   43.5960 C   0  0  0  0  0  0  0  0  0  0  0  0
   50.6689   24.5091   44.5428 H   0  0  0  0  0  0  0  0  0  0  0  0
   51.6933   25.1068   43.1937 H   0  0  0  0  0  0  0  0  0  0  0  0
   51.1096   23.4080   43.1937 H   0  0  0  0  0  0  0  0  0  0  0  0
   55.2044   22.5613   45.3016 H   0  0  0  0  0  0  0  0  0  0  0  0
   56.0632   22.3624   43.7218 H   0  0  0  0  0  0  0  0  0  0  0  0
   55.6242   24.4526   46.6817 H   0  0  0  0  0  0  0  0  0  0  0  0
   56.9325   26.5268   47.1115 H   0  0  0  0  0  0  0  0  0  0  0  0
   57.0950   29.2600   44.6320 H   0  0  0  0  0  0  0  0  0  0  0  0
   58.1087   31.5584   44.1253 H   0  0  0  0  0  0  0  0  0  0  0  0
   58.9979   33.6420   45.1620 H   0  0  0  0  0  0  0  0  0  0  0  0
   63.2640   34.8306   49.1734 H   0  0  0  0  0  0  0  0  0  0  0  0
   61.6570   34.2795   49.8319 H   0  0  0  0  0  0  0  0  0  0  0  0
   64.0653   32.6623   49.0215 H   0  0  0  0  0  0  0  0  0  0  0  0
   62.9493   32.4788   50.4265 H   0  0  0  0  0  0  0  0  0  0  0  0
   63.5446   31.4967   47.0487 H   0  0  0  0  0  0  0  0  0  0  0  0
   61.7618   31.2630   46.7332 H   0  0  0  0  0  0  0  0  0  0  0  0
   63.4081   33.6717   46.4741 H   0  0  0  0  0  0  0  0  0  0  0  0
   61.7222   33.3015   45.8847 H   0  0  0  0  0  0  0  0  0  0  0  0
   59.7201   31.5006   48.8517 H   0  0  0  0  0  0  0  0  0  0  0  0
   58.8339   29.4136   47.8172 H   0  0  0  0  0  0  0  0  0  0  0  0
   58.3862   26.4526   43.0297 H   0  0  0  0  0  0  0  0  0  0  0  0
   57.0713   24.3815   42.6021 H   0  0  0  0  0  0  0  0  0  0  0  0
  1  2  1  0
  2  3  2  0
  2  4  2  0
  2  5  1  0
  5  6  1  0
  6  7  1  0
  7  8  2  0
  8  9  1  0
  9 10  2  0
 10 11  1  0
 11 12  2  0
 11 13  1  0
 13 14  1  0
 14 15  2  0
 15 16  1  0
 16 17  2  0
 17 18  1  0
 18 19  2  0
 18 20  2  0
 18 21  1  0
 21 22  1  0
 22 23  1  0
 23 24  1  0
 24 25  1  0
 25 26  1  0
 17 27  1  0
 27 28  2  0
 10 29  1  0
 29 30  2  0
 30  7  1  0
 28 14  1  0
 26 21  1  0
  1 31  1  0
  1 32  1  0
  1 33  1  0
  6 34  1  0
  6 35  1  0
  8 36  1  0
  9 37  1  0
 13 38  1  0
 15 39  1  0
 16 40  1  0
 22 41  1  0
 22 42  1  0
 23 43  1  0
 23 44  1  0
 25 45  1  0
 25 46  1  0
 26 47  1  0
 26 48  1  0
 27 49  1  0
 28 50  1  0
 29 51  1  0
 30 52  1  0
M  CHG  1   5  -1
M  END
>  <UniqueID>  (12) 
9

>  <SMILES>  (12) 
CS(=O)(=O)[N-]Cc1ccc(C(=O)Nc2ccc(S(=O)(=O)N3CCOCC3)cc2)cc1

>  <Energy>  (12) 
63.70307453649003

>  <Genealogy>  (12) 
CS(=O)(=O)[N-]Cc1ccc(C(=O)Nc2ccc(S(=O)(=O)N3CCOCC3)cc2)cc1 (protonated)
CS(=O)(=O)[N-]Cc1ccc(C(=O)Nc2ccc(S(=O)(=O)N3CCOCC3)cc2)cc1 (3D coordinates assigned)
CS(=O)(=O)[N-]Cc1ccc(C(=O)Nc2ccc(S(=O)(=O)N3CCOCC3)cc2)cc1 (nonaromatic ring conformer: 63.70307453649003 kcal/mol)

>  <smiles>  (12) 
CS(=O)(=O)NCc1ccc(C(=O)Nc2ccc(S(=O)(=O)N3CCOCC3)cc2)cc1

>  <score_type>  (12) 
oracle

>  <origin>  (12) 
adg

>  <m_score__min__energy>  (12) 
-9.7400000000000002

>  <m_primary>  (12) 
energy

$$$$
12:0
     RDKit          3D

 48 50  0  0  0  0  0  0  0  0999 V2000
   59.8140   27.6480   48.1290 C   0  0  0  0  0  0  0  0  0  0  0  0
   58.4780   27.7330   47.6430 O   0  0  0  0  0  0  0  0  0  0  0  0
   58.0260   28.6580   46.6860 C   0  0  0  0  0  0  0  0  0  0  0  0
   58.5260   29.9770   46.6540 C   0  0  0  0  0  0  0  0  0  0  0  0
   58.0710   30.9010   45.7000 C   0  0  0  0  0  0  0  0  0  0  0  0
   58.5990   32.2900   45.6810 C   0  0  0  0  0  0  0  0  0  0  0  0
   57.7720   33.3640   45.3110 C   0  0  0  0  0  0  0  0  0  0  0  0
   58.2720   34.6680   45.2900 C   0  0  0  0  0  0  0  0  0  0  0  0
   59.6020   34.9170   45.6370 C   0  0  0  0  0  0  0  0  0  0  0  0
   60.4450   33.8570   46.0130 C   0  0  0  0  0  0  0  0  0  0  0  0
   61.8160   34.0620   46.3830 N   0  0  0  0  0  0  0  0  0  0  0  0
   62.6630   33.2310   47.6460 S   0  0  0  0  0  0  0  0  0  0  0  0
   62.5790   31.7540   47.3840 O   0  0  0  0  0  0  0  0  0  0  0  0
   64.1100   33.6370   47.6440 O   0  0  0  0  0  0  0  0  0  0  0  0
   61.9090   33.5980   49.2260 C   0  0  0  0  0  0  0  0  0  0  0  0
   60.7490   32.6660   49.4880 C   0  0  0  0  0  0  0  0  0  0  0  0
   59.4440   33.1480   49.2780 C   0  0  0  0  0  0  0  0  0  0  0  0
   58.3360   32.3420   49.5370 C   0  0  0  0  0  0  0  0  0  0  0  0
   58.5130   31.0430   50.0130 C   0  0  0  0  0  0  0  0  0  0  0  0
   59.7980   30.5470   50.2330 C   0  0  0  0  0  0  0  0  0  0  0  0
   60.9270   31.3480   49.9860 C   0  0  0  0  0  0  0  0  0  0  0  0
   62.2970   30.7650   50.2190 C   0  0  0  0  0  0  0  0  0  0  0  0
   59.9370   32.5510   46.0300 C   0  0  0  0  0  0  0  0  0  0  0  0
   57.1080   30.4950   44.7670 C   0  0  0  0  0  0  0  0  0  0  0  0
   56.6070   29.1940   44.7860 C   0  0  0  0  0  0  0  0  0  0  0  0
   57.0530   28.2610   45.7380 C   0  0  0  0  0  0  0  0  0  0  0  0
   56.4860   26.8870   45.7190 C   0  0  0  0  0  0  0  0  0  0  0  0
   57.2050   25.8880   45.4540 O   0  0  0  0  0  0  0  0  0  0  0  0
   55.1390   26.6820   45.9990 O   0  0  0  0  0  0  0  0  0  0  0  0
   59.8048   27.6486   49.2290 H   0  0  0  0  0  0  0  0  0  0  0  0
   60.2775   26.7185   47.7667 H   0  0  0  0  0  0  0  0  0  0  0  0
   60.3916   28.5112   47.7667 H   0  0  0  0  0  0  0  0  0  0  0  0
   59.2844   30.2863   47.3883 H   0  0  0  0  0  0  0  0  0  0  0  0
   56.7236   33.1765   45.0360 H   0  0  0  0  0  0  0  0  0  0  0  0
   57.6161   35.5018   44.9992 H   0  0  0  0  0  0  0  0  0  0  0  0
   59.9908   35.9458   45.6159 H   0  0  0  0  0  0  0  0  0  0  0  0
   62.6585   33.4758   50.0219 H   0  0  0  0  0  0  0  0  0  0  0  0
   61.5373   34.6332   49.2109 H   0  0  0  0  0  0  0  0  0  0  0  0
   59.2961   34.1723   48.9053 H   0  0  0  0  0  0  0  0  0  0  0  0
   57.3214   32.7310   49.3657 H   0  0  0  0  0  0  0  0  0  0  0  0
   57.6376   30.4084   50.2153 H   0  0  0  0  0  0  0  0  0  0  0  0
   59.9294   29.5195   50.6032 H   0  0  0  0  0  0  0  0  0  0  0  0
   62.4828   30.6859   51.3003 H   0  0  0  0  0  0  0  0  0  0  0  0
   62.3524   29.7653   49.7634 H   0  0  0  0  0  0  0  0  0  0  0  0
   63.0558   31.4182   49.7634 H   0  0  0  0  0  0  0  0  0  0  0  0
   60.5938   31.7177   46.3204 H   0  0  0  0  0  0  0  0  0  0  0  0
   56.7441   31.2086   44.0131 H   0  0  0  0  0  0  0  0  0  0  0  0
   55.8516   28.8933   44.0451 H   0  0  0  0  0  0  0  0  0  0  0  0
  1  2  1  0
  2  3  1  0
  3  4  2  0
  4  5  1  0
  5  6  1  0
  6  7  2  0
  7  8  1  0
  8  9  2  0
  9 10  1  0
 10 11  1  0
 11 12  1  0
 12 13  2  0
 12 14  2  0
 12 15  1  0
 15 16  1  0
 16 17  2  0
 17 18  1  0
 18 19  2  0
 19 20  1  0
 20 21  2  0
 21 22  1  0
 10 23  2  0
  5 24  2  0
 24 25  1  0
 25 26  2  0
 26 27  1  0
 27 28  2  0
 27 29  1  0
 26  3  1  0
 23  6  1  0
 21 16  1  0
  1 30  1  0
  1 31  1  0
  1 32  1  0
  4 33  1  0
  7 34  1  0
  8 35  1  0
  9 36  1  0
 15 37  1  0
 15 38  1  0
 17 39  1  0
 18 40  1  0
 19 41  1  0
 20 42  1  0
 22 43  1  0
 22 44  1  0
 22 45  1  0
 23 46  1  0
 24 47  1  0
 25 48  1  0
M  CHG  2  11  -1  29  -1
M  END
>  <UniqueID>  (13) 
10

>  <SMILES>  (13) 
COc1cc(-c2cccc([N-]S(=O)(=O)Cc3ccccc3C)c2)ccc1C(=O)[O-]

>  <Energy>  (13) 
57.60176644481933

>  <Genealogy>  (13) 
COc1cc(-c2cccc([N-]S(=O)(=O)Cc3ccccc3C)c2)ccc1C(=O)[O-] (protonated)
COc1cc(-c2cccc([N-]S(=O)(=O)Cc3ccccc3C)c2)ccc1C(=O)[O-] (3D coordinates assigned)
COc1cc(-c2cccc([N-]S(=O)(=O)Cc3ccccc3C)c2)ccc1C(=O)[O-] (optimized conformer: 57.60176644481933 kcal/mol)

>  <smiles>  (13) 
COc1cc(-c2cccc(NS(=O)(=O)Cc3ccccc3C)c2)ccc1C(=O)O

>  <score_type>  (13) 
oracle

>  <origin>  (13) 
adg

>  <m_score__min__energy>  (13) 
-12.039999999999999

>  <m_primary>  (13) 
energy

$$$$
13:0
     RDKit          3D

 56 59  0  0  0  0  0  0  0  0999 V2000
   64.5450   32.2990   46.1640 H   0  0  0  0  0  0  0  0  0  0  0  0
   63.7600   32.9240   46.4550 N   0  0  0  0  0  0  0  0  0  0  0  0
   63.5790   33.2530   47.6920 C   0  0  0  0  0  0  0  0  0  0  0  0
   64.5850   33.1030   48.5950 N   0  0  0  0  0  0  0  0  0  0  0  0
   64.4250   33.4430   49.9050 C   0  0  0  0  0  0  0  0  0  0  0  0
   65.5240   33.2660   50.8280 N   0  0  0  0  0  0  0  0  0  0  0  0
   65.3680   33.5670   52.2590 C   0  0  0  0  0  0  0  0  0  0  0  0
   64.6968   34.4306   52.3759 H   0  0  0  0  0  0  0  0  0  0  0  0
   64.9446   32.6857   52.7631 H   0  0  0  0  0  0  0  0  0  0  0  0
   66.7240   33.8940   52.8910 C   0  0  0  0  0  0  0  0  0  0  0  0
   67.0744   34.8640   52.5086 H   0  0  0  0  0  0  0  0  0  0  0  0
   66.6011   33.9316   53.9835 H   0  0  0  0  0  0  0  0  0  0  0  0
   67.6810   32.9020   52.5800 O   0  0  0  0  0  0  0  0  0  0  0  0
   67.9350   32.9130   51.1900 C   0  0  0  0  0  0  0  0  0  0  0  0
   68.2137   33.9314   50.8814 H   0  0  0  0  0  0  0  0  0  0  0  0
   68.7548   32.2122   50.9736 H   0  0  0  0  0  0  0  0  0  0  0  0
   66.6920   32.4740   50.4120 C   0  0  0  0  0  0  0  0  0  0  0  0
   66.8662   32.6218   49.3360 H   0  0  0  0  0  0  0  0  0  0  0  0
   66.4965   31.4115   50.6193 H   0  0  0  0  0  0  0  0  0  0  0  0
   63.1830   33.9530   50.3240 C   0  0  0  0  0  0  0  0  0  0  0  0
   63.0182   34.2271   51.3765 H   0  0  0  0  0  0  0  0  0  0  0  0
   62.1630   34.1060   49.3840 C   0  0  0  0  0  0  0  0  0  0  0  0
   60.9280   34.6210   49.7900 O   0  0  0  0  0  0  0  0  0  0  0  0
   59.7350   33.8420   49.8590 C   0  0  0  0  0  0  0  0  0  0  0  0
   59.6204   33.4435   50.8779 H   0  0  0  0  0  0  0  0  0  0  0  0
   58.8760   34.4804   49.6048 H   0  0  0  0  0  0  0  0  0  0  0  0
   59.8000   32.6980   48.8830 C   0  0  0  0  0  0  0  0  0  0  0  0
   60.1050   31.3990   49.3200 C   0  0  0  0  0  0  0  0  0  0  0  0
   60.3116   31.2131   50.3843 H   0  0  0  0  0  0  0  0  0  0  0  0
   60.1470   30.3420   48.4080 C   0  0  0  0  0  0  0  0  0  0  0  0
   60.3812   29.3269   48.7611 H   0  0  0  0  0  0  0  0  0  0  0  0
   59.8940   30.5620   47.0490 C   0  0  0  0  0  0  0  0  0  0  0  0
   59.9490   29.4660   46.1760 O   0  0  0  0  0  0  0  0  0  0  0  0
   58.9870   28.4500   46.1100 C   0  0  0  0  0  0  0  0  0  0  0  0
   59.0740   27.3810   47.0040 C   0  0  0  0  0  0  0  0  0  0  0  0
   59.9054   27.3340   47.7228 H   0  0  0  0  0  0  0  0  0  0  0  0
   58.1120   26.3740   46.9890 C   0  0  0  0  0  0  0  0  0  0  0  0
   58.1722   25.5379   47.7012 H   0  0  0  0  0  0  0  0  0  0  0  0
   57.0690   26.4360   46.0600 C   0  0  0  0  0  0  0  0  0  0  0  0
   55.8240   25.1900   46.0420 S   0  0  0  0  0  0  0  0  0  0  0  0
   56.1290   24.1900   44.9640 O   0  0  0  0  0  0  0  0  0  0  0  0
   55.7850   24.4780   47.3650 O   0  0  0  0  0  0  0  0  0  0  0  0
   54.2890   25.9220   45.7350 N   0  0  0  0  0  0  0  0  0  0  0  0
   54.1940   26.7190   46.4030 H   0  0  0  0  0  0  0  0  0  0  0  0
   57.0070   27.4710   45.1730 N   0  0  0  0  0  0  0  0  0  0  0  0
   56.2230   27.4990   44.4830 H   0  0  0  0  0  0  0  0  0  0  0  0
   57.9460   28.4630   45.1570 C   0  0  0  0  0  0  0  0  0  0  0  0
   57.8440   29.5590   44.1310 C   0  0  0  0  0  0  0  0  0  0  0  0
   57.7536   30.5301   44.6396 H   0  0  0  0  0  0  0  0  0  0  0  0
   58.7462   29.5572   43.5017 H   0  0  0  0  0  0  0  0  0  0  0  0
   56.9576   29.3908   43.5017 H   0  0  0  0  0  0  0  0  0  0  0  0
   59.5640   31.8640   46.6120 C   0  0  0  0  0  0  0  0  0  0  0  0
   59.2490   32.1120   45.3160 F   0  0  0  0  0  0  0  0  0  0  0  0
   59.5230   32.9210   47.5270 C   0  0  0  0  0  0  0  0  0  0  0  0
   59.2717   33.9342   47.1802 H   0  0  0  0  0  0  0  0  0  0  0  0
   62.3830   33.7540   48.0880 N   0  0  0  0  0  0  0  0  0  0  0  0
  1  2  1  0
  2  3  2  0
  3  4  1  0
  4  5  2  0
  5  6  1  0
  6  7  1  0
  7  8  1  0
  7  9  1  0
  7 10  1  0
 10 11  1  0
 10 12  1  0
 10 13  1  0
 13 14  1  0
 14 15  1  0
 14 16  1  0
 14 17  1  0
 17 18  1  0
 17 19  1  0
  5 20  1  0
 20 21  1  0
 20 22  2  0
 22 23  1  0
 23 24  1  0
 24 25  1  0
 24 26  1  0
 24 27  1  0
 27 28  2  0
 28 29  1  0
 28 30  1  0
 30 31  1  0
 30 32  2  0
 32 33  1  0
 33 34  1  0
 34 35  2  0
 35 36  1  0
 35 37  1  0
 37 38  1  0
 37 39  2  0
 39 40  1  0
 40 41  2  0
 40 42  2  0
 40 43  1  0
 43 44  1  0
 39 45  1  0
 45 46  1  0
 45 47  2  0
 47 48  1  0
 48 49  1  0
 48 50  1  0
 48 51  1  0
 32 52  1  0
 52 53  1  0
 52 54  2  0
 54 55  1  0
 22 56  1  0
 56  3  1  0
 17  6  1  0
 54 27  1  0
 47 34  1  0
M  CHG  3  43  -1  45   1  56  -1
M  END
>  <UniqueID>  (14) 
11

>  <SMILES>  (14) 
[H]/N=c1\nc(N2CCOCC2)cc(OCc2ccc(Oc3ccc(S([NH-])(=O)=O)[nH+]c3C)c(F)c2)[n-]1

>  <Energy>  (14) 
70.77040779035225

>  <Genealogy>  (14) 
Cc1[nH+]c(S([NH-])(=O)=O)ccc1Oc1ccc(COc2cc(N3CCOCC3)nc(=N)[n-]2)cc1F (protonated)
[H]/N=c1\nc(N2CCOCC2)cc(OCc2ccc(Oc3ccc(S([NH-])(=O)=O)[nH+]c3C)c(F)c2)[n-]1 (cis-trans isomerization)
[H]/N=c1\nc(N2CCOCC2)cc(OCc2ccc(Oc3ccc(S([NH-])(=O)=O)[nH+]c3C)c(F)c2)[n-]1 (3D coordinates assigned)
[H]/N=c1\nc(N2CCOCC2)cc(OCc2ccc(Oc3ccc(S([NH-])(=O)=O)[nH+]c3C)c(F)c2)[n-]1 (nonaromatic ring conformer: 70.77040779035225 kcal/mol)

>  <smiles>  (14) 
Cc1nc(S(N)(=O)=O)ccc1Oc1ccc(COc2cc(N3CCOCC3)nc(=N)[nH]2)cc1F

>  <score_type>  (14) 
oracle

>  <origin>  (14) 
adg

>  <m_score__min__energy>  (14) 
-10.289999999999999

>  <m_primary>  (14) 
energy

$$$$
14:0
     RDKit          3D

 28 29  0  0  0  0  0  0  0  0999 V2000
   57.4820   35.2331   46.2039 H   0  0  0  0  0  0  0  0  0  0  0  0
   57.7220   34.1920   45.9420 C   0  0  0  0  0  0  0  0  0  0  0  0
   58.1260   33.2990   46.9350 C   0  0  0  0  0  0  0  0  0  0  0  0
   58.2026   33.6361   47.9793 H   0  0  0  0  0  0  0  0  0  0  0  0
   58.4330   31.9780   46.6040 C   0  0  0  0  0  0  0  0  0  0  0  0
   58.7516   31.2794   47.3917 H   0  0  0  0  0  0  0  0  0  0  0  0
   58.3390   31.5310   45.2730 C   0  0  0  0  0  0  0  0  0  0  0  0
   58.7140   30.1040   44.9580 C   0  0  0  0  0  0  0  0  0  0  0  0
   59.3251   29.7017   45.7795 H   0  0  0  0  0  0  0  0  0  0  0  0
   59.2816   30.0878   44.0159 H   0  0  0  0  0  0  0  0  0  0  0  0
   57.2540   29.0940   44.7650 S   0  0  0  0  0  0  0  0  0  0  0  0
   56.0290   29.9600   44.8660 O   0  0  0  0  0  0  0  0  0  0  0  0
   57.2660   28.4360   43.4150 O   0  0  0  0  0  0  0  0  0  0  0  0
   57.1860   27.8840   46.0060 N   0  0  0  0  0  0  0  0  0  0  0  0
   56.5740   26.7500   45.8600 C   0  0  0  0  0  0  0  0  0  0  0  0
   55.3450   26.4770   46.3420 N   0  0  0  0  0  0  0  0  0  0  0  0
   55.0780   25.2560   45.9790 O   0  0  0  0  0  0  0  0  0  0  0  0
   56.0700   24.7380   45.2890 C   0  0  0  0  0  0  0  0  0  0  0  0
   56.0860   23.3540   44.7360 C   0  0  0  0  0  0  0  0  0  0  0  0
   56.0944   22.6288   45.5630 H   0  0  0  0  0  0  0  0  0  0  0  0
   55.1896   23.1955   44.1184 H   0  0  0  0  0  0  0  0  0  0  0  0
   56.9858   23.2163   44.1184 H   0  0  0  0  0  0  0  0  0  0  0  0
   57.0820   25.6680   45.1790 C   0  0  0  0  0  0  0  0  0  0  0  0
   58.0536   25.5693   44.6728 H   0  0  0  0  0  0  0  0  0  0  0  0
   57.9280   32.4430   44.2720 C   0  0  0  0  0  0  0  0  0  0  0  0
   57.7660   31.9760   42.5830 Cl  0  0  0  0  0  0  0  0  0  0  0  0
   57.6220   33.7660   44.6170 C   0  0  0  0  0  0  0  0  0  0  0  0
   57.3008   34.4735   43.8383 H   0  0  0  0  0  0  0  0  0  0  0  0
  1  2  1  0
  2  3  2  0
  3  4  1  0
  3  5  1  0
  5  6  1  0
  5  7  2  0
  7  8  1  0
  8  9  1  0
  8 10  1  0
  8 11  1  0
 11 12  2  0
 11 13  2  0
 11 14  1  0
 14 15  2  0
 15 16  1  0
 16 17  1  0
 17 18  1  0
 18 19  1  0
 19 20  1  0
 19 21  1  0
 19 22  1  0
 18 23  2  0
 23 24  1  0
  7 25  1  0
 25 26  1  0
 25 27  2  0
 27 28  1  0
 27  2  1  0
 23 15  1  0
M  CHG  1  16  -1
M  END
>  <UniqueID>  (15) 
12

>  <SMILES>  (15) 
Cc1c/c(=N/S(=O)(=O)Cc2ccccc2Cl)[n-]o1

>  <Energy>  (15) 
56.511778353324

>  <Genealogy>  (15) 
Cc1cc(=NS(=O)(=O)Cc2ccccc2Cl)[n-]o1 (protonated)
Cc1c/c(=N/S(=O)(=O)Cc2ccccc2Cl)[n-]o1 (cis-trans isomerization)
Cc1c/c(=N/S(=O)(=O)Cc2ccccc2Cl)[n-]o1 (3D coordinates assigned)
Cc1c/c(=N/S(=O)(=O)Cc2ccccc2Cl)[n-]o1 (optimized conformer: 56.511778353324 kcal/mol)

>  <smiles>  (15) 
Cc1cc(=NS(=O)(=O)Cc2ccccc2Cl)[nH]o1

>  <score_type>  (15) 
oracle

>  <origin>  (15) 
adg

>  <m_score__min__energy>  (15) 
-9.8900000000000006

>  <m_primary>  (15) 
energy

$$$$
15:0
     RDKit          3D

 48 51  0  0  0  0  0  0  0  0999 V2000
   56.0960   31.0560   44.8650 O   0  0  0  0  0  0  0  0  0  0  0  0
   57.1160   30.3650   44.5990 C   0  0  0  0  0  0  0  0  0  0  0  0
   56.9430   28.9800   44.0440 C   0  0  0  0  0  0  0  0  0  0  0  0
   57.0400   27.9100   45.1110 C   0  0  0  0  0  0  0  0  0  0  0  0
   55.8980   27.3690   45.6190 N   0  0  0  0  0  0  0  0  0  0  0  0
   55.9130   26.4220   46.5560 N   0  0  0  0  0  0  0  0  0  0  0  0
   57.0710   25.9420   47.0680 C   0  0  0  0  0  0  0  0  0  0  0  0
   57.0300   25.0430   47.9500 O   0  0  0  0  0  0  0  0  0  0  0  0
   58.2950   26.4570   46.6110 C   0  0  0  0  0  0  0  0  0  0  0  0
   59.5220   25.9930   47.1230 C   0  0  0  0  0  0  0  0  0  0  0  0
   60.7250   26.5310   46.6650 C   0  0  0  0  0  0  0  0  0  0  0  0
   60.7200   27.5350   45.6980 C   0  0  0  0  0  0  0  0  0  0  0  0
   59.5130   28.0050   45.1760 C   0  0  0  0  0  0  0  0  0  0  0  0
   58.2850   27.4690   45.6190 C   0  0  0  0  0  0  0  0  0  0  0  0
   58.4330   30.9210   44.7420 N   0  0  0  0  0  0  0  0  0  0  0  0
   58.6880   32.2230   45.2950 C   0  0  0  0  0  0  0  0  0  0  0  0
   58.3000   33.3710   44.5880 C   0  0  0  0  0  0  0  0  0  0  0  0
   58.4760   34.6370   45.1430 C   0  0  0  0  0  0  0  0  0  0  0  0
   59.0390   34.7750   46.4100 C   0  0  0  0  0  0  0  0  0  0  0  0
   59.4420   33.6450   47.1420 C   0  0  0  0  0  0  0  0  0  0  0  0
   60.0430   33.8220   48.4390 N   0  0  0  0  0  0  0  0  0  0  0  0
   59.3520   33.7180   49.4730 O   0  0  0  0  0  0  0  0  0  0  0  0
   61.3470   34.2420   48.5570 O   0  0  0  0  0  0  0  0  0  0  0  0
   59.2540   32.3550   46.5860 C   0  0  0  0  0  0  0  0  0  0  0  0
   59.6070   31.1850   47.3420 N   0  0  0  0  0  0  0  0  0  0  0  0
   61.0150   30.8260   47.5250 C   0  0  0  0  0  0  0  0  0  0  0  0
   61.1780   30.0120   48.8120 C   0  0  0  0  0  0  0  0  0  0  0  0
   60.2740   28.9220   48.8320 O   0  0  0  0  0  0  0  0  0  0  0  0
   58.9440   29.4030   48.8920 C   0  0  0  0  0  0  0  0  0  0  0  0
   58.5820   30.1750   47.6200 C   0  0  0  0  0  0  0  0  0  0  0  0
   55.9545   28.9127   43.5661 H   0  0  0  0  0  0  0  0  0  0  0  0
   57.7547   28.8060   43.3222 H   0  0  0  0  0  0  0  0  0  0  0  0
   59.5320   25.2025   47.8878 H   0  0  0  0  0  0  0  0  0  0  0  0
   61.6797   26.1620   47.0679 H   0  0  0  0  0  0  0  0  0  0  0  0
   61.6714   27.9591   45.3444 H   0  0  0  0  0  0  0  0  0  0  0  0
   59.5195   28.7985   44.4142 H   0  0  0  0  0  0  0  0  0  0  0  0
   59.2370   30.3760   44.3550 H   0  0  0  0  0  0  0  0  0  0  0  0
   57.8534   33.2709   43.5877 H   0  0  0  0  0  0  0  0  0  0  0  0
   58.1695   35.5303   44.5790 H   0  0  0  0  0  0  0  0  0  0  0  0
   59.1693   35.7783   46.8416 H   0  0  0  0  0  0  0  0  0  0  0  0
   61.3536   30.2258   46.6676 H   0  0  0  0  0  0  0  0  0  0  0  0
   61.6182   31.7432   47.5956 H   0  0  0  0  0  0  0  0  0  0  0  0
   62.2074   29.6286   48.8690 H   0  0  0  0  0  0  0  0  0  0  0  0
   60.9657   30.6638   49.6723 H   0  0  0  0  0  0  0  0  0  0  0  0
   58.2578   28.5505   49.0030 H   0  0  0  0  0  0  0  0  0  0  0  0
   58.8557   30.0832   49.7520 H   0  0  0  0  0  0  0  0  0  0  0  0
   58.5202   29.4752   46.7735 H   0  0  0  0  0  0  0  0  0  0  0  0
   57.6114   30.6729   47.7618 H   0  0  0  0  0  0  0  0  0  0  0  0
  1  2  2  0
  2  3  1  0
  3  4  1  0
  4  5  2  0
  5  6  1  0
  6  7  1  0
  7  8  2  0
  7  9  1  0
  9 10  2  0
 10 11  1  0
 11 12  2  0
 12 13  1  0
 13 14  2  0
  2 15  1  0
 15 16  1  0
 16 17  2  0
 17 18  1  0
 18 19  2  0
 19 20  1  0
 20 21  1  0
 21 22  2  0
 21 23  1  0
 20 24  2  0
 24 25  1  0
 25 26  1  0
 26 27  1  0
 27 28  1  0
 28 29  1  0
 29 30  1  0
 14  4  1  0
 24 16  1  0
 30 25  1  0
 14  9  1  0
  3 31  1  0
  3 32  1  0
 10 33  1  0
 11 34  1  0
 12 35  1  0
 13 36  1  0
 15 37  1  0
 17 38  1  0
 18 39  1  0
 19 40  1  0
 26 41  1  0
 26 42  1  0
 27 43  1  0
 27 44  1  0
 29 45  1  0
 29 46  1  0
 30 47  1  0
 30 48  1  0
M  CHG  3   6  -1  21   1  23  -1
M  END
>  <UniqueID>  (16) 
13

>  <SMILES>  (16) 
O=C(Cc1n[n-]c(=O)c2ccccc12)Nc1cccc([N+](=O)[O-])c1N1CCOCC1

>  <Energy>  (16) 
71.81744048919322

>  <Genealogy>  (16) 
O=C(Cc1n[n-]c(=O)c2ccccc12)Nc1cccc([N+](=O)[O-])c1N1CCOCC1 (protonated)
O=C(Cc1n[n-]c(=O)c2ccccc12)Nc1cccc([N+](=O)[O-])c1N1CCOCC1 (3D coordinates assigned)
O=C(Cc1n[n-]c(=O)c2ccccc12)Nc1cccc([N+](=O)[O-])c1N1CCOCC1 (nonaromatic ring conformer: 71.81744048919322 kcal/mol)

>  <smiles>  (16) 
O=C(Cc1n[nH]c(=O)c2ccccc12)Nc1cccc([N+](=O)[O-])c1N1CCOCC1

>  <score_type>  (16) 
oracle

>  <origin>  (16) 
adg

>  <m_score__min__energy>  (16) 
-11.640000000000001

>  <m_primary>  (16) 
energy

$$$$
16:0
     RDKit          3D

 33 35  0  0  0  0  0  0  0  0999 V2000
   57.5350   34.9760   44.5060 O   0  0  0  0  0  0  0  0  0  0  0  0
   58.4600   34.3390   45.0500 N   0  0  0  0  0  0  0  0  0  0  0  0
   59.6200   35.0050   45.3720 O   0  0  0  0  0  0  0  0  0  0  0  0
   58.2710   32.9750   45.4730 C   0  0  0  0  0  0  0  0  0  0  0  0
   57.5980   32.0810   44.6220 C   0  0  0  0  0  0  0  0  0  0  0  0
   57.3890   30.7490   44.9980 C   0  0  0  0  0  0  0  0  0  0  0  0
   56.5120   29.6670   43.9190 S   0  0  0  0  0  0  0  0  0  0  0  0
   55.1440   29.4240   44.4880 O   0  0  0  0  0  0  0  0  0  0  0  0
   56.3780   30.2730   42.5500 O   0  0  0  0  0  0  0  0  0  0  0  0
   57.3600   28.1600   43.7920 N   0  0  0  0  0  0  0  0  0  0  0  0
   58.3430   27.7520   44.7560 C   0  0  0  0  0  0  0  0  0  0  0  0
   59.6220   28.3350   44.7260 C   0  0  0  0  0  0  0  0  0  0  0  0
   60.6170   27.9130   45.6050 C   0  0  0  0  0  0  0  0  0  0  0  0
   60.3530   26.9010   46.5240 C   0  0  0  0  0  0  0  0  0  0  0  0
   59.0870   26.3120   46.5810 C   0  0  0  0  0  0  0  0  0  0  0  0
   58.8540   25.3250   47.5320 O   0  0  0  0  0  0  0  0  0  0  0  0
   58.0630   26.7320   45.7030 C   0  0  0  0  0  0  0  0  0  0  0  0
   56.7050   26.1470   45.8250 C   0  0  0  0  0  0  0  0  0  0  0  0
   55.5610   26.8570   45.8240 N   0  0  0  0  0  0  0  0  0  0  0  0
   54.6040   25.9600   45.9880 N   0  0  0  0  0  0  0  0  0  0  0  0
   55.1360   24.7530   46.0930 N   0  0  0  0  0  0  0  0  0  0  0  0
   56.4520   24.8360   46.0000 N   0  0  0  0  0  0  0  0  0  0  0  0
   57.8610   30.2960   46.2340 C   0  0  0  0  0  0  0  0  0  0  0  0
   58.5250   31.1720   47.0930 C   0  0  0  0  0  0  0  0  0  0  0  0
   58.7310   32.5090   46.7280 C   0  0  0  0  0  0  0  0  0  0  0  0
   59.5060   33.5650   47.9050 Cl  0  0  0  0  0  0  0  0  0  0  0  0
   57.2305   32.4332   43.6469 H   0  0  0  0  0  0  0  0  0  0  0  0
   57.0760   27.5060   43.0280 H   0  0  0  0  0  0  0  0  0  0  0  0
   59.8394   29.1329   44.0007 H   0  0  0  0  0  0  0  0  0  0  0  0
   61.6125   28.3799   45.5729 H   0  0  0  0  0  0  0  0  0  0  0  0
   61.1450   26.5633   47.2087 H   0  0  0  0  0  0  0  0  0  0  0  0
   57.7085   29.2474   46.5293 H   0  0  0  0  0  0  0  0  0  0  0  0
   58.8901   30.8099   48.0654 H   0  0  0  0  0  0  0  0  0  0  0  0
  1  2  2  0
  2  3  1  0
  2  4  1  0
  4  5  2  0
  5  6  1  0
  6  7  1  0
  7  8  2  0
  7  9  2  0
  7 10  1  0
 10 11  1  0
 11 12  2  0
 12 13  1  0
 13 14  2  0
 14 15  1  0
 15 16  1  0
 15 17  2  0
 17 18  1  0
 18 19  1  0
 19 20  2  0
 20 21  1  0
 21 22  1  0
  6 23  2  0
 23 24  1  0
 24 25  2  0
 25 26  1  0
 25  4  1  0
 17 11  1  0
 22 18  2  0
  5 27  1  0
 10 28  1  0
 12 29  1  0
 13 30  1  0
 14 31  1  0
 23 32  1  0
 24 33  1  0
M  CHG  4   2   1   3  -1  16  -1  21  -1
M  END
>  <UniqueID>  (17) 
14

>  <SMILES>  (17) 
O=[N+]([O-])c1cc(S(=O)(=O)Nc2cccc([O-])c2-c2nn[n-]n2)ccc1Cl

>  <Energy>  (17) 
87.65256422678789

>  <Genealogy>  (17) 
O=[N+]([O-])c1cc(S(=O)(=O)Nc2cccc([O-])c2-c2nn[n-]n2)ccc1Cl (protonated)
O=[N+]([O-])c1cc(S(=O)(=O)Nc2cccc([O-])c2-c2nn[n-]n2)ccc1Cl (3D coordinates assigned)
O=[N+]([O-])c1cc(S(=O)(=O)Nc2cccc([O-])c2-c2nn[n-]n2)ccc1Cl (optimized conformer: 87.65256422678789 kcal/mol)

>  <smiles>  (17) 
O=[N+]([O-])c1cc(S(=O)(=O)Nc2cccc(O)c2-c2nn[nH]n2)ccc1Cl

>  <score_type>  (17) 
oracle

>  <origin>  (17) 
adg

>  <m_score__min__energy>  (17) 
-14.050000000000001

>  <m_primary>  (17) 
energy

$$$$
17:0
     RDKit          3D

 35 37  0  0  0  0  0  0  0  0999 V2000
   56.0518   30.7177   44.5612 H   0  0  0  0  0  0  0  0  0  0  0  0
   56.3460   29.6610   44.6440 C   0  0  0  0  0  0  0  0  0  0  0  0
   55.6474   28.8697   44.3345 H   0  0  0  0  0  0  0  0  0  0  0  0
   57.5580   29.3370   45.1230 C   0  0  0  0  0  0  0  0  0  0  0  0
   58.0900   28.0470   45.2940 C   0  0  0  0  0  0  0  0  0  0  0  0
   57.6380   26.8410   44.8940 C   0  0  0  0  0  0  0  0  0  0  0  0
   57.5756   26.6619   43.8105 H   0  0  0  0  0  0  0  0  0  0  0  0
   57.2200   25.7410   45.7840 C   0  0  0  0  0  0  0  0  0  0  0  0
   55.9280   25.7250   46.3280 C   0  0  0  0  0  0  0  0  0  0  0  0
   55.0090   26.7150   45.9990 O   0  0  0  0  0  0  0  0  0  0  0  0
   55.5630   24.7310   47.1790 N   0  0  0  0  0  0  0  0  0  0  0  0
   56.4350   23.7520   47.5290 C   0  0  0  0  0  0  0  0  0  0  0  0
   55.9660   22.5700   48.5510 S   0  0  0  0  0  0  0  0  0  0  0  0
   57.7010   23.7610   47.0380 N   0  0  0  0  0  0  0  0  0  0  0  0
   58.1150   24.7330   46.1850 C   0  0  0  0  0  0  0  0  0  0  0  0
   59.3030   24.7230   45.7660 O   0  0  0  0  0  0  0  0  0  0  0  0
   59.2730   28.2050   45.9970 C   0  0  0  0  0  0  0  0  0  0  0  0
   59.9403   27.4030   46.3457 H   0  0  0  0  0  0  0  0  0  0  0  0
   59.4540   29.5610   46.1760 C   0  0  0  0  0  0  0  0  0  0  0  0
   60.6250   30.1760   46.8810 C   0  0  0  0  0  0  0  0  0  0  0  0
   60.4796   30.0996   47.9687 H   0  0  0  0  0  0  0  0  0  0  0  0
   61.5450   29.6447   46.5959 H   0  0  0  0  0  0  0  0  0  0  0  0
   60.7098   31.2350   46.5959 H   0  0  0  0  0  0  0  0  0  0  0  0
   58.4170   30.2490   45.6490 N   0  0  0  0  0  0  0  0  0  0  0  0
   58.2610   31.6790   45.6700 C   0  0  0  0  0  0  0  0  0  0  0  0
   58.1400   32.3930   44.4670 C   0  0  0  0  0  0  0  0  0  0  0  0
   58.1578   31.8566   43.5068 H   0  0  0  0  0  0  0  0  0  0  0  0
   57.9970   33.7830   44.4860 C   0  0  0  0  0  0  0  0  0  0  0  0
   57.9016   34.3382   43.5412 H   0  0  0  0  0  0  0  0  0  0  0  0
   57.9750   34.4690   45.7040 C   0  0  0  0  0  0  0  0  0  0  0  0
   57.8626   35.5632   45.7174 H   0  0  0  0  0  0  0  0  0  0  0  0
   58.0960   33.7630   46.9060 C   0  0  0  0  0  0  0  0  0  0  0  0
   58.0778   34.3026   47.8644 H   0  0  0  0  0  0  0  0  0  0  0  0
   58.2400   32.3730   46.8900 C   0  0  0  0  0  0  0  0  0  0  0  0
   58.3372   31.8210   47.8365 H   0  0  0  0  0  0  0  0  0  0  0  0
  1  2  1  0
  2  3  1  0
  2  4  2  0
  4  5  1  0
  5  6  2  0
  6  7  1  0
  6  8  1  0
  8  9  2  0
  9 10  1  0
  9 11  1  0
 11 12  1  0
 12 13  2  0
 12 14  1  0
 14 15  1  0
 15 16  2  0
  5 17  1  0
 17 18  1  0
 17 19  2  0
 19 20  1  0
 20 21  1  0
 20 22  1  0
 20 23  1  0
 19 24  1  0
 24 25  1  0
 25 26  2  0
 26 27  1  0
 26 28  1  0
 28 29  1  0
 28 30  2  0
 30 31  1  0
 30 32  1  0
 32 33  1  0
 32 34  2  0
 34 35  1  0
 24  4  1  0
 34 25  1  0
 15  8  1  0
M  CHG  3  10  -1  11  -1  14  -1
M  END
>  <UniqueID>  (18) 
15

>  <SMILES>  (18) 
C=c1/c(=C\c2c([O-])[n-]c(=S)[n-]c2=O)cc(C)n1-c1ccccc1

>  <Energy>  (18) 
86.41252462677312

>  <Genealogy>  (18) 
C=c1c(=Cc2c([O-])[n-]c(=S)[n-]c2=O)cc(C)n1-c1ccccc1 (protonated)
C=c1/c(=C\c2c([O-])[n-]c(=S)[n-]c2=O)cc(C)n1-c1ccccc1 (cis-trans isomerization)
C=c1/c(=C\c2c([O-])[n-]c(=S)[n-]c2=O)cc(C)n1-c1ccccc1 (3D coordinates assigned)
C=c1/c(=C\c2c([O-])[n-]c(=S)[n-]c2=O)cc(C)n1-c1ccccc1 (optimized conformer: 86.41252462677312 kcal/mol)

>  <smiles>  (18) 
C=c1c(=Cc2c(O)[nH]c(=S)[nH]c2=O)cc(C)n1-c1ccccc1

>  <score_type>  (18) 
oracle

>  <origin>  (18) 
adg

>  <m_score__min__energy>  (18) 
-15.09

>  <m_primary>  (18) 
energy

$$$$
18:0
     RDKit          3D

 40 41  0  0  0  0  0  0  0  0999 V2000
   59.4260   24.8290   46.3650 C   0  0  0  0  0  0  0  0  0  0  0  0
   58.4370   25.9170   46.0420 C   0  0  0  0  0  0  0  0  0  0  0  0
   57.0620   25.6460   46.1370 C   0  0  0  0  0  0  0  0  0  0  0  0
   56.1190   26.6380   45.8600 C   0  0  0  0  0  0  0  0  0  0  0  0
   54.7640   26.3470   45.9720 O   0  0  0  0  0  0  0  0  0  0  0  0
   56.5350   27.9220   45.4870 C   0  0  0  0  0  0  0  0  0  0  0  0
   55.5480   28.9320   45.2290 N   0  0  0  0  0  0  0  0  0  0  0  0
   55.6060   29.9280   44.1980 C   0  0  0  0  0  0  0  0  0  0  0  0
   54.6430   30.0270   43.3920 O   0  0  0  0  0  0  0  0  0  0  0  0
   56.7510   30.8930   44.0870 C   0  0  0  0  0  0  0  0  0  0  0  0
   57.0210   31.4900   45.3920 N   0  0  0  0  0  0  0  0  0  0  0  0
   58.0360   32.8880   45.1960 S   0  0  0  0  0  0  0  0  0  0  0  0
   58.3990   33.0400   43.7470 O   0  0  0  0  0  0  0  0  0  0  0  0
   57.2600   34.1080   45.6070 O   0  0  0  0  0  0  0  0  0  0  0  0
   59.4730   32.7500   46.2350 C   0  0  0  0  0  0  0  0  0  0  0  0
   60.0210   31.4680   46.4090 C   0  0  0  0  0  0  0  0  0  0  0  0
   61.2310   31.2930   47.0830 C   0  0  0  0  0  0  0  0  0  0  0  0
   61.9210   32.3970   47.5790 C   0  0  0  0  0  0  0  0  0  0  0  0
   61.3960   33.6800   47.4150 C   0  0  0  0  0  0  0  0  0  0  0  0
   60.1680   33.8710   46.7590 C   0  0  0  0  0  0  0  0  0  0  0  0
   59.6650   35.2480   46.6410 C   0  0  0  0  0  0  0  0  0  0  0  0
   58.9000   35.7170   47.5230 O   0  0  0  0  0  0  0  0  0  0  0  0
   59.9590   36.0050   45.5150 O   0  0  0  0  0  0  0  0  0  0  0  0
   57.9040   28.1840   45.3310 C   0  0  0  0  0  0  0  0  0  0  0  0
   58.8630   27.1950   45.6080 C   0  0  0  0  0  0  0  0  0  0  0  0
   60.3260   27.5310   45.4790 C   0  0  0  0  0  0  0  0  0  0  0  0
   59.5172   24.7287   47.4566 H   0  0  0  0  0  0  0  0  0  0  0  0
   59.0771   23.8775   45.9372 H   0  0  0  0  0  0  0  0  0  0  0  0
   60.4063   25.0858   45.9372 H   0  0  0  0  0  0  0  0  0  0  0  0
   56.7245   24.6417   46.4327 H   0  0  0  0  0  0  0  0  0  0  0  0
   57.6466   30.3587   43.7372 H   0  0  0  0  0  0  0  0  0  0  0  0
   56.4902   31.6862   43.3709 H   0  0  0  0  0  0  0  0  0  0  0  0
   59.4901   30.5914   46.0093 H   0  0  0  0  0  0  0  0  0  0  0  0
   61.6403   30.2816   47.2227 H   0  0  0  0  0  0  0  0  0  0  0  0
   62.8797   32.2576   48.1000 H   0  0  0  0  0  0  0  0  0  0  0  0
   61.9482   34.5488   47.8025 H   0  0  0  0  0  0  0  0  0  0  0  0
   58.2312   29.1764   44.9874 H   0  0  0  0  0  0  0  0  0  0  0  0
   60.7686   27.6326   46.4809 H   0  0  0  0  0  0  0  0  0  0  0  0
   60.8398   26.7275   44.9310 H   0  0  0  0  0  0  0  0  0  0  0  0
   60.4377   28.4782   44.9310 H   0  0  0  0  0  0  0  0  0  0  0  0
  1  2  1  0
  2  3  2  0
  3  4  1  0
  4  5  1  0
  4  6  2  0
  6  7  1  0
  7  8  1  0
  8  9  2  0
  8 10  1  0
 10 11  1  0
 11 12  1  0
 12 13  2  0
 12 14  2  0
 12 15  1  0
 15 16  2  0
 16 17  1  0
 17 18  2  0
 18 19  1  0
 19 20  2  0
 20 21  1  0
 21 22  2  0
 21 23  1  0
  6 24  1  0
 24 25  2  0
 25 26  1  0
 25  2  1  0
 20 15  1  0
  1 27  1  0
  1 28  1  0
  1 29  1  0
  3 30  1  0
 10 31  1  0
 10 32  1  0
 16 33  1  0
 17 34  1  0
 18 35  1  0
 19 36  1  0
 24 37  1  0
 26 38  1  0
 26 39  1  0
 26 40  1  0
M  CHG  4   5  -1   7  -1  11  -1  23  -1
M  END
>  <UniqueID>  (19) 
16

>  <SMILES>  (19) 
Cc1cc([O-])c([N-]C(=O)C[N-]S(=O)(=O)c2ccccc2C(=O)[O-])cc1C

>  <Energy>  (19) 
51.48015169399693

>  <Genealogy>  (19) 
Cc1cc([O-])c([N-]C(=O)C[N-]S(=O)(=O)c2ccccc2C(=O)[O-])cc1C (protonated)
Cc1cc([O-])c([N-]C(=O)C[N-]S(=O)(=O)c2ccccc2C(=O)[O-])cc1C (3D coordinates assigned)
Cc1cc([O-])c([N-]C(=O)C[N-]S(=O)(=O)c2ccccc2C(=O)[O-])cc1C (optimized conformer: 51.48015169399693 kcal/mol)

>  <smiles>  (19) 
Cc1cc(O)c(NC(=O)CNS(=O)(=O)c2ccccc2C(=O)O)cc1C

>  <score_type>  (19) 
oracle

>  <origin>  (19) 
adg

>  <m_score__min__energy>  (19) 
-15.68

>  <m_primary>  (19) 
energy

$$$$
19:0
     RDKit          3D

 43 45  0  0  0  0  0  0  0  0999 V2000
   64.9910   32.8050   49.9760 C   0  0  0  0  0  0  0  0  0  0  0  0
   64.5150   32.8850   48.6370 O   0  0  0  0  0  0  0  0  0  0  0  0
   63.2370   33.3400   48.2770 C   0  0  0  0  0  0  0  0  0  0  0  0
   62.8140   33.4200   46.9370 C   0  0  0  0  0  0  0  0  0  0  0  0
   61.5320   33.8840   46.6290 C   0  0  0  0  0  0  0  0  0  0  0  0
   60.6510   34.2670   47.6520 C   0  0  0  0  0  0  0  0  0  0  0  0
   59.2980   34.8300   47.3160 C   0  0  0  0  0  0  0  0  0  0  0  0
   58.6500   33.9890   46.2630 C   0  0  0  0  0  0  0  0  0  0  0  0
   58.5050   34.3380   44.9240 C   0  0  0  0  0  0  0  0  0  0  0  0
   57.7550   33.4740   44.1920 N   0  0  0  0  0  0  0  0  0  0  0  0
   57.2930   32.4520   44.9490 C   0  0  0  0  0  0  0  0  0  0  0  0
   56.5390   31.4950   44.4980 N   0  0  0  0  0  0  0  0  0  0  0  0
   57.0110   30.2650   43.9260 C   0  0  0  0  0  0  0  0  0  0  0  0
   56.7980   30.0490   42.7030 O   0  0  0  0  0  0  0  0  0  0  0  0
   57.7890   29.2760   44.7130 C   0  0  0  0  0  0  0  0  0  0  0  0
   59.1210   29.5460   45.0680 C   0  0  0  0  0  0  0  0  0  0  0  0
   59.8570   28.6160   45.8070 C   0  0  0  0  0  0  0  0  0  0  0  0
   59.2730   27.4090   46.2000 C   0  0  0  0  0  0  0  0  0  0  0  0
   57.9420   27.1300   45.8620 C   0  0  0  0  0  0  0  0  0  0  0  0
   57.1950   25.6140   46.3530 S   0  0  0  0  0  0  0  0  0  0  0  0
   55.4940   25.6910   46.0590 N   0  0  0  0  0  0  0  0  0  0  0  0
   57.7910   24.4800   45.5650 O   0  0  0  0  0  0  0  0  0  0  0  0
   57.4440   25.3670   47.8150 O   0  0  0  0  0  0  0  0  0  0  0  0
   57.1990   28.0720   45.1400 C   0  0  0  0  0  0  0  0  0  0  0  0
   57.7980   32.5640   46.5470 S   0  0  0  0  0  0  0  0  0  0  0  0
   61.0780   34.1960   48.9880 C   0  0  0  0  0  0  0  0  0  0  0  0
   62.3590   33.7290   49.2950 C   0  0  0  0  0  0  0  0  0  0  0  0
   64.1515   32.9461   50.6726 H   0  0  0  0  0  0  0  0  0  0  0  0
   65.4458   31.8178   50.1451 H   0  0  0  0  0  0  0  0  0  0  0  0
   65.7436   33.5893   50.1451 H   0  0  0  0  0  0  0  0  0  0  0  0
   63.4953   33.1160   46.1286 H   0  0  0  0  0  0  0  0  0  0  0  0
   61.2118   33.9493   45.5787 H   0  0  0  0  0  0  0  0  0  0  0  0
   58.6693   34.8345   48.2186 H   0  0  0  0  0  0  0  0  0  0  0  0
   59.4137   35.8578   46.9415 H   0  0  0  0  0  0  0  0  0  0  0  0
   58.9612   35.2413   44.4927 H   0  0  0  0  0  0  0  0  0  0  0  0
   59.5871   30.4944   44.7627 H   0  0  0  0  0  0  0  0  0  0  0  0
   60.8998   28.8349   46.0803 H   0  0  0  0  0  0  0  0  0  0  0  0
   59.8587   26.6770   46.7754 H   0  0  0  0  0  0  0  0  0  0  0  0
   55.3660   26.1360   45.1230 H   0  0  0  0  0  0  0  0  0  0  0  0
   55.0910   26.3490   46.7630 H   0  0  0  0  0  0  0  0  0  0  0  0
   56.1439   27.8689   44.9043 H   0  0  0  0  0  0  0  0  0  0  0  0
   60.4011   34.5094   49.7965 H   0  0  0  0  0  0  0  0  0  0  0  0
   62.6797   33.6667   50.3454 H   0  0  0  0  0  0  0  0  0  0  0  0
  1  2  1  0
  2  3  1  0
  3  4  2  0
  4  5  1  0
  5  6  2  0
  6  7  1  0
  7  8  1  0
  8  9  2  0
  9 10  1  0
 10 11  1  0
 11 12  2  3
 12 13  1  0
 13 14  2  0
 13 15  1  0
 15 16  2  0
 16 17  1  0
 17 18  2  0
 18 19  1  0
 19 20  1  0
 20 21  1  0
 20 22  2  0
 20 23  2  0
 19 24  2  0
 11 25  1  0
  6 26  1  0
 26 27  2  0
 27  3  1  0
 25  8  1  0
 24 15  1  0
  1 28  1  0
  1 29  1  0
  1 30  1  0
  4 31  1  0
  5 32  1  0
  7 33  1  0
  7 34  1  0
  9 35  1  0
 16 36  1  0
 17 37  1  0
 18 38  1  0
 21 39  1  0
 21 40  1  0
 24 41  1  0
 26 42  1  0
 27 43  1  0
M  CHG  1  10  -1
M  END
>  <UniqueID>  (20) 
17

>  <SMILES>  (20) 
COc1ccc(Cc2c[n-]c(=NC(=O)c3cccc(S(N)(=O)=O)c3)s2)cc1

>  <Energy>  (20) 
78.0752946350629

>  <Genealogy>  (20) 
COc1ccc(Cc2c[n-]c(=NC(=O)c3cccc(S(N)(=O)=O)c3)s2)cc1 (protonated)
COc1ccc(Cc2c[n-]c(=NC(=O)c3cccc(S(N)(=O)=O)c3)s2)cc1 (3D coordinates assigned)
COc1ccc(Cc2c[n-]c(=NC(=O)c3cccc(S(N)(=O)=O)c3)s2)cc1 (optimized conformer: 78.0752946350629 kcal/mol)

>  <smiles>  (20) 
COc1ccc(Cc2c[nH]c(=NC(=O)c3cccc(S(N)(=O)=O)c3)s2)cc1

>  <score_type>  (20) 
oracle

>  <origin>  (20) 
adg

>  <m_score__min__energy>  (20) 
-11.210000000000001

>  <m_primary>  (20) 
energy

$$$$
20:0
     RDKit          3D

 51 53  0  0  0  0  0  0  0  0999 V2000
   55.4960   28.9610   44.8810 N   0  0  0  0  0  0  0  0  0  0  0  0
   56.6620   29.6260   43.7950 S   0  0  0  0  0  0  0  0  0  0  0  0
   57.6550   28.5660   43.4110 O   0  0  0  0  0  0  0  0  0  0  0  0
   55.9670   30.1120   42.5530 O   0  0  0  0  0  0  0  0  0  0  0  0
   57.4990   30.9600   44.5830 C   0  0  0  0  0  0  0  0  0  0  0  0
   57.7630   32.1360   43.8680 C   0  0  0  0  0  0  0  0  0  0  0  0
   58.4450   33.1910   44.4790 C   0  0  0  0  0  0  0  0  0  0  0  0
   58.8810   33.0720   45.8000 C   0  0  0  0  0  0  0  0  0  0  0  0
   58.6520   31.8870   46.5110 C   0  0  0  0  0  0  0  0  0  0  0  0
   59.1250   31.7690   47.8970 C   0  0  0  0  0  0  0  0  0  0  0  0
   58.7810   32.6600   48.7200 O   0  0  0  0  0  0  0  0  0  0  0  0
   59.9990   30.6940   48.3160 N   0  0  0  0  0  0  0  0  0  0  0  0
   61.4400   30.9650   48.4680 C   0  0  0  0  0  0  0  0  0  0  0  0
   62.1110   31.2730   47.1210 C   0  0  0  0  0  0  0  0  0  0  0  0
   62.3290   33.0740   46.8840 S   0  0  0  0  0  0  0  0  0  0  0  0
   63.0730   33.3770   48.4890 C   0  0  0  0  0  0  0  0  0  0  0  0
   62.4160   34.1820   49.4280 C   0  0  0  0  0  0  0  0  0  0  0  0
   63.0000   34.4170   50.6770 C   0  0  0  0  0  0  0  0  0  0  0  0
   64.2380   33.8460   50.9900 C   0  0  0  0  0  0  0  0  0  0  0  0
   64.8900   33.0350   50.0560 C   0  0  0  0  0  0  0  0  0  0  0  0
   64.3080   32.8000   48.8070 C   0  0  0  0  0  0  0  0  0  0  0  0
   59.4400   29.4340   48.8410 C   0  0  0  0  0  0  0  0  0  0  0  0
   59.3680   28.3730   47.7740 C   0  0  0  0  0  0  0  0  0  0  0  0
   60.5210   27.6780   47.3740 C   0  0  0  0  0  0  0  0  0  0  0  0
   60.4420   26.6820   46.3970 C   0  0  0  0  0  0  0  0  0  0  0  0
   59.2150   26.3810   45.8000 C   0  0  0  0  0  0  0  0  0  0  0  0
   58.0620   27.0850   46.1740 C   0  0  0  0  0  0  0  0  0  0  0  0
   56.8340   26.8010   45.5800 O   0  0  0  0  0  0  0  0  0  0  0  0
   58.1430   28.0820   47.1520 C   0  0  0  0  0  0  0  0  0  0  0  0
   57.9380   30.8410   45.9100 C   0  0  0  0  0  0  0  0  0  0  0  0
   54.5650   29.3500   44.6080 H   0  0  0  0  0  0  0  0  0  0  0  0
   57.4323   32.2286   42.8230 H   0  0  0  0  0  0  0  0  0  0  0  0
   58.6389   34.1173   43.9183 H   0  0  0  0  0  0  0  0  0  0  0  0
   59.4050   33.9099   46.2831 H   0  0  0  0  0  0  0  0  0  0  0  0
   61.5707   31.8291   49.1360 H   0  0  0  0  0  0  0  0  0  0  0  0
   61.9136   30.0646   48.8863 H   0  0  0  0  0  0  0  0  0  0  0  0
   63.0968   30.7858   47.0919 H   0  0  0  0  0  0  0  0  0  0  0  0
   61.4651   30.8923   46.3161 H   0  0  0  0  0  0  0  0  0  0  0  0
   61.4412   34.6292   49.1834 H   0  0  0  0  0  0  0  0  0  0  0  0
   62.4853   35.0513   51.4137 H   0  0  0  0  0  0  0  0  0  0  0  0
   64.6986   34.0350   51.9709 H   0  0  0  0  0  0  0  0  0  0  0  0
   65.8611   32.5818   50.3042 H   0  0  0  0  0  0  0  0  0  0  0  0
   64.8211   32.1610   48.0733 H   0  0  0  0  0  0  0  0  0  0  0  0
   60.0794   29.0737   49.6603 H   0  0  0  0  0  0  0  0  0  0  0  0
   58.4189   29.6328   49.1984 H   0  0  0  0  0  0  0  0  0  0  0  0
   61.4915   27.9190   47.8323 H   0  0  0  0  0  0  0  0  0  0  0  0
   61.3474   26.1339   46.0973 H   0  0  0  0  0  0  0  0  0  0  0  0
   59.1539   25.5915   45.0365 H   0  0  0  0  0  0  0  0  0  0  0  0
   56.5850   27.1770   44.6740 H   0  0  0  0  0  0  0  0  0  0  0  0
   57.2401   28.6424   47.4360 H   0  0  0  0  0  0  0  0  0  0  0  0
   57.7216   29.9254   46.4799 H   0  0  0  0  0  0  0  0  0  0  0  0
  1  2  1  0
  2  3  2  0
  2  4  2  0
  2  5  1  0
  5  6  2  0
  6  7  1  0
  7  8  2  0
  8  9  1  0
  9 10  1  0
 10 11  2  0
 10 12  1  0
 12 13  1  0
 13 14  1  0
 14 15  1  0
 15 16  1  0
 16 17  2  0
 17 18  1  0
 18 19  2  0
 19 20  1  0
 20 21  2  0
 12 22  1  0
 22 23  1  0
 23 24  2  0
 24 25  1  0
 25 26  2  0
 26 27  1  0
 27 28  1  0
 27 29  2  0
  9 30  2  0
 30  5  1  0
 21 16  1  0
 29 23  1  0
  1 31  1  0
  6 32  1  0
  7 33  1  0
  8 34  1  0
 13 35  1  0
 13 36  1  0
 14 37  1  0
 14 38  1  0
 17 39  1  0
 18 40  1  0
 19 41  1  0
 20 42  1  0
 21 43  1  0
 22 44  1  0
 22 45  1  0
 24 46  1  0
 25 47  1  0
 26 48  1  0
 28 49  1  0
 29 50  1  0
 30 51  1  0
M  CHG  1   1  -1
M  END
>  <UniqueID>  (21) 
18

>  <SMILES>  (21) 
[NH-]S(=O)(=O)c1cccc(C(=O)N(CCSc2ccccc2)Cc2cccc(O)c2)c1

>  <Energy>  (21) 
51.30510498914283

>  <Genealogy>  (21) 
[NH-]S(=O)(=O)c1cccc(C(=O)N(CCSc2ccccc2)Cc2cccc(O)c2)c1 (protonated)
[NH-]S(=O)(=O)c1cccc(C(=O)N(CCSc2ccccc2)Cc2cccc(O)c2)c1 (3D coordinates assigned)
[NH-]S(=O)(=O)c1cccc(C(=O)N(CCSc2ccccc2)Cc2cccc(O)c2)c1 (optimized conformer: 51.30510498914283 kcal/mol)

>  <smiles>  (21) 
NS(=O)(=O)c1cccc(C(=O)N(CCSc2ccccc2)Cc2cccc(O)c2)c1

>  <score_type>  (21) 
oracle

>  <origin>  (21) 
adg

>  <m_score__min__energy>  (21) 
-12.220000000000001

>  <m_primary>  (21) 
energy

$$$$
21:0
     RDKit          3D

 54 57  0  0  0  0  0  0  0  0999 V2000
   60.3930   31.4240   50.6210 O   0  0  0  0  0  0  0  0  0  0  0  0
   61.2650   30.8570   49.8950 C   0  0  0  0  0  0  0  0  0  0  0  0
   62.6480   31.0580   50.1950 N   0  0  0  0  0  0  0  0  0  0  0  0
   63.0990   31.8880   51.2950 C   0  0  0  0  0  0  0  0  0  0  0  0
   63.6430   33.2080   50.8200 C   0  0  0  0  0  0  0  0  0  0  0  0
   63.2140   33.4180   49.4130 C   0  0  0  0  0  0  0  0  0  0  0  0
   61.9630   33.9120   49.1310 C   0  0  0  0  0  0  0  0  0  0  0  0
   61.5710   34.1020   47.8110 C   0  0  0  0  0  0  0  0  0  0  0  0
   62.4010   33.8080   46.7510 C   0  0  0  0  0  0  0  0  0  0  0  0
   63.6690   33.3070   47.0360 C   0  0  0  0  0  0  0  0  0  0  0  0
   64.0730   33.1120   48.3560 C   0  0  0  0  0  0  0  0  0  0  0  0
   60.8610   30.0010   48.7540 C   0  0  0  0  0  0  0  0  0  0  0  0
   59.3800   29.7180   48.7420 C   0  0  0  0  0  0  0  0  0  0  0  0
   59.1370   28.7850   47.5480 C   0  0  0  0  0  0  0  0  0  0  0  0
   59.5730   29.3940   46.3520 N   0  0  0  0  0  0  0  0  0  0  0  0
   58.9540   29.0610   45.1380 C   0  0  0  0  0  0  0  0  0  0  0  0
   57.5470   29.3730   44.9510 C   0  0  0  0  0  0  0  0  0  0  0  0
   56.4360   28.5370   44.7910 C   0  0  0  0  0  0  0  0  0  0  0  0
   55.3280   29.2820   44.6410 N   0  0  0  0  0  0  0  0  0  0  0  0
   55.6990   30.5470   44.6990 N   0  0  0  0  0  0  0  0  0  0  0  0
   57.0200   30.6440   44.8850 C   0  0  0  0  0  0  0  0  0  0  0  0
   57.7250   31.9320   44.9860 C   0  0  0  0  0  0  0  0  0  0  0  0
   58.1540   32.7550   44.0470 C   0  0  0  0  0  0  0  0  0  0  0  0
   58.7880   33.8960   44.3890 C   0  0  0  0  0  0  0  0  0  0  0  0
   58.9460   34.1260   45.7410 C   0  0  0  0  0  0  0  0  0  0  0  0
   58.1610   32.6570   46.5720 S   0  0  0  0  0  0  0  0  0  0  0  0
   60.9370   29.8040   46.2820 C   0  0  0  0  0  0  0  0  0  0  0  0
   61.2300   30.7180   47.4610 C   0  0  0  0  0  0  0  0  0  0  0  0
   63.3270   30.5580   49.5600 H   0  0  0  0  0  0  0  0  0  0  0  0
   62.2504   32.0757   51.9692 H   0  0  0  0  0  0  0  0  0  0  0  0
   63.9089   31.3538   51.8133 H   0  0  0  0  0  0  0  0  0  0  0  0
   63.2519   34.0191   51.4518 H   0  0  0  0  0  0  0  0  0  0  0  0
   64.7412   33.2065   50.8821 H   0  0  0  0  0  0  0  0  0  0  0  0
   61.2714   34.1572   49.9505 H   0  0  0  0  0  0  0  0  0  0  0  0
   60.5661   34.4998   47.6060 H   0  0  0  0  0  0  0  0  0  0  0  0
   62.0726   33.9640   45.7128 H   0  0  0  0  0  0  0  0  0  0  0  0
   64.3571   33.0633   46.2131 H   0  0  0  0  0  0  0  0  0  0  0  0
   65.0766   32.7139   48.5663 H   0  0  0  0  0  0  0  0  0  0  0  0
   61.3842   29.0383   48.8512 H   0  0  0  0  0  0  0  0  0  0  0  0
   59.0772   29.2269   49.6786 H   0  0  0  0  0  0  0  0  0  0  0  0
   58.7936   30.6446   48.6550 H   0  0  0  0  0  0  0  0  0  0  0  0
   59.6924   27.8480   47.7011 H   0  0  0  0  0  0  0  0  0  0  0  0
   58.0596   28.5771   47.4707 H   0  0  0  0  0  0  0  0  0  0  0  0
   59.5071   29.5809   44.3419 H   0  0  0  0  0  0  0  0  0  0  0  0
   58.9826   27.9615   45.1225 H   0  0  0  0  0  0  0  0  0  0  0  0
   56.4655   27.4374   44.7884 H   0  0  0  0  0  0  0  0  0  0  0  0
   54.3490   28.9690   44.5010 H   0  0  0  0  0  0  0  0  0  0  0  0
   57.9947   32.5107   42.9864 H   0  0  0  0  0  0  0  0  0  0  0  0
   59.1583   34.6035   43.6325 H   0  0  0  0  0  0  0  0  0  0  0  0
   59.4300   34.9888   46.2220 H   0  0  0  0  0  0  0  0  0  0  0  0
   61.5920   28.9213   46.3257 H   0  0  0  0  0  0  0  0  0  0  0  0
   61.1209   30.3378   45.3380 H   0  0  0  0  0  0  0  0  0  0  0  0
   62.3004   30.9712   47.4732 H   0  0  0  0  0  0  0  0  0  0  0  0
   60.6394   31.6414   47.3687 H   0  0  0  0  0  0  0  0  0  0  0  0
  1  2  2  0
  2  3  1  0
  3  4  1  0
  4  5  1  0
  5  6  1  0
  6  7  2  0
  7  8  1  0
  8  9  2  0
  9 10  1  0
 10 11  2  0
  2 12  1  0
 12 13  1  0
 13 14  1  0
 14 15  1  0
 15 16  1  0
 16 17  1  0
 17 18  2  0
 18 19  1  0
 19 20  1  0
 20 21  2  0
 21 22  1  0
 22 23  2  0
 23 24  1  0
 24 25  2  0
 25 26  1  0
 15 27  1  0
 27 28  1  0
 11  6  1  0
 28 12  1  0
 21 17  1  0
 26 22  1  0
  3 29  1  0
  4 30  1  0
  4 31  1  0
  5 32  1  0
  5 33  1  0
  7 34  1  0
  8 35  1  0
  9 36  1  0
 10 37  1  0
 11 38  1  0
 12 39  1  0
 13 40  1  0
 13 41  1  0
 14 42  1  0
 14 43  1  0
 16 44  1  0
 16 45  1  0
 18 46  1  0
 19 47  1  0
 23 48  1  0
 24 49  1  0
 25 50  1  0
 27 51  1  0
 27 52  1  0
 28 53  1  0
 28 54  1  0
M  END
>  <smiles>  (22) 
O=C(NCCc1ccccc1)C1CCN(Cc2c[nH]nc2-c2cccs2)CC1

>  <score_type>  (22) 
oracle

>  <origin>  (22) 
adg

>  <m_score__min__energy>  (22) 
-9.3300000000000001

>  <m_primary>  (22) 
energy

$$$$
22:0
     RDKit          3D

 21 22  0  0  0  0  0  0  0  0999 V2000
   59.1840   23.1030   45.9790 O   0  0  0  0  0  0  0  0  0  0  0  0
   58.0950   23.5480   46.4290 C   0  0  0  0  0  0  0  0  0  0  0  0
   57.3860   22.7870   47.3500 O   0  0  0  0  0  0  0  0  0  0  0  0
   57.6230   24.8930   46.0330 C   0  0  0  0  0  0  0  0  0  0  0  0
   58.5650   25.8240   45.5620 C   0  0  0  0  0  0  0  0  0  0  0  0
   58.1840   27.1370   45.2480 C   0  0  0  0  0  0  0  0  0  0  0  0
   59.1360   28.0620   44.7910 C   0  0  0  0  0  0  0  0  0  0  0  0
   58.7530   29.3710   44.4880 C   0  0  0  0  0  0  0  0  0  0  0  0
   57.4230   29.7660   44.6380 C   0  0  0  0  0  0  0  0  0  0  0  0
   56.4620   28.8580   45.0920 C   0  0  0  0  0  0  0  0  0  0  0  0
   55.1430   29.2790   45.2320 O   0  0  0  0  0  0  0  0  0  0  0  0
   56.8350   27.5340   45.4020 C   0  0  0  0  0  0  0  0  0  0  0  0
   55.8910   26.5970   45.8530 C   0  0  0  0  0  0  0  0  0  0  0  0
   56.2660   25.2820   46.1470 C   0  0  0  0  0  0  0  0  0  0  0  0
   55.2580   24.3870   46.5120 O   0  0  0  0  0  0  0  0  0  0  0  0
   59.6146   25.5190   45.4380 H   0  0  0  0  0  0  0  0  0  0  0  0
   60.1856   27.7556   44.6712 H   0  0  0  0  0  0  0  0  0  0  0  0
   59.5022   30.0925   44.1301 H   0  0  0  0  0  0  0  0  0  0  0  0
   57.1290   30.7983   44.3975 H   0  0  0  0  0  0  0  0  0  0  0  0
   54.8413   26.9018   45.9768 H   0  0  0  0  0  0  0  0  0  0  0  0
   55.4400   23.4500   46.8440 H   0  0  0  0  0  0  0  0  0  0  0  0
  1  2  2  0
  2  3  1  0
  2  4  1  0
  4  5  2  0
  5  6  1  0
  6  7  2  0
  7  8  1  0
  8  9  2  0
  9 10  1  0
 10 11  1  0
 10 12  2  0
 12 13  1  0
 13 14  2  0
 14 15  1  0
 14  4  1  0
 12  6  1  0
  5 16  1  0
  7 17  1  0
  8 18  1  0
  9 19  1  0
 13 20  1  0
 15 21  1  0
M  CHG  2   3  -1  11  -1
M  END
>  <UniqueID>  (23) 
19

>  <SMILES>  (23) 
O=C([O-])c1cc2cccc([O-])c2cc1O

>  <Energy>  (23) 
31.640266558343924

>  <Genealogy>  (23) 
O=C([O-])c1cc2cccc([O-])c2cc1O (protonated)
O=C([O-])c1cc2cccc([O-])c2cc1O (3D coordinates assigned)
O=C([O-])c1cc2cccc([O-])c2cc1O (optimized conformer: 31.640266558343924 kcal/mol)

>  <smiles>  (23) 
O=C(O)c1cc2cccc(O)c2cc1O

>  <score_type>  (23) 
oracle

>  <origin>  (23) 
adg

>  <m_score__min__energy>  (23) 
-9.9399999999999995

>  <m_primary>  (23) 
energy

$$$$
23:0
     RDKit          3D

 48 49  0  0  0  0  0  0  0  0999 V2000
   56.1340   30.1670   43.1490 O   0  0  0  0  0  0  0  0  0  0  0  0
   56.4880   30.3940   44.3340 C   0  0  0  0  0  0  0  0  0  0  0  0
   56.6670   31.7540   44.7470 N   0  0  0  0  0  0  0  0  0  0  0  0
   57.5810   32.7020   44.1180 C   0  0  0  0  0  0  0  0  0  0  0  0
   57.5710   34.0260   44.8820 C   0  0  0  0  0  0  0  0  0  0  0  0
   58.4070   33.9430   46.1330 C   0  0  0  0  0  0  0  0  0  0  0  0
   58.0470   33.0680   47.1730 C   0  0  0  0  0  0  0  0  0  0  0  0
   58.8520   32.9580   48.3120 C   0  0  0  0  0  0  0  0  0  0  0  0
   60.0200   33.7180   48.4220 C   0  0  0  0  0  0  0  0  0  0  0  0
   60.3880   34.5880   47.3900 C   0  0  0  0  0  0  0  0  0  0  0  0
   59.5880   34.6990   46.2470 C   0  0  0  0  0  0  0  0  0  0  0  0
   56.6920   29.2630   45.2620 C   0  0  0  0  0  0  0  0  0  0  0  0
   55.8960   28.2880   45.2330 O   0  0  0  0  0  0  0  0  0  0  0  0
   57.7860   29.2230   46.1890 N   0  0  0  0  0  0  0  0  0  0  0  0
   58.5450   28.0360   46.5750 C   0  0  0  0  0  0  0  0  0  0  0  0
   58.7970   27.1110   45.3780 C   0  0  0  0  0  0  0  0  0  0  0  0
   57.9960   25.5250   45.5750 S   0  0  0  0  0  0  0  0  0  0  0  0
   59.0290   24.4740   45.8820 O   0  0  0  0  0  0  0  0  0  0  0  0
   57.2970   25.1720   44.2900 O   0  0  0  0  0  0  0  0  0  0  0  0
   56.8330   25.6180   46.8620 N   0  0  0  0  0  0  0  0  0  0  0  0
   56.5630   24.2820   47.3830 C   0  0  0  0  0  0  0  0  0  0  0  0
   55.3030   23.7470   46.7560 C   0  0  0  0  0  0  0  0  0  0  0  0
   54.9220   22.4150   47.0070 C   0  0  0  0  0  0  0  0  0  0  0  0
   53.7570   21.8910   46.4420 C   0  0  0  0  0  0  0  0  0  0  0  0
   52.9540   22.6910   45.6260 C   0  0  0  0  0  0  0  0  0  0  0  0
   51.7940   22.1700   45.0640 O   0  0  0  0  0  0  0  0  0  0  0  0
   53.3120   24.0190   45.3780 C   0  0  0  0  0  0  0  0  0  0  0  0
   54.4750   24.5590   45.9410 C   0  0  0  0  0  0  0  0  0  0  0  0
   54.7750   25.8980   45.6770 O   0  0  0  0  0  0  0  0  0  0  0  0
   58.5990   32.2854   44.1250 H   0  0  0  0  0  0  0  0  0  0  0  0
   57.2575   32.8813   43.0820 H   0  0  0  0  0  0  0  0  0  0  0  0
   57.9748   34.8171   44.2331 H   0  0  0  0  0  0  0  0  0  0  0  0
   56.5341   34.2516   45.1718 H   0  0  0  0  0  0  0  0  0  0  0  0
   57.1290   32.4676   47.0908 H   0  0  0  0  0  0  0  0  0  0  0  0
   58.5652   32.2720   49.1226 H   0  0  0  0  0  0  0  0  0  0  0  0
   60.6497   33.6320   49.3198 H   0  0  0  0  0  0  0  0  0  0  0  0
   61.3074   35.1856   47.4771 H   0  0  0  0  0  0  0  0  0  0  0  0
   59.8836   35.3797   45.4350 H   0  0  0  0  0  0  0  0  0  0  0  0
   59.5128   28.3515   46.9919 H   0  0  0  0  0  0  0  0  0  0  0  0
   57.9575   27.4803   47.3206 H   0  0  0  0  0  0  0  0  0  0  0  0
   58.4096   27.5937   44.4687 H   0  0  0  0  0  0  0  0  0  0  0  0
   59.8808   26.9370   45.3060 H   0  0  0  0  0  0  0  0  0  0  0  0
   57.4047   23.6165   47.1410 H   0  0  0  0  0  0  0  0  0  0  0  0
   56.4384   24.3312   48.4748 H   0  0  0  0  0  0  0  0  0  0  0  0
   55.5471   21.7816   47.6536 H   0  0  0  0  0  0  0  0  0  0  0  0
   53.4717   20.8472   46.6399 H   0  0  0  0  0  0  0  0  0  0  0  0
   52.6753   24.6450   44.7355 H   0  0  0  0  0  0  0  0  0  0  0  0
   55.6210   26.1920   45.2060 H   0  0  0  0  0  0  0  0  0  0  0  0
  1  2  2  0
  2  3  1  0
  3  4  1  0
  4  5  1  0
  5  6  1  0
  6  7  2  0
  7  8  1  0
  8  9  2  0
  9 10  1  0
 10 11  2  0
  2 12  1  0
 12 13  2  0
 12 14  1  0
 14 15  1  0
 15 16  1  0
 16 17  1  0
 17 18  2  0
 17 19  2  0
 17 20  1  0
 20 21  1  0
 21 22  1  0
 22 23  2  0
 23 24  1  0
 24 25  2  0
 25 26  1  0
 25 27  1  0
 27 28  2  0
 28 29  1  0
 11  6  1  0
 28 22  1  0
  4 30  1  0
  4 31  1  0
  5 32  1  0
  5 33  1  0
  7 34  1  0
  8 35  1  0
  9 36  1  0
 10 37  1  0
 11 38  1  0
 15 39  1  0
 15 40  1  0
 16 41  1  0
 16 42  1  0
 21 43  1  0
 21 44  1  0
 23 45  1  0
 24 46  1  0
 27 47  1  0
 29 48  1  0
M  CHG  4   3  -1  14  -1  20  -1  26  -1
M  END
>  <UniqueID>  (24) 
20

>  <SMILES>  (24) 
O=C([N-]CCc1ccccc1)C(=O)[N-]CCS(=O)(=O)[N-]Cc1ccc([O-])cc1O

>  <Energy>  (24) 
39.36970617127504

>  <Genealogy>  (24) 
O=C([N-]CCc1ccccc1)C(=O)[N-]CCS(=O)(=O)[N-]Cc1ccc([O-])cc1O (protonated)
O=C([N-]CCc1ccccc1)C(=O)[N-]CCS(=O)(=O)[N-]Cc1ccc([O-])cc1O (3D coordinates assigned)
O=C([N-]CCc1ccccc1)C(=O)[N-]CCS(=O)(=O)[N-]Cc1ccc([O-])cc1O (optimized conformer: 39.36970617127504 kcal/mol)

>  <smiles>  (24) 
O=C(NCCc1ccccc1)C(=O)NCCS(=O)(=O)NCc1ccc(O)cc1O

>  <score_type>  (24) 
oracle

>  <origin>  (24) 
adg

>  <m_score__min__energy>  (24) 
-14.1

>  <m_primary>  (24) 
energy

$$$$
24:0
     RDKit          3D

 35 37  0  0  0  0  0  0  0  0999 V2000
   56.7480   34.0630   45.3980 O   0  0  0  0  0  0  0  0  0  0  0  0
   57.8930   33.6120   45.1180 C   0  0  0  0  0  0  0  0  0  0  0  0
   59.0160   34.5710   44.8990 C   0  0  0  0  0  0  0  0  0  0  0  0
   59.6430   35.1700   46.5110 S   0  0  0  0  0  0  0  0  0  0  0  0
   60.0010   33.5290   47.1350 C   0  0  0  0  0  0  0  0  0  0  0  0
   61.0710   32.7950   46.7560 N   0  0  0  0  0  0  0  0  0  0  0  0
   61.0920   31.5830   47.3060 N   0  0  0  0  0  0  0  0  0  0  0  0
   60.0390   31.3610   48.1230 C   0  0  0  0  0  0  0  0  0  0  0  0
   59.8280   30.2490   48.7620 N   0  0  0  0  0  0  0  0  0  0  0  0
   60.0630   28.9340   48.2350 C   0  0  0  0  0  0  0  0  0  0  0  0
   60.8920   28.1920   48.8250 O   0  0  0  0  0  0  0  0  0  0  0  0
   59.2970   28.3950   47.0790 C   0  0  0  0  0  0  0  0  0  0  0  0
   59.8010   28.5300   45.7750 C   0  0  0  0  0  0  0  0  0  0  0  0
   59.1360   27.9470   44.6950 C   0  0  0  0  0  0  0  0  0  0  0  0
   57.9670   27.2130   44.9040 C   0  0  0  0  0  0  0  0  0  0  0  0
   57.4420   27.0620   46.1990 C   0  0  0  0  0  0  0  0  0  0  0  0
   56.2440   26.2960   46.4110 N   0  0  0  0  0  0  0  0  0  0  0  0
   55.1430   26.7100   45.9930 O   0  0  0  0  0  0  0  0  0  0  0  0
   56.2760   25.1360   47.1520 O   0  0  0  0  0  0  0  0  0  0  0  0
   58.1140   27.6630   47.2790 C   0  0  0  0  0  0  0  0  0  0  0  0
   59.0040   32.6850   48.1970 S   0  0  0  0  0  0  0  0  0  0  0  0
   58.1270   32.1990   44.9740 N   0  0  0  0  0  0  0  0  0  0  0  0
   57.3230   31.3110   44.4600 C   0  0  0  0  0  0  0  0  0  0  0  0
   56.6350   30.4410   45.2240 N   0  0  0  0  0  0  0  0  0  0  0  0
   55.8830   29.5920   44.4740 C   0  0  0  0  0  0  0  0  0  0  0  0
   55.9610   29.7850   43.1010 C   0  0  0  0  0  0  0  0  0  0  0  0
   57.0270   31.0520   42.8180 S   0  0  0  0  0  0  0  0  0  0  0  0
   59.8281   34.0647   44.3566 H   0  0  0  0  0  0  0  0  0  0  0  0
   58.6536   35.4262   44.3097 H   0  0  0  0  0  0  0  0  0  0  0  0
   60.7265   29.0993   45.6035 H   0  0  0  0  0  0  0  0  0  0  0  0
   59.5341   28.0662   43.6765 H   0  0  0  0  0  0  0  0  0  0  0  0
   57.4531   26.7495   44.0490 H   0  0  0  0  0  0  0  0  0  0  0  0
   57.7073   27.5584   48.2957 H   0  0  0  0  0  0  0  0  0  0  0  0
   55.2567   28.8072   44.9234 H   0  0  0  0  0  0  0  0  0  0  0  0
   55.4205   29.2101   42.3346 H   0  0  0  0  0  0  0  0  0  0  0  0
  1  2  2  0
  2  3  1  0
  3  4  1  0
  4  5  1  0
  5  6  2  0
  6  7  1  0
  7  8  1  0
  8  9  2  3
  9 10  1  0
 10 11  2  0
 10 12  1  0
 12 13  2  0
 13 14  1  0
 14 15  2  0
 15 16  1  0
 16 17  1  0
 17 18  2  0
 17 19  1  0
 16 20  2  0
  8 21  1  0
  2 22  1  0
 22 23  2  3
 23 24  1  0
 24 25  1  0
 25 26  2  0
 26 27  1  0
 21  5  1  0
 27 23  1  0
 20 12  1  0
  3 28  1  0
  3 29  1  0
 13 30  1  0
 14 31  1  0
 15 32  1  0
 20 33  1  0
 25 34  1  0
 26 35  1  0
M  CHG  4   7  -1  17   1  19  -1  24  -1
M  END
>  <UniqueID>  (25) 
21

>  <SMILES>  (25) 
O=C(CSc1n[n-]c(=NC(=O)c2cccc([N+](=O)[O-])c2)s1)N=c1[n-]ccs1

>  <Energy>  (25) 
108.54683260038361

>  <Genealogy>  (25) 
O=C(CSc1n[n-]c(=NC(=O)c2cccc([N+](=O)[O-])c2)s1)N=c1[n-]ccs1 (protonated)
O=C(CSc1n[n-]c(=NC(=O)c2cccc([N+](=O)[O-])c2)s1)N=c1[n-]ccs1 (3D coordinates assigned)
O=C(CSc1n[n-]c(=NC(=O)c2cccc([N+](=O)[O-])c2)s1)N=c1[n-]ccs1 (optimized conformer: 108.54683260038361 kcal/mol)

>  <smiles>  (25) 
O=C(CSc1n[nH]c(=NC(=O)c2cccc([N+](=O)[O-])c2)s1)N=c1[nH]ccs1

>  <score_type>  (25) 
oracle

>  <origin>  (25) 
adg

>  <m_score__min__energy>  (25) 
-12.69

>  <m_primary>  (25) 
energy

$$$$
25:0
     RDKit          3D

 45 47  0  0  0  0  0  0  0  0999 V2000
   59.5180   35.0190   45.7160 C   0  0  0  0  0  0  0  0  0  0  0  0
   58.9010   33.6840   45.9840 C   0  0  0  0  0  0  0  0  0  0  0  0
   59.2170   32.9790   47.1500 C   0  0  0  0  0  0  0  0  0  0  0  0
   58.6230   31.7310   47.3580 C   0  0  0  0  0  0  0  0  0  0  0  0
   58.9360   30.9370   48.5850 C   0  0  0  0  0  0  0  0  0  0  0  0
   57.7690   31.2300   46.4260 N   0  0  0  0  0  0  0  0  0  0  0  0
   57.4730   31.9240   45.2930 C   0  0  0  0  0  0  0  0  0  0  0  0
   56.6560   31.4410   44.4090 N   0  0  0  0  0  0  0  0  0  0  0  0
   56.3990   29.7430   44.1580 S   0  0  0  0  0  0  0  0  0  0  0  0
   55.1510   29.3290   44.8850 O   0  0  0  0  0  0  0  0  0  0  0  0
   56.2470   29.4920   42.6850 O   0  0  0  0  0  0  0  0  0  0  0  0
   57.7770   28.8170   44.7820 C   0  0  0  0  0  0  0  0  0  0  0  0
   59.0700   29.3450   44.6240 C   0  0  0  0  0  0  0  0  0  0  0  0
   60.1850   28.6580   45.1060 C   0  0  0  0  0  0  0  0  0  0  0  0
   60.0260   27.4350   45.7530 C   0  0  0  0  0  0  0  0  0  0  0  0
   58.7520   26.8940   45.9220 C   0  0  0  0  0  0  0  0  0  0  0  0
   57.6130   27.5710   45.4470 C   0  0  0  0  0  0  0  0  0  0  0  0
   56.2610   26.9220   45.6320 C   0  0  0  0  0  0  0  0  0  0  0  0
   56.2490   26.1000   46.8380 N   0  0  0  0  0  0  0  0  0  0  0  0
   56.7140   24.7450   46.8890 C   0  0  0  0  0  0  0  0  0  0  0  0
   57.2140   24.2950   47.9550 O   0  0  0  0  0  0  0  0  0  0  0  0
   56.6020   23.8770   45.6960 C   0  0  0  0  0  0  0  0  0  0  0  0
   57.7480   23.4460   45.0070 C   0  0  0  0  0  0  0  0  0  0  0  0
   57.6250   22.6210   43.8860 C   0  0  0  0  0  0  0  0  0  0  0  0
   56.3540   22.2330   43.4590 C   0  0  0  0  0  0  0  0  0  0  0  0
   56.2250   21.4910   42.4500 O   0  0  0  0  0  0  0  0  0  0  0  0
   55.2530   22.6550   44.1330 N   0  0  0  0  0  0  0  0  0  0  0  0
   55.3440   23.4550   45.2270 C   0  0  0  0  0  0  0  0  0  0  0  0
   58.0410   33.1410   45.0820 N   0  0  0  0  0  0  0  0  0  0  0  0
   59.7473   35.5152   46.6706 H   0  0  0  0  0  0  0  0  0  0  0  0
   60.4456   34.8853   45.1401 H   0  0  0  0  0  0  0  0  0  0  0  0
   58.8151   35.6389   45.1401 H   0  0  0  0  0  0  0  0  0  0  0  0
   59.9178   33.3977   47.8873 H   0  0  0  0  0  0  0  0  0  0  0  0
   58.7005   31.5343   49.4782 H   0  0  0  0  0  0  0  0  0  0  0  0
   58.3333   30.0168   48.5899 H   0  0  0  0  0  0  0  0  0  0  0  0
   60.0045   30.6756   48.5899 H   0  0  0  0  0  0  0  0  0  0  0  0
   59.2046   30.3106   44.1147 H   0  0  0  0  0  0  0  0  0  0  0  0
   61.1910   29.0831   44.9747 H   0  0  0  0  0  0  0  0  0  0  0  0
   60.9066   26.8951   46.1312 H   0  0  0  0  0  0  0  0  0  0  0  0
   58.6357   25.9267   46.4326 H   0  0  0  0  0  0  0  0  0  0  0  0
   55.4929   27.7045   45.7197 H   0  0  0  0  0  0  0  0  0  0  0  0
   56.0522   26.2811   44.7627 H   0  0  0  0  0  0  0  0  0  0  0  0
   58.7449   23.7589   45.3510 H   0  0  0  0  0  0  0  0  0  0  0  0
   58.5206   22.2808   43.3455 H   0  0  0  0  0  0  0  0  0  0  0  0
   54.4299   23.7746   45.7489 H   0  0  0  0  0  0  0  0  0  0  0  0
  1  2  1  0
  2  3  1  0
  3  4  2  0
  4  5  1  0
  4  6  1  0
  6  7  1  0
  7  8  2  3
  8  9  1  0
  9 10  2  0
  9 11  2  0
  9 12  1  0
 12 13  2  0
 13 14  1  0
 14 15  2  0
 15 16  1  0
 16 17  2  0
 17 18  1  0
 18 19  1  0
 19 20  1  0
 20 21  2  0
 20 22  1  0
 22 23  1  0
 23 24  2  0
 24 25  1  0
 25 26  2  0
 25 27  1  0
 27 28  1  0
  7 29  1  0
 29  2  2  0
 17 12  1  0
 28 22  2  0
  1 30  1  0
  1 31  1  0
  1 32  1  0
  3 33  1  0
  5 34  1  0
  5 35  1  0
  5 36  1  0
 13 37  1  0
 14 38  1  0
 15 39  1  0
 16 40  1  0
 18 41  1  0
 18 42  1  0
 23 43  1  0
 24 44  1  0
 28 45  1  0
M  CHG  3   6  -1  19  -1  27  -1
M  END
>  <UniqueID>  (26) 
22

>  <SMILES>  (26) 
Cc1cc(C)[n-]c(=NS(=O)(=O)c2ccccc2C[N-]C(=O)c2ccc(=O)[n-]c2)n1

>  <Energy>  (26) 
51.13638910994888

>  <Genealogy>  (26) 
Cc1cc(C)[n-]c(=NS(=O)(=O)c2ccccc2C[N-]C(=O)c2ccc(=O)[n-]c2)n1 (protonated)
Cc1cc(C)[n-]c(=NS(=O)(=O)c2ccccc2C[N-]C(=O)c2ccc(=O)[n-]c2)n1 (3D coordinates assigned)
Cc1cc(C)[n-]c(=NS(=O)(=O)c2ccccc2C[N-]C(=O)c2ccc(=O)[n-]c2)n1 (optimized conformer: 51.13638910994888 kcal/mol)

>  <smiles>  (26) 
Cc1cc(C)[nH]c(=NS(=O)(=O)c2ccccc2CNC(=O)c2ccc(=O)[nH]c2)n1

>  <score_type>  (26) 
oracle

>  <origin>  (26) 
adg

>  <m_score__min__energy>  (26) 
-14.199999999999999

>  <m_primary>  (26) 
energy

$$$$
26:0
     RDKit          3D

 52 55  0  0  0  0  0  0  0  0999 V2000
   54.1610   27.0600   46.4590 H   0  0  0  0  0  0  0  0  0  0  0  0
   54.7690   26.3530   45.9860 N   0  0  0  0  0  0  0  0  0  0  0  0
   56.0040   26.1600   46.3240 C   0  0  0  0  0  0  0  0  0  0  0  0
   56.3840   24.9430   46.7950 N   0  0  0  0  0  0  0  0  0  0  0  0
   57.6650   24.6870   47.1680 C   0  0  0  0  0  0  0  0  0  0  0  0
   57.9372   23.6916   47.5488 H   0  0  0  0  0  0  0  0  0  0  0  0
   58.6370   25.6850   47.0690 C   0  0  0  0  0  0  0  0  0  0  0  0
   59.6725   25.4822   47.3797 H   0  0  0  0  0  0  0  0  0  0  0  0
   58.2840   26.9470   46.5710 C   0  0  0  0  0  0  0  0  0  0  0  0
   59.2860   28.0310   46.4740 C   0  0  0  0  0  0  0  0  0  0  0  0
   60.0550   28.3320   45.3600 C   0  0  0  0  0  0  0  0  0  0  0  0
   60.0228   27.7871   44.4050 H   0  0  0  0  0  0  0  0  0  0  0  0
   60.8510   29.3950   45.6210 N   0  0  0  0  0  0  0  0  0  0  0  0
   60.5500   29.7080   46.8990 C   0  0  0  0  0  0  0  0  0  0  0  0
   61.1280   30.7260   47.6570 C   0  0  0  0  0  0  0  0  0  0  0  0
   62.0320   31.5080   47.1360 N   0  0  0  0  0  0  0  0  0  0  0  0
   62.1170   32.9690   47.2490 C   0  0  0  0  0  0  0  0  0  0  0  0
   61.9490   33.2254   48.3054 H   0  0  0  0  0  0  0  0  0  0  0  0
   61.0160   33.6650   46.4380 C   0  0  0  0  0  0  0  0  0  0  0  0
   60.2896   34.1242   47.1246 H   0  0  0  0  0  0  0  0  0  0  0  0
   61.4645   34.4440   45.8040 H   0  0  0  0  0  0  0  0  0  0  0  0
   60.5047   32.9257   45.8040 H   0  0  0  0  0  0  0  0  0  0  0  0
   63.5120   33.4840   46.8780 C   0  0  0  0  0  0  0  0  0  0  0  0
   64.0813   33.6942   47.7955 H   0  0  0  0  0  0  0  0  0  0  0  0
   64.0390   32.7212   46.2861 H   0  0  0  0  0  0  0  0  0  0  0  0
   63.4169   34.4063   46.2861 H   0  0  0  0  0  0  0  0  0  0  0  0
   60.7230   30.8620   48.9530 N   0  0  0  0  0  0  0  0  0  0  0  0
   59.7920   30.0340   49.5160 C   0  0  0  0  0  0  0  0  0  0  0  0
   59.4190   30.2040   50.9640 C   0  0  0  0  0  0  0  0  0  0  0  0
   59.0434   29.2448   51.3498 H   0  0  0  0  0  0  0  0  0  0  0  0
   60.3163   30.5269   51.5123 H   0  0  0  0  0  0  0  0  0  0  0  0
   58.3700   31.2390   51.1460 N   0  0  1  0  0  0  0  0  0  0  0  0
   57.4310   30.7790   51.1960 H   0  0  0  0  0  0  0  0  0  0  0  0
   58.5930   32.0570   52.3500 C   0  0  0  0  0  0  0  0  0  0  0  0
   57.6312   32.4217   52.7399 H   0  0  0  0  0  0  0  0  0  0  0  0
   59.0792   31.4630   53.1379 H   0  0  0  0  0  0  0  0  0  0  0  0
   59.4690   33.2320   51.9470 C   0  0  0  0  0  0  0  0  0  0  0  0
   59.1547   34.1455   52.4730 H   0  0  0  0  0  0  0  0  0  0  0  0
   60.5251   33.0645   52.2049 H   0  0  0  0  0  0  0  0  0  0  0  0
   59.2670   33.3850   50.4410 C   0  0  1  0  0  0  0  0  0  0  0  0
   58.8052   34.3500   50.1849 H   0  0  0  0  0  0  0  0  0  0  0  0
   60.5500   33.3430   49.7370 N   0  0  0  0  0  0  0  0  0  0  0  0
   61.1480   32.6170   50.1930 H   0  0  0  0  0  0  0  0  0  0  0  0
   60.3740   33.0010   48.7650 H   0  0  0  0  0  0  0  0  0  0  0  0
   58.3820   32.2030   50.0330 C   0  0  0  0  0  0  0  0  0  0  0  0
   57.3591   32.5542   49.8321 H   0  0  0  0  0  0  0  0  0  0  0  0
   58.7735   31.7291   49.1208 H   0  0  0  0  0  0  0  0  0  0  0  0
   59.2240   29.0090   48.7380 C   0  0  0  0  0  0  0  0  0  0  0  0
   58.4852   28.3144   49.1643 H   0  0  0  0  0  0  0  0  0  0  0  0
   59.6190   28.9060   47.4420 N   0  0  0  0  0  0  0  0  0  0  0  0
   56.9510   27.1900   46.2100 C   0  0  0  0  0  0  0  0  0  0  0  0
   56.6494   28.1810   45.8400 H   0  0  0  0  0  0  0  0  0  0  0  0
  1  2  1  0
  2  3  2  0
  3  4  1  0
  4  5  1  0
  5  6  1  0
  5  7  2  0
  7  8  1  0
  7  9  1  0
  9 10  1  0
 10 11  2  0
 11 12  1  0
 11 13  1  0
 13 14  2  0
 14 15  1  0
 15 16  2  0
 16 17  1  0
 17 18  1  0
 17 19  1  0
 19 20  1  0
 19 21  1  0
 19 22  1  0
 17 23  1  0
 23 24  1  0
 23 25  1  0
 23 26  1  0
 15 27  1  0
 27 28  1  0
 28 29  1  0
 29 30  1  0
 29 31  1  0
 29 32  1  0
 32 33  1  1
 32 34  1  0
 34 35  1  0
 34 36  1  0
 34 37  1  0
 37 38  1  0
 37 39  1  0
 37 40  1  0
 40 41  1  1
 40 42  1  0
 42 43  1  0
 42 44  1  0
 40 45  1  0
 45 46  1  0
 45 47  1  0
 28 48  2  0
 48 49  1  0
 48 50  1  0
  9 51  2  0
 51 52  1  0
 51  3  1  0
 50 10  1  0
 50 14  1  0
 45 32  1  0
M  CHG  3   4  -1  27  -1  32   1
M  END
>  <UniqueID>  (27) 
23

>  <SMILES>  (27) 
[H]/N=c1\cc(-c2cnc3/c(=N/C(C)C)[n-]c(C[N@H+]4CC[C@@H](N)C4)cn23)cc[n-]1

>  <Energy>  (27) 
97.56625429481979

>  <Genealogy>  (27) 
CC(C)N=c1[n-]c(C[NH+]2CCC(N)C2)cn2c(-c3cc[n-]c(=N)c3)cnc12 (protonated)
CC(C)N=c1[n-]c(C[N@H+]2CC[C@@H](N)C2)cn2c(-c3cc[n-]c(=N)c3)cnc12 (chirality)
[H]/N=c1\cc(-c2cnc3/c(=N/C(C)C)[n-]c(C[N@H+]4CC[C@@H](N)C4)cn23)cc[n-]1 (cis-trans isomerization)
[H]/N=c1\cc(-c2cnc3/c(=N/C(C)C)[n-]c(C[N@H+]4CC[C@@H](N)C4)cn23)cc[n-]1 (3D coordinates assigned)
[H]/N=c1\cc(-c2cnc3/c(=N/C(C)C)[n-]c(C[N@H+]4CC[C@@H](N)C4)cn23)cc[n-]1 (nonaromatic ring conformer: 97.56625429481979 kcal/mol)

>  <smiles>  (27) 
CC(C)N=c1[nH]c(CN2CCC(N)C2)cn2c(-c3cc[nH]c(=N)c3)cnc12

>  <score_type>  (27) 
oracle

>  <origin>  (27) 
adg

>  <m_score__min__energy>  (27) 
-9.5

>  <m_primary>  (27) 
energy

$$$$
27:0
     RDKit          3D

 77 81  0  0  0  0  0  0  0  0999 V2000
   60.1540   28.9200   45.9920 C   0  0  0  0  0  0  0  0  0  0  0  0
   58.6630   28.8670   46.1600 C   0  0  0  0  0  0  0  0  0  0  0  0
   58.1970   28.2300   47.1450 O   0  0  0  0  0  0  0  0  0  0  0  0
   57.7790   29.6100   45.2850 N   0  0  0  0  0  0  0  0  0  0  0  0
   57.0300   28.8530   44.2600 C   0  0  0  0  0  0  0  0  0  0  0  0
   56.2250   29.7600   43.3210 C   0  0  0  0  0  0  0  0  0  0  0  0
   57.0920   30.9140   42.8200 C   0  0  0  0  0  0  0  0  0  0  0  0
   57.5790   31.7130   43.9940 C   0  0  0  0  0  0  0  0  0  0  0  0
   57.7520   33.0980   43.8860 C   0  0  0  0  0  0  0  0  0  0  0  0
   58.1650   33.8490   44.9910 C   0  0  0  0  0  0  0  0  0  0  0  0
   58.3690   33.2210   46.2250 C   0  0  0  0  0  0  0  0  0  0  0  0
   58.7430   33.9270   47.3720 O   0  0  0  0  0  0  0  0  0  0  0  0
   59.7510   34.9300   47.4170 C   0  0  0  0  0  0  0  0  0  0  0  0
   61.0510   34.2420   47.7380 C   0  0  0  0  0  0  0  0  0  0  0  0
   61.6020   33.3560   46.8030 C   0  0  0  0  0  0  0  0  0  0  0  0
   62.7260   32.5980   47.1230 C   0  0  0  0  0  0  0  0  0  0  0  0
   63.3100   32.7130   48.3840 C   0  0  0  0  0  0  0  0  0  0  0  0
   62.7990   33.6260   49.3340 C   0  0  0  0  0  0  0  0  0  0  0  0
   63.4290   33.7810   50.7100 C   0  0  0  0  0  0  0  0  0  0  0  0
   62.8930   32.7800   51.6700 N   0  0  0  0  0  0  0  0  0  0  0  0
   63.6610   32.5890   52.9320 C   0  0  0  0  0  0  0  0  0  0  0  0
   64.7400   31.4750   52.9070 C   0  0  0  0  0  0  0  0  0  0  0  0
   64.8320   30.8140   51.5760 N   0  0  0  0  0  0  0  0  0  0  0  0
   66.0280   31.2560   50.8360 C   0  0  0  0  0  0  0  0  0  0  0  0
   67.1420   30.2550   51.1170 C   0  0  0  0  0  0  0  0  0  0  0  0
   66.4600   29.0210   51.6730 C   0  0  0  0  0  0  0  0  0  0  0  0
   64.9760   29.3490   51.7000 C   0  0  0  0  0  0  0  0  0  0  0  0
   61.4590   32.9840   51.9630 C   0  0  0  0  0  0  0  0  0  0  0  0
   60.5940   32.1480   51.0500 C   0  0  0  0  0  0  0  0  0  0  0  0
   59.3150   32.5990   50.6760 C   0  0  0  0  0  0  0  0  0  0  0  0
   58.5080   31.8200   49.8400 C   0  0  0  0  0  0  0  0  0  0  0  0
   58.9760   30.5980   49.3550 C   0  0  0  0  0  0  0  0  0  0  0  0
   60.2530   30.1530   49.7040 C   0  0  0  0  0  0  0  0  0  0  0  0
   61.0610   30.9250   50.5440 C   0  0  0  0  0  0  0  0  0  0  0  0
   61.6530   34.3750   49.0030 C   0  0  0  0  0  0  0  0  0  0  0  0
   58.2080   31.8330   46.3330 C   0  0  0  0  0  0  0  0  0  0  0  0
   57.8690   31.0540   45.2080 C   0  0  0  0  0  0  0  0  0  0  0  0
   60.6341   28.9371   46.9816 H   0  0  0  0  0  0  0  0  0  0  0  0
   60.4921   28.0333   45.4357 H   0  0  0  0  0  0  0  0  0  0  0  0
   60.4282   29.8285   45.4357 H   0  0  0  0  0  0  0  0  0  0  0  0
   57.7455   28.2721   43.6595 H   0  0  0  0  0  0  0  0  0  0  0  0
   56.3152   28.2025   44.7853 H   0  0  0  0  0  0  0  0  0  0  0  0
   55.8742   29.1707   42.4610 H   0  0  0  0  0  0  0  0  0  0  0  0
   55.3673   30.1723   43.8727 H   0  0  0  0  0  0  0  0  0  0  0  0
   57.9532   30.5130   42.2655 H   0  0  0  0  0  0  0  0  0  0  0  0
   56.4992   31.5592   42.1549 H   0  0  0  0  0  0  0  0  0  0  0  0
   57.5618   33.5990   42.9254 H   0  0  0  0  0  0  0  0  0  0  0  0
   58.3293   34.9320   44.8904 H   0  0  0  0  0  0  0  0  0  0  0  0
   59.8230   35.4357   46.4428 H   0  0  0  0  0  0  0  0  0  0  0  0
   59.5129   35.6884   48.1773 H   0  0  0  0  0  0  0  0  0  0  0  0
   61.1433   33.2581   45.8080 H   0  0  0  0  0  0  0  0  0  0  0  0
   63.1533   31.9081   46.3803 H   0  0  0  0  0  0  0  0  0  0  0  0
   64.1769   32.0869   48.6418 H   0  0  0  0  0  0  0  0  0  0  0  0
   64.5171   33.6454   50.6224 H   0  0  0  0  0  0  0  0  0  0  0  0
   63.1891   34.7856   51.0885 H   0  0  0  0  0  0  0  0  0  0  0  0
   64.1629   33.5389   53.1680 H   0  0  0  0  0  0  0  0  0  0  0  0
   62.9234   32.2719   53.6839 H   0  0  0  0  0  0  0  0  0  0  0  0
   65.7158   31.9209   53.1498 H   0  0  0  0  0  0  0  0  0  0  0  0
   64.4553   30.7111   53.6456 H   0  0  0  0  0  0  0  0  0  0  0  0
   63.9680   31.0180   51.0160 H   0  0  0  0  0  0  0  0  0  0  0  0
   65.8125   31.2839   49.7577 H   0  0  0  0  0  0  0  0  0  0  0  0
   66.3273   32.2654   51.1546 H   0  0  0  0  0  0  0  0  0  0  0  0
   67.6794   30.0100   50.1890 H   0  0  0  0  0  0  0  0  0  0  0  0
   67.8815   30.6609   51.8230 H   0  0  0  0  0  0  0  0  0  0  0  0
   66.6493   28.1529   51.0244 H   0  0  0  0  0  0  0  0  0  0  0  0
   66.8376   28.7642   52.6737 H   0  0  0  0  0  0  0  0  0  0  0  0
   64.4680   28.8512   50.8609 H   0  0  0  0  0  0  0  0  0  0  0  0
   64.5232   28.9978   52.6389 H   0  0  0  0  0  0  0  0  0  0  0  0
   61.2612   32.6981   53.0066 H   0  0  0  0  0  0  0  0  0  0  0  0
   61.2163   34.0445   51.8004 H   0  0  0  0  0  0  0  0  0  0  0  0
   58.9477   33.5689   51.0427 H   0  0  0  0  0  0  0  0  0  0  0  0
   57.5027   32.1713   49.5644 H   0  0  0  0  0  0  0  0  0  0  0  0
   58.3399   29.9860   48.6986 H   0  0  0  0  0  0  0  0  0  0  0  0
   60.6240   29.1925   49.3169 H   0  0  0  0  0  0  0  0  0  0  0  0
   62.0683   30.5720   50.8098 H   0  0  0  0  0  0  0  0  0  0  0  0
   61.2247   35.0702   49.7400 H   0  0  0  0  0  0  0  0  0  0  0  0
   58.3480   31.3448   47.3087 H   0  0  0  0  0  0  0  0  0  0  0  0
  1  2  1  0
  2  3  2  0
  2  4  1  0
  4  5  1  0
  5  6  1  0
  6  7  1  0
  7  8  1  0
  8  9  2  0
  9 10  1  0
 10 11  2  0
 11 12  1  0
 12 13  1  0
 13 14  1  0
 14 15  2  0
 15 16  1  0
 16 17  2  0
 17 18  1  0
 18 19  1  0
 19 20  1  0
 20 21  1  0
 21 22  1  0
 22 23  1  0
 23 24  1  0
 24 25  1  0
 25 26  1  0
 26 27  1  0
 20 28  1  0
 28 29  1  0
 29 30  2  0
 30 31  1  0
 31 32  2  0
 32 33  1  0
 33 34  2  0
 18 35  2  0
 11 36  1  0
 36 37  2  0
 37  4  1  0
 37  8  1  0
 35 14  1  0
 27 23  1  0
 34 29  1  0
  1 38  1  0
  1 39  1  0
  1 40  1  0
  5 41  1  0
  5 42  1  0
  6 43  1  0
  6 44  1  0
  7 45  1  0
  7 46  1  0
  9 47  1  0
 10 48  1  0
 13 49  1  0
 13 50  1  0
 15 51  1  0
 16 52  1  0
 17 53  1  0
 19 54  1  0
 19 55  1  0
 21 56  1  0
 21 57  1  0
 22 58  1  0
 22 59  1  0
 23 60  1  0
 24 61  1  0
 24 62  1  0
 25 63  1  0
 25 64  1  0
 26 65  1  0
 26 66  1  0
 27 67  1  0
 27 68  1  0
 28 69  1  0
 28 70  1  0
 30 71  1  0
 31 72  1  0
 32 73  1  0
 33 74  1  0
 34 75  1  0
 35 76  1  0
 36 77  1  0
M  CHG  1  23   1
M  END
>  <UniqueID>  (28) 
24

>  <SMILES>  (28) 
CC(=O)N1CCCc2ccc(OCc3cccc(CN(CC[NH+]4CCCC4)Cc4ccccc4)c3)cc21

>  <Energy>  (28) 
104.55326476404427

>  <Genealogy>  (28) 
CC(=O)N1CCCc2ccc(OCc3cccc(CN(CC[NH+]4CCCC4)Cc4ccccc4)c3)cc21 (protonated)
CC(=O)N1CCCc2ccc(OCc3cccc(CN(CC[NH+]4CCCC4)Cc4ccccc4)c3)cc21 (3D coordinates assigned)
CC(=O)N1CCCc2ccc(OCc3cccc(CN(CC[NH+]4CCCC4)Cc4ccccc4)c3)cc21 (nonaromatic ring conformer: 104.55326476404427 kcal/mol)

>  <smiles>  (28) 
CC(=O)N1CCCc2ccc(OCc3cccc(CN(CCN4CCCC4)Cc4ccccc4)c3)cc21

>  <score_type>  (28) 
oracle

>  <origin>  (28) 
adg

>  <m_score__min__energy>  (28) 
-8.9499999999999993

>  <m_primary>  (28) 
energy

$$$$
28:0
     RDKit          3D

 48 51  0  0  0  0  0  0  0  0999 V2000
   56.1050   23.1160   46.2410 C   0  0  0  0  0  0  0  0  0  0  0  0
   56.3200   24.2230   47.1120 O   0  0  0  0  0  0  0  0  0  0  0  0
   56.6530   25.5150   46.6790 C   0  0  0  0  0  0  0  0  0  0  0  0
   57.9300   26.0700   46.8520 C   0  0  0  0  0  0  0  0  0  0  0  0
   58.1900   27.3260   46.4100 N   0  0  0  0  0  0  0  0  0  0  0  0
   57.2350   28.0750   45.7950 C   0  0  0  0  0  0  0  0  0  0  0  0
   57.5440   29.4470   45.3200 C   0  0  0  0  0  0  0  0  0  0  0  0
   57.2550   29.8280   44.0000 C   0  0  0  0  0  0  0  0  0  0  0  0
   57.5530   31.1230   43.5720 C   0  0  0  0  0  0  0  0  0  0  0  0
   58.1230   32.0150   44.4250 N   0  0  0  0  0  0  0  0  0  0  0  0
   58.4250   31.6800   45.7130 C   0  0  0  0  0  0  0  0  0  0  0  0
   59.0240   32.6520   46.5910 N   0  0  0  0  0  0  0  0  0  0  0  0
   58.6500   32.7020   48.0100 C   0  0  0  0  0  0  0  0  0  0  0  0
   59.9040   32.5700   48.8770 C   0  0  0  0  0  0  0  0  0  0  0  0
   60.9870   33.4270   48.3760 N   0  0  0  0  0  0  0  0  0  0  0  0
   62.2080   33.5190   49.1240 C   0  0  0  0  0  0  0  0  0  0  0  0
   62.2250   34.2020   50.3490 C   0  0  0  0  0  0  0  0  0  0  0  0
   63.4100   34.3020   51.0820 C   0  0  0  0  0  0  0  0  0  0  0  0
   64.5840   33.7200   50.5980 C   0  0  0  0  0  0  0  0  0  0  0  0
   64.5750   33.0340   49.3810 C   0  0  0  0  0  0  0  0  0  0  0  0
   63.3910   32.9290   48.6390 C   0  0  0  0  0  0  0  0  0  0  0  0
   63.4060   32.0320   47.1280 Cl  0  0  0  0  0  0  0  0  0  0  0  0
   60.7770   34.3050   47.2180 C   0  0  0  0  0  0  0  0  0  0  0  0
   60.0880   33.5330   46.0840 C   0  0  0  0  0  0  0  0  0  0  0  0
   58.1340   30.3890   46.1790 C   0  0  0  0  0  0  0  0  0  0  0  0
   55.9910   27.5500   45.6190 N   0  0  0  0  0  0  0  0  0  0  0  0
   55.6820   26.2980   46.0440 C   0  0  0  0  0  0  0  0  0  0  0  0
   54.5210   25.8480   45.8640 O   0  0  0  0  0  0  0  0  0  0  0  0
   55.9288   22.2088   46.8376 H   0  0  0  0  0  0  0  0  0  0  0  0
   55.2284   23.3135   45.6065 H   0  0  0  0  0  0  0  0  0  0  0  0
   56.9918   22.9711   45.6065 H   0  0  0  0  0  0  0  0  0  0  0  0
   58.7207   25.4864   47.3462 H   0  0  0  0  0  0  0  0  0  0  0  0
   56.7956   29.1090   43.3058 H   0  0  0  0  0  0  0  0  0  0  0  0
   57.3253   31.4234   42.5386 H   0  0  0  0  0  0  0  0  0  0  0  0
   58.3090   32.9820   44.0790 H   0  0  0  0  0  0  0  0  0  0  0  0
   58.1559   33.6611   48.2247 H   0  0  0  0  0  0  0  0  0  0  0  0
   57.9616   31.8742   48.2354 H   0  0  0  0  0  0  0  0  0  0  0  0
   59.6603   32.8652   49.9082 H   0  0  0  0  0  0  0  0  0  0  0  0
   60.2428   31.5240   48.8437 H   0  0  0  0  0  0  0  0  0  0  0  0
   61.3021   34.6604   50.7338 H   0  0  0  0  0  0  0  0  0  0  0  0
   63.4186   34.8397   52.0416 H   0  0  0  0  0  0  0  0  0  0  0  0
   65.5165   33.8019   51.1757 H   0  0  0  0  0  0  0  0  0  0  0  0
   65.5006   32.5747   49.0039 H   0  0  0  0  0  0  0  0  0  0  0  0
   60.1443   35.1540   47.5160 H   0  0  0  0  0  0  0  0  0  0  0  0
   61.7523   34.6692   46.8628 H   0  0  0  0  0  0  0  0  0  0  0  0
   59.6480   34.2534   45.3788 H   0  0  0  0  0  0  0  0  0  0  0  0
   60.8439   32.9062   45.5883 H   0  0  0  0  0  0  0  0  0  0  0  0
   58.3681   30.1142   47.2181 H   0  0  0  0  0  0  0  0  0  0  0  0
  1  2  1  0
  2  3  1  0
  3  4  2  0
  4  5  1  0
  5  6  1  0
  6  7  1  0
  7  8  2  0
  8  9  1  0
  9 10  2  0
 10 11  1  0
 11 12  1  0
 12 13  1  0
 13 14  1  0
 14 15  1  0
 15 16  1  0
 16 17  2  0
 17 18  1  0
 18 19  2  0
 19 20  1  0
 20 21  2  0
 21 22  1  0
 15 23  1  0
 23 24  1  0
 11 25  2  0
  6 26  2  0
 26 27  1  0
 27 28  2  0
 27  3  1  0
 25  7  1  0
 24 12  1  0
 21 16  1  0
  1 29  1  0
  1 30  1  0
  1 31  1  0
  4 32  1  0
  8 33  1  0
  9 34  1  0
 10 35  1  0
 13 36  1  0
 13 37  1  0
 14 38  1  0
 14 39  1  0
 17 40  1  0
 18 41  1  0
 19 42  1  0
 20 43  1  0
 23 44  1  0
 23 45  1  0
 24 46  1  0
 24 47  1  0
 25 48  1  0
M  CHG  2   5  -1  10   1
M  END
>  <UniqueID>  (29) 
25

>  <SMILES>  (29) 
COc1c[n-]c(-c2cc[nH+]c(N3CCN(c4ccccc4Cl)CC3)c2)nc1=O

>  <Energy>  (29) 
63.57278203495276

>  <Genealogy>  (29) 
COc1c[n-]c(-c2cc[nH+]c(N3CCN(c4ccccc4Cl)CC3)c2)nc1=O (protonated)
COc1c[n-]c(-c2cc[nH+]c(N3CCN(c4ccccc4Cl)CC3)c2)nc1=O (3D coordinates assigned)
COc1c[n-]c(-c2cc[nH+]c(N3CCN(c4ccccc4Cl)CC3)c2)nc1=O (nonaromatic ring conformer: 63.57278203495276 kcal/mol)

>  <smiles>  (29) 
COc1c[nH]c(-c2ccnc(N3CCN(c4ccccc4Cl)CC3)c2)nc1=O

>  <score_type>  (29) 
oracle

>  <origin>  (29) 
adg

>  <m_score__min__energy>  (29) 
-8.3300000000000001

>  <m_primary>  (29) 
energy

$$$$
29:0
     RDKit          3D

 46 49  0  0  0  0  0  0  0  0999 V2000
   59.2330   34.5510   45.6650 C   0  0  0  0  0  0  0  0  0  0  0  0
   58.8050   33.9620   44.4430 O   0  0  0  0  0  0  0  0  0  0  0  0
   58.3080   32.6560   44.3260 C   0  0  0  0  0  0  0  0  0  0  0  0
   57.5020   32.2450   43.2270 C   0  0  0  0  0  0  0  0  0  0  0  0
   57.0220   30.9250   43.1430 C   0  0  0  0  0  0  0  0  0  0  0  0
   57.3540   30.0410   44.1660 C   0  0  0  0  0  0  0  0  0  0  0  0
   57.0080   28.7440   44.2680 N   0  0  0  0  0  0  0  0  0  0  0  0
   57.5570   28.3090   45.4280 C   0  0  0  0  0  0  0  0  0  0  0  0
   58.2890   29.3230   46.0280 C   0  0  0  0  0  0  0  0  0  0  0  0
   58.1330   30.4330   45.2260 C   0  0  0  0  0  0  0  0  0  0  0  0
   58.6280   31.7290   45.3390 C   0  0  0  0  0  0  0  0  0  0  0  0
   59.0590   29.1770   47.3020 C   0  0  0  0  0  0  0  0  0  0  0  0
   59.3790   27.6940   47.5420 C   0  0  0  0  0  0  0  0  0  0  0  0
   58.1260   26.8120   47.3690 C   0  0  0  0  0  0  0  0  0  0  0  0
   57.5350   26.8810   45.9320 C   0  0  1  0  0  0  0  0  0  0  0  0
   56.1510   26.3590   45.9200 N   0  0  0  0  0  0  0  0  0  0  0  0
   56.0070   25.0430   46.5680 C   0  0  0  0  0  0  0  0  0  0  0  0
   56.1750   23.8990   45.5960 C   0  0  0  0  0  0  0  0  0  0  0  0
   55.9310   24.0880   44.2250 C   0  0  0  0  0  0  0  0  0  0  0  0
   56.0660   23.0210   43.3320 C   0  0  0  0  0  0  0  0  0  0  0  0
   56.4430   21.7570   43.7960 C   0  0  0  0  0  0  0  0  0  0  0  0
   56.5730   20.7030   42.8950 O   0  0  0  0  0  0  0  0  0  0  0  0
   56.6870   21.5630   45.1630 C   0  0  0  0  0  0  0  0  0  0  0  0
   56.5520   22.6280   46.0580 C   0  0  0  0  0  0  0  0  0  0  0  0
   58.8196   33.9821   46.5108 H   0  0  0  0  0  0  0  0  0  0  0  0
   60.3318   34.5352   45.7146 H   0  0  0  0  0  0  0  0  0  0  0  0
   58.8786   35.5912   45.7146 H   0  0  0  0  0  0  0  0  0  0  0  0
   57.2519   32.9667   42.4354 H   0  0  0  0  0  0  0  0  0  0  0  0
   56.4025   30.6010   42.2938 H   0  0  0  0  0  0  0  0  0  0  0  0
   56.4550   28.1900   43.5760 H   0  0  0  0  0  0  0  0  0  0  0  0
   59.2523   32.0222   46.1959 H   0  0  0  0  0  0  0  0  0  0  0  0
   59.9969   29.7472   47.2306 H   0  0  0  0  0  0  0  0  0  0  0  0
   58.4578   29.5617   48.1390 H   0  0  0  0  0  0  0  0  0  0  0  0
   60.1453   27.3722   46.8214 H   0  0  0  0  0  0  0  0  0  0  0  0
   59.7415   27.5811   48.5744 H   0  0  0  0  0  0  0  0  0  0  0  0
   58.3975   25.7687   47.5878 H   0  0  0  0  0  0  0  0  0  0  0  0
   57.3582   27.1873   48.0616 H   0  0  0  0  0  0  0  0  0  0  0  0
   58.1521   26.2588   45.2671 H   0  0  0  0  0  0  0  0  0  0  0  0
   55.8110   26.2630   44.9350 H   0  0  0  0  0  0  0  0  0  0  0  0
   56.7697   24.9520   47.3554 H   0  0  0  0  0  0  0  0  0  0  0  0
   54.9897   24.9835   46.9821 H   0  0  0  0  0  0  0  0  0  0  0  0
   55.6326   25.0793   43.8531 H   0  0  0  0  0  0  0  0  0  0  0  0
   55.8749   23.1764   42.2599 H   0  0  0  0  0  0  0  0  0  0  0  0
   57.0200   19.8330   43.1590 H   0  0  0  0  0  0  0  0  0  0  0  0
   56.9853   20.5705   45.5318 H   0  0  0  0  0  0  0  0  0  0  0  0
   56.7421   22.4695   47.1298 H   0  0  0  0  0  0  0  0  0  0  0  0
  1  2  1  0
  2  3  1  0
  3  4  2  0
  4  5  1  0
  5  6  2  0
  6  7  1  0
  7  8  1  0
  8  9  2  0
  9 10  1  0
 10 11  2  0
  9 12  1  0
 12 13  1  0
 13 14  1  0
 14 15  1  0
 15 16  1  0
 16 17  1  0
 17 18  1  0
 18 19  2  0
 19 20  1  0
 20 21  2  0
 21 22  1  0
 21 23  1  0
 23 24  2  0
 11  3  1  0
 24 18  1  0
 10  6  1  0
 15  8  1  0
  1 25  1  0
  1 26  1  0
  1 27  1  0
  4 28  1  0
  5 29  1  0
  7 30  1  0
 11 31  1  0
 12 32  1  0
 12 33  1  0
 13 34  1  0
 13 35  1  0
 14 36  1  0
 14 37  1  0
 15 38  1  6
 16 39  1  0
 17 40  1  0
 17 41  1  0
 19 42  1  0
 20 43  1  0
 22 44  1  0
 23 45  1  0
 24 46  1  0
M  END
>  <UniqueID>  (30) 
26

>  <SMILES>  (30) 
COc1ccc2[nH]c3c(c2c1)CCC[C@H]3NCc1ccc(O)cc1

>  <Energy>  (30) 
83.57386307025871

>  <Genealogy>  (30) 
COc1ccc2[nH]c3c(c2c1)CCC[C@H]3NCc1ccc(O)cc1 (chirality)
COc1ccc2[nH]c3c(c2c1)CCC[C@H]3NCc1ccc(O)cc1 (3D coordinates assigned)
COc1ccc2[nH]c3c(c2c1)CCC[C@H]3NCc1ccc(O)cc1 (nonaromatic ring conformer: 83.57386307025871 kcal/mol)

>  <smiles>  (30) 
COc1ccc2[nH]c3c(c2c1)CCCC3NCc1ccc(O)cc1

>  <score_type>  (30) 
oracle

>  <origin>  (30) 
adg

>  <m_score__min__energy>  (30) 
-8.3300000000000001

>  <m_primary>  (30) 
energy

$$$$
30:0
     RDKit          3D

 72 75  0  0  0  0  0  0  0  0999 V2000
   60.8740   26.6440   48.6610 H   0  0  0  0  0  0  0  0  0  0  0  0
   61.3880   26.4170   47.8420 O   0  0  0  0  0  0  0  0  0  0  0  0
   60.5700   26.7420   46.7500 C   0  0  0  0  0  0  0  0  0  0  0  0
   60.7347   26.0124   45.9435 H   0  0  0  0  0  0  0  0  0  0  0  0
   60.8246   27.7536   46.4011 H   0  0  0  0  0  0  0  0  0  0  0  0
   59.0880   26.7140   47.1650 C   0  0  1  0  0  0  0  0  0  0  0  0
   58.5514   26.3380   46.2814 H   0  0  0  0  0  0  0  0  0  0  0  0
   58.8780   25.8340   48.2430 O   0  0  0  0  0  0  0  0  0  0  0  0
   59.5430   26.0430   48.9480 H   0  0  0  0  0  0  0  0  0  0  0  0
   58.4690   28.1080   47.4550 C   0  0  2  0  0  0  0  0  0  0  0  0
   57.9244   28.0015   48.4048 H   0  0  0  0  0  0  0  0  0  0  0  0
   57.5520   28.4600   46.4120 O   0  0  0  0  0  0  0  0  0  0  0  0
   57.6170   29.6320   45.6460 C   0  0  0  0  0  0  0  0  0  0  0  0
   56.4670   29.9790   44.7940 C   0  0  0  0  0  0  0  0  0  0  0  0
   55.5010   29.1730   44.7040 O   0  0  0  0  0  0  0  0  0  0  0  0
   56.4390   31.1970   44.1000 O   0  0  0  0  0  0  0  0  0  0  0  0
   57.4140   31.5650   43.1290 C   0  0  0  0  0  0  0  0  0  0  0  0
   58.1440   30.7495   43.0192 H   0  0  0  0  0  0  0  0  0  0  0  0
   56.9127   31.7504   42.1676 H   0  0  0  0  0  0  0  0  0  0  0  0
   58.1260   32.8140   43.5610 C   0  0  0  0  0  0  0  0  0  0  0  0
   59.0283   33.1316   43.0179 H   0  0  0  0  0  0  0  0  0  0  0  0
   57.6910   33.5510   44.5900 C   0  0  0  0  0  0  0  0  0  0  0  0
   56.7186   34.0553   44.4897 H   0  0  0  0  0  0  0  0  0  0  0  0
   58.4410   33.7290   45.8580 C   0  0  0  0  0  0  0  0  0  0  0  0
   59.6440   34.4610   45.9340 C   0  0  0  0  0  0  0  0  0  0  0  0
   60.0550   34.9332   45.0295 H   0  0  0  0  0  0  0  0  0  0  0  0
   60.3180   34.5900   47.1540 C   0  0  0  0  0  0  0  0  0  0  0  0
   61.2522   35.1683   47.2061 H   0  0  0  0  0  0  0  0  0  0  0  0
   59.8080   33.9870   48.3040 C   0  0  0  0  0  0  0  0  0  0  0  0
   60.3369   34.0956   49.2624 H   0  0  0  0  0  0  0  0  0  0  0  0
   58.6270   33.2460   48.2390 C   0  0  0  0  0  0  0  0  0  0  0  0
   58.2290   32.7660   49.1452 H   0  0  0  0  0  0  0  0  0  0  0  0
   57.9490   33.1130   47.0230 C   0  0  0  0  0  0  0  0  0  0  0  0
   57.0228   32.5214   46.9772 H   0  0  0  0  0  0  0  0  0  0  0  0
   58.6950   30.4220   45.7030 C   0  0  0  0  0  0  0  0  0  0  0  0
   58.6967   31.3797   45.1620 H   0  0  0  0  0  0  0  0  0  0  0  0
   59.8990   30.0170   46.4950 C   0  0  1  0  0  0  0  0  0  0  0  0
   60.5254   29.3451   45.8898 H   0  0  0  0  0  0  0  0  0  0  0  0
   60.6410   31.1880   46.8360 O   0  0  0  0  0  0  0  0  0  0  0  0
   61.8200   31.1640   47.5870 C   0  0  0  0  0  0  0  0  0  0  0  0
   61.8750   30.5130   48.6650 O   0  0  0  0  0  0  0  0  0  0  0  0
   62.9760   31.9490   47.1180 C   0  0  0  0  0  0  0  0  0  0  0  0
   63.5225   31.5685   46.2425 H   0  0  0  0  0  0  0  0  0  0  0  0
   63.4170   33.0900   47.6710 C   0  0  0  0  0  0  0  0  0  0  0  0
   63.5862   33.9459   47.0011 H   0  0  0  0  0  0  0  0  0  0  0  0
   63.6930   33.2860   49.1100 C   0  0  0  0  0  0  0  0  0  0  0  0
   62.8400   34.0620   49.9190 C   0  0  0  0  0  0  0  0  0  0  0  0
   61.9624   34.5548   49.4753 H   0  0  0  0  0  0  0  0  0  0  0  0
   63.1050   34.2080   51.2840 C   0  0  0  0  0  0  0  0  0  0  0  0
   62.4456   34.8287   51.9084 H   0  0  0  0  0  0  0  0  0  0  0  0
   64.2070   33.5660   51.8560 C   0  0  0  0  0  0  0  0  0  0  0  0
   64.4184   33.6876   52.9286 H   0  0  0  0  0  0  0  0  0  0  0  0
   65.0410   32.7690   51.0650 C   0  0  0  0  0  0  0  0  0  0  0  0
   65.9044   32.2591   51.5172 H   0  0  0  0  0  0  0  0  0  0  0  0
   64.7780   32.6200   49.7000 C   0  0  0  0  0  0  0  0  0  0  0  0
   65.4252   31.9772   49.0852 H   0  0  0  0  0  0  0  0  0  0  0  0
   59.4840   29.2500   47.7680 C   0  0  1  0  0  0  0  0  0  0  0  0
   60.3787   28.7834   48.2059 H   0  0  0  0  0  0  0  0  0  0  0  0
   58.8900   30.1810   48.6770 O   0  0  0  0  0  0  0  0  0  0  0  0
   58.9020   30.0250   50.0680 C   0  0  0  0  0  0  0  0  0  0  0  0
   57.8200   30.0940   50.7150 O   0  0  0  0  0  0  0  0  0  0  0  0
   60.1800   29.7810   50.7840 C   0  0  0  0  0  0  0  0  0  0  0  0
   60.7530   30.8110   51.5550 C   0  0  0  0  0  0  0  0  0  0  0  0
   60.2460   31.7847   51.6251 H   0  0  0  0  0  0  0  0  0  0  0  0
   61.9590   30.6090   52.2320 C   0  0  0  0  0  0  0  0  0  0  0  0
   62.3975   31.4238   52.8268 H   0  0  0  0  0  0  0  0  0  0  0  0
   62.6080   29.3760   52.1550 C   0  0  0  0  0  0  0  0  0  0  0  0
   63.5549   29.2173   52.6919 H   0  0  0  0  0  0  0  0  0  0  0  0
   62.0540   28.3450   51.3960 C   0  0  0  0  0  0  0  0  0  0  0  0
   62.5677   27.3742   51.3361 H   0  0  0  0  0  0  0  0  0  0  0  0
   60.8490   28.5370   50.7100 C   0  0  0  0  0  0  0  0  0  0  0  0
   60.3340   27.4840   49.9600 O   0  0  0  0  0  0  0  0  0  0  0  0
  1  2  1  0
  2  3  1  0
  3  4  1  0
  3  5  1  0
  3  6  1  0
  6  7  1  6
  6  8  1  0
  8  9  1  0
  6 10  1  0
 10 11  1  1
 10 12  1  0
 12 13  1  0
 13 14  1  0
 14 15  2  0
 14 16  1  0
 16 17  1  0
 17 18  1  0
 17 19  1  0
 17 20  1  0
 20 21  1  0
 20 22  2  3
 22 23  1  0
 22 24  1  0
 24 25  2  0
 25 26  1  0
 25 27  1  0
 27 28  1  0
 27 29  2  0
 29 30  1  0
 29 31  1  0
 31 32  1  0
 31 33  2  0
 33 34  1  0
 13 35  2  0
 35 36  1  0
 35 37  1  0
 37 38  1  6
 37 39  1  0
 39 40  1  0
 40 41  2  0
 40 42  1  0
 42 43  1  0
 42 44  2  0
 44 45  1  0
 44 46  1  0
 46 47  2  0
 47 48  1  0
 47 49  1  0
 49 50  1  0
 49 51  2  0
 51 52  1  0
 51 53  1  0
 53 54  1  0
 53 55  2  0
 55 56  1  0
 37 57  1  0
 57 58  1  1
 57 59  1  0
 59 60  1  0
 60 61  2  0
 60 62  1  0
 62 63  2  0
 63 64  1  0
 63 65  1  0
 65 66  1  0
 65 67  2  0
 67 68  1  0
 67 69  1  0
 69 70  1  0
 69 71  2  0
 71 72  1  0
 57 10  1  0
 71 62  1  0
 33 24  1  0
 55 46  1  0
M  CHG  1  72  -1
M  END
>  <UniqueID>  (31) 
27

>  <SMILES>  (31) 
O=C(/C=C\c1ccccc1)O[C@@H]1C=C(C(=O)OCC=Cc2ccccc2)O[C@@H](C(O)CO)C1OC(=O)c1ccccc1[O-]

>  <Energy>  (31) 
85.66775948738069

>  <Genealogy>  (31) 
O=C(C=Cc1ccccc1)OC1C=C(C(=O)OCC=Cc2ccccc2)OC(C(O)CO)C1OC(=O)c1ccccc1[O-] (protonated)
O=C(C=Cc1ccccc1)O[C@@H]1C=C(C(=O)OCC=Cc2ccccc2)O[C@@H](C(O)CO)C1OC(=O)c1ccccc1[O-] (chirality)
O=C(/C=C\c1ccccc1)O[C@@H]1C=C(C(=O)OCC=Cc2ccccc2)O[C@@H](C(O)CO)C1OC(=O)c1ccccc1[O-] (cis-trans isomerization)
O=C(/C=C\c1ccccc1)O[C@@H]1C=C(C(=O)OCC=Cc2ccccc2)O[C@@H](C(O)CO)C1OC(=O)c1ccccc1[O-] (3D coordinates assigned)
O=C(/C=C\c1ccccc1)O[C@@H]1C=C(C(=O)OCC=Cc2ccccc2)O[C@@H](C(O)CO)C1OC(=O)c1ccccc1[O-] (nonaromatic ring conformer: 85.66775948738069 kcal/mol)

>  <smiles>  (31) 
O=C(C=Cc1ccccc1)OC1C=C(C(=O)OCC=Cc2ccccc2)OC(C(O)CO)C1OC(=O)c1ccccc1O

>  <score_type>  (31) 
oracle

>  <origin>  (31) 
adg

>  <m_score__min__energy>  (31) 
-13.390000000000001

>  <m_primary>  (31) 
energy

$$$$
31:0
     RDKit          3D

 40 42  0  0  0  0  0  0  0  0999 V2000
   62.3388   33.3524   46.4363 H   0  0  0  0  0  0  0  0  0  0  0  0
   62.6790   33.4480   47.4780 C   0  0  0  0  0  0  0  0  0  0  0  0
   63.9040   32.9770   47.8360 N   0  0  0  0  0  0  0  0  0  0  0  0
   64.3630   33.0740   49.1110 C   0  0  0  0  0  0  0  0  0  0  0  0
   65.5040   32.6280   49.4020 O   0  0  0  0  0  0  0  0  0  0  0  0
   63.5710   33.6670   50.0960 C   0  0  0  0  0  0  0  0  0  0  0  0
   63.9374   33.7466   51.1301 H   0  0  0  0  0  0  0  0  0  0  0  0
   62.3090   34.1580   49.7550 C   0  0  0  0  0  0  0  0  0  0  0  0
   61.6764   34.6254   50.5240 H   0  0  0  0  0  0  0  0  0  0  0  0
   61.8450   34.0570   48.4340 C   0  0  0  0  0  0  0  0  0  0  0  0
   60.5090   34.5750   48.0550 C   0  0  0  0  0  0  0  0  0  0  0  0
   59.6940   34.9180   48.9550 O   0  0  0  0  0  0  0  0  0  0  0  0
   60.1480   34.6770   46.6670 N   0  0  0  0  0  0  0  0  0  0  0  0
   59.1990   34.0210   46.0700 C   0  0  0  0  0  0  0  0  0  0  0  0
   59.3330   33.3980   44.8780 N   0  0  0  0  0  0  0  0  0  0  0  0
   58.1720   32.7970   44.4970 C   0  0  0  0  0  0  0  0  0  0  0  0
   58.0770   31.9960   43.2380 C   0  0  0  0  0  0  0  0  0  0  0  0
   59.0698   31.5957   42.9849 H   0  0  0  0  0  0  0  0  0  0  0  0
   57.7176   32.6429   42.4242 H   0  0  0  0  0  0  0  0  0  0  0  0
   57.1180   30.8620   43.4250 C   0  0  0  0  0  0  0  0  0  0  0  0
   56.2980   30.5820   42.5070 O   0  0  0  0  0  0  0  0  0  0  0  0
   57.1680   30.0680   44.6160 N   0  0  0  0  0  0  0  0  0  0  0  0
   57.8810   30.3040   45.3450 H   0  0  0  0  0  0  0  0  0  0  0  0
   56.2620   28.9390   44.8230 C   0  0  0  0  0  0  0  0  0  0  0  0
   55.4366   29.2534   45.4787 H   0  0  0  0  0  0  0  0  0  0  0  0
   55.8707   28.6149   43.8474 H   0  0  0  0  0  0  0  0  0  0  0  0
   56.9900   27.7850   45.4620 C   0  0  0  0  0  0  0  0  0  0  0  0
   58.3930   27.8110   45.5590 C   0  0  0  0  0  0  0  0  0  0  0  0
   58.9553   28.6597   45.1424 H   0  0  0  0  0  0  0  0  0  0  0  0
   59.0760   26.7620   46.1830 C   0  0  0  0  0  0  0  0  0  0  0  0
   60.1739   26.7831   46.2473 H   0  0  0  0  0  0  0  0  0  0  0  0
   58.3660   25.6870   46.7250 C   0  0  0  0  0  0  0  0  0  0  0  0
   58.9059   24.8600   47.2094 H   0  0  0  0  0  0  0  0  0  0  0  0
   56.9710   25.6620   46.6520 C   0  0  0  0  0  0  0  0  0  0  0  0
   56.4142   24.8177   47.0847 H   0  0  0  0  0  0  0  0  0  0  0  0
   56.2800   26.7080   46.0300 C   0  0  0  0  0  0  0  0  0  0  0  0
   54.8900   26.6730   45.9830 O   0  0  0  0  0  0  0  0  0  0  0  0
   57.1160   32.9290   45.3980 C   0  0  0  0  0  0  0  0  0  0  0  0
   56.1066   32.5092   45.2764 H   0  0  0  0  0  0  0  0  0  0  0  0
   57.6560   33.8430   46.7040 S   0  0  0  0  0  0  0  0  0  0  0  0
  1  2  1  0
  2  3  1  0
  3  4  1  0
  4  5  2  0
  4  6  1  0
  6  7  1  0
  6  8  2  0
  8  9  1  0
  8 10  1  0
 10 11  1  0
 11 12  2  0
 11 13  1  0
 13 14  2  0
 14 15  1  0
 15 16  1  0
 16 17  1  0
 17 18  1  0
 17 19  1  0
 17 20  1  0
 20 21  2  0
 20 22  1  0
 22 23  1  0
 22 24  1  0
 24 25  1  0
 24 26  1  0
 24 27  1  0
 27 28  2  0
 28 29  1  0
 28 30  1  0
 30 31  1  0
 30 32  2  0
 32 33  1  0
 32 34  1  0
 34 35  1  0
 34 36  2  0
 36 37  1  0
 16 38  2  0
 38 39  1  0
 38 40  1  0
 10  2  2  0
 40 14  1  0
 36 27  1  0
M  CHG  3   3  -1  15  -1  37  -1
M  END
>  <UniqueID>  (32) 
28

>  <SMILES>  (32) 
O=C(Cc1cs/c(=N/C(=O)c2ccc(=O)[n-]c2)[n-]1)NCc1ccccc1[O-]

>  <Energy>  (32) 
71.64159371508852

>  <Genealogy>  (32) 
O=C(Cc1csc(=NC(=O)c2ccc(=O)[n-]c2)[n-]1)NCc1ccccc1[O-] (protonated)
O=C(Cc1cs/c(=N/C(=O)c2ccc(=O)[n-]c2)[n-]1)NCc1ccccc1[O-] (cis-trans isomerization)
O=C(Cc1cs/c(=N/C(=O)c2ccc(=O)[n-]c2)[n-]1)NCc1ccccc1[O-] (3D coordinates assigned)
O=C(Cc1cs/c(=N/C(=O)c2ccc(=O)[n-]c2)[n-]1)NCc1ccccc1[O-] (optimized conformer: 71.64159371508852 kcal/mol)

>  <smiles>  (32) 
O=C(Cc1csc(=NC(=O)c2ccc(=O)[nH]c2)[nH]1)NCc1ccccc1O

>  <score_type>  (32) 
oracle

>  <origin>  (32) 
adg

>  <m_score__min__energy>  (32) 
-15.24

>  <m_primary>  (32) 
energy

$$$$
32:0
     RDKit          3D

 48 50  0  0  0  0  0  0  0  0999 V2000
   55.4600   29.9550   44.8730 N   0  0  0  0  0  0  0  0  0  0  0  0
   56.8040   29.4930   43.8880 S   0  0  0  0  0  0  0  0  0  0  0  0
   57.6570   30.6920   43.5910 O   0  0  0  0  0  0  0  0  0  0  0  0
   56.2690   28.9440   42.5950 O   0  0  0  0  0  0  0  0  0  0  0  0
   57.7680   28.2560   44.7150 C   0  0  0  0  0  0  0  0  0  0  0  0
   57.4360   26.9060   44.5120 C   0  0  0  0  0  0  0  0  0  0  0  0
   58.1060   25.8950   45.2030 C   0  0  0  0  0  0  0  0  0  0  0  0
   59.1130   26.2190   46.1100 C   0  0  0  0  0  0  0  0  0  0  0  0
   59.4660   27.5520   46.3170 C   0  0  0  0  0  0  0  0  0  0  0  0
   58.8170   28.5830   45.6140 C   0  0  0  0  0  0  0  0  0  0  0  0
   59.2680   29.9700   45.8400 C   0  0  0  0  0  0  0  0  0  0  0  0
   60.4990   30.2360   45.7820 O   0  0  0  0  0  0  0  0  0  0  0  0
   58.3090   31.0240   46.0160 N   0  0  0  0  0  0  0  0  0  0  0  0
   58.6280   32.3250   46.5410 C   0  0  0  0  0  0  0  0  0  0  0  0
   58.2640   33.4670   45.8150 C   0  0  0  0  0  0  0  0  0  0  0  0
   58.5390   34.7410   46.3160 C   0  0  0  0  0  0  0  0  0  0  0  0
   59.1800   34.8880   47.5470 C   0  0  0  0  0  0  0  0  0  0  0  0
   59.5550   33.7570   48.2920 C   0  0  0  0  0  0  0  0  0  0  0  0
   60.2420   33.9090   49.6350 C   0  0  0  0  0  0  0  0  0  0  0  0
   61.6610   33.4880   49.6320 N   0  0  0  0  0  0  0  0  0  0  0  0
   62.5150   34.2080   48.6540 C   0  0  0  0  0  0  0  0  0  0  0  0
   62.9660   33.3070   47.4960 C   0  0  0  0  0  0  0  0  0  0  0  0
   63.7540   32.0880   48.0130 C   0  0  0  0  0  0  0  0  0  0  0  0
   63.3040   31.6360   49.4150 C   0  0  0  0  0  0  0  0  0  0  0  0
   61.8440   32.0190   49.6750 C   0  0  0  0  0  0  0  0  0  0  0  0
   59.2480   32.4790   47.7940 C   0  0  0  0  0  0  0  0  0  0  0  0
   54.7720   29.1700   44.8400 H   0  0  0  0  0  0  0  0  0  0  0  0
   56.6393   26.6428   43.8007 H   0  0  0  0  0  0  0  0  0  0  0  0
   57.8389   24.8418   45.0314 H   0  0  0  0  0  0  0  0  0  0  0  0
   59.6304   25.4217   46.6637 H   0  0  0  0  0  0  0  0  0  0  0  0
   60.2598   27.7997   47.0371 H   0  0  0  0  0  0  0  0  0  0  0  0
   57.3440   30.8650   45.6460 H   0  0  0  0  0  0  0  0  0  0  0  0
   57.7583   33.3591   44.8441 H   0  0  0  0  0  0  0  0  0  0  0  0
   58.2496   35.6315   45.7387 H   0  0  0  0  0  0  0  0  0  0  0  0
   59.3928   35.8946   47.9362 H   0  0  0  0  0  0  0  0  0  0  0  0
   60.1951   34.9675   49.9306 H   0  0  0  0  0  0  0  0  0  0  0  0
   59.7143   33.2506   50.3407 H   0  0  0  0  0  0  0  0  0  0  0  0
   61.9445   35.0536   48.2422 H   0  0  0  0  0  0  0  0  0  0  0  0
   63.4165   34.5497   49.1837 H   0  0  0  0  0  0  0  0  0  0  0  0
   62.0791   32.9551   46.9487 H   0  0  0  0  0  0  0  0  0  0  0  0
   63.6228   33.8916   46.8351 H   0  0  0  0  0  0  0  0  0  0  0  0
   63.6095   31.2531   47.3115 H   0  0  0  0  0  0  0  0  0  0  0  0
   64.8112   32.3835   48.0842 H   0  0  0  0  0  0  0  0  0  0  0  0
   63.4079   30.5436   49.4910 H   0  0  0  0  0  0  0  0  0  0  0  0
   63.9355   32.1371   50.1634 H   0  0  0  0  0  0  0  0  0  0  0  0
   61.2088   31.5554   48.9058 H   0  0  0  0  0  0  0  0  0  0  0  0
   61.5627   31.6616   50.6766 H   0  0  0  0  0  0  0  0  0  0  0  0
   59.4955   31.5890   48.3911 H   0  0  0  0  0  0  0  0  0  0  0  0
  1  2  1  0
  2  3  2  0
  2  4  2  0
  2  5  1  0
  5  6  2  0
  6  7  1  0
  7  8  2  0
  8  9  1  0
  9 10  2  0
 10 11  1  0
 11 12  2  0
 11 13  1  0
 13 14  1  0
 14 15  2  0
 15 16  1  0
 16 17  2  0
 17 18  1  0
 18 19  1  0
 19 20  1  0
 20 21  1  0
 21 22  1  0
 22 23  1  0
 23 24  1  0
 24 25  1  0
 18 26  2  0
 10  5  1  0
 26 14  1  0
 25 20  1  0
  1 27  1  0
  6 28  1  0
  7 29  1  0
  8 30  1  0
  9 31  1  0
 13 32  1  0
 15 33  1  0
 16 34  1  0
 17 35  1  0
 19 36  1  0
 19 37  1  0
 21 38  1  0
 21 39  1  0
 22 40  1  0
 22 41  1  0
 23 42  1  0
 23 43  1  0
 24 44  1  0
 24 45  1  0
 25 46  1  0
 25 47  1  0
 26 48  1  0
M  CHG  1   1  -1
M  END
>  <UniqueID>  (33) 
29

>  <SMILES>  (33) 
[NH-]S(=O)(=O)c1ccccc1C(=O)Nc1cccc(CN2CCCCC2)c1

>  <Energy>  (33) 
67.67359864912483

>  <Genealogy>  (33) 
[NH-]S(=O)(=O)c1ccccc1C(=O)Nc1cccc(CN2CCCCC2)c1 (protonated)
[NH-]S(=O)(=O)c1ccccc1C(=O)Nc1cccc(CN2CCCCC2)c1 (3D coordinates assigned)
[NH-]S(=O)(=O)c1ccccc1C(=O)Nc1cccc(CN2CCCCC2)c1 (nonaromatic ring conformer: 67.67359864912483 kcal/mol)

>  <smiles>  (33) 
NS(=O)(=O)c1ccccc1C(=O)Nc1cccc(CN2CCCCC2)c1

>  <score_type>  (33) 
oracle

>  <origin>  (33) 
adg

>  <m_score__min__energy>  (33) 
-11.67

>  <m_primary>  (33) 
energy

$$$$
33:0
     RDKit          3D

 60 64  0  0  0  0  0  0  0  0999 V2000
   57.9570   30.9460   50.6800 O   0  0  0  0  0  0  0  0  0  0  0  0
   58.6190   31.3820   49.7010 C   0  0  0  0  0  0  0  0  0  0  0  0
   59.6560   30.5050   49.0390 C   0  0  0  0  0  0  0  0  0  0  0  0
   61.0560   30.9330   49.3960 C   0  0  0  0  0  0  0  0  0  0  0  0
   61.8490   31.6200   48.4630 C   0  0  0  0  0  0  0  0  0  0  0  0
   63.1640   31.9720   48.7760 C   0  0  0  0  0  0  0  0  0  0  0  0
   63.7080   31.6550   50.0340 C   0  0  0  0  0  0  0  0  0  0  0  0
   65.0760   31.9910   50.3410 N   0  0  0  0  0  0  0  0  0  0  0  0
   65.6650   33.3060   50.1470 C   0  0  0  0  0  0  0  0  0  0  0  0
   67.1760   33.1410   50.4010 C   0  0  0  0  0  0  0  0  0  0  0  0
   67.3780   31.7570   51.0320 C   0  0  0  0  0  0  0  0  0  0  0  0
   66.0550   31.1230   50.8850 C   0  0  0  0  0  0  0  0  0  0  0  0
   65.8070   29.9540   51.2700 O   0  0  0  0  0  0  0  0  0  0  0  0
   62.9140   30.9580   50.9610 C   0  0  0  0  0  0  0  0  0  0  0  0
   61.6000   30.5980   50.6450 C   0  0  0  0  0  0  0  0  0  0  0  0
   58.3690   32.7170   49.2430 N   0  0  0  0  0  0  0  0  0  0  0  0
   58.5800   33.1880   47.9050 C   0  0  0  0  0  0  0  0  0  0  0  0
   59.2560   34.3980   47.7040 C   0  0  0  0  0  0  0  0  0  0  0  0
   59.4550   34.8900   46.4110 C   0  0  0  0  0  0  0  0  0  0  0  0
   58.9590   34.1860   45.3100 C   0  0  0  0  0  0  0  0  0  0  0  0
   58.2370   32.9960   45.4960 C   0  0  0  0  0  0  0  0  0  0  0  0
   57.7090   32.2260   44.3090 C   0  0  0  0  0  0  0  0  0  0  0  0
   57.2830   30.8300   44.6960 C   0  0  0  0  0  0  0  0  0  0  0  0
   55.9730   30.4920   44.5270 N   0  0  0  0  0  0  0  0  0  0  0  0
   55.5050   29.2840   44.8410 N   0  0  0  0  0  0  0  0  0  0  0  0
   56.3160   28.3190   45.3420 C   0  0  0  0  0  0  0  0  0  0  0  0
   55.8280   27.1970   45.6400 O   0  0  0  0  0  0  0  0  0  0  0  0
   57.6830   28.5870   45.5240 C   0  0  0  0  0  0  0  0  0  0  0  0
   58.1820   29.8580   45.1950 C   0  0  0  0  0  0  0  0  0  0  0  0
   59.6470   30.1250   45.4630 C   0  0  0  0  0  0  0  0  0  0  0  0
   60.5120   28.9500   44.9810 C   0  0  0  0  0  0  0  0  0  0  0  0
   59.9650   27.5490   45.3650 C   0  0  0  0  0  0  0  0  0  0  0  0
   58.6280   27.5730   46.1250 C   0  0  0  0  0  0  0  0  0  0  0  0
   58.0540   32.5010   46.7990 C   0  0  0  0  0  0  0  0  0  0  0  0
   59.5061   29.4658   49.3669 H   0  0  0  0  0  0  0  0  0  0  0  0
   59.5367   30.5949   47.9492 H   0  0  0  0  0  0  0  0  0  0  0  0
   61.4322   31.8826   47.4795 H   0  0  0  0  0  0  0  0  0  0  0  0
   63.7789   32.5011   48.0331 H   0  0  0  0  0  0  0  0  0  0  0  0
   65.4869   33.6560   49.1195 H   0  0  0  0  0  0  0  0  0  0  0  0
   65.2224   34.0482   50.8276 H   0  0  0  0  0  0  0  0  0  0  0  0
   67.7278   33.2072   49.4517 H   0  0  0  0  0  0  0  0  0  0  0  0
   67.5504   33.9333   51.0659 H   0  0  0  0  0  0  0  0  0  0  0  0
   68.1503   31.1873   50.4943 H   0  0  0  0  0  0  0  0  0  0  0  0
   67.7195   31.8050   52.0765 H   0  0  0  0  0  0  0  0  0  0  0  0
   63.3300   30.6932   51.9443 H   0  0  0  0  0  0  0  0  0  0  0  0
   60.9906   30.0500   51.3787 H   0  0  0  0  0  0  0  0  0  0  0  0
   59.6324   34.9643   48.5686 H   0  0  0  0  0  0  0  0  0  0  0  0
   60.0024   35.8320   46.2597 H   0  0  0  0  0  0  0  0  0  0  0  0
   59.1351   34.5660   44.2929 H   0  0  0  0  0  0  0  0  0  0  0  0
   56.8425   32.7612   43.8933 H   0  0  0  0  0  0  0  0  0  0  0  0
   58.5154   32.1455   43.5652 H   0  0  0  0  0  0  0  0  0  0  0  0
   59.9505   31.0386   44.9308 H   0  0  0  0  0  0  0  0  0  0  0  0
   59.7909   30.2480   46.5466 H   0  0  0  0  0  0  0  0  0  0  0  0
   60.5830   29.0026   43.8846 H   0  0  0  0  0  0  0  0  0  0  0  0
   61.4868   29.0532   45.4802 H   0  0  0  0  0  0  0  0  0  0  0  0
   59.8244   26.9698   44.4405 H   0  0  0  0  0  0  0  0  0  0  0  0
   60.7037   27.1003   46.0454 H   0  0  0  0  0  0  0  0  0  0  0  0
   58.1665   26.5758   46.0730 H   0  0  0  0  0  0  0  0  0  0  0  0
   58.8237   27.8524   47.1708 H   0  0  0  0  0  0  0  0  0  0  0  0
   57.4937   31.5671   46.9536 H   0  0  0  0  0  0  0  0  0  0  0  0
  1  2  2  0
  2  3  1  0
  3  4  1  0
  4  5  2  0
  5  6  1  0
  6  7  2  0
  7  8  1  0
  8  9  1  0
  9 10  1  0
 10 11  1  0
 11 12  1  0
 12 13  2  0
  7 14  1  0
 14 15  2  0
  2 16  1  0
 16 17  1  0
 17 18  2  0
 18 19  1  0
 19 20  2  0
 20 21  1  0
 21 22  1  0
 22 23  1  0
 23 24  2  0
 24 25  1  0
 25 26  1  0
 26 27  2  0
 26 28  1  0
 28 29  2  0
 29 30  1  0
 30 31  1  0
 31 32  1  0
 32 33  1  0
 21 34  2  0
 15  4  1  0
 34 17  1  0
 12  8  1  0
 29 23  1  0
 33 28  1  0
  3 35  1  0
  3 36  1  0
  5 37  1  0
  6 38  1  0
  9 39  1  0
  9 40  1  0
 10 41  1  0
 10 42  1  0
 11 43  1  0
 11 44  1  0
 14 45  1  0
 15 46  1  0
 18 47  1  0
 19 48  1  0
 20 49  1  0
 22 50  1  0
 22 51  1  0
 30 52  1  0
 30 53  1  0
 31 54  1  0
 31 55  1  0
 32 56  1  0
 32 57  1  0
 33 58  1  0
 33 59  1  0
 34 60  1  0
M  CHG  2  16  -1  25  -1
M  END
>  <UniqueID>  (34) 
30

>  <SMILES>  (34) 
O=C(Cc1ccc(N2CCCC2=O)cc1)[N-]c1cccc(Cc2n[n-]c(=O)c3c2CCCC3)c1

>  <Energy>  (34) 
86.92928187773336

>  <Genealogy>  (34) 
O=C(Cc1ccc(N2CCCC2=O)cc1)[N-]c1cccc(Cc2n[n-]c(=O)c3c2CCCC3)c1 (protonated)
O=C(Cc1ccc(N2CCCC2=O)cc1)[N-]c1cccc(Cc2n[n-]c(=O)c3c2CCCC3)c1 (3D coordinates assigned)
O=C(Cc1ccc(N2CCCC2=O)cc1)[N-]c1cccc(Cc2n[n-]c(=O)c3c2CCCC3)c1 (nonaromatic ring conformer: 86.92928187773336 kcal/mol)

>  <smiles>  (34) 
O=C(Cc1ccc(N2CCCC2=O)cc1)Nc1cccc(Cc2n[nH]c(=O)c3c2CCCC3)c1

>  <score_type>  (34) 
oracle

>  <origin>  (34) 
adg

>  <m_score__min__energy>  (34) 
-14.699999999999999

>  <m_primary>  (34) 
energy

$$$$
34:0
     RDKit          3D

 35 37  0  0  0  0  0  0  0  0999 V2000
   58.0060   34.2760   45.0530 C   0  0  0  0  0  0  0  0  0  0  0  0
   59.2720   34.9140   45.6140 C   0  0  0  0  0  0  0  0  0  0  0  0
   59.8200   34.0960   46.7460 C   0  0  0  0  0  0  0  0  0  0  0  0
   59.8630   34.6090   48.0480 C   0  0  0  0  0  0  0  0  0  0  0  0
   60.4120   33.8210   49.0580 C   0  0  0  0  0  0  0  0  0  0  0  0
   60.8980   32.5870   48.7660 N   0  0  0  0  0  0  0  0  0  0  0  0
   60.8580   32.1040   47.4970 C   0  0  0  0  0  0  0  0  0  0  0  0
   61.4940   30.4730   47.1400 S   0  0  0  0  0  0  0  0  0  0  0  0
   59.9250   29.9310   46.4620 C   0  0  0  0  0  0  0  0  0  0  0  0
   59.2340   30.6750   45.5580 N   0  0  0  0  0  0  0  0  0  0  0  0
   58.1230   29.9410   45.3590 C   0  0  0  0  0  0  0  0  0  0  0  0
   58.1480   28.8130   46.1140 C   0  0  0  0  0  0  0  0  0  0  0  0
   57.0800   27.9240   46.0760 C   0  0  0  0  0  0  0  0  0  0  0  0
   57.0590   26.8790   46.7760 O   0  0  0  0  0  0  0  0  0  0  0  0
   56.0390   28.2210   45.2480 N   0  0  0  0  0  0  0  0  0  0  0  0
   56.0270   29.3580   44.4830 C   0  0  0  0  0  0  0  0  0  0  0  0
   55.0450   29.5720   43.7220 O   0  0  0  0  0  0  0  0  0  0  0  0
   57.0720   30.2540   44.5480 N   0  0  0  0  0  0  0  0  0  0  0  0
   57.1010   31.4620   43.7120 C   0  0  0  0  0  0  0  0  0  0  0  0
   59.2930   28.7800   46.8180 N   0  0  0  0  0  0  0  0  0  0  0  0
   59.7160   27.7860   47.8030 C   0  0  0  0  0  0  0  0  0  0  0  0
   60.3270   32.8580   46.4980 N   0  0  0  0  0  0  0  0  0  0  0  0
   57.3608   33.9508   45.8824 H   0  0  0  0  0  0  0  0  0  0  0  0
   57.4677   35.0105   44.4359 H   0  0  0  0  0  0  0  0  0  0  0  0
   58.2761   33.4064   44.4359 H   0  0  0  0  0  0  0  0  0  0  0  0
   60.0272   34.9796   44.8169 H   0  0  0  0  0  0  0  0  0  0  0  0
   59.0260   35.9182   45.9895 H   0  0  0  0  0  0  0  0  0  0  0  0
   59.4717   35.6130   48.2692 H   0  0  0  0  0  0  0  0  0  0  0  0
   60.4516   34.1982   50.0905 H   0  0  0  0  0  0  0  0  0  0  0  0
   57.1224   32.3533   44.3563 H   0  0  0  0  0  0  0  0  0  0  0  0
   57.9990   31.4469   43.0769 H   0  0  0  0  0  0  0  0  0  0  0  0
   56.2033   31.4901   43.0769 H   0  0  0  0  0  0  0  0  0  0  0  0
   59.5485   28.1797   48.8164 H   0  0  0  0  0  0  0  0  0  0  0  0
   59.1325   26.8635   47.6669 H   0  0  0  0  0  0  0  0  0  0  0  0
   60.7853   27.5669   47.6669 H   0  0  0  0  0  0  0  0  0  0  0  0
  1  2  1  0
  2  3  1  0
  3  4  2  0
  4  5  1  0
  5  6  2  0
  6  7  1  0
  7  8  1  0
  8  9  1  0
  9 10  2  0
 10 11  1  0
 11 12  2  0
 12 13  1  0
 13 14  2  0
 13 15  1  0
 15 16  1  0
 16 17  2  0
 16 18  1  0
 18 19  1  0
 12 20  1  0
 20 21  1  0
  7 22  2  0
 22  3  1  0
 20  9  1  0
 18 11  1  0
  1 23  1  0
  1 24  1  0
  1 25  1  0
  2 26  1  0
  2 27  1  0
  4 28  1  0
  5 29  1  0
 19 30  1  0
 19 31  1  0
 19 32  1  0
 21 33  1  0
 21 34  1  0
 21 35  1  0
M  CHG  1  15  -1
M  END
>  <UniqueID>  (35) 
31

>  <SMILES>  (35) 
CCc1ccnc(Sc2nc3c(c(=O)[n-]c(=O)n3C)n2C)n1

>  <Energy>  (35) 
72.75251441925978

>  <Genealogy>  (35) 
CCc1ccnc(Sc2nc3c(c(=O)[n-]c(=O)n3C)n2C)n1 (protonated)
CCc1ccnc(Sc2nc3c(c(=O)[n-]c(=O)n3C)n2C)n1 (3D coordinates assigned)
CCc1ccnc(Sc2nc3c(c(=O)[n-]c(=O)n3C)n2C)n1 (optimized conformer: 72.75251441925978 kcal/mol)

>  <smiles>  (35) 
CCc1ccnc(Sc2nc3c(c(=O)[nH]c(=O)n3C)n2C)n1

>  <score_type>  (35) 
oracle

>  <origin>  (35) 
adg

>  <m_score__min__energy>  (35) 
-8.5

>  <m_primary>  (35) 
energy

$$$$
35:0
     RDKit          3D

 30 32  0  0  0  0  0  0  0  0999 V2000
   61.9790   31.8130   49.9070 H   0  0  0  0  0  0  0  0  0  0  0  0
   61.8210   31.8170   48.9060 O   0  0  0  0  0  0  0  0  0  0  0  0
   61.2250   30.7360   48.2590 C   0  0  0  0  0  0  0  0  0  0  0  0
   60.7100   29.6580   48.9930 C   0  0  0  0  0  0  0  0  0  0  0  0
   60.7797   29.6587   50.0908 H   0  0  0  0  0  0  0  0  0  0  0  0
   60.1080   28.5820   48.3330 C   0  0  0  0  0  0  0  0  0  0  0  0
   59.7269   27.7276   48.9116 H   0  0  0  0  0  0  0  0  0  0  0  0
   59.9890   28.5890   46.9380 C   0  0  0  0  0  0  0  0  0  0  0  0
   59.3980   27.4630   46.2770 N   0  0  0  0  0  0  0  0  0  0  0  0
   58.2070   26.9630   46.4550 C   0  0  0  0  0  0  0  0  0  0  0  0
   58.0190   25.8680   47.2250 N   0  0  0  0  0  0  0  0  0  0  0  0
   56.7040   25.5960   47.1130 C   0  0  0  0  0  0  0  0  0  0  0  0
   56.1805   24.7572   47.5950 H   0  0  0  0  0  0  0  0  0  0  0  0
   56.1250   26.5370   46.2990 C   0  0  0  0  0  0  0  0  0  0  0  0
   54.7710   26.6170   45.9950 O   0  0  0  0  0  0  0  0  0  0  0  0
   57.0550   27.4120   45.8810 N   0  0  0  0  0  0  0  0  0  0  0  0
   56.7630   28.6620   45.2400 C   0  0  0  0  0  0  0  0  0  0  0  0
   55.5140   29.0340   44.8840 N   0  0  0  0  0  0  0  0  0  0  0  0
   55.6920   30.2280   44.2940 C   0  0  0  0  0  0  0  0  0  0  0  0
   54.8934   30.8632   43.8831 H   0  0  0  0  0  0  0  0  0  0  0  0
   57.0330   30.5270   44.2870 C   0  0  0  0  0  0  0  0  0  0  0  0
   57.6470   31.7890   43.7810 C   0  0  0  0  0  0  0  0  0  0  0  0
   57.9518   32.4155   44.6323 H   0  0  0  0  0  0  0  0  0  0  0  0
   58.5286   31.5481   43.1688 H   0  0  0  0  0  0  0  0  0  0  0  0
   56.9133   32.3340   43.1688 H   0  0  0  0  0  0  0  0  0  0  0  0
   57.7240   29.5420   44.8860 N   0  0  0  0  0  0  0  0  0  0  0  0
   60.5430   29.6500   46.2030 C   0  0  0  0  0  0  0  0  0  0  0  0
   60.5045   29.6340   45.1038 H   0  0  0  0  0  0  0  0  0  0  0  0
   61.1430   30.7260   46.8630 C   0  0  0  0  0  0  0  0  0  0  0  0
   61.5516   31.5667   46.2832 H   0  0  0  0  0  0  0  0  0  0  0  0
  1  2  1  0
  2  3  1  0
  3  4  2  0
  4  5  1  0
  4  6  1  0
  6  7  1  0
  6  8  2  0
  8  9  1  0
  9 10  2  0
 10 11  1  0
 11 12  1  0
 12 13  1  0
 12 14  2  0
 14 15  1  0
 14 16  1  0
 16 17  1  0
 17 18  2  0
 18 19  1  0
 19 20  1  0
 19 21  2  0
 21 22  1  0
 22 23  1  0
 22 24  1  0
 22 25  1  0
 21 26  1  0
  8 27  1  0
 27 28  1  0
 27 29  2  0
 29 30  1  0
 29  3  1  0
 16 10  1  0
 26 17  1  0
M  CHG  3  11  -1  15  -1  26  -1
M  END
>  <UniqueID>  (36) 
32

>  <SMILES>  (36) 
Cc1cnc(-n2c([O-])c[n-]/c2=N/c2ccc(O)cc2)[n-]1

>  <Energy>  (36) 
105.32756671278003

>  <Genealogy>  (36) 
Cc1cnc(-n2c([O-])c[n-]c2=Nc2ccc(O)cc2)[n-]1 (protonated)
Cc1cnc(-n2c([O-])c[n-]/c2=N/c2ccc(O)cc2)[n-]1 (cis-trans isomerization)
Cc1cnc(-n2c([O-])c[n-]/c2=N/c2ccc(O)cc2)[n-]1 (3D coordinates assigned)
Cc1cnc(-n2c([O-])c[n-]/c2=N/c2ccc(O)cc2)[n-]1 (optimized conformer: 105.32756671278003 kcal/mol)

>  <smiles>  (36) 
Cc1cnc(-n2c(O)c[nH]c2=Nc2ccc(O)cc2)[nH]1

>  <score_type>  (36) 
oracle

>  <origin>  (36) 
adg

>  <m_score__min__energy>  (36) 
-13.41

>  <m_primary>  (36) 
energy

$$$$
36:0
     RDKit          3D

 45 47  0  0  0  0  0  0  0  0999 V2000
   64.7380   33.0600   49.5460 C   0  0  0  0  0  0  0  0  0  0  0  0
   63.7750   34.0230   49.9630 O   0  0  0  0  0  0  0  0  0  0  0  0
   62.3870   33.8220   49.9310 C   0  0  0  0  0  0  0  0  0  0  0  0
   61.6880   33.8340   51.1420 C   0  0  0  0  0  0  0  0  0  0  0  0
   60.3050   33.6470   51.1630 C   0  0  0  0  0  0  0  0  0  0  0  0
   59.6060   33.4400   49.9720 C   0  0  0  0  0  0  0  0  0  0  0  0
   60.2870   33.4100   48.7420 C   0  0  0  0  0  0  0  0  0  0  0  0
   59.5560   33.2070   47.4650 C   0  0  0  0  0  0  0  0  0  0  0  0
   59.3560   34.2410   46.7050 N   0  0  0  0  0  0  0  0  0  0  0  0
   58.5190   34.1460   45.2060 S   0  0  0  0  0  0  0  0  0  0  0  0
   59.3880   34.7090   44.1180 O   0  0  0  0  0  0  0  0  0  0  0  0
   57.2270   34.9080   45.2940 O   0  0  0  0  0  0  0  0  0  0  0  0
   58.1980   32.4770   44.9030 N   0  0  0  0  0  0  0  0  0  0  0  0
   57.8310   32.0650   43.5470 C   0  0  0  0  0  0  0  0  0  0  0  0
   58.4460   31.5140   45.9480 C   0  0  0  0  0  0  0  0  0  0  0  0
   58.0180   30.1100   45.7730 C   0  0  0  0  0  0  0  0  0  0  0  0
   56.8970   29.8690   45.2460 O   0  0  0  0  0  0  0  0  0  0  0  0
   58.8760   29.0390   46.1990 N   0  0  0  0  0  0  0  0  0  0  0  0
   58.5280   27.6460   46.1260 C   0  0  0  0  0  0  0  0  0  0  0  0
   59.5470   26.6930   46.0050 C   0  0  0  0  0  0  0  0  0  0  0  0
   59.2380   25.3350   45.9110 C   0  0  0  0  0  0  0  0  0  0  0  0
   57.9060   24.9160   45.9190 C   0  0  0  0  0  0  0  0  0  0  0  0
   56.8660   25.8560   46.0120 C   0  0  0  0  0  0  0  0  0  0  0  0
   55.4550   25.4100   46.0000 C   0  0  0  0  0  0  0  0  0  0  0  0
   55.1690   24.1840   46.0550 O   0  0  0  0  0  0  0  0  0  0  0  0
   54.4220   26.3380   45.9230 O   0  0  0  0  0  0  0  0  0  0  0  0
   57.1860   27.2240   46.1070 C   0  0  0  0  0  0  0  0  0  0  0  0
   59.0800   31.8430   47.0920 C   0  0  0  0  0  0  0  0  0  0  0  0
   61.6810   33.6120   48.7300 C   0  0  0  0  0  0  0  0  0  0  0  0
   65.2006   32.5974   50.4303 H   0  0  0  0  0  0  0  0  0  0  0  0
   64.2435   32.2844   48.9428 H   0  0  0  0  0  0  0  0  0  0  0  0
   65.5136   33.5545   48.9428 H   0  0  0  0  0  0  0  0  0  0  0  0
   62.2320   33.9920   52.0849 H   0  0  0  0  0  0  0  0  0  0  0  0
   59.7640   33.6627   52.1207 H   0  0  0  0  0  0  0  0  0  0  0  0
   58.5153   33.2994   49.9961 H   0  0  0  0  0  0  0  0  0  0  0  0
   57.1001   31.2445   43.5983 H   0  0  0  0  0  0  0  0  0  0  0  0
   57.3879   32.9179   43.0119 H   0  0  0  0  0  0  0  0  0  0  0  0
   58.7292   31.7231   43.0119 H   0  0  0  0  0  0  0  0  0  0  0  0
   59.7710   29.2890   46.6770 H   0  0  0  0  0  0  0  0  0  0  0  0
   60.5981   27.0168   45.9839 H   0  0  0  0  0  0  0  0  0  0  0  0
   60.0460   24.5929   45.8304 H   0  0  0  0  0  0  0  0  0  0  0  0
   57.6696   23.8438   45.8521 H   0  0  0  0  0  0  0  0  0  0  0  0
   56.3794   27.9695   46.1669 H   0  0  0  0  0  0  0  0  0  0  0  0
   59.2624   31.0337   47.8144 H   0  0  0  0  0  0  0  0  0  0  0  0
   62.2238   33.6057   47.7733 H   0  0  0  0  0  0  0  0  0  0  0  0
  1  2  1  0
  2  3  1  0
  3  4  2  0
  4  5  1  0
  5  6  2  0
  6  7  1  0
  7  8  1  0
  8  9  2  0
  9 10  1  0
 10 11  2  0
 10 12  2  0
 10 13  1  0
 13 14  1  0
 13 15  1  0
 15 16  1  0
 16 17  2  0
 16 18  1  0
 18 19  1  0
 19 20  2  0
 20 21  1  0
 21 22  2  0
 22 23  1  0
 23 24  1  0
 24 25  2  0
 24 26  1  0
 23 27  2  0
 15 28  2  0
  7 29  2  0
 29  3  1  0
 28  8  1  0
 27 19  1  0
  1 30  1  0
  1 31  1  0
  1 32  1  0
  4 33  1  0
  5 34  1  0
  6 35  1  0
 14 36  1  0
 14 37  1  0
 14 38  1  0
 18 39  1  0
 20 40  1  0
 21 41  1  0
 22 42  1  0
 27 43  1  0
 28 44  1  0
 29 45  1  0
M  CHG  1  26  -1
M  END
>  <UniqueID>  (37) 
33

>  <SMILES>  (37) 
COc1cccc(C2=NS(=O)(=O)N(C)C(C(=O)Nc3cccc(C(=O)[O-])c3)=C2)c1

>  <Energy>  (37) 
64.86942511618275

>  <Genealogy>  (37) 
COc1cccc(C2=NS(=O)(=O)N(C)C(C(=O)Nc3cccc(C(=O)[O-])c3)=C2)c1 (protonated)
COc1cccc(C2=NS(=O)(=O)N(C)C(C(=O)Nc3cccc(C(=O)[O-])c3)=C2)c1 (3D coordinates assigned)
COc1cccc(C2=NS(=O)(=O)N(C)C(C(=O)Nc3cccc(C(=O)[O-])c3)=C2)c1 (nonaromatic ring conformer: 64.86942511618275 kcal/mol)

>  <smiles>  (37) 
COc1cccc(C2=NS(=O)(=O)N(C)C(C(=O)Nc3cccc(C(=O)O)c3)=C2)c1

>  <score_type>  (37) 
oracle

>  <origin>  (37) 
adg

>  <m_score__min__energy>  (37) 
-12.140000000000001

>  <m_primary>  (37) 
energy

$$$$
37:0
     RDKit          3D

 51 54  0  0  0  0  0  0  0  0999 V2000
   55.9460   24.2300   45.2840 C   0  0  0  0  0  0  0  0  0  0  0  0
   55.9550   25.6090   45.8680 C   0  0  0  0  0  0  0  0  0  0  0  0
   54.8590   26.2180   45.9960 O   0  0  0  0  0  0  0  0  0  0  0  0
   57.1920   26.2580   46.2470 N   0  0  0  0  0  0  0  0  0  0  0  0
   57.6340   27.3370   45.5250 C   0  0  0  0  0  0  0  0  0  0  0  0
   58.8170   28.0080   45.8730 C   0  0  0  0  0  0  0  0  0  0  0  0
   59.2920   29.1480   45.0690 C   0  0  0  0  0  0  0  0  0  0  0  0
   60.4780   29.1440   44.6340 O   0  0  0  0  0  0  0  0  0  0  0  0
   58.4360   30.2650   44.7760 N   0  0  0  0  0  0  0  0  0  0  0  0
   57.8310   30.5470   43.4680 C   0  0  0  0  0  0  0  0  0  0  0  0
   57.4080   32.0420   43.4990 C   0  0  0  0  0  0  0  0  0  0  0  0
   57.8100   32.4810   44.8650 C   0  0  0  0  0  0  0  0  0  0  0  0
   58.3790   31.4510   45.5400 C   0  0  0  0  0  0  0  0  0  0  0  0
   58.7800   31.5740   46.8270 N   0  0  0  0  0  0  0  0  0  0  0  0
   58.6360   32.7720   47.4620 C   0  0  0  0  0  0  0  0  0  0  0  0
   59.0530   32.9130   48.8300 N   0  0  0  0  0  0  0  0  0  0  0  0
   58.5440   31.9590   49.8210 C   0  0  0  0  0  0  0  0  0  0  0  0
   60.0650   33.9190   49.2040 C   0  0  0  0  0  0  0  0  0  0  0  0
   61.3620   33.7080   48.4660 C   0  0  0  0  0  0  0  0  0  0  0  0
   62.4610   33.1120   49.1140 C   0  0  0  0  0  0  0  0  0  0  0  0
   63.6350   32.8450   48.4060 C   0  0  0  0  0  0  0  0  0  0  0  0
   63.7220   33.1730   47.0510 C   0  0  0  0  0  0  0  0  0  0  0  0
   62.6390   33.7710   46.4010 C   0  0  0  0  0  0  0  0  0  0  0  0
   61.4610   34.0390   47.1040 C   0  0  0  0  0  0  0  0  0  0  0  0
   58.1010   33.8390   46.7870 N   0  0  0  0  0  0  0  0  0  0  0  0
   57.6750   33.7150   45.4960 C   0  0  0  0  0  0  0  0  0  0  0  0
   57.1620   34.6970   44.8960 O   0  0  0  0  0  0  0  0  0  0  0  0
   59.5610   27.5410   46.9590 C   0  0  0  0  0  0  0  0  0  0  0  0
   59.1090   26.4430   47.6870 C   0  0  0  0  0  0  0  0  0  0  0  0
   57.9190   25.8080   47.3220 C   0  0  0  0  0  0  0  0  0  0  0  0
   57.5390   24.8030   47.9860 O   0  0  0  0  0  0  0  0  0  0  0  0
   55.9412   23.4880   46.0960 H   0  0  0  0  0  0  0  0  0  0  0  0
   55.0470   24.1004   44.6635 H   0  0  0  0  0  0  0  0  0  0  0  0
   56.8432   24.0887   44.6635 H   0  0  0  0  0  0  0  0  0  0  0  0
   57.0515   27.6826   44.6583 H   0  0  0  0  0  0  0  0  0  0  0  0
   58.5621   30.3742   42.6645 H   0  0  0  0  0  0  0  0  0  0  0  0
   56.9696   29.8907   43.2750 H   0  0  0  0  0  0  0  0  0  0  0  0
   57.9391   32.6183   42.7272 H   0  0  0  0  0  0  0  0  0  0  0  0
   56.3375   32.1919   43.2952 H   0  0  0  0  0  0  0  0  0  0  0  0
   58.7466   32.3387   50.8333 H   0  0  0  0  0  0  0  0  0  0  0  0
   57.4594   31.8342   49.6865 H   0  0  0  0  0  0  0  0  0  0  0  0
   59.0442   30.9886   49.6865 H   0  0  0  0  0  0  0  0  0  0  0  0
   59.6776   34.9202   48.9643 H   0  0  0  0  0  0  0  0  0  0  0  0
   60.2641   33.8201   50.2813 H   0  0  0  0  0  0  0  0  0  0  0  0
   62.3947   32.8558   50.1817 H   0  0  0  0  0  0  0  0  0  0  0  0
   64.4904   32.3768   48.9150 H   0  0  0  0  0  0  0  0  0  0  0  0
   64.6461   32.9599   46.4937 H   0  0  0  0  0  0  0  0  0  0  0  0
   62.7137   34.0311   45.3348 H   0  0  0  0  0  0  0  0  0  0  0  0
   60.6100   34.5098   46.5901 H   0  0  0  0  0  0  0  0  0  0  0  0
   60.5012   28.0390   47.2385 H   0  0  0  0  0  0  0  0  0  0  0  0
   59.6877   26.0764   48.5476 H   0  0  0  0  0  0  0  0  0  0  0  0
  1  2  1  0
  2  3  2  0
  2  4  1  0
  4  5  1  0
  5  6  2  0
  6  7  1  0
  7  8  2  0
  7  9  1  0
  9 10  1  0
 10 11  1  0
 11 12  1  0
 12 13  2  0
 13 14  1  0
 14 15  1  0
 15 16  1  0
 16 17  1  0
 16 18  1  0
 18 19  1  0
 19 20  2  0
 20 21  1  0
 21 22  2  0
 22 23  1  0
 23 24  2  0
 15 25  2  0
 25 26  1  0
 26 27  2  0
  6 28  1  0
 28 29  2  0
 29 30  1  0
 30 31  2  0
 30  4  1  0
 13  9  1  0
 24 19  1  0
 26 12  1  0
  1 32  1  0
  1 33  1  0
  1 34  1  0
  5 35  1  0
 10 36  1  0
 10 37  1  0
 11 38  1  0
 11 39  1  0
 17 40  1  0
 17 41  1  0
 17 42  1  0
 18 43  1  0
 18 44  1  0
 20 45  1  0
 21 46  1  0
 22 47  1  0
 23 48  1  0
 24 49  1  0
 28 50  1  0
 29 51  1  0
M  CHG  1  14  -1
M  END
>  <UniqueID>  (38) 
34

>  <SMILES>  (38) 
CC(=O)n1cc(C(=O)N2CCc3c2[n-]c(N(C)Cc2ccccc2)nc3=O)ccc1=O

>  <Energy>  (38) 
82.1484225707201

>  <Genealogy>  (38) 
CC(=O)n1cc(C(=O)N2CCc3c2[n-]c(N(C)Cc2ccccc2)nc3=O)ccc1=O (protonated)
CC(=O)n1cc(C(=O)N2CCc3c2[n-]c(N(C)Cc2ccccc2)nc3=O)ccc1=O (3D coordinates assigned)
CC(=O)n1cc(C(=O)N2CCc3c2[n-]c(N(C)Cc2ccccc2)nc3=O)ccc1=O (nonaromatic ring conformer: 82.1484225707201 kcal/mol)

>  <smiles>  (38) 
CC(=O)n1cc(C(=O)N2CCc3c2[nH]c(N(C)Cc2ccccc2)nc3=O)ccc1=O

>  <score_type>  (38) 
oracle

>  <origin>  (38) 
adg

>  <m_score__min__energy>  (38) 
-10.4

>  <m_primary>  (38) 
energy

$$$$
38:0
     RDKit          3D

 77 79  0  0  0  0  0  0  0  0999 V2000
   56.6680   31.4850   51.9960 C   0  0  0  0  0  0  0  0  0  0  0  0
   57.6610   30.3500   52.2620 C   0  0  0  0  0  0  0  0  0  0  0  0
   59.0990   30.7030   51.8410 C   0  0  0  0  0  0  0  0  0  0  0  0
   59.7410   29.5980   51.0280 C   0  0  0  0  0  0  0  0  0  0  0  0
   60.7980   28.8380   51.5750 C   0  0  0  0  0  0  0  0  0  0  0  0
   61.3340   29.2030   52.8240 O   0  0  0  0  0  0  0  0  0  0  0  0
   62.3300   30.2010   53.0230 C   0  0  0  0  0  0  0  0  0  0  0  0
   62.4540   31.0530   51.7910 C   0  0  0  0  0  0  0  0  0  0  0  0
   61.7500   32.2660   51.7060 C   0  0  0  0  0  0  0  0  0  0  0  0
   61.7860   33.0240   50.5310 C   0  0  0  0  0  0  0  0  0  0  0  0
   62.5370   32.5850   49.4310 C   0  0  0  0  0  0  0  0  0  0  0  0
   62.4980   33.5000   47.9220 S   0  0  0  0  0  0  0  0  0  0  0  0
   63.7700   34.2850   47.7660 O   0  0  0  0  0  0  0  0  0  0  0  0
   62.3850   32.5470   46.7640 O   0  0  0  0  0  0  0  0  0  0  0  0
   61.1410   34.5910   47.8900 N   0  0  0  0  0  0  0  0  0  0  0  0
   59.8750   33.8560   47.9140 C   0  0  0  0  0  0  0  0  0  0  0  0
   59.0570   34.2070   46.6710 C   0  0  0  0  0  0  0  0  0  0  0  0
   58.6090   32.9580   45.9630 C   0  0  0  0  0  0  0  0  0  0  0  0
   57.8040   33.0390   44.8130 C   0  0  0  0  0  0  0  0  0  0  0  0
   57.2690   31.8800   44.2460 C   0  0  0  0  0  0  0  0  0  0  0  0
   57.5360   30.6300   44.8220 C   0  0  0  0  0  0  0  0  0  0  0  0
   56.7320   29.1740   44.2480 S   0  0  0  0  0  0  0  0  0  0  0  0
   55.3660   29.0390   44.8610 O   0  0  0  0  0  0  0  0  0  0  0  0
   56.6060   29.2350   42.7530 O   0  0  0  0  0  0  0  0  0  0  0  0
   57.6970   27.8040   44.6950 N   0  0  0  0  0  0  0  0  0  0  0  0
   57.9360   26.7220   43.7910 C   0  0  0  0  0  0  0  0  0  0  0  0
   58.3270   26.9570   42.6140 O   0  0  0  0  0  0  0  0  0  0  0  0
   57.6320   25.3190   44.2280 C   0  0  0  0  0  0  0  0  0  0  0  0
   57.5520   25.1830   45.7550 C   0  0  0  0  0  0  0  0  0  0  0  0
   56.1170   25.3930   46.2520 C   0  0  0  0  0  0  0  0  0  0  0  0
   55.6230   26.7250   45.9060 N   0  0  0  0  0  0  0  0  0  0  0  0
   58.3820   30.5460   45.9340 C   0  0  0  0  0  0  0  0  0  0  0  0
   58.9080   31.7020   46.5080 C   0  0  0  0  0  0  0  0  0  0  0  0
   63.2990   31.4110   49.5400 C   0  0  0  0  0  0  0  0  0  0  0  0
   63.2630   30.6510   50.7170 C   0  0  0  0  0  0  0  0  0  0  0  0
   61.2910   27.7370   50.8550 C   0  0  0  0  0  0  0  0  0  0  0  0
   60.7730   27.4180   49.6030 C   0  0  0  0  0  0  0  0  0  0  0  0
   59.7470   28.1810   49.0220 C   0  0  0  0  0  0  0  0  0  0  0  0
   59.2390   27.7820   47.6740 C   0  0  0  0  0  0  0  0  0  0  0  0
   60.1360   27.5930   46.4850 C   0  0  0  0  0  0  0  0  0  0  0  0
   58.0020   27.5930   47.5130 O   0  0  0  0  0  0  0  0  0  0  0  0
   59.2210   29.2710   49.7560 C   0  0  0  0  0  0  0  0  0  0  0  0
   58.1680   30.0260   49.2480 O   0  0  0  0  0  0  0  0  0  0  0  0
   56.3116   31.8923   52.9536 H   0  0  0  0  0  0  0  0  0  0  0  0
   57.1655   32.2804   51.4216 H   0  0  0  0  0  0  0  0  0  0  0  0
   55.8136   31.0976   51.4216 H   0  0  0  0  0  0  0  0  0  0  0  0
   57.6557   30.1238   53.3385 H   0  0  0  0  0  0  0  0  0  0  0  0
   57.3434   29.4851   51.6611 H   0  0  0  0  0  0  0  0  0  0  0  0
   59.0763   31.6214   51.2360 H   0  0  0  0  0  0  0  0  0  0  0  0
   59.6954   30.8422   52.7547 H   0  0  0  0  0  0  0  0  0  0  0  0
   62.0467   30.8338   53.8770 H   0  0  0  0  0  0  0  0  0  0  0  0
   63.2954   29.7139   53.2251 H   0  0  0  0  0  0  0  0  0  0  0  0
   61.1672   32.6216   52.5685 H   0  0  0  0  0  0  0  0  0  0  0  0
   61.2235   33.9673   50.4696 H   0  0  0  0  0  0  0  0  0  0  0  0
   60.0789   32.7751   47.9253 H   0  0  0  0  0  0  0  0  0  0  0  0
   59.3082   34.1322   48.8154 H   0  0  0  0  0  0  0  0  0  0  0  0
   58.1733   34.7888   46.9720 H   0  0  0  0  0  0  0  0  0  0  0  0
   59.6855   34.7966   45.9873 H   0  0  0  0  0  0  0  0  0  0  0  0
   57.5948   34.0185   44.3583 H   0  0  0  0  0  0  0  0  0  0  0  0
   56.6381   31.9480   43.3475 H   0  0  0  0  0  0  0  0  0  0  0  0
   56.6668   25.0163   43.7959 H   0  0  0  0  0  0  0  0  0  0  0  0
   58.4519   24.6748   43.8777 H   0  0  0  0  0  0  0  0  0  0  0  0
   57.8891   24.1767   46.0445 H   0  0  0  0  0  0  0  0  0  0  0  0
   58.1955   25.9510   46.2089 H   0  0  0  0  0  0  0  0  0  0  0  0
   55.4640   24.6378   45.7902 H   0  0  0  0  0  0  0  0  0  0  0  0
   56.1119   25.2953   47.3476 H   0  0  0  0  0  0  0  0  0  0  0  0
   56.2290   27.4430   46.3620 H   0  0  0  0  0  0  0  0  0  0  0  0
   55.7120   26.8570   44.8710 H   0  0  0  0  0  0  0  0  0  0  0  0
   58.6331   29.5622   46.3572 H   0  0  0  0  0  0  0  0  0  0  0  0
   59.5596   31.6283   47.3912 H   0  0  0  0  0  0  0  0  0  0  0  0
   63.9273   31.0861   48.6976 H   0  0  0  0  0  0  0  0  0  0  0  0
   63.8702   29.7374   50.7992 H   0  0  0  0  0  0  0  0  0  0  0  0
   62.0944   27.1208   51.2849 H   0  0  0  0  0  0  0  0  0  0  0  0
   61.1752   26.5513   49.0580 H   0  0  0  0  0  0  0  0  0  0  0  0
   61.1588   27.3775   46.8279 H   0  0  0  0  0  0  0  0  0  0  0  0
   59.7681   26.7527   45.8780 H   0  0  0  0  0  0  0  0  0  0  0  0
   60.1384   28.5104   45.8780 H   0  0  0  0  0  0  0  0  0  0  0  0
  1  2  1  0
  2  3  1  0
  3  4  1  0
  4  5  2  0
  5  6  1  0
  6  7  1  0
  7  8  1  0
  8  9  2  0
  9 10  1  0
 10 11  2  0
 11 12  1  0
 12 13  2  0
 12 14  2  0
 12 15  1  0
 15 16  1  0
 16 17  1  0
 17 18  1  0
 18 19  2  0
 19 20  1  0
 20 21  2  0
 21 22  1  0
 22 23  2  0
 22 24  2  0
 22 25  1  0
 25 26  1  0
 26 27  2  0
 26 28  1  0
 28 29  1  0
 29 30  1  0
 30 31  1  0
 21 32  1  0
 32 33  2  0
 11 34  1  0
 34 35  2  0
  5 36  1  0
 36 37  2  0
 37 38  1  0
 38 39  1  0
 39 40  1  0
 39 41  2  0
 38 42  2  0
 42 43  1  0
 42  4  1  0
 35  8  1  0
 33 18  1  0
  1 44  1  0
  1 45  1  0
  1 46  1  0
  2 47  1  0
  2 48  1  0
  3 49  1  0
  3 50  1  0
  7 51  1  0
  7 52  1  0
  9 53  1  0
 10 54  1  0
 16 55  1  0
 16 56  1  0
 17 57  1  0
 17 58  1  0
 19 59  1  0
 20 60  1  0
 28 61  1  0
 28 62  1  0
 29 63  1  0
 29 64  1  0
 30 65  1  0
 30 66  1  0
 31 67  1  0
 31 68  1  0
 32 69  1  0
 33 70  1  0
 34 71  1  0
 35 72  1  0
 36 73  1  0
 37 74  1  0
 40 75  1  0
 40 76  1  0
 40 77  1  0
M  CHG  3  15  -1  25  -1  43  -1
M  END
>  <UniqueID>  (39) 
35

>  <SMILES>  (39) 
CCCc1c(OCc2ccc(S(=O)(=O)[N-]CCc3ccc(S(=O)(=O)[N-]C(=O)CCCN)cc3)cc2)ccc(C(C)=O)c1[O-]

>  <Energy>  (39) 
67.43320468598768

>  <Genealogy>  (39) 
CCCc1c(OCc2ccc(S(=O)(=O)[N-]CCc3ccc(S(=O)(=O)[N-]C(=O)CCCN)cc3)cc2)ccc(C(C)=O)c1[O-] (protonated)
CCCc1c(OCc2ccc(S(=O)(=O)[N-]CCc3ccc(S(=O)(=O)[N-]C(=O)CCCN)cc3)cc2)ccc(C(C)=O)c1[O-] (3D coordinates assigned)
CCCc1c(OCc2ccc(S(=O)(=O)[N-]CCc3ccc(S(=O)(=O)[N-]C(=O)CCCN)cc3)cc2)ccc(C(C)=O)c1[O-] (optimized conformer: 67.43320468598768 kcal/mol)

>  <smiles>  (39) 
CCCc1c(OCc2ccc(S(=O)(=O)NCCc3ccc(S(=O)(=O)NC(=O)CCCN)cc3)cc2)ccc(C(C)=O)c1O

>  <score_type>  (39) 
oracle

>  <origin>  (39) 
adg

>  <m_score__min__energy>  (39) 
-13.98

>  <m_primary>  (39) 
energy

$$$$
39:0
     RDKit          3D

 45 47  0  0  0  0  0  0  0  0999 V2000
   50.0310   33.0510   51.9930 H   0  0  0  0  0  0  0  0  0  0  0  0
   51.0190   32.8590   51.7130 N   0  0  0  0  0  0  0  0  0  0  0  0
   51.3160   31.9810   50.6300 C   0  0  0  0  0  0  0  0  0  0  0  0
   50.9180   32.2750   49.4710 O   0  0  0  0  0  0  0  0  0  0  0  0
   52.1290   30.7620   50.8670 C   0  0  0  0  0  0  0  0  0  0  0  0
   52.7650   30.5110   52.0310 C   0  0  0  0  0  0  0  0  0  0  0  0
   52.1601   30.5224   52.9497 H   0  0  0  0  0  0  0  0  0  0  0  0
   54.2080   30.2220   52.1720 C   0  0  0  0  0  0  0  0  0  0  0  0
   54.6570   29.0640   52.8250 C   0  0  0  0  0  0  0  0  0  0  0  0
   53.9291   28.3375   53.2152 H   0  0  0  0  0  0  0  0  0  0  0  0
   56.0250   28.8310   52.9810 C   0  0  0  0  0  0  0  0  0  0  0  0
   56.3715   27.9131   53.4783 H   0  0  0  0  0  0  0  0  0  0  0  0
   56.9540   29.7590   52.5080 C   0  0  0  0  0  0  0  0  0  0  0  0
   58.0300   29.5614   52.6229 H   0  0  0  0  0  0  0  0  0  0  0  0
   56.5250   30.9440   51.8860 C   0  0  0  0  0  0  0  0  0  0  0  0
   57.5250   31.9240   51.3920 C   0  0  0  0  0  0  0  0  0  0  0  0
   57.9980   31.8170   50.1190 N   0  0  0  0  0  0  0  0  0  0  0  0
   58.9130   32.6940   49.6190 C   0  0  0  0  0  0  0  0  0  0  0  0
   59.3380   32.6080   48.3930 N   0  0  0  0  0  0  0  0  0  0  0  0
   58.6920   31.9660   47.2820 C   0  0  0  0  0  0  0  0  0  0  0  0
   57.8250   32.5040   46.3480 C   0  0  0  0  0  0  0  0  0  0  0  0
   57.5345   33.5625   46.2759 H   0  0  0  0  0  0  0  0  0  0  0  0
   57.3960   31.5130   45.5410 N   0  0  0  0  0  0  0  0  0  0  0  0
   57.9610   30.3820   45.9410 N   0  0  0  0  0  0  0  0  0  0  0  0
   57.7080   29.1150   45.3110 C   0  0  0  0  0  0  0  0  0  0  0  0
   57.1000   28.2190   45.9570 O   0  0  0  0  0  0  0  0  0  0  0  0
   58.1240   28.8590   43.9600 N   0  0  0  0  0  0  0  0  0  0  0  0
   58.5520   29.6160   43.3840 H   0  0  0  0  0  0  0  0  0  0  0  0
   57.9370   27.5510   43.3420 C   0  0  0  0  0  0  0  0  0  0  0  0
   57.8278   26.7873   44.1261 H   0  0  0  0  0  0  0  0  0  0  0  0
   57.0320   27.5668   42.7169 H   0  0  0  0  0  0  0  0  0  0  0  0
   58.8102   27.3126   42.7169 H   0  0  0  0  0  0  0  0  0  0  0  0
   58.7480   30.6190   47.0100 C   0  0  0  0  0  0  0  0  0  0  0  0
   59.3306   29.8691   47.5652 H   0  0  0  0  0  0  0  0  0  0  0  0
   59.3680   33.7040   50.4050 N   0  0  0  0  0  0  0  0  0  0  0  0
   58.9350   33.8500   51.6830 C   0  0  0  0  0  0  0  0  0  0  0  0
   59.3213   34.6721   52.3034 H   0  0  0  0  0  0  0  0  0  0  0  0
   58.0020   32.9600   52.2100 C   0  0  0  0  0  0  0  0  0  0  0  0
   57.6465   33.0669   53.2455 H   0  0  0  0  0  0  0  0  0  0  0  0
   55.1440   31.1680   51.7270 C   0  0  0  0  0  0  0  0  0  0  0  0
   54.7950   32.0950   51.2486 H   0  0  0  0  0  0  0  0  0  0  0  0
   52.2640   29.7720   49.7410 C   0  0  0  0  0  0  0  0  0  0  0  0
   52.4017   28.7623   50.1551 H   0  0  0  0  0  0  0  0  0  0  0  0
   51.3546   29.7938   49.1226 H   0  0  0  0  0  0  0  0  0  0  0  0
   53.1344   30.0365   49.1226 H   0  0  0  0  0  0  0  0  0  0  0  0
  1  2  1  0
  2  3  1  0
  3  4  2  0
  3  5  1  0
  5  6  2  3
  6  7  1  0
  6  8  1  0
  8  9  2  0
  9 10  1  0
  9 11  1  0
 11 12  1  0
 11 13  2  0
 13 14  1  0
 13 15  1  0
 15 16  1  0
 16 17  2  0
 17 18  1  0
 18 19  2  0
 19 20  1  0
 20 21  1  0
 21 22  1  0
 21 23  2  0
 23 24  1  0
 24 25  1  0
 25 26  2  0
 25 27  1  0
 27 28  1  0
 27 29  1  0
 29 30  1  0
 29 31  1  0
 29 32  1  0
 24 33  1  0
 33 34  1  0
 18 35  1  0
 35 36  1  0
 36 37  1  0
 36 38  2  0
 38 39  1  0
 15 40  2  0
 40 41  1  0
  5 42  1  0
 42 43  1  0
 42 44  1  0
 42 45  1  0
 40  8  1  0
 38 16  1  0
 33 20  2  0
M  CHG  2   2  -1  35  -1
M  END
>  <UniqueID>  (40) 
36

>  <SMILES>  (40) 
CNC(=O)n1cc(/N=c2\nc(-c3cccc(C=C(C)C([NH-])=O)c3)cc[n-]2)cn1

>  <Energy>  (40) 
92.34440445682405

>  <Genealogy>  (40) 
CNC(=O)n1cc(N=c2nc(-c3cccc(C=C(C)C([NH-])=O)c3)cc[n-]2)cn1 (protonated)
CNC(=O)n1cc(/N=c2\nc(-c3cccc(C=C(C)C([NH-])=O)c3)cc[n-]2)cn1 (cis-trans isomerization)
CNC(=O)n1cc(/N=c2\nc(-c3cccc(C=C(C)C([NH-])=O)c3)cc[n-]2)cn1 (3D coordinates assigned)
CNC(=O)n1cc(/N=c2\nc(-c3cccc(C=C(C)C([NH-])=O)c3)cc[n-]2)cn1 (optimized conformer: 92.34440445682405 kcal/mol)

>  <smiles>  (40) 
CNC(=O)n1cc(N=c2nc(-c3cccc(C=C(C)C(N)=O)c3)cc[nH]2)cn1

>  <score_type>  (40) 
oracle

>  <origin>  (40) 
adg

>  <m_score__min__energy>  (40) 
-13.67

>  <m_primary>  (40) 
energy

$$$$
40:0
     RDKit          3D

 44 46  0  0  0  0  0  0  0  0999 V2000
   57.0540   23.0220   47.7900 O   0  0  0  0  0  0  0  0  0  0  0  0
   56.9200   24.0500   47.0770 C   0  0  0  0  0  0  0  0  0  0  0  0
   58.0440   24.7490   46.6340 C   0  0  0  0  0  0  0  0  0  0  0  0
   57.8550   25.8980   45.8550 C   0  0  0  0  0  0  0  0  0  0  0  0
   59.0380   26.6660   45.3350 C   0  0  0  0  0  0  0  0  0  0  0  0
   59.2520   27.9080   46.1580 C   0  0  0  0  0  0  0  0  0  0  0  0
   60.1680   27.9060   47.2200 C   0  0  0  0  0  0  0  0  0  0  0  0
   60.3510   29.0550   47.9930 C   0  0  0  0  0  0  0  0  0  0  0  0
   59.6140   30.2090   47.7180 C   0  0  0  0  0  0  0  0  0  0  0  0
   58.6810   30.2250   46.6740 C   0  0  0  0  0  0  0  0  0  0  0  0
   57.9410   31.4300   46.4360 N   0  0  0  0  0  0  0  0  0  0  0  0
   57.4250   32.0050   44.8840 S   0  0  0  0  0  0  0  0  0  0  0  0
   58.4530   31.6110   43.8600 O   0  0  0  0  0  0  0  0  0  0  0  0
   56.1130   31.3690   44.5210 O   0  0  0  0  0  0  0  0  0  0  0  0
   57.2980   33.7910   44.9260 C   0  0  0  0  0  0  0  0  0  0  0  0
   58.6680   34.4770   44.8420 C   0  0  0  0  0  0  0  0  0  0  0  0
   59.4760   34.2830   46.1000 C   0  0  0  0  0  0  0  0  0  0  0  0
   58.9060   34.5190   47.3620 C   0  0  0  0  0  0  0  0  0  0  0  0
   59.6570   34.3140   48.5230 C   0  0  0  0  0  0  0  0  0  0  0  0
   60.9810   33.8740   48.4330 C   0  0  0  0  0  0  0  0  0  0  0  0
   61.5570   33.6420   47.1820 C   0  0  0  0  0  0  0  0  0  0  0  0
   60.8100   33.8470   46.0190 C   0  0  0  0  0  0  0  0  0  0  0  0
   58.5030   29.0660   45.8940 C   0  0  0  0  0  0  0  0  0  0  0  0
   56.5890   26.2900   45.5330 N   0  0  0  0  0  0  0  0  0  0  0  0
   55.5070   25.5910   45.9740 C   0  0  0  0  0  0  0  0  0  0  0  0
   54.3440   25.9680   45.6720 O   0  0  0  0  0  0  0  0  0  0  0  0
   55.6790   24.4830   46.7410 N   0  0  0  0  0  0  0  0  0  0  0  0
   59.0567   24.4050   46.8911 H   0  0  0  0  0  0  0  0  0  0  0  0
   59.9359   26.0331   45.3916 H   0  0  0  0  0  0  0  0  0  0  0  0
   58.8484   26.9549   44.2907 H   0  0  0  0  0  0  0  0  0  0  0  0
   60.7443   26.9965   47.4450 H   0  0  0  0  0  0  0  0  0  0  0  0
   61.0767   29.0509   48.8196 H   0  0  0  0  0  0  0  0  0  0  0  0
   59.7677   31.1125   48.3264 H   0  0  0  0  0  0  0  0  0  0  0  0
   56.6846   34.1216   44.0749 H   0  0  0  0  0  0  0  0  0  0  0  0
   56.8404   34.0722   45.8860 H   0  0  0  0  0  0  0  0  0  0  0  0
   59.2254   34.0538   43.9933 H   0  0  0  0  0  0  0  0  0  0  0  0
   58.4997   35.5560   44.7098 H   0  0  0  0  0  0  0  0  0  0  0  0
   57.8650   34.8664   47.4369 H   0  0  0  0  0  0  0  0  0  0  0  0
   59.2056   34.4991   49.5089 H   0  0  0  0  0  0  0  0  0  0  0  0
   61.5693   33.7105   49.3479 H   0  0  0  0  0  0  0  0  0  0  0  0
   62.5994   33.2977   47.1122 H   0  0  0  0  0  0  0  0  0  0  0  0
   61.2680   33.6663   45.0353 H   0  0  0  0  0  0  0  0  0  0  0  0
   57.7720   29.0679   45.0721 H   0  0  0  0  0  0  0  0  0  0  0  0
   56.4430   27.1390   44.9390 H   0  0  0  0  0  0  0  0  0  0  0  0
  1  2  2  0
  2  3  1  0
  3  4  2  0
  4  5  1  0
  5  6  1  0
  6  7  2  0
  7  8  1  0
  8  9  2  0
  9 10  1  0
 10 11  1  0
 11 12  1  0
 12 13  2  0
 12 14  2  0
 12 15  1  0
 15 16  1  0
 16 17  1  0
 17 18  2  0
 18 19  1  0
 19 20  2  0
 20 21  1  0
 21 22  2  0
 10 23  2  0
  4 24  1  0
 24 25  1  0
 25 26  2  0
 25 27  1  0
 27  2  1  0
 23  6  1  0
 22 17  1  0
  3 28  1  0
  5 29  1  0
  5 30  1  0
  7 31  1  0
  8 32  1  0
  9 33  1  0
 15 34  1  0
 15 35  1  0
 16 36  1  0
 16 37  1  0
 18 38  1  0
 19 39  1  0
 20 40  1  0
 21 41  1  0
 22 42  1  0
 23 43  1  0
 24 44  1  0
M  CHG  2  11  -1  27  -1
M  END
>  <UniqueID>  (41) 
37

>  <SMILES>  (41) 
O=c1cc(Cc2cccc([N-]S(=O)(=O)CCc3ccccc3)c2)[nH]c(=O)[n-]1

>  <Energy>  (41) 
40.45288932312639

>  <Genealogy>  (41) 
O=c1cc(Cc2cccc([N-]S(=O)(=O)CCc3ccccc3)c2)[nH]c(=O)[n-]1 (protonated)
O=c1cc(Cc2cccc([N-]S(=O)(=O)CCc3ccccc3)c2)[nH]c(=O)[n-]1 (3D coordinates assigned)
O=c1cc(Cc2cccc([N-]S(=O)(=O)CCc3ccccc3)c2)[nH]c(=O)[n-]1 (optimized conformer: 40.45288932312639 kcal/mol)

>  <smiles>  (41) 
O=c1cc(Cc2cccc(NS(=O)(=O)CCc3ccccc3)c2)[nH]c(=O)[nH]1

>  <score_type>  (41) 
oracle

>  <origin>  (41) 
adg

>  <m_score__min__energy>  (41) 
-12.52

>  <m_primary>  (41) 
energy

$$$$
41:0
     RDKit          3D

 53 55  0  0  0  0  0  0  0  0999 V2000
   55.1790   26.4300   45.9820 N   0  0  0  0  0  0  0  0  0  0  0  0
   56.4240   26.0900   46.5920 C   0  0  0  0  0  0  0  0  0  0  0  0
   56.4610   25.2020   47.4850 O   0  0  0  0  0  0  0  0  0  0  0  0
   57.6900   26.7700   46.1590 C   0  0  1  0  0  0  0  0  0  0  0  0
   58.7300   25.7280   45.7140 C   0  0  0  0  0  0  0  0  0  0  0  0
   58.0760   24.5870   44.9710 C   0  0  0  0  0  0  0  0  0  0  0  0
   58.1350   23.2790   45.4850 C   0  0  0  0  0  0  0  0  0  0  0  0
   57.4760   22.2340   44.8310 C   0  0  0  0  0  0  0  0  0  0  0  0
   56.7530   22.4860   43.6600 C   0  0  0  0  0  0  0  0  0  0  0  0
   56.6870   23.7850   43.1440 C   0  0  0  0  0  0  0  0  0  0  0  0
   57.3400   24.8340   43.7990 C   0  0  0  0  0  0  0  0  0  0  0  0
   57.4170   27.6830   45.0540 N   0  0  0  0  0  0  0  0  0  0  0  0
   56.8190   28.9740   45.1870 C   0  0  0  0  0  0  0  0  0  0  0  0
   55.5720   29.1140   45.0590 O   0  0  0  0  0  0  0  0  0  0  0  0
   57.6810   30.1300   45.4980 C   0  0  0  0  0  0  0  0  0  0  0  0
   57.7780   31.2850   44.5250 C   0  0  0  0  0  0  0  0  0  0  0  0
   58.1700   32.5630   45.2250 C   0  0  0  0  0  0  0  0  0  0  0  0
   58.9420   33.5310   44.5570 C   0  0  0  0  0  0  0  0  0  0  0  0
   59.3130   34.7110   45.2080 C   0  0  0  0  0  0  0  0  0  0  0  0
   58.9240   34.9340   46.5320 C   0  0  0  0  0  0  0  0  0  0  0  0
   58.1610   33.9770   47.2070 C   0  0  0  0  0  0  0  0  0  0  0  0
   57.7890   32.7940   46.5590 C   0  0  0  0  0  0  0  0  0  0  0  0
   58.3250   30.1010   46.6310 N   0  0  0  0  0  0  0  0  0  0  0  0
   59.9970   29.7350   46.9010 S   0  0  0  0  0  0  0  0  0  0  0  0
   60.1290   28.5600   47.8310 O   0  0  0  0  0  0  0  0  0  0  0  0
   60.6780   29.4270   45.5960 O   0  0  0  0  0  0  0  0  0  0  0  0
   60.7330   31.1560   47.6450 C   0  0  0  0  0  0  0  0  0  0  0  0
   61.9440   31.6600   47.1500 C   0  0  0  0  0  0  0  0  0  0  0  0
   62.4930   32.8100   47.7150 C   0  0  0  0  0  0  0  0  0  0  0  0
   61.8350   33.4500   48.7640 C   0  0  0  0  0  0  0  0  0  0  0  0
   60.6310   32.9270   49.2330 C   0  0  0  0  0  0  0  0  0  0  0  0
   60.1020   31.8020   48.6730 N   0  0  0  0  0  0  0  0  0  0  0  0
   58.9050   31.3230   49.1590 O   0  0  0  0  0  0  0  0  0  0  0  0
   55.1420   27.0730   45.1610 H   0  0  0  0  0  0  0  0  0  0  0  0
   58.0889   27.3382   47.0123 H   0  0  0  0  0  0  0  0  0  0  0  0
   59.4638   26.2128   45.0533 H   0  0  0  0  0  0  0  0  0  0  0  0
   59.2232   25.3232   46.6100 H   0  0  0  0  0  0  0  0  0  0  0  0
   58.7022   23.0775   46.4057 H   0  0  0  0  0  0  0  0  0  0  0  0
   57.5259   21.2130   45.2372 H   0  0  0  0  0  0  0  0  0  0  0  0
   56.2363   21.6628   43.1449 H   0  0  0  0  0  0  0  0  0  0  0  0
   56.1206   23.9814   42.2217 H   0  0  0  0  0  0  0  0  0  0  0  0
   57.2775   25.8556   43.3959 H   0  0  0  0  0  0  0  0  0  0  0  0
   58.5345   31.0480   43.7625 H   0  0  0  0  0  0  0  0  0  0  0  0
   56.7907   31.4322   44.0628 H   0  0  0  0  0  0  0  0  0  0  0  0
   59.2553   33.3583   43.5168 H   0  0  0  0  0  0  0  0  0  0  0  0
   59.9122   35.4656   44.6774 H   0  0  0  0  0  0  0  0  0  0  0  0
   59.2184   35.8627   47.0427 H   0  0  0  0  0  0  0  0  0  0  0  0
   57.8529   34.1539   48.2480 H   0  0  0  0  0  0  0  0  0  0  0  0
   57.1949   32.0400   47.0962 H   0  0  0  0  0  0  0  0  0  0  0  0
   62.4577   31.1512   46.3210 H   0  0  0  0  0  0  0  0  0  0  0  0
   63.4435   33.2116   47.3338 H   0  0  0  0  0  0  0  0  0  0  0  0
   62.2610   34.3575   49.2166 H   0  0  0  0  0  0  0  0  0  0  0  0
   60.1042   33.4251   50.0603 H   0  0  0  0  0  0  0  0  0  0  0  0
  1  2  1  0
  2  3  2  0
  2  4  1  0
  4  5  1  0
  5  6  1  0
  6  7  2  0
  7  8  1  0
  8  9  2  0
  9 10  1  0
 10 11  2  0
  4 12  1  0
 12 13  1  0
 13 14  2  0
 13 15  1  0
 15 16  1  0
 16 17  1  0
 17 18  2  0
 18 19  1  0
 19 20  2  0
 20 21  1  0
 21 22  2  0
 15 23  2  3
 23 24  1  0
 24 25  2  0
 24 26  2  0
 24 27  1  0
 27 28  2  0
 28 29  1  0
 29 30  2  0
 30 31  1  0
 31 32  2  0
 32 33  1  0
 11  6  1  0
 22 17  1  0
 32 27  1  0
  1 34  1  0
  4 35  1  1
  5 36  1  0
  5 37  1  0
  7 38  1  0
  8 39  1  0
  9 40  1  0
 10 41  1  0
 11 42  1  0
 16 43  1  0
 16 44  1  0
 18 45  1  0
 19 46  1  0
 20 47  1  0
 21 48  1  0
 22 49  1  0
 28 50  1  0
 29 51  1  0
 30 52  1  0
 31 53  1  0
M  CHG  4   1  -1  12  -1  32   1  33  -1
M  END
>  <UniqueID>  (42) 
38

>  <SMILES>  (42) 
[NH-]C(=O)[C@@H](Cc1ccccc1)[N-]C(=O)C(Cc1ccccc1)=NS(=O)(=O)c1cccc[n+]1[O-]

>  <Energy>  (42) 
53.89749053609597

>  <Genealogy>  (42) 
[NH-]C(=O)C(Cc1ccccc1)[N-]C(=O)C(Cc1ccccc1)=NS(=O)(=O)c1cccc[n+]1[O-] (protonated)
[NH-]C(=O)[C@@H](Cc1ccccc1)[N-]C(=O)C(Cc1ccccc1)=NS(=O)(=O)c1cccc[n+]1[O-] (chirality)
[NH-]C(=O)[C@@H](Cc1ccccc1)[N-]C(=O)C(Cc1ccccc1)=NS(=O)(=O)c1cccc[n+]1[O-] (3D coordinates assigned)
[NH-]C(=O)[C@@H](Cc1ccccc1)[N-]C(=O)C(Cc1ccccc1)=NS(=O)(=O)c1cccc[n+]1[O-] (optimized conformer: 53.89749053609597 kcal/mol)

>  <smiles>  (42) 
NC(=O)C(Cc1ccccc1)NC(=O)C(Cc1ccccc1)=NS(=O)(=O)c1cccc[n+]1[O-]

>  <score_type>  (42) 
oracle

>  <origin>  (42) 
adg

>  <m_score__min__energy>  (42) 
-14.66

>  <m_primary>  (42) 
energy

$$$$
42:0
     RDKit          3D

 70 75  0  0  0  0  0  0  0  0999 V2000
   54.4930   24.4920   47.1280 H   0  0  0  0  0  0  0  0  0  0  0  0
   55.4710   24.2310   47.0780 O   0  0  0  0  0  0  0  0  0  0  0  0
   56.4660   25.1740   46.8340 C   0  0  0  0  0  0  0  0  0  0  0  0
   57.8040   24.8930   47.1420 C   0  0  0  0  0  0  0  0  0  0  0  0
   58.0720   23.9221   47.5842 H   0  0  0  0  0  0  0  0  0  0  0  0
   58.7980   25.8400   46.8900 C   0  0  0  0  0  0  0  0  0  0  0  0
   59.8449   25.6143   47.1411 H   0  0  0  0  0  0  0  0  0  0  0  0
   58.4670   27.0850   46.3150 C   0  0  0  0  0  0  0  0  0  0  0  0
   59.4910   28.1220   46.0420 C   0  0  0  0  0  0  0  0  0  0  0  0
   59.5329   28.5694   45.0380 H   0  0  0  0  0  0  0  0  0  0  0  0
   60.3690   28.5380   46.9680 C   0  0  0  0  0  0  0  0  0  0  0  0
   60.7322   27.8174   47.7155 H   0  0  0  0  0  0  0  0  0  0  0  0
   60.8660   29.9300   47.0200 C   0  0  0  0  0  0  0  0  0  0  0  0
   61.3790   30.4600   45.9980 O   0  0  0  0  0  0  0  0  0  0  0  0
   60.8270   30.6830   48.2410 N   0  0  0  0  0  0  0  0  0  0  0  0
   59.8410   30.5470   49.2770 C   0  0  0  0  0  0  0  0  0  0  0  0
   59.8270   29.3980   50.0830 C   0  0  0  0  0  0  0  0  0  0  0  0
   60.5818   28.6137   49.9244 H   0  0  0  0  0  0  0  0  0  0  0  0
   58.8690   29.2390   51.0810 C   0  0  0  0  0  0  0  0  0  0  0  0
   58.8897   28.3444   51.7207 H   0  0  0  0  0  0  0  0  0  0  0  0
   57.8770   30.2130   51.2760 C   0  0  0  0  0  0  0  0  0  0  0  0
   56.9010   30.0830   52.3850 C   0  0  0  0  0  0  0  0  0  0  0  0
   55.5990   30.4260   52.1940 N   0  0  0  0  0  0  0  0  0  0  0  0
   54.6870   30.2700   53.1850 C   0  0  0  0  0  0  0  0  0  0  0  0
   53.3480   30.6060   52.9650 C   0  0  0  0  0  0  0  0  0  0  0  0
   53.0401   31.0259   51.9960 H   0  0  0  0  0  0  0  0  0  0  0  0
   52.3940   30.4090   53.9780 C   0  0  0  0  0  0  0  0  0  0  0  0
   50.9430   30.7350   53.7290 C   0  0  0  0  0  0  0  0  0  0  0  0
   50.6997   30.5134   52.6794 H   0  0  0  0  0  0  0  0  0  0  0  0
   50.3261   30.1249   54.4052 H   0  0  0  0  0  0  0  0  0  0  0  0
   50.6600   32.1920   54.0040 C   0  0  0  0  0  0  0  0  0  0  0  0
   50.4970   32.6230   55.3330 C   0  0  0  0  0  0  0  0  0  0  0  0
   50.5960   31.9024   56.1582 H   0  0  0  0  0  0  0  0  0  0  0  0
   50.2100   33.9620   55.6100 C   0  0  0  0  0  0  0  0  0  0  0  0
   50.0860   34.2927   56.6518 H   0  0  0  0  0  0  0  0  0  0  0  0
   50.0800   34.8830   54.5650 C   0  0  0  0  0  0  0  0  0  0  0  0
   49.8579   35.9374   54.7863 H   0  0  0  0  0  0  0  0  0  0  0  0
   50.2320   34.4650   53.2410 C   0  0  0  0  0  0  0  0  0  0  0  0
   50.1276   35.1910   52.4213 H   0  0  0  0  0  0  0  0  0  0  0  0
   50.5170   33.1240   52.9540 C   0  0  0  0  0  0  0  0  0  0  0  0
   50.6560   32.7310   51.6280 O   0  0  0  0  0  0  0  0  0  0  0  0
   52.8000   29.8720   55.2130 C   0  0  0  0  0  0  0  0  0  0  0  0
   52.0561   29.7002   56.0049 H   0  0  0  0  0  0  0  0  0  0  0  0
   54.1430   29.5550   55.4410 C   0  0  0  0  0  0  0  0  0  0  0  0
   54.4558   29.1553   56.4169 H   0  0  0  0  0  0  0  0  0  0  0  0
   55.0920   29.7470   54.4240 C   0  0  0  0  0  0  0  0  0  0  0  0
   56.4500   29.4240   54.5760 C   0  0  0  0  0  0  0  0  0  0  0  0
   56.8850   28.9600   55.6630 O   0  0  0  0  0  0  0  0  0  0  0  0
   57.2910   29.6000   53.5620 O   0  0  0  0  0  0  0  0  0  0  0  0
   57.8550   31.3410   50.4370 C   0  0  0  0  0  0  0  0  0  0  0  0
   57.0600   32.0912   50.5599 H   0  0  0  0  0  0  0  0  0  0  0  0
   58.8340   31.5260   49.4420 C   0  0  0  0  0  0  0  0  0  0  0  0
   58.8090   32.7680   48.6290 C   0  0  0  0  0  0  0  0  0  0  0  0
   57.8390   32.9870   47.8510 O   0  0  0  0  0  0  0  0  0  0  0  0
   59.8380   33.7520   48.7920 N   0  0  0  0  0  0  0  0  0  0  0  0
   61.1930   33.6800   48.3250 C   0  0  0  0  0  0  0  0  0  0  0  0
   61.4360   33.8820   46.9610 C   0  0  0  0  0  0  0  0  0  0  0  0
   60.5955   34.0797   46.2795 H   0  0  0  0  0  0  0  0  0  0  0  0
   62.7400   33.8340   46.4600 C   0  0  0  0  0  0  0  0  0  0  0  0
   62.9214   33.9758   45.3844 H   0  0  0  0  0  0  0  0  0  0  0  0
   63.8130   33.6060   47.3250 C   0  0  0  0  0  0  0  0  0  0  0  0
   64.8388   33.5672   46.9298 H   0  0  0  0  0  0  0  0  0  0  0  0
   63.5840   33.4270   48.6930 C   0  0  0  0  0  0  0  0  0  0  0  0
   64.4304   33.2554   49.3743 H   0  0  0  0  0  0  0  0  0  0  0  0
   62.2800   33.4660   49.1950 C   0  0  0  0  0  0  0  0  0  0  0  0
   62.1023   33.3293   50.2719 H   0  0  0  0  0  0  0  0  0  0  0  0
   57.1210   27.3690   46.0300 C   0  0  0  0  0  0  0  0  0  0  0  0
   56.8465   28.3450   45.6032 H   0  0  0  0  0  0  0  0  0  0  0  0
   56.1270   26.4170   46.2860 C   0  0  0  0  0  0  0  0  0  0  0  0
   54.8010   26.7100   45.9900 O   0  0  0  0  0  0  0  0  0  0  0  0
  1  2  1  0
  2  3  1  0
  3  4  2  0
  4  5  1  0
  4  6  1  0
  6  7  1  0
  6  8  2  0
  8  9  1  0
  9 10  1  0
  9 11  2  0
 11 12  1  0
 11 13  1  0
 13 14  2  0
 13 15  1  0
 15 16  1  0
 16 17  2  0
 17 18  1  0
 17 19  1  0
 19 20  1  0
 19 21  2  0
 21 22  1  0
 22 23  2  0
 23 24  1  0
 24 25  2  0
 25 26  1  0
 25 27  1  0
 27 28  1  0
 28 29  1  0
 28 30  1  0
 28 31  1  0
 31 32  2  0
 32 33  1  0
 32 34  1  0
 34 35  1  0
 34 36  2  0
 36 37  1  0
 36 38  1  0
 38 39  1  0
 38 40  2  0
 40 41  1  0
 27 42  2  0
 42 43  1  0
 42 44  1  0
 44 45  1  0
 44 46  2  0
 46 47  1  0
 47 48  2  0
 47 49  1  0
 21 50  1  0
 50 51  1  0
 50 52  2  0
 52 53  1  0
 53 54  2  0
 53 55  1  0
 55 56  1  0
 56 57  2  0
 57 58  1  0
 57 59  1  0
 59 60  1  0
 59 61  2  0
 61 62  1  0
 61 63  1  0
 63 64  1  0
 63 65  2  0
 65 66  1  0
  8 67  1  0
 67 68  1  0
 67 69  2  0
 69 70  1  0
 69  3  1  0
 52 16  1  0
 65 56  1  0
 49 22  1  0
 46 24  1  0
 40 31  1  0
M  CHG  4  15  -1  41  -1  55  -1  70  -1
M  END
>  <UniqueID>  (43) 
39

>  <SMILES>  (43) 
O=C(/C=C/c1ccc(O)c([O-])c1)[N-]c1ccc(-c2nc3cc(Cc4ccccc4[O-])ccc3c(=O)o2)cc1C(=O)[N-]c1ccccc1

>  <Energy>  (43) 
99.50841070540731

>  <Genealogy>  (43) 
O=C(C=Cc1ccc(O)c([O-])c1)[N-]c1ccc(-c2nc3cc(Cc4ccccc4[O-])ccc3c(=O)o2)cc1C(=O)[N-]c1ccccc1 (protonated)
O=C(/C=C/c1ccc(O)c([O-])c1)[N-]c1ccc(-c2nc3cc(Cc4ccccc4[O-])ccc3c(=O)o2)cc1C(=O)[N-]c1ccccc1 (cis-trans isomerization)
O=C(/C=C/c1ccc(O)c([O-])c1)[N-]c1ccc(-c2nc3cc(Cc4ccccc4[O-])ccc3c(=O)o2)cc1C(=O)[N-]c1ccccc1 (3D coordinates assigned)
O=C(/C=C/c1ccc(O)c([O-])c1)[N-]c1ccc(-c2nc3cc(Cc4ccccc4[O-])ccc3c(=O)o2)cc1C(=O)[N-]c1ccccc1 (optimized conformer: 99.50841070540731 kcal/mol)

>  <smiles>  (43) 
O=C(C=Cc1ccc(O)c(O)c1)Nc1ccc(-c2nc3cc(Cc4ccccc4O)ccc3c(=O)o2)cc1C(=O)Nc1ccccc1

>  <score_type>  (43) 
oracle

>  <origin>  (43) 
adg

>  <m_score__min__energy>  (43) 
-21.870000000000001

>  <m_primary>  (43) 
energy

$$$$
43:0
     RDKit          3D

 29 30  0  0  0  0  0  0  0  0999 V2000
   59.2700   35.2650   47.0810 C   0  0  0  0  0  0  0  0  0  0  0  0
   58.7650   34.2330   46.1170 C   0  0  0  0  0  0  0  0  0  0  0  0
   59.0820   34.3240   44.7540 C   0  0  0  0  0  0  0  0  0  0  0  0
   58.5730   33.3900   43.8460 C   0  0  0  0  0  0  0  0  0  0  0  0
   57.7120   32.3740   44.2860 C   0  0  0  0  0  0  0  0  0  0  0  0
   57.1760   31.4050   43.3080 C   0  0  0  0  0  0  0  0  0  0  0  0
   57.3180   30.0710   43.3890 C   0  0  0  0  0  0  0  0  0  0  0  0
   57.9890   29.3450   44.4910 C   0  0  0  0  0  0  0  0  0  0  0  0
   59.1150   29.7580   44.8740 O   0  0  0  0  0  0  0  0  0  0  0  0
   57.4160   28.1270   45.1220 C   0  0  0  0  0  0  0  0  0  0  0  0
   56.0260   27.9930   45.2880 C   0  0  0  0  0  0  0  0  0  0  0  0
   55.1590   28.9960   44.8700 O   0  0  0  0  0  0  0  0  0  0  0  0
   55.5130   26.8640   45.8410 N   0  0  0  0  0  0  0  0  0  0  0  0
   56.3200   25.8530   46.2500 C   0  0  0  0  0  0  0  0  0  0  0  0
   55.8210   24.8140   46.7530 O   0  0  0  0  0  0  0  0  0  0  0  0
   57.6660   25.9620   46.1190 N   0  0  0  0  0  0  0  0  0  0  0  0
   58.2320   27.0700   45.5760 C   0  0  0  0  0  0  0  0  0  0  0  0
   59.4870   27.1430   45.4960 O   0  0  0  0  0  0  0  0  0  0  0  0
   57.4110   32.2700   45.6540 C   0  0  0  0  0  0  0  0  0  0  0  0
   57.9190   33.2050   46.5610 C   0  0  0  0  0  0  0  0  0  0  0  0
   59.1005   34.9185   48.1112 H   0  0  0  0  0  0  0  0  0  0  0  0
   60.3467   35.4219   46.9194 H   0  0  0  0  0  0  0  0  0  0  0  0
   58.7332   36.2115   46.9194 H   0  0  0  0  0  0  0  0  0  0  0  0
   59.7346   35.1344   44.3971 H   0  0  0  0  0  0  0  0  0  0  0  0
   58.8489   33.4524   42.7830 H   0  0  0  0  0  0  0  0  0  0  0  0
   56.6185   31.8057   42.4485 H   0  0  0  0  0  0  0  0  0  0  0  0
   56.9011   29.4686   42.5684 H   0  0  0  0  0  0  0  0  0  0  0  0
   56.7728   31.4493   46.0134 H   0  0  0  0  0  0  0  0  0  0  0  0
   57.6546   33.1346   47.6264 H   0  0  0  0  0  0  0  0  0  0  0  0
  1  2  1  0
  2  3  2  0
  3  4  1  0
  4  5  2  0
  5  6  1  0
  6  7  2  3
  7  8  1  0
  8  9  2  0
  8 10  1  0
 10 11  2  0
 11 12  1  0
 11 13  1  0
 13 14  1  0
 14 15  2  0
 14 16  1  0
 16 17  1  0
 17 18  2  0
  5 19  1  0
 19 20  2  0
 20  2  1  0
 17 10  1  0
  1 21  1  0
  1 22  1  0
  1 23  1  0
  3 24  1  0
  4 25  1  0
  6 26  1  0
  7 27  1  0
 19 28  1  0
 20 29  1  0
M  CHG  3  12  -1  13  -1  16  -1
M  END
>  <UniqueID>  (44) 
40

>  <SMILES>  (44) 
Cc1ccc(C=CC(=O)c2c([O-])[n-]c(=O)[n-]c2=O)cc1

>  <Energy>  (44) 
43.0309095228652

>  <Genealogy>  (44) 
Cc1ccc(C=CC(=O)c2c([O-])[n-]c(=O)[n-]c2=O)cc1 (protonated)
Cc1ccc(C=CC(=O)c2c([O-])[n-]c(=O)[n-]c2=O)cc1 (3D coordinates assigned)
Cc1ccc(C=CC(=O)c2c([O-])[n-]c(=O)[n-]c2=O)cc1 (optimized conformer: 43.0309095228652 kcal/mol)

>  <smiles>  (44) 
Cc1ccc(C=CC(=O)c2c(O)[nH]c(=O)[nH]c2=O)cc1

>  <score_type>  (44) 
oracle

>  <origin>  (44) 
adg

>  <m_score__min__energy>  (44) 
-14.619999999999999

>  <m_primary>  (44) 
energy

$$$$
44:0
     RDKit          3D

 30 32  0  0  0  0  0  0  0  0999 V2000
   55.1230   28.0580   44.9360 H   0  0  0  0  0  0  0  0  0  0  0  0
   55.1230   28.9680   44.4910 O   0  0  0  0  0  0  0  0  0  0  0  0
   56.0910   29.9200   44.7900 C   0  0  0  0  0  0  0  0  0  0  0  0
   55.9450   31.2340   44.4950 N   0  0  0  0  0  0  0  0  0  0  0  0
   57.0680   31.8100   44.9710 C   0  0  0  0  0  0  0  0  0  0  0  0
   57.4090   33.1590   44.8940 C   0  0  0  0  0  0  0  0  0  0  0  0
   56.7318   33.8881   44.4252 H   0  0  0  0  0  0  0  0  0  0  0  0
   58.6440   33.5610   45.4330 C   0  0  0  0  0  0  0  0  0  0  0  0
   58.9402   34.6194   45.3873 H   0  0  0  0  0  0  0  0  0  0  0  0
   59.5080   32.6170   46.0330 C   0  0  0  0  0  0  0  0  0  0  0  0
   61.1870   33.1790   46.7450 Br  0  0  0  0  0  0  0  0  0  0  0  0
   59.1400   31.2590   46.0990 C   0  0  0  0  0  0  0  0  0  0  0  0
   59.8024   30.5113   46.5597 H   0  0  0  0  0  0  0  0  0  0  0  0
   57.9070   30.8960   45.5600 C   0  0  0  0  0  0  0  0  0  0  0  0
   57.3000   29.6750   45.4320 C   0  0  0  0  0  0  0  0  0  0  0  0
   57.8230   28.4140   45.8760 N   0  0  0  0  0  0  0  0  0  0  0  0
   57.4920   27.8300   46.9650 N   0  0  0  0  0  0  0  0  0  0  0  0
   57.8550   26.4880   47.3320 C   0  0  0  0  0  0  0  0  0  0  0  0
   58.9050   26.3070   48.0040 O   0  0  0  0  0  0  0  0  0  0  0  0
   57.0590   25.3140   46.9030 C   0  0  0  0  0  0  0  0  0  0  0  0
   57.5650   24.0200   47.1160 C   0  0  0  0  0  0  0  0  0  0  0  0
   58.5646   23.8896   47.5562 H   0  0  0  0  0  0  0  0  0  0  0  0
   56.8060   22.8980   46.7720 C   0  0  0  0  0  0  0  0  0  0  0  0
   57.3070   21.6230   47.0030 O   0  0  0  0  0  0  0  0  0  0  0  0
   55.5420   23.0570   46.1980 C   0  0  0  0  0  0  0  0  0  0  0  0
   54.9423   22.1731   45.9351 H   0  0  0  0  0  0  0  0  0  0  0  0
   55.0400   24.3380   45.9580 C   0  0  0  0  0  0  0  0  0  0  0  0
   54.0474   24.4606   45.5000 H   0  0  0  0  0  0  0  0  0  0  0  0
   55.7950   25.4660   46.2980 C   0  0  0  0  0  0  0  0  0  0  0  0
   55.2840   26.7300   46.0190 O   0  0  0  0  0  0  0  0  0  0  0  0
  1  2  1  0
  2  3  1  0
  3  4  1  0
  4  5  1  0
  5  6  2  0
  6  7  1  0
  6  8  1  0
  8  9  1  0
  8 10  2  0
 10 11  1  0
 10 12  1  0
 12 13  1  0
 12 14  2  0
 14 15  1  0
 15 16  1  0
 16 17  2  0
 17 18  1  0
 18 19  2  0
 18 20  1  0
 20 21  2  0
 21 22  1  0
 21 23  1  0
 23 24  1  0
 23 25  2  0
 25 26  1  0
 25 27  1  0
 27 28  1  0
 27 29  2  0
 29 30  1  0
 15  3  2  0
 29 20  1  0
 14  5  1  0
M  CHG  3   4  -1  24  -1  30  -1
M  END
>  <UniqueID>  (45) 
41

>  <SMILES>  (45) 
O=C(/N=N\c1c(O)[n-]c2ccc(Br)cc12)c1cc([O-])ccc1[O-]

>  <Energy>  (45) 
81.23434558460332

>  <Genealogy>  (45) 
O=C(N=Nc1c(O)[n-]c2ccc(Br)cc12)c1cc([O-])ccc1[O-] (protonated)
O=C(/N=N\c1c(O)[n-]c2ccc(Br)cc12)c1cc([O-])ccc1[O-] (cis-trans isomerization)
O=C(/N=N\c1c(O)[n-]c2ccc(Br)cc12)c1cc([O-])ccc1[O-] (3D coordinates assigned)
O=C(/N=N\c1c(O)[n-]c2ccc(Br)cc12)c1cc([O-])ccc1[O-] (optimized conformer: 81.23434558460332 kcal/mol)

>  <smiles>  (45) 
O=C(N=Nc1c(O)[nH]c2ccc(Br)cc12)c1cc(O)ccc1O

>  <score_type>  (45) 
oracle

>  <origin>  (45) 
adg

>  <m_score__min__energy>  (45) 
-15.81

>  <m_primary>  (45) 
energy

$$$$
45:0
     RDKit          3D

 39 41  0  0  0  0  0  0  0  0999 V2000
   58.5370   32.8070   50.0800 O   0  0  0  0  0  0  0  0  0  0  0  0
   59.2490   32.6310   49.0580 C   0  0  0  0  0  0  0  0  0  0  0  0
   59.9520   33.7530   48.5070 N   0  0  0  0  0  0  0  0  0  0  0  0
   59.3220   34.8690   47.8120 C   0  0  0  0  0  0  0  0  0  0  0  0
   58.8340   34.4090   46.4790 C   0  0  0  0  0  0  0  0  0  0  0  0
   59.5910   34.3290   45.3180 C   0  0  0  0  0  0  0  0  0  0  0  0
   58.8750   33.8160   44.2280 C   0  0  0  0  0  0  0  0  0  0  0  0
   57.5610   33.4790   44.5320 C   0  0  0  0  0  0  0  0  0  0  0  0
   57.2900   33.8210   46.1580 S   0  0  0  0  0  0  0  0  0  0  0  0
   59.2990   31.2890   48.4420 C   0  0  0  0  0  0  0  0  0  0  0  0
   60.0640   30.2600   49.0170 C   0  0  0  0  0  0  0  0  0  0  0  0
   60.0870   28.9890   48.4310 C   0  0  0  0  0  0  0  0  0  0  0  0
   59.3440   28.7340   47.2750 C   0  0  0  0  0  0  0  0  0  0  0  0
   58.5580   29.7460   46.7080 C   0  0  0  0  0  0  0  0  0  0  0  0
   57.5890   29.4380   45.2690 S   0  0  0  0  0  0  0  0  0  0  0  0
   56.8550   30.6980   44.9030 O   0  0  0  0  0  0  0  0  0  0  0  0
   58.4540   29.0340   44.1070 O   0  0  0  0  0  0  0  0  0  0  0  0
   56.4360   28.1860   45.6010 N   0  0  0  0  0  0  0  0  0  0  0  0
   56.7460   26.7980   45.7930 C   0  0  0  0  0  0  0  0  0  0  0  0
   58.0710   26.3240   45.8010 C   0  0  0  0  0  0  0  0  0  0  0  0
   58.3320   24.9650   46.0010 C   0  0  0  0  0  0  0  0  0  0  0  0
   57.2790   24.0680   46.1900 C   0  0  0  0  0  0  0  0  0  0  0  0
   55.9600   24.5270   46.1690 C   0  0  0  0  0  0  0  0  0  0  0  0
   55.6920   25.8870   45.9720 C   0  0  0  0  0  0  0  0  0  0  0  0
   54.3750   26.3300   45.9700 O   0  0  0  0  0  0  0  0  0  0  0  0
   58.5320   31.0180   47.2980 C   0  0  0  0  0  0  0  0  0  0  0  0
   58.4735   35.2396   48.4059 H   0  0  0  0  0  0  0  0  0  0  0  0
   60.0541   35.6787   47.6765 H   0  0  0  0  0  0  0  0  0  0  0  0
   60.6454   34.6369   45.2596 H   0  0  0  0  0  0  0  0  0  0  0  0
   59.3117   33.6917   43.2261 H   0  0  0  0  0  0  0  0  0  0  0  0
   56.8245   33.0605   43.8303 H   0  0  0  0  0  0  0  0  0  0  0  0
   60.6462   30.4538   49.9299 H   0  0  0  0  0  0  0  0  0  0  0  0
   60.6918   28.1883   48.8818 H   0  0  0  0  0  0  0  0  0  0  0  0
   59.3763   27.7377   46.8098 H   0  0  0  0  0  0  0  0  0  0  0  0
   58.9047   27.0254   45.6493 H   0  0  0  0  0  0  0  0  0  0  0  0
   59.3702   24.6015   46.0095 H   0  0  0  0  0  0  0  0  0  0  0  0
   57.4879   23.0007   46.3553 H   0  0  0  0  0  0  0  0  0  0  0  0
   55.1300   23.8185   46.3075 H   0  0  0  0  0  0  0  0  0  0  0  0
   57.9056   31.8096   46.8609 H   0  0  0  0  0  0  0  0  0  0  0  0
  1  2  2  0
  2  3  1  0
  3  4  1  0
  4  5  1  0
  5  6  2  0
  6  7  1  0
  7  8  2  0
  8  9  1  0
  2 10  1  0
 10 11  2  0
 11 12  1  0
 12 13  2  0
 13 14  1  0
 14 15  1  0
 15 16  2  0
 15 17  2  0
 15 18  1  0
 18 19  1  0
 19 20  2  0
 20 21  1  0
 21 22  2  0
 22 23  1  0
 23 24  2  0
 24 25  1  0
 14 26  2  0
  9  5  1  0
 26 10  1  0
 24 19  1  0
  4 27  1  0
  4 28  1  0
  6 29  1  0
  7 30  1  0
  8 31  1  0
 11 32  1  0
 12 33  1  0
 13 34  1  0
 20 35  1  0
 21 36  1  0
 22 37  1  0
 23 38  1  0
 26 39  1  0
M  CHG  3   3  -1  18  -1  25  -1
M  END
>  <UniqueID>  (46) 
42

>  <SMILES>  (46) 
O=C([N-]Cc1cccs1)c1cccc(S(=O)(=O)[N-]c2ccccc2[O-])c1

>  <Energy>  (46) 
73.78216407601927

>  <Genealogy>  (46) 
O=C([N-]Cc1cccs1)c1cccc(S(=O)(=O)[N-]c2ccccc2[O-])c1 (protonated)
O=C([N-]Cc1cccs1)c1cccc(S(=O)(=O)[N-]c2ccccc2[O-])c1 (3D coordinates assigned)
O=C([N-]Cc1cccs1)c1cccc(S(=O)(=O)[N-]c2ccccc2[O-])c1 (optimized conformer: 73.78216407601927 kcal/mol)

>  <smiles>  (46) 
O=C(NCc1cccs1)c1cccc(S(=O)(=O)Nc2ccccc2O)c1

>  <score_type>  (46) 
oracle

>  <origin>  (46) 
adg

>  <m_score__min__energy>  (46) 
-15.550000000000001

>  <m_primary>  (46) 
energy

$$$$
46:0
     RDKit          3D

 50 53  0  0  0  0  0  0  0  0999 V2000
   60.8030   27.2270   50.2070 O   0  0  0  0  0  0  0  0  0  0  0  0
   60.7740   28.3750   49.6850 C   0  0  0  0  0  0  0  0  0  0  0  0
   61.6790   29.3890   50.1390 N   0  0  0  0  0  0  0  0  0  0  0  0
   61.4150   30.2460   51.2880 C   0  0  0  0  0  0  0  0  0  0  0  0
   59.9350   30.4780   51.4290 C   0  0  0  0  0  0  0  0  0  0  0  0
   59.3550   31.6410   50.9000 C   0  0  0  0  0  0  0  0  0  0  0  0
   57.9750   31.8460   50.9900 C   0  0  0  0  0  0  0  0  0  0  0  0
   57.1600   30.8860   51.6060 C   0  0  0  0  0  0  0  0  0  0  0  0
   55.7830   31.0730   51.6920 O   0  0  0  0  0  0  0  0  0  0  0  0
   57.7330   29.7260   52.1340 C   0  0  0  0  0  0  0  0  0  0  0  0
   59.1140   29.5180   52.0420 C   0  0  0  0  0  0  0  0  0  0  0  0
   59.8150   28.6680   48.5940 C   0  0  0  0  0  0  0  0  0  0  0  0
   59.2750   27.6280   47.8210 C   0  0  0  0  0  0  0  0  0  0  0  0
   58.3630   27.9020   46.7960 C   0  0  0  0  0  0  0  0  0  0  0  0
   57.9830   29.2240   46.5130 C   0  0  0  0  0  0  0  0  0  0  0  0
   57.0150   29.5170   45.4270 C   0  0  0  0  0  0  0  0  0  0  0  0
   57.0090   30.6090   44.5800 C   0  0  0  0  0  0  0  0  0  0  0  0
   57.9300   31.6590   44.5950 O   0  0  0  0  0  0  0  0  0  0  0  0
   57.6030   32.9770   45.0230 C   0  0  0  0  0  0  0  0  0  0  0  0
   58.6180   33.4280   46.0330 C   0  0  0  0  0  0  0  0  0  0  0  0
   59.9350   33.7110   45.6330 C   0  0  0  0  0  0  0  0  0  0  0  0
   60.8950   34.0760   46.5830 C   0  0  0  0  0  0  0  0  0  0  0  0
   60.5510   34.1470   47.9350 C   0  0  0  0  0  0  0  0  0  0  0  0
   59.2480   33.8480   48.3410 C   0  0  0  0  0  0  0  0  0  0  0  0
   58.2840   33.4860   47.3940 C   0  0  0  0  0  0  0  0  0  0  0  0
   55.9140   30.4740   43.7430 C   0  0  0  0  0  0  0  0  0  0  0  0
   55.2400   29.3430   44.0290 N   0  0  0  0  0  0  0  0  0  0  0  0
   55.9110   28.7710   45.0490 C   0  0  0  0  0  0  0  0  0  0  0  0
   55.5320   27.5590   45.6090 O   0  0  0  0  0  0  0  0  0  0  0  0
   58.5230   30.2650   47.2870 C   0  0  0  0  0  0  0  0  0  0  0  0
   59.4280   29.9910   48.3180 C   0  0  0  0  0  0  0  0  0  0  0  0
   61.7960   29.7612   52.1990 H   0  0  0  0  0  0  0  0  0  0  0  0
   61.9191   31.2125   51.1404 H   0  0  0  0  0  0  0  0  0  0  0  0
   59.9895   32.3954   50.4119 H   0  0  0  0  0  0  0  0  0  0  0  0
   57.5279   32.7622   50.5768 H   0  0  0  0  0  0  0  0  0  0  0  0
   55.3620   31.9820   51.5320 H   0  0  0  0  0  0  0  0  0  0  0  0
   57.0967   28.9740   52.6235 H   0  0  0  0  0  0  0  0  0  0  0  0
   59.5580   28.5987   52.4516 H   0  0  0  0  0  0  0  0  0  0  0  0
   59.5716   26.5882   48.0230 H   0  0  0  0  0  0  0  0  0  0  0  0
   57.9400   27.0750   46.2068 H   0  0  0  0  0  0  0  0  0  0  0  0
   57.6136   33.6585   44.1596 H   0  0  0  0  0  0  0  0  0  0  0  0
   56.6002   32.9832   45.4751 H   0  0  0  0  0  0  0  0  0  0  0  0
   60.2118   33.6454   44.5704 H   0  0  0  0  0  0  0  0  0  0  0  0
   61.9222   34.3074   46.2648 H   0  0  0  0  0  0  0  0  0  0  0  0
   61.3060   34.4383   48.6800 H   0  0  0  0  0  0  0  0  0  0  0  0
   58.9798   33.8973   49.4067 H   0  0  0  0  0  0  0  0  0  0  0  0
   57.2605   33.2460   47.7179 H   0  0  0  0  0  0  0  0  0  0  0  0
   55.6340   31.1893   42.9557 H   0  0  0  0  0  0  0  0  0  0  0  0
   58.2314   31.3053   47.0803 H   0  0  0  0  0  0  0  0  0  0  0  0
   59.8397   30.8166   48.9170 H   0  0  0  0  0  0  0  0  0  0  0  0
  1  2  2  0
  2  3  1  0
  3  4  1  0
  4  5  1  0
  5  6  2  0
  6  7  1  0
  7  8  2  0
  8  9  1  0
  8 10  1  0
 10 11  2  0
  2 12  1  0
 12 13  2  0
 13 14  1  0
 14 15  2  0
 15 16  1  0
 16 17  1  0
 17 18  1  0
 18 19  1  0
 19 20  1  0
 20 21  2  0
 21 22  1  0
 22 23  2  0
 23 24  1  0
 24 25  2  0
 17 26  2  0
 26 27  1  0
 27 28  1  0
 28 29  1  0
 15 30  1  0
 30 31  2  0
 11  5  1  0
 31 12  1  0
 28 16  2  0
 25 20  1  0
  4 32  1  0
  4 33  1  0
  6 34  1  0
  7 35  1  0
  9 36  1  0
 10 37  1  0
 11 38  1  0
 13 39  1  0
 14 40  1  0
 19 41  1  0
 19 42  1  0
 21 43  1  0
 22 44  1  0
 23 45  1  0
 24 46  1  0
 25 47  1  0
 26 48  1  0
 30 49  1  0
 31 50  1  0
M  CHG  3   3  -1  27  -1  29  -1
M  END
>  <UniqueID>  (47) 
43

>  <SMILES>  (47) 
O=C([N-]Cc1ccc(O)cc1)c1ccc(-c2c(OCc3ccccc3)c[n-]c2[O-])cc1

>  <Energy>  (47) 
81.80007407694731

>  <Genealogy>  (47) 
O=C([N-]Cc1ccc(O)cc1)c1ccc(-c2c(OCc3ccccc3)c[n-]c2[O-])cc1 (protonated)
O=C([N-]Cc1ccc(O)cc1)c1ccc(-c2c(OCc3ccccc3)c[n-]c2[O-])cc1 (3D coordinates assigned)
O=C([N-]Cc1ccc(O)cc1)c1ccc(-c2c(OCc3ccccc3)c[n-]c2[O-])cc1 (optimized conformer: 81.80007407694731 kcal/mol)

>  <smiles>  (47) 
O=C(NCc1ccc(O)cc1)c1ccc(-c2c(OCc3ccccc3)c[nH]c2O)cc1

>  <score_type>  (47) 
oracle

>  <origin>  (47) 
adg

>  <m_score__min__energy>  (47) 
-14.970000000000001

>  <m_primary>  (47) 
energy

$$$$
47:0
     RDKit          3D

 45 47  0  0  0  0  0  0  0  0999 V2000
   55.1420   29.3410   44.8990 N   0  0  0  0  0  0  0  0  0  0  0  0
   56.7290   29.6540   44.2930 S   0  0  0  0  0  0  0  0  0  0  0  0
   56.7850   31.0590   43.7630 O   0  0  0  0  0  0  0  0  0  0  0  0
   57.0390   28.6980   43.1750 O   0  0  0  0  0  0  0  0  0  0  0  0
   57.9030   29.4380   45.5870 C   0  0  0  0  0  0  0  0  0  0  0  0
   57.8490   28.2900   46.3860 C   0  0  0  0  0  0  0  0  0  0  0  0
   58.7690   28.1070   47.4230 C   0  0  0  0  0  0  0  0  0  0  0  0
   59.7510   29.0770   47.6750 C   0  0  0  0  0  0  0  0  0  0  0  0
   60.7580   28.8680   48.7740 C   0  0  0  0  0  0  0  0  0  0  0  0
   61.0490   30.1830   49.5000 C   0  0  0  0  0  0  0  0  0  0  0  0
   62.2620   30.7930   48.9670 N   0  0  0  0  0  0  0  0  0  0  0  0
   62.5810   32.1800   49.1170 C   0  0  0  0  0  0  0  0  0  0  0  0
   63.7460   32.5990   48.8830 O   0  0  0  0  0  0  0  0  0  0  0  0
   61.5020   33.1470   49.4830 C   0  0  0  0  0  0  0  0  0  0  0  0
   60.5480   33.2560   48.3820 N   0  0  0  0  0  0  0  0  0  0  0  0
   59.2070   33.1150   48.4580 C   0  0  0  0  0  0  0  0  0  0  0  0
   58.5230   32.7500   49.6120 O   0  0  0  0  0  0  0  0  0  0  0  0
   58.6250   33.4000   47.2400 C   0  0  0  0  0  0  0  0  0  0  0  0
   59.6440   33.7480   46.3890 C   0  0  0  0  0  0  0  0  0  0  0  0
   60.8150   33.6620   47.1210 C   0  0  0  0  0  0  0  0  0  0  0  0
   62.0910   33.9680   46.6550 O   0  0  0  0  0  0  0  0  0  0  0  0
   59.4400   34.1880   44.9760 C   0  0  0  0  0  0  0  0  0  0  0  0
   57.9820   34.1200   44.5700 C   0  0  0  0  0  0  0  0  0  0  0  0
   56.9790   33.7760   45.4080 C   0  0  0  0  0  0  0  0  0  0  0  0
   57.1780   33.4140   46.8660 C   0  0  0  0  0  0  0  0  0  0  0  0
   59.8130   30.2220   46.8640 C   0  0  0  0  0  0  0  0  0  0  0  0
   58.8900   30.4040   45.8300 C   0  0  0  0  0  0  0  0  0  0  0  0
   55.2380   28.6130   45.6420 H   0  0  0  0  0  0  0  0  0  0  0  0
   57.0787   27.5277   46.1971 H   0  0  0  0  0  0  0  0  0  0  0  0
   58.7227   27.1997   48.0432 H   0  0  0  0  0  0  0  0  0  0  0  0
   60.3596   28.1385   49.4945 H   0  0  0  0  0  0  0  0  0  0  0  0
   61.6929   28.4954   48.3300 H   0  0  0  0  0  0  0  0  0  0  0  0
   60.2031   30.8717   49.3581 H   0  0  0  0  0  0  0  0  0  0  0  0
   61.1902   29.9786   50.5716 H   0  0  0  0  0  0  0  0  0  0  0  0
   60.9817   32.7911   50.3844 H   0  0  0  0  0  0  0  0  0  0  0  0
   61.9468   34.1335   49.6802 H   0  0  0  0  0  0  0  0  0  0  0  0
   62.9180   33.6030   47.1130 H   0  0  0  0  0  0  0  0  0  0  0  0
   59.7904   35.2255   44.8721 H   0  0  0  0  0  0  0  0  0  0  0  0
   60.0088   33.5109   44.3218 H   0  0  0  0  0  0  0  0  0  0  0  0
   57.7239   34.3657   43.5293 H   0  0  0  0  0  0  0  0  0  0  0  0
   55.9549   33.7577   45.0069 H   0  0  0  0  0  0  0  0  0  0  0  0
   56.6554   34.1529   47.4912 H   0  0  0  0  0  0  0  0  0  0  0  0
   56.7727   32.4041   47.0268 H   0  0  0  0  0  0  0  0  0  0  0  0
   60.5910   30.9787   47.0432 H   0  0  0  0  0  0  0  0  0  0  0  0
   58.9381   31.3079   45.2050 H   0  0  0  0  0  0  0  0  0  0  0  0
  1  2  1  0
  2  3  2  0
  2  4  2  0
  2  5  1  0
  5  6  2  0
  6  7  1  0
  7  8  2  0
  8  9  1  0
  9 10  1  0
 10 11  1  0
 11 12  1  0
 12 13  2  0
 12 14  1  0
 14 15  1  0
 15 16  1  0
 16 17  1  0
 16 18  2  0
 18 19  1  0
 19 20  2  0
 20 21  1  0
 19 22  1  0
 22 23  1  0
 23 24  2  0
 24 25  1  0
  8 26  1  0
 26 27  2  0
 27  5  1  0
 20 15  1  0
 25 18  1  0
  1 28  1  0
  6 29  1  0
  7 30  1  0
  9 31  1  0
  9 32  1  0
 10 33  1  0
 10 34  1  0
 14 35  1  0
 14 36  1  0
 21 37  1  0
 22 38  1  0
 22 39  1  0
 23 40  1  0
 24 41  1  0
 25 42  1  0
 25 43  1  0
 26 44  1  0
 27 45  1  0
M  CHG  3   1  -1  11  -1  17  -1
M  END
>  <UniqueID>  (48) 
44

>  <SMILES>  (48) 
[NH-]S(=O)(=O)c1ccc(CC[N-]C(=O)Cn2c([O-])c3c(c2O)CC=CC3)cc1

>  <Energy>  (48) 
71.22378920578001

>  <Genealogy>  (48) 
[NH-]S(=O)(=O)c1ccc(CC[N-]C(=O)Cn2c([O-])c3c(c2O)CC=CC3)cc1 (protonated)
[NH-]S(=O)(=O)c1ccc(CC[N-]C(=O)Cn2c([O-])c3c(c2O)CC=CC3)cc1 (3D coordinates assigned)
[NH-]S(=O)(=O)c1ccc(CC[N-]C(=O)Cn2c([O-])c3c(c2O)CC=CC3)cc1 (nonaromatic ring conformer: 71.22378920578001 kcal/mol)

>  <smiles>  (48) 
NS(=O)(=O)c1ccc(CCNC(=O)Cn2c(O)c3c(c2O)CC=CC3)cc1

>  <score_type>  (48) 
oracle

>  <origin>  (48) 
adg

>  <m_score__min__energy>  (48) 
-14.119999999999999

>  <m_primary>  (48) 
energy

$$$$
48:0
     RDKit          3D

 24 25  0  0  0  0  0  0  0  0999 V2000
   59.1840   25.2860   46.1080 O   0  0  0  0  0  0  0  0  0  0  0  0
   58.0340   25.7730   46.2850 C   0  0  0  0  0  0  0  0  0  0  0  0
   56.9950   24.8970   46.9320 C   0  0  0  0  0  0  0  0  0  0  0  0
   56.7800   23.6470   46.1320 C   0  0  0  0  0  0  0  0  0  0  0  0
   56.2670   23.5870   44.5270 S   0  0  0  0  0  0  0  0  0  0  0  0
   56.2770   21.9060   44.5000 C   0  0  0  0  0  0  0  0  0  0  0  0
   55.9660   21.2120   43.4970 O   0  0  0  0  0  0  0  0  0  0  0  0
   56.6590   21.3690   45.6760 N   0  0  0  0  0  0  0  0  0  0  0  0
   56.9370   22.3390   46.5870 C   0  0  0  0  0  0  0  0  0  0  0  0
   57.3500   22.0300   47.8770 O   0  0  0  0  0  0  0  0  0  0  0  0
   57.7570   27.1790   45.8720 C   0  0  0  0  0  0  0  0  0  0  0  0
   58.8090   28.1030   45.7120 C   0  0  0  0  0  0  0  0  0  0  0  0
   58.5530   29.4150   45.3130 C   0  0  0  0  0  0  0  0  0  0  0  0
   57.2470   29.8380   45.0660 C   0  0  0  0  0  0  0  0  0  0  0  0
   57.0230   31.1550   44.6670 O   0  0  0  0  0  0  0  0  0  0  0  0
   56.1850   28.9350   45.2210 C   0  0  0  0  0  0  0  0  0  0  0  0
   54.8780   29.3450   44.9800 O   0  0  0  0  0  0  0  0  0  0  0  0
   56.4350   27.6150   45.6230 C   0  0  0  0  0  0  0  0  0  0  0  0
   55.3560   26.7500   45.7840 O   0  0  0  0  0  0  0  0  0  0  0  0
   57.3317   24.6247   47.9432 H   0  0  0  0  0  0  0  0  0  0  0  0
   56.0465   25.4520   46.9810 H   0  0  0  0  0  0  0  0  0  0  0  0
   59.8446   27.7858   45.9041 H   0  0  0  0  0  0  0  0  0  0  0  0
   59.3875   30.1214   45.1922 H   0  0  0  0  0  0  0  0  0  0  0  0
   56.0970   31.5000   44.4410 H   0  0  0  0  0  0  0  0  0  0  0  0
  1  2  2  0
  2  3  1  0
  3  4  1  0
  4  5  1  0
  5  6  1  0
  6  7  2  0
  6  8  1  0
  8  9  1  0
  9 10  1  0
  2 11  1  0
 11 12  2  0
 12 13  1  0
 13 14  2  0
 14 15  1  0
 14 16  1  0
 16 17  1  0
 16 18  2  0
 18 19  1  0
  9  4  2  0
 18 11  1  0
  3 20  1  0
  3 21  1  0
 12 22  1  0
 13 23  1  0
 15 24  1  0
M  CHG  4   8  -1  10  -1  17  -1  19  -1
M  END
>  <UniqueID>  (49) 
45

>  <SMILES>  (49) 
O=C(Cc1sc(=O)[n-]c1[O-])c1ccc(O)c([O-])c1[O-]

>  <Energy>  (49) 
58.609334608297615

>  <Genealogy>  (49) 
O=C(Cc1sc(=O)[n-]c1[O-])c1ccc(O)c([O-])c1[O-] (protonated)
O=C(Cc1sc(=O)[n-]c1[O-])c1ccc(O)c([O-])c1[O-] (3D coordinates assigned)
O=C(Cc1sc(=O)[n-]c1[O-])c1ccc(O)c([O-])c1[O-] (optimized conformer: 58.609334608297615 kcal/mol)

>  <smiles>  (49) 
O=C(Cc1sc(=O)[nH]c1O)c1ccc(O)c(O)c1O

>  <score_type>  (49) 
oracle

>  <origin>  (49) 
adg

>  <m_score__min__energy>  (49) 
-16.829999999999998

>  <m_primary>  (49) 
energy

$$$$
49:0
     RDKit          3D

 44 46  0  0  0  0  0  0  0  0999 V2000
   61.2321   27.6089   49.9954 H   0  0  0  0  0  0  0  0  0  0  0  0
   60.5700   28.3600   49.5400 C   0  0  0  0  0  0  0  0  0  0  0  0
   60.2080   29.4990   50.2630 C   0  0  0  0  0  0  0  0  0  0  0  0
   60.5732   29.6350   51.2917 H   0  0  0  0  0  0  0  0  0  0  0  0
   59.3780   30.4720   49.6790 C   0  0  0  0  0  0  0  0  0  0  0  0
   58.9890   31.6550   50.3920 N   0  0  0  0  0  0  0  0  0  0  0  0
   59.3220   33.0040   50.0370 C   0  0  0  0  0  0  0  0  0  0  0  0
   59.2590   33.8940   50.9270 O   0  0  0  0  0  0  0  0  0  0  0  0
   59.6840   33.3880   48.6500 C   0  0  0  0  0  0  0  0  0  0  0  0
   58.6870   33.6950   47.7080 C   0  0  0  0  0  0  0  0  0  0  0  0
   57.6283   33.6644   48.0051 H   0  0  0  0  0  0  0  0  0  0  0  0
   59.0310   34.0410   46.3890 C   0  0  0  0  0  0  0  0  0  0  0  0
   58.0670   34.3260   45.4110 O   0  0  0  0  0  0  0  0  0  0  0  0
   57.4290   33.3440   44.6000 C   0  0  0  0  0  0  0  0  0  0  0  0
   56.9431   32.5961   45.2438 H   0  0  0  0  0  0  0  0  0  0  0  0
   56.6725   33.8281   43.9649 H   0  0  0  0  0  0  0  0  0  0  0  0
   58.1788   32.8495   43.9649 H   0  0  0  0  0  0  0  0  0  0  0  0
   60.3810   34.1050   46.0290 C   0  0  0  0  0  0  0  0  0  0  0  0
   60.6543   34.3782   44.9991 H   0  0  0  0  0  0  0  0  0  0  0  0
   61.3890   33.8270   46.9580 C   0  0  0  0  0  0  0  0  0  0  0  0
   62.7230   33.9130   46.5360 O   0  0  0  0  0  0  0  0  0  0  0  0
   63.7780   33.0920   47.0260 C   0  0  0  0  0  0  0  0  0  0  0  0
   63.7680   33.0998   48.1259 H   0  0  0  0  0  0  0  0  0  0  0  0
   63.6389   32.0622   46.6653 H   0  0  0  0  0  0  0  0  0  0  0  0
   64.7421   33.4798   46.6653 H   0  0  0  0  0  0  0  0  0  0  0  0
   61.0340   33.4710   48.2720 C   0  0  0  0  0  0  0  0  0  0  0  0
   61.8209   33.2557   49.0099 H   0  0  0  0  0  0  0  0  0  0  0  0
   58.8820   30.2660   48.3860 C   0  0  0  0  0  0  0  0  0  0  0  0
   58.2086   31.0103   47.9359 H   0  0  0  0  0  0  0  0  0  0  0  0
   59.2360   29.1180   47.6580 C   0  0  0  0  0  0  0  0  0  0  0  0
   58.7120   28.9210   46.2590 C   0  0  0  0  0  0  0  0  0  0  0  0
   59.4768   29.2461   45.5383 H   0  0  0  0  0  0  0  0  0  0  0  0
   58.4798   27.8553   46.1163 H   0  0  0  0  0  0  0  0  0  0  0  0
   57.4920   29.6990   46.0470 N   0  0  0  0  0  0  0  0  0  0  0  0
   56.8150   29.7470   44.9370 C   0  0  0  0  0  0  0  0  0  0  0  0
   55.4850   29.5520   44.8870 N   0  0  0  0  0  0  0  0  0  0  0  0
   55.1230   29.6710   43.6200 N   0  0  0  0  0  0  0  0  0  0  0  0
   54.1420   29.5680   43.2780 H   0  0  0  0  0  0  0  0  0  0  0  0
   56.2010   29.9420   42.8600 C   0  0  0  0  0  0  0  0  0  0  0  0
   56.1939   30.0919   41.7703 H   0  0  0  0  0  0  0  0  0  0  0  0
   57.3150   30.0010   43.6700 C   0  0  0  0  0  0  0  0  0  0  0  0
   58.3564   30.2025   43.3788 H   0  0  0  0  0  0  0  0  0  0  0  0
   60.0940   28.1720   48.2410 C   0  0  0  0  0  0  0  0  0  0  0  0
   60.3924   27.2791   47.6721 H   0  0  0  0  0  0  0  0  0  0  0  0
  1  2  1  0
  2  3  2  0
  3  4  1  0
  3  5  1  0
  5  6  1  0
  6  7  1  0
  7  8  2  0
  7  9  1  0
  9 10  2  0
 10 11  1  0
 10 12  1  0
 12 13  1  0
 13 14  1  0
 14 15  1  0
 14 16  1  0
 14 17  1  0
 12 18  2  0
 18 19  1  0
 18 20  1  0
 20 21  1  0
 21 22  1  0
 22 23  1  0
 22 24  1  0
 22 25  1  0
 20 26  2  0
 26 27  1  0
  5 28  2  0
 28 29  1  0
 28 30  1  0
 30 31  1  0
 31 32  1  0
 31 33  1  0
 31 34  1  0
 34 35  2  0
 35 36  1  0
 36 37  1  0
 37 38  1  0
 37 39  1  0
 39 40  1  0
 39 41  2  0
 41 42  1  0
 30 43  2  0
 43 44  1  0
 43  2  1  0
 26  9  1  0
 41 35  1  0
M  CHG  2   6  -1  36  -1
M  END
>  <UniqueID>  (50) 
46

>  <SMILES>  (50) 
COc1cc(OC)cc(C(=O)[N-]c2cccc(C/N=c3\cc[nH][n-]3)c2)c1

>  <Energy>  (50) 
81.21844651824907

>  <Genealogy>  (50) 
COc1cc(OC)cc(C(=O)[N-]c2cccc(CN=c3cc[nH][n-]3)c2)c1 (protonated)
COc1cc(OC)cc(C(=O)[N-]c2cccc(C/N=c3\cc[nH][n-]3)c2)c1 (cis-trans isomerization)
COc1cc(OC)cc(C(=O)[N-]c2cccc(C/N=c3\cc[nH][n-]3)c2)c1 (3D coordinates assigned)
COc1cc(OC)cc(C(=O)[N-]c2cccc(C/N=c3\cc[nH][n-]3)c2)c1 (optimized conformer: 81.21844651824907 kcal/mol)

>  <smiles>  (50) 
COc1cc(OC)cc(C(=O)Nc2cccc(CN=c3cc[nH][nH]3)c2)c1

>  <score_type>  (50) 
oracle

>  <origin>  (50) 
adg

>  <m_score__min__energy>  (50) 
-11.25

>  <m_primary>  (50) 
energy

$$$$
50:0
     RDKit          3D

 43 45  0  0  0  0  0  0  0  0999 V2000
   59.3100   35.4450   44.8640 O   0  0  0  0  0  0  0  0  0  0  0  0
   58.5220   34.6090   45.3530 N   0  0  0  0  0  0  0  0  0  0  0  0
   57.2320   34.5570   44.8770 O   0  0  0  0  0  0  0  0  0  0  0  0
   58.9520   33.7220   46.4020 C   0  0  0  0  0  0  0  0  0  0  0  0
   58.0500   33.2860   47.3890 C   0  0  0  0  0  0  0  0  0  0  0  0
   58.4700   32.4170   48.3980 C   0  0  0  0  0  0  0  0  0  0  0  0
   59.7920   31.9590   48.4350 C   0  0  0  0  0  0  0  0  0  0  0  0
   60.2680   30.7700   49.7000 S   0  0  0  0  0  0  0  0  0  0  0  0
   59.8360   29.3820   48.6490 C   0  0  0  0  0  0  0  0  0  0  0  0
   58.5480   29.2830   48.1120 C   0  0  0  0  0  0  0  0  0  0  0  0
   58.1670   28.1320   47.4200 C   0  0  0  0  0  0  0  0  0  0  0  0
   59.0670   27.0670   47.2670 C   0  0  0  0  0  0  0  0  0  0  0  0
   58.6170   25.8530   46.6480 N   0  0  0  0  0  0  0  0  0  0  0  0
   57.5390   25.7780   45.7040 C   0  0  0  0  0  0  0  0  0  0  0  0
   56.4710   24.5460   45.8420 S   0  0  0  0  0  0  0  0  0  0  0  0
   57.5030   26.5940   44.5150 N   0  0  0  0  0  0  0  0  0  0  0  0
   58.5030   27.5940   44.1260 C   0  0  0  0  0  0  0  0  0  0  0  0
   58.0000   29.0070   44.2810 C   0  0  0  0  0  0  0  0  0  0  0  0
   58.8770   30.1010   44.2210 C   0  0  0  0  0  0  0  0  0  0  0  0
   58.3810   31.4000   44.3380 C   0  0  0  0  0  0  0  0  0  0  0  0
   57.0070   31.5970   44.4920 C   0  0  0  0  0  0  0  0  0  0  0  0
   56.1650   30.5310   44.5180 N   0  0  0  0  0  0  0  0  0  0  0  0
   56.6240   29.2560   44.4080 C   0  0  0  0  0  0  0  0  0  0  0  0
   60.3870   27.2110   47.7240 C   0  0  0  0  0  0  0  0  0  0  0  0
   60.7660   28.3620   48.4210 C   0  0  0  0  0  0  0  0  0  0  0  0
   60.7080   32.4050   47.4650 C   0  0  0  0  0  0  0  0  0  0  0  0
   62.3910   31.8960   47.4870 Cl  0  0  0  0  0  0  0  0  0  0  0  0
   60.2840   33.2770   46.4550 C   0  0  0  0  0  0  0  0  0  0  0  0
   57.0061   33.6321   47.3659 H   0  0  0  0  0  0  0  0  0  0  0  0
   57.7569   32.0901   49.1691 H   0  0  0  0  0  0  0  0  0  0  0  0
   57.8355   30.1120   48.2350 H   0  0  0  0  0  0  0  0  0  0  0  0
   57.1560   28.0599   46.9926 H   0  0  0  0  0  0  0  0  0  0  0  0
   59.0690   24.9560   46.9390 H   0  0  0  0  0  0  0  0  0  0  0  0
   56.7140   26.4400   43.8470 H   0  0  0  0  0  0  0  0  0  0  0  0
   59.3940   27.4658   44.7582 H   0  0  0  0  0  0  0  0  0  0  0  0
   58.7347   27.4374   43.0621 H   0  0  0  0  0  0  0  0  0  0  0  0
   59.9554   29.9345   44.0817 H   0  0  0  0  0  0  0  0  0  0  0  0
   59.0656   32.2605   44.3092 H   0  0  0  0  0  0  0  0  0  0  0  0
   56.6060   32.6164   44.5924 H   0  0  0  0  0  0  0  0  0  0  0  0
   55.9142   28.4157   44.4185 H   0  0  0  0  0  0  0  0  0  0  0  0
   61.1239   26.4169   47.5332 H   0  0  0  0  0  0  0  0  0  0  0  0
   61.7968   28.4658   48.7907 H   0  0  0  0  0  0  0  0  0  0  0  0
   61.0017   33.6177   45.6942 H   0  0  0  0  0  0  0  0  0  0  0  0
  1  2  2  0
  2  3  1  0
  2  4  1  0
  4  5  2  0
  5  6  1  0
  6  7  2  0
  7  8  1  0
  8  9  1  0
  9 10  2  0
 10 11  1  0
 11 12  2  0
 12 13  1  0
 13 14  1  0
 14 15  2  0
 14 16  1  0
 16 17  1  0
 17 18  1  0
 18 19  2  0
 19 20  1  0
 20 21  2  0
 21 22  1  0
 22 23  2  0
 12 24  1  0
 24 25  2  0
  7 26  1  0
 26 27  1  0
 26 28  2  0
 28  4  1  0
 25  9  1  0
 23 18  1  0
  5 29  1  0
  6 30  1  0
 10 31  1  0
 11 32  1  0
 13 33  1  0
 16 34  1  0
 17 35  1  0
 17 36  1  0
 19 37  1  0
 20 38  1  0
 21 39  1  0
 23 40  1  0
 24 41  1  0
 25 42  1  0
 28 43  1  0
M  CHG  2   2   1   3  -1
M  END
>  <UniqueID>  (51) 
47

>  <SMILES>  (51) 
O=[N+]([O-])c1ccc(Sc2ccc(NC(=S)NCc3cccnc3)cc2)c(Cl)c1

>  <Energy>  (51) 
45.7899340941806

>  <Genealogy>  (51) 
O=[N+]([O-])c1ccc(Sc2ccc(NC(=S)NCc3cccnc3)cc2)c(Cl)c1 (3D coordinates assigned)
O=[N+]([O-])c1ccc(Sc2ccc(NC(=S)NCc3cccnc3)cc2)c(Cl)c1 (optimized conformer: 45.7899340941806 kcal/mol)

>  <smiles>  (51) 
O=[N+]([O-])c1ccc(Sc2ccc(NC(=S)NCc3cccnc3)cc2)c(Cl)c1

>  <score_type>  (51) 
oracle

>  <origin>  (51) 
adg

>  <m_score__min__energy>  (51) 
-8.6899999999999995

>  <m_primary>  (51) 
energy

$$$$
51:0
     RDKit          3D

 29 30  0  0  0  0  0  0  0  0999 V2000
   59.6480   35.1320   46.1880 C   0  0  0  0  0  0  0  0  0  0  0  0
   59.0120   33.8460   45.7520 C   0  0  0  0  0  0  0  0  0  0  0  0
   58.9820   32.7420   46.6180 C   0  0  0  0  0  0  0  0  0  0  0  0
   58.3570   31.5550   46.2250 C   0  0  0  0  0  0  0  0  0  0  0  0
   57.7390   31.4640   44.9710 C   0  0  0  0  0  0  0  0  0  0  0  0
   56.9660   29.9640   44.4720 S   0  0  0  0  0  0  0  0  0  0  0  0
   55.5270   29.9710   44.9090 O   0  0  0  0  0  0  0  0  0  0  0  0
   57.0260   29.8440   42.9740 O   0  0  0  0  0  0  0  0  0  0  0  0
   57.8000   28.6320   45.2050 N   0  0  0  0  0  0  0  0  0  0  0  0
   57.2090   27.6050   45.7380 C   0  0  0  0  0  0  0  0  0  0  0  0
   57.7970   26.5980   46.4830 C   0  0  0  0  0  0  0  0  0  0  0  0
   56.7260   25.7790   46.7940 C   0  0  0  0  0  0  0  0  0  0  0  0
   56.7900   24.5120   47.5780 C   0  0  0  0  0  0  0  0  0  0  0  0
   55.6290   26.2750   46.2670 O   0  0  0  0  0  0  0  0  0  0  0  0
   55.8910   27.3750   45.6270 N   0  0  0  0  0  0  0  0  0  0  0  0
   57.7590   32.5680   44.1080 C   0  0  0  0  0  0  0  0  0  0  0  0
   58.3830   33.7560   44.5000 C   0  0  0  0  0  0  0  0  0  0  0  0
   59.6698   35.1762   47.2869 H   0  0  0  0  0  0  0  0  0  0  0  0
   60.6754   35.1835   45.7985 H   0  0  0  0  0  0  0  0  0  0  0  0
   59.0653   35.9798   45.7985 H   0  0  0  0  0  0  0  0  0  0  0  0
   59.4522   32.8110   47.6100 H   0  0  0  0  0  0  0  0  0  0  0  0
   58.3504   30.6889   46.9031 H   0  0  0  0  0  0  0  0  0  0  0  0
   58.8549   26.4782   46.7597 H   0  0  0  0  0  0  0  0  0  0  0  0
   56.7782   24.7450   48.6530 H   0  0  0  0  0  0  0  0  0  0  0  0
   55.9225   23.8829   47.3297 H   0  0  0  0  0  0  0  0  0  0  0  0
   57.7165   23.9735   47.3297 H   0  0  0  0  0  0  0  0  0  0  0  0
   55.1870   27.9590   45.1220 H   0  0  0  0  0  0  0  0  0  0  0  0
   57.2822   32.4996   43.1191 H   0  0  0  0  0  0  0  0  0  0  0  0
   58.3812   34.6242   43.8245 H   0  0  0  0  0  0  0  0  0  0  0  0
  1  2  1  0
  2  3  2  0
  3  4  1  0
  4  5  2  0
  5  6  1  0
  6  7  2  0
  6  8  2  0
  6  9  1  0
  9 10  2  3
 10 11  1  0
 11 12  2  0
 12 13  1  0
 12 14  1  0
 14 15  1  0
  5 16  1  0
 16 17  2  0
 17  2  1  0
 15 10  1  0
  1 18  1  0
  1 19  1  0
  1 20  1  0
  3 21  1  0
  4 22  1  0
 11 23  1  0
 13 24  1  0
 13 25  1  0
 13 26  1  0
 15 27  1  0
 16 28  1  0
 17 29  1  0
M  END
>  <UniqueID>  (52) 
48

>  <SMILES>  (52) 
Cc1ccc(S(=O)(=O)N=c2cc(C)o[nH]2)cc1

>  <Energy>  (52) 
63.16654145501205

>  <Genealogy>  (52) 
Cc1ccc(S(=O)(=O)N=c2cc(C)o[nH]2)cc1 (3D coordinates assigned)
Cc1ccc(S(=O)(=O)N=c2cc(C)o[nH]2)cc1 (optimized conformer: 63.16654145501205 kcal/mol)

>  <smiles>  (52) 
Cc1ccc(S(=O)(=O)N=c2cc(C)o[nH]2)cc1

>  <score_type>  (52) 
oracle

>  <origin>  (52) 
adg

>  <m_score__min__energy>  (52) 
-8.2400000000000002

>  <m_primary>  (52) 
energy

$$$$
52:0
     RDKit          3D

 28 29  0  0  0  0  0  0  0  0999 V2000
   54.5030   29.3580   45.2380 H   0  0  0  0  0  0  0  0  0  0  0  0
   55.1410   29.7460   44.5100 N   0  0  0  0  0  0  0  0  0  0  0  0
   56.4570   30.1830   44.8450 C   0  0  0  0  0  0  0  0  0  0  0  0
   56.8540   31.2970   44.4090 O   0  0  0  0  0  0  0  0  0  0  0  0
   57.3550   29.3510   45.6920 C   0  0  0  0  0  0  0  0  0  0  0  0
   57.1360   27.9610   45.7740 C   0  0  0  0  0  0  0  0  0  0  0  0
   56.2943   27.5136   45.2251 H   0  0  0  0  0  0  0  0  0  0  0  0
   57.9700   27.1400   46.5410 C   0  0  0  0  0  0  0  0  0  0  0  0
   57.6850   25.7330   46.6130 N   0  0  0  0  0  0  0  0  0  0  0  0
   57.3390   24.9450   45.6330 C   0  0  0  0  0  0  0  0  0  0  0  0
   58.0705   24.7679   44.8308 H   0  0  0  0  0  0  0  0  0  0  0  0
   56.0250   24.2750   45.5330 C   0  0  0  0  0  0  0  0  0  0  0  0
   55.9860   22.8850   45.3450 C   0  0  0  0  0  0  0  0  0  0  0  0
   56.9251   22.3168   45.2727 H   0  0  0  0  0  0  0  0  0  0  0  0
   54.7620   22.2180   45.2490 C   0  0  0  0  0  0  0  0  0  0  0  0
   54.7401   21.1304   45.0860 H   0  0  0  0  0  0  0  0  0  0  0  0
   53.5650   22.9320   45.3600 C   0  0  0  0  0  0  0  0  0  0  0  0
   52.3490   22.2690   45.2610 O   0  0  0  0  0  0  0  0  0  0  0  0
   53.5930   24.3130   45.5780 C   0  0  0  0  0  0  0  0  0  0  0  0
   52.6506   24.8727   45.6704 H   0  0  0  0  0  0  0  0  0  0  0  0
   54.8160   24.9850   45.6790 C   0  0  0  0  0  0  0  0  0  0  0  0
   54.8190   26.3500   45.9480 O   0  0  0  0  0  0  0  0  0  0  0  0
   59.0070   27.7200   47.2890 C   0  0  0  0  0  0  0  0  0  0  0  0
   59.6385   27.0890   47.9316 H   0  0  0  0  0  0  0  0  0  0  0  0
   59.2390   29.0930   47.2200 C   0  0  0  0  0  0  0  0  0  0  0  0
   60.0657   29.5367   47.7941 H   0  0  0  0  0  0  0  0  0  0  0  0
   58.4280   29.9100   46.4260 C   0  0  0  0  0  0  0  0  0  0  0  0
   58.7020   31.2730   46.3850 O   0  0  0  0  0  0  0  0  0  0  0  0
  1  2  1  0
  2  3  1  0
  3  4  2  0
  3  5  1  0
  5  6  2  0
  6  7  1  0
  6  8  1  0
  8  9  1  0
  9 10  2  0
 10 11  1  0
 10 12  1  0
 12 13  2  0
 13 14  1  0
 13 15  1  0
 15 16  1  0
 15 17  2  0
 17 18  1  0
 17 19  1  0
 19 20  1  0
 19 21  2  0
 21 22  1  0
  8 23  2  0
 23 24  1  0
 23 25  1  0
 25 26  1  0
 25 27  2  0
 27 28  1  0
 27  5  1  0
 21 12  1  0
M  CHG  4   2  -1  18  -1  22  -1  28  -1
M  END
>  <UniqueID>  (53) 
49

>  <SMILES>  (53) 
[NH-]C(=O)c1cc(/N=C\c2ccc([O-])cc2[O-])ccc1[O-]

>  <Energy>  (53) 
43.97407562108405

>  <Genealogy>  (53) 
[NH-]C(=O)c1cc(N=Cc2ccc([O-])cc2[O-])ccc1[O-] (protonated)
[NH-]C(=O)c1cc(/N=C\c2ccc([O-])cc2[O-])ccc1[O-] (cis-trans isomerization)
[NH-]C(=O)c1cc(/N=C\c2ccc([O-])cc2[O-])ccc1[O-] (3D coordinates assigned)
[NH-]C(=O)c1cc(/N=C\c2ccc([O-])cc2[O-])ccc1[O-] (optimized conformer: 43.97407562108405 kcal/mol)

>  <smiles>  (53) 
NC(=O)c1cc(N=Cc2ccc(O)cc2O)ccc1O

>  <score_type>  (53) 
oracle

>  <origin>  (53) 
adg

>  <m_score__min__energy>  (53) 
-15.68

>  <m_primary>  (53) 
energy

$$$$
53:0
     RDKit          3D

 73 77  0  0  0  0  0  0  0  0999 V2000
   59.9810   34.3300   45.4470 C   0  0  0  0  0  0  0  0  0  0  0  0
   59.4220   33.7750   46.7300 C   0  0  0  0  0  0  0  0  0  0  0  0
   60.0750   34.0400   47.9470 C   0  0  0  0  0  0  0  0  0  0  0  0
   59.5730   33.5290   49.1460 C   0  0  0  0  0  0  0  0  0  0  0  0
   58.4210   32.7290   49.1490 C   0  0  0  0  0  0  0  0  0  0  0  0
   57.8740   32.2050   50.3690 N   0  0  0  0  0  0  0  0  0  0  0  0
   58.3010   30.9820   50.9920 C   0  0  0  0  0  0  0  0  0  0  0  0
   59.0310   30.1680   50.3660 O   0  0  0  0  0  0  0  0  0  0  0  0
   57.8230   30.6250   52.2930 N   0  0  0  0  0  0  0  0  0  0  0  0
   56.5250   30.0720   52.5270 C   0  0  0  0  0  0  0  0  0  0  0  0
   56.3670   28.9300   53.3230 C   0  0  0  0  0  0  0  0  0  0  0  0
   55.0870   28.4080   53.5650 C   0  0  0  0  0  0  0  0  0  0  0  0
   54.9010   27.2370   54.3720 N   0  0  0  0  0  0  0  0  0  0  0  0
   54.5350   25.9370   53.8800 C   0  0  0  0  0  0  0  0  0  0  0  0
   55.3670   24.9960   53.9840 O   0  0  0  0  0  0  0  0  0  0  0  0
   53.1900   25.6600   53.3120 C   0  0  0  0  0  0  0  0  0  0  0  0
   52.1740   26.6330   53.3500 C   0  0  0  0  0  0  0  0  0  0  0  0
   50.9020   26.3520   52.8380 C   0  0  0  0  0  0  0  0  0  0  0  0
   50.6310   25.0970   52.2870 C   0  0  0  0  0  0  0  0  0  0  0  0
   51.6280   24.1170   52.2570 C   0  0  0  0  0  0  0  0  0  0  0  0
   52.9020   24.3940   52.7680 C   0  0  0  0  0  0  0  0  0  0  0  0
   53.9650   29.0640   53.0460 C   0  0  0  0  0  0  0  0  0  0  0  0
   54.1080   30.2060   52.2360 C   0  0  0  0  0  0  0  0  0  0  0  0
   52.9000   30.8970   51.7140 C   0  0  0  0  0  0  0  0  0  0  0  0
   52.3750   30.7860   50.4320 C   0  0  0  0  0  0  0  0  0  0  0  0
   51.2840   31.6200   50.3830 C   0  0  0  0  0  0  0  0  0  0  0  0
   51.1980   32.1950   51.6290 C   0  0  0  0  0  0  0  0  0  0  0  0
   50.2330   33.1160   52.0090 O   0  0  0  0  0  0  0  0  0  0  0  0
   52.1720   31.7650   52.4500 N   0  0  0  0  0  0  0  0  0  0  0  0
   55.4020   30.6850   51.9600 C   0  0  0  0  0  0  0  0  0  0  0  0
   57.7520   32.4880   47.9390 C   0  0  0  0  0  0  0  0  0  0  0  0
   58.2320   33.0200   46.7270 C   0  0  0  0  0  0  0  0  0  0  0  0
   57.5690   32.7580   45.4780 N   0  0  0  0  0  0  0  0  0  0  0  0
   57.3370   31.4760   44.8790 C   0  0  0  0  0  0  0  0  0  0  0  0
   56.1630   31.0660   44.6700 O   0  0  0  0  0  0  0  0  0  0  0  0
   58.4970   30.6590   44.4010 C   0  0  0  0  0  0  0  0  0  0  0  0
   59.2570   30.1530   45.5680 N   0  0  0  0  0  0  0  0  0  0  0  0
   60.3070   29.1790   45.1950 C   0  0  0  0  0  0  0  0  0  0  0  0
   59.7590   27.7450   45.0160 C   0  0  0  0  0  0  0  0  0  0  0  0
   58.2870   27.7400   45.0000 N   0  0  0  0  0  0  0  0  0  0  0  0
   57.7810   26.3820   44.7570 C   0  0  0  0  0  0  0  0  0  0  0  0
   57.7590   28.2620   46.2740 C   0  0  0  0  0  0  0  0  0  0  0  0
   58.3910   29.6230   46.6410 C   0  0  0  0  0  0  0  0  0  0  0  0
   60.7443   35.0879   45.6772 H   0  0  0  0  0  0  0  0  0  0  0  0
   60.4364   33.5165   44.8632 H   0  0  0  0  0  0  0  0  0  0  0  0
   59.1707   34.7912   44.8632 H   0  0  0  0  0  0  0  0  0  0  0  0
   60.9876   34.6541   47.9547 H   0  0  0  0  0  0  0  0  0  0  0  0
   60.0841   33.7553   50.0934 H   0  0  0  0  0  0  0  0  0  0  0  0
   57.0280   32.6730   50.7620 H   0  0  0  0  0  0  0  0  0  0  0  0
   57.2498   28.4405   53.7601 H   0  0  0  0  0  0  0  0  0  0  0  0
   52.3810   27.6217   53.7853 H   0  0  0  0  0  0  0  0  0  0  0  0
   50.1150   27.1199   52.8695 H   0  0  0  0  0  0  0  0  0  0  0  0
   49.6337   24.8799   51.8769 H   0  0  0  0  0  0  0  0  0  0  0  0
   51.4110   23.1263   51.8311 H   0  0  0  0  0  0  0  0  0  0  0  0
   53.6817   23.6184   52.7442 H   0  0  0  0  0  0  0  0  0  0  0  0
   52.9589   28.6823   53.2740 H   0  0  0  0  0  0  0  0  0  0  0  0
   52.7577   30.1545   49.6166 H   0  0  0  0  0  0  0  0  0  0  0  0
   50.6176   31.7920   49.5249 H   0  0  0  0  0  0  0  0  0  0  0  0
   55.5321   31.5494   51.2923 H   0  0  0  0  0  0  0  0  0  0  0  0
   56.8391   31.8743   47.9375 H   0  0  0  0  0  0  0  0  0  0  0  0
   58.1278   29.8098   43.8073 H   0  0  0  0  0  0  0  0  0  0  0  0
   59.1539   31.2833   43.7775 H   0  0  0  0  0  0  0  0  0  0  0  0
   60.7643   29.5010   44.2478 H   0  0  0  0  0  0  0  0  0  0  0  0
   61.0401   29.1529   46.0147 H   0  0  0  0  0  0  0  0  0  0  0  0
   60.1303   27.3342   44.0655 H   0  0  0  0  0  0  0  0  0  0  0  0
   60.1020   27.1311   45.8618 H   0  0  0  0  0  0  0  0  0  0  0  0
   57.5949   25.8824   45.7192 H   0  0  0  0  0  0  0  0  0  0  0  0
   56.8431   26.4371   44.1850 H   0  0  0  0  0  0  0  0  0  0  0  0
   58.5263   25.8099   44.1850 H   0  0  0  0  0  0  0  0  0  0  0  0
   56.6700   28.3877   46.1835 H   0  0  0  0  0  0  0  0  0  0  0  0
   58.0088   27.5432   47.0683 H   0  0  0  0  0  0  0  0  0  0  0  0
   57.5845   30.3461   46.8327 H   0  0  0  0  0  0  0  0  0  0  0  0
   59.0182   29.4706   47.5317 H   0  0  0  0  0  0  0  0  0  0  0  0
  1  2  1  0
  2  3  2  0
  3  4  1  0
  4  5  2  0
  5  6  1  0
  6  7  1  0
  7  8  2  0
  7  9  1  0
  9 10  1  0
 10 11  2  0
 11 12  1  0
 12 13  1  0
 13 14  1  0
 14 15  2  0
 14 16  1  0
 16 17  2  0
 17 18  1  0
 18 19  2  0
 19 20  1  0
 20 21  2  0
 12 22  2  0
 22 23  1  0
 23 24  1  0
 24 25  2  0
 25 26  1  0
 26 27  2  0
 27 28  1  0
 27 29  1  0
 23 30  2  0
  5 31  1  0
 31 32  2  0
 32 33  1  0
 33 34  1  0
 34 35  2  0
 34 36  1  0
 36 37  1  0
 37 38  1  0
 38 39  1  0
 39 40  1  0
 40 41  1  0
 40 42  1  0
 42 43  1  0
 32  2  1  0
 43 37  1  0
 30 10  1  0
 21 16  1  0
 29 24  1  0
  1 44  1  0
  1 45  1  0
  1 46  1  0
  3 47  1  0
  4 48  1  0
  6 49  1  0
 11 50  1  0
 17 51  1  0
 18 52  1  0
 19 53  1  0
 20 54  1  0
 21 55  1  0
 22 56  1  0
 25 57  1  0
 26 58  1  0
 30 59  1  0
 31 60  1  0
 36 61  1  0
 36 62  1  0
 38 63  1  0
 38 64  1  0
 39 65  1  0
 39 66  1  0
 41 67  1  0
 41 68  1  0
 41 69  1  0
 42 70  1  0
 42 71  1  0
 43 72  1  0
 43 73  1  0
M  CHG  5   9  -1  13  -1  28  -1  29  -1  33  -1
M  END
>  <UniqueID>  (54) 
50

>  <SMILES>  (54) 
Cc1ccc(NC(=O)[N-]c2cc([N-]C(=O)c3ccccc3)cc(-c3ccc([O-])[n-]3)c2)cc1[N-]C(=O)CN1CCN(C)CC1

>  <Energy>  (54) 
134.56969857018214

>  <Genealogy>  (54) 
Cc1ccc(NC(=O)[N-]c2cc([N-]C(=O)c3ccccc3)cc(-c3ccc([O-])[n-]3)c2)cc1[N-]C(=O)CN1CCN(C)CC1 (protonated)
Cc1ccc(NC(=O)[N-]c2cc([N-]C(=O)c3ccccc3)cc(-c3ccc([O-])[n-]3)c2)cc1[N-]C(=O)CN1CCN(C)CC1 (3D coordinates assigned)
Cc1ccc(NC(=O)[N-]c2cc([N-]C(=O)c3ccccc3)cc(-c3ccc([O-])[n-]3)c2)cc1[N-]C(=O)CN1CCN(C)CC1 (nonaromatic ring conformer: 134.56969857018214 kcal/mol)

>  <smiles>  (54) 
Cc1ccc(NC(=O)Nc2cc(NC(=O)c3ccccc3)cc(-c3ccc(O)[nH]3)c2)cc1NC(=O)CN1CCN(C)CC1

>  <score_type>  (54) 
oracle

>  <origin>  (54) 
adg

>  <m_score__min__energy>  (54) 
-18.699999999999999

>  <m_primary>  (54) 
energy

$$$$
54:0
     RDKit          3D

 50 53  0  0  0  0  0  0  0  0999 V2000
   59.9560   29.7430   53.8750 O   0  0  0  0  0  0  0  0  0  0  0  0
   59.1510   30.0670   52.9600 C   0  0  0  0  0  0  0  0  0  0  0  0
   57.7060   29.8840   53.1870 C   0  0  0  0  0  0  0  0  0  0  0  0
   56.9220   29.1680   52.3510 N   0  0  0  0  0  0  0  0  0  0  0  0
   55.6970   29.2800   52.8950 C   0  0  0  0  0  0  0  0  0  0  0  0
   54.4770   28.6000   52.3580 C   0  0  0  0  0  0  0  0  0  0  0  0
   53.2830   28.8280   53.2880 C   0  0  0  0  0  0  0  0  0  0  0  0
   52.5960   30.1250   52.9590 C   0  0  0  0  0  0  0  0  0  0  0  0
   51.7090   30.7130   53.8780 C   0  0  0  0  0  0  0  0  0  0  0  0
   51.0500   31.9040   53.5570 C   0  0  0  0  0  0  0  0  0  0  0  0
   51.2640   32.5110   52.3150 C   0  0  0  0  0  0  0  0  0  0  0  0
   50.6100   33.6970   52.0000 O   0  0  0  0  0  0  0  0  0  0  0  0
   52.1320   31.9240   51.3910 C   0  0  0  0  0  0  0  0  0  0  0  0
   52.7930   30.7330   51.7070 C   0  0  0  0  0  0  0  0  0  0  0  0
   55.7640   30.0430   54.0360 C   0  0  0  0  0  0  0  0  0  0  0  0
   57.0360   30.4370   54.2220 N   0  0  0  0  0  0  0  0  0  0  0  0
   59.6630   30.5840   51.7180 N   0  0  0  0  0  0  0  0  0  0  0  0
   60.8080   29.9320   51.0710 C   0  0  0  0  0  0  0  0  0  0  0  0
   61.8020   30.9800   50.5700 C   0  0  0  0  0  0  0  0  0  0  0  0
   61.0950   32.0250   49.8220 N   0  0  0  0  0  0  0  0  0  0  0  0
   61.6990   32.6260   48.6610 C   0  0  0  0  0  0  0  0  0  0  0  0
   63.0900   32.5690   48.4650 C   0  0  0  0  0  0  0  0  0  0  0  0
   63.6680   33.1550   47.3340 C   0  0  0  0  0  0  0  0  0  0  0  0
   62.8650   33.7990   46.3910 C   0  0  0  0  0  0  0  0  0  0  0  0
   61.4800   33.8600   46.5760 C   0  0  0  0  0  0  0  0  0  0  0  0
   60.8990   33.2750   47.7060 C   0  0  0  0  0  0  0  0  0  0  0  0
   59.9570   32.6830   50.4750 C   0  0  0  0  0  0  0  0  0  0  0  0
   58.9590   31.6390   50.9790 C   0  0  0  0  0  0  0  0  0  0  0  0
   54.2439   29.0073   51.3631 H   0  0  0  0  0  0  0  0  0  0  0  0
   54.6731   27.5198   52.2891 H   0  0  0  0  0  0  0  0  0  0  0  0
   52.5686   28.0001   53.1688 H   0  0  0  0  0  0  0  0  0  0  0  0
   53.6450   28.8717   54.3258 H   0  0  0  0  0  0  0  0  0  0  0  0
   51.5328   30.2346   54.8527 H   0  0  0  0  0  0  0  0  0  0  0  0
   50.3625   32.3640   54.2821 H   0  0  0  0  0  0  0  0  0  0  0  0
   52.2958   32.3997   50.4128 H   0  0  0  0  0  0  0  0  0  0  0  0
   53.4695   30.2703   50.9733 H   0  0  0  0  0  0  0  0  0  0  0  0
   54.9153   30.2910   54.6904 H   0  0  0  0  0  0  0  0  0  0  0  0
   61.3089   29.2745   51.7968 H   0  0  0  0  0  0  0  0  0  0  0  0
   60.4474   29.3428   50.2149 H   0  0  0  0  0  0  0  0  0  0  0  0
   62.3179   31.4330   51.4295 H   0  0  0  0  0  0  0  0  0  0  0  0
   62.5347   30.4952   49.9081 H   0  0  0  0  0  0  0  0  0  0  0  0
   63.7267   32.0613   49.2044 H   0  0  0  0  0  0  0  0  0  0  0  0
   64.7572   33.1083   47.1874 H   0  0  0  0  0  0  0  0  0  0  0  0
   63.3217   34.2587   45.5021 H   0  0  0  0  0  0  0  0  0  0  0  0
   60.8477   34.3680   45.8330 H   0  0  0  0  0  0  0  0  0  0  0  0
   59.8092   33.3235   47.8476 H   0  0  0  0  0  0  0  0  0  0  0  0
   60.3209   33.2778   51.3258 H   0  0  0  0  0  0  0  0  0  0  0  0
   59.4547   33.3363   49.7464 H   0  0  0  0  0  0  0  0  0  0  0  0
   58.2295   32.1243   51.6440 H   0  0  0  0  0  0  0  0  0  0  0  0
   58.4407   31.1913   50.1182 H   0  0  0  0  0  0  0  0  0  0  0  0
  1  2  2  0
  2  3  1  0
  3  4  2  0
  4  5  1  0
  5  6  1  0
  6  7  1  0
  7  8  1  0
  8  9  2  0
  9 10  1  0
 10 11  2  0
 11 12  1  0
 11 13  1  0
 13 14  2  0
  5 15  2  0
 15 16  1  0
  2 17  1  0
 17 18  1  0
 18 19  1  0
 19 20  1  0
 20 21  1  0
 21 22  2  0
 22 23  1  0
 23 24  2  0
 24 25  1  0
 25 26  2  0
 20 27  1  0
 27 28  1  0
 16  3  1  0
 28 17  1  0
 14  8  1  0
 26 21  1  0
  6 29  1  0
  6 30  1  0
  7 31  1  0
  7 32  1  0
  9 33  1  0
 10 34  1  0
 13 35  1  0
 14 36  1  0
 15 37  1  0
 18 38  1  0
 18 39  1  0
 19 40  1  0
 19 41  1  0
 22 42  1  0
 23 43  1  0
 24 44  1  0
 25 45  1  0
 26 46  1  0
 27 47  1  0
 27 48  1  0
 28 49  1  0
 28 50  1  0
M  CHG  2  12  -1  16  -1
M  END
>  <UniqueID>  (55) 
51

>  <SMILES>  (55) 
O=C(c1nc(CCc2ccc([O-])cc2)c[n-]1)N1CCN(c2ccccc2)CC1

>  <Energy>  (55) 
82.91623211244185

>  <Genealogy>  (55) 
O=C(c1nc(CCc2ccc([O-])cc2)c[n-]1)N1CCN(c2ccccc2)CC1 (protonated)
O=C(c1nc(CCc2ccc([O-])cc2)c[n-]1)N1CCN(c2ccccc2)CC1 (3D coordinates assigned)
O=C(c1nc(CCc2ccc([O-])cc2)c[n-]1)N1CCN(c2ccccc2)CC1 (nonaromatic ring conformer: 82.91623211244185 kcal/mol)

>  <smiles>  (55) 
O=C(c1nc(CCc2ccc(O)cc2)c[nH]1)N1CCN(c2ccccc2)CC1

>  <score_type>  (55) 
oracle

>  <origin>  (55) 
adg

>  <m_score__min__energy>  (55) 
-13.75

>  <m_primary>  (55) 
energy

$$$$
55:0
     RDKit          3D

 48 51  0  0  0  0  0  0  0  0999 V2000
   59.7300   25.6240   45.7100 O   0  0  0  0  0  0  0  0  0  0  0  0
   58.7630   26.4290   45.7330 C   0  0  0  0  0  0  0  0  0  0  0  0
   58.7840   27.6120   44.8010 C   0  0  0  0  0  0  0  0  0  0  0  0
   57.4640   28.3970   44.8360 C   0  0  0  0  0  0  0  0  0  0  0  0
   57.6750   29.8800   44.6120 C   0  0  0  0  0  0  0  0  0  0  0  0
   57.2280   30.4310   43.3970 C   0  0  0  0  0  0  0  0  0  0  0  0
   57.4090   31.7850   43.1160 C   0  0  0  0  0  0  0  0  0  0  0  0
   58.0370   32.6120   44.0450 C   0  0  0  0  0  0  0  0  0  0  0  0
   58.4890   32.0880   45.2550 C   0  0  0  0  0  0  0  0  0  0  0  0
   58.3270   30.7220   45.5550 C   0  0  0  0  0  0  0  0  0  0  0  0
   58.8070   30.2270   46.9040 C   0  0  0  0  0  0  0  0  0  0  0  0
   60.0320   30.9700   47.3520 C   0  0  0  0  0  0  0  0  0  0  0  0
   61.3540   30.5370   47.1540 C   0  0  0  0  0  0  0  0  0  0  0  0
   62.0980   31.5860   47.6350 C   0  0  0  0  0  0  0  0  0  0  0  0
   63.2730   32.0970   47.2600 N   0  0  0  0  0  0  0  0  0  0  0  0
   63.0970   33.4230   47.5090 C   0  0  0  0  0  0  0  0  0  0  0  0
   63.9860   34.2830   47.2710 O   0  0  0  0  0  0  0  0  0  0  0  0
   61.8540   33.7600   47.9600 N   0  0  0  0  0  0  0  0  0  0  0  0
   61.2850   32.5470   48.0510 C   0  0  0  0  0  0  0  0  0  0  0  0
   59.9960   32.2220   47.8870 N   0  0  0  0  0  0  0  0  0  0  0  0
   57.7070   26.2070   46.6740 N   0  0  0  0  0  0  0  0  0  0  0  0
   56.2670   25.2900   46.3750 S   0  0  0  0  0  0  0  0  0  0  0  0
   55.8810   24.5620   47.6300 O   0  0  0  0  0  0  0  0  0  0  0  0
   55.1520   26.2220   45.9910 O   0  0  0  0  0  0  0  0  0  0  0  0
   56.5500   24.1100   45.0980 C   0  0  0  0  0  0  0  0  0  0  0  0
   57.6620   23.2580   45.1560 C   0  0  0  0  0  0  0  0  0  0  0  0
   57.8790   22.3190   44.1430 C   0  0  0  0  0  0  0  0  0  0  0  0
   56.9890   22.2280   43.0690 C   0  0  0  0  0  0  0  0  0  0  0  0
   55.8820   23.0790   43.0050 C   0  0  0  0  0  0  0  0  0  0  0  0
   55.6620   24.0210   44.0170 C   0  0  0  0  0  0  0  0  0  0  0  0
   59.6039   28.2828   45.0973 H   0  0  0  0  0  0  0  0  0  0  0  0
   58.9277   27.2352   43.7776 H   0  0  0  0  0  0  0  0  0  0  0  0
   56.8008   28.0104   44.0481 H   0  0  0  0  0  0  0  0  0  0  0  0
   57.0190   28.2658   45.8334 H   0  0  0  0  0  0  0  0  0  0  0  0
   56.7293   29.7854   42.6591 H   0  0  0  0  0  0  0  0  0  0  0  0
   57.0558   32.2002   42.1606 H   0  0  0  0  0  0  0  0  0  0  0  0
   58.1763   33.6803   43.8232 H   0  0  0  0  0  0  0  0  0  0  0  0
   58.9784   32.7500   45.9846 H   0  0  0  0  0  0  0  0  0  0  0  0
   58.0075   30.3740   47.6451 H   0  0  0  0  0  0  0  0  0  0  0  0
   59.0611   29.1606   46.8128 H   0  0  0  0  0  0  0  0  0  0  0  0
   61.7065   29.5897   46.7200 H   0  0  0  0  0  0  0  0  0  0  0  0
   64.0570   31.6290   46.7540 H   0  0  0  0  0  0  0  0  0  0  0  0
   59.1660   32.8470   47.9960 H   0  0  0  0  0  0  0  0  0  0  0  0
   58.3646   23.3284   45.9995 H   0  0  0  0  0  0  0  0  0  0  0  0
   58.7515   21.6508   44.1913 H   0  0  0  0  0  0  0  0  0  0  0  0
   57.1598   21.4868   42.2743 H   0  0  0  0  0  0  0  0  0  0  0  0
   55.1830   23.0085   42.1586 H   0  0  0  0  0  0  0  0  0  0  0  0
   54.7918   24.6917   43.9639 H   0  0  0  0  0  0  0  0  0  0  0  0
  1  2  2  0
  2  3  1  0
  3  4  1  0
  4  5  1  0
  5  6  2  0
  6  7  1  0
  7  8  2  0
  8  9  1  0
  9 10  2  0
 10 11  1  0
 11 12  1  0
 12 13  2  0
 13 14  1  0
 14 15  1  0
 15 16  1  0
 16 17  2  0
 16 18  1  0
 18 19  1  0
 19 20  1  0
  2 21  1  0
 21 22  1  0
 22 23  2  0
 22 24  2  0
 22 25  1  0
 25 26  2  0
 26 27  1  0
 27 28  2  0
 28 29  1  0
 29 30  2  0
 10  5  1  0
 20 12  1  0
 30 25  1  0
 19 14  2  0
  3 31  1  0
  3 32  1  0
  4 33  1  0
  4 34  1  0
  6 35  1  0
  7 36  1  0
  8 37  1  0
  9 38  1  0
 11 39  1  0
 11 40  1  0
 13 41  1  0
 15 42  1  0
 20 43  1  0
 26 44  1  0
 27 45  1  0
 28 46  1  0
 29 47  1  0
 30 48  1  0
M  CHG  2  18  -1  21  -1
M  END
>  <UniqueID>  (56) 
52

>  <SMILES>  (56) 
O=C(CCc1ccccc1Cc1cc2[nH]c(=O)[n-]c2[nH]1)[N-]S(=O)(=O)c1ccccc1

>  <Energy>  (56) 
139.0479481807333

>  <Genealogy>  (56) 
O=C(CCc1ccccc1Cc1cc2[nH]c(=O)[n-]c2[nH]1)[N-]S(=O)(=O)c1ccccc1 (protonated)
O=C(CCc1ccccc1Cc1cc2[nH]c(=O)[n-]c2[nH]1)[N-]S(=O)(=O)c1ccccc1 (3D coordinates assigned)
O=C(CCc1ccccc1Cc1cc2[nH]c(=O)[n-]c2[nH]1)[N-]S(=O)(=O)c1ccccc1 (optimized conformer: 139.0479481807333 kcal/mol)

>  <smiles>  (56) 
O=C(CCc1ccccc1Cc1cc2[nH]c(=O)[nH]c2[nH]1)NS(=O)(=O)c1ccccc1

>  <score_type>  (56) 
oracle

>  <origin>  (56) 
adg

>  <m_score__min__energy>  (56) 
-12.49

>  <m_primary>  (56) 
energy

$$$$
56:0
     RDKit          3D

 45 47  0  0  0  0  0  0  0  0999 V2000
   60.1360   34.8310   46.9510 O   0  0  0  0  0  0  0  0  0  0  0  0
   59.4090   34.2720   47.8150 C   0  0  0  0  0  0  0  0  0  0  0  0
   59.6550   34.5410   49.2690 C   0  0  0  0  0  0  0  0  0  0  0  0
   60.5440   33.4510   49.8700 C   0  0  0  0  0  0  0  0  0  0  0  0
   61.6090   33.0340   48.8890 C   0  0  0  0  0  0  0  0  0  0  0  0
   61.4850   31.8200   48.1920 C   0  0  0  0  0  0  0  0  0  0  0  0
   62.4830   31.4110   47.3040 C   0  0  0  0  0  0  0  0  0  0  0  0
   63.6170   32.2040   47.1120 C   0  0  0  0  0  0  0  0  0  0  0  0
   63.7570   33.4050   47.8100 C   0  0  0  0  0  0  0  0  0  0  0  0
   62.7610   33.8210   48.7010 C   0  0  0  0  0  0  0  0  0  0  0  0
   62.9230   34.9850   49.3810 F   0  0  0  0  0  0  0  0  0  0  0  0
   58.3530   33.3820   47.4210 N   0  0  0  0  0  0  0  0  0  0  0  0
   58.1880   32.8670   46.0880 C   0  0  0  0  0  0  0  0  0  0  0  0
   58.2600   33.7090   44.9640 C   0  0  0  0  0  0  0  0  0  0  0  0
   58.1380   33.1770   43.6780 C   0  0  0  0  0  0  0  0  0  0  0  0
   57.9480   31.8040   43.4990 C   0  0  0  0  0  0  0  0  0  0  0  0
   57.8690   30.9510   44.6140 C   0  0  0  0  0  0  0  0  0  0  0  0
   57.7040   29.5320   44.4780 N   0  0  0  0  0  0  0  0  0  0  0  0
   56.7230   28.7140   45.1320 C   0  0  0  0  0  0  0  0  0  0  0  0
   55.5220   29.0960   45.1790 O   0  0  0  0  0  0  0  0  0  0  0  0
   57.1160   27.4430   45.8010 C   0  0  0  0  0  0  0  0  0  0  0  0
   58.4810   27.1850   46.0440 C   0  0  0  0  0  0  0  0  0  0  0  0
   58.8860   26.0030   46.6700 C   0  0  0  0  0  0  0  0  0  0  0  0
   57.9370   25.0600   47.0620 C   0  0  0  0  0  0  0  0  0  0  0  0
   56.5820   25.2960   46.8320 C   0  0  0  0  0  0  0  0  0  0  0  0
   56.1640   26.4770   46.2070 C   0  0  0  0  0  0  0  0  0  0  0  0
   54.8030   26.6690   46.0000 O   0  0  0  0  0  0  0  0  0  0  0  0
   58.0190   31.4880   45.8990 C   0  0  0  0  0  0  0  0  0  0  0  0
   60.1529   35.5158   49.3781 H   0  0  0  0  0  0  0  0  0  0  0  0
   58.6910   34.5475   49.7987 H   0  0  0  0  0  0  0  0  0  0  0  0
   61.0235   33.8374   50.7815 H   0  0  0  0  0  0  0  0  0  0  0  0
   59.9205   32.5769   50.1091 H   0  0  0  0  0  0  0  0  0  0  0  0
   60.5976   31.1886   48.3464 H   0  0  0  0  0  0  0  0  0  0  0  0
   62.3758   30.4636   46.7554 H   0  0  0  0  0  0  0  0  0  0  0  0
   64.4004   31.8818   46.4102 H   0  0  0  0  0  0  0  0  0  0  0  0
   64.6524   34.0259   47.6593 H   0  0  0  0  0  0  0  0  0  0  0  0
   57.6220   33.1470   48.1290 H   0  0  0  0  0  0  0  0  0  0  0  0
   58.4129   34.7901   45.0978 H   0  0  0  0  0  0  0  0  0  0  0  0
   58.1917   33.8413   42.8029 H   0  0  0  0  0  0  0  0  0  0  0  0
   57.8601   31.3898   42.4838 H   0  0  0  0  0  0  0  0  0  0  0  0
   59.2364   27.9234   45.7370 H   0  0  0  0  0  0  0  0  0  0  0  0
   59.9544   25.8165   46.8536 H   0  0  0  0  0  0  0  0  0  0  0  0
   58.2572   24.1292   47.5530 H   0  0  0  0  0  0  0  0  0  0  0  0
   55.8367   24.5494   47.1437 H   0  0  0  0  0  0  0  0  0  0  0  0
   58.0040   30.8187   46.7718 H   0  0  0  0  0  0  0  0  0  0  0  0
  1  2  2  0
  2  3  1  0
  3  4  1  0
  4  5  1  0
  5  6  2  0
  6  7  1  0
  7  8  2  0
  8  9  1  0
  9 10  2  0
 10 11  1  0
  2 12  1  0
 12 13  1  0
 13 14  2  0
 14 15  1  0
 15 16  2  0
 16 17  1  0
 17 18  1  0
 18 19  1  0
 19 20  2  0
 19 21  1  0
 21 22  2  0
 22 23  1  0
 23 24  2  0
 24 25  1  0
 25 26  2  0
 26 27  1  0
 17 28  2  0
 10  5  1  0
 28 13  1  0
 26 21  1  0
  3 29  1  0
  3 30  1  0
  4 31  1  0
  4 32  1  0
  6 33  1  0
  7 34  1  0
  8 35  1  0
  9 36  1  0
 12 37  1  0
 14 38  1  0
 15 39  1  0
 16 40  1  0
 22 41  1  0
 23 42  1  0
 24 43  1  0
 25 44  1  0
 28 45  1  0
M  CHG  2  18  -1  27  -1
M  END
>  <UniqueID>  (57) 
53

>  <SMILES>  (57) 
O=C(CCc1ccccc1F)Nc1cccc([N-]C(=O)c2ccccc2[O-])c1

>  <Energy>  (57) 
53.97750615717865

>  <Genealogy>  (57) 
O=C(CCc1ccccc1F)Nc1cccc([N-]C(=O)c2ccccc2[O-])c1 (protonated)
O=C(CCc1ccccc1F)Nc1cccc([N-]C(=O)c2ccccc2[O-])c1 (3D coordinates assigned)
O=C(CCc1ccccc1F)Nc1cccc([N-]C(=O)c2ccccc2[O-])c1 (optimized conformer: 53.97750615717865 kcal/mol)

>  <smiles>  (57) 
O=C(CCc1ccccc1F)Nc1cccc(NC(=O)c2ccccc2O)c1

>  <score_type>  (57) 
oracle

>  <origin>  (57) 
adg

>  <m_score__min__energy>  (57) 
-14.69

>  <m_primary>  (57) 
energy

$$$$
57:0
     RDKit          3D

 76 79  0  0  0  0  0  0  0  0999 V2000
   57.2780   29.3640   51.9880 N   0  0  0  0  0  0  0  0  0  0  0  0
   57.2390   30.6980   52.5810 C   0  0  0  0  0  0  0  0  0  0  0  0
   57.9290   31.7050   51.6970 C   0  0  0  0  0  0  0  0  0  0  0  0
   57.9720   31.5160   50.3060 C   0  0  0  0  0  0  0  0  0  0  0  0
   58.6430   32.4290   49.4910 C   0  0  0  0  0  0  0  0  0  0  0  0
   59.2730   33.5520   50.0500 C   0  0  0  0  0  0  0  0  0  0  0  0
   60.0170   34.5320   49.1790 C   0  0  0  0  0  0  0  0  0  0  0  0
   60.5550   33.8850   47.9860 N   0  0  0  0  0  0  0  0  0  0  0  0
   59.8900   33.7460   46.7220 C   0  0  0  0  0  0  0  0  0  0  0  0
   59.5950   34.7920   46.0790 O   0  0  0  0  0  0  0  0  0  0  0  0
   59.5400   32.4030   46.1250 C   0  0  2  0  0  0  0  0  0  0  0  0
   58.0150   32.2840   45.9620 C   0  0  0  0  0  0  0  0  0  0  0  0
   57.6380   31.9420   44.5430 C   0  0  0  0  0  0  0  0  0  0  0  0
   56.7800   30.8620   44.2760 C   0  0  0  0  0  0  0  0  0  0  0  0
   56.4650   30.5200   42.9570 C   0  0  0  0  0  0  0  0  0  0  0  0
   57.0100   31.2500   41.8970 C   0  0  0  0  0  0  0  0  0  0  0  0
   57.8690   32.3220   42.1540 C   0  0  0  0  0  0  0  0  0  0  0  0
   58.1870   32.6650   43.4720 C   0  0  0  0  0  0  0  0  0  0  0  0
   60.0310   31.3460   47.0080 N   0  0  0  0  0  0  0  0  0  0  0  0
   60.1650   29.9790   46.6010 C   0  0  0  0  0  0  0  0  0  0  0  0
   60.7800   29.7030   45.5340 O   0  0  0  0  0  0  0  0  0  0  0  0
   59.6020   28.9200   47.4030 N   0  0  0  0  0  0  0  0  0  0  0  0
   60.3870   28.3290   48.4980 C   0  0  0  0  0  0  0  0  0  0  0  0
   60.1920   29.0900   49.7850 C   0  0  0  0  0  0  0  0  0  0  0  0
   59.3690   28.6680   50.6420 O   0  0  0  0  0  0  0  0  0  0  0  0
   60.8640   30.3310   50.0280 N   0  0  0  0  0  0  0  0  0  0  0  0
   62.3080   30.4900   50.1070 C   0  0  0  0  0  0  0  0  0  0  0  0
   62.7260   31.6830   49.2900 C   0  0  0  0  0  0  0  0  0  0  0  0
   62.9460   31.5290   47.9090 C   0  0  0  0  0  0  0  0  0  0  0  0
   63.3680   32.6120   47.1330 C   0  0  0  0  0  0  0  0  0  0  0  0
   63.5810   33.8580   47.7290 C   0  0  0  0  0  0  0  0  0  0  0  0
   63.3850   34.0200   49.1030 C   0  0  0  0  0  0  0  0  0  0  0  0
   62.9650   32.9410   49.8900 C   0  0  0  0  0  0  0  0  0  0  0  0
   62.7710   33.1950   51.6230 Cl  0  0  0  0  0  0  0  0  0  0  0  0
   58.2310   28.4380   47.1670 C   0  0  0  0  0  0  0  0  0  0  0  0
   58.1510   27.6840   45.8580 C   0  0  0  0  0  0  0  0  0  0  0  0
   58.4320   28.3800   44.6690 C   0  0  0  0  0  0  0  0  0  0  0  0
   58.3870   27.7250   43.4370 C   0  0  0  0  0  0  0  0  0  0  0  0
   58.0700   26.3670   43.3770 C   0  0  0  0  0  0  0  0  0  0  0  0
   57.7950   25.6600   44.5480 C   0  0  0  0  0  0  0  0  0  0  0  0
   57.8330   26.3060   45.7900 C   0  0  0  0  0  0  0  0  0  0  0  0
   57.4630   25.2420   47.3460 Br  0  0  0  0  0  0  0  0  0  0  0  0
   59.2580   33.7200   51.4420 C   0  0  0  0  0  0  0  0  0  0  0  0
   58.5930   32.8040   52.2610 C   0  0  0  0  0  0  0  0  0  0  0  0
   57.4040   29.4560   50.9540 H   0  0  0  0  0  0  0  0  0  0  0  0
   58.1070   28.8510   52.3660 H   0  0  0  0  0  0  0  0  0  0  0  0
   56.1901   30.9996   52.7184 H   0  0  0  0  0  0  0  0  0  0  0  0
   57.7619   30.6659   53.5483 H   0  0  0  0  0  0  0  0  0  0  0  0
   57.4743   30.6440   49.8566 H   0  0  0  0  0  0  0  0  0  0  0  0
   58.6784   32.2675   48.4035 H   0  0  0  0  0  0  0  0  0  0  0  0
   59.3277   35.3323   48.8717 H   0  0  0  0  0  0  0  0  0  0  0  0
   60.8574   34.9409   49.7590 H   0  0  0  0  0  0  0  0  0  0  0  0
   60.0098   32.3047   45.1352 H   0  0  0  0  0  0  0  0  0  0  0  0
   57.6442   31.4936   46.6311 H   0  0  0  0  0  0  0  0  0  0  0  0
   57.5632   33.2543   46.2157 H   0  0  0  0  0  0  0  0  0  0  0  0
   56.3539   30.2826   45.1084 H   0  0  0  0  0  0  0  0  0  0  0  0
   55.7885   29.6767   42.7539 H   0  0  0  0  0  0  0  0  0  0  0  0
   56.7626   30.9805   40.8596 H   0  0  0  0  0  0  0  0  0  0  0  0
   58.2955   32.8967   41.3186 H   0  0  0  0  0  0  0  0  0  0  0  0
   58.8698   33.5043   43.6703 H   0  0  0  0  0  0  0  0  0  0  0  0
   60.0674   27.2869   48.6460 H   0  0  0  0  0  0  0  0  0  0  0  0
   61.4518   28.3747   48.2257 H   0  0  0  0  0  0  0  0  0  0  0  0
   62.6035   30.6418   51.1556 H   0  0  0  0  0  0  0  0  0  0  0  0
   62.7987   29.5868   49.7153 H   0  0  0  0  0  0  0  0  0  0  0  0
   62.7847   30.5489   47.4365 H   0  0  0  0  0  0  0  0  0  0  0  0
   63.5325   32.4837   46.0530 H   0  0  0  0  0  0  0  0  0  0  0  0
   63.9034   34.7123   47.1157 H   0  0  0  0  0  0  0  0  0  0  0  0
   63.5617   35.0007   49.5688 H   0  0  0  0  0  0  0  0  0  0  0  0
   57.9364   27.7686   47.9886 H   0  0  0  0  0  0  0  0  0  0  0  0
   57.5534   29.3033   47.1205 H   0  0  0  0  0  0  0  0  0  0  0  0
   58.6892   29.4487   44.7099 H   0  0  0  0  0  0  0  0  0  0  0  0
   58.6017   28.2801   42.5119 H   0  0  0  0  0  0  0  0  0  0  0  0
   58.0369   25.8533   42.4049 H   0  0  0  0  0  0  0  0  0  0  0  0
   57.5470   24.5896   44.4954 H   0  0  0  0  0  0  0  0  0  0  0  0
   59.7742   34.5803   51.8930 H   0  0  0  0  0  0  0  0  0  0  0  0
   58.5902   32.9453   53.3519 H   0  0  0  0  0  0  0  0  0  0  0  0
  1  2  1  0
  2  3  1  0
  3  4  2  0
  4  5  1  0
  5  6  2  0
  6  7  1  0
  7  8  1  0
  8  9  1  0
  9 10  2  0
  9 11  1  0
 11 12  1  0
 12 13  1  0
 13 14  2  0
 14 15  1  0
 15 16  2  0
 16 17  1  0
 17 18  2  0
 11 19  1  0
 19 20  1  0
 20 21  2  0
 20 22  1  0
 22 23  1  0
 23 24  1  0
 24 25  2  0
 24 26  1  0
 26 27  1  0
 27 28  1  0
 28 29  2  0
 29 30  1  0
 30 31  2  0
 31 32  1  0
 32 33  2  0
 33 34  1  0
 22 35  1  0
 35 36  1  0
 36 37  2  0
 37 38  1  0
 38 39  2  0
 39 40  1  0
 40 41  2  0
 41 42  1  0
  6 43  1  0
 43 44  2  0
 44  3  1  0
 18 13  1  0
 33 28  1  0
 41 36  1  0
  1 45  1  0
  1 46  1  0
  2 47  1  0
  2 48  1  0
  4 49  1  0
  5 50  1  0
  7 51  1  0
  7 52  1  0
 11 53  1  6
 12 54  1  0
 12 55  1  0
 14 56  1  0
 15 57  1  0
 16 58  1  0
 17 59  1  0
 18 60  1  0
 23 61  1  0
 23 62  1  0
 27 63  1  0
 27 64  1  0
 29 65  1  0
 30 66  1  0
 31 67  1  0
 32 68  1  0
 35 69  1  0
 35 70  1  0
 37 71  1  0
 38 72  1  0
 39 73  1  0
 40 74  1  0
 43 75  1  0
 44 76  1  0
M  CHG  3   8  -1  19  -1  26  -1
M  END
>  <UniqueID>  (58) 
54

>  <SMILES>  (58) 
NCc1ccc(C[N-]C(=O)[C@H](Cc2ccccc2)[N-]C(=O)N(CC(=O)[N-]Cc2ccccc2Cl)Cc2ccccc2Br)cc1

>  <Energy>  (58) 
68.34619207823961

>  <Genealogy>  (58) 
NCc1ccc(C[N-]C(=O)C(Cc2ccccc2)[N-]C(=O)N(CC(=O)[N-]Cc2ccccc2Cl)Cc2ccccc2Br)cc1 (protonated)
NCc1ccc(C[N-]C(=O)[C@H](Cc2ccccc2)[N-]C(=O)N(CC(=O)[N-]Cc2ccccc2Cl)Cc2ccccc2Br)cc1 (chirality)
NCc1ccc(C[N-]C(=O)[C@H](Cc2ccccc2)[N-]C(=O)N(CC(=O)[N-]Cc2ccccc2Cl)Cc2ccccc2Br)cc1 (3D coordinates assigned)
NCc1ccc(C[N-]C(=O)[C@H](Cc2ccccc2)[N-]C(=O)N(CC(=O)[N-]Cc2ccccc2Cl)Cc2ccccc2Br)cc1 (optimized conformer: 68.34619207823961 kcal/mol)

>  <smiles>  (58) 
NCc1ccc(CNC(=O)C(Cc2ccccc2)NC(=O)N(CC(=O)NCc2ccccc2Cl)Cc2ccccc2Br)cc1

>  <score_type>  (58) 
oracle

>  <origin>  (58) 
adg

>  <m_score__min__energy>  (58) 
-13.949999999999999

>  <m_primary>  (58) 
energy

$$$$
58:0
     RDKit          3D

 41 43  0  0  0  0  0  0  0  0999 V2000
   57.8180   27.8060   42.8420 O   0  0  0  0  0  0  0  0  0  0  0  0
   57.1040   28.6400   43.4590 C   0  0  0  0  0  0  0  0  0  0  0  0
   56.5760   29.8420   42.7210 C   0  0  0  0  0  0  0  0  0  0  0  0
   57.2180   31.0710   43.2010 N   0  0  0  0  0  0  0  0  0  0  0  0
   57.4010   31.4960   44.4680 C   0  0  0  0  0  0  0  0  0  0  0  0
   57.0210   30.8180   45.6240 O   0  0  0  0  0  0  0  0  0  0  0  0
   58.0260   32.7230   44.4390 C   0  0  0  0  0  0  0  0  0  0  0  0
   58.4390   33.5400   45.6230 C   0  0  0  0  0  0  0  0  0  0  0  0
   59.7160   33.0080   46.2130 C   0  0  0  0  0  0  0  0  0  0  0  0
   60.8260   33.8530   46.3720 C   0  0  0  0  0  0  0  0  0  0  0  0
   62.0100   33.3650   46.9340 C   0  0  0  0  0  0  0  0  0  0  0  0
   62.0940   32.0290   47.3360 C   0  0  0  0  0  0  0  0  0  0  0  0
   61.0000   31.1760   47.1620 C   0  0  0  0  0  0  0  0  0  0  0  0
   59.8170   31.6600   46.5960 C   0  0  0  0  0  0  0  0  0  0  0  0
   58.2470   33.0890   43.1580 N   0  0  0  0  0  0  0  0  0  0  0  0
   57.7330   32.0660   42.4430 C   0  0  0  0  0  0  0  0  0  0  0  0
   57.7360   32.0490   41.1840 O   0  0  0  0  0  0  0  0  0  0  0  0
   56.8690   28.4480   44.8600 N   0  0  0  0  0  0  0  0  0  0  0  0
   57.7920   27.8500   45.7790 C   0  0  0  0  0  0  0  0  0  0  0  0
   59.0640   28.4210   45.9550 C   0  0  0  0  0  0  0  0  0  0  0  0
   59.9600   27.8890   46.8810 C   0  0  0  0  0  0  0  0  0  0  0  0
   59.5890   26.7960   47.6590 C   0  0  0  0  0  0  0  0  0  0  0  0
   58.3220   26.2290   47.5130 C   0  0  0  0  0  0  0  0  0  0  0  0
   57.4070   26.7380   46.5700 C   0  0  0  0  0  0  0  0  0  0  0  0
   56.0840   26.0770   46.4160 C   0  0  0  0  0  0  0  0  0  0  0  0
   55.1010   26.7220   45.9640 O   0  0  0  0  0  0  0  0  0  0  0  0
   55.8930   24.7480   46.7790 O   0  0  0  0  0  0  0  0  0  0  0  0
   56.7805   29.7241   41.6466 H   0  0  0  0  0  0  0  0  0  0  0  0
   55.4930   29.9172   42.8984 H   0  0  0  0  0  0  0  0  0  0  0  0
   56.2680   30.1430   45.6380 H   0  0  0  0  0  0  0  0  0  0  0  0
   58.5933   34.5823   45.3071 H   0  0  0  0  0  0  0  0  0  0  0  0
   57.6470   33.4868   46.3846 H   0  0  0  0  0  0  0  0  0  0  0  0
   60.7640   34.9039   46.0530 H   0  0  0  0  0  0  0  0  0  0  0  0
   62.8752   34.0326   47.0597 H   0  0  0  0  0  0  0  0  0  0  0  0
   63.0212   31.6485   47.7894 H   0  0  0  0  0  0  0  0  0  0  0  0
   61.0703   30.1226   47.4709 H   0  0  0  0  0  0  0  0  0  0  0  0
   58.9623   30.9832   46.4500 H   0  0  0  0  0  0  0  0  0  0  0  0
   59.3555   29.2964   45.3561 H   0  0  0  0  0  0  0  0  0  0  0  0
   60.9598   28.3328   46.9968 H   0  0  0  0  0  0  0  0  0  0  0  0
   60.2961   26.3781   48.3907 H   0  0  0  0  0  0  0  0  0  0  0  0
   58.0341   25.3738   48.1421 H   0  0  0  0  0  0  0  0  0  0  0  0
  1  2  2  0
  2  3  1  0
  3  4  1  0
  4  5  1  0
  5  6  1  0
  5  7  2  0
  7  8  1  0
  8  9  1  0
  9 10  2  0
 10 11  1  0
 11 12  2  0
 12 13  1  0
 13 14  2  0
  7 15  1  0
 15 16  1  0
 16 17  2  0
  2 18  1  0
 18 19  1  0
 19 20  2  0
 20 21  1  0
 21 22  2  0
 22 23  1  0
 23 24  2  0
 24 25  1  0
 25 26  2  0
 25 27  1  0
 16  4  1  0
 24 19  1  0
 14  9  1  0
  3 28  1  0
  3 29  1  0
  6 30  1  0
  8 31  1  0
  8 32  1  0
 10 33  1  0
 11 34  1  0
 12 35  1  0
 13 36  1  0
 14 37  1  0
 20 38  1  0
 21 39  1  0
 22 40  1  0
 23 41  1  0
M  CHG  3  15  -1  18  -1  27  -1
M  END
>  <UniqueID>  (59) 
55

>  <SMILES>  (59) 
O=C(Cn1c(O)c(Cc2ccccc2)[n-]c1=O)[N-]c1ccccc1C(=O)[O-]

>  <Energy>  (59) 
75.71404170241128

>  <Genealogy>  (59) 
O=C(Cn1c(O)c(Cc2ccccc2)[n-]c1=O)[N-]c1ccccc1C(=O)[O-] (protonated)
O=C(Cn1c(O)c(Cc2ccccc2)[n-]c1=O)[N-]c1ccccc1C(=O)[O-] (3D coordinates assigned)
O=C(Cn1c(O)c(Cc2ccccc2)[n-]c1=O)[N-]c1ccccc1C(=O)[O-] (optimized conformer: 75.71404170241128 kcal/mol)

>  <smiles>  (59) 
O=C(Cn1c(O)c(Cc2ccccc2)[nH]c1=O)Nc1ccccc1C(=O)O

>  <score_type>  (59) 
oracle

>  <origin>  (59) 
adg

>  <m_score__min__energy>  (59) 
-14.93

>  <m_primary>  (59) 
energy

$$$$
59:0
     RDKit          3D

 55 59  0  0  0  0  0  0  0  0999 V2000
   56.6794   30.9578   41.1109 H   0  0  0  0  0  0  0  0  0  0  0  0
   57.0170   31.2060   42.1280 C   0  0  0  0  0  0  0  0  0  0  0  0
   57.7590   32.3620   42.3530 C   0  0  0  0  0  0  0  0  0  0  0  0
   58.0141   33.0216   41.5105 H   0  0  0  0  0  0  0  0  0  0  0  0
   58.1810   32.6880   43.6440 C   0  0  0  0  0  0  0  0  0  0  0  0
   58.7592   33.6091   43.8091 H   0  0  0  0  0  0  0  0  0  0  0  0
   57.8760   31.8520   44.7400 C   0  0  0  0  0  0  0  0  0  0  0  0
   58.2970   32.2300   46.1300 C   0  0  0  0  0  0  0  0  0  0  0  0
   58.2400   33.4460   46.4650 O   0  0  0  0  0  0  0  0  0  0  0  0
   58.7770   31.2390   47.0900 N   0  0  0  0  0  0  0  0  0  0  0  0
   58.0840   30.4560   47.1080 H   0  0  0  0  0  0  0  0  0  0  0  0
   60.0700   30.6160   46.6940 C   0  0  0  0  0  0  0  0  0  0  0  0
   60.1383   29.6233   47.1629 H   0  0  0  0  0  0  0  0  0  0  0  0
   60.0816   30.5547   45.5958 H   0  0  0  0  0  0  0  0  0  0  0  0
   61.3010   31.4480   47.1220 C   0  0  0  0  0  0  0  0  0  0  0  0
   61.7535   30.9942   48.0161 H   0  0  0  0  0  0  0  0  0  0  0  0
   62.0300   31.4611   46.2984 H   0  0  0  0  0  0  0  0  0  0  0  0
   60.8960   32.8340   47.4300 N   0  0  0  0  0  0  0  0  0  0  0  0
   61.9810   33.8420   47.5710 C   0  0  0  0  0  0  0  0  0  0  0  0
   61.3431   34.7380   47.5861 H   0  0  0  0  0  0  0  0  0  0  0  0
   63.1030   33.6570   46.5530 C   0  0  0  0  0  0  0  0  0  0  0  0
   62.9745   32.7846   45.8954 H   0  0  0  0  0  0  0  0  0  0  0  0
   63.2934   34.4225   45.7863 H   0  0  0  0  0  0  0  0  0  0  0  0
   64.0930   33.4390   47.6920 C   0  0  0  0  0  0  0  0  0  0  0  0
   64.5368   32.4327   47.7124 H   0  0  0  0  0  0  0  0  0  0  0  0
   65.0134   34.0388   47.7466 H   0  0  0  0  0  0  0  0  0  0  0  0
   62.9820   33.6470   48.7140 C   0  0  0  0  0  0  0  0  0  0  0  0
   62.7800   32.7689   49.3449 H   0  0  0  0  0  0  0  0  0  0  0  0
   63.0833   34.4045   49.5051 H   0  0  0  0  0  0  0  0  0  0  0  0
   59.9960   32.8530   48.5960 C   0  0  0  0  0  0  0  0  0  0  0  0
   60.5797   32.6326   49.5020 H   0  0  0  0  0  0  0  0  0  0  0  0
   59.5351   33.8497   48.6606 H   0  0  0  0  0  0  0  0  0  0  0  0
   58.8680   31.8040   48.4570 C   0  0  0  0  0  0  0  0  0  0  0  0
   59.0610   30.9841   49.1644 H   0  0  0  0  0  0  0  0  0  0  0  0
   57.9153   32.3106   48.6710 H   0  0  0  0  0  0  0  0  0  0  0  0
   57.1330   30.6650   44.4900 C   0  0  0  0  0  0  0  0  0  0  0  0
   56.8030   29.7480   45.5440 N   0  0  0  0  0  0  0  0  0  0  0  0
   57.3320   28.5700   45.7210 C   0  0  0  0  0  0  0  0  0  0  0  0
   58.2220   28.4030   46.7360 N   0  0  0  0  0  0  0  0  0  0  0  0
   58.8430   27.2180   46.9760 C   0  0  0  0  0  0  0  0  0  0  0  0
   59.5562   27.1302   47.8088 H   0  0  0  0  0  0  0  0  0  0  0  0
   58.5760   26.1100   46.1650 C   0  0  0  0  0  0  0  0  0  0  0  0
   59.2250   24.8850   46.3770 C   0  0  0  0  0  0  0  0  0  0  0  0
   59.9525   24.7825   47.1956 H   0  0  0  0  0  0  0  0  0  0  0  0
   58.9470   23.7930   45.5470 C   0  0  0  0  0  0  0  0  0  0  0  0
   59.5960   22.5820   45.7540 O   0  0  0  0  0  0  0  0  0  0  0  0
   58.0190   23.9190   44.5090 C   0  0  0  0  0  0  0  0  0  0  0  0
   57.8028   23.0577   43.8598 H   0  0  0  0  0  0  0  0  0  0  0  0
   57.3650   25.1350   44.2930 C   0  0  0  0  0  0  0  0  0  0  0  0
   56.6311   25.2267   43.4788 H   0  0  0  0  0  0  0  0  0  0  0  0
   57.6430   26.2390   45.1130 C   0  0  0  0  0  0  0  0  0  0  0  0
   57.0200   27.4750   44.8910 C   0  0  0  0  0  0  0  0  0  0  0  0
   56.2923   27.5893   44.0741 H   0  0  0  0  0  0  0  0  0  0  0  0
   56.7020   30.3630   43.1930 C   0  0  0  0  0  0  0  0  0  0  0  0
   56.1102   29.4535   43.0125 H   0  0  0  0  0  0  0  0  0  0  0  0
  1  2  1  0
  2  3  2  0
  3  4  1  0
  3  5  1  0
  5  6  1  0
  5  7  2  0
  7  8  1  0
  8  9  2  0
  8 10  1  0
 10 11  1  0
 10 12  1  0
 12 13  1  0
 12 14  1  0
 12 15  1  0
 15 16  1  0
 15 17  1  0
 15 18  1  0
 18 19  1  0
 19 20  1  0
 19 21  1  0
 21 22  1  0
 21 23  1  0
 21 24  1  0
 24 25  1  0
 24 26  1  0
 24 27  1  0
 27 28  1  0
 27 29  1  0
 18 30  1  0
 30 31  1  0
 30 32  1  0
 30 33  1  0
 33 34  1  0
 33 35  1  0
  7 36  1  0
 36 37  1  0
 37 38  2  0
 38 39  1  0
 39 40  1  0
 40 41  1  0
 40 42  2  0
 42 43  1  0
 43 44  1  0
 43 45  2  0
 45 46  1  0
 45 47  1  0
 47 48  1  0
 47 49  2  0
 49 50  1  0
 49 51  1  0
 51 52  2  0
 52 53  1  0
 36 54  2  0
 54 55  1  0
 54  2  1  0
 33 10  1  0
 52 38  1  0
 27 19  1  0
 51 42  1  0
M  CHG  3  10   1  39  -1  46  -1
M  END
>  <UniqueID>  (60) 
56

>  <SMILES>  (60) 
O=C(c1ccccc1/N=c1\cc2ccc([O-])cc2c[n-]1)[NH+]1CCN(C2CCC2)CC1

>  <Energy>  (60) 
154.18499593567026

>  <Genealogy>  (60) 
O=C(c1ccccc1N=c1cc2ccc([O-])cc2c[n-]1)[NH+]1CCN(C2CCC2)CC1 (protonated)
O=C(c1ccccc1/N=c1\cc2ccc([O-])cc2c[n-]1)[NH+]1CCN(C2CCC2)CC1 (cis-trans isomerization)
O=C(c1ccccc1/N=c1\cc2ccc([O-])cc2c[n-]1)[NH+]1CCN(C2CCC2)CC1 (3D coordinates assigned)
O=C(c1ccccc1/N=c1\cc2ccc([O-])cc2c[n-]1)[NH+]1CCN(C2CCC2)CC1 (nonaromatic ring conformer: 154.18499593567026 kcal/mol)

>  <smiles>  (60) 
O=C(c1ccccc1N=c1cc2ccc(O)cc2c[nH]1)N1CCN(C2CCC2)CC1

>  <score_type>  (60) 
oracle

>  <origin>  (60) 
adg

>  <m_score__min__energy>  (60) 
-10.800000000000001

>  <m_primary>  (60) 
energy

$$$$
60:0
     RDKit          3D

 66 70  0  0  0  0  0  0  0  0999 V2000
   57.3570   29.3390   51.8330 O   0  0  0  0  0  0  0  0  0  0  0  0
   58.0930   30.3460   51.6430 C   0  0  0  0  0  0  0  0  0  0  0  0
   59.4790   30.3640   52.1990 C   0  0  0  0  0  0  0  0  0  0  0  0
   60.4560   28.9850   51.5060 S   0  0  0  0  0  0  0  0  0  0  0  0
   61.1110   29.9600   50.1390 C   0  0  0  0  0  0  0  0  0  0  0  0
   62.0250   30.9150   50.4440 N   0  0  0  0  0  0  0  0  0  0  0  0
   62.5870   31.6960   49.4920 C   0  0  0  0  0  0  0  0  0  0  0  0
   63.5270   32.6690   49.8490 C   0  0  0  0  0  0  0  0  0  0  0  0
   64.1110   33.4710   48.8650 C   0  0  0  0  0  0  0  0  0  0  0  0
   63.7560   33.3040   47.5230 C   0  0  0  0  0  0  0  0  0  0  0  0
   62.8180   32.3330   47.1600 C   0  0  0  0  0  0  0  0  0  0  0  0
   62.2250   31.5190   48.1450 C   0  0  0  0  0  0  0  0  0  0  0  0
   61.2760   30.5300   47.8350 C   0  0  0  0  0  0  0  0  0  0  0  0
   60.9330   30.3570   46.6320 O   0  0  0  0  0  0  0  0  0  0  0  0
   60.7200   29.7610   48.8340 N   0  0  0  0  0  0  0  0  0  0  0  0
   59.6650   28.7790   48.5050 C   0  0  0  0  0  0  0  0  0  0  0  0
   60.2380   27.5690   47.7520 C   0  0  0  0  0  0  0  0  0  0  0  0
   59.5180   27.3310   46.4500 C   0  0  0  0  0  0  0  0  0  0  0  0
   58.3530   26.5450   46.4160 C   0  0  0  0  0  0  0  0  0  0  0  0
   57.6530   26.3770   45.2180 C   0  0  0  0  0  0  0  0  0  0  0  0
   58.1060   26.9930   44.0490 C   0  0  0  0  0  0  0  0  0  0  0  0
   59.2610   27.7800   44.0750 C   0  0  0  0  0  0  0  0  0  0  0  0
   59.9640   27.9530   45.2720 C   0  0  0  0  0  0  0  0  0  0  0  0
   57.6140   31.4620   50.8840 N   0  0  0  0  0  0  0  0  0  0  0  0
   58.4440   32.3840   50.1620 C   0  0  0  0  0  0  0  0  0  0  0  0
   58.3030   32.4690   48.7700 C   0  0  0  0  0  0  0  0  0  0  0  0
   59.1000   33.3540   48.0270 C   0  0  0  0  0  0  0  0  0  0  0  0
   58.9590   33.4490   46.2740 S   0  0  0  0  0  0  0  0  0  0  0  0
   58.4640   34.8230   45.9130 O   0  0  0  0  0  0  0  0  0  0  0  0
   60.3020   33.2410   45.6300 O   0  0  0  0  0  0  0  0  0  0  0  0
   57.8220   32.2460   45.7200 N   0  0  0  0  0  0  0  0  0  0  0  0
   58.1840   30.9220   46.2520 C   0  0  0  0  0  0  0  0  0  0  0  0
   57.3260   29.8190   45.6020 C   0  0  0  0  0  0  0  0  0  0  0  0
   56.2740   30.3730   44.8350 O   0  0  0  0  0  0  0  0  0  0  0  0
   56.8090   31.1310   43.7640 C   0  0  0  0  0  0  0  0  0  0  0  0
   57.8030   32.2070   44.2500 C   0  0  0  0  0  0  0  0  0  0  0  0
   60.0190   34.1770   48.6880 C   0  0  0  0  0  0  0  0  0  0  0  0
   60.1380   34.1260   50.0780 C   0  0  0  0  0  0  0  0  0  0  0  0
   59.3470   33.2460   50.8210 C   0  0  0  0  0  0  0  0  0  0  0  0
   59.4420   33.2630   52.2080 O   0  0  0  0  0  0  0  0  0  0  0  0
   59.9620   31.3176   51.9395 H   0  0  0  0  0  0  0  0  0  0  0  0
   59.4281   30.2534   53.2922 H   0  0  0  0  0  0  0  0  0  0  0  0
   63.8063   32.8026   50.9045 H   0  0  0  0  0  0  0  0  0  0  0  0
   64.8509   34.2347   49.1465 H   0  0  0  0  0  0  0  0  0  0  0  0
   64.2159   33.9382   46.7508 H   0  0  0  0  0  0  0  0  0  0  0  0
   62.5424   32.2043   46.1029 H   0  0  0  0  0  0  0  0  0  0  0  0
   59.1972   28.4309   49.4377 H   0  0  0  0  0  0  0  0  0  0  0  0
   58.9254   29.2710   47.8561 H   0  0  0  0  0  0  0  0  0  0  0  0
   61.3025   27.7508   47.5427 H   0  0  0  0  0  0  0  0  0  0  0  0
   60.1071   26.6783   48.3841 H   0  0  0  0  0  0  0  0  0  0  0  0
   57.9912   26.0607   47.3350 H   0  0  0  0  0  0  0  0  0  0  0  0
   56.7436   25.7585   45.1957 H   0  0  0  0  0  0  0  0  0  0  0  0
   57.5535   26.8587   43.1074 H   0  0  0  0  0  0  0  0  0  0  0  0
   59.6174   28.2636   43.1535 H   0  0  0  0  0  0  0  0  0  0  0  0
   60.8689   28.5781   45.2909 H   0  0  0  0  0  0  0  0  0  0  0  0
   57.5628   31.8379   48.2564 H   0  0  0  0  0  0  0  0  0  0  0  0
   59.2453   30.7257   46.0397 H   0  0  0  0  0  0  0  0  0  0  0  0
   58.0037   30.9162   47.3371 H   0  0  0  0  0  0  0  0  0  0  0  0
   57.9640   29.2077   44.9469 H   0  0  0  0  0  0  0  0  0  0  0  0
   56.8871   29.2035   46.4011 H   0  0  0  0  0  0  0  0  0  0  0  0
   57.3319   30.4510   43.0754 H   0  0  0  0  0  0  0  0  0  0  0  0
   55.9744   31.6440   43.2637 H   0  0  0  0  0  0  0  0  0  0  0  0
   58.8102   31.9669   43.8788 H   0  0  0  0  0  0  0  0  0  0  0  0
   57.4887   33.1889   43.8665 H   0  0  0  0  0  0  0  0  0  0  0  0
   60.6505   34.8673   48.1095 H   0  0  0  0  0  0  0  0  0  0  0  0
   60.8576   34.7814   50.5905 H   0  0  0  0  0  0  0  0  0  0  0  0
  1  2  2  0
  2  3  1  0
  3  4  1  0
  4  5  1  0
  5  6  2  0
  6  7  1  0
  7  8  2  0
  8  9  1  0
  9 10  2  0
 10 11  1  0
 11 12  2  0
 12 13  1  0
 13 14  2  0
 13 15  1  0
 15 16  1  0
 16 17  1  0
 17 18  1  0
 18 19  2  0
 19 20  1  0
 20 21  2  0
 21 22  1  0
 22 23  2  0
  2 24  1  0
 24 25  1  0
 25 26  2  0
 26 27  1  0
 27 28  1  0
 28 29  2  0
 28 30  2  0
 28 31  1  0
 31 32  1  0
 32 33  1  0
 33 34  1  0
 34 35  1  0
 35 36  1  0
 27 37  2  0
 37 38  1  0
 38 39  2  0
 39 40  1  0
 15  5  1  0
 23 18  1  0
 39 25  1  0
 12  7  1  0
 36 31  1  0
  3 41  1  0
  3 42  1  0
  8 43  1  0
  9 44  1  0
 10 45  1  0
 11 46  1  0
 16 47  1  0
 16 48  1  0
 17 49  1  0
 17 50  1  0
 19 51  1  0
 20 52  1  0
 21 53  1  0
 22 54  1  0
 23 55  1  0
 26 56  1  0
 32 57  1  0
 32 58  1  0
 33 59  1  0
 33 60  1  0
 35 61  1  0
 35 62  1  0
 36 63  1  0
 36 64  1  0
 37 65  1  0
 38 66  1  0
M  CHG  2  24  -1  40  -1
M  END
>  <UniqueID>  (61) 
57

>  <SMILES>  (61) 
O=C(CSc1nc2ccccc2c(=O)n1CCc1ccccc1)[N-]c1cc(S(=O)(=O)N2CCOCC2)ccc1[O-]

>  <Energy>  (61) 
85.27271267735559

>  <Genealogy>  (61) 
O=C(CSc1nc2ccccc2c(=O)n1CCc1ccccc1)[N-]c1cc(S(=O)(=O)N2CCOCC2)ccc1[O-] (protonated)
O=C(CSc1nc2ccccc2c(=O)n1CCc1ccccc1)[N-]c1cc(S(=O)(=O)N2CCOCC2)ccc1[O-] (3D coordinates assigned)
O=C(CSc1nc2ccccc2c(=O)n1CCc1ccccc1)[N-]c1cc(S(=O)(=O)N2CCOCC2)ccc1[O-] (nonaromatic ring conformer: 85.27271267735559 kcal/mol)

>  <smiles>  (61) 
O=C(CSc1nc2ccccc2c(=O)n1CCc1ccccc1)Nc1cc(S(=O)(=O)N2CCOCC2)ccc1O

>  <score_type>  (61) 
oracle

>  <origin>  (61) 
adg

>  <m_score__min__energy>  (61) 
-14.619999999999999

>  <m_primary>  (61) 
energy

$$$$
61:0
     RDKit          3D

 47 49  0  0  0  0  0  0  0  0999 V2000
   50.6130   33.1540   52.1480 O   0  0  0  0  0  0  0  0  0  0  0  0
   51.2800   32.3430   51.4510 C   0  0  0  0  0  0  0  0  0  0  0  0
   51.0290   32.2650   50.0870 O   0  0  0  0  0  0  0  0  0  0  0  0
   52.3130   31.4870   52.0750 C   0  0  0  0  0  0  0  0  0  0  0  0
   51.9920   30.6570   53.1640 C   0  0  0  0  0  0  0  0  0  0  0  0
   52.9730   29.8560   53.7530 C   0  0  0  0  0  0  0  0  0  0  0  0
   54.2800   29.8670   53.2610 C   0  0  0  0  0  0  0  0  0  0  0  0
   54.6150   30.6740   52.1600 C   0  0  0  0  0  0  0  0  0  0  0  0
   55.9590   30.7190   51.6490 N   0  0  0  0  0  0  0  0  0  0  0  0
   57.0160   31.4850   52.2480 C   0  0  0  0  0  0  0  0  0  0  0  0
   56.9480   31.8060   53.4650 O   0  0  0  0  0  0  0  0  0  0  0  0
   58.2400   31.8130   51.4910 C   0  0  0  0  0  0  0  0  0  0  0  0
   58.7720   30.8550   50.6840 N   0  0  0  0  0  0  0  0  0  0  0  0
   59.8990   31.0800   49.9610 C   0  0  0  0  0  0  0  0  0  0  0  0
   60.5590   29.7880   48.9120 S   0  0  0  0  0  0  0  0  0  0  0  0
   60.0690   30.5890   47.3440 C   0  0  0  0  0  0  0  0  0  0  0  0
   58.5590   30.8460   47.3060 C   0  0  0  0  0  0  0  0  0  0  0  0
   58.1300   31.6860   46.1280 C   0  0  0  0  0  0  0  0  0  0  0  0
   57.3050   31.2280   45.2900 O   0  0  0  0  0  0  0  0  0  0  0  0
   58.6410   33.0190   45.9590 N   0  0  0  0  0  0  0  0  0  0  0  0
   59.5410   33.6740   46.8950 C   0  0  0  0  0  0  0  0  0  0  0  0
   59.6760   35.1070   46.3990 C   0  0  0  0  0  0  0  0  0  0  0  0
   59.1730   35.1000   44.9570 C   0  0  0  0  0  0  0  0  0  0  0  0
   58.3000   33.8600   44.8240 C   0  0  0  0  0  0  0  0  0  0  0  0
   60.5200   32.2840   50.0310 N   0  0  0  0  0  0  0  0  0  0  0  0
   60.0410   33.2700   50.8300 C   0  0  0  0  0  0  0  0  0  0  0  0
   58.8900   33.0600   51.5930 C   0  0  0  0  0  0  0  0  0  0  0  0
   58.3770   34.3250   52.7040 Cl  0  0  0  0  0  0  0  0  0  0  0  0
   53.6310   31.4940   51.5860 C   0  0  0  0  0  0  0  0  0  0  0  0
   50.9635   30.6385   53.5537 H   0  0  0  0  0  0  0  0  0  0  0  0
   52.7150   29.2138   54.6080 H   0  0  0  0  0  0  0  0  0  0  0  0
   55.0500   29.2419   53.7368 H   0  0  0  0  0  0  0  0  0  0  0  0
   56.2080   30.0820   50.8580 H   0  0  0  0  0  0  0  0  0  0  0  0
   60.5994   31.5480   47.2491 H   0  0  0  0  0  0  0  0  0  0  0  0
   60.3311   29.9190   46.5119 H   0  0  0  0  0  0  0  0  0  0  0  0
   58.0404   29.8774   47.2524 H   0  0  0  0  0  0  0  0  0  0  0  0
   58.2985   31.4033   48.2179 H   0  0  0  0  0  0  0  0  0  0  0  0
   59.1177   33.6574   47.9102 H   0  0  0  0  0  0  0  0  0  0  0  0
   60.5159   33.1670   46.9446 H   0  0  0  0  0  0  0  0  0  0  0  0
   59.0649   35.7839   47.0141 H   0  0  0  0  0  0  0  0  0  0  0  0
   60.7159   35.4600   46.4623 H   0  0  0  0  0  0  0  0  0  0  0  0
   58.5837   36.0062   44.7532 H   0  0  0  0  0  0  0  0  0  0  0  0
   60.0065   35.0852   44.2393 H   0  0  0  0  0  0  0  0  0  0  0  0
   57.2353   34.1347   44.8557 H   0  0  0  0  0  0  0  0  0  0  0  0
   58.4702   33.3428   43.8682 H   0  0  0  0  0  0  0  0  0  0  0  0
   60.5608   34.2383   50.8772 H   0  0  0  0  0  0  0  0  0  0  0  0
   53.8943   32.1501   50.7433 H   0  0  0  0  0  0  0  0  0  0  0  0
  1  2  2  0
  2  3  1  0
  2  4  1  0
  4  5  2  0
  5  6  1  0
  6  7  2  0
  7  8  1  0
  8  9  1  0
  9 10  1  0
 10 11  2  0
 10 12  1  0
 12 13  2  0
 13 14  1  0
 14 15  1  0
 15 16  1  0
 16 17  1  0
 17 18  1  0
 18 19  2  0
 18 20  1  0
 20 21  1  0
 21 22  1  0
 22 23  1  0
 23 24  1  0
 14 25  2  0
 25 26  1  0
 26 27  2  0
 27 28  1  0
  8 29  2  0
 29  4  1  0
 27 12  1  0
 24 20  1  0
  5 30  1  0
  6 31  1  0
  7 32  1  0
  9 33  1  0
 16 34  1  0
 16 35  1  0
 17 36  1  0
 17 37  1  0
 21 38  1  0
 21 39  1  0
 22 40  1  0
 22 41  1  0
 23 42  1  0
 23 43  1  0
 24 44  1  0
 24 45  1  0
 26 46  1  0
 29 47  1  0
M  CHG  1   3  -1
M  END
>  <UniqueID>  (62) 
58

>  <SMILES>  (62) 
O=C([O-])c1cccc(NC(=O)c2nc(SCCC(=O)N3CCCC3)ncc2Cl)c1

>  <Energy>  (62) 
51.131180999873656

>  <Genealogy>  (62) 
O=C([O-])c1cccc(NC(=O)c2nc(SCCC(=O)N3CCCC3)ncc2Cl)c1 (protonated)
O=C([O-])c1cccc(NC(=O)c2nc(SCCC(=O)N3CCCC3)ncc2Cl)c1 (3D coordinates assigned)
O=C([O-])c1cccc(NC(=O)c2nc(SCCC(=O)N3CCCC3)ncc2Cl)c1 (nonaromatic ring conformer: 51.131180999873656 kcal/mol)

>  <smiles>  (62) 
O=C(O)c1cccc(NC(=O)c2nc(SCCC(=O)N3CCCC3)ncc2Cl)c1

>  <score_type>  (62) 
oracle

>  <origin>  (62) 
adg

>  <m_score__min__energy>  (62) 
-13.050000000000001

>  <m_primary>  (62) 
energy

$$$$
62:0
     RDKit          3D

 49 51  0  0  0  0  0  0  0  0999 V2000
   50.5420   31.8620   48.3190 C   0  0  0  0  0  0  0  0  0  0  0  0
   50.6670   32.0400   49.7260 O   0  0  0  0  0  0  0  0  0  0  0  0
   51.6320   31.4080   50.5260 C   0  0  0  0  0  0  0  0  0  0  0  0
   52.3940   30.3200   50.0580 C   0  0  0  0  0  0  0  0  0  0  0  0
   53.3440   29.7160   50.8830 C   0  0  0  0  0  0  0  0  0  0  0  0
   53.5630   30.1970   52.1800 C   0  0  0  0  0  0  0  0  0  0  0  0
   54.5390   29.5030   53.0930 C   0  0  0  0  0  0  0  0  0  0  0  0
   55.8940   30.1080   52.9260 C   0  0  0  0  0  0  0  0  0  0  0  0
   56.4700   30.3150   51.7260 N   0  0  0  0  0  0  0  0  0  0  0  0
   57.6970   30.7390   52.0840 C   0  0  0  0  0  0  0  0  0  0  0  0
   58.7980   30.9870   51.1030 C   0  0  0  0  0  0  0  0  0  0  0  0
   58.3420   30.6570   49.7530 N   0  0  0  0  0  0  0  0  0  0  0  0
   59.0490   29.7230   48.9200 C   0  0  0  0  0  0  0  0  0  0  0  0
   60.1650   29.2730   49.2970 O   0  0  0  0  0  0  0  0  0  0  0  0
   58.4700   29.2410   47.6430 C   0  0  0  0  0  0  0  0  0  0  0  0
   58.3720   30.0840   46.5220 C   0  0  0  0  0  0  0  0  0  0  0  0
   57.8170   29.6130   45.3290 C   0  0  0  0  0  0  0  0  0  0  0  0
   57.3590   28.2960   45.2400 C   0  0  0  0  0  0  0  0  0  0  0  0
   57.4670   27.4370   46.3410 C   0  0  0  0  0  0  0  0  0  0  0  0
   56.8920   25.7780   46.2250 S   0  0  0  0  0  0  0  0  0  0  0  0
   55.1840   25.7810   45.9620 N   0  0  0  0  0  0  0  0  0  0  0  0
   57.5760   25.0830   45.0810 O   0  0  0  0  0  0  0  0  0  0  0  0
   57.2020   25.0360   47.4950 O   0  0  0  0  0  0  0  0  0  0  0  0
   58.0180   27.9130   47.5390 C   0  0  0  0  0  0  0  0  0  0  0  0
   57.8640   30.7730   53.4190 N   0  0  0  0  0  0  0  0  0  0  0  0
   56.7230   30.3740   53.9520 N   0  0  0  0  0  0  0  0  0  0  0  0
   52.7980   31.2740   52.6540 C   0  0  0  0  0  0  0  0  0  0  0  0
   51.8280   31.8810   51.8320 C   0  0  0  0  0  0  0  0  0  0  0  0
   51.0360   32.9510   52.2800 O   0  0  0  0  0  0  0  0  0  0  0  0
   50.1540   32.8910   53.3960 C   0  0  0  0  0  0  0  0  0  0  0  0
   49.9208   30.9774   48.1151 H   0  0  0  0  0  0  0  0  0  0  0  0
   50.0693   32.7517   47.8774 H   0  0  0  0  0  0  0  0  0  0  0  0
   51.5393   31.7194   47.8774 H   0  0  0  0  0  0  0  0  0  0  0  0
   52.2395   29.9439   49.0359 H   0  0  0  0  0  0  0  0  0  0  0  0
   53.9238   28.8577   50.5126 H   0  0  0  0  0  0  0  0  0  0  0  0
   54.2115   29.6198   54.1366 H   0  0  0  0  0  0  0  0  0  0  0  0
   54.5813   28.4335   52.8393 H   0  0  0  0  0  0  0  0  0  0  0  0
   59.0893   32.0470   51.1412 H   0  0  0  0  0  0  0  0  0  0  0  0
   59.6618   30.3559   51.3591 H   0  0  0  0  0  0  0  0  0  0  0  0
   57.4130   31.0260   49.4550 H   0  0  0  0  0  0  0  0  0  0  0  0
   58.7344   31.1207   46.5844 H   0  0  0  0  0  0  0  0  0  0  0  0
   57.7406   30.2806   44.4581 H   0  0  0  0  0  0  0  0  0  0  0  0
   56.9124   27.9328   44.3027 H   0  0  0  0  0  0  0  0  0  0  0  0
   54.9300   26.7280   45.6040 H   0  0  0  0  0  0  0  0  0  0  0  0
   58.0977   27.2412   48.4064 H   0  0  0  0  0  0  0  0  0  0  0  0
   52.9572   31.6475   53.6763 H   0  0  0  0  0  0  0  0  0  0  0  0
   50.7379   32.9307   54.3274 H   0  0  0  0  0  0  0  0  0  0  0  0
   49.4604   33.7440   53.3614 H   0  0  0  0  0  0  0  0  0  0  0  0
   49.5823   31.9519   53.3614 H   0  0  0  0  0  0  0  0  0  0  0  0
  1  2  1  0
  2  3  1  0
  3  4  2  0
  4  5  1  0
  5  6  2  0
  6  7  1  0
  7  8  1  0
  8  9  2  0
  9 10  1  0
 10 11  1  0
 11 12  1  0
 12 13  1  0
 13 14  2  0
 13 15  1  0
 15 16  2  0
 16 17  1  0
 17 18  2  0
 18 19  1  0
 19 20  1  0
 20 21  1  0
 20 22  2  0
 20 23  2  0
 19 24  2  0
 10 25  2  0
 25 26  1  0
  6 27  1  0
 27 28  2  0
 28 29  1  0
 29 30  1  0
 28  3  1  0
 26  8  1  0
 24 15  1  0
  1 31  1  0
  1 32  1  0
  1 33  1  0
  4 34  1  0
  5 35  1  0
  7 36  1  0
  7 37  1  0
 11 38  1  0
 11 39  1  0
 12 40  1  0
 16 41  1  0
 17 42  1  0
 18 43  1  0
 21 44  1  0
 24 45  1  0
 27 46  1  0
 30 47  1  0
 30 48  1  0
 30 49  1  0
M  CHG  2  21  -1  26  -1
M  END
>  <UniqueID>  (63) 
59

>  <SMILES>  (63) 
COc1ccc(Cc2nc(CNC(=O)c3cccc(S([NH-])(=O)=O)c3)n[n-]2)cc1OC

>  <Energy>  (63) 
77.2786657269901

>  <Genealogy>  (63) 
COc1ccc(Cc2nc(CNC(=O)c3cccc(S([NH-])(=O)=O)c3)n[n-]2)cc1OC (protonated)
COc1ccc(Cc2nc(CNC(=O)c3cccc(S([NH-])(=O)=O)c3)n[n-]2)cc1OC (3D coordinates assigned)
COc1ccc(Cc2nc(CNC(=O)c3cccc(S([NH-])(=O)=O)c3)n[n-]2)cc1OC (optimized conformer: 77.2786657269901 kcal/mol)

>  <smiles>  (63) 
COc1ccc(Cc2nc(CNC(=O)c3cccc(S(N)(=O)=O)c3)n[nH]2)cc1OC

>  <score_type>  (63) 
oracle

>  <origin>  (63) 
adg

>  <m_score__min__energy>  (63) 
-12.529999999999999

>  <m_primary>  (63) 
energy

$$$$
63:0
     RDKit          3D

 44 47  0  0  0  0  0  0  0  0999 V2000
   60.6072   25.2271   45.4966 H   0  0  0  0  0  0  0  0  0  0  0  0
   59.8060   25.7880   46.0000 C   0  0  0  0  0  0  0  0  0  0  0  0
   60.0720   27.0450   46.5480 C   0  0  0  0  0  0  0  0  0  0  0  0
   61.0796   27.4785   46.4651 H   0  0  0  0  0  0  0  0  0  0  0  0
   59.0570   27.7540   47.2030 C   0  0  0  0  0  0  0  0  0  0  0  0
   59.3200   29.0490   47.7520 N   0  0  0  0  0  0  0  0  0  0  0  0
   59.1240   30.1490   47.0890 C   0  0  0  0  0  0  0  0  0  0  0  0
   58.0160   30.3030   46.2960 N   0  0  0  0  0  0  0  0  0  0  0  0
   57.7830   31.4620   45.6120 C   0  0  0  0  0  0  0  0  0  0  0  0
   56.7250   31.6110   44.8730 N   0  0  0  0  0  0  0  0  0  0  0  0
   56.4940   30.8440   43.6510 C   0  0  0  0  0  0  0  0  0  0  0  0
   56.6128   31.6707   42.9351 H   0  0  0  0  0  0  0  0  0  0  0  0
   55.5040   29.7110   43.8390 C   0  0  0  0  0  0  0  0  0  0  0  0
   54.9891   29.5847   44.8028 H   0  0  0  0  0  0  0  0  0  0  0  0
   54.5999   29.3725   43.3117 H   0  0  0  0  0  0  0  0  0  0  0  0
   56.9910   29.4110   43.7260 C   0  0  0  0  0  0  0  0  0  0  0  0
   57.5520   29.0684   44.6080 H   0  0  0  0  0  0  0  0  0  0  0  0
   57.6087   28.7664   43.0835 H   0  0  0  0  0  0  0  0  0  0  0  0
   58.7160   32.4840   45.7490 C   0  0  0  0  0  0  0  0  0  0  0  0
   59.7860   32.2950   46.5260 N   0  0  0  0  0  0  0  0  0  0  0  0
   60.0210   31.1710   47.1990 N   0  0  0  0  0  0  0  0  0  0  0  0
   60.5030   33.4260   46.4740 C   0  0  0  0  0  0  0  0  0  0  0  0
   61.7380   33.6650   47.1700 C   0  0  0  0  0  0  0  0  0  0  0  0
   62.7330   33.8560   47.7290 N   0  0  0  0  0  0  0  0  0  0  0  0
   59.8310   34.3090   45.6380 C   0  0  0  0  0  0  0  0  0  0  0  0
   60.1596   35.3282   45.3863 H   0  0  0  0  0  0  0  0  0  0  0  0
   58.7030   33.7080   45.1830 N   0  0  0  0  0  0  0  0  0  0  0  0
   57.9870   34.1110   44.5380 H   0  0  0  0  0  0  0  0  0  0  0  0
   57.7740   27.2030   47.3000 C   0  0  0  0  0  0  0  0  0  0  0  0
   56.9833   27.7480   47.8364 H   0  0  0  0  0  0  0  0  0  0  0  0
   57.4910   25.9560   46.7150 C   0  0  0  0  0  0  0  0  0  0  0  0
   56.1870   25.3670   46.7980 N   0  0  0  0  0  0  0  0  0  0  0  0
   55.2650   25.1900   45.7140 C   0  0  0  0  0  0  0  0  0  0  0  0
   54.2710   25.9580   45.6310 O   0  0  0  0  0  0  0  0  0  0  0  0
   55.4300   24.0900   44.6980 C   0  0  0  0  0  0  0  0  0  0  0  0
   56.4054   23.6038   44.8467 H   0  0  0  0  0  0  0  0  0  0  0  0
   55.3723   24.5266   43.6900 H   0  0  0  0  0  0  0  0  0  0  0  0
   54.4040   23.1260   44.8370 O   0  0  0  0  0  0  0  0  0  0  0  0
   54.5920   22.3800   46.0200 C   0  0  0  0  0  0  0  0  0  0  0  0
   54.4284   23.0292   46.8928 H   0  0  0  0  0  0  0  0  0  0  0  0
   53.8762   21.5452   46.0447 H   0  0  0  0  0  0  0  0  0  0  0  0
   55.6180   21.9841   46.0447 H   0  0  0  0  0  0  0  0  0  0  0  0
   58.5210   25.2420   46.0910 C   0  0  0  0  0  0  0  0  0  0  0  0
   58.3189   24.2461   45.6699 H   0  0  0  0  0  0  0  0  0  0  0  0
  1  2  1  0
  2  3  2  0
  3  4  1  0
  3  5  1  0
  5  6  1  0
  6  7  2  3
  7  8  1  0
  8  9  1  0
  9 10  2  0
 10 11  1  0
 11 12  1  0
 11 13  1  0
 13 14  1  0
 13 15  1  0
 13 16  1  0
 16 17  1  0
 16 18  1  0
  9 19  1  0
 19 20  1  0
 20 21  1  0
 20 22  1  0
 22 23  1  0
 23 24  3  0
 22 25  2  0
 25 26  1  0
 25 27  1  0
 27 28  1  0
  5 29  2  0
 29 30  1  0
 29 31  1  0
 31 32  1  0
 32 33  1  0
 33 34  2  0
 33 35  1  0
 35 36  1  0
 35 37  1  0
 35 38  1  0
 38 39  1  0
 39 40  1  0
 39 41  1  0
 39 42  1  0
 31 43  2  0
 43 44  1  0
 43  2  1  0
 21  7  1  0
 16 11  1  0
 27 19  2  0
M  CHG  4   8  -1  21  -1  27   1  32  -1
M  END
>  <UniqueID>  (64) 
60

>  <SMILES>  (64) 
COCC(=O)[N-]c1cccc(N=c2[n-]/c(=N\C3CC3)c3[nH+]cc(C#N)n3[n-]2)c1

>  <Energy>  (64) 
363.5450953579767

>  <Genealogy>  (64) 
COCC(=O)[N-]c1cccc(N=c2[n-]c(=NC3CC3)c3[nH+]cc(C#N)n3[n-]2)c1 (protonated)
COCC(=O)[N-]c1cccc(N=c2[n-]/c(=N\C3CC3)c3[nH+]cc(C#N)n3[n-]2)c1 (cis-trans isomerization)
COCC(=O)[N-]c1cccc(N=c2[n-]/c(=N\C3CC3)c3[nH+]cc(C#N)n3[n-]2)c1 (3D coordinates assigned)
COCC(=O)[N-]c1cccc(N=c2[n-]/c(=N\C3CC3)c3[nH+]cc(C#N)n3[n-]2)c1 (nonaromatic ring conformer: 363.5450953579767 kcal/mol)

>  <smiles>  (64) 
COCC(=O)Nc1cccc(N=c2[nH]c(=NC3CC3)c3ncc(C#N)n3[nH]2)c1

>  <score_type>  (64) 
oracle

>  <origin>  (64) 
adg

>  <m_score__min__energy>  (64) 
-10.32

>  <m_primary>  (64) 
energy

$$$$
64:0
     RDKit          3D

 18 18  0  0  0  0  0  0  0  0999 V2000
   55.1250   29.7360   44.8020 N   0  0  0  0  0  0  0  0  0  0  0  0
   56.7470   30.1090   44.3570 S   0  0  0  0  0  0  0  0  0  0  0  0
   56.7540   30.8520   43.0720 O   0  0  0  0  0  0  0  0  0  0  0  0
   57.4750   30.8990   45.3950 O   0  0  0  0  0  0  0  0  0  0  0  0
   57.5960   28.5670   44.0980 C   0  0  0  0  0  0  0  0  0  0  0  0
   57.2970   27.5930   45.1800 C   0  0  0  0  0  0  0  0  0  0  0  0
   58.2290   26.8800   45.9070 C   0  0  0  0  0  0  0  0  0  0  0  0
   57.4810   26.1110   46.7920 C   0  0  0  0  0  0  0  0  0  0  0  0
   57.9900   25.3070   47.6420 O   0  0  0  0  0  0  0  0  0  0  0  0
   56.1690   26.3710   46.5840 N   0  0  0  0  0  0  0  0  0  0  0  0
   56.0720   27.2650   45.6120 N   0  0  0  0  0  0  0  0  0  0  0  0
   54.8080   30.4390   45.4990 H   0  0  0  0  0  0  0  0  0  0  0  0
   54.5510   29.7780   43.9250 H   0  0  0  0  0  0  0  0  0  0  0  0
   57.2776   28.1408   43.1352 H   0  0  0  0  0  0  0  0  0  0  0  0
   58.6782   28.7640   44.0999 H   0  0  0  0  0  0  0  0  0  0  0  0
   59.3240   26.9129   45.8080 H   0  0  0  0  0  0  0  0  0  0  0  0
   55.4240   25.9030   47.1410 H   0  0  0  0  0  0  0  0  0  0  0  0
   55.1460   27.6200   45.2780 H   0  0  0  0  0  0  0  0  0  0  0  0
  1  2  1  0
  2  3  2  0
  2  4  2  0
  2  5  1  0
  5  6  1  0
  6  7  2  0
  7  8  1  0
  8  9  2  0
  8 10  1  0
 10 11  1  0
 11  6  1  0
  1 12  1  0
  1 13  1  0
  5 14  1  0
  5 15  1  0
  7 16  1  0
 10 17  1  0
 11 18  1  0
M  END
>  <smiles>  (65) 
NS(=O)(=O)Cc1cc(=O)[nH][nH]1

>  <score_type>  (65) 
oracle

>  <origin>  (65) 
adg

>  <m_score__min__energy>  (65) 
-6.3499999999999996

>  <m_primary>  (65) 
energy

$$$$
65:0
     RDKit          3D

 43 45  0  0  0  0  0  0  0  0999 V2000
   58.7550   34.1350   47.1290 O   0  0  0  0  0  0  0  0  0  0  0  0
   59.9100   33.6710   47.3200 C   0  0  0  0  0  0  0  0  0  0  0  0
   61.0160   34.1760   46.5630 N   0  0  0  0  0  0  0  0  0  0  0  0
   62.3780   33.7160   46.8390 C   0  0  0  0  0  0  0  0  0  0  0  0
   62.3710   32.2610   47.2210 C   0  0  0  0  0  0  0  0  0  0  0  0
   63.4190   31.5760   47.0640 O   0  0  0  0  0  0  0  0  0  0  0  0
   61.1760   31.6630   47.7710 N   0  0  0  0  0  0  0  0  0  0  0  0
   60.9290   30.2310   47.5190 C   0  0  0  0  0  0  0  0  0  0  0  0
   60.6540   29.9500   46.0320 C   0  0  0  0  0  0  0  0  0  0  0  0
   59.1920   29.7070   45.7620 C   0  0  0  0  0  0  0  0  0  0  0  0
   58.6040   28.4780   46.1040 C   0  0  0  0  0  0  0  0  0  0  0  0
   57.2570   28.2350   45.8140 C   0  0  0  0  0  0  0  0  0  0  0  0
   56.4890   29.2160   45.1800 C   0  0  0  0  0  0  0  0  0  0  0  0
   55.1530   28.9710   44.8900 O   0  0  0  0  0  0  0  0  0  0  0  0
   57.0660   30.4430   44.8390 C   0  0  0  0  0  0  0  0  0  0  0  0
   58.4110   30.6900   45.1300 C   0  0  0  0  0  0  0  0  0  0  0  0
   60.1810   32.6010   48.3490 C   0  0  2  0  0  0  0  0  0  0  0  0
   58.8730   31.9560   48.8980 C   0  0  0  0  0  0  0  0  0  0  0  0
   58.5500   32.3380   50.3270 C   0  0  0  0  0  0  0  0  0  0  0  0
   57.6380   31.5820   51.0870 C   0  0  0  0  0  0  0  0  0  0  0  0
   57.3800   31.9140   52.4210 C   0  0  0  0  0  0  0  0  0  0  0  0
   58.0470   32.9860   53.0180 C   0  0  0  0  0  0  0  0  0  0  0  0
   58.9840   33.7190   52.2870 C   0  0  0  0  0  0  0  0  0  0  0  0
   59.2460   33.3900   50.9540 C   0  0  0  0  0  0  0  0  0  0  0  0
   60.8570   34.9110   45.8380 H   0  0  0  0  0  0  0  0  0  0  0  0
   62.9961   33.8519   45.9393 H   0  0  0  0  0  0  0  0  0  0  0  0
   62.7914   34.3025   47.6727 H   0  0  0  0  0  0  0  0  0  0  0  0
   61.8137   29.6570   47.8318 H   0  0  0  0  0  0  0  0  0  0  0  0
   60.0394   29.9321   48.0929 H   0  0  0  0  0  0  0  0  0  0  0  0
   60.9847   30.8163   45.4403 H   0  0  0  0  0  0  0  0  0  0  0  0
   61.2059   29.0408   45.7514 H   0  0  0  0  0  0  0  0  0  0  0  0
   59.2053   27.7031   46.6021 H   0  0  0  0  0  0  0  0  0  0  0  0
   56.8018   27.2710   46.0852 H   0  0  0  0  0  0  0  0  0  0  0  0
   56.4610   31.2150   44.3411 H   0  0  0  0  0  0  0  0  0  0  0  0
   58.8601   31.6581   44.8631 H   0  0  0  0  0  0  0  0  0  0  0  0
   60.6234   33.0281   49.2610 H   0  0  0  0  0  0  0  0  0  0  0  0
   58.0363   32.2726   48.2579 H   0  0  0  0  0  0  0  0  0  0  0  0
   59.0267   30.8668   48.8870 H   0  0  0  0  0  0  0  0  0  0  0  0
   57.1245   30.7240   50.6286 H   0  0  0  0  0  0  0  0  0  0  0  0
   56.6504   31.3297   53.0010 H   0  0  0  0  0  0  0  0  0  0  0  0
   57.8343   33.2528   54.0637 H   0  0  0  0  0  0  0  0  0  0  0  0
   59.5168   34.5566   52.7608 H   0  0  0  0  0  0  0  0  0  0  0  0
   60.0015   33.9569   50.3903 H   0  0  0  0  0  0  0  0  0  0  0  0
  1  2  2  0
  2  3  1  0
  3  4  1  0
  4  5  1  0
  5  6  2  0
  5  7  1  0
  7  8  1  0
  8  9  1  0
  9 10  1  0
 10 11  2  0
 11 12  1  0
 12 13  2  0
 13 14  1  0
 13 15  1  0
 15 16  2  0
  7 17  1  0
 17 18  1  0
 18 19  1  0
 19 20  2  0
 20 21  1  0
 21 22  2  0
 22 23  1  0
 23 24  2  0
 17  2  1  0
 24 19  1  0
 16 10  1  0
  3 25  1  0
  4 26  1  0
  4 27  1  0
  8 28  1  0
  8 29  1  0
  9 30  1  0
  9 31  1  0
 11 32  1  0
 12 33  1  0
 15 34  1  0
 16 35  1  0
 17 36  1  1
 18 37  1  0
 18 38  1  0
 20 39  1  0
 21 40  1  0
 22 41  1  0
 23 42  1  0
 24 43  1  0
M  CHG  1  14  -1
M  END
>  <UniqueID>  (66) 
61

>  <SMILES>  (66) 
O=C1NCC(=O)N(CCc2ccc([O-])cc2)[C@@H]1Cc1ccccc1

>  <Energy>  (66) 
48.52542004173847

>  <Genealogy>  (66) 
O=C1NCC(=O)N(CCc2ccc([O-])cc2)C1Cc1ccccc1 (protonated)
O=C1NCC(=O)N(CCc2ccc([O-])cc2)[C@@H]1Cc1ccccc1 (chirality)
O=C1NCC(=O)N(CCc2ccc([O-])cc2)[C@@H]1Cc1ccccc1 (3D coordinates assigned)
O=C1NCC(=O)N(CCc2ccc([O-])cc2)[C@@H]1Cc1ccccc1 (nonaromatic ring conformer: 48.52542004173847 kcal/mol)

>  <smiles>  (66) 
O=C1NCC(=O)N(CCc2ccc(O)cc2)C1Cc1ccccc1

>  <score_type>  (66) 
oracle

>  <origin>  (66) 
adg

>  <m_score__min__energy>  (66) 
-10.890000000000001

>  <m_primary>  (66) 
energy

$$$$
66:0
     RDKit          3D

 60 63  0  0  0  0  0  0  0  0999 V2000
   56.2466   23.6551   47.5370 H   0  0  0  0  0  0  0  0  0  0  0  0
   56.5450   23.9940   46.5340 C   0  0  0  0  0  0  0  0  0  0  0  0
   57.0860   25.2700   46.3620 C   0  0  0  0  0  0  0  0  0  0  0  0
   57.2177   25.9305   47.2317 H   0  0  0  0  0  0  0  0  0  0  0  0
   57.4620   25.7130   45.0860 C   0  0  0  0  0  0  0  0  0  0  0  0
   58.0410   27.0620   44.9220 C   0  0  0  0  0  0  0  0  0  0  0  0
   57.4950   28.0480   44.1220 C   0  0  0  0  0  0  0  0  0  0  0  0
   56.6065   27.9586   43.4797 H   0  0  0  0  0  0  0  0  0  0  0  0
   58.2870   29.1690   44.2890 C   0  0  0  0  0  0  0  0  0  0  0  0
   57.9580   30.5350   43.7590 C   0  0  0  0  0  0  0  0  0  0  0  0
   58.7870   31.2239   43.9784 H   0  0  0  0  0  0  0  0  0  0  0  0
   57.8069   30.4818   42.6707 H   0  0  0  0  0  0  0  0  0  0  0  0
   56.7070   31.0320   44.4160 C   0  0  0  0  0  0  0  0  0  0  0  0
   55.6910   30.2880   44.4880 O   0  0  0  0  0  0  0  0  0  0  0  0
   56.6940   32.3270   45.0270 N   0  0  0  0  0  0  0  0  0  0  0  0
   57.6330   32.8120   45.7910 C   0  0  0  0  0  0  0  0  0  0  0  0
   58.0990   34.1360   45.6570 C   0  0  0  0  0  0  0  0  0  0  0  0
   57.7121   34.7795   44.8531 H   0  0  0  0  0  0  0  0  0  0  0  0
   59.0520   34.6250   46.5480 C   0  0  0  0  0  0  0  0  0  0  0  0
   59.4318   35.6513   46.4359 H   0  0  0  0  0  0  0  0  0  0  0  0
   59.5280   33.8140   47.5860 C   0  0  0  0  0  0  0  0  0  0  0  0
   60.5560   34.3370   48.5700 C   0  0  0  0  0  0  0  0  0  0  0  0
   60.8177   35.3644   48.2767 H   0  0  0  0  0  0  0  0  0  0  0  0
   60.0909   34.2727   49.5648 H   0  0  0  0  0  0  0  0  0  0  0  0
   61.8060   33.5480   48.6450 N   0  0  0  0  0  0  0  0  0  0  0  0
   62.3760   33.1500   47.3590 C   0  0  0  0  0  0  0  0  0  0  0  0
   61.8075   32.3116   46.9301 H   0  0  0  0  0  0  0  0  0  0  0  0
   62.3410   33.9705   46.6271 H   0  0  0  0  0  0  0  0  0  0  0  0
   63.8020   32.7250   47.6580 C   0  0  0  0  0  0  0  0  0  0  0  0
   63.8559   31.6375   47.8143 H   0  0  0  0  0  0  0  0  0  0  0  0
   64.4841   32.9598   46.8276 H   0  0  0  0  0  0  0  0  0  0  0  0
   64.1800   33.4680   48.9340 C   0  0  0  0  0  0  0  0  0  0  0  0
   64.5331   32.7615   49.6996 H   0  0  0  0  0  0  0  0  0  0  0  0
   64.9941   34.1872   48.7606 H   0  0  0  0  0  0  0  0  0  0  0  0
   62.9020   34.1620   49.3980 C   0  0  0  0  0  0  0  0  0  0  0  0
   62.7555   34.0089   50.4774 H   0  0  0  0  0  0  0  0  0  0  0  0
   62.9494   35.2470   49.2232 H   0  0  0  0  0  0  0  0  0  0  0  0
   59.0690   32.4920   47.6650 C   0  0  0  0  0  0  0  0  0  0  0  0
   59.4607   31.8246   48.4468 H   0  0  0  0  0  0  0  0  0  0  0  0
   58.1430   32.0270   46.7830 N   0  0  0  0  0  0  0  0  0  0  0  0
   57.8060   31.0440   46.8890 H   0  0  0  0  0  0  0  0  0  0  0  0
   59.2870   28.8230   45.1920 C   0  0  0  0  0  0  0  0  0  0  0  0
   60.3690   29.7240   45.7170 C   0  0  0  0  0  0  0  0  0  0  0  0
   60.3546   29.7120   46.8168 H   0  0  0  0  0  0  0  0  0  0  0  0
   61.3470   29.3696   45.3592 H   0  0  0  0  0  0  0  0  0  0  0  0
   60.1975   30.7500   45.3592 H   0  0  0  0  0  0  0  0  0  0  0  0
   59.1450   27.5270   45.5530 N   0  0  0  0  0  0  0  0  0  0  0  0
   60.0040   26.8010   46.4920 C   0  0  0  0  0  0  0  0  0  0  0  0
   59.7113   27.0484   47.5231 H   0  0  0  0  0  0  0  0  0  0  0  0
   59.8930   25.7188   46.3289 H   0  0  0  0  0  0  0  0  0  0  0  0
   61.0525   27.0908   46.3289 H   0  0  0  0  0  0  0  0  0  0  0  0
   57.3210   24.8510   43.9840 C   0  0  0  0  0  0  0  0  0  0  0  0
   57.7570   25.2370   42.7590 F   0  0  0  0  0  0  0  0  0  0  0  0
   56.7660   23.5700   44.1530 C   0  0  0  0  0  0  0  0  0  0  0  0
   56.6240   22.6520   42.9740 C   0  0  0  0  0  0  0  0  0  0  0  0
   56.4648   21.6227   43.3278 H   0  0  0  0  0  0  0  0  0  0  0  0
   55.7640   22.9676   42.3651 H   0  0  0  0  0  0  0  0  0  0  0  0
   57.5392   22.6930   42.3651 H   0  0  0  0  0  0  0  0  0  0  0  0
   56.3820   23.1470   45.4350 C   0  0  0  0  0  0  0  0  0  0  0  0
   55.9510   22.1447   45.5750 H   0  0  0  0  0  0  0  0  0  0  0  0
  1  2  1  0
  2  3  2  0
  3  4  1  0
  3  5  1  0
  5  6  1  0
  6  7  2  0
  7  8  1  0
  7  9  1  0
  9 10  1  0
 10 11  1  0
 10 12  1  0
 10 13  1  0
 13 14  2  0
 13 15  1  0
 15 16  2  0
 16 17  1  0
 17 18  1  0
 17 19  2  0
 19 20  1  0
 19 21  1  0
 21 22  1  0
 22 23  1  0
 22 24  1  0
 22 25  1  0
 25 26  1  0
 26 27  1  0
 26 28  1  0
 26 29  1  0
 29 30  1  0
 29 31  1  0
 29 32  1  0
 32 33  1  0
 32 34  1  0
 32 35  1  0
 35 36  1  0
 35 37  1  0
 21 38  2  0
 38 39  1  0
 38 40  1  0
 40 41  1  0
  9 42  2  0
 42 43  1  0
 43 44  1  0
 43 45  1  0
 43 46  1  0
 42 47  1  0
 47 48  1  0
 48 49  1  0
 48 50  1  0
 48 51  1  0
  5 52  2  0
 52 53  1  0
 52 54  1  0
 54 55  1  0
 55 56  1  0
 55 57  1  0
 55 58  1  0
 54 59  2  0
 59 60  1  0
 59  2  1  0
 47  6  1  0
 40 16  1  0
 35 25  1  0
M  END
>  <UniqueID>  (67) 
62

>  <SMILES>  (67) 
Cc1cccc(-c2cc(CC(=O)/N=c3\ccc(CN4CCCC4)c[nH]3)c(C)n2C)c1F

>  <Energy>  (67) 
103.96948212327574

>  <Genealogy>  (67) 
Cc1cccc(-c2cc(CC(=O)/N=c3\ccc(CN4CCCC4)c[nH]3)c(C)n2C)c1F (cis-trans isomerization)
Cc1cccc(-c2cc(CC(=O)/N=c3\ccc(CN4CCCC4)c[nH]3)c(C)n2C)c1F (3D coordinates assigned)
Cc1cccc(-c2cc(CC(=O)/N=c3\ccc(CN4CCCC4)c[nH]3)c(C)n2C)c1F (nonaromatic ring conformer: 103.96948212327574 kcal/mol)

>  <smiles>  (67) 
Cc1cccc(-c2cc(CC(=O)N=c3ccc(CN4CCCC4)c[nH]3)c(C)n2C)c1F

>  <score_type>  (67) 
oracle

>  <origin>  (67) 
adg

>  <m_score__min__energy>  (67) 
-9.9000000000000004

>  <m_primary>  (67) 
energy

$$$$
67:0
     RDKit          3D

 28 30  0  0  0  0  0  0  0  0999 V2000
   59.0940   35.1650   46.5810 O   0  0  0  0  0  0  0  0  0  0  0  0
   58.6280   34.2640   45.8190 C   0  0  0  0  0  0  0  0  0  0  0  0
   58.9340   34.0980   44.5090 N   0  0  0  0  0  0  0  0  0  0  0  0
   58.2470   33.0440   44.0460 C   0  0  0  0  0  0  0  0  0  0  0  0
   58.1430   32.4150   42.8540 N   0  0  0  0  0  0  0  0  0  0  0  0
   57.3320   31.3570   42.7490 C   0  0  0  0  0  0  0  0  0  0  0  0
   56.5870   30.8530   43.7710 C   0  0  0  0  0  0  0  0  0  0  0  0
   55.6930   29.6910   43.7060 C   0  0  0  0  0  0  0  0  0  0  0  0
   55.6640   28.9210   44.8870 O   0  0  0  0  0  0  0  0  0  0  0  0
   56.7090   28.1150   45.2980 C   0  0  0  0  0  0  0  0  0  0  0  0
   58.0390   28.4460   45.1780 C   0  0  0  0  0  0  0  0  0  0  0  0
   58.9670   27.5320   45.6360 C   0  0  0  0  0  0  0  0  0  0  0  0
   58.6070   26.3210   46.1990 C   0  0  0  0  0  0  0  0  0  0  0  0
   57.2840   26.0180   46.3060 N   0  0  0  0  0  0  0  0  0  0  0  0
   56.3540   26.8900   45.8670 C   0  0  0  0  0  0  0  0  0  0  0  0
   55.1460   26.5540   45.9920 O   0  0  0  0  0  0  0  0  0  0  0  0
   56.6900   31.4870   44.9750 N   0  0  0  0  0  0  0  0  0  0  0  0
   57.5070   32.5580   45.0920 C   0  0  0  0  0  0  0  0  0  0  0  0
   57.7480   33.3180   46.1880 N   0  0  0  0  0  0  0  0  0  0  0  0
   59.5900   34.6690   43.9150 H   0  0  0  0  0  0  0  0  0  0  0  0
   57.2620   30.8600   41.7702 H   0  0  0  0  0  0  0  0  0  0  0  0
   54.6734   30.0503   43.5026 H   0  0  0  0  0  0  0  0  0  0  0  0
   56.0793   29.0373   42.9101 H   0  0  0  0  0  0  0  0  0  0  0  0
   58.3513   29.4027   44.7339 H   0  0  0  0  0  0  0  0  0  0  0  0
   60.0359   27.7768   45.5496 H   0  0  0  0  0  0  0  0  0  0  0  0
   59.3742   25.6168   46.5532 H   0  0  0  0  0  0  0  0  0  0  0  0
   57.0300   25.0980   46.7330 H   0  0  0  0  0  0  0  0  0  0  0  0
   57.3430   33.2170   47.1540 H   0  0  0  0  0  0  0  0  0  0  0  0
  1  2  2  0
  2  3  1  0
  3  4  1  0
  4  5  2  0
  5  6  1  0
  6  7  2  0
  7  8  1  0
  8  9  1  0
  9 10  1  0
 10 11  2  0
 11 12  1  0
 12 13  2  0
 13 14  1  0
 14 15  1  0
 15 16  2  0
  7 17  1  0
 17 18  2  0
 18 19  1  0
 19  2  1  0
 18  4  1  0
 15 10  1  0
  3 20  1  0
  6 21  1  0
  8 22  1  0
  8 23  1  0
 11 24  1  0
 12 25  1  0
 13 26  1  0
 14 27  1  0
 19 28  1  0
M  END
>  <smiles>  (68) 
O=c1[nH]c2ncc(COc3ccc[nH]c3=O)nc2[nH]1

>  <score_type>  (68) 
oracle

>  <origin>  (68) 
adg

>  <m_score__min__energy>  (68) 
-7.1600000000000001

>  <m_primary>  (68) 
energy

$$$$
68:0
     RDKit          3D

 51 54  0  0  0  0  0  0  0  0999 V2000
   56.4230   27.6370   44.4840 H   0  0  0  0  0  0  0  0  0  0  0  0
   56.7790   27.1770   45.3110 O   0  0  0  0  0  0  0  0  0  0  0  0
   57.9070   27.6170   46.0080 C   0  0  0  0  0  0  0  0  0  0  0  0
   58.1580   27.0700   47.2710 C   0  0  0  0  0  0  0  0  0  0  0  0
   57.4796   26.3063   47.6790 H   0  0  0  0  0  0  0  0  0  0  0  0
   59.2620   27.4850   48.0180 C   0  0  0  0  0  0  0  0  0  0  0  0
   59.4510   27.0475   49.0094 H   0  0  0  0  0  0  0  0  0  0  0  0
   60.1260   28.4550   47.5070 C   0  0  0  0  0  0  0  0  0  0  0  0
   60.9929   28.7849   48.0983 H   0  0  0  0  0  0  0  0  0  0  0  0
   59.8910   29.0070   46.2460 C   0  0  0  0  0  0  0  0  0  0  0  0
   60.5735   29.7737   45.8506 H   0  0  0  0  0  0  0  0  0  0  0  0
   58.7890   28.5910   45.4770 C   0  0  0  0  0  0  0  0  0  0  0  0
   58.5590   29.2130   44.1240 C   0  0  0  0  0  0  0  0  0  0  0  0
   59.1714   28.6928   43.3728 H   0  0  0  0  0  0  0  0  0  0  0  0
   58.8417   30.2755   44.1570 H   0  0  0  0  0  0  0  0  0  0  0  0
   57.1510   29.0970   43.7670 N   0  0  0  0  0  0  0  0  0  0  0  0
   56.1350   29.9120   44.3550 C   0  0  0  0  0  0  0  0  0  0  0  0
   55.1460   29.3530   44.8980 O   0  0  0  0  0  0  0  0  0  0  0  0
   56.2980   31.3410   44.3990 N   0  0  0  0  0  0  0  0  0  0  0  0
   57.1590   32.0520   45.0730 C   0  0  0  0  0  0  0  0  0  0  0  0
   57.4430   33.3040   44.6210 N   0  0  0  0  0  0  0  0  0  0  0  0
   58.3180   34.1320   45.2480 C   0  0  0  0  0  0  0  0  0  0  0  0
   58.5172   35.1331   44.8379 H   0  0  0  0  0  0  0  0  0  0  0  0
   58.9670   33.7130   46.4160 C   0  0  0  0  0  0  0  0  0  0  0  0
   59.8760   34.5510   47.0800 C   0  0  0  0  0  0  0  0  0  0  0  0
   60.0967   35.5499   46.6757 H   0  0  0  0  0  0  0  0  0  0  0  0
   60.5070   34.1170   48.2630 C   0  0  0  0  0  0  0  0  0  0  0  0
   61.4230   34.9120   48.9720 O   0  0  0  0  0  0  0  0  0  0  0  0
   62.6810   34.4760   49.4900 C   0  0  0  0  0  0  0  0  0  0  0  0
   63.3322   35.3477   49.6512 H   0  0  0  0  0  0  0  0  0  0  0  0
   62.4900   33.7640   50.8480 C   0  0  0  0  0  0  0  0  0  0  0  0
   62.4879   34.5213   51.6458 H   0  0  0  0  0  0  0  0  0  0  0  0
   61.5368   33.2165   50.8065 H   0  0  0  0  0  0  0  0  0  0  0  0
   63.6030   32.7420   51.1410 C   0  0  0  0  0  0  0  0  0  0  0  0
   63.7887   32.7096   52.2247 H   0  0  0  0  0  0  0  0  0  0  0  0
   63.2818   31.7532   50.7818 H   0  0  0  0  0  0  0  0  0  0  0  0
   64.8410   33.1190   50.4500 N   0  0  0  0  0  0  0  0  0  0  0  0
   65.5980   32.4630   50.7540 H   0  0  0  0  0  0  0  0  0  0  0  0
   64.6920   32.9980   48.9890 C   0  0  0  0  0  0  0  0  0  0  0  0
   65.4957   33.5725   48.5052 H   0  0  0  0  0  0  0  0  0  0  0  0
   64.7466   31.9283   48.7384 H   0  0  0  0  0  0  0  0  0  0  0  0
   63.3320   33.5260   48.4790 C   0  0  0  0  0  0  0  0  0  0  0  0
   63.4902   34.0650   47.5332 H   0  0  0  0  0  0  0  0  0  0  0  0
   62.6616   32.6661   48.3336 H   0  0  0  0  0  0  0  0  0  0  0  0
   60.2230   32.8390   48.7600 C   0  0  0  0  0  0  0  0  0  0  0  0
   60.7173   32.4912   49.6791 H   0  0  0  0  0  0  0  0  0  0  0  0
   59.3200   32.0010   48.1030 C   0  0  0  0  0  0  0  0  0  0  0  0
   59.1043   31.0017   48.5091 H   0  0  0  0  0  0  0  0  0  0  0  0
   58.6870   32.4290   46.9270 C   0  0  0  0  0  0  0  0  0  0  0  0
   57.7760   31.5980   46.2590 C   0  0  0  0  0  0  0  0  0  0  0  0
   57.5437   30.5990   46.6565 H   0  0  0  0  0  0  0  0  0  0  0  0
  1  2  1  0
  2  3  1  0
  3  4  2  0
  4  5  1  0
  4  6  1  0
  6  7  1  0
  6  8  2  0
  8  9  1  0
  8 10  1  0
 10 11  1  0
 10 12  2  0
 12 13  1  0
 13 14  1  0
 13 15  1  0
 13 16  1  0
 16 17  1  0
 17 18  2  0
 17 19  1  0
 19 20  2  0
 20 21  1  0
 21 22  1  0
 22 23  1  0
 22 24  2  0
 24 25  1  0
 25 26  1  0
 25 27  2  0
 27 28  1  0
 28 29  1  0
 29 30  1  0
 29 31  1  0
 31 32  1  0
 31 33  1  0
 31 34  1  0
 34 35  1  0
 34 36  1  0
 34 37  1  0
 37 38  1  0
 37 39  1  0
 39 40  1  0
 39 41  1  0
 39 42  1  0
 42 43  1  0
 42 44  1  0
 27 45  1  0
 45 46  1  0
 45 47  2  0
 47 48  1  0
 47 49  1  0
 49 50  2  0
 50 51  1  0
 12  3  1  0
 50 20  1  0
 49 24  1  0
 42 29  1  0
M  CHG  2  16  -1  21  -1
M  END
>  <UniqueID>  (69) 
63

>  <SMILES>  (69) 
O=C(/N=c1\cc2ccc(OC3CCNCC3)cc2c[n-]1)[N-]Cc1ccccc1O

>  <Energy>  (69) 
68.05581322467707

>  <Genealogy>  (69) 
O=C(N=c1cc2ccc(OC3CCNCC3)cc2c[n-]1)[N-]Cc1ccccc1O (protonated)
O=C(/N=c1\cc2ccc(OC3CCNCC3)cc2c[n-]1)[N-]Cc1ccccc1O (cis-trans isomerization)
O=C(/N=c1\cc2ccc(OC3CCNCC3)cc2c[n-]1)[N-]Cc1ccccc1O (3D coordinates assigned)
O=C(/N=c1\cc2ccc(OC3CCNCC3)cc2c[n-]1)[N-]Cc1ccccc1O (nonaromatic ring conformer: 68.05581322467707 kcal/mol)

>  <smiles>  (69) 
O=C(N=c1cc2ccc(OC3CCNCC3)cc2c[nH]1)NCc1ccccc1O

>  <score_type>  (69) 
oracle

>  <origin>  (69) 
adg

>  <m_score__min__energy>  (69) 
-12.06

>  <m_primary>  (69) 
energy

$$$$
69:0
     RDKit          3D

 32 33  0  0  0  0  0  0  0  0999 V2000
   57.7720   32.1100   42.5260 C   0  0  0  0  0  0  0  0  0  0  0  0
   57.8420   32.3920   44.0030 C   0  0  0  0  0  0  0  0  0  0  0  0
   58.0590   33.7010   44.4590 C   0  0  0  0  0  0  0  0  0  0  0  0
   58.1210   33.9670   45.8260 C   0  0  0  0  0  0  0  0  0  0  0  0
   57.9640   32.9200   46.7320 C   0  0  0  0  0  0  0  0  0  0  0  0
   57.7550   31.6560   46.2800 N   0  0  0  0  0  0  0  0  0  0  0  0
   57.6940   31.3560   44.9510 C   0  0  0  0  0  0  0  0  0  0  0  0
   57.4780   30.1360   44.5440 N   0  0  0  0  0  0  0  0  0  0  0  0
   56.7440   29.0830   45.1970 C   0  0  0  0  0  0  0  0  0  0  0  0
   55.5270   28.9390   44.9030 O   0  0  0  0  0  0  0  0  0  0  0  0
   57.3720   28.1540   46.2020 C   0  0  0  0  0  0  0  0  0  0  0  0
   57.3870   26.7860   45.6990 N   0  0  0  0  0  0  0  0  0  0  0  0
   56.2120   25.9700   45.6350 C   0  0  0  0  0  0  0  0  0  0  0  0
   55.1490   26.3610   46.1890 O   0  0  0  0  0  0  0  0  0  0  0  0
   56.2440   24.6730   44.9210 C   0  0  0  0  0  0  0  0  0  0  0  0
   57.4670   24.0660   44.5850 C   0  0  0  0  0  0  0  0  0  0  0  0
   57.4830   22.8430   43.9120 C   0  0  0  0  0  0  0  0  0  0  0  0
   56.2730   22.2310   43.5760 C   0  0  0  0  0  0  0  0  0  0  0  0
   56.2700   21.1280   42.9680 O   0  0  0  0  0  0  0  0  0  0  0  0
   55.0970   22.8260   43.9040 N   0  0  0  0  0  0  0  0  0  0  0  0
   55.0530   24.0170   44.5600 C   0  0  0  0  0  0  0  0  0  0  0  0
   57.5098   31.0537   42.3664 H   0  0  0  0  0  0  0  0  0  0  0  0
   57.0058   32.7515   42.0661 H   0  0  0  0  0  0  0  0  0  0  0  0
   58.7492   32.3187   42.0661 H   0  0  0  0  0  0  0  0  0  0  0  0
   58.1806   34.5203   43.7352 H   0  0  0  0  0  0  0  0  0  0  0  0
   58.2920   34.9924   46.1856 H   0  0  0  0  0  0  0  0  0  0  0  0
   58.0093   33.1169   47.8133 H   0  0  0  0  0  0  0  0  0  0  0  0
   58.4048   28.4783   46.3976 H   0  0  0  0  0  0  0  0  0  0  0  0
   56.7809   28.1837   47.1292 H   0  0  0  0  0  0  0  0  0  0  0  0
   58.4143   24.5564   44.8533 H   0  0  0  0  0  0  0  0  0  0  0  0
   58.4387   22.3661   43.6489 H   0  0  0  0  0  0  0  0  0  0  0  0
   54.0817   24.4692   44.8093 H   0  0  0  0  0  0  0  0  0  0  0  0
  1  2  1  0
  2  3  2  0
  3  4  1  0
  4  5  2  0
  5  6  1  0
  6  7  1  0
  7  8  2  3
  8  9  1  0
  9 10  2  0
  9 11  1  0
 11 12  1  0
 12 13  1  0
 13 14  2  0
 13 15  1  0
 15 16  1  0
 16 17  2  0
 17 18  1  0
 18 19  2  0
 18 20  1  0
 20 21  1  0
  7  2  1  0
 21 15  2  0
  1 22  1  0
  1 23  1  0
  1 24  1  0
  3 25  1  0
  4 26  1  0
  5 27  1  0
 11 28  1  0
 11 29  1  0
 16 30  1  0
 17 31  1  0
 21 32  1  0
M  CHG  3   6  -1  12  -1  20  -1
M  END
>  <UniqueID>  (70) 
64

>  <SMILES>  (70) 
Cc1ccc[n-]c1=NC(=O)C[N-]C(=O)c1ccc(=O)[n-]c1

>  <Energy>  (70) 
37.49198874902572

>  <Genealogy>  (70) 
Cc1ccc[n-]c1=NC(=O)C[N-]C(=O)c1ccc(=O)[n-]c1 (protonated)
Cc1ccc[n-]c1=NC(=O)C[N-]C(=O)c1ccc(=O)[n-]c1 (3D coordinates assigned)
Cc1ccc[n-]c1=NC(=O)C[N-]C(=O)c1ccc(=O)[n-]c1 (optimized conformer: 37.49198874902572 kcal/mol)

>  <smiles>  (70) 
Cc1ccc[nH]c1=NC(=O)CNC(=O)c1ccc(=O)[nH]c1

>  <score_type>  (70) 
oracle

>  <origin>  (70) 
adg

>  <m_score__min__energy>  (70) 
-12.1

>  <m_primary>  (70) 
energy

$$$$
70:0
     RDKit          3D

 45 47  0  0  0  0  0  0  0  0999 V2000
   58.6190   34.6560   44.9280 C   0  0  0  0  0  0  0  0  0  0  0  0
   58.7840   33.6770   45.9990 N   0  0  0  0  0  0  0  0  0  0  0  0
   59.4990   33.8600   47.1270 C   0  0  0  0  0  0  0  0  0  0  0  0
   59.3470   32.7640   47.9520 C   0  0  0  0  0  0  0  0  0  0  0  0
   59.8360   32.6450   49.3620 C   0  0  0  0  0  0  0  0  0  0  0  0
   58.9010   31.7660   50.1560 C   0  0  0  0  0  0  0  0  0  0  0  0
   57.9940   32.3370   51.0590 C   0  0  0  0  0  0  0  0  0  0  0  0
   57.1880   31.5430   51.8100 N   0  0  0  0  0  0  0  0  0  0  0  0
   57.2490   30.1900   51.7100 C   0  0  0  0  0  0  0  0  0  0  0  0
   56.4930   29.4720   52.4150 O   0  0  0  0  0  0  0  0  0  0  0  0
   58.1290   29.6110   50.8530 N   0  0  0  0  0  0  0  0  0  0  0  0
   58.9550   30.3630   50.0810 C   0  0  0  0  0  0  0  0  0  0  0  0
   59.7680   29.7900   49.3060 O   0  0  0  0  0  0  0  0  0  0  0  0
   58.4910   31.8860   47.3140 C   0  0  0  0  0  0  0  0  0  0  0  0
   58.1690   32.4770   46.1060 C   0  0  0  0  0  0  0  0  0  0  0  0
   57.1180   31.9670   45.1640 C   0  0  0  0  0  0  0  0  0  0  0  0
   57.1390   30.5100   45.1580 N   0  0  0  0  0  0  0  0  0  0  0  0
   56.0190   29.7060   44.7680 C   0  0  0  0  0  0  0  0  0  0  0  0
   55.1130   30.1880   44.0390 O   0  0  0  0  0  0  0  0  0  0  0  0
   55.8910   28.3650   45.2470 N   0  0  0  0  0  0  0  0  0  0  0  0
   56.9580   27.5830   45.8030 C   0  0  0  0  0  0  0  0  0  0  0  0
   58.2890   28.0390   45.7630 C   0  0  0  0  0  0  0  0  0  0  0  0
   59.3190   27.2570   46.2880 C   0  0  0  0  0  0  0  0  0  0  0  0
   59.0360   26.0070   46.8390 C   0  0  0  0  0  0  0  0  0  0  0  0
   57.7220   25.5320   46.8600 C   0  0  0  0  0  0  0  0  0  0  0  0
   56.6730   26.3140   46.3350 C   0  0  0  0  0  0  0  0  0  0  0  0
   55.3400   25.8700   46.3290 O   0  0  0  0  0  0  0  0  0  0  0  0
   54.8600   24.7440   45.5990 C   0  0  0  0  0  0  0  0  0  0  0  0
   53.4860   24.8330   45.4820 F   0  0  0  0  0  0  0  0  0  0  0  0
   55.1800   23.5760   46.2680 F   0  0  0  0  0  0  0  0  0  0  0  0
   58.4512   35.6518   45.3641 H   0  0  0  0  0  0  0  0  0  0  0  0
   59.5264   34.6761   44.3066 H   0  0  0  0  0  0  0  0  0  0  0  0
   57.7551   34.3775   44.3066 H   0  0  0  0  0  0  0  0  0  0  0  0
   60.1095   34.7462   47.3548 H   0  0  0  0  0  0  0  0  0  0  0  0
   60.8427   32.2017   49.3630 H   0  0  0  0  0  0  0  0  0  0  0  0
   59.8702   33.6447   49.8196 H   0  0  0  0  0  0  0  0  0  0  0  0
   57.9349   33.4308   51.1596 H   0  0  0  0  0  0  0  0  0  0  0  0
   58.1378   30.9147   47.6906 H   0  0  0  0  0  0  0  0  0  0  0  0
   56.1288   32.3184   45.4928 H   0  0  0  0  0  0  0  0  0  0  0  0
   57.3208   32.3415   44.1498 H   0  0  0  0  0  0  0  0  0  0  0  0
   58.5187   29.0172   45.3154 H   0  0  0  0  0  0  0  0  0  0  0  0
   60.3548   27.6266   46.2673 H   0  0  0  0  0  0  0  0  0  0  0  0
   59.8483   25.3945   47.2575 H   0  0  0  0  0  0  0  0  0  0  0  0
   57.5049   24.5424   47.2885 H   0  0  0  0  0  0  0  0  0  0  0  0
   55.3261   24.7328   44.6027 H   0  0  0  0  0  0  0  0  0  0  0  0
  1  2  1  0
  2  3  1  0
  3  4  2  0
  4  5  1  0
  5  6  1  0
  6  7  2  0
  7  8  1  0
  8  9  1  0
  9 10  2  0
  9 11  1  0
 11 12  1  0
 12 13  2  0
  4 14  1  0
 14 15  2  0
 15 16  1  0
 16 17  1  0
 17 18  1  0
 18 19  2  0
 18 20  1  0
 20 21  1  0
 21 22  2  0
 22 23  1  0
 23 24  2  0
 24 25  1  0
 25 26  2  0
 26 27  1  0
 27 28  1  0
 28 29  1  0
 28 30  1  0
 15  2  1  0
 26 21  1  0
 12  6  1  0
  1 31  1  0
  1 32  1  0
  1 33  1  0
  3 34  1  0
  5 35  1  0
  5 36  1  0
  7 37  1  0
 14 38  1  0
 16 39  1  0
 16 40  1  0
 22 41  1  0
 23 42  1  0
 24 43  1  0
 25 44  1  0
 28 45  1  0
M  CHG  4   8  -1  11  -1  17  -1  20  -1
M  END
>  <UniqueID>  (71) 
65

>  <SMILES>  (71) 
Cn1cc(Cc2c[n-]c(=O)[n-]c2=O)cc1C[N-]C(=O)[N-]c1ccccc1OC(F)F

>  <Energy>  (71) 
72.13105415165121

>  <Genealogy>  (71) 
Cn1cc(Cc2c[n-]c(=O)[n-]c2=O)cc1C[N-]C(=O)[N-]c1ccccc1OC(F)F (protonated)
Cn1cc(Cc2c[n-]c(=O)[n-]c2=O)cc1C[N-]C(=O)[N-]c1ccccc1OC(F)F (3D coordinates assigned)
Cn1cc(Cc2c[n-]c(=O)[n-]c2=O)cc1C[N-]C(=O)[N-]c1ccccc1OC(F)F (optimized conformer: 72.13105415165121 kcal/mol)

>  <smiles>  (71) 
Cn1cc(Cc2c[nH]c(=O)[nH]c2=O)cc1CNC(=O)Nc1ccccc1OC(F)F

>  <score_type>  (71) 
oracle

>  <origin>  (71) 
adg

>  <m_score__min__energy>  (71) 
-14.82

>  <m_primary>  (71) 
energy

$$$$
71:0
     RDKit          3D

 55 58  0  0  0  0  0  0  0  0999 V2000
   59.0620   31.0035   45.8906 H   0  0  0  0  0  0  0  0  0  0  0  0
   58.2970   30.4140   45.3640 C   0  0  0  0  0  0  0  0  0  0  0  0
   57.0560   31.0850   44.9260 C   0  0  0  0  0  0  0  0  0  0  0  0
   56.0910   30.4050   44.4840 O   0  0  0  0  0  0  0  0  0  0  0  0
   56.9460   32.5150   44.9280 N   0  0  0  0  0  0  0  0  0  0  0  0
   57.9480   33.4420   45.3710 C   0  0  0  0  0  0  0  0  0  0  0  0
   58.3020   34.5060   44.5340 C   0  0  0  0  0  0  0  0  0  0  0  0
   57.8157   34.6167   43.5536 H   0  0  0  0  0  0  0  0  0  0  0  0
   59.2700   35.4280   44.9380 C   0  0  0  0  0  0  0  0  0  0  0  0
   59.5553   36.2523   44.2679 H   0  0  0  0  0  0  0  0  0  0  0  0
   59.8770   35.3070   46.1900 C   0  0  0  0  0  0  0  0  0  0  0  0
   60.6520   36.0259   46.4943 H   0  0  0  0  0  0  0  0  0  0  0  0
   59.5020   34.2700   47.0640 C   0  0  0  0  0  0  0  0  0  0  0  0
   60.1440   34.1230   48.3930 C   0  0  0  0  0  0  0  0  0  0  0  0
   59.4740   34.3950   49.4260 O   0  0  0  0  0  0  0  0  0  0  0  0
   61.5470   33.6690   48.5480 C   0  0  0  0  0  0  0  0  0  0  0  0
   62.3100   33.2770   47.4320 C   0  0  0  0  0  0  0  0  0  0  0  0
   61.8612   33.2988   46.4280 H   0  0  0  0  0  0  0  0  0  0  0  0
   63.6350   32.8600   47.5920 C   0  0  0  0  0  0  0  0  0  0  0  0
   64.2224   32.5488   46.7156 H   0  0  0  0  0  0  0  0  0  0  0  0
   64.2140   32.8380   48.8630 C   0  0  0  0  0  0  0  0  0  0  0  0
   65.2549   32.5049   48.9875 H   0  0  0  0  0  0  0  0  0  0  0  0
   63.4710   33.2390   49.9760 C   0  0  0  0  0  0  0  0  0  0  0  0
   63.9289   33.2244   50.9761 H   0  0  0  0  0  0  0  0  0  0  0  0
   62.1460   33.6590   49.8210 C   0  0  0  0  0  0  0  0  0  0  0  0
   61.5689   33.9834   50.6995 H   0  0  0  0  0  0  0  0  0  0  0  0
   58.5340   33.3400   46.6450 C   0  0  0  0  0  0  0  0  0  0  0  0
   58.2326   32.5254   47.3200 H   0  0  0  0  0  0  0  0  0  0  0  0
   58.5230   29.1120   45.1420 C   0  0  0  0  0  0  0  0  0  0  0  0
   58.4423   28.7352   44.1117 H   0  0  0  0  0  0  0  0  0  0  0  0
   58.8770   28.1530   46.2190 C   0  0  0  0  0  0  0  0  0  0  0  0
   58.3460   26.8500   46.2510 C   0  0  0  0  0  0  0  0  0  0  0  0
   57.6443   26.5262   45.4682 H   0  0  0  0  0  0  0  0  0  0  0  0
   58.7040   25.9670   47.2690 C   0  0  0  0  0  0  0  0  0  0  0  0
   58.2738   24.9549   47.2922 H   0  0  0  0  0  0  0  0  0  0  0  0
   59.6050   26.3610   48.2580 C   0  0  0  0  0  0  0  0  0  0  0  0
   59.8715   25.6615   49.0640 H   0  0  0  0  0  0  0  0  0  0  0  0
   60.1750   27.6460   48.2320 C   0  0  0  0  0  0  0  0  0  0  0  0
   61.1240   28.0690   49.2300 N   0  0  0  0  0  0  0  0  0  0  0  0
   61.7480   27.3610   49.6780 H   0  0  0  0  0  0  0  0  0  0  0  0
   61.2190   29.6890   49.8530 S   0  0  0  0  0  0  0  0  0  0  0  0
   62.1670   29.7180   51.0170 O   0  0  0  0  0  0  0  0  0  0  0  0
   61.7390   30.6010   48.7760 O   0  0  0  0  0  0  0  0  0  0  0  0
   59.6310   30.2140   50.4050 C   0  0  0  0  0  0  0  0  0  0  0  0
   58.8350   29.3580   51.1760 C   0  0  0  0  0  0  0  0  0  0  0  0
   59.2049   28.3571   51.4433 H   0  0  0  0  0  0  0  0  0  0  0  0
   57.6060   29.7610   51.5950 N   0  0  0  0  0  0  0  0  0  0  0  0
   57.1150   30.9910   51.2870 C   0  0  0  0  0  0  0  0  0  0  0  0
   56.1168   31.2885   51.6406 H   0  0  0  0  0  0  0  0  0  0  0  0
   57.8770   31.8770   50.5220 C   0  0  0  0  0  0  0  0  0  0  0  0
   57.4840   32.8729   50.2697 H   0  0  0  0  0  0  0  0  0  0  0  0
   59.1420   31.4860   50.0810 C   0  0  0  0  0  0  0  0  0  0  0  0
   59.7537   32.1752   49.4803 H   0  0  0  0  0  0  0  0  0  0  0  0
   59.8020   28.5380   47.2070 C   0  0  0  0  0  0  0  0  0  0  0  0
   60.3400   29.7870   47.1780 F   0  0  0  0  0  0  0  0  0  0  0  0
  1  2  1  0
  2  3  1  0
  3  4  2  0
  3  5  1  0
  5  6  1  0
  6  7  2  0
  7  8  1  0
  7  9  1  0
  9 10  1  0
  9 11  2  0
 11 12  1  0
 11 13  1  0
 13 14  1  0
 14 15  2  0
 14 16  1  0
 16 17  2  0
 17 18  1  0
 17 19  1  0
 19 20  1  0
 19 21  2  0
 21 22  1  0
 21 23  1  0
 23 24  1  0
 23 25  2  0
 25 26  1  0
 13 27  2  0
 27 28  1  0
  2 29  2  0
 29 30  1  0
 29 31  1  0
 31 32  2  0
 32 33  1  0
 32 34  1  0
 34 35  1  0
 34 36  2  0
 36 37  1  0
 36 38  1  0
 38 39  1  0
 39 40  1  0
 39 41  1  0
 41 42  2  0
 41 43  2  0
 41 44  1  0
 44 45  2  0
 45 46  1  0
 45 47  1  0
 47 48  2  0
 48 49  1  0
 48 50  1  0
 50 51  1  0
 50 52  2  0
 52 53  1  0
 38 54  2  0
 54 55  1  0
 27  6  1  0
 54 31  1  0
 25 16  1  0
 52 44  1  0
M  CHG  1   5  -1
M  END
>  <UniqueID>  (72) 
66

>  <SMILES>  (72) 
O=C(/C=C/c1cccc(NS(=O)(=O)c2cccnc2)c1F)[N-]c1cccc(C(=O)c2ccccc2)c1

>  <Energy>  (72) 
76.94039661369199

>  <Genealogy>  (72) 
O=C(C=Cc1cccc(NS(=O)(=O)c2cccnc2)c1F)[N-]c1cccc(C(=O)c2ccccc2)c1 (protonated)
O=C(/C=C/c1cccc(NS(=O)(=O)c2cccnc2)c1F)[N-]c1cccc(C(=O)c2ccccc2)c1 (cis-trans isomerization)
O=C(/C=C/c1cccc(NS(=O)(=O)c2cccnc2)c1F)[N-]c1cccc(C(=O)c2ccccc2)c1 (3D coordinates assigned)
O=C(/C=C/c1cccc(NS(=O)(=O)c2cccnc2)c1F)[N-]c1cccc(C(=O)c2ccccc2)c1 (optimized conformer: 76.94039661369199 kcal/mol)

>  <smiles>  (72) 
O=C(C=Cc1cccc(NS(=O)(=O)c2cccnc2)c1F)Nc1cccc(C(=O)c2ccccc2)c1

>  <score_type>  (72) 
oracle

>  <origin>  (72) 
adg

>  <m_score__min__energy>  (72) 
-13.630000000000001

>  <m_primary>  (72) 
energy

$$$$
72:0
     RDKit          3D

 43 45  0  0  0  0  0  0  0  0999 V2000
   57.0270   33.5360   46.5110 N   0  0  0  0  0  0  0  0  0  0  0  0
   58.1600   33.5440   46.7450 C   0  0  0  0  0  0  0  0  0  0  0  0
   59.5690   33.5560   47.0370 C   0  0  0  0  0  0  0  0  0  0  0  0
   60.4940   33.8460   46.0260 C   0  0  0  0  0  0  0  0  0  0  0  0
   61.8640   33.8430   46.3080 C   0  0  0  0  0  0  0  0  0  0  0  0
   62.3150   33.5470   47.5980 C   0  0  0  0  0  0  0  0  0  0  0  0
   61.3950   33.2620   48.6190 C   0  0  0  0  0  0  0  0  0  0  0  0
   61.8810   32.9040   49.9970 C   0  0  0  0  0  0  0  0  0  0  0  0
   62.3320   31.1340   50.1090 S   0  0  0  0  0  0  0  0  0  0  0  0
   60.6380   30.5420   50.0560 C   0  0  0  0  0  0  0  0  0  0  0  0
   59.8820   30.5490   51.0970 N   0  0  0  0  0  0  0  0  0  0  0  0
   58.6010   29.9300   50.7800 C   0  0  0  0  0  0  0  0  0  0  0  0
   58.7070   29.5150   49.3030 C   0  0  0  0  0  0  0  0  0  0  0  0
   60.0480   29.9280   48.9230 N   0  0  0  0  0  0  0  0  0  0  0  0
   60.5490   29.9730   47.5800 C   0  0  0  0  0  0  0  0  0  0  0  0
   61.6260   30.5830   47.3370 O   0  0  0  0  0  0  0  0  0  0  0  0
   59.8190   29.3150   46.4770 C   0  0  0  0  0  0  0  0  0  0  0  0
   60.2630   28.0860   45.9620 C   0  0  0  0  0  0  0  0  0  0  0  0
   59.5640   27.4650   44.9230 C   0  0  0  0  0  0  0  0  0  0  0  0
   58.4130   28.0550   44.3970 C   0  0  0  0  0  0  0  0  0  0  0  0
   57.9470   29.2710   44.9170 C   0  0  0  0  0  0  0  0  0  0  0  0
   56.4940   30.0310   44.2750 S   0  0  0  0  0  0  0  0  0  0  0  0
   56.5010   29.9300   42.5490 N   0  0  0  0  0  0  0  0  0  0  0  0
   55.2680   29.3420   44.8040 O   0  0  0  0  0  0  0  0  0  0  0  0
   56.4600   31.4750   44.6950 O   0  0  0  0  0  0  0  0  0  0  0  0
   58.6490   29.8940   45.9560 C   0  0  0  0  0  0  0  0  0  0  0  0
   60.0180   33.2680   48.3310 C   0  0  0  0  0  0  0  0  0  0  0  0
   60.1427   34.0763   45.0094 H   0  0  0  0  0  0  0  0  0  0  0  0
   62.5883   34.0740   45.5130 H   0  0  0  0  0  0  0  0  0  0  0  0
   63.3937   33.5375   47.8132 H   0  0  0  0  0  0  0  0  0  0  0  0
   62.7651   33.5140   50.2341 H   0  0  0  0  0  0  0  0  0  0  0  0
   61.0680   33.0993   50.7117 H   0  0  0  0  0  0  0  0  0  0  0  0
   58.4303   29.0493   51.4166 H   0  0  0  0  0  0  0  0  0  0  0  0
   57.7590   30.6160   50.9544 H   0  0  0  0  0  0  0  0  0  0  0  0
   58.5855   28.4274   49.1917 H   0  0  0  0  0  0  0  0  0  0  0  0
   57.9272   29.9713   48.6756 H   0  0  0  0  0  0  0  0  0  0  0  0
   61.1637   27.6107   46.3777 H   0  0  0  0  0  0  0  0  0  0  0  0
   59.9223   26.5071   44.5179 H   0  0  0  0  0  0  0  0  0  0  0  0
   57.8714   27.5656   43.5741 H   0  0  0  0  0  0  0  0  0  0  0  0
   55.7190   29.2930   42.2790 H   0  0  0  0  0  0  0  0  0  0  0  0
   57.3880   29.4520   42.2740 H   0  0  0  0  0  0  0  0  0  0  0  0
   58.2815   30.8453   46.3683 H   0  0  0  0  0  0  0  0  0  0  0  0
   59.2912   33.0454   49.1261 H   0  0  0  0  0  0  0  0  0  0  0  0
  1  2  3  0
  2  3  1  0
  3  4  2  0
  4  5  1  0
  5  6  2  0
  6  7  1  0
  7  8  1  0
  8  9  1  0
  9 10  1  0
 10 11  2  0
 11 12  1  0
 12 13  1  0
 13 14  1  0
 14 15  1  0
 15 16  2  0
 15 17  1  0
 17 18  2  0
 18 19  1  0
 19 20  2  0
 20 21  1  0
 21 22  1  0
 22 23  1  0
 22 24  2  0
 22 25  2  0
 21 26  2  0
  7 27  2  0
 27  3  1  0
 14 10  1  0
 26 17  1  0
  4 28  1  0
  5 29  1  0
  6 30  1  0
  8 31  1  0
  8 32  1  0
 12 33  1  0
 12 34  1  0
 13 35  1  0
 13 36  1  0
 18 37  1  0
 19 38  1  0
 20 39  1  0
 23 40  1  0
 23 41  1  0
 26 42  1  0
 27 43  1  0
M  END
>  <UniqueID>  (73) 
67

>  <SMILES>  (73) 
N#Cc1cccc(CSC2=NCCN2C(=O)c2cccc(S(N)(=O)=O)c2)c1

>  <Energy>  (73) 
53.665006162148934

>  <Genealogy>  (73) 
N#Cc1cccc(CSC2=NCCN2C(=O)c2cccc(S(N)(=O)=O)c2)c1 (3D coordinates assigned)
N#Cc1cccc(CSC2=NCCN2C(=O)c2cccc(S(N)(=O)=O)c2)c1 (nonaromatic ring conformer: 53.665006162148934 kcal/mol)

>  <smiles>  (73) 
N#Cc1cccc(CSC2=NCCN2C(=O)c2cccc(S(N)(=O)=O)c2)c1

>  <score_type>  (73) 
oracle

>  <origin>  (73) 
adg

>  <m_score__min__energy>  (73) 
-9.2200000000000006

>  <m_primary>  (73) 
energy

$$$$
73:0
     RDKit          3D

 43 45  0  0  0  0  0  0  0  0999 V2000
   57.7990   31.9380   42.6860 C   0  0  0  0  0  0  0  0  0  0  0  0
   58.1120   33.0870   43.2860 C   0  0  0  0  0  0  0  0  0  0  0  0
   58.4290   33.2200   44.7300 C   0  0  0  0  0  0  0  0  0  0  0  0
   59.1220   34.3300   45.2500 C   0  0  0  0  0  0  0  0  0  0  0  0
   59.3810   34.4030   46.6180 C   0  0  0  0  0  0  0  0  0  0  0  0
   58.9400   33.3880   47.4730 C   0  0  0  0  0  0  0  0  0  0  0  0
   59.2490   33.4350   48.9430 C   0  0  0  0  0  0  0  0  0  0  0  0
   59.2510   32.0510   49.5110 C   0  0  0  0  0  0  0  0  0  0  0  0
   58.1960   31.4470   50.1890 C   0  0  0  0  0  0  0  0  0  0  0  0
   58.4120   30.1500   50.5370 N   0  0  0  0  0  0  0  0  0  0  0  0
   59.6280   29.7190   50.1390 C   0  0  0  0  0  0  0  0  0  0  0  0
   60.0260   28.4980   50.3360 N   0  0  0  0  0  0  0  0  0  0  0  0
   60.3000   27.5300   49.3120 C   0  0  0  0  0  0  0  0  0  0  0  0
   61.1400   26.6220   49.5500 O   0  0  0  0  0  0  0  0  0  0  0  0
   59.6750   27.6100   47.9690 C   0  0  0  0  0  0  0  0  0  0  0  0
   58.6400   26.7310   47.6110 C   0  0  0  0  0  0  0  0  0  0  0  0
   58.0610   26.8100   46.3430 C   0  0  0  0  0  0  0  0  0  0  0  0
   58.5240   27.7620   45.4330 C   0  0  0  0  0  0  0  0  0  0  0  0
   57.9360   27.8440   44.1660 O   0  0  0  0  0  0  0  0  0  0  0  0
   57.2870   29.0150   43.6750 C   0  0  0  0  0  0  0  0  0  0  0  0
   56.2080   29.4470   44.6160 C   0  0  0  0  0  0  0  0  0  0  0  0
   55.5200   28.5880   45.2250 O   0  0  0  0  0  0  0  0  0  0  0  0
   55.9820   30.7980   44.8450 O   0  0  0  0  0  0  0  0  0  0  0  0
   59.5410   28.5950   45.7880 N   0  0  0  0  0  0  0  0  0  0  0  0
   60.1220   28.5390   47.0150 C   0  0  0  0  0  0  0  0  0  0  0  0
   60.4830   30.9220   49.3130 S   0  0  0  0  0  0  0  0  0  0  0  0
   58.2520   32.2980   46.9240 C   0  0  0  0  0  0  0  0  0  0  0  0
   58.0060   32.2420   45.5860 N   0  0  0  0  0  0  0  0  0  0  0  0
   57.5765   31.9228   41.6089 H   0  0  0  0  0  0  0  0  0  0  0  0
   57.7633   31.0054   43.2682 H   0  0  0  0  0  0  0  0  0  0  0  0
   58.1370   33.9976   42.6693 H   0  0  0  0  0  0  0  0  0  0  0  0
   59.4574   35.1356   44.5802 H   0  0  0  0  0  0  0  0  0  0  0  0
   59.9341   35.2618   47.0262 H   0  0  0  0  0  0  0  0  0  0  0  0
   60.2386   33.8914   49.0926 H   0  0  0  0  0  0  0  0  0  0  0  0
   58.4805   34.0335   49.4541 H   0  0  0  0  0  0  0  0  0  0  0  0
   57.2613   31.9768   50.4248 H   0  0  0  0  0  0  0  0  0  0  0  0
   58.2848   25.9789   48.3309 H   0  0  0  0  0  0  0  0  0  0  0  0
   57.2456   26.1268   46.0630 H   0  0  0  0  0  0  0  0  0  0  0  0
   58.0258   29.8238   43.5750 H   0  0  0  0  0  0  0  0  0  0  0  0
   56.8377   28.7900   42.6965 H   0  0  0  0  0  0  0  0  0  0  0  0
   60.9461   29.2243   47.2623 H   0  0  0  0  0  0  0  0  0  0  0  0
   57.9086   31.4827   47.5777 H   0  0  0  0  0  0  0  0  0  0  0  0
   57.4880   31.4140   45.2140 H   0  0  0  0  0  0  0  0  0  0  0  0
  1  2  2  0
  2  3  1  0
  3  4  2  0
  4  5  1  0
  5  6  2  0
  6  7  1  0
  7  8  1  0
  8  9  2  0
  9 10  1  0
 10 11  1  0
 11 12  2  3
 12 13  1  0
 13 14  2  0
 13 15  1  0
 15 16  2  0
 16 17  1  0
 17 18  2  0
 18 19  1  0
 19 20  1  0
 20 21  1  0
 21 22  2  0
 21 23  1  0
 18 24  1  0
 24 25  2  0
 11 26  1  0
  6 27  1  0
 27 28  2  0
 28  3  1  0
 26  8  1  0
 25 15  1  0
  1 29  1  0
  1 30  1  0
  2 31  1  0
  4 32  1  0
  5 33  1  0
  7 34  1  0
  7 35  1  0
  9 36  1  0
 16 37  1  0
 17 38  1  0
 20 39  1  0
 20 40  1  0
 25 41  1  0
 27 42  1  0
 28 43  1  0
M  CHG  3  10  -1  23  -1  28   1
M  END
>  <UniqueID>  (74) 
68

>  <SMILES>  (74) 
C=Cc1ccc(Cc2c[n-]c(=NC(=O)c3ccc(OCC(=O)[O-])nc3)s2)c[nH+]1

>  <Energy>  (74) 
81.8585454637645

>  <Genealogy>  (74) 
C=Cc1ccc(Cc2c[n-]c(=NC(=O)c3ccc(OCC(=O)[O-])nc3)s2)c[nH+]1 (protonated)
C=Cc1ccc(Cc2c[n-]c(=NC(=O)c3ccc(OCC(=O)[O-])nc3)s2)c[nH+]1 (3D coordinates assigned)
C=Cc1ccc(Cc2c[n-]c(=NC(=O)c3ccc(OCC(=O)[O-])nc3)s2)c[nH+]1 (optimized conformer: 81.8585454637645 kcal/mol)

>  <smiles>  (74) 
C=Cc1ccc(Cc2c[nH]c(=NC(=O)c3ccc(OCC(=O)O)nc3)s2)cn1

>  <score_type>  (74) 
oracle

>  <origin>  (74) 
adg

>  <m_score__min__energy>  (74) 
-11.779999999999999

>  <m_primary>  (74) 
energy

$$$$
74:0
     RDKit          3D

 62 66  0  0  0  0  0  0  0  0999 V2000
   56.9830   31.7340   43.9900 H   0  0  0  0  0  0  0  0  0  0  0  0
   56.6660   31.1350   44.7430 O   0  0  0  0  0  0  0  0  0  0  0  0
   57.5500   30.3430   45.4730 C   0  0  0  0  0  0  0  0  0  0  0  0
   57.4330   28.9470   45.4120 C   0  0  0  0  0  0  0  0  0  0  0  0
   56.6201   28.4938   44.8257 H   0  0  0  0  0  0  0  0  0  0  0  0
   58.3420   28.1230   46.0910 C   0  0  0  0  0  0  0  0  0  0  0  0
   58.2400   26.6490   45.9750 C   0  0  0  0  0  0  0  0  0  0  0  0
   58.7990   26.0700   45.0070 O   0  0  0  0  0  0  0  0  0  0  0  0
   57.4840   25.8600   46.9070 N   0  0  0  0  0  0  0  0  0  0  0  0
   56.5720   24.9780   46.6060 C   0  0  0  0  0  0  0  0  0  0  0  0
   56.7710   23.6500   46.8440 N   0  0  0  0  0  0  0  0  0  0  0  0
   55.8340   22.7140   46.5360 C   0  0  0  0  0  0  0  0  0  0  0  0
   56.0250   21.6527   46.7531 H   0  0  0  0  0  0  0  0  0  0  0  0
   54.6310   23.0990   45.9450 C   0  0  0  0  0  0  0  0  0  0  0  0
   53.8685   22.3466   45.6950 H   0  0  0  0  0  0  0  0  0  0  0  0
   54.4050   24.4500   45.6740 C   0  0  0  0  0  0  0  0  0  0  0  0
   53.4630   24.7672   45.2029 H   0  0  0  0  0  0  0  0  0  0  0  0
   55.3770   25.3980   46.0020 C   0  0  0  0  0  0  0  0  0  0  0  0
   55.1500   26.7430   45.7310 O   0  0  0  0  0  0  0  0  0  0  0  0
   59.3400   28.7100   46.8790 C   0  0  0  0  0  0  0  0  0  0  0  0
   60.0345   28.0724   47.4456 H   0  0  0  0  0  0  0  0  0  0  0  0
   59.4590   30.0990   46.9500 C   0  0  0  0  0  0  0  0  0  0  0  0
   60.2539   30.5453   47.5655 H   0  0  0  0  0  0  0  0  0  0  0  0
   58.5760   30.9340   46.2450 C   0  0  0  0  0  0  0  0  0  0  0  0
   58.7770   32.3630   46.2630 N   0  0  0  0  0  0  0  0  0  0  0  0
   59.9160   32.9980   45.5960 C   0  0  0  0  0  0  0  0  0  0  0  0
   60.5773   32.2224   45.1825 H   0  0  0  0  0  0  0  0  0  0  0  0
   59.5510   33.6419   44.7823 H   0  0  0  0  0  0  0  0  0  0  0  0
   60.6960   33.8480   46.6090 C   0  0  0  0  0  0  0  0  0  0  0  0
   61.3472   33.1833   47.1956 H   0  0  0  0  0  0  0  0  0  0  0  0
   61.2722   34.5912   46.0383 H   0  0  0  0  0  0  0  0  0  0  0  0
   59.8160   34.5940   47.5450 N   0  0  0  0  0  0  0  0  0  0  0  0
   60.1440   34.4780   48.9850 C   0  0  0  0  0  0  0  0  0  0  0  0
   60.4130   35.4767   49.3594 H   0  0  0  0  0  0  0  0  0  0  0  0
   59.2535   34.0638   49.4804 H   0  0  0  0  0  0  0  0  0  0  0  0
   61.2970   33.5270   49.2870 C   0  0  0  0  0  0  0  0  0  0  0  0
   62.5950   33.9030   48.8990 C   0  0  0  0  0  0  0  0  0  0  0  0
   62.7631   34.8985   48.4623 H   0  0  0  0  0  0  0  0  0  0  0  0
   63.6740   33.0310   49.0600 C   0  0  0  0  0  0  0  0  0  0  0  0
   64.6793   33.3355   48.7335 H   0  0  0  0  0  0  0  0  0  0  0  0
   63.4800   31.7790   49.6320 C   0  0  0  0  0  0  0  0  0  0  0  0
   64.3264   31.0837   49.7329 H   0  0  0  0  0  0  0  0  0  0  0  0
   62.2130   31.4040   50.0780 C   0  0  0  0  0  0  0  0  0  0  0  0
   62.0704   30.4184   50.5452 H   0  0  0  0  0  0  0  0  0  0  0  0
   61.1160   32.2720   49.9370 C   0  0  0  0  0  0  0  0  0  0  0  0
   59.8180   31.8370   50.4990 C   0  0  0  0  0  0  0  0  0  0  0  0
   59.0870   32.6900   51.3400 C   0  0  0  0  0  0  0  0  0  0  0  0
   59.4646   33.6999   51.5581 H   0  0  0  0  0  0  0  0  0  0  0  0
   57.8800   32.2610   51.9020 C   0  0  0  0  0  0  0  0  0  0  0  0
   57.3043   32.9387   52.5495 H   0  0  0  0  0  0  0  0  0  0  0  0
   57.4040   30.9720   51.6420 C   0  0  0  0  0  0  0  0  0  0  0  0
   55.8890   30.4360   52.3460 Cl  0  0  0  0  0  0  0  0  0  0  0  0
   58.1430   30.1070   50.8290 C   0  0  0  0  0  0  0  0  0  0  0  0
   57.7740   29.0898   50.6314 H   0  0  0  0  0  0  0  0  0  0  0  0
   59.3500   30.5330   50.2670 C   0  0  0  0  0  0  0  0  0  0  0  0
   59.9357   29.8442   49.6405 H   0  0  0  0  0  0  0  0  0  0  0  0
   58.3790   34.6300   47.2030 C   0  0  0  0  0  0  0  0  0  0  0  0
   57.8283   35.0867   48.0385 H   0  0  0  0  0  0  0  0  0  0  0  0
   58.2686   35.2167   46.2791 H   0  0  0  0  0  0  0  0  0  0  0  0
   57.8040   33.2280   46.9400 C   0  0  0  0  0  0  0  0  0  0  0  0
   57.5270   32.7698   47.9009 H   0  0  0  0  0  0  0  0  0  0  0  0
   56.9251   33.3337   46.2871 H   0  0  0  0  0  0  0  0  0  0  0  0
  1  2  1  0
  2  3  1  0
  3  4  2  0
  4  5  1  0
  4  6  1  0
  6  7  1  0
  7  8  2  0
  7  9  1  0
  9 10  2  0
 10 11  1  0
 11 12  1  0
 12 13  1  0
 12 14  2  0
 14 15  1  0
 14 16  1  0
 16 17  1  0
 16 18  2  0
 18 19  1  0
  6 20  2  0
 20 21  1  0
 20 22  1  0
 22 23  1  0
 22 24  2  0
 24 25  1  0
 25 26  1  0
 26 27  1  0
 26 28  1  0
 26 29  1  0
 29 30  1  0
 29 31  1  0
 29 32  1  0
 32 33  1  0
 33 34  1  0
 33 35  1  0
 33 36  1  0
 36 37  2  0
 37 38  1  0
 37 39  1  0
 39 40  1  0
 39 41  2  0
 41 42  1  0
 41 43  1  0
 43 44  1  0
 43 45  2  0
 45 46  1  0
 46 47  2  0
 47 48  1  0
 47 49  1  0
 49 50  1  0
 49 51  2  0
 51 52  1  0
 51 53  1  0
 53 54  1  0
 53 55  2  0
 55 56  1  0
 32 57  1  0
 57 58  1  0
 57 59  1  0
 57 60  1  0
 60 61  1  0
 60 62  1  0
 24  3  1  0
 60 25  1  0
 18 10  1  0
 45 36  1  0
 55 46  1  0
M  CHG  2  11  -1  19  -1
M  END
>  <UniqueID>  (75) 
69

>  <SMILES>  (75) 
O=C(/N=c1\[n-]cccc1[O-])c1ccc(N2CCN(Cc3ccccc3-c3ccc(Cl)cc3)CC2)c(O)c1

>  <Energy>  (75) 
99.54269813342827

>  <Genealogy>  (75) 
O=C(N=c1[n-]cccc1[O-])c1ccc(N2CCN(Cc3ccccc3-c3ccc(Cl)cc3)CC2)c(O)c1 (protonated)
O=C(/N=c1\[n-]cccc1[O-])c1ccc(N2CCN(Cc3ccccc3-c3ccc(Cl)cc3)CC2)c(O)c1 (cis-trans isomerization)
O=C(/N=c1\[n-]cccc1[O-])c1ccc(N2CCN(Cc3ccccc3-c3ccc(Cl)cc3)CC2)c(O)c1 (3D coordinates assigned)
O=C(/N=c1\[n-]cccc1[O-])c1ccc(N2CCN(Cc3ccccc3-c3ccc(Cl)cc3)CC2)c(O)c1 (nonaromatic ring conformer: 99.54269813342827 kcal/mol)

>  <smiles>  (75) 
O=C(N=c1[nH]cccc1O)c1ccc(N2CCN(Cc3ccccc3-c3ccc(Cl)cc3)CC2)c(O)c1

>  <score_type>  (75) 
oracle

>  <origin>  (75) 
adg

>  <m_score__min__energy>  (75) 
-14.69

>  <m_primary>  (75) 
energy

$$$$
75:0
     RDKit          3D

 64 68  0  0  0  0  0  0  0  0999 V2000
   54.7690   28.5870   44.5210 H   0  0  0  0  0  0  0  0  0  0  0  0
   54.9890   29.3940   45.0880 O   0  0  0  0  0  0  0  0  0  0  0  0
   55.9260   30.3400   44.7190 N   0  0  0  0  0  0  0  0  0  0  0  0
   56.9540   30.1290   43.9450 C   0  0  0  0  0  0  0  0  0  0  0  0
   57.2020   28.8360   43.2610 C   0  0  0  0  0  0  0  0  0  0  0  0
   56.6040   28.5510   42.1900 O   0  0  0  0  0  0  0  0  0  0  0  0
   58.1610   27.9290   43.8170 N   0  0  0  0  0  0  0  0  0  0  0  0
   57.9250   26.8910   44.7820 C   0  0  0  0  0  0  0  0  0  0  0  0
   57.7800   25.5460   44.3920 C   0  0  0  0  0  0  0  0  0  0  0  0
   57.8364   25.2765   43.3270 H   0  0  0  0  0  0  0  0  0  0  0  0
   57.5650   24.5520   45.3490 C   0  0  0  0  0  0  0  0  0  0  0  0
   57.4339   23.5064   45.0334 H   0  0  0  0  0  0  0  0  0  0  0  0
   57.5160   24.8800   46.7020 C   0  0  0  0  0  0  0  0  0  0  0  0
   57.3400   24.0946   47.4518 H   0  0  0  0  0  0  0  0  0  0  0  0
   57.6900   26.2040   47.1070 C   0  0  0  0  0  0  0  0  0  0  0  0
   57.6588   26.4565   48.1772 H   0  0  0  0  0  0  0  0  0  0  0  0
   57.9050   27.2180   46.1560 C   0  0  0  0  0  0  0  0  0  0  0  0
   58.0480   28.6490   46.6200 C   0  0  0  0  0  0  0  0  0  0  0  0
   58.3829   29.2647   45.7722 H   0  0  0  0  0  0  0  0  0  0  0  0
   57.0689   28.9826   46.9942 H   0  0  0  0  0  0  0  0  0  0  0  0
   59.0630   28.7880   47.7640 C   0  0  0  0  0  0  0  0  0  0  0  0
   59.1951   27.8089   48.2477 H   0  0  0  0  0  0  0  0  0  0  0  0
   60.0153   29.1441   47.3440 H   0  0  0  0  0  0  0  0  0  0  0  0
   58.6050   29.7560   48.7620 N   0  0  0  0  0  0  0  0  0  0  0  0
   58.8470   29.6890   50.0390 C   0  0  0  0  0  0  0  0  0  0  0  0
   57.8420   29.8190   50.9540 N   0  0  0  0  0  0  0  0  0  0  0  0
   58.0700   29.7320   52.2910 C   0  0  0  0  0  0  0  0  0  0  0  0
   57.2353   29.8379   52.9996 H   0  0  0  0  0  0  0  0  0  0  0  0
   59.3650   29.5080   52.7650 C   0  0  0  0  0  0  0  0  0  0  0  0
   59.5565   29.4326   53.8456 H   0  0  0  0  0  0  0  0  0  0  0  0
   60.4130   29.3810   51.8520 C   0  0  0  0  0  0  0  0  0  0  0  0
   61.4385   29.2095   52.2112 H   0  0  0  0  0  0  0  0  0  0  0  0
   60.1580   29.4720   50.4810 C   0  0  0  0  0  0  0  0  0  0  0  0
   60.9793   29.3741   49.7558 H   0  0  0  0  0  0  0  0  0  0  0  0
   57.8990   31.2740   43.6960 C   0  0  0  0  0  0  0  0  0  0  0  0
   58.8376   30.8826   43.2766 H   0  0  0  0  0  0  0  0  0  0  0  0
   57.4276   31.9739   42.9903 H   0  0  0  0  0  0  0  0  0  0  0  0
   58.1980   32.0070   44.9770 C   0  0  0  0  0  0  0  0  0  0  0  0
   59.2630   31.5920   45.7940 C   0  0  0  0  0  0  0  0  0  0  0  0
   59.8878   30.7398   45.4886 H   0  0  0  0  0  0  0  0  0  0  0  0
   59.5320   32.2580   46.9940 C   0  0  0  0  0  0  0  0  0  0  0  0
   60.3852   31.9459   47.6141 H   0  0  0  0  0  0  0  0  0  0  0  0
   58.7210   33.3190   47.4090 C   0  0  0  0  0  0  0  0  0  0  0  0
   59.0580   34.0370   48.6040 N   0  0  0  0  0  0  0  0  0  0  0  0
   59.7880   33.6750   49.6270 C   0  0  0  0  0  0  0  0  0  0  0  0
   59.0980   33.4220   50.8200 C   0  0  0  0  0  0  0  0  0  0  0  0
   58.0326   33.6837   50.9000 H   0  0  0  0  0  0  0  0  0  0  0  0
   59.7500   32.8420   51.9050 C   0  0  0  0  0  0  0  0  0  0  0  0
   59.1903   32.6162   52.8246 H   0  0  0  0  0  0  0  0  0  0  0  0
   61.0720   32.5550   51.8310 N   0  0  0  0  0  0  0  0  0  0  0  0
   61.8120   32.8560   50.7310 C   0  0  0  0  0  0  0  0  0  0  0  0
   63.1870   32.5960   50.7500 C   0  0  0  0  0  0  0  0  0  0  0  0
   63.6328   32.0635   51.6030 H   0  0  0  0  0  0  0  0  0  0  0  0
   63.9930   33.0100   49.6910 C   0  0  0  0  0  0  0  0  0  0  0  0
   65.7200   32.7060   49.7320 Cl  0  0  0  0  0  0  0  0  0  0  0  0
   63.4330   33.7160   48.6260 C   0  0  0  0  0  0  0  0  0  0  0  0
   64.0773   34.0773   47.8109 H   0  0  0  0  0  0  0  0  0  0  0  0
   62.0600   33.9670   48.5880 C   0  0  0  0  0  0  0  0  0  0  0  0
   61.6372   34.5512   47.7574 H   0  0  0  0  0  0  0  0  0  0  0  0
   61.2060   33.4790   49.6050 C   0  0  0  0  0  0  0  0  0  0  0  0
   57.6710   33.7520   46.5830 C   0  0  0  0  0  0  0  0  0  0  0  0
   57.0568   34.6137   46.8834 H   0  0  0  0  0  0  0  0  0  0  0  0
   57.4040   33.0920   45.3810 C   0  0  0  0  0  0  0  0  0  0  0  0
   56.5678   33.4240   44.7482 H   0  0  0  0  0  0  0  0  0  0  0  0
  1  2  1  0
  2  3  1  0
  3  4  2  0
  4  5  1  0
  5  6  2  0
  5  7  1  0
  7  8  1  0
  8  9  2  0
  9 10  1  0
  9 11  1  0
 11 12  1  0
 11 13  2  0
 13 14  1  0
 13 15  1  0
 15 16  1  0
 15 17  2  0
 17 18  1  0
 18 19  1  0
 18 20  1  0
 18 21  1  0
 21 22  1  0
 21 23  1  0
 21 24  1  0
 24 25  2  3
 25 26  1  0
 26 27  1  0
 27 28  1  0
 27 29  2  0
 29 30  1  0
 29 31  1  0
 31 32  1  0
 31 33  2  0
 33 34  1  0
  4 35  1  0
 35 36  1  0
 35 37  1  0
 35 38  1  0
 38 39  2  0
 39 40  1  0
 39 41  1  0
 41 42  1  0
 41 43  2  0
 43 44  1  0
 44 45  2  0
 45 46  1  0
 46 47  1  0
 46 48  2  0
 48 49  1  0
 48 50  1  0
 50 51  1  0
 51 52  2  0
 52 53  1  0
 52 54  1  0
 54 55  1  0
 54 56  2  0
 56 57  1  0
 56 58  1  0
 58 59  1  0
 58 60  2  0
 43 61  1  0
 61 62  1  0
 61 63  2  0
 63 64  1  0
 17  8  1  0
 33 25  1  0
 63 38  1  0
 60 45  1  0
 60 51  1  0
M  CHG  3   7  -1  26  -1  50  -1
M  END
>  <UniqueID>  (76) 
70

>  <SMILES>  (76) 
O=C([N-]c1ccccc1CCN=c1cccc[n-]1)/C(Cc1ccc(/N=c2/cc[n-]c3cc(Cl)ccc23)cc1)=N\O

>  <Energy>  (76) 
96.09909598234628

>  <Genealogy>  (76) 
O=C([N-]c1ccccc1CCN=c1cccc[n-]1)C(Cc1ccc(N=c2cc[n-]c3cc(Cl)ccc23)cc1)=NO (protonated)
O=C([N-]c1ccccc1CCN=c1cccc[n-]1)/C(Cc1ccc(/N=c2/cc[n-]c3cc(Cl)ccc23)cc1)=N\O (cis-trans isomerization)
O=C([N-]c1ccccc1CCN=c1cccc[n-]1)/C(Cc1ccc(/N=c2/cc[n-]c3cc(Cl)ccc23)cc1)=N\O (3D coordinates assigned)
O=C([N-]c1ccccc1CCN=c1cccc[n-]1)/C(Cc1ccc(/N=c2/cc[n-]c3cc(Cl)ccc23)cc1)=N\O (optimized conformer: 96.09909598234628 kcal/mol)

>  <smiles>  (76) 
O=C(Nc1ccccc1CCN=c1cccc[nH]1)C(Cc1ccc(N=c2cc[nH]c3cc(Cl)ccc23)cc1)=NO

>  <score_type>  (76) 
oracle

>  <origin>  (76) 
adg

>  <m_score__min__energy>  (76) 
-14.66

>  <m_primary>  (76) 
energy

$$$$
76:0
     RDKit          3D

 44 47  0  0  0  0  0  0  0  0999 V2000
   57.2960   34.4520   44.7020 O   0  0  0  0  0  0  0  0  0  0  0  0
   57.9430   33.3940   44.9250 C   0  0  0  0  0  0  0  0  0  0  0  0
   57.8880   32.2890   44.0040 N   0  0  0  0  0  0  0  0  0  0  0  0
   57.1080   31.2460   44.0350 C   0  0  0  0  0  0  0  0  0  0  0  0
   56.6360   30.5050   42.9630 C   0  0  0  0  0  0  0  0  0  0  0  0
   55.8720   29.5290   43.5660 C   0  0  0  0  0  0  0  0  0  0  0  0
   55.9110   29.7050   44.8680 O   0  0  0  0  0  0  0  0  0  0  0  0
   56.6460   30.7300   45.1870 N   0  0  0  0  0  0  0  0  0  0  0  0
   58.7600   33.2820   46.1570 C   0  0  0  0  0  0  0  0  0  0  0  0
   58.7640   34.3190   47.1090 C   0  0  0  0  0  0  0  0  0  0  0  0
   59.5290   34.2110   48.2730 C   0  0  0  0  0  0  0  0  0  0  0  0
   60.3010   33.0700   48.5030 C   0  0  0  0  0  0  0  0  0  0  0  0
   61.0410   32.9790   49.6370 F   0  0  0  0  0  0  0  0  0  0  0  0
   60.3070   32.0280   47.5660 C   0  0  0  0  0  0  0  0  0  0  0  0
   61.2930   30.5560   47.8520 S   0  0  0  0  0  0  0  0  0  0  0  0
   60.1180   29.4920   47.0150 C   0  0  0  0  0  0  0  0  0  0  0  0
   60.3000   29.1610   45.6720 C   0  0  0  0  0  0  0  0  0  0  0  0
   59.3790   28.3320   45.0330 C   0  0  0  0  0  0  0  0  0  0  0  0
   58.2700   27.8470   45.7380 C   0  0  0  0  0  0  0  0  0  0  0  0
   57.4280   27.0740   45.1070 N   0  0  0  0  0  0  0  0  0  0  0  0
   56.6100   26.0190   45.6390 C   0  0  0  0  0  0  0  0  0  0  0  0
   55.8880   26.2240   46.6540 O   0  0  0  0  0  0  0  0  0  0  0  0
   56.5350   24.7170   44.9360 C   0  0  0  0  0  0  0  0  0  0  0  0
   57.7010   24.0710   44.4930 C   0  0  0  0  0  0  0  0  0  0  0  0
   57.6170   22.8460   43.8270 C   0  0  0  0  0  0  0  0  0  0  0  0
   56.3630   22.2750   43.6020 C   0  0  0  0  0  0  0  0  0  0  0  0
   56.2680   21.1730   43.0020 O   0  0  0  0  0  0  0  0  0  0  0  0
   55.2420   22.9090   44.0320 N   0  0  0  0  0  0  0  0  0  0  0  0
   55.2970   24.1020   44.6860 C   0  0  0  0  0  0  0  0  0  0  0  0
   58.1270   28.1620   47.0650 N   0  0  0  0  0  0  0  0  0  0  0  0
   59.0190   28.9700   47.7020 C   0  0  0  0  0  0  0  0  0  0  0  0
   59.5440   32.1370   46.3970 C   0  0  0  0  0  0  0  0  0  0  0  0
   56.8253   30.6587   41.8904 H   0  0  0  0  0  0  0  0  0  0  0  0
   55.3203   28.7336   43.0435 H   0  0  0  0  0  0  0  0  0  0  0  0
   58.1599   35.2217   46.9350 H   0  0  0  0  0  0  0  0  0  0  0  0
   59.5233   35.0270   49.0106 H   0  0  0  0  0  0  0  0  0  0  0  0
   61.1668   29.5526   45.1194 H   0  0  0  0  0  0  0  0  0  0  0  0
   59.5230   28.0593   43.9771 H   0  0  0  0  0  0  0  0  0  0  0  0
   58.6839   24.5315   44.6712 H   0  0  0  0  0  0  0  0  0  0  0  0
   58.5294   22.3365   43.4834 H   0  0  0  0  0  0  0  0  0  0  0  0
   54.3677   24.5865   45.0201 H   0  0  0  0  0  0  0  0  0  0  0  0
   57.3580   27.7660   47.6440 H   0  0  0  0  0  0  0  0  0  0  0  0
   58.8733   29.2134   48.7648 H   0  0  0  0  0  0  0  0  0  0  0  0
   59.5571   31.3210   45.6595 H   0  0  0  0  0  0  0  0  0  0  0  0
  1  2  2  0
  2  3  1  0
  3  4  2  3
  4  5  1  0
  5  6  2  0
  6  7  1  0
  7  8  1  0
  2  9  1  0
  9 10  2  0
 10 11  1  0
 11 12  2  0
 12 13  1  0
 12 14  1  0
 14 15  1  0
 15 16  1  0
 16 17  1  0
 17 18  2  0
 18 19  1  0
 19 20  2  3
 20 21  1  0
 21 22  2  0
 21 23  1  0
 23 24  1  0
 24 25  2  0
 25 26  1  0
 26 27  2  0
 26 28  1  0
 28 29  1  0
 19 30  1  0
 30 31  1  0
 14 32  2  0
  8  4  1  0
 32  9  1  0
 31 16  2  0
 29 23  2  0
  5 33  1  0
  6 34  1  0
 10 35  1  0
 11 36  1  0
 17 37  1  0
 18 38  1  0
 24 39  1  0
 25 40  1  0
 29 41  1  0
 30 42  1  0
 31 43  1  0
 32 44  1  0
M  CHG  2   8  -1  28  -1
M  END
>  <UniqueID>  (77) 
71

>  <SMILES>  (77) 
O=C(N=c1cco[n-]1)c1ccc(F)c(Sc2ccc(=NC(=O)c3ccc(=O)[n-]c3)[nH]c2)c1

>  <Energy>  (77) 
89.85594159467045

>  <Genealogy>  (77) 
O=C(N=c1cco[n-]1)c1ccc(F)c(Sc2ccc(=NC(=O)c3ccc(=O)[n-]c3)[nH]c2)c1 (protonated)
O=C(N=c1cco[n-]1)c1ccc(F)c(Sc2ccc(=NC(=O)c3ccc(=O)[n-]c3)[nH]c2)c1 (3D coordinates assigned)
O=C(N=c1cco[n-]1)c1ccc(F)c(Sc2ccc(=NC(=O)c3ccc(=O)[n-]c3)[nH]c2)c1 (optimized conformer: 89.85594159467045 kcal/mol)

>  <smiles>  (77) 
O=C(N=c1ccc(Sc2cc(C(=O)N=c3cco[nH]3)ccc2F)c[nH]1)c1ccc(=O)[nH]c1

>  <score_type>  (77) 
oracle

>  <origin>  (77) 
adg

>  <m_score__min__energy>  (77) 
-14.119999999999999

>  <m_primary>  (77) 
energy

$$$$
77:0
     RDKit          3D

 64 68  0  0  0  0  0  0  0  0999 V2000
   59.9430   34.9510   48.0610 N   0  0  0  0  0  0  0  0  0  0  0  0
   61.1540   34.2100   47.8560 C   0  0  0  0  0  0  0  0  0  0  0  0
   61.7550   34.2150   46.5880 C   0  0  0  0  0  0  0  0  0  0  0  0
   62.9930   33.5950   46.3880 C   0  0  0  0  0  0  0  0  0  0  0  0
   63.6490   32.9790   47.4560 C   0  0  0  0  0  0  0  0  0  0  0  0
   63.0510   32.9520   48.7200 C   0  0  0  0  0  0  0  0  0  0  0  0
   61.7890   33.5290   48.9220 C   0  0  0  0  0  0  0  0  0  0  0  0
   61.1810   33.4140   50.2170 N   0  0  0  0  0  0  0  0  0  0  0  0
   59.7690   33.3380   50.4390 C   0  0  0  0  0  0  0  0  0  0  0  0
   59.1810   34.3230   50.9580 O   0  0  0  0  0  0  0  0  0  0  0  0
   58.9970   32.1470   49.9780 C   0  0  0  0  0  0  0  0  0  0  0  0
   58.1390   31.4720   50.7770 C   0  0  0  0  0  0  0  0  0  0  0  0
   58.5250   30.4500   51.7710 C   0  0  0  0  0  0  0  0  0  0  0  0
   59.8800   30.2460   52.0910 C   0  0  0  0  0  0  0  0  0  0  0  0
   60.2460   29.2520   53.0000 C   0  0  0  0  0  0  0  0  0  0  0  0
   59.2700   28.4370   53.5780 C   0  0  0  0  0  0  0  0  0  0  0  0
   57.9240   28.6130   53.2420 C   0  0  0  0  0  0  0  0  0  0  0  0
   57.5500   29.6120   52.3360 C   0  0  0  0  0  0  0  0  0  0  0  0
   56.2060   29.7700   52.0070 O   0  0  0  0  0  0  0  0  0  0  0  0
   59.1210   31.7120   48.5640 C   0  0  0  0  0  0  0  0  0  0  0  0
   60.0960   30.7680   48.1880 C   0  0  0  0  0  0  0  0  0  0  0  0
   60.2120   30.3670   46.8530 C   0  0  0  0  0  0  0  0  0  0  0  0
   59.3480   30.8850   45.8860 C   0  0  0  0  0  0  0  0  0  0  0  0
   58.3510   31.7950   46.2530 C   0  0  0  0  0  0  0  0  0  0  0  0
   57.4280   32.2670   45.2650 N   0  0  0  0  0  0  0  0  0  0  0  0
   57.3810   31.8180   43.9050 C   0  0  0  0  0  0  0  0  0  0  0  0
   57.9520   32.5080   43.0170 O   0  0  0  0  0  0  0  0  0  0  0  0
   56.8020   30.4720   43.5350 C   0  0  2  0  0  0  0  0  0  0  0  0
   55.3950   30.2700   44.1240 C   0  0  0  0  0  0  0  0  0  0  0  0
   55.5330   29.0990   44.9050 O   0  0  0  0  0  0  0  0  0  0  0  0
   56.8380   28.6510   44.8430 C   0  0  0  0  0  0  0  0  0  0  0  0
   57.3230   27.4390   45.5430 C   0  0  0  0  0  0  0  0  0  0  0  0
   58.7040   27.2050   45.6620 C   0  0  0  0  0  0  0  0  0  0  0  0
   59.1770   26.0410   46.2720 C   0  0  0  0  0  0  0  0  0  0  0  0
   58.2800   25.1080   46.7900 C   0  0  0  0  0  0  0  0  0  0  0  0
   56.8940   25.3310   46.7240 C   0  0  0  0  0  0  0  0  0  0  0  0
   55.9880   24.3750   47.3150 N   0  0  0  0  0  0  0  0  0  0  0  0
   56.3280   23.6910   48.3060 O   0  0  0  0  0  0  0  0  0  0  0  0
   54.7600   24.1330   46.7400 O   0  0  0  0  0  0  0  0  0  0  0  0
   56.4150   26.4960   46.0790 C   0  0  0  0  0  0  0  0  0  0  0  0
   55.0420   26.7110   45.9670 O   0  0  0  0  0  0  0  0  0  0  0  0
   57.5960   29.3900   44.1050 N   0  0  0  0  0  0  0  0  0  0  0  0
   58.2790   32.2500   47.5790 C   0  0  0  0  0  0  0  0  0  0  0  0
   59.3020   35.1740   47.2680 H   0  0  0  0  0  0  0  0  0  0  0  0
   59.6180   35.1880   49.0270 H   0  0  0  0  0  0  0  0  0  0  0  0
   61.2493   34.7097   45.7457 H   0  0  0  0  0  0  0  0  0  0  0  0
   63.4506   33.5927   45.3877 H   0  0  0  0  0  0  0  0  0  0  0  0
   64.6349   32.5156   47.3032 H   0  0  0  0  0  0  0  0  0  0  0  0
   63.5743   32.4748   49.5616 H   0  0  0  0  0  0  0  0  0  0  0  0
   57.0680   31.7028   50.6785 H   0  0  0  0  0  0  0  0  0  0  0  0
   60.6538   30.8723   51.6230 H   0  0  0  0  0  0  0  0  0  0  0  0
   61.3050   29.1103   53.2616 H   0  0  0  0  0  0  0  0  0  0  0  0
   59.5600   27.6569   54.2973 H   0  0  0  0  0  0  0  0  0  0  0  0
   57.1572   27.9646   53.6910 H   0  0  0  0  0  0  0  0  0  0  0  0
   60.7694   30.3441   48.9475 H   0  0  0  0  0  0  0  0  0  0  0  0
   60.9864   29.6412   46.5639 H   0  0  0  0  0  0  0  0  0  0  0  0
   59.4514   30.5773   44.8350 H   0  0  0  0  0  0  0  0  0  0  0  0
   56.7877   30.4533   42.4353 H   0  0  0  0  0  0  0  0  0  0  0  0
   55.1024   31.1274   44.7480 H   0  0  0  0  0  0  0  0  0  0  0  0
   54.6147   30.1835   43.3535 H   0  0  0  0  0  0  0  0  0  0  0  0
   59.4181   27.9449   45.2714 H   0  0  0  0  0  0  0  0  0  0  0  0
   60.2596   25.8601   46.3438 H   0  0  0  0  0  0  0  0  0  0  0  0
   58.6612   24.1872   47.2555 H   0  0  0  0  0  0  0  0  0  0  0  0
   57.5566   33.0347   47.8480 H   0  0  0  0  0  0  0  0  0  0  0  0
  1  2  1  0
  2  3  2  0
  3  4  1  0
  4  5  2  0
  5  6  1  0
  6  7  2  0
  7  8  1  0
  8  9  1  0
  9 10  2  0
  9 11  1  0
 11 12  2  3
 12 13  1  0
 13 14  2  0
 14 15  1  0
 15 16  2  0
 16 17  1  0
 17 18  2  0
 18 19  1  0
 11 20  1  0
 20 21  2  0
 21 22  1  0
 22 23  2  0
 23 24  1  0
 24 25  1  0
 25 26  1  0
 26 27  2  0
 26 28  1  0
 28 29  1  0
 29 30  1  0
 30 31  1  0
 31 32  1  0
 32 33  2  0
 33 34  1  0
 34 35  2  0
 35 36  1  0
 36 37  1  0
 37 38  2  0
 37 39  1  0
 36 40  2  0
 40 41  1  0
 31 42  2  0
 24 43  2  0
  7  2  1  0
 18 13  1  0
 43 20  1  0
 42 28  1  0
 40 32  1  0
  1 44  1  0
  1 45  1  0
  3 46  1  0
  4 47  1  0
  5 48  1  0
  6 49  1  0
 12 50  1  0
 14 51  1  0
 15 52  1  0
 16 53  1  0
 17 54  1  0
 21 55  1  0
 22 56  1  0
 23 57  1  0
 28 58  1  6
 29 59  1  0
 29 60  1  0
 33 61  1  0
 34 62  1  0
 35 63  1  0
 43 64  1  0
M  CHG  6   8  -1  19  -1  25  -1  37   1  39  -1  41  -1
M  END
>  <UniqueID>  (78) 
72

>  <SMILES>  (78) 
Nc1ccccc1[N-]C(=O)C(=Cc1ccccc1[O-])c1cccc([N-]C(=O)[C@@H]2COC(c3cccc([N+](=O)[O-])c3[O-])=N2)c1

>  <Energy>  (78) 
112.32735097550965

>  <Genealogy>  (78) 
Nc1ccccc1[N-]C(=O)C(=Cc1ccccc1[O-])c1cccc([N-]C(=O)C2COC(c3cccc([N+](=O)[O-])c3[O-])=N2)c1 (protonated)
Nc1ccccc1[N-]C(=O)C(=Cc1ccccc1[O-])c1cccc([N-]C(=O)[C@@H]2COC(c3cccc([N+](=O)[O-])c3[O-])=N2)c1 (chirality)
Nc1ccccc1[N-]C(=O)C(=Cc1ccccc1[O-])c1cccc([N-]C(=O)[C@@H]2COC(c3cccc([N+](=O)[O-])c3[O-])=N2)c1 (3D coordinates assigned)
Nc1ccccc1[N-]C(=O)C(=Cc1ccccc1[O-])c1cccc([N-]C(=O)[C@@H]2COC(c3cccc([N+](=O)[O-])c3[O-])=N2)c1 (nonaromatic ring conformer: 112.32735097550965 kcal/mol)

>  <smiles>  (78) 
Nc1ccccc1NC(=O)C(=Cc1ccccc1O)c1cccc(NC(=O)C2COC(c3cccc([N+](=O)[O-])c3O)=N2)c1

>  <score_type>  (78) 
oracle

>  <origin>  (78) 
adg

>  <m_score__min__energy>  (78) 
-18.329999999999998

>  <m_primary>  (78) 
energy

$$$$
78:0
     RDKit          3D

 27 28  0  0  0  0  0  0  0  0999 V2000
   55.1690   29.3950   44.5320 N   0  0  0  0  0  0  0  0  0  0  0  0
   56.8280   29.8440   44.3530 S   0  0  0  0  0  0  0  0  0  0  0  0
   57.0640   31.1650   45.0290 O   0  0  0  0  0  0  0  0  0  0  0  0
   57.1550   29.9880   42.8920 O   0  0  0  0  0  0  0  0  0  0  0  0
   57.8560   28.6080   45.0710 C   0  0  0  0  0  0  0  0  0  0  0  0
   59.2460   28.6560   44.8990 C   0  0  0  0  0  0  0  0  0  0  0  0
   60.0600   27.6870   45.4910 C   0  0  0  0  0  0  0  0  0  0  0  0
   59.4920   26.6680   46.2600 C   0  0  0  0  0  0  0  0  0  0  0  0
   58.1000   26.6070   46.4350 C   0  0  0  0  0  0  0  0  0  0  0  0
   57.4900   25.5410   47.3050 C   0  0  0  0  0  0  0  0  0  0  0  0
   56.5200   24.7630   46.5370 N   0  0  0  0  0  0  0  0  0  0  0  0
   55.3770   25.1950   45.9820 C   0  0  0  0  0  0  0  0  0  0  0  0
   54.9410   26.5150   45.9890 O   0  0  0  0  0  0  0  0  0  0  0  0
   54.7110   24.1300   45.4180 C   0  0  0  0  0  0  0  0  0  0  0  0
   55.4300   23.0060   45.6260 N   0  0  0  0  0  0  0  0  0  0  0  0
   56.5130   23.4320   46.3110 C   0  0  0  0  0  0  0  0  0  0  0  0
   57.4220   22.6550   46.7040 O   0  0  0  0  0  0  0  0  0  0  0  0
   57.2870   27.5880   45.8470 C   0  0  0  0  0  0  0  0  0  0  0  0
   54.6800   30.2040   44.9760 H   0  0  0  0  0  0  0  0  0  0  0  0
   55.1390   28.6100   45.2210 H   0  0  0  0  0  0  0  0  0  0  0  0
   59.6971   29.4583   44.2966 H   0  0  0  0  0  0  0  0  0  0  0  0
   61.1504   27.7264   45.3514 H   0  0  0  0  0  0  0  0  0  0  0  0
   60.1373   25.9111   46.7298 H   0  0  0  0  0  0  0  0  0  0  0  0
   58.2830   24.8733   47.6729 H   0  0  0  0  0  0  0  0  0  0  0  0
   56.9790   26.0173   48.1547 H   0  0  0  0  0  0  0  0  0  0  0  0
   53.7503   24.1857   44.8851 H   0  0  0  0  0  0  0  0  0  0  0  0
   56.1975   27.5567   45.9956 H   0  0  0  0  0  0  0  0  0  0  0  0
  1  2  1  0
  2  3  2  0
  2  4  2  0
  2  5  1  0
  5  6  2  0
  6  7  1  0
  7  8  2  0
  8  9  1  0
  9 10  1  0
 10 11  1  0
 11 12  1  0
 12 13  1  0
 12 14  2  0
 14 15  1  0
 15 16  1  0
 16 17  2  0
  9 18  2  0
 18  5  1  0
 16 11  1  0
  1 19  1  0
  1 20  1  0
  6 21  1  0
  7 22  1  0
  8 23  1  0
 10 24  1  0
 10 25  1  0
 14 26  1  0
 18 27  1  0
M  CHG  2  13  -1  15  -1
M  END
>  <UniqueID>  (79) 
73

>  <SMILES>  (79) 
NS(=O)(=O)c1cccc(Cn2c([O-])c[n-]c2=O)c1

>  <Energy>  (79) 
56.411677021005815

>  <Genealogy>  (79) 
NS(=O)(=O)c1cccc(Cn2c([O-])c[n-]c2=O)c1 (protonated)
NS(=O)(=O)c1cccc(Cn2c([O-])c[n-]c2=O)c1 (3D coordinates assigned)
NS(=O)(=O)c1cccc(Cn2c([O-])c[n-]c2=O)c1 (optimized conformer: 56.411677021005815 kcal/mol)

>  <smiles>  (79) 
NS(=O)(=O)c1cccc(Cn2c(O)c[nH]c2=O)c1

>  <score_type>  (79) 
oracle

>  <origin>  (79) 
adg

>  <m_score__min__energy>  (79) 
-12.84

>  <m_primary>  (79) 
energy

$$$$
79:0
     RDKit          3D

 52 55  0  0  0  0  0  0  0  0999 V2000
   56.6340   32.5350   52.3880 C   0  0  0  0  0  0  0  0  0  0  0  0
   57.4350   31.2480   52.4340 C   0  0  0  0  0  0  0  0  0  0  0  0
   57.2650   30.2990   53.4820 C   0  0  0  0  0  0  0  0  0  0  0  0
   56.1540   30.4260   54.5090 C   0  0  0  0  0  0  0  0  0  0  0  0
   54.8290   30.1980   53.8460 C   0  0  0  0  0  0  0  0  0  0  0  0
   53.7890   30.0530   54.5430 O   0  0  0  0  0  0  0  0  0  0  0  0
   54.7620   30.1260   52.4160 N   0  0  0  0  0  0  0  0  0  0  0  0
   53.6360   30.5070   51.6100 C   0  0  0  0  0  0  0  0  0  0  0  0
   53.2180   29.7370   50.5060 C   0  0  0  0  0  0  0  0  0  0  0  0
   52.0830   30.1090   49.7810 C   0  0  0  0  0  0  0  0  0  0  0  0
   51.3560   31.2440   50.1480 C   0  0  0  0  0  0  0  0  0  0  0  0
   51.7510   32.0000   51.2560 C   0  0  0  0  0  0  0  0  0  0  0  0
   51.0170   33.1180   51.6330 O   0  0  0  0  0  0  0  0  0  0  0  0
   52.8850   31.6280   51.9870 C   0  0  0  0  0  0  0  0  0  0  0  0
   58.0730   29.1400   53.4690 C   0  0  0  0  0  0  0  0  0  0  0  0
   57.9840   28.2850   54.3890 O   0  0  0  0  0  0  0  0  0  0  0  0
   58.9220   28.9150   52.4770 O   0  0  0  0  0  0  0  0  0  0  0  0
   59.0590   29.7320   51.4430 C   0  0  0  0  0  0  0  0  0  0  0  0
   59.9140   29.3650   50.3980 C   0  0  0  0  0  0  0  0  0  0  0  0
   60.0020   30.1500   49.2450 C   0  0  0  0  0  0  0  0  0  0  0  0
   60.7530   29.6740   48.1640 O   0  0  0  0  0  0  0  0  0  0  0  0
   60.2200   29.8060   46.5430 S   0  0  0  0  0  0  0  0  0  0  0  0
   59.7070   31.1970   46.2900 O   0  0  0  0  0  0  0  0  0  0  0  0
   61.3670   29.5320   45.6130 O   0  0  0  0  0  0  0  0  0  0  0  0
   58.9500   28.6130   46.2800 C   0  0  0  0  0  0  0  0  0  0  0  0
   57.8990   28.8640   45.3880 C   0  0  0  0  0  0  0  0  0  0  0  0
   56.8380   27.9600   45.2760 C   0  0  0  0  0  0  0  0  0  0  0  0
   56.8120   26.7910   46.0580 C   0  0  0  0  0  0  0  0  0  0  0  0
   55.6790   25.8450   45.9660 C   0  0  0  0  0  0  0  0  0  0  0  0
   55.8830   24.6040   45.9150 O   0  0  0  0  0  0  0  0  0  0  0  0
   54.3700   26.3150   45.9270 O   0  0  0  0  0  0  0  0  0  0  0  0
   57.8770   26.5380   46.9420 C   0  0  0  0  0  0  0  0  0  0  0  0
   58.9350   27.4460   47.0540 C   0  0  0  0  0  0  0  0  0  0  0  0
   59.3040   31.3660   49.1870 C   0  0  0  0  0  0  0  0  0  0  0  0
   58.4780   31.7590   50.2400 C   0  0  0  0  0  0  0  0  0  0  0  0
   58.3250   30.9380   51.3760 C   0  0  0  0  0  0  0  0  0  0  0  0
   56.4237   32.8729   53.4135 H   0  0  0  0  0  0  0  0  0  0  0  0
   57.2112   33.3074   51.8586 H   0  0  0  0  0  0  0  0  0  0  0  0
   55.6861   32.3582   51.8586 H   0  0  0  0  0  0  0  0  0  0  0  0
   56.3006   29.6774   55.3016 H   0  0  0  0  0  0  0  0  0  0  0  0
   56.1748   31.4347   54.9473 H   0  0  0  0  0  0  0  0  0  0  0  0
   53.7864   28.8415   50.2146 H   0  0  0  0  0  0  0  0  0  0  0  0
   51.7610   29.5065   48.9189 H   0  0  0  0  0  0  0  0  0  0  0  0
   50.4724   31.5431   49.5651 H   0  0  0  0  0  0  0  0  0  0  0  0
   53.1886   32.2196   52.8632 H   0  0  0  0  0  0  0  0  0  0  0  0
   60.5214   28.4520   50.4845 H   0  0  0  0  0  0  0  0  0  0  0  0
   57.9085   29.7761   44.7732 H   0  0  0  0  0  0  0  0  0  0  0  0
   56.0182   28.1644   44.5716 H   0  0  0  0  0  0  0  0  0  0  0  0
   57.8776   25.6205   47.5488 H   0  0  0  0  0  0  0  0  0  0  0  0
   59.7593   27.2425   47.7534 H   0  0  0  0  0  0  0  0  0  0  0  0
   59.4091   32.0141   48.3045 H   0  0  0  0  0  0  0  0  0  0  0  0
   57.9414   32.7176   50.1837 H   0  0  0  0  0  0  0  0  0  0  0  0
  1  2  1  0
  2  3  2  0
  3  4  1  0
  4  5  1  0
  5  6  2  0
  5  7  1  0
  7  8  1  0
  8  9  2  0
  9 10  1  0
 10 11  2  0
 11 12  1  0
 12 13  1  0
 12 14  2  0
  3 15  1  0
 15 16  2  0
 15 17  1  0
 17 18  1  0
 18 19  2  0
 19 20  1  0
 20 21  1  0
 21 22  1  0
 22 23  2  0
 22 24  2  0
 22 25  1  0
 25 26  2  0
 26 27  1  0
 27 28  2  0
 28 29  1  0
 29 30  2  0
 29 31  1  0
 28 32  1  0
 32 33  2  0
 20 34  2  0
 34 35  1  0
 35 36  2  0
 36  2  1  0
 14  8  1  0
 36 18  1  0
 33 25  1  0
  1 37  1  0
  1 38  1  0
  1 39  1  0
  4 40  1  0
  4 41  1  0
  9 42  1  0
 10 43  1  0
 11 44  1  0
 14 45  1  0
 19 46  1  0
 26 47  1  0
 27 48  1  0
 32 49  1  0
 33 50  1  0
 34 51  1  0
 35 52  1  0
M  CHG  3   7  -1  13  -1  31  -1
M  END
>  <UniqueID>  (80) 
74

>  <SMILES>  (80) 
Cc1c(CC(=O)[N-]c2cccc([O-])c2)c(=O)oc2cc(OS(=O)(=O)c3ccc(C(=O)[O-])cc3)ccc12

>  <Energy>  (80) 
71.02864192302452

>  <Genealogy>  (80) 
Cc1c(CC(=O)[N-]c2cccc([O-])c2)c(=O)oc2cc(OS(=O)(=O)c3ccc(C(=O)[O-])cc3)ccc12 (protonated)
Cc1c(CC(=O)[N-]c2cccc([O-])c2)c(=O)oc2cc(OS(=O)(=O)c3ccc(C(=O)[O-])cc3)ccc12 (3D coordinates assigned)
Cc1c(CC(=O)[N-]c2cccc([O-])c2)c(=O)oc2cc(OS(=O)(=O)c3ccc(C(=O)[O-])cc3)ccc12 (optimized conformer: 71.02864192302452 kcal/mol)

>  <smiles>  (80) 
Cc1c(CC(=O)Nc2cccc(O)c2)c(=O)oc2cc(OS(=O)(=O)c3ccc(C(=O)O)cc3)ccc12

>  <score_type>  (80) 
oracle

>  <origin>  (80) 
adg

>  <m_score__min__energy>  (80) 
-18.379999999999999

>  <m_primary>  (80) 
energy

$$$$
80:0
     RDKit          3D

 41 43  0  0  0  0  0  0  0  0999 V2000
   60.7700   27.7910   49.2500 C   0  0  0  0  0  0  0  0  0  0  0  0
   59.6530   28.1170   48.3580 N   0  0  0  0  0  0  0  0  0  0  0  0
   58.6800   29.1510   48.7500 C   0  0  0  0  0  0  0  0  0  0  0  0
   58.7970   30.3550   47.8510 C   0  0  0  0  0  0  0  0  0  0  0  0
   58.3530   30.3000   46.5230 C   0  0  0  0  0  0  0  0  0  0  0  0
   58.4050   31.4390   45.7020 C   0  0  0  0  0  0  0  0  0  0  0  0
   57.8950   31.3820   44.3080 C   0  0  0  0  0  0  0  0  0  0  0  0
   58.2020   32.4020   43.3910 C   0  0  0  0  0  0  0  0  0  0  0  0
   57.7110   32.3300   42.0850 C   0  0  0  0  0  0  0  0  0  0  0  0
   56.9410   31.2790   41.7030 N   0  0  0  0  0  0  0  0  0  0  0  0
   56.6280   30.2750   42.5650 C   0  0  0  0  0  0  0  0  0  0  0  0
   57.0980   30.3070   43.8790 C   0  0  0  0  0  0  0  0  0  0  0  0
   58.9310   32.6330   46.2220 C   0  0  0  0  0  0  0  0  0  0  0  0
   59.4140   32.6930   47.5410 C   0  0  0  0  0  0  0  0  0  0  0  0
   59.9260   33.9930   48.1090 C   0  0  0  0  0  0  0  0  0  0  0  0
   59.2920   35.0470   47.4770 F   0  0  0  0  0  0  0  0  0  0  0  0
   59.6730   34.0650   49.4680 F   0  0  0  0  0  0  0  0  0  0  0  0
   61.2920   34.1080   47.9160 F   0  0  0  0  0  0  0  0  0  0  0  0
   59.3190   31.5540   48.3560 C   0  0  0  0  0  0  0  0  0  0  0  0
   59.4590   27.3030   47.1800 C   0  0  0  0  0  0  0  0  0  0  0  0
   60.4230   27.1260   46.3850 O   0  0  0  0  0  0  0  0  0  0  0  0
   58.1630   26.6680   46.8660 C   0  0  0  0  0  0  0  0  0  0  0  0
   57.9520   25.3030   46.7780 C   0  0  0  0  0  0  0  0  0  0  0  0
   56.6290   25.1350   46.4390 C   0  0  0  0  0  0  0  0  0  0  0  0
   56.1120   26.4060   46.3300 C   0  0  0  0  0  0  0  0  0  0  0  0
   54.7940   26.6960   46.0010 O   0  0  0  0  0  0  0  0  0  0  0  0
   57.0360   27.3510   46.5800 N   0  0  0  0  0  0  0  0  0  0  0  0
   60.4437   27.8862   50.2961 H   0  0  0  0  0  0  0  0  0  0  0  0
   61.1006   26.7589   49.0615 H   0  0  0  0  0  0  0  0  0  0  0  0
   61.6038   28.4833   49.0615 H   0  0  0  0  0  0  0  0  0  0  0  0
   57.6631   28.7389   48.6724 H   0  0  0  0  0  0  0  0  0  0  0  0
   58.8867   29.4592   49.7855 H   0  0  0  0  0  0  0  0  0  0  0  0
   57.9597   29.3554   46.1192 H   0  0  0  0  0  0  0  0  0  0  0  0
   58.8262   33.2533   43.7003 H   0  0  0  0  0  0  0  0  0  0  0  0
   57.9488   33.1266   41.3646 H   0  0  0  0  0  0  0  0  0  0  0  0
   56.0030   29.4357   42.2261 H   0  0  0  0  0  0  0  0  0  0  0  0
   56.8456   29.4941   44.5758 H   0  0  0  0  0  0  0  0  0  0  0  0
   58.9655   33.5323   45.5895 H   0  0  0  0  0  0  0  0  0  0  0  0
   59.6576   31.6028   49.4015 H   0  0  0  0  0  0  0  0  0  0  0  0
   58.6950   24.5094   46.9459 H   0  0  0  0  0  0  0  0  0  0  0  0
   56.0964   24.1846   46.2870 H   0  0  0  0  0  0  0  0  0  0  0  0
  1  2  1  0
  2  3  1  0
  3  4  1  0
  4  5  2  0
  5  6  1  0
  6  7  1  0
  7  8  2  0
  8  9  1  0
  9 10  2  0
 10 11  1  0
 11 12  2  0
  6 13  2  0
 13 14  1  0
 14 15  1  0
 15 16  1  0
 15 17  1  0
 15 18  1  0
 14 19  2  0
  2 20  1  0
 20 21  2  0
 20 22  1  0
 22 23  2  0
 23 24  1  0
 24 25  2  0
 25 26  1  0
 25 27  1  0
 19  4  1  0
 27 22  1  0
 12  7  1  0
  1 28  1  0
  1 29  1  0
  1 30  1  0
  3 31  1  0
  3 32  1  0
  5 33  1  0
  8 34  1  0
  9 35  1  0
 11 36  1  0
 12 37  1  0
 13 38  1  0
 19 39  1  0
 23 40  1  0
 24 41  1  0
M  CHG  2  26  -1  27  -1
M  END
>  <UniqueID>  (81) 
75

>  <SMILES>  (81) 
CN(Cc1cc(-c2ccncc2)cc(C(F)(F)F)c1)C(=O)c1ccc([O-])[n-]1

>  <Energy>  (81) 
73.6584837698925

>  <Genealogy>  (81) 
CN(Cc1cc(-c2ccncc2)cc(C(F)(F)F)c1)C(=O)c1ccc([O-])[n-]1 (protonated)
CN(Cc1cc(-c2ccncc2)cc(C(F)(F)F)c1)C(=O)c1ccc([O-])[n-]1 (3D coordinates assigned)
CN(Cc1cc(-c2ccncc2)cc(C(F)(F)F)c1)C(=O)c1ccc([O-])[n-]1 (optimized conformer: 73.6584837698925 kcal/mol)

>  <smiles>  (81) 
CN(Cc1cc(-c2ccncc2)cc(C(F)(F)F)c1)C(=O)c1ccc(O)[nH]1

>  <score_type>  (81) 
oracle

>  <origin>  (81) 
adg

>  <m_score__min__energy>  (81) 
-13.220000000000001

>  <m_primary>  (81) 
energy

$$$$
81:0
     RDKit          3D

 48 50  0  0  0  0  0  0  0  0999 V2000
   55.9150   29.7110   43.9120 C   0  0  0  0  0  0  0  0  0  0  0  0
   57.2840   29.5620   44.5050 C   0  0  0  0  0  0  0  0  0  0  0  0
   58.2610   30.5520   44.6470 C   0  0  0  0  0  0  0  0  0  0  0  0
   58.1470   31.9640   44.2270 C   0  0  0  0  0  0  0  0  0  0  0  0
   57.8290   32.2320   43.0360 O   0  0  0  0  0  0  0  0  0  0  0  0
   58.4360   33.0380   45.1400 N   0  0  0  0  0  0  0  0  0  0  0  0
   59.0880   34.2510   44.6260 C   0  0  0  0  0  0  0  0  0  0  0  0
   59.3720   35.2610   45.7450 C   0  0  0  0  0  0  0  0  0  0  0  0
   59.9220   34.5400   46.9780 C   0  0  0  0  0  0  0  0  0  0  0  0
   58.9390   33.4860   47.5290 C   0  0  0  0  0  0  0  0  0  0  0  0
   57.8870   33.0280   46.5040 C   0  0  0  0  0  0  0  0  0  0  0  0
   59.3880   30.0270   45.1850 N   0  0  0  0  0  0  0  0  0  0  0  0
   59.1360   28.7210   45.3760 C   0  0  0  0  0  0  0  0  0  0  0  0
   60.0040   27.7660   45.8990 C   0  0  0  0  0  0  0  0  0  0  0  0
   59.5450   26.4410   45.9980 C   0  0  0  0  0  0  0  0  0  0  0  0
   58.2410   26.0910   45.5590 C   0  0  0  0  0  0  0  0  0  0  0  0
   57.7520   24.7430   45.6740 N   0  0  0  0  0  0  0  0  0  0  0  0
   57.3760   23.9240   44.5560 C   0  0  0  0  0  0  0  0  0  0  0  0
   57.2550   24.4240   43.4040 O   0  0  0  0  0  0  0  0  0  0  0  0
   57.1190   22.4610   44.7520 C   0  0  0  0  0  0  0  0  0  0  0  0
   56.9110   21.7700   43.4050 C   0  0  0  0  0  0  0  0  0  0  0  0
   55.9150   22.4910   42.6180 N   0  0  0  0  0  0  0  0  0  0  0  0
   57.3860   27.0910   45.0500 C   0  0  0  0  0  0  0  0  0  0  0  0
   57.8690   28.3980   44.9690 C   0  0  0  0  0  0  0  0  0  0  0  0
   55.1724   29.7918   44.7195 H   0  0  0  0  0  0  0  0  0  0  0  0
   55.8813   30.6181   43.2907 H   0  0  0  0  0  0  0  0  0  0  0  0
   55.6869   28.8324   43.2907 H   0  0  0  0  0  0  0  0  0  0  0  0
   60.0390   33.9699   44.1499 H   0  0  0  0  0  0  0  0  0  0  0  0
   58.4088   34.7243   43.9016 H   0  0  0  0  0  0  0  0  0  0  0  0
   60.1115   35.9954   45.3931 H   0  0  0  0  0  0  0  0  0  0  0  0
   58.4359   35.7718   46.0147 H   0  0  0  0  0  0  0  0  0  0  0  0
   60.8616   34.0379   46.7040 H   0  0  0  0  0  0  0  0  0  0  0  0
   60.0822   35.2930   47.7637 H   0  0  0  0  0  0  0  0  0  0  0  0
   59.5165   32.6068   47.8508 H   0  0  0  0  0  0  0  0  0  0  0  0
   58.3946   33.9570   48.3607 H   0  0  0  0  0  0  0  0  0  0  0  0
   57.5635   32.0066   46.7534 H   0  0  0  0  0  0  0  0  0  0  0  0
   57.0360   33.7239   46.5427 H   0  0  0  0  0  0  0  0  0  0  0  0
   60.2880   30.5220   45.3770 H   0  0  0  0  0  0  0  0  0  0  0  0
   61.0182   28.0401   46.2248 H   0  0  0  0  0  0  0  0  0  0  0  0
   60.2031   25.6672   46.4201 H   0  0  0  0  0  0  0  0  0  0  0  0
   57.5860   24.3630   46.6330 H   0  0  0  0  0  0  0  0  0  0  0  0
   57.9811   22.0071   45.2626 H   0  0  0  0  0  0  0  0  0  0  0  0
   56.2106   22.3372   45.3598 H   0  0  0  0  0  0  0  0  0  0  0  0
   57.8637   21.7504   42.8556 H   0  0  0  0  0  0  0  0  0  0  0  0
   56.5570   20.7431   43.5788 H   0  0  0  0  0  0  0  0  0  0  0  0
   56.4220   23.0390   41.8870 H   0  0  0  0  0  0  0  0  0  0  0  0
   55.4480   23.1890   43.2420 H   0  0  0  0  0  0  0  0  0  0  0  0
   56.3639   26.8467   44.7250 H   0  0  0  0  0  0  0  0  0  0  0  0
  1  2  1  0
  2  3  2  0
  3  4  1  0
  4  5  2  0
  4  6  1  0
  6  7  1  0
  7  8  1  0
  8  9  1  0
  9 10  1  0
 10 11  1  0
  3 12  1  0
 12 13  1  0
 13 14  2  0
 14 15  1  0
 15 16  2  0
 16 17  1  0
 17 18  1  0
 18 19  2  0
 18 20  1  0
 20 21  1  0
 21 22  1  0
 16 23  1  0
 23 24  2  0
 24  2  1  0
 11  6  1  0
 24 13  1  0
  1 25  1  0
  1 26  1  0
  1 27  1  0
  7 28  1  0
  7 29  1  0
  8 30  1  0
  8 31  1  0
  9 32  1  0
  9 33  1  0
 10 34  1  0
 10 35  1  0
 11 36  1  0
 11 37  1  0
 12 38  1  0
 14 39  1  0
 15 40  1  0
 17 41  1  0
 20 42  1  0
 20 43  1  0
 21 44  1  0
 21 45  1  0
 22 46  1  0
 22 47  1  0
 23 48  1  0
M  END
>  <UniqueID>  (82) 
76

>  <SMILES>  (82) 
Cc1c(C(=O)N2CCCCC2)[nH]c2ccc(NC(=O)CCN)cc12

>  <Energy>  (82) 
83.59995707773103

>  <Genealogy>  (82) 
Cc1c(C(=O)N2CCCCC2)[nH]c2ccc(NC(=O)CCN)cc12 (3D coordinates assigned)
Cc1c(C(=O)N2CCCCC2)[nH]c2ccc(NC(=O)CCN)cc12 (nonaromatic ring conformer: 83.59995707773103 kcal/mol)

>  <smiles>  (82) 
Cc1c(C(=O)N2CCCCC2)[nH]c2ccc(NC(=O)CCN)cc12

>  <score_type>  (82) 
oracle

>  <origin>  (82) 
adg

>  <m_score__min__energy>  (82) 
-8.8000000000000007

>  <m_primary>  (82) 
energy

$$$$
82:0
     RDKit          3D

 49 51  0  0  0  0  0  0  0  0999 V2000
   59.7730   27.7400   48.2840 C   0  0  0  0  0  0  0  0  0  0  0  0
   59.4520   28.8640   47.4160 N   0  0  0  0  0  0  0  0  0  0  0  0
   59.8250   30.1480   47.5920 C   0  0  0  0  0  0  0  0  0  0  0  0
   59.2930   30.9530   46.6530 N   0  0  0  0  0  0  0  0  0  0  0  0
   58.5540   30.1430   45.8720 C   0  0  0  0  0  0  0  0  0  0  0  0
   57.6310   30.6750   44.4770 S   0  0  0  0  0  0  0  0  0  0  0  0
   57.7200   29.6290   43.4020 O   0  0  0  0  0  0  0  0  0  0  0  0
   56.1880   30.8420   44.8660 O   0  0  0  0  0  0  0  0  0  0  0  0
   58.2730   32.1760   43.8730 N   0  0  0  0  0  0  0  0  0  0  0  0
   57.4240   33.3080   44.2540 C   0  0  0  0  0  0  0  0  0  0  0  0
   57.4670   33.5120   45.7740 C   0  0  0  0  0  0  0  0  0  0  0  0
   58.5390   34.5480   46.2020 C   0  0  0  0  0  0  0  0  0  0  0  0
   59.6490   34.0020   47.0160 N   0  0  0  0  0  0  0  0  0  0  0  0
   60.9690   34.1420   46.3800 C   0  0  0  0  0  0  0  0  0  0  0  0
   61.9990   33.3080   47.1430 C   0  0  0  0  0  0  0  0  0  0  0  0
   61.9610   33.6310   48.5770 N   0  0  0  0  0  0  0  0  0  0  0  0
   63.1760   33.5360   49.3500 C   0  0  0  0  0  0  0  0  0  0  0  0
   64.2400   32.7080   48.9440 C   0  0  0  0  0  0  0  0  0  0  0  0
   65.4020   32.6520   49.7180 C   0  0  0  0  0  0  0  0  0  0  0  0
   65.5020   33.4160   50.8820 C   0  0  0  0  0  0  0  0  0  0  0  0
   66.9550   33.3540   51.8620 Cl  0  0  0  0  0  0  0  0  0  0  0  0
   64.4300   34.2280   51.2560 C   0  0  0  0  0  0  0  0  0  0  0  0
   63.3080   34.2700   50.4900 N   0  0  0  0  0  0  0  0  0  0  0  0
   60.6500   33.7020   49.2400 C   0  0  0  0  0  0  0  0  0  0  0  0
   59.6680   34.5180   48.3970 C   0  0  0  0  0  0  0  0  0  0  0  0
   58.6420   28.8520   46.3410 C   0  0  0  0  0  0  0  0  0  0  0  0
   59.6841   28.0514   49.3352 H   0  0  0  0  0  0  0  0  0  0  0  0
   59.0751   26.9130   48.0863 H   0  0  0  0  0  0  0  0  0  0  0  0
   60.8023   27.4063   48.0863 H   0  0  0  0  0  0  0  0  0  0  0  0
   60.4827   30.4948   48.4027 H   0  0  0  0  0  0  0  0  0  0  0  0
   59.4230   31.9850   46.5580 H   0  0  0  0  0  0  0  0  0  0  0  0
   57.7862   34.2186   43.7544 H   0  0  0  0  0  0  0  0  0  0  0  0
   56.3881   33.0997   43.9481 H   0  0  0  0  0  0  0  0  0  0  0  0
   56.4810   33.8643   46.1111 H   0  0  0  0  0  0  0  0  0  0  0  0
   57.7299   32.5481   46.2342 H   0  0  0  0  0  0  0  0  0  0  0  0
   58.9693   34.9895   45.2910 H   0  0  0  0  0  0  0  0  0  0  0  0
   58.0214   35.2793   46.8402 H   0  0  0  0  0  0  0  0  0  0  0  0
   60.9126   33.7908   45.3391 H   0  0  0  0  0  0  0  0  0  0  0  0
   61.2715   35.1995   46.3968 H   0  0  0  0  0  0  0  0  0  0  0  0
   61.7735   32.2401   47.0061 H   0  0  0  0  0  0  0  0  0  0  0  0
   63.0018   33.5362   46.7528 H   0  0  0  0  0  0  0  0  0  0  0  0
   64.1571   32.1098   48.0246 H   0  0  0  0  0  0  0  0  0  0  0  0
   66.2376   32.0062   49.4102 H   0  0  0  0  0  0  0  0  0  0  0  0
   64.4933   34.8345   52.1715 H   0  0  0  0  0  0  0  0  0  0  0  0
   60.2551   32.6838   49.3718 H   0  0  0  0  0  0  0  0  0  0  0  0
   60.7714   34.1906   50.2181 H   0  0  0  0  0  0  0  0  0  0  0  0
   58.6602   34.4385   48.8307 H   0  0  0  0  0  0  0  0  0  0  0  0
   59.9846   35.5714   48.3875 H   0  0  0  0  0  0  0  0  0  0  0  0
   58.1412   27.9703   45.9146 H   0  0  0  0  0  0  0  0  0  0  0  0
  1  2  1  0
  2  3  1  0
  3  4  2  0
  4  5  1  0
  5  6  1  0
  6  7  2  0
  6  8  2  0
  6  9  1  0
  9 10  1  0
 10 11  1  0
 11 12  1  0
 12 13  1  0
 13 14  1  0
 14 15  1  0
 15 16  1  0
 16 17  1  0
 17 18  2  0
 18 19  1  0
 19 20  2  0
 20 21  1  0
 20 22  1  0
 22 23  2  0
 16 24  1  0
 24 25  1  0
  5 26  2  0
 26  2  1  0
 25 13  1  0
 23 17  1  0
  1 27  1  0
  1 28  1  0
  1 29  1  0
  3 30  1  0
  4 31  1  0
 10 32  1  0
 10 33  1  0
 11 34  1  0
 11 35  1  0
 12 36  1  0
 12 37  1  0
 14 38  1  0
 14 39  1  0
 15 40  1  0
 15 41  1  0
 18 42  1  0
 19 43  1  0
 22 44  1  0
 24 45  1  0
 24 46  1  0
 25 47  1  0
 25 48  1  0
 26 49  1  0
M  CHG  2   4   1   9  -1
M  END
>  <UniqueID>  (83) 
77

>  <SMILES>  (83) 
Cn1c[nH+]c(S(=O)(=O)[N-]CCCN2CCN(c3ccc(Cl)cn3)CC2)c1

>  <Energy>  (83) 
85.32660473154637

>  <Genealogy>  (83) 
Cn1c[nH+]c(S(=O)(=O)[N-]CCCN2CCN(c3ccc(Cl)cn3)CC2)c1 (protonated)
Cn1c[nH+]c(S(=O)(=O)[N-]CCCN2CCN(c3ccc(Cl)cn3)CC2)c1 (3D coordinates assigned)
Cn1c[nH+]c(S(=O)(=O)[N-]CCCN2CCN(c3ccc(Cl)cn3)CC2)c1 (nonaromatic ring conformer: 85.32660473154637 kcal/mol)

>  <smiles>  (83) 
Cn1cnc(S(=O)(=O)NCCCN2CCN(c3ccc(Cl)cn3)CC2)c1

>  <score_type>  (83) 
oracle

>  <origin>  (83) 
adg

>  <m_score__min__energy>  (83) 
-8.3699999999999992

>  <m_primary>  (83) 
energy

$$$$
83:0
     RDKit          3D

 27 28  0  0  1  0  0  0  0  0999 V2000
   55.6400   26.3310   46.0950 N   0  0  0  0  0  0  0  0  0  0  0  0
   56.5660   27.1790   45.7320 C   0  0  0  0  0  0  0  0  0  0  0  0
   57.8670   26.8450   45.8010 N   0  0  0  0  0  0  0  0  0  0  0  0
   58.7580   27.7740   45.4090 C   0  0  0  0  0  0  0  0  0  0  0  0
   58.3990   29.0230   44.9500 C   0  0  0  0  0  0  0  0  0  0  0  0
   57.0700   29.3230   44.8930 C   0  0  0  0  0  0  0  0  0  0  0  0
   56.5800   30.4410   44.4910 N   0  0  0  0  0  0  0  0  0  0  0  0
   57.4070   31.3820   43.8100 C   0  0  0  0  0  0  0  0  0  0  0  0
   57.9160   32.4620   44.7150 C   0  0  0  0  0  0  0  0  0  0  0  0
   58.5600   33.5900   44.2160 C   0  0  0  0  0  0  0  0  0  0  0  0
   59.0370   34.5950   45.0280 C   0  0  0  0  0  0  0  0  0  0  0  0
   58.8880   34.5140   46.3900 C   0  0  0  0  0  0  0  0  0  0  0  0
   58.2560   33.4140   46.9230 C   0  0  0  0  0  0  0  0  0  0  0  0
   57.7790   32.4040   46.0870 C   0  0  0  0  0  0  0  0  0  0  0  0
   56.1810   28.3840   45.2900 N   0  0  0  0  0  0  0  0  0  0  0  0
   55.1520   26.4190   47.0120 H   0  0  0  0  0  0  0  0  0  0  0  0
   58.1760   25.8900   46.1510 H   0  0  0  0  0  0  0  0  0  0  0  0
   59.8281   27.5237   45.4574 H   0  0  0  0  0  0  0  0  0  0  0  0
   59.1599   29.7542   44.6397 H   0  0  0  0  0  0  0  0  0  0  0  0
   58.2673   30.8484   43.3796 H   0  0  0  0  0  0  0  0  0  0  0  0
   56.7955   31.8606   43.0309 H   0  0  0  0  0  0  0  0  0  0  0  0
   58.6937   33.6829   43.1281 H   0  0  0  0  0  0  0  0  0  0  0  0
   59.5396   35.4664   44.5830 H   0  0  0  0  0  0  0  0  0  0  0  0
   59.2668   35.3137   47.0435 H   0  0  0  0  0  0  0  0  0  0  0  0
   58.1264   33.3307   48.0122 H   0  0  0  0  0  0  0  0  0  0  0  0
   57.2778   31.5337   46.5358 H   0  0  0  0  0  0  0  0  0  0  0  0
   55.1440   28.5930   45.2570 H   0  0  0  0  0  0  0  0  0  0  0  0
  1  2  2  3
  2  3  1  0
  3  4  1  0
  4  5  2  0
  5  6  1  0
  6  7  2  0
  7  8  1  0
  8  9  1  0
  9 10  2  0
 10 11  1  0
 11 12  2  0
 12 13  1  0
 13 14  2  0
  6 15  1  0
 15  2  1  0
 14  9  1  0
  1 16  1  0
  3 17  1  0
  4 18  1  0
  5 19  1  0
  8 20  1  0
  8 21  1  0
 10 22  1  0
 11 23  1  0
 12 24  1  0
 13 25  1  0
 14 26  1  0
 15 27  1  0
M  END
>  <smiles>  (84) 
N=c1[nH]ccc(=NCc2ccccc2)[nH]1

>  <score_type>  (84) 
oracle

>  <origin>  (84) 
adg

>  <m_score__min__energy>  (84) 
-6.9299999999999997

>  <m_primary>  (84) 
energy

$$$$
84:0
     RDKit          3D

 52 54  0  0  0  0  0  0  0  0999 V2000
   54.7730   23.9720   44.3760 C   0  0  0  0  0  0  0  0  0  0  0  0
   54.7730   24.7360   45.6570 C   0  0  0  0  0  0  0  0  0  0  0  0
   54.5970   25.9870   45.6470 O   0  0  0  0  0  0  0  0  0  0  0  0
   55.0030   24.0450   46.8890 N   0  0  0  0  0  0  0  0  0  0  0  0
   56.2680   24.0890   47.6140 C   0  0  0  0  0  0  0  0  0  0  0  0
   57.4130   23.7020   46.7270 C   0  0  0  0  0  0  0  0  0  0  0  0
   57.4940   22.2830   45.8250 S   0  0  0  0  0  0  0  0  0  0  0  0
   58.9450   22.7120   45.0910 C   0  0  0  0  0  0  0  0  0  0  0  0
   59.7020   21.8540   44.1340 C   0  0  0  0  0  0  0  0  0  0  0  0
   59.3850   23.9180   45.5170 N   0  0  0  0  0  0  0  0  0  0  0  0
   58.5320   24.4750   46.4230 C   0  0  0  0  0  0  0  0  0  0  0  0
   58.7390   25.7410   46.9840 O   0  0  0  0  0  0  0  0  0  0  0  0
   58.4130   26.9630   46.3730 C   0  0  0  0  0  0  0  0  0  0  0  0
   57.6260   27.0210   45.2100 C   0  0  0  0  0  0  0  0  0  0  0  0
   57.3210   28.2510   44.6240 C   0  0  0  0  0  0  0  0  0  0  0  0
   57.8120   29.4390   45.1750 C   0  0  0  0  0  0  0  0  0  0  0  0
   57.4190   30.9910   44.4300 S   0  0  0  0  0  0  0  0  0  0  0  0
   57.7250   30.9230   42.9590 O   0  0  0  0  0  0  0  0  0  0  0  0
   55.9470   31.2560   44.5860 O   0  0  0  0  0  0  0  0  0  0  0  0
   58.3130   32.3040   45.1600 N   0  0  0  0  0  0  0  0  0  0  0  0
   58.2240   33.5130   44.3230 C   0  0  0  0  0  0  0  0  0  0  0  0
   59.1970   34.5970   44.8330 C   0  0  0  0  0  0  0  0  0  0  0  0
   59.5830   34.3910   46.3070 C   0  0  0  0  0  0  0  0  0  0  0  0
   58.3930   33.8730   47.1210 C   0  0  0  0  0  0  0  0  0  0  0  0
   57.8080   32.5700   46.5250 C   0  0  0  0  0  0  0  0  0  0  0  0
   58.6180   29.3870   46.3160 C   0  0  0  0  0  0  0  0  0  0  0  0
   58.9290   28.1550   46.9160 C   0  0  0  0  0  0  0  0  0  0  0  0
   59.7800   28.1140   48.1530 C   0  0  0  0  0  0  0  0  0  0  0  0
   55.8101   23.7842   44.0611 H   0  0  0  0  0  0  0  0  0  0  0  0
   54.2545   23.0128   44.5211 H   0  0  0  0  0  0  0  0  0  0  0  0
   54.2545   24.5556   43.6010 H   0  0  0  0  0  0  0  0  0  0  0  0
   56.4325   25.1105   47.9876 H   0  0  0  0  0  0  0  0  0  0  0  0
   56.2167   23.3750   48.4492 H   0  0  0  0  0  0  0  0  0  0  0  0
   60.3283   21.1442   44.6943 H   0  0  0  0  0  0  0  0  0  0  0  0
   58.9945   21.2984   43.5010 H   0  0  0  0  0  0  0  0  0  0  0  0
   60.3415   22.4868   43.5010 H   0  0  0  0  0  0  0  0  0  0  0  0
   57.2481   26.0917   44.7587 H   0  0  0  0  0  0  0  0  0  0  0  0
   56.6905   28.2859   43.7233 H   0  0  0  0  0  0  0  0  0  0  0  0
   58.4818   33.2546   43.2853 H   0  0  0  0  0  0  0  0  0  0  0  0
   57.1974   33.9050   44.3726 H   0  0  0  0  0  0  0  0  0  0  0  0
   60.1106   34.5678   44.2211 H   0  0  0  0  0  0  0  0  0  0  0  0
   58.6887   35.5691   44.7520 H   0  0  0  0  0  0  0  0  0  0  0  0
   60.4033   33.6604   46.3649 H   0  0  0  0  0  0  0  0  0  0  0  0
   59.8974   35.3589   46.7246 H   0  0  0  0  0  0  0  0  0  0  0  0
   58.7260   33.6748   48.1505 H   0  0  0  0  0  0  0  0  0  0  0  0
   57.6056   34.6408   47.0991 H   0  0  0  0  0  0  0  0  0  0  0  0
   58.0848   31.7273   47.1756 H   0  0  0  0  0  0  0  0  0  0  0  0
   56.7159   32.6869   46.4643 H   0  0  0  0  0  0  0  0  0  0  0  0
   59.0122   30.3187   46.7479 H   0  0  0  0  0  0  0  0  0  0  0  0
   59.1346   28.1451   49.0432 H   0  0  0  0  0  0  0  0  0  0  0  0
   60.3711   27.1863   48.1608 H   0  0  0  0  0  0  0  0  0  0  0  0
   60.4575   28.9805   48.1608 H   0  0  0  0  0  0  0  0  0  0  0  0
  1  2  1  0
  2  3  2  0
  2  4  1  0
  4  5  1  0
  5  6  1  0
  6  7  1  0
  7  8  1  0
  8  9  1  0
  8 10  2  0
 10 11  1  0
 11 12  1  0
 12 13  1  0
 13 14  2  0
 14 15  1  0
 15 16  2  0
 16 17  1  0
 17 18  2  0
 17 19  2  0
 17 20  1  0
 20 21  1  0
 21 22  1  0
 22 23  1  0
 23 24  1  0
 24 25  1  0
 16 26  1  0
 26 27  2  0
 27 28  1  0
 11  6  2  0
 27 13  1  0
 25 20  1  0
  1 29  1  0
  1 30  1  0
  1 31  1  0
  5 32  1  0
  5 33  1  0
  9 34  1  0
  9 35  1  0
  9 36  1  0
 14 37  1  0
 15 38  1  0
 21 39  1  0
 21 40  1  0
 22 41  1  0
 22 42  1  0
 23 43  1  0
 23 44  1  0
 24 45  1  0
 24 46  1  0
 25 47  1  0
 25 48  1  0
 26 49  1  0
 28 50  1  0
 28 51  1  0
 28 52  1  0
M  CHG  1   4  -1
M  END
>  <UniqueID>  (85) 
78

>  <SMILES>  (85) 
CC(=O)[N-]Cc1sc(C)nc1Oc1ccc(S(=O)(=O)N2CCCCC2)cc1C

>  <Energy>  (85) 
82.11776054652913

>  <Genealogy>  (85) 
CC(=O)[N-]Cc1sc(C)nc1Oc1ccc(S(=O)(=O)N2CCCCC2)cc1C (protonated)
CC(=O)[N-]Cc1sc(C)nc1Oc1ccc(S(=O)(=O)N2CCCCC2)cc1C (3D coordinates assigned)
CC(=O)[N-]Cc1sc(C)nc1Oc1ccc(S(=O)(=O)N2CCCCC2)cc1C (nonaromatic ring conformer: 82.11776054652913 kcal/mol)

>  <smiles>  (85) 
CC(=O)NCc1sc(C)nc1Oc1ccc(S(=O)(=O)N2CCCCC2)cc1C

>  <score_type>  (85) 
oracle

>  <origin>  (85) 
adg

>  <m_score__min__energy>  (85) 
-11.449999999999999

>  <m_primary>  (85) 
energy

$$$$
85:0
     RDKit          3D

 51 53  0  0  0  0  0  0  0  0999 V2000
   57.3870   33.4670   46.6220 C   0  0  0  0  0  0  0  0  0  0  0  0
   57.4000   32.7560   45.3110 C   0  0  0  0  0  0  0  0  0  0  0  0
   57.8770   33.2680   44.1180 C   0  0  0  0  0  0  0  0  0  0  0  0
   57.7430   32.2230   43.2270 C   0  0  0  0  0  0  0  0  0  0  0  0
   58.1450   32.2510   41.7850 C   0  0  0  0  0  0  0  0  0  0  0  0
   57.2360   31.1530   43.8800 N   0  0  0  0  0  0  0  0  0  0  0  0
   56.9320   29.8340   43.3260 C   0  0  0  0  0  0  0  0  0  0  0  0
   57.3730   28.6970   44.2700 C   0  0  0  0  0  0  0  0  0  0  0  0
   58.8480   28.4770   44.2850 N   0  0  0  0  0  0  0  0  0  0  0  0
   59.2380   27.4340   45.2600 C   0  0  0  0  0  0  0  0  0  0  0  0
   59.0270   27.8890   46.7090 C   0  0  0  0  0  0  0  0  0  0  0  0
   59.6890   29.1760   46.9470 N   0  0  0  0  0  0  0  0  0  0  0  0
   60.2120   29.4660   48.2610 C   0  0  0  0  0  0  0  0  0  0  0  0
   60.7200   28.5350   48.9460 O   0  0  0  0  0  0  0  0  0  0  0  0
   60.2210   30.8700   48.8150 C   0  0  0  0  0  0  0  0  0  0  0  0
   61.2010   31.7470   48.0790 C   0  0  0  0  0  0  0  0  0  0  0  0
   60.7580   32.9170   47.4390 C   0  0  0  0  0  0  0  0  0  0  0  0
   61.6700   33.7450   46.7770 C   0  0  0  0  0  0  0  0  0  0  0  0
   63.0290   33.4160   46.7560 C   0  0  0  0  0  0  0  0  0  0  0  0
   63.4780   32.2590   47.4010 C   0  0  0  0  0  0  0  0  0  0  0  0
   62.5690   31.4290   48.0650 C   0  0  0  0  0  0  0  0  0  0  0  0
   59.5040   30.2480   45.9600 C   0  0  0  0  0  0  0  0  0  0  0  0
   59.6370   29.7100   44.5250 C   0  0  0  0  0  0  0  0  0  0  0  0
   57.0250   31.4720   45.1490 N   0  0  0  0  0  0  0  0  0  0  0  0
   57.4005   32.7303   47.4388 H   0  0  0  0  0  0  0  0  0  0  0  0
   58.2735   34.1139   46.6971 H   0  0  0  0  0  0  0  0  0  0  0  0
   56.4775   34.0811   46.6971 H   0  0  0  0  0  0  0  0  0  0  0  0
   58.2722   34.2761   43.9241 H   0  0  0  0  0  0  0  0  0  0  0  0
   59.2399   32.3273   41.7110 H   0  0  0  0  0  0  0  0  0  0  0  0
   57.8076   31.3272   41.2923 H   0  0  0  0  0  0  0  0  0  0  0  0
   57.6828   33.1191   41.2923 H   0  0  0  0  0  0  0  0  0  0  0  0
   55.8469   29.7589   43.1618 H   0  0  0  0  0  0  0  0  0  0  0  0
   57.4850   29.7259   42.3813 H   0  0  0  0  0  0  0  0  0  0  0  0
   57.0473   28.9455   45.2909 H   0  0  0  0  0  0  0  0  0  0  0  0
   56.9106   27.7702   43.8996 H   0  0  0  0  0  0  0  0  0  0  0  0
   59.1340   28.1110   43.3450 H   0  0  0  0  0  0  0  0  0  0  0  0
   58.6309   26.5348   45.0789 H   0  0  0  0  0  0  0  0  0  0  0  0
   60.3097   27.2271   45.1232 H   0  0  0  0  0  0  0  0  0  0  0  0
   57.9492   27.9958   46.9012 H   0  0  0  0  0  0  0  0  0  0  0  0
   59.4609   27.1366   47.3840 H   0  0  0  0  0  0  0  0  0  0  0  0
   59.2131   31.2996   48.7170 H   0  0  0  0  0  0  0  0  0  0  0  0
   60.5251   30.8228   49.8711 H   0  0  0  0  0  0  0  0  0  0  0  0
   59.6907   33.1823   47.4588 H   0  0  0  0  0  0  0  0  0  0  0  0
   61.3178   34.6566   46.2720 H   0  0  0  0  0  0  0  0  0  0  0  0
   63.7446   34.0669   46.2324 H   0  0  0  0  0  0  0  0  0  0  0  0
   64.5473   32.0015   47.3860 H   0  0  0  0  0  0  0  0  0  0  0  0
   62.9267   30.5241   48.5780 H   0  0  0  0  0  0  0  0  0  0  0  0
   58.5028   30.6852   46.0882 H   0  0  0  0  0  0  0  0  0  0  0  0
   60.2822   31.0086   46.1210 H   0  0  0  0  0  0  0  0  0  0  0  0
   59.2912   30.4870   43.8274 H   0  0  0  0  0  0  0  0  0  0  0  0
   60.6956   29.4547   44.3697 H   0  0  0  0  0  0  0  0  0  0  0  0
  1  2  1  0
  2  3  1  0
  3  4  2  0
  4  5  1  0
  4  6  1  0
  6  7  1  0
  7  8  1  0
  8  9  1  0
  9 10  1  0
 10 11  1  0
 11 12  1  0
 12 13  1  0
 13 14  2  0
 13 15  1  0
 15 16  1  0
 16 17  2  0
 17 18  1  0
 18 19  2  0
 19 20  1  0
 20 21  2  0
 12 22  1  0
 22 23  1  0
  6 24  1  0
 24  2  2  0
 23  9  1  0
 21 16  1  0
  1 25  1  0
  1 26  1  0
  1 27  1  0
  3 28  1  0
  5 29  1  0
  5 30  1  0
  5 31  1  0
  7 32  1  0
  7 33  1  0
  8 34  1  0
  8 35  1  0
  9 36  1  0
 10 37  1  0
 10 38  1  0
 11 39  1  0
 11 40  1  0
 15 41  1  0
 15 42  1  0
 17 43  1  0
 18 44  1  0
 19 45  1  0
 20 46  1  0
 21 47  1  0
 22 48  1  0
 22 49  1  0
 23 50  1  0
 23 51  1  0
M  CHG  1   9   1
M  END
>  <UniqueID>  (86) 
79

>  <SMILES>  (86) 
Cc1cc(C)n(CC[NH+]2CCN(C(=O)Cc3ccccc3)CC2)n1

>  <Energy>  (86) 
83.79164232860643

>  <Genealogy>  (86) 
Cc1cc(C)n(CC[NH+]2CCN(C(=O)Cc3ccccc3)CC2)n1 (protonated)
Cc1cc(C)n(CC[NH+]2CCN(C(=O)Cc3ccccc3)CC2)n1 (3D coordinates assigned)
Cc1cc(C)n(CC[NH+]2CCN(C(=O)Cc3ccccc3)CC2)n1 (nonaromatic ring conformer: 83.79164232860643 kcal/mol)

>  <smiles>  (86) 
Cc1cc(C)n(CCN2CCN(C(=O)Cc3ccccc3)CC2)n1

>  <score_type>  (86) 
oracle

>  <origin>  (86) 
adg

>  <m_score__min__energy>  (86) 
-6.2199999999999998

>  <m_primary>  (86) 
energy

$$$$
86:0
     RDKit          3D

 44 45  0  0  0  0  0  0  0  0999 V2000
   60.6580   33.5010   46.3680 C   0  0  0  0  0  0  0  0  0  0  0  0
   59.2580   33.5190   47.4660 S   0  0  0  0  0  0  0  0  0  0  0  0
   58.0790   34.1280   46.7610 O   0  0  0  0  0  0  0  0  0  0  0  0
   59.5940   34.3500   48.6720 O   0  0  0  0  0  0  0  0  0  0  0  0
   58.8550   31.8630   47.9980 C   0  0  0  0  0  0  0  0  0  0  0  0
   59.8140   30.8360   47.3910 C   0  0  0  0  0  0  0  0  0  0  0  0
   59.1850   30.1600   46.2460 N   0  0  0  0  0  0  0  0  0  0  0  0
   57.7580   30.3640   45.9660 C   0  0  0  0  0  0  0  0  0  0  0  0
   57.5920   30.9750   44.6010 C   0  0  0  0  0  0  0  0  0  0  0  0
   58.2410   32.1760   44.2730 C   0  0  0  0  0  0  0  0  0  0  0  0
   58.1300   32.7060   42.9840 C   0  0  0  0  0  0  0  0  0  0  0  0
   57.3820   32.0360   42.0110 C   0  0  0  0  0  0  0  0  0  0  0  0
   57.2620   32.6910   40.3890 Cl  0  0  0  0  0  0  0  0  0  0  0  0
   56.7440   30.8330   42.3280 C   0  0  0  0  0  0  0  0  0  0  0  0
   56.8510   30.3010   43.6170 C   0  0  0  0  0  0  0  0  0  0  0  0
   59.9310   29.2460   45.4180 C   0  0  0  0  0  0  0  0  0  0  0  0
   61.1880   29.3360   45.3680 O   0  0  0  0  0  0  0  0  0  0  0  0
   59.2420   28.2590   44.5160 C   0  0  0  0  0  0  0  0  0  0  0  0
   58.3740   27.3410   45.3360 C   0  0  0  0  0  0  0  0  0  0  0  0
   58.9590   26.3130   46.0940 C   0  0  0  0  0  0  0  0  0  0  0  0
   58.1580   25.4320   46.8250 C   0  0  0  0  0  0  0  0  0  0  0  0
   56.7670   25.5660   46.8010 C   0  0  0  0  0  0  0  0  0  0  0  0
   56.1760   26.5810   46.0440 C   0  0  0  0  0  0  0  0  0  0  0  0
   54.7920   26.7080   46.0140 O   0  0  0  0  0  0  0  0  0  0  0  0
   56.9740   27.4690   45.3150 C   0  0  0  0  0  0  0  0  0  0  0  0
   61.5864   33.4891   46.9578 H   0  0  0  0  0  0  0  0  0  0  0  0
   60.6150   32.6033   45.7337 H   0  0  0  0  0  0  0  0  0  0  0  0
   60.6381   34.3995   45.7337 H   0  0  0  0  0  0  0  0  0  0  0  0
   58.9228   31.8123   49.0947 H   0  0  0  0  0  0  0  0  0  0  0  0
   57.8348   31.6280   47.6603 H   0  0  0  0  0  0  0  0  0  0  0  0
   60.7267   31.3483   47.0526 H   0  0  0  0  0  0  0  0  0  0  0  0
   60.0628   30.0852   48.1555 H   0  0  0  0  0  0  0  0  0  0  0  0
   57.2367   29.3959   45.9993 H   0  0  0  0  0  0  0  0  0  0  0  0
   57.3310   31.0393   46.7221 H   0  0  0  0  0  0  0  0  0  0  0  0
   58.8386   32.7015   45.0324 H   0  0  0  0  0  0  0  0  0  0  0  0
   58.6323   33.6523   42.7347 H   0  0  0  0  0  0  0  0  0  0  0  0
   56.1571   30.3042   41.5625 H   0  0  0  0  0  0  0  0  0  0  0  0
   56.3528   29.3511   43.8609 H   0  0  0  0  0  0  0  0  0  0  0  0
   58.6177   28.8009   43.7904 H   0  0  0  0  0  0  0  0  0  0  0  0
   59.9979   27.6645   43.9820 H   0  0  0  0  0  0  0  0  0  0  0  0
   60.0531   26.2011   46.1121 H   0  0  0  0  0  0  0  0  0  0  0  0
   58.6227   24.6320   47.4201 H   0  0  0  0  0  0  0  0  0  0  0  0
   56.1375   24.8725   47.3780 H   0  0  0  0  0  0  0  0  0  0  0  0
   56.5050   28.2694   44.7239 H   0  0  0  0  0  0  0  0  0  0  0  0
  1  2  1  0
  2  3  2  0
  2  4  2  0
  2  5  1  0
  5  6  1  0
  6  7  1  0
  7  8  1  0
  8  9  1  0
  9 10  2  0
 10 11  1  0
 11 12  2  0
 12 13  1  0
 12 14  1  0
 14 15  2  0
  7 16  1  0
 16 17  2  0
 16 18  1  0
 18 19  1  0
 19 20  2  0
 20 21  1  0
 21 22  2  0
 22 23  1  0
 23 24  1  0
 23 25  2  0
 15  9  1  0
 25 19  1  0
  1 26  1  0
  1 27  1  0
  1 28  1  0
  5 29  1  0
  5 30  1  0
  6 31  1  0
  6 32  1  0
  8 33  1  0
  8 34  1  0
 10 35  1  0
 11 36  1  0
 14 37  1  0
 15 38  1  0
 18 39  1  0
 18 40  1  0
 20 41  1  0
 21 42  1  0
 22 43  1  0
 25 44  1  0
M  CHG  1  24  -1
M  END
>  <UniqueID>  (87) 
80

>  <SMILES>  (87) 
CS(=O)(=O)CCN(Cc1ccc(Cl)cc1)C(=O)Cc1cccc([O-])c1

>  <Energy>  (87) 
27.55054245331245

>  <Genealogy>  (87) 
CS(=O)(=O)CCN(Cc1ccc(Cl)cc1)C(=O)Cc1cccc([O-])c1 (protonated)
CS(=O)(=O)CCN(Cc1ccc(Cl)cc1)C(=O)Cc1cccc([O-])c1 (3D coordinates assigned)
CS(=O)(=O)CCN(Cc1ccc(Cl)cc1)C(=O)Cc1cccc([O-])c1 (optimized conformer: 27.55054245331245 kcal/mol)

>  <smiles>  (87) 
CS(=O)(=O)CCN(Cc1ccc(Cl)cc1)C(=O)Cc1cccc(O)c1

>  <score_type>  (87) 
oracle

>  <origin>  (87) 
adg

>  <m_score__min__energy>  (87) 
-12.380000000000001

>  <m_primary>  (87) 
energy

$$$$
87:0
     RDKit          3D

 50 52  0  0  0  0  0  0  0  0999 V2000
   56.2700   29.9220   43.0930 C   0  0  0  0  0  0  0  0  0  0  0  0
   56.1410   30.8430   44.1710 O   0  0  0  0  0  0  0  0  0  0  0  0
   57.2210   31.4710   44.8100 C   0  0  0  0  0  0  0  0  0  0  0  0
   58.1700   30.7570   45.5660 C   0  0  0  0  0  0  0  0  0  0  0  0
   59.2260   31.4300   46.1860 C   0  0  0  0  0  0  0  0  0  0  0  0
   59.3500   32.8210   46.0680 C   0  0  0  0  0  0  0  0  0  0  0  0
   60.6910   33.6430   46.8730 S   0  0  0  0  0  0  0  0  0  0  0  0
   61.9130   33.5310   46.0040 O   0  0  0  0  0  0  0  0  0  0  0  0
   60.3810   35.0960   47.0970 O   0  0  0  0  0  0  0  0  0  0  0  0
   61.0170   32.9000   48.4080 N   0  0  0  0  0  0  0  0  0  0  0  0
   60.0230   32.2200   49.1970 C   0  0  0  0  0  0  0  0  0  0  0  0
   59.0290   32.9190   49.9060 C   0  0  0  0  0  0  0  0  0  0  0  0
   58.0680   32.2240   50.6460 C   0  0  0  0  0  0  0  0  0  0  0  0
   58.0760   30.8250   50.6890 C   0  0  0  0  0  0  0  0  0  0  0  0
   57.0540   30.1530   51.4360 N   0  0  0  0  0  0  0  0  0  0  0  0
   56.3540   30.7380   52.9110 S   0  0  0  0  0  0  0  0  0  0  0  0
   56.5920   32.2170   53.0200 O   0  0  0  0  0  0  0  0  0  0  0  0
   57.0090   30.0540   54.0800 O   0  0  0  0  0  0  0  0  0  0  0  0
   54.6170   30.4410   52.8930 C   0  0  0  0  0  0  0  0  0  0  0  0
   54.0860   29.4410   53.7080 C   0  0  0  0  0  0  0  0  0  0  0  0
   52.7100   29.2140   53.7350 C   0  0  0  0  0  0  0  0  0  0  0  0
   51.8370   29.9880   52.9500 C   0  0  0  0  0  0  0  0  0  0  0  0
   50.3580   29.7220   53.0560 C   0  0  0  0  0  0  0  0  0  0  0  0
   52.3720   30.9950   52.0980 C   0  0  0  0  0  0  0  0  0  0  0  0
   51.5250   31.8410   51.2150 C   0  0  0  0  0  0  0  0  0  0  0  0
   51.2140   31.4370   50.0630 O   0  0  0  0  0  0  0  0  0  0  0  0
   51.0270   33.0640   51.6450 O   0  0  0  0  0  0  0  0  0  0  0  0
   53.7650   31.2090   52.0900 C   0  0  0  0  0  0  0  0  0  0  0  0
   59.0780   30.1250   49.9950 C   0  0  0  0  0  0  0  0  0  0  0  0
   60.0410   30.8190   49.2580 C   0  0  0  0  0  0  0  0  0  0  0  0
   58.4120   33.5340   45.3010 C   0  0  0  0  0  0  0  0  0  0  0  0
   58.5220   34.9120   45.1410 O   0  0  0  0  0  0  0  0  0  0  0  0
   57.3550   32.8580   44.6830 C   0  0  0  0  0  0  0  0  0  0  0  0
   56.4121   28.9071   43.4928 H   0  0  0  0  0  0  0  0  0  0  0  0
   55.3593   29.9491   42.4766 H   0  0  0  0  0  0  0  0  0  0  0  0
   57.1382   30.1982   42.4766 H   0  0  0  0  0  0  0  0  0  0  0  0
   58.0799   29.6655   45.6690 H   0  0  0  0  0  0  0  0  0  0  0  0
   59.9656   30.8638   46.7711 H   0  0  0  0  0  0  0  0  0  0  0  0
   62.0120   32.8870   48.7260 H   0  0  0  0  0  0  0  0  0  0  0  0
   59.0079   34.0184   49.8779 H   0  0  0  0  0  0  0  0  0  0  0  0
   57.2984   32.7818   51.1997 H   0  0  0  0  0  0  0  0  0  0  0  0
   54.7547   28.8294   54.3315 H   0  0  0  0  0  0  0  0  0  0  0  0
   52.3028   28.4199   54.3781 H   0  0  0  0  0  0  0  0  0  0  0  0
   50.0698   29.6702   54.1163 H   0  0  0  0  0  0  0  0  0  0  0  0
   49.8031   30.5348   52.5645 H   0  0  0  0  0  0  0  0  0  0  0  0
   50.1211   28.7668   52.5645 H   0  0  0  0  0  0  0  0  0  0  0  0
   54.1893   31.9911   51.4432 H   0  0  0  0  0  0  0  0  0  0  0  0
   59.1041   29.0259   50.0323 H   0  0  0  0  0  0  0  0  0  0  0  0
   60.8214   30.2607   48.7200 H   0  0  0  0  0  0  0  0  0  0  0  0
   56.6206   33.4232   44.0903 H   0  0  0  0  0  0  0  0  0  0  0  0
  1  2  1  0
  2  3  1  0
  3  4  2  0
  4  5  1  0
  5  6  2  0
  6  7  1  0
  7  8  2  0
  7  9  2  0
  7 10  1  0
 10 11  1  0
 11 12  2  0
 12 13  1  0
 13 14  2  0
 14 15  1  0
 15 16  1  0
 16 17  2  0
 16 18  2  0
 16 19  1  0
 19 20  2  0
 20 21  1  0
 21 22  2  0
 22 23  1  0
 22 24  1  0
 24 25  1  0
 25 26  2  0
 25 27  1  0
 24 28  2  0
 14 29  1  0
 29 30  2  0
  6 31  1  0
 31 32  1  0
 31 33  2  0
 33  3  1  0
 30 11  1  0
 28 19  1  0
  1 34  1  0
  1 35  1  0
  1 36  1  0
  4 37  1  0
  5 38  1  0
 10 39  1  0
 12 40  1  0
 13 41  1  0
 20 42  1  0
 21 43  1  0
 23 44  1  0
 23 45  1  0
 23 46  1  0
 28 47  1  0
 29 48  1  0
 30 49  1  0
 33 50  1  0
M  CHG  3  15  -1  27  -1  32  -1
M  END
>  <UniqueID>  (88) 
81

>  <SMILES>  (88) 
COc1ccc(S(=O)(=O)Nc2ccc([N-]S(=O)(=O)c3ccc(C)c(C(=O)[O-])c3)cc2)c([O-])c1

>  <Energy>  (88) 
63.198905909797155

>  <Genealogy>  (88) 
COc1ccc(S(=O)(=O)Nc2ccc([N-]S(=O)(=O)c3ccc(C)c(C(=O)[O-])c3)cc2)c([O-])c1 (protonated)
COc1ccc(S(=O)(=O)Nc2ccc([N-]S(=O)(=O)c3ccc(C)c(C(=O)[O-])c3)cc2)c([O-])c1 (3D coordinates assigned)
COc1ccc(S(=O)(=O)Nc2ccc([N-]S(=O)(=O)c3ccc(C)c(C(=O)[O-])c3)cc2)c([O-])c1 (optimized conformer: 63.198905909797155 kcal/mol)

>  <smiles>  (88) 
COc1ccc(S(=O)(=O)Nc2ccc(NS(=O)(=O)c3ccc(C)c(C(=O)O)c3)cc2)c(O)c1

>  <score_type>  (88) 
oracle

>  <origin>  (88) 
adg

>  <m_score__min__energy>  (88) 
-15.25

>  <m_primary>  (88) 
energy

$$$$
88:0
     RDKit          3D

 53 56  0  0  0  0  0  0  0  0999 V2000
   54.1080   25.9340   45.8250 O   0  0  0  0  0  0  0  0  0  0  0  0
   55.3590   26.0830   45.8310 C   0  0  0  0  0  0  0  0  0  0  0  0
   55.8920   27.3980   45.6220 N   0  0  0  0  0  0  0  0  0  0  0  0
   57.2800   27.7380   45.4950 C   0  0  0  0  0  0  0  0  0  0  0  0
   57.9490   27.6470   44.2630 C   0  0  0  0  0  0  0  0  0  0  0  0
   59.2960   28.0020   44.1700 C   0  0  0  0  0  0  0  0  0  0  0  0
   59.9810   28.4700   45.2930 C   0  0  0  0  0  0  0  0  0  0  0  0
   59.3160   28.6050   46.5260 C   0  0  0  0  0  0  0  0  0  0  0  0
   60.0250   29.1010   47.7350 C   0  0  0  0  0  0  0  0  0  0  0  0
   60.3320   28.2710   48.6360 O   0  0  0  0  0  0  0  0  0  0  0  0
   60.4170   30.4910   47.8690 N   0  0  0  0  0  0  0  0  0  0  0  0
   60.3830   31.1760   46.5520 C   0  0  0  0  0  0  0  0  0  0  0  0
   60.3350   32.7000   46.7240 C   0  0  0  0  0  0  0  0  0  0  0  0
   59.1320   33.1480   47.4770 N   0  0  0  0  0  0  0  0  0  0  0  0
   58.1170   33.7580   46.5950 C   0  0  0  0  0  0  0  0  0  0  0  0
   57.9510   32.9420   45.3380 C   0  0  0  0  0  0  0  0  0  0  0  0
   57.4140   31.6460   45.4090 C   0  0  0  0  0  0  0  0  0  0  0  0
   57.2490   30.8880   44.2470 C   0  0  0  0  0  0  0  0  0  0  0  0
   57.6210   31.4160   43.0070 C   0  0  0  0  0  0  0  0  0  0  0  0
   58.1570   32.7050   42.9290 C   0  0  0  0  0  0  0  0  0  0  0  0
   58.3230   33.4670   44.0890 C   0  0  0  0  0  0  0  0  0  0  0  0
   58.5230   32.0820   48.3040 C   0  0  0  0  0  0  0  0  0  0  0  0
   59.5960   31.1680   48.9110 C   0  0  0  0  0  0  0  0  0  0  0  0
   57.9630   28.2320   46.6140 C   0  0  0  0  0  0  0  0  0  0  0  0
   56.2340   24.9270   46.1280 C   0  0  0  0  0  0  0  0  0  0  0  0
   57.0530   24.3700   45.1350 C   0  0  0  0  0  0  0  0  0  0  0  0
   57.8500   23.2700   45.4650 C   0  0  0  0  0  0  0  0  0  0  0  0
   58.6000   22.7510   44.5990 O   0  0  0  0  0  0  0  0  0  0  0  0
   57.8150   22.7620   46.7240 N   0  0  0  0  0  0  0  0  0  0  0  0
   57.0120   23.3060   47.6730 C   0  0  0  0  0  0  0  0  0  0  0  0
   56.9910   22.8200   48.8330 O   0  0  0  0  0  0  0  0  0  0  0  0
   56.2290   24.3740   47.3710 N   0  0  0  0  0  0  0  0  0  0  0  0
   57.4108   27.2955   43.3704 H   0  0  0  0  0  0  0  0  0  0  0  0
   59.8203   27.9125   43.2071 H   0  0  0  0  0  0  0  0  0  0  0  0
   61.0458   28.7345   45.2137 H   0  0  0  0  0  0  0  0  0  0  0  0
   61.4160   30.5270   48.1800 H   0  0  0  0  0  0  0  0  0  0  0  0
   61.2853   30.9067   45.9834 H   0  0  0  0  0  0  0  0  0  0  0  0
   59.4781   30.8560   46.0146 H   0  0  0  0  0  0  0  0  0  0  0  0
   61.2339   33.0224   47.2699 H   0  0  0  0  0  0  0  0  0  0  0  0
   60.2898   33.1496   45.7211 H   0  0  0  0  0  0  0  0  0  0  0  0
   57.1552   33.8032   47.1270 H   0  0  0  0  0  0  0  0  0  0  0  0
   58.4465   34.7710   46.3207 H   0  0  0  0  0  0  0  0  0  0  0  0
   57.1223   31.2263   46.3831 H   0  0  0  0  0  0  0  0  0  0  0  0
   56.8259   29.8745   44.3078 H   0  0  0  0  0  0  0  0  0  0  0  0
   57.4920   30.8175   42.0931 H   0  0  0  0  0  0  0  0  0  0  0  0
   58.4486   33.1202   41.9530 H   0  0  0  0  0  0  0  0  0  0  0  0
   58.7460   34.4803   44.0238 H   0  0  0  0  0  0  0  0  0  0  0  0
   57.9446   32.5451   49.1170 H   0  0  0  0  0  0  0  0  0  0  0  0
   57.8703   31.4731   47.6612 H   0  0  0  0  0  0  0  0  0  0  0  0
   60.2594   31.7741   49.5455 H   0  0  0  0  0  0  0  0  0  0  0  0
   59.0836   30.3889   49.4946 H   0  0  0  0  0  0  0  0  0  0  0  0
   57.4342   28.3293   47.5736 H   0  0  0  0  0  0  0  0  0  0  0  0
   57.0679   24.7897   44.1183 H   0  0  0  0  0  0  0  0  0  0  0  0
  1  2  2  0
  2  3  1  0
  3  4  1  0
  4  5  2  0
  5  6  1  0
  6  7  2  0
  7  8  1  0
  8  9  1  0
  9 10  2  0
  9 11  1  0
 11 12  1  0
 12 13  1  0
 13 14  1  0
 14 15  1  0
 15 16  1  0
 16 17  2  0
 17 18  1  0
 18 19  2  0
 19 20  1  0
 20 21  2  0
 14 22  1  0
 22 23  1  0
  8 24  2  0
  2 25  1  0
 25 26  2  0
 26 27  1  0
 27 28  2  0
 27 29  1  0
 29 30  1  0
 30 31  2  0
 30 32  1  0
 24  4  1  0
 32 25  1  0
 23 11  1  0
 21 16  1  0
  5 33  1  0
  6 34  1  0
  7 35  1  0
 11 36  1  0
 12 37  1  0
 12 38  1  0
 13 39  1  0
 13 40  1  0
 15 41  1  0
 15 42  1  0
 17 43  1  0
 18 44  1  0
 19 45  1  0
 20 46  1  0
 21 47  1  0
 22 48  1  0
 22 49  1  0
 23 50  1  0
 23 51  1  0
 24 52  1  0
 26 53  1  0
M  CHG  4   3  -1  11   1  29  -1  32  -1
M  END
>  <UniqueID>  (89) 
82

>  <SMILES>  (89) 
O=C([N-]c1cccc(C(=O)[NH+]2CCN(Cc3ccccc3)CC2)c1)c1cc(=O)[n-]c(=O)[n-]1

>  <Energy>  (89) 
81.39317798627386

>  <Genealogy>  (89) 
O=C([N-]c1cccc(C(=O)[NH+]2CCN(Cc3ccccc3)CC2)c1)c1cc(=O)[n-]c(=O)[n-]1 (protonated)
O=C([N-]c1cccc(C(=O)[NH+]2CCN(Cc3ccccc3)CC2)c1)c1cc(=O)[n-]c(=O)[n-]1 (3D coordinates assigned)
O=C([N-]c1cccc(C(=O)[NH+]2CCN(Cc3ccccc3)CC2)c1)c1cc(=O)[n-]c(=O)[n-]1 (nonaromatic ring conformer: 81.39317798627386 kcal/mol)

>  <smiles>  (89) 
O=C(Nc1cccc(C(=O)N2CCN(Cc3ccccc3)CC2)c1)c1cc(=O)[nH]c(=O)[nH]1

>  <score_type>  (89) 
oracle

>  <origin>  (89) 
adg

>  <m_score__min__energy>  (89) 
-14.119999999999999

>  <m_primary>  (89) 
energy

$$$$
89:0
     RDKit          3D

 48 51  0  0  0  0  0  0  0  0999 V2000
   60.2550   29.9180   46.1270 C   0  0  0  0  0  0  0  0  0  0  0  0
   59.3750   30.8680   45.7770 C   0  0  0  0  0  0  0  0  0  0  0  0
   58.3290   30.7600   44.8430 C   0  0  0  0  0  0  0  0  0  0  0  0
   57.8290   29.6900   44.1930 C   0  0  0  0  0  0  0  0  0  0  0  0
   57.4270   28.4150   44.8190 C   0  0  0  0  0  0  0  0  0  0  0  0
   56.1080   28.2260   45.2530 C   0  0  0  0  0  0  0  0  0  0  0  0
   55.1490   29.2130   45.0580 O   0  0  0  0  0  0  0  0  0  0  0  0
   55.7560   27.0650   45.8640 N   0  0  0  0  0  0  0  0  0  0  0  0
   56.6660   26.0810   46.0790 C   0  0  0  0  0  0  0  0  0  0  0  0
   56.2110   24.6960   46.8130 S   0  0  0  0  0  0  0  0  0  0  0  0
   57.9560   26.2520   45.6940 N   0  0  0  0  0  0  0  0  0  0  0  0
   58.3590   27.3940   45.0800 C   0  0  0  0  0  0  0  0  0  0  0  0
   59.5690   27.5280   44.7550 O   0  0  0  0  0  0  0  0  0  0  0  0
   57.8260   32.0400   44.6740 C   0  0  0  0  0  0  0  0  0  0  0  0
   58.5220   32.8620   45.5340 C   0  0  0  0  0  0  0  0  0  0  0  0
   58.2840   34.3340   45.6830 C   0  0  0  0  0  0  0  0  0  0  0  0
   59.4620   32.1560   46.2030 N   0  0  0  0  0  0  0  0  0  0  0  0
   60.3850   32.6910   47.1680 C   0  0  0  0  0  0  0  0  0  0  0  0
   60.0110   32.8080   48.5150 C   0  0  0  0  0  0  0  0  0  0  0  0
   60.9120   33.3160   49.4550 C   0  0  0  0  0  0  0  0  0  0  0  0
   62.1970   33.7220   49.0560 C   0  0  0  0  0  0  0  0  0  0  0  0
   63.1810   34.2290   50.0740 C   0  0  0  0  0  0  0  0  0  0  0  0
   64.1820   33.1570   50.4070 C   0  0  0  0  0  0  0  0  0  0  0  0
   65.5480   33.3550   50.1410 C   0  0  0  0  0  0  0  0  0  0  0  0
   66.4730   32.3430   50.4170 C   0  0  0  0  0  0  0  0  0  0  0  0
   66.0410   31.1260   50.9490 C   0  0  0  0  0  0  0  0  0  0  0  0
   64.6830   30.9160   51.2040 C   0  0  0  0  0  0  0  0  0  0  0  0
   63.7550   31.9260   50.9310 C   0  0  0  0  0  0  0  0  0  0  0  0
   62.5720   33.5940   47.7090 C   0  0  0  0  0  0  0  0  0  0  0  0
   61.6700   33.0860   46.7720 C   0  0  0  0  0  0  0  0  0  0  0  0
   61.0301   30.1355   46.8766 H   0  0  0  0  0  0  0  0  0  0  0  0
   60.2016   28.9214   45.6644 H   0  0  0  0  0  0  0  0  0  0  0  0
   57.7104   29.7742   43.1027 H   0  0  0  0  0  0  0  0  0  0  0  0
   57.0239   32.3425   43.9847 H   0  0  0  0  0  0  0  0  0  0  0  0
   58.2422   34.5924   46.7514 H   0  0  0  0  0  0  0  0  0  0  0  0
   59.1042   34.8884   45.2035 H   0  0  0  0  0  0  0  0  0  0  0  0
   57.3309   34.6017   45.2035 H   0  0  0  0  0  0  0  0  0  0  0  0
   59.0044   32.4986   48.8328 H   0  0  0  0  0  0  0  0  0  0  0  0
   60.6143   33.3983   50.5108 H   0  0  0  0  0  0  0  0  0  0  0  0
   63.7079   35.1041   49.6658 H   0  0  0  0  0  0  0  0  0  0  0  0
   62.6386   34.5105   50.9886 H   0  0  0  0  0  0  0  0  0  0  0  0
   65.8906   34.3092   49.7143 H   0  0  0  0  0  0  0  0  0  0  0  0
   67.5420   32.5057   50.2149 H   0  0  0  0  0  0  0  0  0  0  0  0
   66.7703   30.3320   51.1675 H   0  0  0  0  0  0  0  0  0  0  0  0
   64.3439   29.9557   51.6197 H   0  0  0  0  0  0  0  0  0  0  0  0
   62.6862   31.7555   51.1275 H   0  0  0  0  0  0  0  0  0  0  0  0
   63.5808   33.8953   47.3905 H   0  0  0  0  0  0  0  0  0  0  0  0
   61.9696   32.9954   45.7175 H   0  0  0  0  0  0  0  0  0  0  0  0
  1  2  2  0
  2  3  1  0
  3  4  2  3
  4  5  1  0
  5  6  2  0
  6  7  1  0
  6  8  1  0
  8  9  1  0
  9 10  2  0
  9 11  1  0
 11 12  1  0
 12 13  2  0
  3 14  1  0
 14 15  2  0
 15 16  1  0
 15 17  1  0
 17 18  1  0
 18 19  2  0
 19 20  1  0
 20 21  2  0
 21 22  1  0
 22 23  1  0
 23 24  2  0
 24 25  1  0
 25 26  2  0
 26 27  1  0
 27 28  2  0
 21 29  1  0
 29 30  2  0
 17  2  1  0
 30 18  1  0
 12  5  1  0
 28 23  1  0
  1 31  1  0
  1 32  1  0
  4 33  1  0
 14 34  1  0
 16 35  1  0
 16 36  1  0
 16 37  1  0
 19 38  1  0
 20 39  1  0
 22 40  1  0
 22 41  1  0
 24 42  1  0
 25 43  1  0
 26 44  1  0
 27 45  1  0
 28 46  1  0
 29 47  1  0
 30 48  1  0
M  CHG  3   7  -1   8  -1  11  -1
M  END
>  <UniqueID>  (90) 
83

>  <SMILES>  (90) 
C=c1c(=Cc2c([O-])[n-]c(=S)[n-]c2=O)cc(C)n1-c1ccc(Cc2ccccc2)cc1

>  <Energy>  (90) 
99.74348236851725

>  <Genealogy>  (90) 
C=c1c(=Cc2c([O-])[n-]c(=S)[n-]c2=O)cc(C)n1-c1ccc(Cc2ccccc2)cc1 (protonated)
C=c1c(=Cc2c([O-])[n-]c(=S)[n-]c2=O)cc(C)n1-c1ccc(Cc2ccccc2)cc1 (3D coordinates assigned)
C=c1c(=Cc2c([O-])[n-]c(=S)[n-]c2=O)cc(C)n1-c1ccc(Cc2ccccc2)cc1 (optimized conformer: 99.74348236851725 kcal/mol)

>  <smiles>  (90) 
C=c1c(=Cc2c(O)[nH]c(=S)[nH]c2=O)cc(C)n1-c1ccc(Cc2ccccc2)cc1

>  <score_type>  (90) 
oracle

>  <origin>  (90) 
adg

>  <m_score__min__energy>  (90) 
-16.079999999999998

>  <m_primary>  (90) 
energy

$$$$
90:0
     RDKit          3D

 59 62  0  0  0  0  0  0  0  0999 V2000
   67.0720   26.7180   51.1270 C   0  0  0  0  0  0  0  0  0  0  0  0
   66.7530   27.7180   52.2390 C   0  0  0  0  0  0  0  0  0  0  0  0
   67.7120   28.7160   52.2520 F   0  0  0  0  0  0  0  0  0  0  0  0
   66.8310   27.0610   53.4570 F   0  0  0  0  0  0  0  0  0  0  0  0
   65.3660   28.3120   52.0360 C   0  0  0  0  0  0  0  0  0  0  0  0
   65.2450   29.6540   51.6180 C   0  0  0  0  0  0  0  0  0  0  0  0
   63.9840   30.2480   51.4510 C   0  0  0  0  0  0  0  0  0  0  0  0
   63.8520   31.6160   51.0370 N   0  0  0  0  0  0  0  0  0  0  0  0
   64.7600   32.2660   50.1270 C   0  0  0  0  0  0  0  0  0  0  0  0
   65.8960   31.7740   49.8960 O   0  0  0  0  0  0  0  0  0  0  0  0
   64.3980   33.4960   49.4870 N   0  0  0  0  0  0  0  0  0  0  0  0
   63.1460   33.7500   48.8350 C   0  0  0  0  0  0  0  0  0  0  0  0
   62.9870   33.5550   47.4510 C   0  0  0  0  0  0  0  0  0  0  0  0
   61.7460   33.7710   46.8490 C   0  0  0  0  0  0  0  0  0  0  0  0
   60.6510   34.1990   47.6190 C   0  0  0  0  0  0  0  0  0  0  0  0
   59.3850   34.3810   47.0450 O   0  0  0  0  0  0  0  0  0  0  0  0
   58.8210   33.5210   46.0910 C   0  0  0  0  0  0  0  0  0  0  0  0
   58.7550   33.9320   44.7570 C   0  0  0  0  0  0  0  0  0  0  0  0
   58.1960   33.0800   43.8000 C   0  0  0  0  0  0  0  0  0  0  0  0
   57.7050   31.8680   44.1700 N   0  0  0  0  0  0  0  0  0  0  0  0
   57.7340   31.4440   45.4660 C   0  0  0  0  0  0  0  0  0  0  0  0
   57.2490   30.2870   45.8140 N   0  0  0  0  0  0  0  0  0  0  0  0
   56.4580   29.3940   45.0140 C   0  0  0  0  0  0  0  0  0  0  0  0
   55.2170   29.5730   44.8710 O   0  0  0  0  0  0  0  0  0  0  0  0
   57.1030   28.1930   44.3860 C   0  0  0  0  0  0  0  0  0  0  0  0
   57.4770   27.1620   45.4250 C   0  0  0  0  0  0  0  0  0  0  0  0
   58.8330   26.9180   45.7080 C   0  0  0  0  0  0  0  0  0  0  0  0
   59.1950   25.9840   46.6840 C   0  0  0  0  0  0  0  0  0  0  0  0
   58.2080   25.2940   47.3930 C   0  0  0  0  0  0  0  0  0  0  0  0
   56.8570   25.5450   47.1370 C   0  0  0  0  0  0  0  0  0  0  0  0
   56.4870   26.4760   46.1600 C   0  0  0  0  0  0  0  0  0  0  0  0
   55.1350   26.7170   45.9280 O   0  0  0  0  0  0  0  0  0  0  0  0
   58.2880   32.2710   46.4480 C   0  0  0  0  0  0  0  0  0  0  0  0
   60.8320   34.4740   48.9790 C   0  0  0  0  0  0  0  0  0  0  0  0
   62.0740   34.2480   49.5860 C   0  0  0  0  0  0  0  0  0  0  0  0
   62.8330   29.5140   51.7520 C   0  0  0  0  0  0  0  0  0  0  0  0
   62.9330   28.1920   52.1850 C   0  0  0  0  0  0  0  0  0  0  0  0
   64.1860   27.5870   52.3370 C   0  0  0  0  0  0  0  0  0  0  0  0
   64.2140   25.9330   52.9440 Cl  0  0  0  0  0  0  0  0  0  0  0  0
   67.3777   25.7597   51.5722 H   0  0  0  0  0  0  0  0  0  0  0  0
   66.1782   26.5645   50.5044 H   0  0  0  0  0  0  0  0  0  0  0  0
   67.8896   27.1104   50.5044 H   0  0  0  0  0  0  0  0  0  0  0  0
   66.1522   30.2437   51.4200 H   0  0  0  0  0  0  0  0  0  0  0  0
   62.9680   32.1090   51.2920 H   0  0  0  0  0  0  0  0  0  0  0  0
   63.8433   33.2313   46.8411 H   0  0  0  0  0  0  0  0  0  0  0  0
   61.6249   33.6056   45.7683 H   0  0  0  0  0  0  0  0  0  0  0  0
   59.1403   34.9192   44.4620 H   0  0  0  0  0  0  0  0  0  0  0  0
   58.1535   33.3911   42.7458 H   0  0  0  0  0  0  0  0  0  0  0  0
   56.3994   27.7417   43.6710 H   0  0  0  0  0  0  0  0  0  0  0  0
   58.0213   28.5199   43.8763 H   0  0  0  0  0  0  0  0  0  0  0  0
   59.6133   27.4650   45.1585 H   0  0  0  0  0  0  0  0  0  0  0  0
   60.2577   25.7923   46.8938 H   0  0  0  0  0  0  0  0  0  0  0  0
   58.4946   24.5526   48.1534 H   0  0  0  0  0  0  0  0  0  0  0  0
   56.0824   25.0091   47.7052 H   0  0  0  0  0  0  0  0  0  0  0  0
   58.3065   31.9436   47.4980 H   0  0  0  0  0  0  0  0  0  0  0  0
   59.9955   34.8693   49.5739 H   0  0  0  0  0  0  0  0  0  0  0  0
   62.2078   34.4625   50.6566 H   0  0  0  0  0  0  0  0  0  0  0  0
   61.8429   29.9817   51.6468 H   0  0  0  0  0  0  0  0  0  0  0  0
   62.0202   27.6204   52.4088 H   0  0  0  0  0  0  0  0  0  0  0  0
  1  2  1  0
  2  3  1  0
  2  4  1  0
  2  5  1  0
  5  6  2  0
  6  7  1  0
  7  8  1  0
  8  9  1  0
  9 10  2  0
  9 11  1  0
 11 12  1  0
 12 13  2  0
 13 14  1  0
 14 15  2  0
 15 16  1  0
 16 17  1  0
 17 18  1  0
 18 19  2  0
 19 20  1  0
 20 21  1  0
 21 22  2  3
 22 23  1  0
 23 24  2  0
 23 25  1  0
 25 26  1  0
 26 27  2  0
 27 28  1  0
 28 29  2  0
 29 30  1  0
 30 31  2  0
 31 32  1  0
 21 33  1  0
 15 34  1  0
 34 35  2  0
  7 36  2  0
 36 37  1  0
 37 38  2  0
 38 39  1  0
 38  5  1  0
 35 12  1  0
 33 17  2  0
 31 26  1  0
  1 40  1  0
  1 41  1  0
  1 42  1  0
  6 43  1  0
  8 44  1  0
 13 45  1  0
 14 46  1  0
 18 47  1  0
 19 48  1  0
 25 49  1  0
 25 50  1  0
 27 51  1  0
 28 52  1  0
 29 53  1  0
 30 54  1  0
 33 55  1  0
 34 56  1  0
 35 57  1  0
 36 58  1  0
 37 59  1  0
M  CHG  3  11  -1  20  -1  32  -1
M  END
>  <UniqueID>  (91) 
84

>  <SMILES>  (91) 
CC(F)(F)c1cc(NC(=O)[N-]c2ccc(Oc3cc[n-]c(=NC(=O)Cc4ccccc4[O-])c3)cc2)ccc1Cl

>  <Energy>  (91) 
80.19999017776559

>  <Genealogy>  (91) 
CC(F)(F)c1cc(NC(=O)[N-]c2ccc(Oc3cc[n-]c(=NC(=O)Cc4ccccc4[O-])c3)cc2)ccc1Cl (protonated)
CC(F)(F)c1cc(NC(=O)[N-]c2ccc(Oc3cc[n-]c(=NC(=O)Cc4ccccc4[O-])c3)cc2)ccc1Cl (3D coordinates assigned)
CC(F)(F)c1cc(NC(=O)[N-]c2ccc(Oc3cc[n-]c(=NC(=O)Cc4ccccc4[O-])c3)cc2)ccc1Cl (optimized conformer: 80.19999017776559 kcal/mol)

>  <smiles>  (91) 
CC(F)(F)c1cc(NC(=O)Nc2ccc(Oc3cc[nH]c(=NC(=O)Cc4ccccc4O)c3)cc2)ccc1Cl

>  <score_type>  (91) 
oracle

>  <origin>  (91) 
adg

>  <m_score__min__energy>  (91) 
-16.120000000000001

>  <m_primary>  (91) 
energy

$$$$
91:0
     RDKit          3D

 50 53  0  0  0  0  0  0  0  0999 V2000
   63.7860   31.7990   49.7880 C   0  0  0  0  0  0  0  0  0  0  0  0
   63.3310   33.1520   48.7280 S   0  0  0  0  0  0  0  0  0  0  0  0
   63.0170   34.3640   49.5600 O   0  0  0  0  0  0  0  0  0  0  0  0
   64.4820   33.4770   47.8160 O   0  0  0  0  0  0  0  0  0  0  0  0
   61.9150   32.7040   47.7820 C   0  0  0  0  0  0  0  0  0  0  0  0
   61.4620   31.3780   47.7600 C   0  0  0  0  0  0  0  0  0  0  0  0
   60.3260   31.0360   47.0210 C   0  0  0  0  0  0  0  0  0  0  0  0
   59.6320   32.0150   46.2890 C   0  0  0  0  0  0  0  0  0  0  0  0
   58.4170   31.6680   45.5210 C   0  0  0  0  0  0  0  0  0  0  0  0
   58.0530   30.4640   45.0600 C   0  0  0  0  0  0  0  0  0  0  0  0
   58.7790   29.2670   45.1180 O   0  0  0  0  0  0  0  0  0  0  0  0
   58.3230   28.0710   45.6920 C   0  0  0  0  0  0  0  0  0  0  0  0
   59.2260   27.2940   46.4260 C   0  0  0  0  0  0  0  0  0  0  0  0
   58.8090   26.1030   47.0250 C   0  0  0  0  0  0  0  0  0  0  0  0
   57.4870   25.6750   46.8900 C   0  0  0  0  0  0  0  0  0  0  0  0
   56.5760   26.4350   46.1410 C   0  0  0  0  0  0  0  0  0  0  0  0
   55.2190   26.0130   45.9860 N   0  0  0  0  0  0  0  0  0  0  0  0
   54.7420   24.3470   45.9380 S   0  0  0  0  0  0  0  0  0  0  0  0
   54.8260   23.7810   47.3280 O   0  0  0  0  0  0  0  0  0  0  0  0
   53.3170   24.2520   45.4700 O   0  0  0  0  0  0  0  0  0  0  0  0
   55.7700   23.3990   44.8650 C   0  0  0  0  0  0  0  0  0  0  0  0
   55.5230   23.3650   43.4840 C   0  0  0  0  0  0  0  0  0  0  0  0
   56.3350   22.5940   42.6460 C   0  0  0  0  0  0  0  0  0  0  0  0
   57.3920   21.8510   43.1810 C   0  0  0  0  0  0  0  0  0  0  0  0
   57.6360   21.8770   44.5570 C   0  0  0  0  0  0  0  0  0  0  0  0
   56.8290   22.6490   45.3970 C   0  0  0  0  0  0  0  0  0  0  0  0
   56.9850   27.6480   45.5770 C   0  0  0  0  0  0  0  0  0  0  0  0
   56.7190   30.5900   44.4850 C   0  0  0  0  0  0  0  0  0  0  0  0
   56.0530   29.6560   43.9690 O   0  0  0  0  0  0  0  0  0  0  0  0
   56.2790   31.9000   44.5750 O   0  0  0  0  0  0  0  0  0  0  0  0
   57.3100   32.5790   45.2080 C   0  0  0  0  0  0  0  0  0  0  0  0
   57.2630   33.8030   45.4990 O   0  0  0  0  0  0  0  0  0  0  0  0
   60.0870   33.3420   46.3200 C   0  0  0  0  0  0  0  0  0  0  0  0
   61.2220   33.6830   47.0610 C   0  0  0  0  0  0  0  0  0  0  0  0
   63.6828   32.1060   50.8392 H   0  0  0  0  0  0  0  0  0  0  0  0
   63.1271   30.9407   49.5903 H   0  0  0  0  0  0  0  0  0  0  0  0
   64.8297   31.5132   49.5903 H   0  0  0  0  0  0  0  0  0  0  0  0
   62.0018   30.6044   48.3258 H   0  0  0  0  0  0  0  0  0  0  0  0
   59.9729   29.9943   47.0122 H   0  0  0  0  0  0  0  0  0  0  0  0
   60.2703   27.6230   46.5319 H   0  0  0  0  0  0  0  0  0  0  0  0
   59.5241   25.5008   47.6046 H   0  0  0  0  0  0  0  0  0  0  0  0
   57.1595   24.7415   47.3710 H   0  0  0  0  0  0  0  0  0  0  0  0
   54.6901   23.9452   43.0603 H   0  0  0  0  0  0  0  0  0  0  0  0
   56.1417   22.5720   41.5633 H   0  0  0  0  0  0  0  0  0  0  0  0
   58.0306   21.2469   42.5198 H   0  0  0  0  0  0  0  0  0  0  0  0
   58.4643   21.2891   44.9792 H   0  0  0  0  0  0  0  0  0  0  0  0
   57.0250   22.6685   46.4792 H   0  0  0  0  0  0  0  0  0  0  0  0
   56.2573   28.2748   45.0407 H   0  0  0  0  0  0  0  0  0  0  0  0
   59.5473   34.1184   45.7579 H   0  0  0  0  0  0  0  0  0  0  0  0
   61.5721   34.7257   47.0775 H   0  0  0  0  0  0  0  0  0  0  0  0
  1  2  1  0
  2  3  2  0
  2  4  2  0
  2  5  1  0
  5  6  2  0
  6  7  1  0
  7  8  2  0
  8  9  1  0
  9 10  2  0
 10 11  1  0
 11 12  1  0
 12 13  2  0
 13 14  1  0
 14 15  2  0
 15 16  1  0
 16 17  1  0
 17 18  1  0
 18 19  2  0
 18 20  2  0
 18 21  1  0
 21 22  2  0
 22 23  1  0
 23 24  2  0
 24 25  1  0
 25 26  2  0
 16 27  2  0
 10 28  1  0
 28 29  2  0
 28 30  1  0
 30 31  1  0
 31 32  2  0
  8 33  1  0
 33 34  2  0
 34  5  1  0
 31  9  1  0
 27 12  1  0
 26 21  1  0
  1 35  1  0
  1 36  1  0
  1 37  1  0
  6 38  1  0
  7 39  1  0
 13 40  1  0
 14 41  1  0
 15 42  1  0
 22 43  1  0
 23 44  1  0
 24 45  1  0
 25 46  1  0
 26 47  1  0
 27 48  1  0
 33 49  1  0
 34 50  1  0
M  CHG  1  17  -1
M  END
>  <UniqueID>  (92) 
85

>  <SMILES>  (92) 
CS(=O)(=O)c1ccc(C2=C(Oc3cccc([N-]S(=O)(=O)c4ccccc4)c3)C(=O)OC2=O)cc1

>  <Energy>  (92) 
94.4610198043192

>  <Genealogy>  (92) 
CS(=O)(=O)c1ccc(C2=C(Oc3cccc([N-]S(=O)(=O)c4ccccc4)c3)C(=O)OC2=O)cc1 (protonated)
CS(=O)(=O)c1ccc(C2=C(Oc3cccc([N-]S(=O)(=O)c4ccccc4)c3)C(=O)OC2=O)cc1 (3D coordinates assigned)
CS(=O)(=O)c1ccc(C2=C(Oc3cccc([N-]S(=O)(=O)c4ccccc4)c3)C(=O)OC2=O)cc1 (nonaromatic ring conformer: 94.4610198043192 kcal/mol)

>  <smiles>  (92) 
CS(=O)(=O)c1ccc(C2=C(Oc3cccc(NS(=O)(=O)c4ccccc4)c3)C(=O)OC2=O)cc1

>  <score_type>  (92) 
oracle

>  <origin>  (92) 
adg

>  <m_score__min__energy>  (92) 
-12.41

>  <m_primary>  (92) 
energy

$$$$
92:0
     RDKit          3D

 44 46  0  0  0  0  0  0  0  0999 V2000
   53.9820   25.3440   45.6360 N   0  0  0  0  0  0  0  0  0  0  0  0
   55.6730   25.3880   45.9830 S   0  0  0  0  0  0  0  0  0  0  0  0
   56.4020   24.6210   44.9170 O   0  0  0  0  0  0  0  0  0  0  0  0
   55.9260   24.7300   47.3100 O   0  0  0  0  0  0  0  0  0  0  0  0
   56.2300   27.0380   45.9490 N   0  0  0  0  0  0  0  0  0  0  0  0
   57.3810   27.2700   45.0660 C   0  0  0  0  0  0  0  0  0  0  0  0
   58.0690   28.6510   45.3400 C   0  0  0  0  0  0  0  0  0  0  0  0
   57.0940   29.8030   45.0660 C   0  0  0  0  0  0  0  0  0  0  0  0
   55.8760   29.5320   44.8580 O   0  0  0  0  0  0  0  0  0  0  0  0
   57.4870   31.1920   45.1250 N   0  0  0  0  0  0  0  0  0  0  0  0
   57.0670   32.0850   44.0400 C   0  0  0  0  0  0  0  0  0  0  0  0
   58.1790   33.0880   43.7480 C   0  0  0  0  0  0  0  0  0  0  0  0
   58.6830   33.7440   45.0090 C   0  0  0  0  0  0  0  0  0  0  0  0
   59.3840   34.9570   44.9170 C   0  0  0  0  0  0  0  0  0  0  0  0
   59.9170   35.5550   46.0620 C   0  0  0  0  0  0  0  0  0  0  0  0
   59.7600   34.9430   47.3080 C   0  0  0  0  0  0  0  0  0  0  0  0
   59.0700   33.7340   47.4130 C   0  0  0  0  0  0  0  0  0  0  0  0
   58.5390   33.1150   46.2680 C   0  0  0  0  0  0  0  0  0  0  0  0
   57.7660   31.8240   46.4230 C   0  0  0  0  0  0  0  0  0  0  0  0
   58.5280   28.6990   46.8200 C   0  0  0  0  0  0  0  0  0  0  0  0
   60.0450   28.5260   46.8350 C   0  0  0  0  0  0  0  0  0  0  0  0
   60.4700   28.1970   45.4140 C   0  0  0  0  0  0  0  0  0  0  0  0
   59.3780   28.7490   44.5160 C   0  0  0  0  0  0  0  0  0  0  0  0
   53.6410   26.3370   45.6910 H   0  0  0  0  0  0  0  0  0  0  0  0
   58.1178   26.4692   45.2268 H   0  0  0  0  0  0  0  0  0  0  0  0
   57.0149   27.2752   44.0287 H   0  0  0  0  0  0  0  0  0  0  0  0
   56.8610   31.4925   43.1364 H   0  0  0  0  0  0  0  0  0  0  0  0
   56.1564   32.6241   44.3403 H   0  0  0  0  0  0  0  0  0  0  0  0
   59.0139   32.5630   43.2610 H   0  0  0  0  0  0  0  0  0  0  0  0
   57.7708   33.8718   43.0930 H   0  0  0  0  0  0  0  0  0  0  0  0
   59.5145   35.4398   43.9372 H   0  0  0  0  0  0  0  0  0  0  0  0
   60.4604   36.5081   45.9822 H   0  0  0  0  0  0  0  0  0  0  0  0
   60.1809   35.4147   48.2082 H   0  0  0  0  0  0  0  0  0  0  0  0
   58.9409   33.2625   48.3984 H   0  0  0  0  0  0  0  0  0  0  0  0
   58.3558   31.1281   47.0378 H   0  0  0  0  0  0  0  0  0  0  0  0
   56.8037   32.0585   46.9015 H   0  0  0  0  0  0  0  0  0  0  0  0
   58.2558   29.6667   47.2666 H   0  0  0  0  0  0  0  0  0  0  0  0
   58.0412   27.9033   47.4030 H   0  0  0  0  0  0  0  0  0  0  0  0
   60.5278   29.4567   47.1675 H   0  0  0  0  0  0  0  0  0  0  0  0
   60.3413   27.7249   47.5282 H   0  0  0  0  0  0  0  0  0  0  0  0
   61.4337   28.6742   45.1825 H   0  0  0  0  0  0  0  0  0  0  0  0
   60.6015   27.1142   45.2718 H   0  0  0  0  0  0  0  0  0  0  0  0
   59.5892   29.7964   44.2545 H   0  0  0  0  0  0  0  0  0  0  0  0
   59.3067   28.1891   43.5719 H   0  0  0  0  0  0  0  0  0  0  0  0
  1  2  1  0
  2  3  2  0
  2  4  2  0
  2  5  1  0
  5  6  1  0
  6  7  1  0
  7  8  1  0
  8  9  2  0
  8 10  1  0
 10 11  1  0
 11 12  1  0
 12 13  1  0
 13 14  2  0
 14 15  1  0
 15 16  2  0
 16 17  1  0
 17 18  2  0
 18 19  1  0
  7 20  1  0
 20 21  1  0
 21 22  1  0
 22 23  1  0
 23  7  1  0
 19 10  1  0
 18 13  1  0
  1 24  1  0
  6 25  1  0
  6 26  1  0
 11 27  1  0
 11 28  1  0
 12 29  1  0
 12 30  1  0
 14 31  1  0
 15 32  1  0
 16 33  1  0
 17 34  1  0
 19 35  1  0
 19 36  1  0
 20 37  1  0
 20 38  1  0
 21 39  1  0
 21 40  1  0
 22 41  1  0
 22 42  1  0
 23 43  1  0
 23 44  1  0
M  CHG  2   1  -1   5  -1
M  END
>  <UniqueID>  (93) 
86

>  <SMILES>  (93) 
[NH-]S(=O)(=O)[N-]CC1(C(=O)N2CCc3ccccc3C2)CCCC1

>  <Energy>  (93) 
55.675642360274374

>  <Genealogy>  (93) 
[NH-]S(=O)(=O)[N-]CC1(C(=O)N2CCc3ccccc3C2)CCCC1 (protonated)
[NH-]S(=O)(=O)[N-]CC1(C(=O)N2CCc3ccccc3C2)CCCC1 (3D coordinates assigned)
[NH-]S(=O)(=O)[N-]CC1(C(=O)N2CCc3ccccc3C2)CCCC1 (nonaromatic ring conformer: 55.675642360274374 kcal/mol)

>  <smiles>  (93) 
NS(=O)(=O)NCC1(C(=O)N2CCc3ccccc3C2)CCCC1

>  <score_type>  (93) 
oracle

>  <origin>  (93) 
adg

>  <m_score__min__energy>  (93) 
-13.4

>  <m_primary>  (93) 
energy

$$$$
