0:0
     RDKit          3D

 36 38  0  0  0  0  0  0  0  0999 V2000
   54.0210   26.3230   46.3890 H   0  0  0  0  0  0  0  0  0  0  0  0
   54.9050   26.3400   45.8940 O   0  0  0  0  0  0  0  0  0  0  0  0
   55.9700   25.5020   46.2230 C   0  0  0  0  0  0  0  0  0  0  0  0
   55.7560   24.4940   47.1080 N   0  0  0  0  0  0  0  0  0  0  0  0
   56.7530   23.6460   47.4680 C   0  0  0  0  0  0  0  0  0  0  0  0
   56.5230   22.7180   48.2870 O   0  0  0  0  0  0  0  0  0  0  0  0
   57.9960   23.8000   46.9500 N   0  0  0  0  0  0  0  0  0  0  0  0
   58.2690   24.7900   46.0620 C   0  0  0  0  0  0  0  0  0  0  0  0
   59.4420   24.9150   45.6160 O   0  0  0  0  0  0  0  0  0  0  0  0
   57.2480   25.6680   45.6540 C   0  0  0  0  0  0  0  0  0  0  0  0
   57.5300   26.7820   44.7290 C   0  0  0  0  0  0  0  0  0  0  0  0
   57.3355   26.6108   43.6599 H   0  0  0  0  0  0  0  0  0  0  0  0
   58.0060   27.9920   45.0840 C   0  0  0  0  0  0  0  0  0  0  0  0
   59.2820   28.1740   45.5920 C   0  0  0  0  0  0  0  0  0  0  0  0
   60.0200   27.3868   45.8056 H   0  0  0  0  0  0  0  0  0  0  0  0
   59.4510   29.5300   45.7790 C   0  0  0  0  0  0  0  0  0  0  0  0
   60.6890   30.1720   46.3260 C   0  0  0  0  0  0  0  0  0  0  0  0
   60.6558   30.1548   47.4254 H   0  0  0  0  0  0  0  0  0  0  0  0
   61.5736   29.6190   45.9772 H   0  0  0  0  0  0  0  0  0  0  0  0
   60.7466   31.2136   45.9772 H   0  0  0  0  0  0  0  0  0  0  0  0
   58.3250   30.1930   45.4390 N   0  0  0  0  0  0  0  0  0  0  0  0
   58.1280   31.6130   45.5510 C   0  0  0  0  0  0  0  0  0  0  0  0
   58.1960   32.2270   46.8110 C   0  0  0  0  0  0  0  0  0  0  0  0
   58.4005   31.6204   47.7056 H   0  0  0  0  0  0  0  0  0  0  0  0
   58.0050   33.6060   46.9340 C   0  0  0  0  0  0  0  0  0  0  0  0
   58.0580   34.0820   47.9243 H   0  0  0  0  0  0  0  0  0  0  0  0
   57.7470   34.3800   45.8010 C   0  0  0  0  0  0  0  0  0  0  0  0
   57.5939   35.4648   45.9000 H   0  0  0  0  0  0  0  0  0  0  0  0
   57.6830   33.7780   44.5410 C   0  0  0  0  0  0  0  0  0  0  0  0
   57.4820   34.3909   43.6499 H   0  0  0  0  0  0  0  0  0  0  0  0
   57.8740   32.3970   44.4100 C   0  0  0  0  0  0  0  0  0  0  0  0
   57.8190   31.6740   42.8070 Cl  0  0  0  0  0  0  0  0  0  0  0  0
   57.4180   29.2680   45.0350 C   0  0  0  0  0  0  0  0  0  0  0  0
   56.1410   29.5710   44.7500 C   0  0  0  0  0  0  0  0  0  0  0  0
   55.8123   30.6207   44.7470 H   0  0  0  0  0  0  0  0  0  0  0  0
   55.4238   28.7694   44.5196 H   0  0  0  0  0  0  0  0  0  0  0  0
  1  2  1  0
  2  3  1  0
  3  4  1  0
  4  5  1  0
  5  6  2  0
  5  7  1  0
  7  8  1  0
  8  9  2  0
  8 10  1  0
 10 11  1  0
 11 12  1  0
 11 13  2  0
 13 14  1  0
 14 15  1  0
 14 16  2  0
 16 17  1  0
 17 18  1  0
 17 19  1  0
 17 20  1  0
 16 21  1  0
 21 22  1  0
 22 23  2  0
 23 24  1  0
 23 25  1  0
 25 26  1  0
 25 27  2  0
 27 28  1  0
 27 29  1  0
 29 30  1  0
 29 31  2  0
 31 32  1  0
 21 33  1  0
 33 34  2  0
 34 35  1  0
 34 36  1  0
 10  3  2  0
 33 13  1  0
 31 22  1  0
M  CHG  2   4  -1   7  -1
M  END
>  <UniqueID>  (1) 
1

>  <SMILES>  (1) 
C=c1/c(=C\c2c(O)[n-]c(=O)[n-]c2=O)cc(C)n1-c1ccccc1Cl

>  <Energy>  (1) 
88.2232190080086

>  <Genealogy>  (1) 
C=c1c(=Cc2c(O)[n-]c(=O)[n-]c2=O)cc(C)n1-c1ccccc1Cl (protonated)
C=c1/c(=C\c2c(O)[n-]c(=O)[n-]c2=O)cc(C)n1-c1ccccc1Cl (cis-trans isomerization)
C=c1/c(=C\c2c(O)[n-]c(=O)[n-]c2=O)cc(C)n1-c1ccccc1Cl (3D coordinates assigned)
C=c1/c(=C\c2c(O)[n-]c(=O)[n-]c2=O)cc(C)n1-c1ccccc1Cl (optimized conformer: 88.2232190080086 kcal/mol)

>  <smiles>  (1) 
C=c1c(=Cc2c(O)[nH]c(=O)[nH]c2=O)cc(C)n1-c1ccccc1Cl

>  <score_type>  (1) 
oracle

>  <origin>  (1) 
adg

>  <m_score__min__energy>  (1) 
-13.17

>  <m_primary>  (1) 
energy

$$$$
1:0
     RDKit          3D

 50 53  0  0  0  0  0  0  0  0999 V2000
   61.0780   29.1780   52.1090 C   0  0  0  0  0  0  0  0  0  0  0  0
   59.7950   29.9530   51.9960 C   0  0  0  0  0  0  0  0  0  0  0  0
   58.6310   29.2780   52.2430 N   0  0  0  0  0  0  0  0  0  0  0  0
   57.4580   29.9410   52.1670 C   0  0  0  0  0  0  0  0  0  0  0  0
   56.1820   29.4750   52.3690 C   0  0  0  0  0  0  0  0  0  0  0  0
   55.3660   30.5930   52.1550 C   0  0  0  0  0  0  0  0  0  0  0  0
   53.8850   30.6090   52.2530 C   0  0  0  0  0  0  0  0  0  0  0  0
   53.2000   29.5730   52.9160 C   0  0  0  0  0  0  0  0  0  0  0  0
   51.8050   29.5900   53.0080 C   0  0  0  0  0  0  0  0  0  0  0  0
   51.0770   30.6380   52.4400 C   0  0  0  0  0  0  0  0  0  0  0  0
   51.7430   31.6720   51.7780 C   0  0  0  0  0  0  0  0  0  0  0  0
   51.0170   32.7130   51.2110 O   0  0  0  0  0  0  0  0  0  0  0  0
   53.1390   31.6610   51.6850 C   0  0  0  0  0  0  0  0  0  0  0  0
   56.1200   31.6800   51.8410 N   0  0  0  0  0  0  0  0  0  0  0  0
   57.3930   31.2530   51.8550 C   0  0  0  0  0  0  0  0  0  0  0  0
   58.5560   31.9680   51.6070 C   0  0  0  0  0  0  0  0  0  0  0  0
   58.4900   33.1940   51.3170 O   0  0  0  0  0  0  0  0  0  0  0  0
   59.7680   31.3100   51.6840 N   0  0  0  0  0  0  0  0  0  0  0  0
   61.0070   32.0580   51.3870 C   0  0  0  0  0  0  0  0  0  0  0  0
   61.0600   32.4250   49.9320 C   0  0  0  0  0  0  0  0  0  0  0  0
   61.7010   31.6940   49.1290 O   0  0  0  0  0  0  0  0  0  0  0  0
   60.3590   33.5780   49.4500 N   0  0  0  0  0  0  0  0  0  0  0  0
   60.3460   33.9240   48.0280 C   0  0  0  0  0  0  0  0  0  0  0  0
   58.9240   34.2130   47.5280 C   0  0  0  0  0  0  0  0  0  0  0  0
   58.3790   33.0710   46.7100 C   0  0  0  0  0  0  0  0  0  0  0  0
   58.6640   31.7410   47.0570 C   0  0  0  0  0  0  0  0  0  0  0  0
   58.1300   30.7000   46.2940 C   0  0  0  0  0  0  0  0  0  0  0  0
   57.3370   30.9760   45.2240 N   0  0  0  0  0  0  0  0  0  0  0  0
   57.0410   32.2540   44.8670 C   0  0  0  0  0  0  0  0  0  0  0  0
   57.5550   33.3240   45.6030 C   0  0  0  0  0  0  0  0  0  0  0  0
   61.3242   29.0293   53.1707 H   0  0  0  0  0  0  0  0  0  0  0  0
   60.9600   28.2000   51.6195 H   0  0  0  0  0  0  0  0  0  0  0  0
   61.8887   29.7376   51.6195 H   0  0  0  0  0  0  0  0  0  0  0  0
   55.8712   28.4547   52.6380 H   0  0  0  0  0  0  0  0  0  0  0  0
   53.7666   28.7439   53.3650 H   0  0  0  0  0  0  0  0  0  0  0  0
   51.2795   28.7761   53.5290 H   0  0  0  0  0  0  0  0  0  0  0  0
   49.9795   30.6490   52.5140 H   0  0  0  0  0  0  0  0  0  0  0  0
   53.6580   32.4795   51.1647 H   0  0  0  0  0  0  0  0  0  0  0  0
   55.7940   32.6530   51.6480 H   0  0  0  0  0  0  0  0  0  0  0  0
   61.0309   32.9754   51.9934 H   0  0  0  0  0  0  0  0  0  0  0  0
   61.8732   31.4239   51.6271 H   0  0  0  0  0  0  0  0  0  0  0  0
   59.8410   34.1720   50.1370 H   0  0  0  0  0  0  0  0  0  0  0  0
   60.9673   34.8184   47.8729 H   0  0  0  0  0  0  0  0  0  0  0  0
   60.7412   33.0672   47.4626 H   0  0  0  0  0  0  0  0  0  0  0  0
   58.2672   34.3758   48.3952 H   0  0  0  0  0  0  0  0  0  0  0  0
   58.9602   35.1070   46.8881 H   0  0  0  0  0  0  0  0  0  0  0  0
   59.3037   31.5200   47.9242 H   0  0  0  0  0  0  0  0  0  0  0  0
   58.3511   29.6555   46.5589 H   0  0  0  0  0  0  0  0  0  0  0  0
   56.3956   32.4456   43.9971 H   0  0  0  0  0  0  0  0  0  0  0  0
   57.3153   34.3586   45.3165 H   0  0  0  0  0  0  0  0  0  0  0  0
  1  2  1  0
  2  3  2  0
  3  4  1  0
  4  5  1  0
  5  6  2  0
  6  7  1  0
  7  8  2  0
  8  9  1  0
  9 10  2  0
 10 11  1  0
 11 12  1  0
 11 13  2  0
  6 14  1  0
 14 15  1  0
 15 16  1  0
 16 17  2  0
 16 18  1  0
 18 19  1  0
 19 20  1  0
 20 21  2  0
 20 22  1  0
 22 23  1  0
 23 24  1  0
 24 25  1  0
 25 26  2  0
 26 27  1  0
 27 28  2  0
 28 29  1  0
 29 30  2  0
 18  2  1  0
 30 25  1  0
 15  4  2  0
 13  7  1  0
  1 31  1  0
  1 32  1  0
  1 33  1  0
  5 34  1  0
  8 35  1  0
  9 36  1  0
 10 37  1  0
 13 38  1  0
 14 39  1  0
 19 40  1  0
 19 41  1  0
 22 42  1  0
 23 43  1  0
 23 44  1  0
 24 45  1  0
 24 46  1  0
 26 47  1  0
 27 48  1  0
 29 49  1  0
 30 50  1  0
M  CHG  1  12  -1
M  END
>  <UniqueID>  (2) 
2

>  <SMILES>  (2) 
Cc1nc2cc(-c3cccc([O-])c3)[nH]c2c(=O)n1CC(=O)NCCc1ccncc1

>  <Energy>  (2) 
91.55148460072606

>  <Genealogy>  (2) 
Cc1nc2cc(-c3cccc([O-])c3)[nH]c2c(=O)n1CC(=O)NCCc1ccncc1 (protonated)
Cc1nc2cc(-c3cccc([O-])c3)[nH]c2c(=O)n1CC(=O)NCCc1ccncc1 (3D coordinates assigned)
Cc1nc2cc(-c3cccc([O-])c3)[nH]c2c(=O)n1CC(=O)NCCc1ccncc1 (optimized conformer: 91.55148460072606 kcal/mol)

>  <smiles>  (2) 
Cc1nc2cc(-c3cccc(O)c3)[nH]c2c(=O)n1CC(=O)NCCc1ccncc1

>  <score_type>  (2) 
oracle

>  <origin>  (2) 
adg

>  <m_score__min__energy>  (2) 
-12.43

>  <m_primary>  (2) 
energy

$$$$
2:0
     RDKit          3D

 45 48  0  0  0  0  0  0  0  0999 V2000
   56.1197   29.8732   42.1958 H   0  0  0  0  0  0  0  0  0  0  0  0
   56.6940   30.7880   42.4040 C   0  0  0  0  0  0  0  0  0  0  0  0
   56.8542   31.5299   41.6078 H   0  0  0  0  0  0  0  0  0  0  0  0
   57.1970   30.9980   43.6240 C   0  0  0  0  0  0  0  0  0  0  0  0
   58.0850   32.3680   44.0240 S   0  0  0  0  0  0  0  0  0  0  0  0
   58.3430   31.9660   45.6330 C   0  0  0  0  0  0  0  0  0  0  0  0
   59.1410   32.7660   46.5820 C   0  0  0  0  0  0  0  0  0  0  0  0
   58.5700   33.6850   47.2290 O   0  0  0  0  0  0  0  0  0  0  0  0
   60.5490   32.5330   46.7790 N   0  0  0  0  0  0  0  0  0  0  0  0
   61.4310   33.6850   47.0190 C   0  0  0  0  0  0  0  0  0  0  0  0
   61.3642   34.3713   46.1620 H   0  0  0  0  0  0  0  0  0  0  0  0
   61.1057   34.1827   47.9445 H   0  0  0  0  0  0  0  0  0  0  0  0
   62.8860   33.2480   47.1940 C   0  0  0  0  0  0  0  0  0  0  0  0
   63.2930   32.9304   46.2227 H   0  0  0  0  0  0  0  0  0  0  0  0
   63.4782   34.0901   47.5814 H   0  0  0  0  0  0  0  0  0  0  0  0
   62.9490   32.1270   48.1420 N   0  0  0  0  0  0  0  0  0  0  0  0
   63.8240   32.1820   49.2830 C   0  0  0  0  0  0  0  0  0  0  0  0
   63.6050   31.3440   50.3910 C   0  0  0  0  0  0  0  0  0  0  0  0
   62.7652   30.6336   50.3820 H   0  0  0  0  0  0  0  0  0  0  0  0
   64.4490   31.4090   51.5040 C   0  0  0  0  0  0  0  0  0  0  0  0
   64.2737   30.7476   52.3653 H   0  0  0  0  0  0  0  0  0  0  0  0
   65.5140   32.3120   51.5240 C   0  0  0  0  0  0  0  0  0  0  0  0
   66.1768   32.3612   52.4005 H   0  0  0  0  0  0  0  0  0  0  0  0
   65.7380   33.1530   50.4310 C   0  0  0  0  0  0  0  0  0  0  0  0
   66.5768   33.8645   50.4478 H   0  0  0  0  0  0  0  0  0  0  0  0
   64.8970   33.0910   49.3160 C   0  0  0  0  0  0  0  0  0  0  0  0
   65.0755   33.7572   48.4591 H   0  0  0  0  0  0  0  0  0  0  0  0
   62.0490   30.9750   47.9720 C   0  0  0  0  0  0  0  0  0  0  0  0
   62.6541   30.0723   47.8017 H   0  0  0  0  0  0  0  0  0  0  0  0
   61.4420   30.8772   48.8841 H   0  0  0  0  0  0  0  0  0  0  0  0
   61.0980   31.1670   46.7840 C   0  0  0  0  0  0  0  0  0  0  0  0
   61.6490   30.9948   45.8476 H   0  0  0  0  0  0  0  0  0  0  0  0
   60.2683   30.4503   46.8728 H   0  0  0  0  0  0  0  0  0  0  0  0
   57.7570   30.7300   45.8800 C   0  0  0  0  0  0  0  0  0  0  0  0
   57.8094   30.2270   46.8568 H   0  0  0  0  0  0  0  0  0  0  0  0
   57.0880   30.1770   44.7650 C   0  0  0  0  0  0  0  0  0  0  0  0
   56.4640   28.9800   44.7860 C   0  0  0  0  0  0  0  0  0  0  0  0
   55.5487   28.8681   44.1863 H   0  0  0  0  0  0  0  0  0  0  0  0
   56.9270   27.8120   45.5590 C   0  0  0  0  0  0  0  0  0  0  0  0
   58.2260   27.5220   45.7510 N   0  0  0  0  0  0  0  0  0  0  0  0
   58.1890   26.3470   46.4160 C   0  0  0  0  0  0  0  0  0  0  0  0
   59.2310   25.7480   46.7930 O   0  0  0  0  0  0  0  0  0  0  0  0
   56.9510   25.8570   46.6340 N   0  0  0  0  0  0  0  0  0  0  0  0
   56.1630   26.7890   46.0750 C   0  0  0  0  0  0  0  0  0  0  0  0
   54.7790   26.6810   46.0020 O   0  0  0  0  0  0  0  0  0  0  0  0
  1  2  1  0
  2  3  1  0
  2  4  2  0
  4  5  1  0
  5  6  1  0
  6  7  1  0
  7  8  2  0
  7  9  1  0
  9 10  1  0
 10 11  1  0
 10 12  1  0
 10 13  1  0
 13 14  1  0
 13 15  1  0
 13 16  1  0
 16 17  1  0
 17 18  2  0
 18 19  1  0
 18 20  1  0
 20 21  1  0
 20 22  2  0
 22 23  1  0
 22 24  1  0
 24 25  1  0
 24 26  2  0
 26 27  1  0
 16 28  1  0
 28 29  1  0
 28 30  1  0
 28 31  1  0
 31 32  1  0
 31 33  1  0
  6 34  2  0
 34 35  1  0
 34 36  1  0
 36 37  2  0
 37 38  1  0
 37 39  1  0
 39 40  1  0
 40 41  1  0
 41 42  2  0
 41 43  1  0
 43 44  1  0
 44 45  1  0
 36  4  1  0
 44 39  2  0
 31  9  1  0
 26 17  1  0
M  CHG  3  40  -1  43  -1  45  -1
M  END
>  <UniqueID>  (3) 
3

>  <SMILES>  (3) 
C=c1sc(C(=O)N2CCN(c3ccccc3)CC2)c/c1=C\c1[n-]c(=O)[n-]c1[O-]

>  <Energy>  (3) 
120.30102680887423

>  <Genealogy>  (3) 
C=c1sc(C(=O)N2CCN(c3ccccc3)CC2)cc1=Cc1[n-]c(=O)[n-]c1[O-] (protonated)
C=c1sc(C(=O)N2CCN(c3ccccc3)CC2)c/c1=C\c1[n-]c(=O)[n-]c1[O-] (cis-trans isomerization)
C=c1sc(C(=O)N2CCN(c3ccccc3)CC2)c/c1=C\c1[n-]c(=O)[n-]c1[O-] (3D coordinates assigned)
C=c1sc(C(=O)N2CCN(c3ccccc3)CC2)c/c1=C\c1[n-]c(=O)[n-]c1[O-] (nonaromatic ring conformer: 120.30102680887423 kcal/mol)

>  <smiles>  (3) 
C=c1sc(C(=O)N2CCN(c3ccccc3)CC2)cc1=Cc1[nH]c(=O)[nH]c1O

>  <score_type>  (3) 
oracle

>  <origin>  (3) 
adg

>  <m_score__min__energy>  (3) 
-17.800000000000001

>  <m_primary>  (3) 
energy

$$$$
3:0
     RDKit          3D

 37 39  0  0  0  0  0  0  0  0999 V2000
   66.3656   33.8115   51.5310 H   0  0  0  0  0  0  0  0  0  0  0  0
   65.4650   33.6440   50.9220 C   0  0  0  0  0  0  0  0  0  0  0  0
   65.5300   32.8260   49.7910 C   0  0  0  0  0  0  0  0  0  0  0  0
   66.4812   32.3501   49.5105 H   0  0  0  0  0  0  0  0  0  0  0  0
   64.3850   32.6120   49.0150 C   0  0  0  0  0  0  0  0  0  0  0  0
   64.4363   31.9684   48.1244 H   0  0  0  0  0  0  0  0  0  0  0  0
   63.1730   33.2180   49.3730 C   0  0  0  0  0  0  0  0  0  0  0  0
   61.9950   33.0000   48.5740 C   0  0  0  0  0  0  0  0  0  0  0  0
   61.0080   32.8190   47.9070 C   0  0  0  0  0  0  0  0  0  0  0  0
   59.8280   32.6080   47.1140 C   0  0  0  0  0  0  0  0  0  0  0  0
   59.1970   31.1030   46.7170 S   0  0  0  0  0  0  0  0  0  0  0  0
   57.9200   31.7710   45.8350 C   0  0  0  0  0  0  0  0  0  0  0  0
   56.9850   31.1190   45.2080 N   0  0  0  0  0  0  0  0  0  0  0  0
   57.1390   30.2060   44.1090 C   0  0  0  0  0  0  0  0  0  0  0  0
   56.4710   30.3320   43.0480 O   0  0  0  0  0  0  0  0  0  0  0  0
   58.1510   29.1100   44.2110 C   0  0  0  0  0  0  0  0  0  0  0  0
   58.2756   28.6367   43.2259 H   0  0  0  0  0  0  0  0  0  0  0  0
   59.1092   29.5340   44.5456 H   0  0  0  0  0  0  0  0  0  0  0  0
   57.6960   28.0810   45.2020 C   0  0  0  0  0  0  0  0  0  0  0  0
   56.4020   27.6630   45.1910 N   0  0  0  0  0  0  0  0  0  0  0  0
   55.9650   26.7110   46.0550 C   0  0  0  0  0  0  0  0  0  0  0  0
   54.7620   26.3430   46.0290 O   0  0  0  0  0  0  0  0  0  0  0  0
   56.8260   26.1550   46.9470 N   0  0  0  0  0  0  0  0  0  0  0  0
   58.1290   26.5340   46.9880 C   0  0  0  0  0  0  0  0  0  0  0  0
   58.9100   26.0020   47.8190 O   0  0  0  0  0  0  0  0  0  0  0  0
   58.5970   27.5100   46.1080 C   0  0  0  0  0  0  0  0  0  0  0  0
   59.6511   27.8239   46.1258 H   0  0  0  0  0  0  0  0  0  0  0  0
   57.9640   33.1220   45.8370 N   0  0  0  0  0  0  0  0  0  0  0  0
   59.0220   33.5950   46.5500 C   0  0  0  0  0  0  0  0  0  0  0  0
   59.2890   35.0610   46.6820 C   0  0  0  0  0  0  0  0  0  0  0  0
   59.3380   35.3303   47.7474 H   0  0  0  0  0  0  0  0  0  0  0  0
   60.2463   35.3044   46.1978 H   0  0  0  0  0  0  0  0  0  0  0  0
   58.4790   35.6263   46.1978 H   0  0  0  0  0  0  0  0  0  0  0  0
   63.1110   34.0380   50.5070 C   0  0  0  0  0  0  0  0  0  0  0  0
   62.1610   34.5154   50.7890 H   0  0  0  0  0  0  0  0  0  0  0  0
   64.2570   34.2500   51.2810 C   0  0  0  0  0  0  0  0  0  0  0  0
   64.2078   34.8933   52.1719 H   0  0  0  0  0  0  0  0  0  0  0  0
  1  2  1  0
  2  3  2  0
  3  4  1  0
  3  5  1  0
  5  6  1  0
  5  7  2  0
  7  8  1  0
  8  9  3  0
  9 10  1  0
 10 11  1  0
 11 12  1  0
 12 13  2  0
 13 14  1  0
 14 15  2  0
 14 16  1  0
 16 17  1  0
 16 18  1  0
 16 19  1  0
 19 20  1  0
 20 21  1  0
 21 22  2  0
 21 23  1  0
 23 24  1  0
 24 25  2  0
 24 26  1  0
 26 27  1  0
 12 28  1  0
 28 29  1  0
 29 30  1  0
 30 31  1  0
 30 32  1  0
 30 33  1  0
  7 34  1  0
 34 35  1  0
 34 36  2  0
 36 37  1  0
 36  2  1  0
 29 10  2  0
 26 19  2  0
M  CHG  3  20  -1  23  -1  28  -1
M  END
>  <UniqueID>  (4) 
4

>  <SMILES>  (4) 
Cc1[n-]/c(=N/C(=O)Cc2cc(=O)[n-]c(=O)[n-]2)sc1C#Cc1ccccc1

>  <Energy>  (4) 
67.21213040143392

>  <Genealogy>  (4) 
Cc1[n-]c(=NC(=O)Cc2cc(=O)[n-]c(=O)[n-]2)sc1C#Cc1ccccc1 (protonated)
Cc1[n-]/c(=N/C(=O)Cc2cc(=O)[n-]c(=O)[n-]2)sc1C#Cc1ccccc1 (cis-trans isomerization)
Cc1[n-]/c(=N/C(=O)Cc2cc(=O)[n-]c(=O)[n-]2)sc1C#Cc1ccccc1 (3D coordinates assigned)
Cc1[n-]/c(=N/C(=O)Cc2cc(=O)[n-]c(=O)[n-]2)sc1C#Cc1ccccc1 (optimized conformer: 67.21213040143392 kcal/mol)

>  <smiles>  (4) 
Cc1[nH]c(=NC(=O)Cc2cc(=O)[nH]c(=O)[nH]2)sc1C#Cc1ccccc1

>  <score_type>  (4) 
oracle

>  <origin>  (4) 
adg

>  <m_score__min__energy>  (4) 
-13.890000000000001

>  <m_primary>  (4) 
energy

$$$$
4:0
     RDKit          3D

 45 47  0  0  0  0  0  0  0  0999 V2000
   59.5220   34.3330   46.0000 C   0  0  0  0  0  0  0  0  0  0  0  0
   58.8630   33.4900   45.2110 C   0  0  0  0  0  0  0  0  0  0  0  0
   58.8720   33.5320   43.7940 N   0  0  0  0  0  0  0  0  0  0  0  0
   58.0360   32.4530   43.3570 C   0  0  0  0  0  0  0  0  0  0  0  0
   57.7940   32.1800   41.9050 C   0  0  0  0  0  0  0  0  0  0  0  0
   57.5250   31.7600   44.3930 C   0  0  0  0  0  0  0  0  0  0  0  0
   56.6210   30.5890   44.3470 C   0  0  0  0  0  0  0  0  0  0  0  0
   55.3830   30.7620   44.5150 O   0  0  0  0  0  0  0  0  0  0  0  0
   57.1420   29.2670   44.1710 N   0  0  0  0  0  0  0  0  0  0  0  0
   57.5740   28.3740   45.2090 C   0  0  0  0  0  0  0  0  0  0  0  0
   58.5130   28.8300   46.1380 C   0  0  0  0  0  0  0  0  0  0  0  0
   58.9680   27.9880   47.1540 C   0  0  0  0  0  0  0  0  0  0  0  0
   58.4970   26.6720   47.2480 C   0  0  0  0  0  0  0  0  0  0  0  0
   58.9670   25.8440   48.2660 O   0  0  0  0  0  0  0  0  0  0  0  0
   57.5610   26.1950   46.3080 C   0  0  0  0  0  0  0  0  0  0  0  0
   56.9280   24.5400   46.3870 S   0  0  0  0  0  0  0  0  0  0  0  0
   57.4760   23.8670   47.6140 O   0  0  0  0  0  0  0  0  0  0  0  0
   55.4290   24.5710   46.5130 O   0  0  0  0  0  0  0  0  0  0  0  0
   57.3650   23.6060   44.9730 N   0  0  0  0  0  0  0  0  0  0  0  0
   57.4820   22.1640   45.2800 C   0  0  0  0  0  0  0  0  0  0  0  0
   56.2670   21.3660   44.7700 C   0  0  0  0  0  0  0  0  0  0  0  0
   56.0650   21.4840   43.3680 O   0  0  0  0  0  0  0  0  0  0  0  0
   56.4610   22.7410   42.8330 C   0  0  0  0  0  0  0  0  0  0  0  0
   56.4420   23.8870   43.8570 C   0  0  0  0  0  0  0  0  0  0  0  0
   57.1230   27.0460   45.2820 C   0  0  0  0  0  0  0  0  0  0  0  0
   58.0220   32.3840   45.6200 C   0  0  0  0  0  0  0  0  0  0  0  0
   57.7700   32.0310   46.8030 O   0  0  0  0  0  0  0  0  0  0  0  0
   59.4586   34.2269   47.0930 H   0  0  0  0  0  0  0  0  0  0  0  0
   60.1307   35.1366   45.5598 H   0  0  0  0  0  0  0  0  0  0  0  0
   59.3820   34.2140   43.1890 H   0  0  0  0  0  0  0  0  0  0  0  0
   57.0675   31.3605   41.8021 H   0  0  0  0  0  0  0  0  0  0  0  0
   57.3962   33.0853   41.4230 H   0  0  0  0  0  0  0  0  0  0  0  0
   58.7404   31.8937   41.4230 H   0  0  0  0  0  0  0  0  0  0  0  0
   58.8959   29.8588   46.0682 H   0  0  0  0  0  0  0  0  0  0  0  0
   59.7008   28.3600   47.8852 H   0  0  0  0  0  0  0  0  0  0  0  0
   58.3860   25.1220   48.6770 H   0  0  0  0  0  0  0  0  0  0  0  0
   58.3913   21.7714   44.8013 H   0  0  0  0  0  0  0  0  0  0  0  0
   57.5283   22.0516   46.3733 H   0  0  0  0  0  0  0  0  0  0  0  0
   56.4200   20.3040   45.0125 H   0  0  0  0  0  0  0  0  0  0  0  0
   55.3752   21.7796   45.2636 H   0  0  0  0  0  0  0  0  0  0  0  0
   57.4841   22.6438   42.4408 H   0  0  0  0  0  0  0  0  0  0  0  0
   55.7319   22.9993   42.0509 H   0  0  0  0  0  0  0  0  0  0  0  0
   56.7491   24.8195   43.3608 H   0  0  0  0  0  0  0  0  0  0  0  0
   55.4225   23.9853   44.2581 H   0  0  0  0  0  0  0  0  0  0  0  0
   56.4184   26.6687   44.5263 H   0  0  0  0  0  0  0  0  0  0  0  0
  1  2  2  0
  2  3  1  0
  3  4  1  0
  4  5  1  0
  4  6  2  0
  6  7  1  0
  7  8  2  0
  7  9  1  0
  9 10  1  0
 10 11  2  0
 11 12  1  0
 12 13  2  0
 13 14  1  0
 13 15  1  0
 15 16  1  0
 16 17  2  0
 16 18  2  0
 16 19  1  0
 19 20  1  0
 20 21  1  0
 21 22  1  0
 22 23  1  0
 23 24  1  0
 15 25  2  0
  6 26  1  0
 26 27  2  0
 26  2  1  0
 25 10  1  0
 24 19  1  0
  1 28  1  0
  1 29  1  0
  3 30  1  0
  5 31  1  0
  5 32  1  0
  5 33  1  0
 11 34  1  0
 12 35  1  0
 14 36  1  0
 20 37  1  0
 20 38  1  0
 21 39  1  0
 21 40  1  0
 23 41  1  0
 23 42  1  0
 24 43  1  0
 24 44  1  0
 25 45  1  0
M  CHG  1   9  -1
M  END
>  <UniqueID>  (5) 
5

>  <SMILES>  (5) 
C=C1NC(C)=C(C(=O)[N-]c2ccc(O)c(S(=O)(=O)N3CCOCC3)c2)C1=O

>  <Energy>  (5) 
86.8693224543014

>  <Genealogy>  (5) 
C=C1NC(C)=C(C(=O)[N-]c2ccc(O)c(S(=O)(=O)N3CCOCC3)c2)C1=O (protonated)
C=C1NC(C)=C(C(=O)[N-]c2ccc(O)c(S(=O)(=O)N3CCOCC3)c2)C1=O (3D coordinates assigned)
C=C1NC(C)=C(C(=O)[N-]c2ccc(O)c(S(=O)(=O)N3CCOCC3)c2)C1=O (nonaromatic ring conformer: 86.8693224543014 kcal/mol)

>  <smiles>  (5) 
C=C1NC(C)=C(C(=O)Nc2ccc(O)c(S(=O)(=O)N3CCOCC3)c2)C1=O

>  <score_type>  (5) 
oracle

>  <origin>  (5) 
adg

>  <m_score__min__energy>  (5) 
-10.17

>  <m_primary>  (5) 
energy

$$$$
5:0
     RDKit          3D

 38 40  0  0  0  0  0  0  0  0999 V2000
   55.8670   22.7940   42.6540 C   0  0  0  0  0  0  0  0  0  0  0  0
   56.8190   23.1530   43.7560 C   0  0  0  0  0  0  0  0  0  0  0  0
   57.8940   22.3070   44.0650 C   0  0  0  0  0  0  0  0  0  0  0  0
   58.7710   22.6350   45.1010 C   0  0  0  0  0  0  0  0  0  0  0  0
   58.5690   23.7970   45.8490 C   0  0  0  0  0  0  0  0  0  0  0  0
   57.4760   24.6310   45.5830 C   0  0  0  0  0  0  0  0  0  0  0  0
   57.3120   25.8210   46.3680 N   0  0  0  0  0  0  0  0  0  0  0  0
   56.4320   26.9170   46.0860 C   0  0  0  0  0  0  0  0  0  0  0  0
   55.1900   26.7170   45.9990 O   0  0  0  0  0  0  0  0  0  0  0  0
   56.9750   28.2980   45.9590 C   0  0  0  0  0  0  0  0  0  0  0  0
   56.3310   29.2570   45.1570 C   0  0  0  0  0  0  0  0  0  0  0  0
   55.1570   28.9490   44.4730 O   0  0  0  0  0  0  0  0  0  0  0  0
   56.8420   30.5080   45.0560 N   0  0  0  0  0  0  0  0  0  0  0  0
   57.9700   30.8730   45.7120 C   0  0  0  0  0  0  0  0  0  0  0  0
   58.3910   32.0560   45.5920 O   0  0  0  0  0  0  0  0  0  0  0  0
   58.6320   29.9720   46.5010 N   0  0  0  0  0  0  0  0  0  0  0  0
   59.8340   30.3670   47.1950 C   0  0  0  0  0  0  0  0  0  0  0  0
   60.9480   30.8310   46.4750 C   0  0  0  0  0  0  0  0  0  0  0  0
   62.1110   31.2150   47.1490 C   0  0  0  0  0  0  0  0  0  0  0  0
   62.1710   31.1380   48.5430 C   0  0  0  0  0  0  0  0  0  0  0  0
   61.0660   30.6790   49.2670 C   0  0  0  0  0  0  0  0  0  0  0  0
   59.9010   30.2930   48.5970 C   0  0  0  0  0  0  0  0  0  0  0  0
   58.1550   28.6900   46.6270 C   0  0  0  0  0  0  0  0  0  0  0  0
   58.7920   27.8510   47.3240 O   0  0  0  0  0  0  0  0  0  0  0  0
   56.6080   24.3110   44.5220 C   0  0  0  0  0  0  0  0  0  0  0  0
   54.9213   22.4374   43.0881 H   0  0  0  0  0  0  0  0  0  0  0  0
   55.6738   23.6810   42.0328 H   0  0  0  0  0  0  0  0  0  0  0  0
   56.3077   22.0003   42.0328 H   0  0  0  0  0  0  0  0  0  0  0  0
   58.0468   21.3821   43.4895 H   0  0  0  0  0  0  0  0  0  0  0  0
   59.6226   21.9769   45.3284 H   0  0  0  0  0  0  0  0  0  0  0  0
   59.2732   24.0588   46.6525 H   0  0  0  0  0  0  0  0  0  0  0  0
   54.7600   28.0180   44.5110 H   0  0  0  0  0  0  0  0  0  0  0  0
   60.9048   30.8923   45.3776 H   0  0  0  0  0  0  0  0  0  0  0  0
   62.9802   31.5783   46.5812 H   0  0  0  0  0  0  0  0  0  0  0  0
   63.0879   31.4386   49.0712 H   0  0  0  0  0  0  0  0  0  0  0  0
   61.1134   30.6216   50.3645 H   0  0  0  0  0  0  0  0  0  0  0  0
   59.0342   29.9303   49.1689 H   0  0  0  0  0  0  0  0  0  0  0  0
   55.7594   24.9719   44.2915 H   0  0  0  0  0  0  0  0  0  0  0  0
  1  2  1  0
  2  3  2  0
  3  4  1  0
  4  5  2  0
  5  6  1  0
  6  7  1  0
  7  8  1  0
  8  9  2  0
  8 10  1  0
 10 11  2  0
 11 12  1  0
 11 13  1  0
 13 14  1  0
 14 15  2  0
 14 16  1  0
 16 17  1  0
 17 18  2  0
 18 19  1  0
 19 20  2  0
 20 21  1  0
 21 22  2  0
 16 23  1  0
 23 24  2  0
  6 25  2  0
 25  2  1  0
 23 10  1  0
 22 17  1  0
  1 26  1  0
  1 27  1  0
  1 28  1  0
  3 29  1  0
  4 30  1  0
  5 31  1  0
 12 32  1  0
 18 33  1  0
 19 34  1  0
 20 35  1  0
 21 36  1  0
 22 37  1  0
 25 38  1  0
M  CHG  2   7  -1  13  -1
M  END
>  <UniqueID>  (6) 
6

>  <SMILES>  (6) 
Cc1cccc([N-]C(=O)c2c(O)[n-]c(=O)n(-c3ccccc3)c2=O)c1

>  <Energy>  (6) 
58.63935664435297

>  <Genealogy>  (6) 
Cc1cccc([N-]C(=O)c2c(O)[n-]c(=O)n(-c3ccccc3)c2=O)c1 (protonated)
Cc1cccc([N-]C(=O)c2c(O)[n-]c(=O)n(-c3ccccc3)c2=O)c1 (3D coordinates assigned)
Cc1cccc([N-]C(=O)c2c(O)[n-]c(=O)n(-c3ccccc3)c2=O)c1 (optimized conformer: 58.63935664435297 kcal/mol)

>  <smiles>  (6) 
Cc1cccc(NC(=O)c2c(O)[nH]c(=O)n(-c3ccccc3)c2=O)c1

>  <score_type>  (6) 
oracle

>  <origin>  (6) 
adg

>  <m_score__min__energy>  (6) 
-10.869999999999999

>  <m_primary>  (6) 
energy

$$$$
6:0
     RDKit          3D

 42 45  0  0  0  0  0  0  0  0999 V2000
   57.0343   32.1470   52.3370 H   0  0  0  0  0  0  0  0  0  0  0  0
   55.9470   31.9810   52.3530 C   0  0  0  0  0  0  0  0  0  0  0  0
   55.2626   32.7903   52.0586 H   0  0  0  0  0  0  0  0  0  0  0  0
   55.4550   30.7900   52.7320 C   0  0  0  0  0  0  0  0  0  0  0  0
   54.1020   30.4420   52.7990 C   0  0  0  0  0  0  0  0  0  0  0  0
   53.0410   31.2370   52.5620 C   0  0  0  0  0  0  0  0  0  0  0  0
   52.6961   31.8957   53.3727 H   0  0  0  0  0  0  0  0  0  0  0  0
   52.3150   31.2760   51.2800 C   0  0  0  0  0  0  0  0  0  0  0  0
   52.3650   30.0500   50.1270 S   0  0  0  0  0  0  0  0  0  0  0  0
   51.2420   30.8160   49.1390 C   0  0  0  0  0  0  0  0  0  0  0  0
   50.8450   30.3640   48.0350 O   0  0  0  0  0  0  0  0  0  0  0  0
   50.7940   31.9760   49.6630 N   0  0  0  0  0  0  0  0  0  0  0  0
   51.3800   32.2270   50.8630 C   0  0  0  0  0  0  0  0  0  0  0  0
   51.0270   33.3340   51.6240 O   0  0  0  0  0  0  0  0  0  0  0  0
   54.0600   29.1180   53.2130 C   0  0  0  0  0  0  0  0  0  0  0  0
   53.1586   28.5111   53.3836 H   0  0  0  0  0  0  0  0  0  0  0  0
   55.3700   28.7110   53.3690 C   0  0  0  0  0  0  0  0  0  0  0  0
   55.7810   27.3400   53.8130 C   0  0  0  0  0  0  0  0  0  0  0  0
   55.7933   27.2989   54.9122 H   0  0  0  0  0  0  0  0  0  0  0  0
   55.0654   26.5995   53.4264 H   0  0  0  0  0  0  0  0  0  0  0  0
   56.7860   27.1153   53.4264 H   0  0  0  0  0  0  0  0  0  0  0  0
   56.2220   29.7260   53.0910 N   0  0  0  0  0  0  0  0  0  0  0  0
   57.6890   29.6460   53.1120 C   0  0  0  0  0  0  0  0  0  0  0  0
   58.0754   30.2600   53.9388 H   0  0  0  0  0  0  0  0  0  0  0  0
   57.9913   28.5977   53.2526 H   0  0  0  0  0  0  0  0  0  0  0  0
   58.2480   30.1490   51.8180 C   0  0  0  0  0  0  0  0  0  0  0  0
   57.8200   29.7870   50.6340 O   0  0  0  0  0  0  0  0  0  0  0  0
   58.5250   30.3760   49.7120 N   0  0  0  0  0  0  0  0  0  0  0  0
   59.4270   31.1310   50.3770 C   0  0  0  0  0  0  0  0  0  0  0  0
   60.4440   31.9760   49.7050 C   0  0  0  0  0  0  0  0  0  0  0  0
   61.5650   31.4080   49.0680 C   0  0  0  0  0  0  0  0  0  0  0  0
   61.6965   30.3159   49.0641 H   0  0  0  0  0  0  0  0  0  0  0  0
   62.5110   32.2240   48.4410 C   0  0  0  0  0  0  0  0  0  0  0  0
   63.3835   31.7713   47.9471 H   0  0  0  0  0  0  0  0  0  0  0  0
   62.3530   33.6120   48.4390 C   0  0  0  0  0  0  0  0  0  0  0  0
   63.0990   34.2512   47.9442 H   0  0  0  0  0  0  0  0  0  0  0  0
   61.2450   34.1860   49.0670 C   0  0  0  0  0  0  0  0  0  0  0  0
   61.1195   35.2788   49.0661 H   0  0  0  0  0  0  0  0  0  0  0  0
   60.2960   33.3770   49.6960 C   0  0  0  0  0  0  0  0  0  0  0  0
   59.4265   33.8372   50.1881 H   0  0  0  0  0  0  0  0  0  0  0  0
   59.2770   31.0070   51.7130 N   0  0  0  0  0  0  0  0  0  0  0  0
   59.8120   31.4560   52.4870 H   0  0  0  0  0  0  0  0  0  0  0  0
  1  2  1  0
  2  3  1  0
  2  4  2  0
  4  5  1  0
  5  6  2  0
  6  7  1  0
  6  8  1  0
  8  9  1  0
  9 10  1  0
 10 11  2  0
 10 12  1  0
 12 13  1  0
 13 14  1  0
  5 15  1  0
 15 16  1  0
 15 17  2  0
 17 18  1  0
 18 19  1  0
 18 20  1  0
 18 21  1  0
 17 22  1  0
 22 23  1  0
 23 24  1  0
 23 25  1  0
 23 26  1  0
 26 27  1  0
 27 28  1  0
 28 29  2  0
 29 30  1  0
 30 31  2  0
 31 32  1  0
 31 33  1  0
 33 34  1  0
 33 35  2  0
 35 36  1  0
 35 37  1  0
 37 38  1  0
 37 39  2  0
 39 40  1  0
 29 41  1  0
 41 42  1  0
 22  4  1  0
 41 26  2  0
 13  8  2  0
 39 30  1  0
M  CHG  3  12  -1  14  -1  41   1
M  END
>  <UniqueID>  (7) 
7

>  <SMILES>  (7) 
C=c1/c(=C/c2sc(=O)[n-]c2[O-])cc(C)n1Cc1[nH+]c(-c2ccccc2)no1

>  <Energy>  (7) 
147.25866361990353

>  <Genealogy>  (7) 
C=c1c(=Cc2sc(=O)[n-]c2[O-])cc(C)n1Cc1[nH+]c(-c2ccccc2)no1 (protonated)
C=c1/c(=C/c2sc(=O)[n-]c2[O-])cc(C)n1Cc1[nH+]c(-c2ccccc2)no1 (cis-trans isomerization)
C=c1/c(=C/c2sc(=O)[n-]c2[O-])cc(C)n1Cc1[nH+]c(-c2ccccc2)no1 (3D coordinates assigned)
C=c1/c(=C/c2sc(=O)[n-]c2[O-])cc(C)n1Cc1[nH+]c(-c2ccccc2)no1 (optimized conformer: 147.25866361990353 kcal/mol)

>  <smiles>  (7) 
C=c1c(=Cc2sc(=O)[nH]c2O)cc(C)n1Cc1nc(-c2ccccc2)no1

>  <score_type>  (7) 
oracle

>  <origin>  (7) 
adg

>  <m_score__min__energy>  (7) 
-14.17

>  <m_primary>  (7) 
energy

$$$$
7:0
     RDKit          3D

 36 37  0  0  0  0  0  0  0  0999 V2000
   57.4960   26.1890   47.3380 O   0  0  0  0  0  0  0  0  0  0  0  0
   56.6470   26.4210   46.4350 C   0  0  0  0  0  0  0  0  0  0  0  0
   56.9820   27.3890   45.3500 C   0  0  0  0  0  0  0  0  0  0  0  0
   55.9250   28.3840   45.2450 N   0  0  0  0  0  0  0  0  0  0  0  0
   56.1450   29.6920   44.7150 C   0  0  0  0  0  0  0  0  0  0  0  0
   55.1710   30.4600   44.4850 O   0  0  0  0  0  0  0  0  0  0  0  0
   57.5350   30.1340   44.3830 C   0  0  0  0  0  0  0  0  0  0  0  0
   57.8070   31.4790   44.9970 C   0  0  0  0  0  0  0  0  0  0  0  0
   58.1690   31.5810   46.3510 C   0  0  0  0  0  0  0  0  0  0  0  0
   58.4650   32.8280   46.9100 C   0  0  0  0  0  0  0  0  0  0  0  0
   58.4080   33.9800   46.1200 C   0  0  0  0  0  0  0  0  0  0  0  0
   58.0600   33.8850   44.7700 C   0  0  0  0  0  0  0  0  0  0  0  0
   57.7660   32.6400   44.2060 C   0  0  0  0  0  0  0  0  0  0  0  0
   55.4250   25.6690   46.3520 N   0  0  0  0  0  0  0  0  0  0  0  0
   55.2410   24.4530   45.9170 C   0  0  0  0  0  0  0  0  0  0  0  0
   54.1450   23.6510   46.3010 C   0  0  0  0  0  0  0  0  0  0  0  0
   54.0190   22.3620   45.7780 C   0  0  0  0  0  0  0  0  0  0  0  0
   54.9380   21.8850   44.9010 N   0  0  0  0  0  0  0  0  0  0  0  0
   56.0020   22.6330   44.4990 C   0  0  0  0  0  0  0  0  0  0  0  0
   56.9960   22.0660   43.5270 C   0  0  0  0  0  0  0  0  0  0  0  0
   58.2620   22.5310   43.8310 F   0  0  0  0  0  0  0  0  0  0  0  0
   56.6800   22.4410   42.2320 F   0  0  0  0  0  0  0  0  0  0  0  0
   56.9880   20.6860   43.6060 F   0  0  0  0  0  0  0  0  0  0  0  0
   56.1620   23.9330   44.9970 C   0  0  0  0  0  0  0  0  0  0  0  0
   57.9337   27.8882   45.5848 H   0  0  0  0  0  0  0  0  0  0  0  0
   57.0761   26.8515   44.3949 H   0  0  0  0  0  0  0  0  0  0  0  0
   58.2543   29.4012   44.7775 H   0  0  0  0  0  0  0  0  0  0  0  0
   57.6392   30.2080   43.2905 H   0  0  0  0  0  0  0  0  0  0  0  0
   58.2197   30.6758   46.9739 H   0  0  0  0  0  0  0  0  0  0  0  0
   58.7428   32.9026   47.9717 H   0  0  0  0  0  0  0  0  0  0  0  0
   58.6371   34.9613   46.5611 H   0  0  0  0  0  0  0  0  0  0  0  0
   58.0173   34.7922   44.1494 H   0  0  0  0  0  0  0  0  0  0  0  0
   57.5019   32.5689   43.1405 H   0  0  0  0  0  0  0  0  0  0  0  0
   53.3955   24.0382   47.0070 H   0  0  0  0  0  0  0  0  0  0  0  0
   53.1702   21.7302   46.0787 H   0  0  0  0  0  0  0  0  0  0  0  0
   57.0123   24.5469   44.6652 H   0  0  0  0  0  0  0  0  0  0  0  0
  1  2  2  0
  2  3  1  0
  3  4  1  0
  4  5  1  0
  5  6  2  0
  5  7  1  0
  7  8  1  0
  8  9  2  0
  9 10  1  0
 10 11  2  0
 11 12  1  0
 12 13  2  0
  2 14  1  0
 14 15  2  3
 15 16  1  0
 16 17  2  0
 17 18  1  0
 18 19  1  0
 19 20  1  0
 20 21  1  0
 20 22  1  0
 20 23  1  0
 19 24  2  0
 13  8  1  0
 24 15  1  0
  3 25  1  0
  3 26  1  0
  7 27  1  0
  7 28  1  0
  9 29  1  0
 10 30  1  0
 11 31  1  0
 12 32  1  0
 13 33  1  0
 16 34  1  0
 17 35  1  0
 24 36  1  0
M  CHG  2   4  -1  18  -1
M  END
>  <UniqueID>  (8) 
8

>  <SMILES>  (8) 
O=C(C[N-]C(=O)Cc1ccccc1)N=c1cc[n-]c(C(F)(F)F)c1

>  <Energy>  (8) 
38.27568044369561

>  <Genealogy>  (8) 
O=C(C[N-]C(=O)Cc1ccccc1)N=c1cc[n-]c(C(F)(F)F)c1 (protonated)
O=C(C[N-]C(=O)Cc1ccccc1)N=c1cc[n-]c(C(F)(F)F)c1 (3D coordinates assigned)
O=C(C[N-]C(=O)Cc1ccccc1)N=c1cc[n-]c(C(F)(F)F)c1 (optimized conformer: 38.27568044369561 kcal/mol)

>  <smiles>  (8) 
O=C(CNC(=O)Cc1ccccc1)N=c1cc[nH]c(C(F)(F)F)c1

>  <score_type>  (8) 
oracle

>  <origin>  (8) 
adg

>  <m_score__min__energy>  (8) 
-10.609999999999999

>  <m_primary>  (8) 
energy

$$$$
8:0
     RDKit          3D

 34 36  0  0  0  0  0  0  0  0999 V2000
   56.9974   32.1764   43.9114 H   0  0  0  0  0  0  0  0  0  0  0  0
   57.7290   31.7180   44.5930 C   0  0  0  0  0  0  0  0  0  0  0  0
   58.5140   32.5280   45.3100 C   0  0  0  0  0  0  0  0  0  0  0  0
   59.6120   32.1630   46.0690 O   0  0  0  0  0  0  0  0  0  0  0  0
   60.1320   33.3440   46.6120 C   0  0  0  0  0  0  0  0  0  0  0  0
   61.3170   33.3660   47.4950 C   0  0  0  0  0  0  0  0  0  0  0  0
   62.5940   33.0480   47.0000 C   0  0  0  0  0  0  0  0  0  0  0  0
   62.7185   32.7781   45.9409 H   0  0  0  0  0  0  0  0  0  0  0  0
   63.7070   33.0730   47.8470 C   0  0  0  0  0  0  0  0  0  0  0  0
   64.7029   32.8218   47.4531 H   0  0  0  0  0  0  0  0  0  0  0  0
   63.5550   33.4170   49.1940 C   0  0  0  0  0  0  0  0  0  0  0  0
   64.9520   33.4490   50.2540 Cl  0  0  0  0  0  0  0  0  0  0  0  0
   62.2890   33.7350   49.6940 C   0  0  0  0  0  0  0  0  0  0  0  0
   62.1694   34.0055   50.7535 H   0  0  0  0  0  0  0  0  0  0  0  0
   61.1740   33.7100   48.8500 C   0  0  0  0  0  0  0  0  0  0  0  0
   60.1801   33.9609   49.2489 H   0  0  0  0  0  0  0  0  0  0  0  0
   59.4800   34.4180   46.2710 N   0  0  0  0  0  0  0  0  0  0  0  0
   58.4290   33.9630   45.4320 C   0  0  0  0  0  0  0  0  0  0  0  0
   57.5740   34.7160   44.8940 O   0  0  0  0  0  0  0  0  0  0  0  0
   57.7860   30.2400   44.6620 C   0  0  0  0  0  0  0  0  0  0  0  0
   58.9540   29.5190   44.3540 C   0  0  0  0  0  0  0  0  0  0  0  0
   59.8602   30.0564   44.0378 H   0  0  0  0  0  0  0  0  0  0  0  0
   58.9710   28.1240   44.4470 C   0  0  0  0  0  0  0  0  0  0  0  0
   59.8866   27.5703   44.1919 H   0  0  0  0  0  0  0  0  0  0  0  0
   57.8240   27.4240   44.8650 C   0  0  0  0  0  0  0  0  0  0  0  0
   57.7970   26.0250   44.9700 O   0  0  0  0  0  0  0  0  0  0  0  0
   57.2780   25.1530   43.9720 C   0  0  0  0  0  0  0  0  0  0  0  0
   56.7724   24.3035   44.4543 H   0  0  0  0  0  0  0  0  0  0  0  0
   56.5585   25.7002   43.3452 H   0  0  0  0  0  0  0  0  0  0  0  0
   58.1020   24.7814   43.3452 H   0  0  0  0  0  0  0  0  0  0  0  0
   56.6690   28.1440   45.1940 C   0  0  0  0  0  0  0  0  0  0  0  0
   55.5270   27.4710   45.6180 O   0  0  0  0  0  0  0  0  0  0  0  0
   56.6520   29.5390   45.1010 C   0  0  0  0  0  0  0  0  0  0  0  0
   55.7414   30.0923   45.3744 H   0  0  0  0  0  0  0  0  0  0  0  0
  1  2  1  0
  2  3  2  0
  3  4  1  0
  4  5  1  0
  5  6  1  0
  6  7  2  0
  7  8  1  0
  7  9  1  0
  9 10  1  0
  9 11  2  0
 11 12  1  0
 11 13  1  0
 13 14  1  0
 13 15  2  0
 15 16  1  0
  5 17  2  0
 17 18  1  0
 18 19  2  0
  2 20  1  0
 20 21  2  0
 21 22  1  0
 21 23  1  0
 23 24  1  0
 23 25  2  0
 25 26  1  0
 26 27  1  0
 27 28  1  0
 27 29  1  0
 27 30  1  0
 25 31  1  0
 31 32  1  0
 31 33  2  0
 33 34  1  0
 18  3  1  0
 33 20  1  0
 15  6  1  0
M  CHG  1  32  -1
M  END
>  <UniqueID>  (9) 
9

>  <SMILES>  (9) 
COc1ccc(/C=C2\OC(c3ccc(Cl)cc3)=NC2=O)cc1[O-]

>  <Energy>  (9) 
68.94991968654651

>  <Genealogy>  (9) 
COc1ccc(C=C2OC(c3ccc(Cl)cc3)=NC2=O)cc1[O-] (protonated)
COc1ccc(/C=C2\OC(c3ccc(Cl)cc3)=NC2=O)cc1[O-] (cis-trans isomerization)
COc1ccc(/C=C2\OC(c3ccc(Cl)cc3)=NC2=O)cc1[O-] (3D coordinates assigned)
COc1ccc(/C=C2\OC(c3ccc(Cl)cc3)=NC2=O)cc1[O-] (nonaromatic ring conformer: 68.94991968654651 kcal/mol)

>  <smiles>  (9) 
COc1ccc(C=C2OC(c3ccc(Cl)cc3)=NC2=O)cc1O

>  <score_type>  (9) 
oracle

>  <origin>  (9) 
adg

>  <m_score__min__energy>  (9) 
-11.35

>  <m_primary>  (9) 
energy

$$$$
9:0
     RDKit          3D

 42 45  0  0  0  0  0  0  0  0999 V2000
   54.6590   28.3430   53.2270 C   0  0  0  0  0  0  0  0  0  0  0  0
   54.8740   29.5940   52.7970 C   0  0  0  0  0  0  0  0  0  0  0  0
   53.9500   30.4910   52.2390 C   0  0  0  0  0  0  0  0  0  0  0  0
   52.6090   30.4110   52.1410 C   0  0  0  0  0  0  0  0  0  0  0  0
   51.8040   30.8050   50.9750 C   0  0  0  0  0  0  0  0  0  0  0  0
   51.7590   30.1020   49.8300 N   0  0  0  0  0  0  0  0  0  0  0  0
   51.0200   30.8840   49.0130 C   0  0  0  0  0  0  0  0  0  0  0  0
   50.7370   30.5530   47.8330 O   0  0  0  0  0  0  0  0  0  0  0  0
   50.6200   32.0540   49.5550 N   0  0  0  0  0  0  0  0  0  0  0  0
   51.1380   31.9960   50.7930 C   0  0  0  0  0  0  0  0  0  0  0  0
   51.0250   33.0200   51.7260 O   0  0  0  0  0  0  0  0  0  0  0  0
   54.6140   31.5680   51.7680 N   0  0  0  0  0  0  0  0  0  0  0  0
   55.9020   31.3330   52.0790 C   0  0  0  0  0  0  0  0  0  0  0  0
   56.8290   32.1370   51.7920 O   0  0  0  0  0  0  0  0  0  0  0  0
   56.1030   30.1600   52.7150 N   0  0  0  0  0  0  0  0  0  0  0  0
   57.4030   29.5920   53.0990 C   0  0  0  0  0  0  0  0  0  0  0  0
   58.4580   29.9490   52.0840 C   0  0  0  0  0  0  0  0  0  0  0  0
   59.6440   30.5770   52.4940 C   0  0  0  0  0  0  0  0  0  0  0  0
   60.6270   30.9050   51.5580 C   0  0  0  0  0  0  0  0  0  0  0  0
   60.4310   30.6240   50.2040 C   0  0  0  0  0  0  0  0  0  0  0  0
   61.4220   30.9550   49.2850 O   0  0  0  0  0  0  0  0  0  0  0  0
   59.2430   30.0180   49.7730 C   0  0  0  0  0  0  0  0  0  0  0  0
   59.0790   29.7150   48.3800 N   0  0  0  0  0  0  0  0  0  0  0  0
   58.6290   30.6100   47.3550 C   0  0  0  0  0  0  0  0  0  0  0  0
   57.8040   30.1800   46.5040 O   0  0  0  0  0  0  0  0  0  0  0  0
   59.1800   32.0120   47.2450 C   0  0  0  0  0  0  0  0  0  0  0  0
   58.5520   33.0080   48.2100 C   0  0  0  0  0  0  0  0  0  0  0  0
   58.2330   33.0880   46.7260 C   0  0  0  0  0  0  0  0  0  0  0  0
   58.2710   29.6550   50.7230 C   0  0  0  0  0  0  0  0  0  0  0  0
   55.4893   27.7547   53.6449 H   0  0  0  0  0  0  0  0  0  0  0  0
   53.6523   27.9045   53.1621 H   0  0  0  0  0  0  0  0  0  0  0  0
   52.0667   30.0150   53.0123 H   0  0  0  0  0  0  0  0  0  0  0  0
   57.6962   29.9914   54.0811 H   0  0  0  0  0  0  0  0  0  0  0  0
   57.3118   28.4968   53.1457 H   0  0  0  0  0  0  0  0  0  0  0  0
   59.8000   30.8119   53.5572 H   0  0  0  0  0  0  0  0  0  0  0  0
   61.5592   31.3865   51.8883 H   0  0  0  0  0  0  0  0  0  0  0  0
   60.1996   31.6972   46.9780 H   0  0  0  0  0  0  0  0  0  0  0  0
   57.7816   32.6739   48.9205 H   0  0  0  0  0  0  0  0  0  0  0  0
   58.9394   33.7127   48.9605 H   0  0  0  0  0  0  0  0  0  0  0  0
   57.2322   32.8113   46.3629 H   0  0  0  0  0  0  0  0  0  0  0  0
   58.2942   33.8737   45.9585 H   0  0  0  0  0  0  0  0  0  0  0  0
   57.3570   29.1367   50.3975 H   0  0  0  0  0  0  0  0  0  0  0  0
  1  2  2  0
  2  3  1  0
  3  4  2  3
  4  5  1  0
  5  6  1  0
  6  7  1  0
  7  8  2  0
  7  9  1  0
  9 10  1  0
 10 11  1  0
  3 12  1  0
 12 13  1  0
 13 14  2  0
 13 15  1  0
 15 16  1  0
 16 17  1  0
 17 18  2  0
 18 19  1  0
 19 20  2  0
 20 21  1  0
 20 22  1  0
 22 23  1  0
 23 24  1  0
 24 25  2  0
 24 26  1  0
 26 27  1  0
 27 28  1  0
 22 29  2  0
 15  2  1  0
 29 17  1  0
 10  5  2  0
 28 26  1  0
  1 30  1  0
  1 31  1  0
  4 32  1  0
 16 33  1  0
 16 34  1  0
 18 35  1  0
 19 36  1  0
 26 37  1  0
 27 38  1  0
 27 39  1  0
 28 40  1  0
 28 41  1  0
 29 42  1  0
M  CHG  6   6  -1   9  -1  11  -1  12  -1  21  -1  23  -1
M  END
>  <UniqueID>  (10) 
10

>  <SMILES>  (10) 
C=c1c(=Cc2[n-]c(=O)[n-]c2[O-])[n-]c(=O)n1Cc1ccc([O-])c([N-]C(=O)C2CC2)c1

>  <Energy>  (10) 
386.7694161309219

>  <Genealogy>  (10) 
C=c1c(=Cc2[n-]c(=O)[n-]c2[O-])[n-]c(=O)n1Cc1ccc([O-])c([N-]C(=O)C2CC2)c1 (protonated)
C=c1c(=Cc2[n-]c(=O)[n-]c2[O-])[n-]c(=O)n1Cc1ccc([O-])c([N-]C(=O)C2CC2)c1 (3D coordinates assigned)
C=c1c(=Cc2[n-]c(=O)[n-]c2[O-])[n-]c(=O)n1Cc1ccc([O-])c([N-]C(=O)C2CC2)c1 (nonaromatic ring conformer: 386.7694161309219 kcal/mol)

>  <smiles>  (10) 
C=c1c(=Cc2[nH]c(=O)[nH]c2O)[nH]c(=O)n1Cc1ccc(O)c(NC(=O)C2CC2)c1

>  <score_type>  (10) 
oracle

>  <origin>  (10) 
adg

>  <m_score__min__energy>  (10) 
-18.82

>  <m_primary>  (10) 
energy

$$$$
10:0
     RDKit          3D

 27 29  0  0  0  0  0  0  0  0999 V2000
   57.3380   33.6840   45.9080 C   0  0  0  0  0  0  0  0  0  0  0  0
   57.9160   32.4870   45.7870 C   0  0  0  0  0  0  0  0  0  0  0  0
   59.1290   32.0300   46.3410 C   0  0  0  0  0  0  0  0  0  0  0  0
   60.1130   32.7950   47.1380 C   0  0  0  0  0  0  0  0  0  0  0  0
   61.4770   32.7830   46.8010 C   0  0  0  0  0  0  0  0  0  0  0  0
   62.4020   33.4940   47.5740 C   0  0  0  0  0  0  0  0  0  0  0  0
   61.9740   34.2130   48.6920 C   0  0  0  0  0  0  0  0  0  0  0  0
   60.6220   34.2160   49.0460 C   0  0  0  0  0  0  0  0  0  0  0  0
   59.6950   33.5060   48.2770 C   0  0  0  0  0  0  0  0  0  0  0  0
   59.2500   30.6740   46.0050 C   0  0  0  0  0  0  0  0  0  0  0  0
   58.1810   30.3440   45.2660 N   0  0  0  0  0  0  0  0  0  0  0  0
   57.4030   31.3860   45.1390 C   0  0  0  0  0  0  0  0  0  0  0  0
   56.3040   31.2060   44.4950 N   0  0  0  0  0  0  0  0  0  0  0  0
   56.2930   29.7930   44.0710 C   0  0  0  0  0  0  0  0  0  0  0  0
   57.6090   29.1870   44.6320 C   0  0  0  0  0  0  0  0  0  0  0  0
   56.3794   33.8850   45.4073 H   0  0  0  0  0  0  0  0  0  0  0  0
   57.8202   34.4694   46.5085 H   0  0  0  0  0  0  0  0  0  0  0  0
   61.8195   32.2120   45.9254 H   0  0  0  0  0  0  0  0  0  0  0  0
   63.4674   33.4865   47.3006 H   0  0  0  0  0  0  0  0  0  0  0  0
   62.7013   34.7772   49.2943 H   0  0  0  0  0  0  0  0  0  0  0  0
   60.2869   34.7775   49.9305 H   0  0  0  0  0  0  0  0  0  0  0  0
   58.6332   33.5035   48.5644 H   0  0  0  0  0  0  0  0  0  0  0  0
   60.0722   30.0032   46.2949 H   0  0  0  0  0  0  0  0  0  0  0  0
   55.4195   29.2718   44.4897 H   0  0  0  0  0  0  0  0  0  0  0  0
   56.2288   29.6932   42.9774 H   0  0  0  0  0  0  0  0  0  0  0  0
   57.4096   28.3838   45.3566 H   0  0  0  0  0  0  0  0  0  0  0  0
   58.2533   28.7124   43.8773 H   0  0  0  0  0  0  0  0  0  0  0  0
  1  2  2  0
  2  3  1  0
  3  4  1  0
  4  5  2  0
  5  6  1  0
  6  7  2  0
  7  8  1  0
  8  9  2  0
  3 10  2  0
 10 11  1  0
 11 12  1  0
 12 13  2  0
 13 14  1  0
 14 15  1  0
 12  2  1  0
  9  4  1  0
 15 11  1  0
  1 16  1  0
  1 17  1  0
  5 18  1  0
  6 19  1  0
  7 20  1  0
  8 21  1  0
  9 22  1  0
 10 23  1  0
 14 24  1  0
 14 25  1  0
 15 26  1  0
 15 27  1  0
M  END
>  <UniqueID>  (11) 
11

>  <SMILES>  (11) 
C=c1c(-c2ccccc2)cn2c1=NCC2

>  <Energy>  (11) 
92.22125612054619

>  <Genealogy>  (11) 
C=c1c(-c2ccccc2)cn2c1=NCC2 (3D coordinates assigned)
C=c1c(-c2ccccc2)cn2c1=NCC2 (nonaromatic ring conformer: 92.22125612054619 kcal/mol)

>  <smiles>  (11) 
C=c1c(-c2ccccc2)cn2c1=NCC2

>  <score_type>  (11) 
oracle

>  <origin>  (11) 
adg

>  <m_score__min__energy>  (11) 
-5.9699999999999998

>  <m_primary>  (11) 
energy

$$$$
11:0
     RDKit          3D

 47 49  0  0  0  0  0  0  0  0999 V2000
   63.7110   32.7380   47.8700 C   0  0  0  0  0  0  0  0  0  0  0  0
   62.8610   33.5760   46.9610 C   0  0  0  0  0  0  0  0  0  0  0  0
   63.4310   34.2330   46.0480 O   0  0  0  0  0  0  0  0  0  0  0  0
   61.3820   33.6490   47.1110 C   0  0  0  0  0  0  0  0  0  0  0  0
   60.5850   34.3210   46.1650 C   0  0  0  0  0  0  0  0  0  0  0  0
   59.2000   34.3980   46.3310 C   0  0  0  0  0  0  0  0  0  0  0  0
   58.5900   33.7980   47.4330 C   0  0  0  0  0  0  0  0  0  0  0  0
   59.3570   33.0990   48.3720 C   0  0  0  0  0  0  0  0  0  0  0  0
   58.6910   32.5110   49.4980 N   0  0  0  0  0  0  0  0  0  0  0  0
   58.8620   31.1740   49.9890 C   0  0  0  0  0  0  0  0  0  0  0  0
   58.7010   30.9180   51.2120 O   0  0  0  0  0  0  0  0  0  0  0  0
   59.2160   30.0820   49.0590 C   0  0  0  0  0  0  0  0  0  0  0  0
   58.8280   30.1960   47.7120 C   0  0  0  0  0  0  0  0  0  0  0  0
   59.2070   29.2270   46.7700 C   0  0  0  0  0  0  0  0  0  0  0  0
   58.7660   29.3500   45.3370 C   0  0  0  0  0  0  0  0  0  0  0  0
   57.2800   29.2040   45.2440 C   0  0  0  0  0  0  0  0  0  0  0  0
   56.6090   30.0540   44.5980 O   0  0  0  0  0  0  0  0  0  0  0  0
   56.6270   28.1620   45.9770 N   0  0  0  0  0  0  0  0  0  0  0  0
   56.7850   26.7560   45.7440 C   0  0  0  0  0  0  0  0  0  0  0  0
   58.0610   26.2680   45.4310 C   0  0  0  0  0  0  0  0  0  0  0  0
   58.2590   24.9050   45.1900 C   0  0  0  0  0  0  0  0  0  0  0  0
   57.1790   24.0220   45.2430 C   0  0  0  0  0  0  0  0  0  0  0  0
   55.8970   24.5020   45.5210 C   0  0  0  0  0  0  0  0  0  0  0  0
   55.6900   25.8660   45.7570 C   0  0  0  0  0  0  0  0  0  0  0  0
   54.3950   26.3260   45.9670 O   0  0  0  0  0  0  0  0  0  0  0  0
   59.9600   28.1210   47.1840 C   0  0  0  0  0  0  0  0  0  0  0  0
   60.3330   27.9860   48.5210 C   0  0  0  0  0  0  0  0  0  0  0  0
   59.9530   28.9430   49.4690 C   0  0  0  0  0  0  0  0  0  0  0  0
   60.2890   28.7080   50.8030 O   0  0  0  0  0  0  0  0  0  0  0  0
   60.7540   33.0470   48.2200 C   0  0  0  0  0  0  0  0  0  0  0  0
   63.4713   32.9743   48.9172 H   0  0  0  0  0  0  0  0  0  0  0  0
   63.5119   31.6731   47.6796 H   0  0  0  0  0  0  0  0  0  0  0  0
   64.7730   32.9522   47.6796 H   0  0  0  0  0  0  0  0  0  0  0  0
   61.0564   34.7891   45.2883 H   0  0  0  0  0  0  0  0  0  0  0  0
   58.5882   34.9336   45.5902 H   0  0  0  0  0  0  0  0  0  0  0  0
   57.5006   33.8747   47.5645 H   0  0  0  0  0  0  0  0  0  0  0  0
   58.2199   31.0553   47.3928 H   0  0  0  0  0  0  0  0  0  0  0  0
   59.0600   30.3364   44.9489 H   0  0  0  0  0  0  0  0  0  0  0  0
   59.2443   28.5573   44.7430 H   0  0  0  0  0  0  0  0  0  0  0  0
   58.9125   26.9620   45.3746 H   0  0  0  0  0  0  0  0  0  0  0  0
   59.2662   24.5283   44.9585 H   0  0  0  0  0  0  0  0  0  0  0  0
   57.3376   22.9480   45.0658 H   0  0  0  0  0  0  0  0  0  0  0  0
   55.0466   23.8051   45.5546 H   0  0  0  0  0  0  0  0  0  0  0  0
   60.2583   27.3561   46.4519 H   0  0  0  0  0  0  0  0  0  0  0  0
   60.9322   27.1182   48.8338 H   0  0  0  0  0  0  0  0  0  0  0  0
   60.0620   29.3450   51.5540 H   0  0  0  0  0  0  0  0  0  0  0  0
   61.3640   32.5303   48.9756 H   0  0  0  0  0  0  0  0  0  0  0  0
  1  2  1  0
  2  3  2  0
  2  4  1  0
  4  5  2  0
  5  6  1  0
  6  7  2  0
  7  8  1  0
  8  9  1  0
  9 10  1  0
 10 11  2  0
 10 12  1  0
 12 13  2  0
 13 14  1  0
 14 15  1  0
 15 16  1  0
 16 17  2  0
 16 18  1  0
 18 19  1  0
 19 20  2  0
 20 21  1  0
 21 22  2  0
 22 23  1  0
 23 24  2  0
 24 25  1  0
 14 26  2  0
 26 27  1  0
 27 28  2  0
 28 29  1  0
  8 30  2  0
 30  4  1  0
 28 12  1  0
 24 19  1  0
  1 31  1  0
  1 32  1  0
  1 33  1  0
  5 34  1  0
  6 35  1  0
  7 36  1  0
 13 37  1  0
 15 38  1  0
 15 39  1  0
 20 40  1  0
 21 41  1  0
 22 42  1  0
 23 43  1  0
 26 44  1  0
 27 45  1  0
 29 46  1  0
 30 47  1  0
M  CHG  3   9  -1  18  -1  25  -1
M  END
>  <UniqueID>  (12) 
12

>  <SMILES>  (12) 
CC(=O)c1cccc([N-]C(=O)c2cc(CC(=O)[N-]c3ccccc3[O-])ccc2O)c1

>  <Energy>  (12) 
63.160394704348015

>  <Genealogy>  (12) 
CC(=O)c1cccc([N-]C(=O)c2cc(CC(=O)[N-]c3ccccc3[O-])ccc2O)c1 (protonated)
CC(=O)c1cccc([N-]C(=O)c2cc(CC(=O)[N-]c3ccccc3[O-])ccc2O)c1 (3D coordinates assigned)
CC(=O)c1cccc([N-]C(=O)c2cc(CC(=O)[N-]c3ccccc3[O-])ccc2O)c1 (optimized conformer: 63.160394704348015 kcal/mol)

>  <smiles>  (12) 
CC(=O)c1cccc(NC(=O)c2cc(CC(=O)Nc3ccccc3O)ccc2O)c1

>  <score_type>  (12) 
oracle

>  <origin>  (12) 
adg

>  <m_score__min__energy>  (12) 
-16.07

>  <m_primary>  (12) 
energy

$$$$
12:0
     RDKit          3D

 40 41  0  0  0  0  0  0  0  0999 V2000
   63.3850   33.8740   46.5160 C   0  0  0  0  0  0  0  0  0  0  0  0
   61.9550   33.6880   47.0350 C   0  0  0  0  0  0  0  0  0  0  0  0
   61.7410   32.2490   47.4990 C   0  0  0  0  0  0  0  0  0  0  0  0
   60.9960   33.9970   45.9770 N   0  0  0  0  0  0  0  0  0  0  0  0
   59.8400   34.8350   46.1080 C   0  0  0  0  0  0  0  0  0  0  0  0
   59.9720   36.0730   45.9230 O   0  0  0  0  0  0  0  0  0  0  0  0
   58.4670   34.2650   46.3620 C   0  0  0  0  0  0  0  0  0  0  0  0
   58.4890   32.7930   46.3190 N   0  0  0  0  0  0  0  0  0  0  0  0
   58.4260   32.1580   45.1120 C   0  0  0  0  0  0  0  0  0  0  0  0
   58.4220   30.7660   45.0490 C   0  0  0  0  0  0  0  0  0  0  0  0
   58.4720   30.0270   46.1960 N   0  0  0  0  0  0  0  0  0  0  0  0
   58.4570   28.5880   46.1010 C   0  0  0  0  0  0  0  0  0  0  0  0
   59.6450   27.8830   45.8530 C   0  0  0  0  0  0  0  0  0  0  0  0
   59.6300   26.4910   45.7530 C   0  0  0  0  0  0  0  0  0  0  0  0
   58.4300   25.7890   45.8940 C   0  0  0  0  0  0  0  0  0  0  0  0
   57.2260   26.4750   46.1370 C   0  0  0  0  0  0  0  0  0  0  0  0
   55.9530   25.7300   46.2810 C   0  0  0  0  0  0  0  0  0  0  0  0
   54.7390   26.2570   45.7480 N   0  0  0  0  0  0  0  0  0  0  0  0
   55.9300   24.6210   46.8810 O   0  0  0  0  0  0  0  0  0  0  0  0
   57.2500   27.8790   46.2360 C   0  0  0  0  0  0  0  0  0  0  0  0
   58.5340   30.6560   47.4120 C   0  0  0  0  0  0  0  0  0  0  0  0
   58.6030   29.9840   48.4790 O   0  0  0  0  0  0  0  0  0  0  0  0
   58.5350   32.0560   47.4740 C   0  0  0  0  0  0  0  0  0  0  0  0
   58.5760   32.6320   48.5990 O   0  0  0  0  0  0  0  0  0  0  0  0
   64.0754   33.9638   47.3676 H   0  0  0  0  0  0  0  0  0  0  0  0
   63.6688   33.0052   45.9039 H   0  0  0  0  0  0  0  0  0  0  0  0
   63.4371   34.7865   45.9039 H   0  0  0  0  0  0  0  0  0  0  0  0
   61.8022   34.3701   47.8844 H   0  0  0  0  0  0  0  0  0  0  0  0
   61.7360   32.2152   48.5985 H   0  0  0  0  0  0  0  0  0  0  0  0
   60.7781   31.8797   47.1164 H   0  0  0  0  0  0  0  0  0  0  0  0
   62.5548   31.6155   47.1164 H   0  0  0  0  0  0  0  0  0  0  0  0
   58.1205   34.5905   47.3540 H   0  0  0  0  0  0  0  0  0  0  0  0
   57.7869   34.6278   45.5773 H   0  0  0  0  0  0  0  0  0  0  0  0
   58.3782   32.7481   44.1849 H   0  0  0  0  0  0  0  0  0  0  0  0
   58.3784   30.2612   44.0726 H   0  0  0  0  0  0  0  0  0  0  0  0
   60.5922   28.4301   45.7369 H   0  0  0  0  0  0  0  0  0  0  0  0
   60.5657   25.9448   45.5626 H   0  0  0  0  0  0  0  0  0  0  0  0
   58.4267   24.6919   45.8144 H   0  0  0  0  0  0  0  0  0  0  0  0
   54.0340   26.7130   46.3680 H   0  0  0  0  0  0  0  0  0  0  0  0
   56.3146   28.4275   46.4209 H   0  0  0  0  0  0  0  0  0  0  0  0
  1  2  1  0
  2  3  1  0
  2  4  1  0
  4  5  1  0
  5  6  2  0
  5  7  1  0
  7  8  1  0
  8  9  1  0
  9 10  2  0
 10 11  1  0
 11 12  1  0
 12 13  2  0
 13 14  1  0
 14 15  2  0
 15 16  1  0
 16 17  1  0
 17 18  1  0
 17 19  2  0
 16 20  2  0
 11 21  1  0
 21 22  2  0
 21 23  1  0
 23 24  2  0
 23  8  1  0
 20 12  1  0
  1 25  1  0
  1 26  1  0
  1 27  1  0
  2 28  1  0
  3 29  1  0
  3 30  1  0
  3 31  1  0
  7 32  1  0
  7 33  1  0
  9 34  1  0
 10 35  1  0
 13 36  1  0
 14 37  1  0
 15 38  1  0
 18 39  1  0
 20 40  1  0
M  CHG  2   4  -1  18  -1
M  END
>  <UniqueID>  (13) 
13

>  <SMILES>  (13) 
CC(C)[N-]C(=O)Cn1ccn(-c2cccc(C([NH-])=O)c2)c(=O)c1=O

>  <Energy>  (13) 
46.59905577717746

>  <Genealogy>  (13) 
CC(C)[N-]C(=O)Cn1ccn(-c2cccc(C([NH-])=O)c2)c(=O)c1=O (protonated)
CC(C)[N-]C(=O)Cn1ccn(-c2cccc(C([NH-])=O)c2)c(=O)c1=O (3D coordinates assigned)
CC(C)[N-]C(=O)Cn1ccn(-c2cccc(C([NH-])=O)c2)c(=O)c1=O (optimized conformer: 46.59905577717746 kcal/mol)

>  <smiles>  (13) 
CC(C)NC(=O)Cn1ccn(-c2cccc(C(N)=O)c2)c(=O)c1=O

>  <score_type>  (13) 
oracle

>  <origin>  (13) 
adg

>  <m_score__min__energy>  (13) 
-11.630000000000001

>  <m_primary>  (13) 
energy

$$$$
13:0
     RDKit          3D

 61 64  0  0  0  0  0  0  0  0999 V2000
   63.6480   33.5760   47.5220 C   0  0  0  0  0  0  0  0  0  0  0  0
   63.5710   32.8630   48.8340 C   0  0  0  0  0  0  0  0  0  0  0  0
   64.6930   32.2090   49.3540 C   0  0  0  0  0  0  0  0  0  0  0  0
   64.5930   31.5320   50.5760 C   0  0  0  0  0  0  0  0  0  0  0  0
   65.7090   30.8930   51.1150 O   0  0  0  0  0  0  0  0  0  0  0  0
   63.3640   31.5000   51.2550 C   0  0  0  0  0  0  0  0  0  0  0  0
   63.2730   30.8510   52.5420 C   0  0  0  0  0  0  0  0  0  0  0  0
   63.2000   30.3300   53.5730 N   0  0  0  0  0  0  0  0  0  0  0  0
   62.2450   32.1400   50.6810 C   0  0  0  0  0  0  0  0  0  0  0  0
   60.9500   32.1010   51.3100 N   0  0  0  0  0  0  0  0  0  0  0  0
   59.9840   31.0610   50.9270 C   0  0  0  0  0  0  0  0  0  0  0  0
   58.8340   31.6680   50.0910 C   0  0  0  0  0  0  0  0  0  0  0  0
   59.0480   33.1100   49.8930 N   0  0  0  0  0  0  0  0  0  0  0  0
   59.4080   33.6290   48.5970 C   0  0  0  0  0  0  0  0  0  0  0  0
   60.2720   34.5460   48.5060 O   0  0  0  0  0  0  0  0  0  0  0  0
   58.8000   33.1000   47.3560 C   0  0  0  0  0  0  0  0  0  0  0  0
   57.7690   33.8340   46.7450 C   0  0  0  0  0  0  0  0  0  0  0  0
   57.2130   33.4060   45.5380 C   0  0  0  0  0  0  0  0  0  0  0  0
   57.6800   32.2420   44.9260 C   0  0  0  0  0  0  0  0  0  0  0  0
   58.6880   31.4890   45.5300 C   0  0  0  0  0  0  0  0  0  0  0  0
   59.2430   31.8940   46.7550 C   0  0  0  0  0  0  0  0  0  0  0  0
   60.2370   31.0120   47.3980 C   0  0  0  0  0  0  0  0  0  0  0  0
   61.4630   31.2680   47.2650 O   0  0  0  0  0  0  0  0  0  0  0  0
   59.8470   29.8340   48.1160 N   0  0  0  0  0  0  0  0  0  0  0  0
   60.7570   28.7430   48.4440 C   0  0  0  0  0  0  0  0  0  0  0  0
   60.2090   27.4270   47.8990 C   0  0  0  0  0  0  0  0  0  0  0  0
   59.3860   27.6770   46.6640 C   0  0  0  0  0  0  0  0  0  0  0  0
   57.9800   27.6860   46.7400 C   0  0  0  0  0  0  0  0  0  0  0  0
   57.2180   27.9670   45.6020 C   0  0  0  0  0  0  0  0  0  0  0  0
   57.8510   28.2530   44.3860 C   0  0  0  0  0  0  0  0  0  0  0  0
   59.2490   28.2600   44.3070 C   0  0  0  0  0  0  0  0  0  0  0  0
   60.0150   27.9780   45.4430 C   0  0  0  0  0  0  0  0  0  0  0  0
   59.2680   33.9130   51.1050 C   0  0  0  0  0  0  0  0  0  0  0  0
   60.4130   33.3140   51.9500 C   0  0  0  0  0  0  0  0  0  0  0  0
   62.3870   32.8040   49.4990 N   0  0  0  0  0  0  0  0  0  0  0  0
   63.7646   34.6556   47.6977 H   0  0  0  0  0  0  0  0  0  0  0  0
   64.5110   33.2020   46.9515 H   0  0  0  0  0  0  0  0  0  0  0  0
   62.7251   33.3949   46.9515 H   0  0  0  0  0  0  0  0  0  0  0  0
   65.6472   32.2263   48.8069 H   0  0  0  0  0  0  0  0  0  0  0  0
   65.6760   30.4460   52.0250 H   0  0  0  0  0  0  0  0  0  0  0  0
   60.4977   30.2924   50.3309 H   0  0  0  0  0  0  0  0  0  0  0  0
   59.5620   30.6155   51.8399 H   0  0  0  0  0  0  0  0  0  0  0  0
   58.7963   31.1695   49.1112 H   0  0  0  0  0  0  0  0  0  0  0  0
   57.8858   31.5190   50.6283 H   0  0  0  0  0  0  0  0  0  0  0  0
   57.3971   34.7530   47.2215 H   0  0  0  0  0  0  0  0  0  0  0  0
   56.4056   33.9872   45.0687 H   0  0  0  0  0  0  0  0  0  0  0  0
   57.2528   31.9174   43.9657 H   0  0  0  0  0  0  0  0  0  0  0  0
   59.0504   30.5716   45.0431 H   0  0  0  0  0  0  0  0  0  0  0  0
   61.7414   28.9418   47.9951 H   0  0  0  0  0  0  0  0  0  0  0  0
   60.8545   28.6693   49.5372 H   0  0  0  0  0  0  0  0  0  0  0  0
   61.0475   26.7607   47.6479 H   0  0  0  0  0  0  0  0  0  0  0  0
   59.5730   26.9590   48.6648 H   0  0  0  0  0  0  0  0  0  0  0  0
   57.4804   27.4716   47.6962 H   0  0  0  0  0  0  0  0  0  0  0  0
   56.1196   27.9634   45.6619 H   0  0  0  0  0  0  0  0  0  0  0  0
   57.2492   28.4724   43.4918 H   0  0  0  0  0  0  0  0  0  0  0  0
   59.7448   28.4872   43.3517 H   0  0  0  0  0  0  0  0  0  0  0  0
   61.1132   27.9918   45.3809 H   0  0  0  0  0  0  0  0  0  0  0  0
   59.5314   34.9410   50.8153 H   0  0  0  0  0  0  0  0  0  0  0  0
   58.3456   33.9125   51.7044 H   0  0  0  0  0  0  0  0  0  0  0  0
   61.2176   34.0577   52.0474 H   0  0  0  0  0  0  0  0  0  0  0  0
   60.0194   33.0469   52.9419 H   0  0  0  0  0  0  0  0  0  0  0  0
  1  2  1  0
  2  3  2  0
  3  4  1  0
  4  5  1  0
  4  6  2  0
  6  7  1  0
  7  8  3  0
  6  9  1  0
  9 10  1  0
 10 11  1  0
 11 12  1  0
 12 13  1  0
 13 14  1  0
 14 15  2  0
 14 16  1  0
 16 17  2  0
 17 18  1  0
 18 19  2  0
 19 20  1  0
 20 21  2  0
 21 22  1  0
 22 23  2  0
 22 24  1  0
 24 25  1  0
 25 26  1  0
 26 27  1  0
 27 28  2  0
 28 29  1  0
 29 30  2  0
 30 31  1  0
 31 32  2  0
 13 33  1  0
 33 34  1  0
  9 35  2  0
 35  2  1  0
 34 10  1  0
 21 16  1  0
 32 27  1  0
  1 36  1  0
  1 37  1  0
  1 38  1  0
  3 39  1  0
  5 40  1  0
 11 41  1  0
 11 42  1  0
 12 43  1  0
 12 44  1  0
 17 45  1  0
 18 46  1  0
 19 47  1  0
 20 48  1  0
 25 49  1  0
 25 50  1  0
 26 51  1  0
 26 52  1  0
 28 53  1  0
 29 54  1  0
 30 55  1  0
 31 56  1  0
 32 57  1  0
 33 58  1  0
 33 59  1  0
 34 60  1  0
 34 61  1  0
M  CHG  1  24  -1
M  END
>  <UniqueID>  (14) 
14

>  <SMILES>  (14) 
Cc1cc(O)c(C#N)c(N2CCN(C(=O)c3ccccc3C(=O)[N-]CCc3ccccc3)CC2)n1

>  <Energy>  (14) 
82.60725816025615

>  <Genealogy>  (14) 
Cc1cc(O)c(C#N)c(N2CCN(C(=O)c3ccccc3C(=O)[N-]CCc3ccccc3)CC2)n1 (protonated)
Cc1cc(O)c(C#N)c(N2CCN(C(=O)c3ccccc3C(=O)[N-]CCc3ccccc3)CC2)n1 (3D coordinates assigned)
Cc1cc(O)c(C#N)c(N2CCN(C(=O)c3ccccc3C(=O)[N-]CCc3ccccc3)CC2)n1 (nonaromatic ring conformer: 82.60725816025615 kcal/mol)

>  <smiles>  (14) 
Cc1cc(O)c(C#N)c(N2CCN(C(=O)c3ccccc3C(=O)NCCc3ccccc3)CC2)n1

>  <score_type>  (14) 
oracle

>  <origin>  (14) 
adg

>  <m_score__min__energy>  (14) 
-9.6899999999999995

>  <m_primary>  (14) 
energy

$$$$
14:0
     RDKit          3D

 36 38  0  0  0  0  0  0  0  0999 V2000
   55.1380   27.4840   45.3630 H   0  0  0  0  0  0  0  0  0  0  0  0
   54.9800   26.6970   45.9800 O   0  0  0  0  0  0  0  0  0  0  0  0
   56.0140   25.8430   46.3600 C   0  0  0  0  0  0  0  0  0  0  0  0
   55.8490   24.8400   47.2370 N   0  0  0  0  0  0  0  0  0  0  0  0
   57.0980   24.3430   47.3630 C   0  0  0  0  0  0  0  0  0  0  0  0
   57.3690   23.3740   48.1200 O   0  0  0  0  0  0  0  0  0  0  0  0
   58.0360   24.9710   46.6220 N   0  0  0  0  0  0  0  0  0  0  0  0
   57.3370   25.9150   45.9670 C   0  0  0  0  0  0  0  0  0  0  0  0
   57.9580   26.8680   45.0320 C   0  0  0  0  0  0  0  0  0  0  0  0
   58.7842   26.5170   44.3962 H   0  0  0  0  0  0  0  0  0  0  0  0
   57.5610   28.1480   44.9200 C   0  0  0  0  0  0  0  0  0  0  0  0
   56.2660   28.5190   44.8000 N   0  0  0  0  0  0  0  0  0  0  0  0
   56.3190   29.8610   44.6880 C   0  0  0  0  0  0  0  0  0  0  0  0
   55.2860   30.5740   44.5760 O   0  0  0  0  0  0  0  0  0  0  0  0
   57.5720   30.3610   44.7120 N   0  0  0  0  0  0  0  0  0  0  0  0
   57.9490   31.7770   44.6750 C   0  0  0  0  0  0  0  0  0  0  0  0
   58.9870   31.8682   44.3226 H   0  0  0  0  0  0  0  0  0  0  0  0
   57.2737   32.3120   43.9911 H   0  0  0  0  0  0  0  0  0  0  0  0
   57.8360   32.3740   46.0420 C   0  0  0  0  0  0  0  0  0  0  0  0
   56.9340   33.2210   46.2810 O   0  0  0  0  0  0  0  0  0  0  0  0
   58.7220   31.9330   47.0770 N   0  0  0  0  0  0  0  0  0  0  0  0
   60.1150   32.2520   47.1970 C   0  0  0  0  0  0  0  0  0  0  0  0
   60.5660   33.4890   46.7150 C   0  0  0  0  0  0  0  0  0  0  0  0
   59.8562   34.1810   46.2382 H   0  0  0  0  0  0  0  0  0  0  0  0
   61.9110   33.8490   46.8360 C   0  0  0  0  0  0  0  0  0  0  0  0
   62.2581   34.8167   46.4448 H   0  0  0  0  0  0  0  0  0  0  0  0
   62.8160   32.9800   47.4540 C   0  0  0  0  0  0  0  0  0  0  0  0
   64.1530   33.3360   47.5720 O   0  0  0  0  0  0  0  0  0  0  0  0
   62.3710   31.7530   47.9570 C   0  0  0  0  0  0  0  0  0  0  0  0
   63.0810   31.0713   48.4481 H   0  0  0  0  0  0  0  0  0  0  0  0
   61.0260   31.3910   47.8370 C   0  0  0  0  0  0  0  0  0  0  0  0
   60.6786   30.4300   48.2442 H   0  0  0  0  0  0  0  0  0  0  0  0
   58.3720   29.2810   44.8670 C   0  0  0  0  0  0  0  0  0  0  0  0
   59.7070   29.3300   44.9740 C   0  0  0  0  0  0  0  0  0  0  0  0
   60.2284   30.2967   44.9144 H   0  0  0  0  0  0  0  0  0  0  0  0
   60.2813   28.4035   45.1214 H   0  0  0  0  0  0  0  0  0  0  0  0
  1  2  1  0
  2  3  1  0
  3  4  1  0
  4  5  1  0
  5  6  2  0
  5  7  1  0
  7  8  1  0
  8  9  1  0
  9 10  1  0
  9 11  2  0
 11 12  1  0
 12 13  1  0
 13 14  2  0
 13 15  1  0
 15 16  1  0
 16 17  1  0
 16 18  1  0
 16 19  1  0
 19 20  2  0
 19 21  1  0
 21 22  1  0
 22 23  2  0
 23 24  1  0
 23 25  1  0
 25 26  1  0
 25 27  2  0
 27 28  1  0
 27 29  1  0
 29 30  1  0
 29 31  2  0
 31 32  1  0
 15 33  1  0
 33 34  2  0
 34 35  1  0
 34 36  1  0
  8  3  2  0
 33 11  1  0
 31 22  1  0
M  CHG  5   4  -1   7  -1  12  -1  21  -1  28  -1
M  END
>  <UniqueID>  (15) 
15

>  <SMILES>  (15) 
C=c1/c(=C/c2[n-]c(=O)[n-]c2O)[n-]c(=O)n1CC(=O)[N-]c1ccc([O-])cc1

>  <Energy>  (15) 
108.58004453736535

>  <Genealogy>  (15) 
C=c1c(=Cc2[n-]c(=O)[n-]c2O)[n-]c(=O)n1CC(=O)[N-]c1ccc([O-])cc1 (protonated)
C=c1/c(=C/c2[n-]c(=O)[n-]c2O)[n-]c(=O)n1CC(=O)[N-]c1ccc([O-])cc1 (cis-trans isomerization)
C=c1/c(=C/c2[n-]c(=O)[n-]c2O)[n-]c(=O)n1CC(=O)[N-]c1ccc([O-])cc1 (3D coordinates assigned)
C=c1/c(=C/c2[n-]c(=O)[n-]c2O)[n-]c(=O)n1CC(=O)[N-]c1ccc([O-])cc1 (optimized conformer: 108.58004453736535 kcal/mol)

>  <smiles>  (15) 
C=c1c(=Cc2[nH]c(=O)[nH]c2O)[nH]c(=O)n1CC(=O)Nc1ccc(O)cc1

>  <score_type>  (15) 
oracle

>  <origin>  (15) 
adg

>  <m_score__min__energy>  (15) 
-15.869999999999999

>  <m_primary>  (15) 
energy

$$$$
15:0
     RDKit          3D

 33 34  0  0  0  0  0  0  0  0999 V2000
   56.7670   32.8210   45.1360 C   0  0  0  0  0  0  0  0  0  0  0  0
   57.7200   31.8920   44.3490 C   0  0  0  0  0  0  0  0  0  0  0  0
   58.3190   32.6900   43.1730 C   0  0  0  0  0  0  0  0  0  0  0  0
   58.8740   31.4050   45.2640 C   0  0  0  0  0  0  0  0  0  0  0  0
   58.3760   30.4640   46.3340 C   0  0  0  0  0  0  0  0  0  0  0  0
   58.8060   30.5670   47.4740 O   0  0  0  0  0  0  0  0  0  0  0  0
   57.4310   29.3400   45.9920 C   0  0  0  0  0  0  0  0  0  0  0  0
   58.2200   28.1320   45.5450 C   0  0  0  0  0  0  0  0  0  0  0  0
   57.6830   27.0500   45.0620 N   0  0  0  0  0  0  0  0  0  0  0  0
   57.1490   25.9550   45.8160 C   0  0  0  0  0  0  0  0  0  0  0  0
   57.8930   24.9560   46.3980 C   0  0  0  0  0  0  0  0  0  0  0  0
   56.9890   24.2350   47.1570 C   0  0  0  0  0  0  0  0  0  0  0  0
   57.3040   23.1090   47.9100 O   0  0  0  0  0  0  0  0  0  0  0  0
   55.7450   24.7550   47.1030 N   0  0  0  0  0  0  0  0  0  0  0  0
   55.8600   25.8240   46.2920 C   0  0  0  0  0  0  0  0  0  0  0  0
   54.8110   26.6930   46.0210 O   0  0  0  0  0  0  0  0  0  0  0  0
   56.4860   29.7520   44.8920 C   0  0  0  0  0  0  0  0  0  0  0  0
   55.3630   29.2710   44.8480 O   0  0  0  0  0  0  0  0  0  0  0  0
   56.9450   30.6730   43.7900 C   0  0  0  0  0  0  0  0  0  0  0  0
   56.9190   32.6728   46.2153 H   0  0  0  0  0  0  0  0  0  0  0  0
   56.9789   33.8687   44.8763 H   0  0  0  0  0  0  0  0  0  0  0  0
   55.7251   32.5824   44.8763 H   0  0  0  0  0  0  0  0  0  0  0  0
   58.9361   33.5122   43.5644 H   0  0  0  0  0  0  0  0  0  0  0  0
   58.9423   32.0243   42.5579 H   0  0  0  0  0  0  0  0  0  0  0  0
   57.5057   33.1027   42.5579 H   0  0  0  0  0  0  0  0  0  0  0  0
   59.6211   30.8823   44.6486 H   0  0  0  0  0  0  0  0  0  0  0  0
   59.3159   32.2834   45.7571 H   0  0  0  0  0  0  0  0  0  0  0  0
   56.8443   29.0939   46.8893 H   0  0  0  0  0  0  0  0  0  0  0  0
   59.3158   28.1695   45.6333 H   0  0  0  0  0  0  0  0  0  0  0  0
   58.9713   24.7707   46.2848 H   0  0  0  0  0  0  0  0  0  0  0  0
   57.7660   22.3140   47.4860 H   0  0  0  0  0  0  0  0  0  0  0  0
   57.6032   30.1138   43.1088 H   0  0  0  0  0  0  0  0  0  0  0  0
   56.0554   31.0451   43.2608 H   0  0  0  0  0  0  0  0  0  0  0  0
  1  2  1  0
  2  3  1  0
  2  4  1  0
  4  5  1  0
  5  6  2  0
  5  7  1  0
  7  8  1  0
  8  9  2  3
  9 10  1  0
 10 11  1  0
 11 12  2  0
 12 13  1  0
 12 14  1  0
 14 15  1  0
 15 16  1  0
  7 17  1  0
 17 18  2  0
 17 19  1  0
 19  2  1  0
 15 10  2  0
  1 20  1  0
  1 21  1  0
  1 22  1  0
  3 23  1  0
  3 24  1  0
  3 25  1  0
  4 26  1  0
  4 27  1  0
  7 28  1  0
  8 29  1  0
 11 30  1  0
 13 31  1  0
 19 32  1  0
 19 33  1  0
M  CHG  2  14  -1  16  -1
M  END
>  <UniqueID>  (16) 
16

>  <SMILES>  (16) 
CC1(C)CC(=O)C(C=Nc2cc(O)[n-]c2[O-])C(=O)C1

>  <Energy>  (16) 
63.47689139423676

>  <Genealogy>  (16) 
CC1(C)CC(=O)C(C=Nc2cc(O)[n-]c2[O-])C(=O)C1 (protonated)
CC1(C)CC(=O)C(C=Nc2cc(O)[n-]c2[O-])C(=O)C1 (3D coordinates assigned)
CC1(C)CC(=O)C(C=Nc2cc(O)[n-]c2[O-])C(=O)C1 (nonaromatic ring conformer: 63.47689139423676 kcal/mol)

>  <smiles>  (16) 
CC1(C)CC(=O)C(C=Nc2cc(O)[nH]c2O)C(=O)C1

>  <score_type>  (16) 
oracle

>  <origin>  (16) 
adg

>  <m_score__min__energy>  (16) 
-13.5

>  <m_primary>  (16) 
energy

$$$$
16:0
     RDKit          3D

 52 54  0  0  0  0  0  0  0  0999 V2000
   57.0340   31.0810   42.8520 C   0  0  0  0  0  0  0  0  0  0  0  0
   57.8920   31.7860   43.8210 N   0  0  0  0  0  0  0  0  0  0  0  0
   58.8400   30.8660   44.4880 C   0  0  0  0  0  0  0  0  0  0  0  0
   58.1990   29.5800   44.9460 C   0  0  0  0  0  0  0  0  0  0  0  0
   56.9550   29.5440   45.1480 O   0  0  0  0  0  0  0  0  0  0  0  0
   58.9960   28.3990   45.1250 N   0  0  0  0  0  0  0  0  0  0  0  0
   58.4020   27.1070   45.4860 C   0  0  2  0  0  0  0  0  0  0  0  0
   57.8870   26.3690   44.2370 C   0  0  0  0  0  0  0  0  0  0  0  0
   56.9390   25.2600   44.6920 C   0  0  0  0  0  0  0  0  0  0  0  0
   56.2100   25.8550   46.1890 S   0  0  0  0  0  0  0  0  0  0  0  0
   56.3550   24.8620   47.3060 O   0  0  0  0  0  0  0  0  0  0  0  0
   54.7680   26.2310   45.9910 O   0  0  0  0  0  0  0  0  0  0  0  0
   57.2220   27.2800   46.4490 C   0  0  0  0  0  0  0  0  0  0  0  0
   57.0960   32.5700   44.7890 C   0  0  0  0  0  0  0  0  0  0  0  0
   57.9780   33.1010   45.8870 C   0  0  0  0  0  0  0  0  0  0  0  0
   58.0870   32.4030   47.0990 C   0  0  0  0  0  0  0  0  0  0  0  0
   58.9170   32.8800   48.1170 C   0  0  0  0  0  0  0  0  0  0  0  0
   59.6600   34.0570   47.9320 C   0  0  0  0  0  0  0  0  0  0  0  0
   60.5220   34.5930   49.0420 C   0  0  0  0  0  0  0  0  0  0  0  0
   61.9260   34.0730   48.9060 C   0  0  0  0  0  0  0  0  0  0  0  0
   62.3820   33.5580   47.6830 C   0  0  0  0  0  0  0  0  0  0  0  0
   63.6760   33.0460   47.5810 C   0  0  0  0  0  0  0  0  0  0  0  0
   64.5020   33.0430   48.7070 C   0  0  0  0  0  0  0  0  0  0  0  0
   64.0430   33.5330   49.8900 N   0  0  0  0  0  0  0  0  0  0  0  0
   62.7860   34.0380   50.0150 C   0  0  0  0  0  0  0  0  0  0  0  0
   59.5470   34.7580   46.7210 C   0  0  0  0  0  0  0  0  0  0  0  0
   58.7180   34.2800   45.7030 C   0  0  0  0  0  0  0  0  0  0  0  0
   56.2937   30.4727   43.3924 H   0  0  0  0  0  0  0  0  0  0  0  0
   56.5138   31.8160   42.2202 H   0  0  0  0  0  0  0  0  0  0  0  0
   57.6541   30.4281   42.2202 H   0  0  0  0  0  0  0  0  0  0  0  0
   59.6462   30.6219   43.7806 H   0  0  0  0  0  0  0  0  0  0  0  0
   59.2174   31.3798   45.3844 H   0  0  0  0  0  0  0  0  0  0  0  0
   60.0200   28.4610   44.9270 H   0  0  0  0  0  0  0  0  0  0  0  0
   59.1965   26.5230   45.9735 H   0  0  0  0  0  0  0  0  0  0  0  0
   57.3500   27.0728   43.5841 H   0  0  0  0  0  0  0  0  0  0  0  0
   58.7301   25.9403   43.6754 H   0  0  0  0  0  0  0  0  0  0  0  0
   56.1648   25.0788   43.9318 H   0  0  0  0  0  0  0  0  0  0  0  0
   57.4658   24.3063   44.8431 H   0  0  0  0  0  0  0  0  0  0  0  0
   56.6638   28.1988   46.2160 H   0  0  0  0  0  0  0  0  0  0  0  0
   57.5508   27.3690   47.4949 H   0  0  0  0  0  0  0  0  0  0  0  0
   56.6194   33.4131   44.2675 H   0  0  0  0  0  0  0  0  0  0  0  0
   56.3296   31.9170   45.2319 H   0  0  0  0  0  0  0  0  0  0  0  0
   57.5159   31.4749   47.2489 H   0  0  0  0  0  0  0  0  0  0  0  0
   58.9886   32.3310   49.0675 H   0  0  0  0  0  0  0  0  0  0  0  0
   60.5352   35.6919   48.9936 H   0  0  0  0  0  0  0  0  0  0  0  0
   60.1095   34.2647   50.0074 H   0  0  0  0  0  0  0  0  0  0  0  0
   61.7195   33.5579   46.8049 H   0  0  0  0  0  0  0  0  0  0  0  0
   64.0420   32.6485   46.6228 H   0  0  0  0  0  0  0  0  0  0  0  0
   65.5247   32.6440   48.6372 H   0  0  0  0  0  0  0  0  0  0  0  0
   62.4426   34.4199   50.9877 H   0  0  0  0  0  0  0  0  0  0  0  0
   60.1142   35.6887   46.5728 H   0  0  0  0  0  0  0  0  0  0  0  0
   58.6447   34.8298   44.7531 H   0  0  0  0  0  0  0  0  0  0  0  0
  1  2  1  0
  2  3  1  0
  3  4  1  0
  4  5  2  0
  4  6  1  0
  6  7  1  0
  7  8  1  0
  8  9  1  0
  9 10  1  0
 10 11  2  0
 10 12  2  0
 10 13  1  0
  2 14  1  0
 14 15  1  0
 15 16  2  0
 16 17  1  0
 17 18  2  0
 18 19  1  0
 19 20  1  0
 20 21  2  0
 21 22  1  0
 22 23  2  0
 23 24  1  0
 24 25  2  0
 18 26  1  0
 26 27  2  0
 13  7  1  0
 27 15  1  0
 25 20  1  0
  1 28  1  0
  1 29  1  0
  1 30  1  0
  3 31  1  0
  3 32  1  0
  6 33  1  0
  7 34  1  1
  8 35  1  0
  8 36  1  0
  9 37  1  0
  9 38  1  0
 13 39  1  0
 13 40  1  0
 14 41  1  0
 14 42  1  0
 16 43  1  0
 17 44  1  0
 19 45  1  0
 19 46  1  0
 21 47  1  0
 22 48  1  0
 23 49  1  0
 25 50  1  0
 26 51  1  0
 27 52  1  0
M  END
>  <UniqueID>  (17) 
17

>  <SMILES>  (17) 
CN(CC(=O)N[C@@H]1CCS(=O)(=O)C1)Cc1ccc(Cc2cccnc2)cc1

>  <Energy>  (17) 
49.42445324570398

>  <Genealogy>  (17) 
CN(CC(=O)N[C@@H]1CCS(=O)(=O)C1)Cc1ccc(Cc2cccnc2)cc1 (chirality)
CN(CC(=O)N[C@@H]1CCS(=O)(=O)C1)Cc1ccc(Cc2cccnc2)cc1 (3D coordinates assigned)
CN(CC(=O)N[C@@H]1CCS(=O)(=O)C1)Cc1ccc(Cc2cccnc2)cc1 (nonaromatic ring conformer: 49.42445324570398 kcal/mol)

>  <smiles>  (17) 
CN(CC(=O)NC1CCS(=O)(=O)C1)Cc1ccc(Cc2cccnc2)cc1

>  <score_type>  (17) 
oracle

>  <origin>  (17) 
adg

>  <m_score__min__energy>  (17) 
-9.3499999999999996

>  <m_primary>  (17) 
energy

$$$$
17:0
     RDKit          3D

 49 51  0  0  0  0  0  0  0  0999 V2000
   60.1560   26.6950   47.4700 H   0  0  0  0  0  0  0  0  0  0  0  0
   60.3370   27.2600   48.2900 O   0  0  0  0  0  0  0  0  0  0  0  0
   60.3040   28.6560   48.2670 C   0  0  0  0  0  0  0  0  0  0  0  0
   60.1870   29.3430   49.4800 C   0  0  0  0  0  0  0  0  0  0  0  0
   60.1593   28.7810   50.4252 H   0  0  0  0  0  0  0  0  0  0  0  0
   60.1050   30.7380   49.5000 C   0  0  0  0  0  0  0  0  0  0  0  0
   59.9882   31.2663   50.4577 H   0  0  0  0  0  0  0  0  0  0  0  0
   60.1710   31.4660   48.3050 C   0  0  0  0  0  0  0  0  0  0  0  0
   60.0300   33.2270   48.3140 S   0  0  0  0  0  0  0  0  0  0  0  0
   61.4090   33.8230   48.2350 O   0  0  0  0  0  0  0  0  0  0  0  0
   59.4080   33.6690   49.6090 O   0  0  0  0  0  0  0  0  0  0  0  0
   59.0450   33.8220   46.9970 N   0  0  0  0  0  0  0  0  0  0  0  0
   57.7560   33.0990   46.9380 C   0  0  0  0  0  0  0  0  0  0  0  0
   57.9508   32.0210   47.0375 H   0  0  0  0  0  0  0  0  0  0  0  0
   57.1245   33.4718   47.7579 H   0  0  0  0  0  0  0  0  0  0  0  0
   57.0010   33.3470   45.6110 C   0  0  0  0  0  0  0  0  0  0  0  0
   57.1634   32.4888   44.9423 H   0  0  0  0  0  0  0  0  0  0  0  0
   55.9324   33.4695   45.8413 H   0  0  0  0  0  0  0  0  0  0  0  0
   57.4890   34.6200   44.9130 C   0  0  0  0  0  0  0  0  0  0  0  0
   56.9652   34.7234   43.9513 H   0  0  0  0  0  0  0  0  0  0  0  0
   57.2759   35.4766   45.5694 H   0  0  0  0  0  0  0  0  0  0  0  0
   59.0060   34.5760   44.6540 C   0  0  0  0  0  0  0  0  0  0  0  0
   59.1829   34.1306   43.6639 H   0  0  0  0  0  0  0  0  0  0  0  0
   59.3857   35.6071   44.7048 H   0  0  0  0  0  0  0  0  0  0  0  0
   59.7560   33.7460   45.7110 C   0  0  0  0  0  0  0  0  0  0  0  0
   59.8078   32.6973   45.3832 H   0  0  0  0  0  0  0  0  0  0  0  0
   60.7736   34.1454   45.8331 H   0  0  0  0  0  0  0  0  0  0  0  0
   60.3290   30.7850   47.0940 C   0  0  0  0  0  0  0  0  0  0  0  0
   60.4253   31.3544   46.1577 H   0  0  0  0  0  0  0  0  0  0  0  0
   60.3660   29.3830   47.0610 C   0  0  0  0  0  0  0  0  0  0  0  0
   60.3920   28.7120   45.7510 C   0  0  0  0  0  0  0  0  0  0  0  0
   61.0110   27.6230   45.6220 O   0  0  0  0  0  0  0  0  0  0  0  0
   59.7590   29.3020   44.6090 N   0  0  0  0  0  0  0  0  0  0  0  0
   58.4470   28.8870   44.1180 C   0  0  0  0  0  0  0  0  0  0  0  0
   58.4290   27.7921   44.0142 H   0  0  0  0  0  0  0  0  0  0  0  0
   58.2648   29.3633   43.1433 H   0  0  0  0  0  0  0  0  0  0  0  0
   57.3760   29.3080   45.0690 C   0  0  0  0  0  0  0  0  0  0  0  0
   57.1750   30.5320   45.2970 O   0  0  0  0  0  0  0  0  0  0  0  0
   56.4760   28.3180   45.5830 N   0  0  0  0  0  0  0  0  0  0  0  0
   56.7390   27.1050   45.9840 C   0  0  0  0  0  0  0  0  0  0  0  0
   58.0310   26.8130   46.3000 N   0  0  0  0  0  0  0  0  0  0  0  0
   58.4190   25.5880   46.7430 C   0  0  0  0  0  0  0  0  0  0  0  0
   59.4755   25.3998   46.9847 H   0  0  0  0  0  0  0  0  0  0  0  0
   57.4790   24.5710   46.8910 C   0  0  0  0  0  0  0  0  0  0  0  0
   57.7883   23.5737   47.2370 H   0  0  0  0  0  0  0  0  0  0  0  0
   56.1430   24.8310   46.5960 C   0  0  0  0  0  0  0  0  0  0  0  0
   55.3920   24.0354   46.7102 H   0  0  0  0  0  0  0  0  0  0  0  0
   55.7520   26.1000   46.1550 C   0  0  0  0  0  0  0  0  0  0  0  0
   54.3980   26.3380   45.9460 O   0  0  0  0  0  0  0  0  0  0  0  0
  1  2  1  0
  2  3  1  0
  3  4  2  0
  4  5  1  0
  4  6  1  0
  6  7  1  0
  6  8  2  0
  8  9  1  0
  9 10  2  0
  9 11  2  0
  9 12  1  0
 12 13  1  0
 13 14  1  0
 13 15  1  0
 13 16  1  0
 16 17  1  0
 16 18  1  0
 16 19  1  0
 19 20  1  0
 19 21  1  0
 19 22  1  0
 22 23  1  0
 22 24  1  0
 22 25  1  0
 25 26  1  0
 25 27  1  0
  8 28  1  0
 28 29  1  0
 28 30  2  0
 30 31  1  0
 31 32  2  0
 31 33  1  0
 33 34  1  0
 34 35  1  0
 34 36  1  0
 34 37  1  0
 37 38  2  0
 37 39  1  0
 39 40  2  0
 40 41  1  0
 41 42  1  0
 42 43  1  0
 42 44  2  0
 44 45  1  0
 44 46  1  0
 46 47  1  0
 46 48  2  0
 48 49  1  0
 30  3  1  0
 48 40  1  0
 25 12  1  0
M  CHG  3  33  -1  41  -1  49  -1
M  END
>  <UniqueID>  (18) 
18

>  <SMILES>  (18) 
O=C(C[N-]C(=O)c1cc(S(=O)(=O)N2CCCCC2)ccc1O)/N=c1/[n-]cccc1[O-]

>  <Energy>  (18) 
67.97844109315143

>  <Genealogy>  (18) 
O=C(C[N-]C(=O)c1cc(S(=O)(=O)N2CCCCC2)ccc1O)N=c1[n-]cccc1[O-] (protonated)
O=C(C[N-]C(=O)c1cc(S(=O)(=O)N2CCCCC2)ccc1O)/N=c1/[n-]cccc1[O-] (cis-trans isomerization)
O=C(C[N-]C(=O)c1cc(S(=O)(=O)N2CCCCC2)ccc1O)/N=c1/[n-]cccc1[O-] (3D coordinates assigned)
O=C(C[N-]C(=O)c1cc(S(=O)(=O)N2CCCCC2)ccc1O)/N=c1/[n-]cccc1[O-] (nonaromatic ring conformer: 67.97844109315143 kcal/mol)

>  <smiles>  (18) 
O=C(CNC(=O)c1cc(S(=O)(=O)N2CCCCC2)ccc1O)N=c1[nH]cccc1O

>  <score_type>  (18) 
oracle

>  <origin>  (18) 
adg

>  <m_score__min__energy>  (18) 
-16.359999999999999

>  <m_primary>  (18) 
energy

$$$$
18:0
     RDKit          3D

 41 43  0  0  0  0  0  0  0  0999 V2000
   54.0560   26.3040   46.4190 H   0  0  0  0  0  0  0  0  0  0  0  0
   54.8300   26.3420   45.7670 O   0  0  0  0  0  0  0  0  0  0  0  0
   56.1380   26.5370   46.2000 C   0  0  0  0  0  0  0  0  0  0  0  0
   56.7600   25.7170   47.0640 N   0  0  0  0  0  0  0  0  0  0  0  0
   57.9820   26.2760   47.1810 C   0  0  0  0  0  0  0  0  0  0  0  0
   58.8820   25.7920   47.9140 O   0  0  0  0  0  0  0  0  0  0  0  0
   58.1680   27.3910   46.4420 N   0  0  0  0  0  0  0  0  0  0  0  0
   56.9800   27.5660   45.8330 C   0  0  0  0  0  0  0  0  0  0  0  0
   56.7010   28.6020   44.8130 C   0  0  0  0  0  0  0  0  0  0  0  0
   56.0354   28.3239   43.9825 H   0  0  0  0  0  0  0  0  0  0  0  0
   57.1980   29.8700   44.8150 C   0  0  0  0  0  0  0  0  0  0  0  0
   57.7740   30.3990   45.9970 C   0  0  0  0  0  0  0  0  0  0  0  0
   57.8497   29.7581   46.8878 H   0  0  0  0  0  0  0  0  0  0  0  0
   58.2500   31.7160   46.0630 C   0  0  0  0  0  0  0  0  0  0  0  0
   58.8520   32.2330   47.3150 C   0  0  0  0  0  0  0  0  0  0  0  0
   58.1020   32.7190   48.2060 O   0  0  0  0  0  0  0  0  0  0  0  0
   60.2730   32.1750   47.5430 N   0  0  0  0  0  0  0  0  0  0  0  0
   61.1500   33.0540   46.7630 C   0  0  0  0  0  0  0  0  0  0  0  0
   60.6878   34.0500   46.6963 H   0  0  0  0  0  0  0  0  0  0  0  0
   61.2787   32.6103   45.7647 H   0  0  0  0  0  0  0  0  0  0  0  0
   62.5080   33.1890   47.3930 C   0  0  0  0  0  0  0  0  0  0  0  0
   63.2940   34.0710   46.9510 O   0  0  0  0  0  0  0  0  0  0  0  0
   62.9400   32.2980   48.4410 N   0  0  0  0  0  0  0  0  0  0  0  0
   64.3100   32.3950   48.9510 C   0  0  0  0  0  0  0  0  0  0  0  0
   64.2928   32.3938   50.0509 H   0  0  0  0  0  0  0  0  0  0  0  0
   64.8964   31.5361   48.5925 H   0  0  0  0  0  0  0  0  0  0  0  0
   64.7695   33.3279   48.5925 H   0  0  0  0  0  0  0  0  0  0  0  0
   61.9810   31.4190   49.1200 C   0  0  0  0  0  0  0  0  0  0  0  0
   61.5442   31.9565   49.9746 H   0  0  0  0  0  0  0  0  0  0  0  0
   62.5137   30.5185   49.4596 H   0  0  0  0  0  0  0  0  0  0  0  0
   60.8610   30.9910   48.1760 C   0  0  0  0  0  0  0  0  0  0  0  0
   60.0859   30.4573   48.7456 H   0  0  0  0  0  0  0  0  0  0  0  0
   61.2704   30.3271   47.4004 H   0  0  0  0  0  0  0  0  0  0  0  0
   58.1640   32.5300   44.9320 C   0  0  0  0  0  0  0  0  0  0  0  0
   58.5488   33.5598   44.9700 H   0  0  0  0  0  0  0  0  0  0  0  0
   57.5960   32.0490   43.7590 C   0  0  0  0  0  0  0  0  0  0  0  0
   57.5225   32.7128   42.8849 H   0  0  0  0  0  0  0  0  0  0  0  0
   57.1120   30.7290   43.6650 C   0  0  0  0  0  0  0  0  0  0  0  0
   56.6280   30.3400   42.4680 C   0  0  0  0  0  0  0  0  0  0  0  0
   56.2372   29.3200   42.3379 H   0  0  0  0  0  0  0  0  0  0  0  0
   56.6240   31.0427   41.6217 H   0  0  0  0  0  0  0  0  0  0  0  0
  1  2  1  0
  2  3  1  0
  3  4  1  0
  4  5  1  0
  5  6  2  0
  5  7  1  0
  7  8  1  0
  8  9  1  0
  9 10  1  0
  9 11  2  0
 11 12  1  0
 12 13  1  0
 12 14  2  0
 14 15  1  0
 15 16  2  0
 15 17  1  0
 17 18  1  0
 18 19  1  0
 18 20  1  0
 18 21  1  0
 21 22  2  0
 21 23  1  0
 23 24  1  0
 24 25  1  0
 24 26  1  0
 24 27  1  0
 23 28  1  0
 28 29  1  0
 28 30  1  0
 28 31  1  0
 31 32  1  0
 31 33  1  0
 14 34  1  0
 34 35  1  0
 34 36  2  0
 36 37  1  0
 36 38  1  0
 38 39  2  0
 39 40  1  0
 39 41  1  0
  8  3  2  0
 38 11  1  0
 31 17  1  0
M  CHG  2   4  -1   7  -1
M  END
>  <UniqueID>  (19) 
19

>  <SMILES>  (19) 
C=c1ccc(C(=O)N2CCN(C)C(=O)C2)c/c1=C\c1[n-]c(=O)[n-]c1O

>  <Energy>  (19) 
89.99701337546331

>  <Genealogy>  (19) 
C=c1ccc(C(=O)N2CCN(C)C(=O)C2)cc1=Cc1[n-]c(=O)[n-]c1O (protonated)
C=c1ccc(C(=O)N2CCN(C)C(=O)C2)c/c1=C\c1[n-]c(=O)[n-]c1O (cis-trans isomerization)
C=c1ccc(C(=O)N2CCN(C)C(=O)C2)c/c1=C\c1[n-]c(=O)[n-]c1O (3D coordinates assigned)
C=c1ccc(C(=O)N2CCN(C)C(=O)C2)c/c1=C\c1[n-]c(=O)[n-]c1O (nonaromatic ring conformer: 89.99701337546331 kcal/mol)

>  <smiles>  (19) 
C=c1ccc(C(=O)N2CCN(C)C(=O)C2)cc1=Cc1[nH]c(=O)[nH]c1O

>  <score_type>  (19) 
oracle

>  <origin>  (19) 
adg

>  <m_score__min__energy>  (19) 
-12.210000000000001

>  <m_primary>  (19) 
energy

$$$$
19:0
     RDKit          3D

 50 53  0  0  0  0  0  0  0  0999 V2000
   63.5100   33.2700   48.1460 C   0  0  0  0  0  0  0  0  0  0  0  0
   62.6960   33.6130   46.9360 C   0  0  0  0  0  0  0  0  0  0  0  0
   63.3010   33.9920   45.8960 O   0  0  0  0  0  0  0  0  0  0  0  0
   61.2130   33.5300   46.9210 C   0  0  0  0  0  0  0  0  0  0  0  0
   60.4690   34.5280   46.2550 C   0  0  0  0  0  0  0  0  0  0  0  0
   59.0630   34.4850   46.2210 C   0  0  0  0  0  0  0  0  0  0  0  0
   58.3690   33.4390   46.8410 C   0  0  0  0  0  0  0  0  0  0  0  0
   59.0940   32.4390   47.4860 C   0  0  0  0  0  0  0  0  0  0  0  0
   58.5210   31.3600   48.0820 N   0  0  0  0  0  0  0  0  0  0  0  0
   59.4570   30.5310   48.5980 C   0  0  0  0  0  0  0  0  0  0  0  0
   59.1310   29.4270   49.2060 N   0  0  0  0  0  0  0  0  0  0  0  0
   59.9000   28.2150   49.2930 C   0  0  0  0  0  0  0  0  0  0  0  0
   60.8230   28.0850   50.1430 O   0  0  0  0  0  0  0  0  0  0  0  0
   59.5800   27.0760   48.3610 C   0  0  0  0  0  0  0  0  0  0  0  0
   60.8190   26.6770   47.5180 C   0  0  0  0  0  0  0  0  0  0  0  0
   60.7590   27.2940   46.1160 C   0  0  0  0  0  0  0  0  0  0  0  0
   59.5660   26.8220   45.3720 N   0  0  0  0  0  0  0  0  0  0  0  0
   59.3230   27.5630   44.1130 C   0  0  0  0  0  0  0  0  0  0  0  0
   58.3700   28.7330   44.2640 C   0  0  0  0  0  0  0  0  0  0  0  0
   58.8380   30.0580   44.1820 C   0  0  0  0  0  0  0  0  0  0  0  0
   57.9480   31.1290   44.3070 C   0  0  0  0  0  0  0  0  0  0  0  0
   56.5900   30.8930   44.5300 C   0  0  0  0  0  0  0  0  0  0  0  0
   56.1180   29.5810   44.6410 C   0  0  0  0  0  0  0  0  0  0  0  0
   54.7690   29.3460   44.8760 O   0  0  0  0  0  0  0  0  0  0  0  0
   57.0050   28.5060   44.5150 C   0  0  0  0  0  0  0  0  0  0  0  0
   58.3520   26.5940   46.1960 C   0  0  0  0  0  0  0  0  0  0  0  0
   58.3550   27.4250   47.4840 C   0  0  0  0  0  0  0  0  0  0  0  0
   61.0290   31.1040   48.3250 S   0  0  0  0  0  0  0  0  0  0  0  0
   60.4860   32.4860   47.5260 C   0  0  0  0  0  0  0  0  0  0  0  0
   62.9373   33.5113   49.0536 H   0  0  0  0  0  0  0  0  0  0  0  0
   63.7464   32.1958   48.1364 H   0  0  0  0  0  0  0  0  0  0  0  0
   64.4439   33.8511   48.1364 H   0  0  0  0  0  0  0  0  0  0  0  0
   60.9972   35.3529   45.7544 H   0  0  0  0  0  0  0  0  0  0  0  0
   58.5049   35.2791   45.7034 H   0  0  0  0  0  0  0  0  0  0  0  0
   57.2697   33.4071   46.8193 H   0  0  0  0  0  0  0  0  0  0  0  0
   59.3128   26.1931   48.9603 H   0  0  0  0  0  0  0  0  0  0  0  0
   61.7279   27.0306   48.0268 H   0  0  0  0  0  0  0  0  0  0  0  0
   60.8322   25.5818   47.4158 H   0  0  0  0  0  0  0  0  0  0  0  0
   60.7143   28.3893   46.2078 H   0  0  0  0  0  0  0  0  0  0  0  0
   61.6584   26.9872   45.5620 H   0  0  0  0  0  0  0  0  0  0  0  0
   60.2862   27.9459   43.7448 H   0  0  0  0  0  0  0  0  0  0  0  0
   58.8540   26.8570   43.4118 H   0  0  0  0  0  0  0  0  0  0  0  0
   59.9085   30.2516   44.0189 H   0  0  0  0  0  0  0  0  0  0  0  0
   58.3191   32.1616   44.2294 H   0  0  0  0  0  0  0  0  0  0  0  0
   55.8918   31.7384   44.6183 H   0  0  0  0  0  0  0  0  0  0  0  0
   56.6318   27.4759   44.6130 H   0  0  0  0  0  0  0  0  0  0  0  0
   57.4664   26.8653   45.6027 H   0  0  0  0  0  0  0  0  0  0  0  0
   58.3357   25.5320   46.4823 H   0  0  0  0  0  0  0  0  0  0  0  0
   58.3906   28.4932   47.2237 H   0  0  0  0  0  0  0  0  0  0  0  0
   57.4400   27.1989   48.0511 H   0  0  0  0  0  0  0  0  0  0  0  0
  1  2  1  0
  2  3  2  0
  2  4  1  0
  4  5  2  0
  5  6  1  0
  6  7  2  0
  7  8  1  0
  8  9  1  0
  9 10  1  0
 10 11  2  3
 11 12  1  0
 12 13  2  0
 12 14  1  0
 14 15  1  0
 15 16  1  0
 16 17  1  0
 17 18  1  0
 18 19  1  0
 19 20  2  0
 20 21  1  0
 21 22  2  0
 22 23  1  0
 23 24  1  0
 23 25  2  0
 17 26  1  0
 26 27  1  0
 10 28  1  0
 28 29  1  0
 29  4  1  0
 29  8  2  0
 27 14  1  0
 25 19  1  0
  1 30  1  0
  1 31  1  0
  1 32  1  0
  5 33  1  0
  6 34  1  0
  7 35  1  0
 14 36  1  0
 15 37  1  0
 15 38  1  0
 16 39  1  0
 16 40  1  0
 18 41  1  0
 18 42  1  0
 20 43  1  0
 21 44  1  0
 22 45  1  0
 25 46  1  0
 26 47  1  0
 26 48  1  0
 27 49  1  0
 27 50  1  0
M  CHG  2   9  -1  24  -1
M  END
>  <UniqueID>  (20) 
20

>  <SMILES>  (20) 
CC(=O)c1cccc2[n-]c(=NC(=O)C3CCN(Cc4cccc([O-])c4)CC3)sc12

>  <Energy>  (20) 
104.63061183505813

>  <Genealogy>  (20) 
CC(=O)c1cccc2[n-]c(=NC(=O)C3CCN(Cc4cccc([O-])c4)CC3)sc12 (protonated)
CC(=O)c1cccc2[n-]c(=NC(=O)C3CCN(Cc4cccc([O-])c4)CC3)sc12 (3D coordinates assigned)
CC(=O)c1cccc2[n-]c(=NC(=O)C3CCN(Cc4cccc([O-])c4)CC3)sc12 (nonaromatic ring conformer: 104.63061183505813 kcal/mol)

>  <smiles>  (20) 
CC(=O)c1cccc2[nH]c(=NC(=O)C3CCN(Cc4cccc(O)c4)CC3)sc12

>  <score_type>  (20) 
oracle

>  <origin>  (20) 
adg

>  <m_score__min__energy>  (20) 
-14.300000000000001

>  <m_primary>  (20) 
energy

$$$$
20:0
     RDKit          3D

 70 74  0  0  0  0  0  0  0  0999 V2000
   62.1220   31.9270   47.2060 C   0  0  0  0  0  0  0  0  0  0  0  0
   61.2350   30.7390   47.0390 C   0  0  0  0  0  0  0  0  0  0  0  0
   60.3310   30.5450   46.0160 C   0  0  0  0  0  0  0  0  0  0  0  0
   59.7240   29.3350   46.2810 C   0  0  0  0  0  0  0  0  0  0  0  0
   60.2960   28.8700   47.4510 C   0  0  0  0  0  0  0  0  0  0  0  0
   59.9670   27.5920   48.1160 C   0  0  0  0  0  0  0  0  0  0  0  0
   60.0120   27.5360   49.3760 O   0  0  0  0  0  0  0  0  0  0  0  0
   59.5900   26.4150   47.3740 N   0  0  0  0  0  0  0  0  0  0  0  0
   60.3500   25.8410   46.2760 C   0  0  0  0  0  0  0  0  0  0  0  0
   59.6600   24.5260   45.9440 C   0  0  0  0  0  0  0  0  0  0  0  0
   58.2600   24.6250   46.5490 C   0  0  2  0  0  0  0  0  0  0  0  0
   57.3450   25.0730   45.5480 O   0  0  0  0  0  0  0  0  0  0  0  0
   57.3290   26.3810   45.0470 C   0  0  0  0  0  0  0  0  0  0  0  0
   56.6330   27.3730   45.7440 C   0  0  0  0  0  0  0  0  0  0  0  0
   56.6130   28.6760   45.2450 C   0  0  0  0  0  0  0  0  0  0  0  0
   57.3020   28.9870   44.0620 C   0  0  0  0  0  0  0  0  0  0  0  0
   57.2840   30.3880   43.5110 C   0  0  0  0  0  0  0  0  0  0  0  0
   57.4730   31.3640   44.5820 N   0  0  0  0  0  0  0  0  0  0  0  0
   58.1420   32.6170   44.3670 C   0  0  0  0  0  0  0  0  0  0  0  0
   58.2840   33.0540   43.1920 O   0  0  0  0  0  0  0  0  0  0  0  0
   58.6690   33.4020   45.5090 C   0  0  0  0  0  0  0  0  0  0  0  0
   59.3020   34.6370   45.2860 C   0  0  0  0  0  0  0  0  0  0  0  0
   59.8240   35.3660   46.3580 C   0  0  0  0  0  0  0  0  0  0  0  0
   59.7250   34.8710   47.6590 C   0  0  0  0  0  0  0  0  0  0  0  0
   59.0970   33.6410   47.9030 C   0  0  0  0  0  0  0  0  0  0  0  0
   59.0280   33.1120   49.2410 N   0  0  0  0  0  0  0  0  0  0  0  0
   58.5060   31.7670   49.5000 C   0  0  0  0  0  0  0  0  0  0  0  0
   59.5930   30.8920   50.1540 C   0  0  0  0  0  0  0  0  0  0  0  0
   60.5590   31.6550   50.9880 N   0  0  0  0  0  0  0  0  0  0  0  0
   61.8430   31.8560   50.2960 C   0  0  0  0  0  0  0  0  0  0  0  0
   60.0050   32.9270   51.5030 C   0  0  0  0  0  0  0  0  0  0  0  0
   59.5860   33.8730   50.3640 C   0  0  0  0  0  0  0  0  0  0  0  0
   58.5810   32.9080   46.8220 C   0  0  0  0  0  0  0  0  0  0  0  0
   57.9830   27.9610   43.3920 C   0  0  0  0  0  0  0  0  0  0  0  0
   57.9810   26.6970   43.8950 N   0  0  0  0  0  0  0  0  0  0  0  0
   58.3820   25.6620   47.6670 C   0  0  0  0  0  0  0  0  0  0  0  0
   61.1900   29.7310   47.8790 O   0  0  0  0  0  0  0  0  0  0  0  0
   62.2705   32.1259   48.2776 H   0  0  0  0  0  0  0  0  0  0  0  0
   63.0944   31.7281   46.7318 H   0  0  0  0  0  0  0  0  0  0  0  0
   61.6550   32.8028   46.7318 H   0  0  0  0  0  0  0  0  0  0  0  0
   60.1349   31.2152   45.1661 H   0  0  0  0  0  0  0  0  0  0  0  0
   58.9439   28.8407   45.6834 H   0  0  0  0  0  0  0  0  0  0  0  0
   60.3344   26.5133   45.4055 H   0  0  0  0  0  0  0  0  0  0  0  0
   61.4054   25.6898   46.5468 H   0  0  0  0  0  0  0  0  0  0  0  0
   59.5975   24.3909   44.8541 H   0  0  0  0  0  0  0  0  0  0  0  0
   60.2146   23.6654   46.3462 H   0  0  0  0  0  0  0  0  0  0  0  0
   57.8907   23.6612   46.9295 H   0  0  0  0  0  0  0  0  0  0  0  0
   56.1056   27.1285   46.6778 H   0  0  0  0  0  0  0  0  0  0  0  0
   56.0567   29.4604   45.7792 H   0  0  0  0  0  0  0  0  0  0  0  0
   58.0941   30.4975   42.7749 H   0  0  0  0  0  0  0  0  0  0  0  0
   56.3095   30.5691   43.0339 H   0  0  0  0  0  0  0  0  0  0  0  0
   57.1010   31.1310   45.5300 H   0  0  0  0  0  0  0  0  0  0  0  0
   59.3869   35.0316   44.2627 H   0  0  0  0  0  0  0  0  0  0  0  0
   60.3147   36.3335   46.1756 H   0  0  0  0  0  0  0  0  0  0  0  0
   60.1416   35.4485   48.4974 H   0  0  0  0  0  0  0  0  0  0  0  0
   57.6405   31.8368   50.1753 H   0  0  0  0  0  0  0  0  0  0  0  0
   58.2021   31.3098   48.5468 H   0  0  0  0  0  0  0  0  0  0  0  0
   59.0987   30.1449   50.7924 H   0  0  0  0  0  0  0  0  0  0  0  0
   60.1690   30.4338   49.3365 H   0  0  0  0  0  0  0  0  0  0  0  0
   62.6443   31.9814   51.0391 H   0  0  0  0  0  0  0  0  0  0  0  0
   62.0609   30.9810   49.6660 H   0  0  0  0  0  0  0  0  0  0  0  0
   61.7831   32.7557   49.6660 H   0  0  0  0  0  0  0  0  0  0  0  0
   59.1243   32.7059   52.1238 H   0  0  0  0  0  0  0  0  0  0  0  0
   60.7888   33.4272   52.0907 H   0  0  0  0  0  0  0  0  0  0  0  0
   58.8264   34.5752   50.7380 H   0  0  0  0  0  0  0  0  0  0  0  0
   60.4725   34.4227   50.0148 H   0  0  0  0  0  0  0  0  0  0  0  0
   58.1019   31.9349   47.0051 H   0  0  0  0  0  0  0  0  0  0  0  0
   58.5204   28.1786   42.4572 H   0  0  0  0  0  0  0  0  0  0  0  0
   57.5063   26.3276   47.6701 H   0  0  0  0  0  0  0  0  0  0  0  0
   58.4296   25.1872   48.6581 H   0  0  0  0  0  0  0  0  0  0  0  0
  1  2  1  0
  2  3  2  0
  3  4  1  0
  4  5  2  0
  5  6  1  0
  6  7  2  0
  6  8  1  0
  8  9  1  0
  9 10  1  0
 10 11  1  0
 11 12  1  0
 12 13  1  0
 13 14  2  0
 14 15  1  0
 15 16  2  0
 16 17  1  0
 17 18  1  0
 18 19  1  0
 19 20  2  0
 19 21  1  0
 21 22  2  0
 22 23  1  0
 23 24  2  0
 24 25  1  0
 25 26  1  0
 26 27  1  0
 27 28  1  0
 28 29  1  0
 29 30  1  0
 29 31  1  0
 31 32  1  0
 25 33  2  0
 16 34  1  0
 34 35  2  0
 11 36  1  0
  5 37  1  0
 37  2  1  0
 36  8  1  0
 35 13  1  0
 33 21  1  0
 32 26  1  0
  1 38  1  0
  1 39  1  0
  1 40  1  0
  3 41  1  0
  4 42  1  0
  9 43  1  0
  9 44  1  0
 10 45  1  0
 10 46  1  0
 11 47  1  1
 14 48  1  0
 15 49  1  0
 17 50  1  0
 17 51  1  0
 18 52  1  0
 22 53  1  0
 23 54  1  0
 24 55  1  0
 27 56  1  0
 27 57  1  0
 28 58  1  0
 28 59  1  0
 30 60  1  0
 30 61  1  0
 30 62  1  0
 31 63  1  0
 31 64  1  0
 32 65  1  0
 32 66  1  0
 33 67  1  0
 34 68  1  0
 36 69  1  0
 36 70  1  0
M  END
>  <UniqueID>  (21) 
21

>  <SMILES>  (21) 
Cc1ccc(C(=O)N2CC[C@H](Oc3ccc(CNC(=O)c4cccc(N5CCN(C)CC5)c4)cn3)C2)o1

>  <Energy>  (21) 
108.81510858072663

>  <Genealogy>  (21) 
Cc1ccc(C(=O)N2CC[C@H](Oc3ccc(CNC(=O)c4cccc(N5CCN(C)CC5)c4)cn3)C2)o1 (chirality)
Cc1ccc(C(=O)N2CC[C@H](Oc3ccc(CNC(=O)c4cccc(N5CCN(C)CC5)c4)cn3)C2)o1 (3D coordinates assigned)
Cc1ccc(C(=O)N2CC[C@H](Oc3ccc(CNC(=O)c4cccc(N5CCN(C)CC5)c4)cn3)C2)o1 (nonaromatic ring conformer: 108.81510858072663 kcal/mol)

>  <smiles>  (21) 
Cc1ccc(C(=O)N2CCC(Oc3ccc(CNC(=O)c4cccc(N5CCN(C)CC5)c4)cn3)C2)o1

>  <score_type>  (21) 
oracle

>  <origin>  (21) 
adg

>  <m_score__min__energy>  (21) 
-9.4700000000000006

>  <m_primary>  (21) 
energy

$$$$
21:0
     RDKit          3D

 58 60  0  0  0  0  0  0  0  0999 V2000
   60.6870   28.9860   49.1670 C   0  0  0  0  0  0  0  0  0  0  0  0
   59.1960   29.2760   49.0190 C   0  0  0  0  0  0  0  0  0  0  0  0
   58.9690   30.6880   48.5540 C   0  0  0  0  0  0  0  0  0  0  0  0
   58.7000   30.8870   47.3390 O   0  0  0  0  0  0  0  0  0  0  0  0
   59.0730   31.8040   49.4600 N   0  0  0  0  0  0  0  0  0  0  0  0
   58.1540   32.0220   50.5660 C   0  0  0  0  0  0  0  0  0  0  0  0
   58.8640   32.9800   51.5140 C   0  0  0  0  0  0  0  0  0  0  0  0
   59.9350   33.6630   50.6730 C   0  0  0  0  0  0  0  0  0  0  0  0
   60.2460   32.6710   49.5470 C   0  0  2  0  0  0  0  0  0  0  0  0
   60.5980   33.2990   48.1970 C   0  0  0  0  0  0  0  0  0  0  0  0
   61.7370   33.7360   48.0650 O   0  0  0  0  0  0  0  0  0  0  0  0
   59.6650   33.3300   47.0720 N   0  0  0  0  0  0  0  0  0  0  0  0
   60.3480   33.8110   45.8430 C   0  0  0  0  0  0  0  0  0  0  0  0
   59.3570   34.1750   44.7130 C   0  0  0  0  0  0  0  0  0  0  0  0
   58.0490   33.5720   44.9930 N   0  0  0  0  0  0  0  0  0  0  0  0
   57.6580   32.3590   44.3130 C   0  0  0  0  0  0  0  0  0  0  0  0
   58.2100   32.0380   43.2220 O   0  0  0  0  0  0  0  0  0  0  0  0
   56.6740   31.4930   44.8810 N   0  0  0  0  0  0  0  0  0  0  0  0
   56.4640   29.8660   44.3380 S   0  0  0  0  0  0  0  0  0  0  0  0
   55.1460   29.3430   44.8420 O   0  0  0  0  0  0  0  0  0  0  0  0
   56.4580   29.8160   42.8370 O   0  0  0  0  0  0  0  0  0  0  0  0
   57.7740   28.8880   44.9850 C   0  0  0  0  0  0  0  0  0  0  0  0
   59.1060   29.2270   44.7110 C   0  0  0  0  0  0  0  0  0  0  0  0
   60.1470   28.4340   45.2060 C   0  0  0  0  0  0  0  0  0  0  0  0
   59.8670   27.2890   45.9680 C   0  0  0  0  0  0  0  0  0  0  0  0
   60.9950   26.4560   46.5050 C   0  0  0  0  0  0  0  0  0  0  0  0
   58.5320   26.9390   46.2250 C   0  0  0  0  0  0  0  0  0  0  0  0
   57.4910   27.7330   45.7370 C   0  0  0  0  0  0  0  0  0  0  0  0
   57.4050   33.9940   46.2440 C   0  0  0  0  0  0  0  0  0  0  0  0
   58.4610   34.1580   47.3580 C   0  0  0  0  0  0  0  0  0  0  0  0
   60.9465   28.9355   50.2348 H   0  0  0  0  0  0  0  0  0  0  0  0
   60.9231   28.0251   48.6865 H   0  0  0  0  0  0  0  0  0  0  0  0
   61.2661   29.7883   48.6865 H   0  0  0  0  0  0  0  0  0  0  0  0
   58.7648   28.5807   48.2837 H   0  0  0  0  0  0  0  0  0  0  0  0
   58.7131   29.1460   49.9988 H   0  0  0  0  0  0  0  0  0  0  0  0
   57.2163   32.4677   50.2025 H   0  0  0  0  0  0  0  0  0  0  0  0
   57.8919   31.0780   51.0662 H   0  0  0  0  0  0  0  0  0  0  0  0
   58.1564   33.7220   51.9123 H   0  0  0  0  0  0  0  0  0  0  0  0
   59.2963   32.4544   52.3782 H   0  0  0  0  0  0  0  0  0  0  0  0
   59.5573   34.6103   50.2606 H   0  0  0  0  0  0  0  0  0  0  0  0
   60.8289   33.9115   51.2639 H   0  0  0  0  0  0  0  0  0  0  0  0
   61.1659   32.1202   49.7927 H   0  0  0  0  0  0  0  0  0  0  0  0
   59.3140   32.3540   46.9200 H   0  0  0  0  0  0  0  0  0  0  0  0
   60.9379   34.7046   46.0951 H   0  0  0  0  0  0  0  0  0  0  0  0
   60.9852   32.9932   45.4754 H   0  0  0  0  0  0  0  0  0  0  0  0
   59.2516   35.2685   44.6566 H   0  0  0  0  0  0  0  0  0  0  0  0
   59.7384   33.7922   43.7549 H   0  0  0  0  0  0  0  0  0  0  0  0
   59.3332   30.1173   44.1062 H   0  0  0  0  0  0  0  0  0  0  0  0
   61.1912   28.7095   44.9967 H   0  0  0  0  0  0  0  0  0  0  0  0
   60.9721   26.4729   47.6046 H   0  0  0  0  0  0  0  0  0  0  0  0
   60.8861   25.4199   46.1519 H   0  0  0  0  0  0  0  0  0  0  0  0
   61.9532   26.8649   46.1519 H   0  0  0  0  0  0  0  0  0  0  0  0
   58.3048   26.0370   46.8123 H   0  0  0  0  0  0  0  0  0  0  0  0
   56.4467   27.4542   45.9414 H   0  0  0  0  0  0  0  0  0  0  0  0
   56.8939   34.9547   46.0835 H   0  0  0  0  0  0  0  0  0  0  0  0
   56.6771   33.2279   46.5493 H   0  0  0  0  0  0  0  0  0  0  0  0
   58.7573   35.2155   47.4210 H   0  0  0  0  0  0  0  0  0  0  0  0
   58.0228   33.8254   48.3106 H   0  0  0  0  0  0  0  0  0  0  0  0
  1  2  1  0
  2  3  1  0
  3  4  2  0
  3  5  1  0
  5  6  1  0
  6  7  1  0
  7  8  1  0
  8  9  1  0
  9 10  1  0
 10 11  2  0
 10 12  1  0
 12 13  1  0
 13 14  1  0
 14 15  1  0
 15 16  1  0
 16 17  2  0
 16 18  1  0
 18 19  1  0
 19 20  2  0
 19 21  2  0
 19 22  1  0
 22 23  2  0
 23 24  1  0
 24 25  2  0
 25 26  1  0
 25 27  1  0
 27 28  2  0
 15 29  1  0
 29 30  1  0
  9  5  1  0
 30 12  1  0
 28 22  1  0
  1 31  1  0
  1 32  1  0
  1 33  1  0
  2 34  1  0
  2 35  1  0
  6 36  1  0
  6 37  1  0
  7 38  1  0
  7 39  1  0
  8 40  1  0
  8 41  1  0
  9 42  1  1
 12 43  1  0
 13 44  1  0
 13 45  1  0
 14 46  1  0
 14 47  1  0
 23 48  1  0
 24 49  1  0
 26 50  1  0
 26 51  1  0
 26 52  1  0
 27 53  1  0
 28 54  1  0
 29 55  1  0
 29 56  1  0
 30 57  1  0
 30 58  1  0
M  CHG  2  12   1  18  -1
M  END
>  <UniqueID>  (22) 
22

>  <SMILES>  (22) 
CCC(=O)N1CCC[C@@H]1C(=O)[NH+]1CCN(C(=O)[N-]S(=O)(=O)c2ccc(C)cc2)CC1

>  <Energy>  (22) 
68.55377048881958

>  <Genealogy>  (22) 
CCC(=O)N1CCCC1C(=O)[NH+]1CCN(C(=O)[N-]S(=O)(=O)c2ccc(C)cc2)CC1 (protonated)
CCC(=O)N1CCC[C@@H]1C(=O)[NH+]1CCN(C(=O)[N-]S(=O)(=O)c2ccc(C)cc2)CC1 (chirality)
CCC(=O)N1CCC[C@@H]1C(=O)[NH+]1CCN(C(=O)[N-]S(=O)(=O)c2ccc(C)cc2)CC1 (3D coordinates assigned)
CCC(=O)N1CCC[C@@H]1C(=O)[NH+]1CCN(C(=O)[N-]S(=O)(=O)c2ccc(C)cc2)CC1 (nonaromatic ring conformer: 68.55377048881958 kcal/mol)

>  <smiles>  (22) 
CCC(=O)N1CCCC1C(=O)N1CCN(C(=O)NS(=O)(=O)c2ccc(C)cc2)CC1

>  <score_type>  (22) 
oracle

>  <origin>  (22) 
adg

>  <m_score__min__energy>  (22) 
-9.0999999999999996

>  <m_primary>  (22) 
energy

$$$$
22:0
     RDKit          3D

 42 45  0  0  0  0  0  0  0  0999 V2000
   54.7330   26.2310   45.7490 N   0  0  0  0  0  0  0  0  0  0  0  0
   56.1160   26.1750   46.0920 C   0  0  0  0  0  0  0  0  0  0  0  0
   56.6520   25.0520   46.2990 O   0  0  0  0  0  0  0  0  0  0  0  0
   56.9170   27.4170   46.2040 C   0  0  0  0  0  0  0  0  0  0  0  0
   57.8360   27.5810   47.2560 C   0  0  0  0  0  0  0  0  0  0  0  0
   58.5920   28.7510   47.3620 C   0  0  0  0  0  0  0  0  0  0  0  0
   58.4450   29.7850   46.4210 C   0  0  0  0  0  0  0  0  0  0  0  0
   59.2520   31.0260   46.5380 C   0  0  0  0  0  0  0  0  0  0  0  0
   58.8820   32.1830   45.8340 C   0  0  0  0  0  0  0  0  0  0  0  0
   59.6410   33.3440   45.9690 C   0  0  0  0  0  0  0  0  0  0  0  0
   60.7620   33.3490   46.7960 C   0  0  0  0  0  0  0  0  0  0  0  0
   61.1260   32.1760   47.4750 C   0  0  0  0  0  0  0  0  0  0  0  0
   62.2910   32.1690   48.3870 C   0  0  0  0  0  0  0  0  0  0  0  0
   62.4960   31.3120   49.4080 C   0  0  0  0  0  0  0  0  0  0  0  0
   61.4960   30.3300   49.8850 C   0  0  0  0  0  0  0  0  0  0  0  0
   60.9720   30.4540   51.0220 O   0  0  0  0  0  0  0  0  0  0  0  0
   61.1210   29.2610   49.0800 O   0  0  0  0  0  0  0  0  0  0  0  0
   63.8290   31.5020   50.0290 C   0  0  0  0  0  0  0  0  0  0  0  0
   64.3680   30.8260   51.1350 C   0  0  0  0  0  0  0  0  0  0  0  0
   65.6520   31.1700   51.5850 C   0  0  0  0  0  0  0  0  0  0  0  0
   66.3830   32.1870   50.9450 C   0  0  0  0  0  0  0  0  0  0  0  0
   65.8290   32.8700   49.8520 C   0  0  0  0  0  0  0  0  0  0  0  0
   64.5550   32.5090   49.4170 C   0  0  0  0  0  0  0  0  0  0  0  0
   63.6570   33.2380   48.1310 S   0  0  0  0  0  0  0  0  0  0  0  0
   64.3050   33.0360   46.7910 O   0  0  0  0  0  0  0  0  0  0  0  0
   63.3340   34.6800   48.4040 O   0  0  0  0  0  0  0  0  0  0  0  0
   60.3590   31.0540   47.3420 N   0  0  0  0  0  0  0  0  0  0  0  0
   57.5260   29.6220   45.3700 C   0  0  0  0  0  0  0  0  0  0  0  0
   56.7710   28.4500   45.2630 C   0  0  0  0  0  0  0  0  0  0  0  0
   54.0450   26.7140   46.3680 H   0  0  0  0  0  0  0  0  0  0  0  0
   57.9605   26.7816   48.0013 H   0  0  0  0  0  0  0  0  0  0  0  0
   59.3085   28.8641   48.1889 H   0  0  0  0  0  0  0  0  0  0  0  0
   57.9979   32.1732   45.1795 H   0  0  0  0  0  0  0  0  0  0  0  0
   59.3553   34.2553   45.4232 H   0  0  0  0  0  0  0  0  0  0  0  0
   61.3577   34.2659   46.9160 H   0  0  0  0  0  0  0  0  0  0  0  0
   63.7920   30.0377   51.6418 H   0  0  0  0  0  0  0  0  0  0  0  0
   66.0897   30.6406   52.4442 H   0  0  0  0  0  0  0  0  0  0  0  0
   67.3904   32.4472   51.3020 H   0  0  0  0  0  0  0  0  0  0  0  0
   66.3879   33.6730   49.3492 H   0  0  0  0  0  0  0  0  0  0  0  0
   60.6510   30.1850   47.8420 H   0  0  0  0  0  0  0  0  0  0  0  0
   57.3998   30.4224   44.6261 H   0  0  0  0  0  0  0  0  0  0  0  0
   56.0563   28.3357   44.4346 H   0  0  0  0  0  0  0  0  0  0  0  0
  1  2  1  0
  2  3  2  0
  2  4  1  0
  4  5  2  0
  5  6  1  0
  6  7  2  0
  7  8  1  0
  8  9  2  0
  9 10  1  0
 10 11  2  0
 11 12  1  0
 12 13  1  0
 13 14  2  0
 14 15  1  0
 15 16  2  0
 15 17  1  0
 14 18  1  0
 18 19  2  0
 19 20  1  0
 20 21  2  0
 21 22  1  0
 22 23  2  0
 23 24  1  0
 24 25  2  0
 24 26  2  0
 12 27  2  0
  7 28  1  0
 28 29  2  0
 29  4  1  0
 27  8  1  0
 24 13  1  0
 23 18  1  0
  1 30  1  0
  5 31  1  0
  6 32  1  0
  9 33  1  0
 10 34  1  0
 11 35  1  0
 19 36  1  0
 20 37  1  0
 21 38  1  0
 22 39  1  0
 27 40  1  0
 28 41  1  0
 29 42  1  0
M  CHG  3   1  -1  17  -1  27   1
M  END
>  <UniqueID>  (23) 
23

>  <SMILES>  (23) 
[NH-]C(=O)c1ccc(-c2cccc(C3=C(C(=O)[O-])c4ccccc4S3(=O)=O)[nH+]2)cc1

>  <Energy>  (23) 
81.8288899709099

>  <Genealogy>  (23) 
[NH-]C(=O)c1ccc(-c2cccc(C3=C(C(=O)[O-])c4ccccc4S3(=O)=O)[nH+]2)cc1 (protonated)
[NH-]C(=O)c1ccc(-c2cccc(C3=C(C(=O)[O-])c4ccccc4S3(=O)=O)[nH+]2)cc1 (3D coordinates assigned)
[NH-]C(=O)c1ccc(-c2cccc(C3=C(C(=O)[O-])c4ccccc4S3(=O)=O)[nH+]2)cc1 (nonaromatic ring conformer: 81.8288899709099 kcal/mol)

>  <smiles>  (23) 
NC(=O)c1ccc(-c2cccc(C3=C(C(=O)O)c4ccccc4S3(=O)=O)n2)cc1

>  <score_type>  (23) 
oracle

>  <origin>  (23) 
adg

>  <m_score__min__energy>  (23) 
-11.539999999999999

>  <m_primary>  (23) 
energy

$$$$
23:0
     RDKit          3D

 42 44  0  0  0  0  0  0  0  0999 V2000
   55.7551   31.4173   51.3724 H   0  0  0  0  0  0  0  0  0  0  0  0
   54.7270   31.2130   51.7060 C   0  0  0  0  0  0  0  0  0  0  0  0
   53.8987   31.8456   51.3542 H   0  0  0  0  0  0  0  0  0  0  0  0
   54.4830   30.1910   52.5430 C   0  0  0  0  0  0  0  0  0  0  0  0
   53.2310   29.8140   53.0490 C   0  0  0  0  0  0  0  0  0  0  0  0
   52.0380   30.3800   52.7620 C   0  0  0  0  0  0  0  0  0  0  0  0
   51.3526   30.5593   53.6035 H   0  0  0  0  0  0  0  0  0  0  0  0
   51.5720   30.7800   51.4150 C   0  0  0  0  0  0  0  0  0  0  0  0
   51.6790   30.0510   50.2900 N   0  0  0  0  0  0  0  0  0  0  0  0
   51.1550   30.8530   49.3400 C   0  0  0  0  0  0  0  0  0  0  0  0
   51.0750   30.5100   48.1320 O   0  0  0  0  0  0  0  0  0  0  0  0
   50.7260   32.0520   49.7850 N   0  0  0  0  0  0  0  0  0  0  0  0
   51.0010   31.9920   51.0980 C   0  0  0  0  0  0  0  0  0  0  0  0
   50.7360   33.0240   51.9890 O   0  0  0  0  0  0  0  0  0  0  0  0
   53.4720   28.7630   53.9260 C   0  0  0  0  0  0  0  0  0  0  0  0
   52.7223   28.2185   54.5188 H   0  0  0  0  0  0  0  0  0  0  0  0
   54.8320   28.5340   53.9100 C   0  0  0  0  0  0  0  0  0  0  0  0
   55.5250   27.4800   54.7200 C   0  0  0  0  0  0  0  0  0  0  0  0
   55.3866   27.6904   55.7908 H   0  0  0  0  0  0  0  0  0  0  0  0
   55.0980   26.4947   54.4818 H   0  0  0  0  0  0  0  0  0  0  0  0
   56.5989   27.4815   54.4818 H   0  0  0  0  0  0  0  0  0  0  0  0
   55.4490   29.3940   53.0690 N   0  0  0  0  0  0  0  0  0  0  0  0
   56.8610   29.4240   52.7900 C   0  0  0  0  0  0  0  0  0  0  0  0
   57.6680   28.8920   53.6010 O   0  0  0  0  0  0  0  0  0  0  0  0
   57.3390   29.9830   51.5570 N   0  0  0  0  0  0  0  0  0  0  0  0
   56.6550   30.0740   50.7730 H   0  0  0  0  0  0  0  0  0  0  0  0
   58.7140   30.3200   51.3040 C   0  0  0  0  0  0  0  0  0  0  0  0
   59.3560   31.2520   52.1300 C   0  0  0  0  0  0  0  0  0  0  0  0
   58.7993   31.7286   52.9504 H   0  0  0  0  0  0  0  0  0  0  0  0
   60.6980   31.5810   51.9200 C   0  0  0  0  0  0  0  0  0  0  0  0
   61.1841   32.3245   52.5688 H   0  0  0  0  0  0  0  0  0  0  0  0
   61.4340   30.9710   50.8870 C   0  0  0  0  0  0  0  0  0  0  0  0
   62.8620   31.3320   50.6750 C   0  0  0  0  0  0  0  0  0  0  0  0
   63.3680   31.2370   49.5240 O   0  0  0  0  0  0  0  0  0  0  0  0
   63.7320   31.8150   51.7970 C   0  0  0  0  0  0  0  0  0  0  0  0
   63.2663   31.5565   52.7595 H   0  0  0  0  0  0  0  0  0  0  0  0
   64.7198   31.3362   51.7273 H   0  0  0  0  0  0  0  0  0  0  0  0
   63.8479   32.9066   51.7273 H   0  0  0  0  0  0  0  0  0  0  0  0
   60.7910   30.0170   50.0740 C   0  0  0  0  0  0  0  0  0  0  0  0
   61.3509   29.5240   49.2656 H   0  0  0  0  0  0  0  0  0  0  0  0
   59.4480   29.6910   50.2850 C   0  0  0  0  0  0  0  0  0  0  0  0
   58.9627   28.9365   49.6484 H   0  0  0  0  0  0  0  0  0  0  0  0
  1  2  1  0
  2  3  1  0
  2  4  2  0
  4  5  1  0
  5  6  2  0
  6  7  1  0
  6  8  1  0
  8  9  1  0
  9 10  1  0
 10 11  2  0
 10 12  1  0
 12 13  1  0
 13 14  1  0
  5 15  1  0
 15 16  1  0
 15 17  2  0
 17 18  1  0
 18 19  1  0
 18 20  1  0
 18 21  1  0
 17 22  1  0
 22 23  1  0
 23 24  2  0
 23 25  1  0
 25 26  1  0
 25 27  1  0
 27 28  2  0
 28 29  1  0
 28 30  1  0
 30 31  1  0
 30 32  2  0
 32 33  1  0
 33 34  2  0
 33 35  1  0
 35 36  1  0
 35 37  1  0
 35 38  1  0
 32 39  1  0
 39 40  1  0
 39 41  2  0
 41 42  1  0
 22  4  1  0
 41 27  1  0
 13  8  2  0
M  CHG  3   9  -1  12  -1  14  -1
M  END
>  <UniqueID>  (24) 
24

>  <SMILES>  (24) 
C=c1/c(=C/c2[n-]c(=O)[n-]c2[O-])cc(C)n1C(=O)Nc1ccc(C(C)=O)cc1

>  <Energy>  (24) 
114.77393836687372

>  <Genealogy>  (24) 
C=c1c(=Cc2[n-]c(=O)[n-]c2[O-])cc(C)n1C(=O)Nc1ccc(C(C)=O)cc1 (protonated)
C=c1/c(=C/c2[n-]c(=O)[n-]c2[O-])cc(C)n1C(=O)Nc1ccc(C(C)=O)cc1 (cis-trans isomerization)
C=c1/c(=C/c2[n-]c(=O)[n-]c2[O-])cc(C)n1C(=O)Nc1ccc(C(C)=O)cc1 (3D coordinates assigned)
C=c1/c(=C/c2[n-]c(=O)[n-]c2[O-])cc(C)n1C(=O)Nc1ccc(C(C)=O)cc1 (optimized conformer: 114.77393836687372 kcal/mol)

>  <smiles>  (24) 
C=c1c(=Cc2[nH]c(=O)[nH]c2O)cc(C)n1C(=O)Nc1ccc(C(C)=O)cc1

>  <score_type>  (24) 
oracle

>  <origin>  (24) 
adg

>  <m_score__min__energy>  (24) 
-15.640000000000001

>  <m_primary>  (24) 
energy

$$$$
24:0
     RDKit          3D

 58 60  0  0  1  0  0  0  0  0999 V2000
   61.6550   30.9140   48.1080 C   0  0  0  0  0  0  0  0  0  0  0  0
   61.3730   30.2490   49.4480 C   0  0  0  0  0  0  0  0  0  0  0  0
   61.3230   31.2680   50.5250 C   0  0  0  0  0  0  0  0  0  0  0  0
   62.4130   31.5740   51.3090 C   0  0  0  0  0  0  0  0  0  0  0  0
   63.7650   31.0080   51.2780 C   0  0  0  0  0  0  0  0  0  0  0  0
   64.0470   29.9830   51.9570 O   0  0  0  0  0  0  0  0  0  0  0  0
   64.8130   31.6210   50.4550 C   0  0  0  0  0  0  0  0  0  0  0  0
   64.3220   32.9610   49.9640 C   0  0  0  0  0  0  0  0  0  0  0  0
   64.1790   32.9150   48.5260 N   0  0  0  0  0  0  0  0  0  0  0  0
   63.2020   33.7780   47.9470 C   0  0  0  0  0  0  0  0  0  0  0  0
   62.9350   33.8490   46.4930 C   0  0  0  0  0  0  0  0  0  0  0  0
   62.5310   34.5190   48.7250 O   0  0  0  0  0  0  0  0  0  0  0  0
   61.9890   32.5610   52.1730 C   0  0  0  0  0  0  0  0  0  0  0  0
   60.6700   32.8190   51.8880 C   0  0  0  0  0  0  0  0  0  0  0  0
   59.8370   33.8380   52.6120 C   0  0  0  0  0  0  0  0  0  0  0  0
   60.2570   32.0130   50.8620 N   0  0  0  0  0  0  0  0  0  0  0  0
   58.9300   32.0730   50.3370 C   0  0  0  0  0  0  0  0  0  0  0  0
   58.8980   32.4590   48.8650 C   0  0  0  0  0  0  0  0  0  0  0  0
   58.5810   32.0640   47.8450 N   0  0  0  0  0  0  0  0  0  0  0  0
   58.6390   32.5900   46.6340 C   0  0  0  0  0  0  0  0  0  0  0  0
   58.2400   32.1000   45.4130 C   0  0  0  0  0  0  0  0  0  0  0  0
   58.3880   32.8420   44.2490 C   0  0  0  0  0  0  0  0  0  0  0  0
   58.0280   32.1740   43.0200 C   0  0  0  0  0  0  0  0  0  0  0  0
   57.0020   31.4020   42.8120 C   0  0  0  0  0  0  0  0  0  0  0  0
   56.6960   30.1520   43.4570 C   0  0  0  0  0  0  0  0  0  0  0  0
   57.1000   28.8920   43.1410 O   0  0  0  0  0  0  0  0  0  0  0  0
   55.9090   30.2350   44.5050 N   0  0  0  0  0  0  0  0  0  0  0  0
   55.4230   29.0660   45.0540 O   0  0  0  0  0  0  0  0  0  0  0  0
   58.9560   34.1090   44.3110 C   0  0  0  0  0  0  0  0  0  0  0  0
   59.3790   34.6680   45.5100 C   0  0  0  0  0  0  0  0  0  0  0  0
   59.1900   33.8520   46.6380 C   0  0  0  0  0  0  0  0  0  0  0  0
   59.5900   34.1890   48.4110 S   0  0  0  0  0  0  0  0  0  0  0  0
   62.0793   31.9146   48.2773 H   0  0  0  0  0  0  0  0  0  0  0  0
   62.3716   30.3033   47.5392 H   0  0  0  0  0  0  0  0  0  0  0  0
   60.7179   31.0046   47.5392 H   0  0  0  0  0  0  0  0  0  0  0  0
   60.4068   29.7257   49.3978 H   0  0  0  0  0  0  0  0  0  0  0  0
   62.1773   29.5320   49.6693 H   0  0  0  0  0  0  0  0  0  0  0  0
   65.7233   31.7584   51.0571 H   0  0  0  0  0  0  0  0  0  0  0  0
   65.0451   30.9706   49.5988 H   0  0  0  0  0  0  0  0  0  0  0  0
   63.3487   33.1876   50.4238 H   0  0  0  0  0  0  0  0  0  0  0  0
   65.0441   33.7437   50.2396 H   0  0  0  0  0  0  0  0  0  0  0  0
   64.7280   32.3100   47.8930 H   0  0  0  0  0  0  0  0  0  0  0  0
   61.8842   34.1284   46.3264 H   0  0  0  0  0  0  0  0  0  0  0  0
   63.5920   34.6037   46.0360 H   0  0  0  0  0  0  0  0  0  0  0  0
   63.1304   32.8677   46.0360 H   0  0  0  0  0  0  0  0  0  0  0  0
   62.5955   33.0519   52.9484 H   0  0  0  0  0  0  0  0  0  0  0  0
   59.9500   33.6997   53.6974 H   0  0  0  0  0  0  0  0  0  0  0  0
   60.1709   34.8487   52.3344 H   0  0  0  0  0  0  0  0  0  0  0  0
   58.7801   33.7118   52.3344 H   0  0  0  0  0  0  0  0  0  0  0  0
   58.4609   31.0847   50.4520 H   0  0  0  0  0  0  0  0  0  0  0  0
   58.3861   32.8487   50.8960 H   0  0  0  0  0  0  0  0  0  0  0  0
   57.7930   31.0965   45.3570 H   0  0  0  0  0  0  0  0  0  0  0  0
   58.6976   32.3366   42.1625 H   0  0  0  0  0  0  0  0  0  0  0  0
   56.2830   31.7449   42.0534 H   0  0  0  0  0  0  0  0  0  0  0  0
   56.6660   28.0990   43.5870 H   0  0  0  0  0  0  0  0  0  0  0  0
   54.7670   28.5200   44.4990 H   0  0  0  0  0  0  0  0  0  0  0  0
   59.0741   34.6865   43.3823 H   0  0  0  0  0  0  0  0  0  0  0  0
   59.8268   35.6708   45.5716 H   0  0  0  0  0  0  0  0  0  0  0  0
  1  2  1  0
  2  3  1  0
  3  4  2  0
  4  5  1  0
  5  6  2  0
  5  7  1  0
  7  8  1  0
  8  9  1  0
  9 10  1  0
 10 11  1  0
 10 12  2  0
  4 13  1  0
 13 14  2  0
 14 15  1  0
 14 16  1  0
 16 17  1  0
 17 18  1  0
 18 19  2  0
 19 20  1  0
 20 21  2  0
 21 22  1  0
 22 23  1  0
 23 24  2  0
 24 25  1  0
 25 26  1  0
 25 27  2  0
 27 28  1  0
 22 29  2  0
 29 30  1  0
 30 31  2  0
 31 32  1  0
 16  3  1  0
 32 18  1  0
 31 20  1  0
  1 33  1  0
  1 34  1  0
  1 35  1  0
  2 36  1  0
  2 37  1  0
  7 38  1  0
  7 39  1  0
  8 40  1  0
  8 41  1  0
  9 42  1  0
 11 43  1  0
 11 44  1  0
 11 45  1  0
 13 46  1  0
 15 47  1  0
 15 48  1  0
 15 49  1  0
 17 50  1  0
 17 51  1  0
 21 52  1  0
 23 53  1  0
 24 54  1  0
 26 55  1  0
 28 56  1  0
 29 57  1  0
 30 58  1  0
M  END
>  <smiles>  (25) 
CCc1c(C(=O)CCNC(C)=O)cc(C)n1Cc1nc2cc(C=CC(O)=NO)ccc2s1

>  <score_type>  (25) 
oracle

>  <origin>  (25) 
adg

>  <m_score__min__energy>  (25) 
-10.640000000000001

>  <m_primary>  (25) 
energy

$$$$
25:0
     RDKit          3D

 46 49  0  0  0  0  0  0  0  0999 V2000
   61.0550   30.1180   47.3100 O   0  0  0  0  0  0  0  0  0  0  0  0
   59.8450   29.9430   47.0010 C   0  0  0  0  0  0  0  0  0  0  0  0
   59.0140   31.0700   46.6860 N   0  0  0  0  0  0  0  0  0  0  0  0
   59.3580   32.4370   47.0950 C   0  0  1  0  0  0  0  0  0  0  0  0
   60.6960   32.8960   46.4710 C   0  0  0  0  0  0  0  0  0  0  0  0
   61.7690   33.1970   47.4930 C   0  0  0  0  0  0  0  0  0  0  0  0
   61.4550   33.8800   48.6830 C   0  0  0  0  0  0  0  0  0  0  0  0
   62.4440   34.1190   49.6410 C   0  0  0  0  0  0  0  0  0  0  0  0
   63.7550   33.6900   49.4170 C   0  0  0  0  0  0  0  0  0  0  0  0
   64.0810   33.0270   48.2310 C   0  0  0  0  0  0  0  0  0  0  0  0
   63.0940   32.7860   47.2700 C   0  0  0  0  0  0  0  0  0  0  0  0
   58.2450   33.3970   46.7600 C   0  0  0  0  0  0  0  0  0  0  0  0
   58.3260   34.6040   47.1210 O   0  0  0  0  0  0  0  0  0  0  0  0
   57.1210   32.9230   46.0030 N   0  0  0  0  0  0  0  0  0  0  0  0
   57.1060   32.2370   44.8930 C   0  0  0  0  0  0  0  0  0  0  0  0
   57.7730   32.6510   43.7180 C   0  0  0  0  0  0  0  0  0  0  0  0
   57.6920   31.8610   42.5690 C   0  0  0  0  0  0  0  0  0  0  0  0
   56.9520   30.6810   42.5830 C   0  0  0  0  0  0  0  0  0  0  0  0
   56.2900   30.3060   43.7520 C   0  0  0  0  0  0  0  0  0  0  0  0
   56.3790   31.0860   44.8620 N   0  0  0  0  0  0  0  0  0  0  0  0
   59.3090   28.5750   46.9390 C   0  0  0  0  0  0  0  0  0  0  0  0
   59.1770   27.7700   48.0200 N   0  0  0  0  0  0  0  0  0  0  0  0
   58.6750   26.6350   47.6100 O   0  0  0  0  0  0  0  0  0  0  0  0
   58.4690   26.6720   46.3170 C   0  0  0  0  0  0  0  0  0  0  0  0
   57.9320   25.6820   45.4980 C   0  0  0  0  0  0  0  0  0  0  0  0
   57.7750   25.9810   44.1310 C   0  0  0  0  0  0  0  0  0  0  0  0
   58.1420   27.2510   43.6280 C   0  0  0  0  0  0  0  0  0  0  0  0
   58.6810   28.2300   44.4840 C   0  0  0  0  0  0  0  0  0  0  0  0
   58.8500   27.8900   45.8290 C   0  0  0  0  0  0  0  0  0  0  0  0
   58.1890   30.9040   46.0720 H   0  0  0  0  0  0  0  0  0  0  0  0
   59.4875   32.4342   48.1873 H   0  0  0  0  0  0  0  0  0  0  0  0
   61.0618   32.0987   45.8073 H   0  0  0  0  0  0  0  0  0  0  0  0
   60.4949   33.8320   45.9293 H   0  0  0  0  0  0  0  0  0  0  0  0
   60.4263   34.2273   48.8598 H   0  0  0  0  0  0  0  0  0  0  0  0
   62.1901   34.6456   50.5728 H   0  0  0  0  0  0  0  0  0  0  0  0
   64.5307   33.8744   50.1748 H   0  0  0  0  0  0  0  0  0  0  0  0
   65.1144   32.6945   48.0532 H   0  0  0  0  0  0  0  0  0  0  0  0
   63.3566   32.2715   46.3338 H   0  0  0  0  0  0  0  0  0  0  0  0
   58.3508   33.5870   43.7083 H   0  0  0  0  0  0  0  0  0  0  0  0
   58.2135   32.1712   41.6515 H   0  0  0  0  0  0  0  0  0  0  0  0
   56.8904   30.0522   41.6826 H   0  0  0  0  0  0  0  0  0  0  0  0
   55.6965   29.3801   43.7758 H   0  0  0  0  0  0  0  0  0  0  0  0
   57.6410   24.7020   45.9042 H   0  0  0  0  0  0  0  0  0  0  0  0
   57.3641   25.2216   43.4495 H   0  0  0  0  0  0  0  0  0  0  0  0
   58.0052   27.4754   42.5599 H   0  0  0  0  0  0  0  0  0  0  0  0
   58.9589   29.2258   44.1082 H   0  0  0  0  0  0  0  0  0  0  0  0
  1  2  2  0
  2  3  1  0
  3  4  1  0
  4  5  1  0
  5  6  1  0
  6  7  2  0
  7  8  1  0
  8  9  2  0
  9 10  1  0
 10 11  2  0
  4 12  1  0
 12 13  2  0
 12 14  1  0
 14 15  2  3
 15 16  1  0
 16 17  2  0
 17 18  1  0
 18 19  2  0
 19 20  1  0
  2 21  1  0
 21 22  2  0
 22 23  1  0
 23 24  1  0
 24 25  2  0
 25 26  1  0
 26 27  2  0
 27 28  1  0
 28 29  2  0
 11  6  1  0
 20 15  1  0
 29 21  1  0
 29 24  1  0
  3 30  1  0
  4 31  1  1
  5 32  1  0
  5 33  1  0
  7 34  1  0
  8 35  1  0
  9 36  1  0
 10 37  1  0
 11 38  1  0
 16 39  1  0
 17 40  1  0
 18 41  1  0
 19 42  1  0
 25 43  1  0
 26 44  1  0
 27 45  1  0
 28 46  1  0
M  CHG  1  20  -1
M  END
>  <UniqueID>  (26) 
25

>  <SMILES>  (26) 
O=C(N[C@@H](Cc1ccccc1)C(=O)N=c1cccc[n-]1)c1noc2ccccc12

>  <Energy>  (26) 
96.25189410075966

>  <Genealogy>  (26) 
O=C(NC(Cc1ccccc1)C(=O)N=c1cccc[n-]1)c1noc2ccccc12 (protonated)
O=C(N[C@@H](Cc1ccccc1)C(=O)N=c1cccc[n-]1)c1noc2ccccc12 (chirality)
O=C(N[C@@H](Cc1ccccc1)C(=O)N=c1cccc[n-]1)c1noc2ccccc12 (3D coordinates assigned)
O=C(N[C@@H](Cc1ccccc1)C(=O)N=c1cccc[n-]1)c1noc2ccccc12 (optimized conformer: 96.25189410075966 kcal/mol)

>  <smiles>  (26) 
O=C(NC(Cc1ccccc1)C(=O)N=c1cccc[nH]1)c1noc2ccccc12

>  <score_type>  (26) 
oracle

>  <origin>  (26) 
adg

>  <m_score__min__energy>  (26) 
-11.220000000000001

>  <m_primary>  (26) 
energy

$$$$
26:0
     RDKit          3D

 59 62  0  0  0  0  0  0  0  0999 V2000
   59.5310   35.3150   44.4960 O   0  0  0  0  0  0  0  0  0  0  0  0
   59.1420   34.5380   45.4080 C   0  0  0  0  0  0  0  0  0  0  0  0
   59.3000   34.9540   46.7720 N   0  0  0  0  0  0  0  0  0  0  0  0
   60.0910   34.3030   47.7770 C   0  0  0  0  0  0  0  0  0  0  0  0
   59.6430   34.1920   49.1060 C   0  0  0  0  0  0  0  0  0  0  0  0
   60.4270   33.5460   50.0710 C   0  0  0  0  0  0  0  0  0  0  0  0
   59.8710   33.4230   51.7420 S   0  0  0  0  0  0  0  0  0  0  0  0
   58.7950   34.4520   51.9660 O   0  0  0  0  0  0  0  0  0  0  0  0
   61.0130   33.7180   52.6760 O   0  0  0  0  0  0  0  0  0  0  0  0
   59.2180   31.8220   52.0380 N   0  0  0  0  0  0  0  0  0  0  0  0
   57.9660   31.8630   52.8310 C   0  0  0  0  0  0  0  0  0  0  0  0
   56.7380   31.4070   52.0240 C   0  0  0  0  0  0  0  0  0  0  0  0
   56.8890   30.1040   51.4850 O   0  0  0  0  0  0  0  0  0  0  0  0
   58.1870   29.8470   50.9630 C   0  0  0  0  0  0  0  0  0  0  0  0
   59.0670   31.0930   50.7660 C   0  0  0  0  0  0  0  0  0  0  0  0
   61.6550   32.9820   49.6940 C   0  0  0  0  0  0  0  0  0  0  0  0
   62.0930   33.0670   48.3710 C   0  0  0  0  0  0  0  0  0  0  0  0
   61.3140   33.7220   47.4090 C   0  0  0  0  0  0  0  0  0  0  0  0
   61.7510   33.8060   46.0880 O   0  0  0  0  0  0  0  0  0  0  0  0
   58.4810   33.2610   45.0390 C   0  0  0  0  0  0  0  0  0  0  0  0
   58.1860   32.2890   46.0130 C   0  0  0  0  0  0  0  0  0  0  0  0
   57.5320   31.1050   45.6570 C   0  0  0  0  0  0  0  0  0  0  0  0
   57.1490   30.8820   44.3290 C   0  0  0  0  0  0  0  0  0  0  0  0
   56.2890   29.4080   43.8920 S   0  0  0  0  0  0  0  0  0  0  0  0
   54.8980   29.7460   43.4300 O   0  0  0  0  0  0  0  0  0  0  0  0
   57.0280   28.7220   42.7790 O   0  0  0  0  0  0  0  0  0  0  0  0
   56.2030   28.3370   45.2600 N   0  0  0  0  0  0  0  0  0  0  0  0
   57.3680   27.4580   45.2700 C   0  0  0  0  0  0  0  0  0  0  0  0
   58.5340   28.1810   45.8770 C   0  0  0  0  0  0  0  0  0  0  0  0
   59.6100   28.5940   45.0730 C   0  0  0  0  0  0  0  0  0  0  0  0
   60.6840   29.2890   45.6390 C   0  0  0  0  0  0  0  0  0  0  0  0
   60.6870   29.5820   47.0060 C   0  0  0  0  0  0  0  0  0  0  0  0
   59.6140   29.1850   47.8090 C   0  0  0  0  0  0  0  0  0  0  0  0
   58.5370   28.4920   47.2460 C   0  0  0  0  0  0  0  0  0  0  0  0
   57.4250   31.8530   43.3590 C   0  0  0  0  0  0  0  0  0  0  0  0
   58.0900   33.0310   43.7090 C   0  0  0  0  0  0  0  0  0  0  0  0
   58.6686   34.6161   49.3900 H   0  0  0  0  0  0  0  0  0  0  0  0
   58.0796   31.2020   53.7029 H   0  0  0  0  0  0  0  0  0  0  0  0
   57.7970   32.9074   53.1322 H   0  0  0  0  0  0  0  0  0  0  0  0
   55.8596   31.4141   52.6861 H   0  0  0  0  0  0  0  0  0  0  0  0
   56.6181   32.1030   51.1807 H   0  0  0  0  0  0  0  0  0  0  0  0
   58.7057   29.1692   51.6569 H   0  0  0  0  0  0  0  0  0  0  0  0
   58.0360   29.4160   49.9623 H   0  0  0  0  0  0  0  0  0  0  0  0
   60.0591   30.7828   50.4061 H   0  0  0  0  0  0  0  0  0  0  0  0
   58.5879   31.7553   50.0300 H   0  0  0  0  0  0  0  0  0  0  0  0
   62.2757   32.4704   50.4443 H   0  0  0  0  0  0  0  0  0  0  0  0
   63.0546   32.6173   48.0829 H   0  0  0  0  0  0  0  0  0  0  0  0
   61.2040   34.2770   45.3770 H   0  0  0  0  0  0  0  0  0  0  0  0
   58.4716   32.4615   47.0612 H   0  0  0  0  0  0  0  0  0  0  0  0
   57.3177   30.3459   46.4237 H   0  0  0  0  0  0  0  0  0  0  0  0
   57.1443   26.5593   45.8636 H   0  0  0  0  0  0  0  0  0  0  0  0
   57.6148   27.1641   44.2391 H   0  0  0  0  0  0  0  0  0  0  0  0
   59.6077   28.3702   43.9960 H   0  0  0  0  0  0  0  0  0  0  0  0
   61.5273   29.6054   45.0076 H   0  0  0  0  0  0  0  0  0  0  0  0
   61.5343   30.1253   47.4499 H   0  0  0  0  0  0  0  0  0  0  0  0
   59.6164   29.4176   48.8841 H   0  0  0  0  0  0  0  0  0  0  0  0
   57.6893   28.1896   47.8784 H   0  0  0  0  0  0  0  0  0  0  0  0
   57.1168   31.6877   42.3161 H   0  0  0  0  0  0  0  0  0  0  0  0
   58.3091   33.7840   42.9376 H   0  0  0  0  0  0  0  0  0  0  0  0
  1  2  2  0
  2  3  1  0
  3  4  1  0
  4  5  2  0
  5  6  1  0
  6  7  1  0
  7  8  2  0
  7  9  2  0
  7 10  1  0
 10 11  1  0
 11 12  1  0
 12 13  1  0
 13 14  1  0
 14 15  1  0
  6 16  2  0
 16 17  1  0
 17 18  2  0
 18 19  1  0
  2 20  1  0
 20 21  2  0
 21 22  1  0
 22 23  2  0
 23 24  1  0
 24 25  2  0
 24 26  2  0
 24 27  1  0
 27 28  1  0
 28 29  1  0
 29 30  2  0
 30 31  1  0
 31 32  2  0
 32 33  1  0
 33 34  2  0
 23 35  1  0
 35 36  2  0
 18  4  1  0
 36 20  1  0
 15 10  1  0
 34 29  1  0
  5 37  1  0
 11 38  1  0
 11 39  1  0
 12 40  1  0
 12 41  1  0
 14 42  1  0
 14 43  1  0
 15 44  1  0
 15 45  1  0
 16 46  1  0
 17 47  1  0
 19 48  1  0
 21 49  1  0
 22 50  1  0
 28 51  1  0
 28 52  1  0
 30 53  1  0
 31 54  1  0
 32 55  1  0
 33 56  1  0
 34 57  1  0
 35 58  1  0
 36 59  1  0
M  CHG  2   3  -1  27  -1
M  END
>  <UniqueID>  (27) 
26

>  <SMILES>  (27) 
O=C([N-]c1cc(S(=O)(=O)N2CCOCC2)ccc1O)c1ccc(S(=O)(=O)[N-]Cc2ccccc2)cc1

>  <Energy>  (27) 
75.77372879666433

>  <Genealogy>  (27) 
O=C([N-]c1cc(S(=O)(=O)N2CCOCC2)ccc1O)c1ccc(S(=O)(=O)[N-]Cc2ccccc2)cc1 (protonated)
O=C([N-]c1cc(S(=O)(=O)N2CCOCC2)ccc1O)c1ccc(S(=O)(=O)[N-]Cc2ccccc2)cc1 (3D coordinates assigned)
O=C([N-]c1cc(S(=O)(=O)N2CCOCC2)ccc1O)c1ccc(S(=O)(=O)[N-]Cc2ccccc2)cc1 (nonaromatic ring conformer: 75.77372879666433 kcal/mol)

>  <smiles>  (27) 
O=C(Nc1cc(S(=O)(=O)N2CCOCC2)ccc1O)c1ccc(S(=O)(=O)NCc2ccccc2)cc1

>  <score_type>  (27) 
oracle

>  <origin>  (27) 
adg

>  <m_score__min__energy>  (27) 
-13.94

>  <m_primary>  (27) 
energy

$$$$
27:0
     RDKit          3D

 54 57  0  0  0  0  0  0  0  0999 V2000
   60.2240   31.0750   47.4130 C   0  0  0  0  0  0  0  0  0  0  0  0
   59.4770   32.1690   46.6770 C   0  0  0  0  0  0  0  0  0  0  0  0
   58.8320   31.8980   45.4380 C   0  0  0  0  0  0  0  0  0  0  0  0
   58.8860   30.5360   44.7760 C   0  0  0  0  0  0  0  0  0  0  0  0
   57.5240   29.8990   44.7460 C   0  0  0  0  0  0  0  0  0  0  0  0
   56.5600   30.2500   43.8750 N   0  0  0  0  0  0  0  0  0  0  0  0
   55.5300   29.4470   44.2110 C   0  0  0  0  0  0  0  0  0  0  0  0
   54.4260   29.4700   43.6070 O   0  0  0  0  0  0  0  0  0  0  0  0
   55.7770   28.6170   45.2440 N   0  0  0  0  0  0  0  0  0  0  0  0
   57.0420   28.9200   45.5940 C   0  0  0  0  0  0  0  0  0  0  0  0
   57.8100   28.2300   46.6880 C   0  0  0  0  0  0  0  0  0  0  0  0
   58.5310   26.9720   46.1920 C   0  0  0  0  0  0  0  0  0  0  0  0
   57.5430   25.9900   45.6170 C   0  0  0  0  0  0  0  0  0  0  0  0
   57.7670   25.4170   44.3540 C   0  0  0  0  0  0  0  0  0  0  0  0
   56.8670   24.4800   43.8370 C   0  0  0  0  0  0  0  0  0  0  0  0
   55.7440   24.1030   44.5800 C   0  0  0  0  0  0  0  0  0  0  0  0
   55.5240   24.6580   45.8430 C   0  0  0  0  0  0  0  0  0  0  0  0
   56.4210   25.5950   46.3650 C   0  0  0  0  0  0  0  0  0  0  0  0
   58.1490   32.9310   44.7720 C   0  0  0  0  0  0  0  0  0  0  0  0
   58.1080   34.2160   45.3080 C   0  0  0  0  0  0  0  0  0  0  0  0
   58.7620   34.4980   46.5020 C   0  0  0  0  0  0  0  0  0  0  0  0
   59.4550   33.4930   47.1910 C   0  0  0  0  0  0  0  0  0  0  0  0
   60.1880   33.8690   48.4170 C   0  0  0  0  0  0  0  0  0  0  0  0
   59.5530   34.4090   49.3630 O   0  0  0  0  0  0  0  0  0  0  0  0
   61.6010   33.6380   48.5440 N   0  0  0  0  0  0  0  0  0  0  0  0
   62.4630   33.2380   47.4440 C   0  0  0  0  0  0  0  0  0  0  0  0
   63.8600   33.1210   48.0360 C   0  0  0  0  0  0  0  0  0  0  0  0
   63.8130   33.8440   49.3800 C   0  0  0  0  0  0  0  0  0  0  0  0
   62.3400   33.9370   49.7570 C   0  0  0  0  0  0  0  0  0  0  0  0
   60.1207   31.2263   48.4976 H   0  0  0  0  0  0  0  0  0  0  0  0
   59.8050   30.0959   47.1378 H   0  0  0  0  0  0  0  0  0  0  0  0
   61.2885   31.1088   47.1378 H   0  0  0  0  0  0  0  0  0  0  0  0
   59.2525   30.6509   43.7452 H   0  0  0  0  0  0  0  0  0  0  0  0
   59.5629   29.8906   45.3550 H   0  0  0  0  0  0  0  0  0  0  0  0
   58.5572   28.9298   47.0905 H   0  0  0  0  0  0  0  0  0  0  0  0
   57.0897   27.9213   47.4599 H   0  0  0  0  0  0  0  0  0  0  0  0
   59.2563   27.2533   45.4143 H   0  0  0  0  0  0  0  0  0  0  0  0
   59.0487   26.5006   47.0404 H   0  0  0  0  0  0  0  0  0  0  0  0
   58.6531   25.7063   43.7700 H   0  0  0  0  0  0  0  0  0  0  0  0
   57.0426   24.0390   42.8447 H   0  0  0  0  0  0  0  0  0  0  0  0
   55.0340   23.3696   44.1701 H   0  0  0  0  0  0  0  0  0  0  0  0
   54.6427   24.3571   46.4284 H   0  0  0  0  0  0  0  0  0  0  0  0
   56.2480   26.0237   47.3631 H   0  0  0  0  0  0  0  0  0  0  0  0
   57.6421   32.7223   43.8183 H   0  0  0  0  0  0  0  0  0  0  0  0
   57.5561   35.0107   44.7846 H   0  0  0  0  0  0  0  0  0  0  0  0
   58.7354   35.5193   46.9098 H   0  0  0  0  0  0  0  0  0  0  0  0
   62.1379   32.2702   47.0345 H   0  0  0  0  0  0  0  0  0  0  0  0
   62.4316   33.9649   46.6190 H   0  0  0  0  0  0  0  0  0  0  0  0
   64.1259   32.0635   48.1806 H   0  0  0  0  0  0  0  0  0  0  0  0
   64.6167   33.5608   47.3696 H   0  0  0  0  0  0  0  0  0  0  0  0
   64.3666   33.2734   50.1402 H   0  0  0  0  0  0  0  0  0  0  0  0
   64.2760   34.8399   49.3176 H   0  0  0  0  0  0  0  0  0  0  0  0
   62.0988   33.2056   50.5424 H   0  0  0  0  0  0  0  0  0  0  0  0
   62.0853   34.9319   50.1511 H   0  0  0  0  0  0  0  0  0  0  0  0
  1  2  1  0
  2  3  2  0
  3  4  1  0
  4  5  1  0
  5  6  1  0
  6  7  1  0
  7  8  2  0
  7  9  1  0
  9 10  1  0
 10 11  1  0
 11 12  1  0
 12 13  1  0
 13 14  2  0
 14 15  1  0
 15 16  2  0
 16 17  1  0
 17 18  2  0
  3 19  1  0
 19 20  2  0
 20 21  1  0
 21 22  2  0
 22 23  1  0
 23 24  2  0
 23 25  1  0
 25 26  1  0
 26 27  1  0
 27 28  1  0
 28 29  1  0
 22  2  1  0
 29 25  1  0
 10  5  2  0
 18 13  1  0
  1 30  1  0
  1 31  1  0
  1 32  1  0
  4 33  1  0
  4 34  1  0
 11 35  1  0
 11 36  1  0
 12 37  1  0
 12 38  1  0
 14 39  1  0
 15 40  1  0
 16 41  1  0
 17 42  1  0
 18 43  1  0
 19 44  1  0
 20 45  1  0
 21 46  1  0
 26 47  1  0
 26 48  1  0
 27 49  1  0
 27 50  1  0
 28 51  1  0
 28 52  1  0
 29 53  1  0
 29 54  1  0
M  CHG  2   6  -1   9  -1
M  END
>  <UniqueID>  (28) 
27

>  <SMILES>  (28) 
Cc1c(Cc2[n-]c(=O)[n-]c2CCc2ccccc2)cccc1C(=O)N1CCCC1

>  <Energy>  (28) 
89.88375211877785

>  <Genealogy>  (28) 
Cc1c(Cc2[n-]c(=O)[n-]c2CCc2ccccc2)cccc1C(=O)N1CCCC1 (protonated)
Cc1c(Cc2[n-]c(=O)[n-]c2CCc2ccccc2)cccc1C(=O)N1CCCC1 (3D coordinates assigned)
Cc1c(Cc2[n-]c(=O)[n-]c2CCc2ccccc2)cccc1C(=O)N1CCCC1 (nonaromatic ring conformer: 89.88375211877785 kcal/mol)

>  <smiles>  (28) 
Cc1c(Cc2[nH]c(=O)[nH]c2CCc2ccccc2)cccc1C(=O)N1CCCC1

>  <score_type>  (28) 
oracle

>  <origin>  (28) 
adg

>  <m_score__min__energy>  (28) 
-13.07

>  <m_primary>  (28) 
energy

$$$$
28:0
     RDKit          3D

 37 40  0  0  0  0  0  0  0  0999 V2000
   61.4160   29.6960   47.2780 H   0  0  0  0  0  0  0  0  0  0  0  0
   61.7770   30.5850   46.8670 N   0  0  0  0  0  0  0  0  0  0  0  0
   62.1080   31.6240   47.5690 C   0  0  0  0  0  0  0  0  0  0  0  0
   63.2010   31.5400   48.3760 N   0  0  0  0  0  0  0  0  0  0  0  0
   63.6440   32.5940   49.1110 C   0  0  0  0  0  0  0  0  0  0  0  0
   64.5276   32.4816   49.7565 H   0  0  0  0  0  0  0  0  0  0  0  0
   62.9790   33.8170   49.0470 C   0  0  0  0  0  0  0  0  0  0  0  0
   63.3402   34.6768   49.6303 H   0  0  0  0  0  0  0  0  0  0  0  0
   61.8510   33.9400   48.2360 C   0  0  0  0  0  0  0  0  0  0  0  0
   61.3210   34.9021   48.1777 H   0  0  0  0  0  0  0  0  0  0  0  0
   61.3890   32.8420   47.4940 C   0  0  0  0  0  0  0  0  0  0  0  0
   60.1600   32.9950   46.6870 C   0  0  0  0  0  0  0  0  0  0  0  0
   59.7010   34.2740   46.3400 C   0  0  0  0  0  0  0  0  0  0  0  0
   60.2777   35.1628   46.6359 H   0  0  0  0  0  0  0  0  0  0  0  0
   58.5140   34.4220   45.6200 C   0  0  0  0  0  0  0  0  0  0  0  0
   58.1627   35.4268   45.3424 H   0  0  0  0  0  0  0  0  0  0  0  0
   57.7710   33.2980   45.2510 C   0  0  0  0  0  0  0  0  0  0  0  0
   56.8299   33.4231   44.6953 H   0  0  0  0  0  0  0  0  0  0  0  0
   58.2180   32.0100   45.5850 C   0  0  0  0  0  0  0  0  0  0  0  0
   57.3850   30.8360   45.2450 C   0  0  0  0  0  0  0  0  0  0  0  0
   56.2780   30.9300   44.4830 N   0  0  0  0  0  0  0  0  0  0  0  0
   55.7700   29.6820   44.5050 C   0  0  0  0  0  0  0  0  0  0  0  0
   54.7130   29.3690   43.8980 O   0  0  0  0  0  0  0  0  0  0  0  0
   56.4820   28.7980   45.2290 N   0  0  0  0  0  0  0  0  0  0  0  0
   57.5130   29.5270   45.6960 C   0  0  0  0  0  0  0  0  0  0  0  0
   58.6180   28.9320   46.4760 C   0  0  0  0  0  0  0  0  0  0  0  0
   59.5350   28.0540   45.8780 C   0  0  0  0  0  0  0  0  0  0  0  0
   59.4592   27.8188   44.8061 H   0  0  0  0  0  0  0  0  0  0  0  0
   60.5450   27.4810   46.6550 C   0  0  0  0  0  0  0  0  0  0  0  0
   61.2711   26.7964   46.1923 H   0  0  0  0  0  0  0  0  0  0  0  0
   60.6330   27.7670   47.9810 N   0  0  0  0  0  0  0  0  0  0  0  0
   59.7500   28.6030   48.5880 C   0  0  0  0  0  0  0  0  0  0  0  0
   59.8460   28.8162   49.6629 H   0  0  0  0  0  0  0  0  0  0  0  0
   58.7210   29.1920   47.8500 C   0  0  0  0  0  0  0  0  0  0  0  0
   57.9958   29.8558   48.3435 H   0  0  0  0  0  0  0  0  0  0  0  0
   59.4120   31.8660   46.3160 C   0  0  0  0  0  0  0  0  0  0  0  0
   59.7617   30.8621   46.5987 H   0  0  0  0  0  0  0  0  0  0  0  0
  1  2  1  0
  2  3  2  0
  3  4  1  0
  4  5  1  0
  5  6  1  0
  5  7  2  0
  7  8  1  0
  7  9  1  0
  9 10  1  0
  9 11  2  0
 11 12  1  0
 12 13  2  0
 13 14  1  0
 13 15  1  0
 15 16  1  0
 15 17  2  0
 17 18  1  0
 17 19  1  0
 19 20  1  0
 20 21  1  0
 21 22  1  0
 22 23  2  0
 22 24  1  0
 24 25  1  0
 25 26  1  0
 26 27  2  0
 27 28  1  0
 27 29  1  0
 29 30  1  0
 29 31  2  0
 31 32  1  0
 32 33  1  0
 32 34  2  0
 34 35  1  0
 19 36  2  0
 36 37  1  0
 11  3  1  0
 36 12  1  0
 25 20  2  0
 34 26  1  0
M  CHG  3   4  -1  21  -1  24  -1
M  END
>  <UniqueID>  (29) 
28

>  <SMILES>  (29) 
[H]/N=c1/[n-]cccc1-c1cccc(-c2[n-]c(=O)[n-]c2-c2ccncc2)c1

>  <Energy>  (29) 
88.16109591086737

>  <Genealogy>  (29) 
N=c1[n-]cccc1-c1cccc(-c2[n-]c(=O)[n-]c2-c2ccncc2)c1 (protonated)
[H]/N=c1/[n-]cccc1-c1cccc(-c2[n-]c(=O)[n-]c2-c2ccncc2)c1 (cis-trans isomerization)
[H]/N=c1/[n-]cccc1-c1cccc(-c2[n-]c(=O)[n-]c2-c2ccncc2)c1 (3D coordinates assigned)
[H]/N=c1/[n-]cccc1-c1cccc(-c2[n-]c(=O)[n-]c2-c2ccncc2)c1 (optimized conformer: 88.16109591086737 kcal/mol)

>  <smiles>  (29) 
N=c1[nH]cccc1-c1cccc(-c2[nH]c(=O)[nH]c2-c2ccncc2)c1

>  <score_type>  (29) 
oracle

>  <origin>  (29) 
adg

>  <m_score__min__energy>  (29) 
-12.25

>  <m_primary>  (29) 
energy

$$$$
29:0
     RDKit          3D

 41 42  0  0  0  0  0  0  0  0999 V2000
   55.1570   26.3110   46.0630 O   0  0  0  0  0  0  0  0  0  0  0  0
   56.2620   26.8400   45.7680 C   0  0  0  0  0  0  0  0  0  0  0  0
   57.5260   26.0420   45.9610 C   0  0  0  0  0  0  0  0  0  0  0  0
   57.4820   24.7320   45.2170 C   0  0  0  0  0  0  0  0  0  0  0  0
   58.2720   23.6470   45.6380 C   0  0  0  0  0  0  0  0  0  0  0  0
   58.2430   22.4390   44.9340 C   0  0  0  0  0  0  0  0  0  0  0  0
   57.4140   22.2980   43.8180 C   0  0  0  0  0  0  0  0  0  0  0  0
   56.6090   23.3640   43.4050 C   0  0  0  0  0  0  0  0  0  0  0  0
   56.6380   24.5750   44.1040 C   0  0  0  0  0  0  0  0  0  0  0  0
   56.2710   28.1910   45.2810 N   0  0  0  0  0  0  0  0  0  0  0  0
   57.4600   28.9320   44.8660 C   0  0  0  0  0  0  0  0  0  0  0  0
   57.3140   30.4050   45.1720 C   0  0  0  0  0  0  0  0  0  0  0  0
   56.4020   31.0550   44.5880 O   0  0  0  0  0  0  0  0  0  0  0  0
   58.1480   31.0800   46.1460 N   0  0  0  0  0  0  0  0  0  0  0  0
   57.7660   32.4540   46.5430 C   0  0  0  0  0  0  0  0  0  0  0  0
   58.5310   33.5670   45.8000 C   0  0  0  0  0  0  0  0  0  0  0  0
   60.0370   33.6500   46.1330 C   0  0  0  0  0  0  0  0  0  0  0  0
   60.5640   32.6180   47.1490 C   0  0  0  0  0  0  0  0  0  0  0  0
   60.5990   31.1730   46.6250 C   0  0  0  0  0  0  0  0  0  0  0  0
   59.2810   30.3990   46.8020 C   0  0  0  0  0  0  0  0  0  0  0  0
   58.3786   26.6316   45.5930 H   0  0  0  0  0  0  0  0  0  0  0  0
   57.6300   25.8218   47.0337 H   0  0  0  0  0  0  0  0  0  0  0  0
   58.9152   23.7491   46.5245 H   0  0  0  0  0  0  0  0  0  0  0  0
   58.8737   21.5985   45.2593 H   0  0  0  0  0  0  0  0  0  0  0  0
   57.3947   21.3478   43.2641 H   0  0  0  0  0  0  0  0  0  0  0  0
   55.9525   23.2501   42.5298 H   0  0  0  0  0  0  0  0  0  0  0  0
   55.9972   25.4087   43.7812 H   0  0  0  0  0  0  0  0  0  0  0  0
   58.3353   28.5379   45.4033 H   0  0  0  0  0  0  0  0  0  0  0  0
   57.5877   28.8104   43.7802 H   0  0  0  0  0  0  0  0  0  0  0  0
   56.6918   32.5834   46.3447 H   0  0  0  0  0  0  0  0  0  0  0  0
   58.0204   32.5553   47.6084 H   0  0  0  0  0  0  0  0  0  0  0  0
   58.4286   33.3900   44.7192 H   0  0  0  0  0  0  0  0  0  0  0  0
   58.0882   34.5193   46.1273 H   0  0  0  0  0  0  0  0  0  0  0  0
   60.5965   33.5149   45.1956 H   0  0  0  0  0  0  0  0  0  0  0  0
   60.1814   34.6320   46.6071 H   0  0  0  0  0  0  0  0  0  0  0  0
   61.5869   32.9060   47.4331 H   0  0  0  0  0  0  0  0  0  0  0  0
   59.8649   32.6276   47.9982 H   0  0  0  0  0  0  0  0  0  0  0  0
   60.8390   31.2022   45.5519 H   0  0  0  0  0  0  0  0  0  0  0  0
   61.3564   30.6421   47.2204 H   0  0  0  0  0  0  0  0  0  0  0  0
   59.3957   29.3971   46.3628 H   0  0  0  0  0  0  0  0  0  0  0  0
   59.0641   30.3388   47.8787 H   0  0  0  0  0  0  0  0  0  0  0  0
  1  2  2  0
  2  3  1  0
  3  4  1  0
  4  5  2  0
  5  6  1  0
  6  7  2  0
  7  8  1  0
  8  9  2  0
  2 10  1  0
 10 11  1  0
 11 12  1  0
 12 13  2  0
 12 14  1  0
 14 15  1  0
 15 16  1  0
 16 17  1  0
 17 18  1  0
 18 19  1  0
 19 20  1  0
  9  4  1  0
 20 14  1  0
  3 21  1  0
  3 22  1  0
  5 23  1  0
  6 24  1  0
  7 25  1  0
  8 26  1  0
  9 27  1  0
 11 28  1  0
 11 29  1  0
 15 30  1  0
 15 31  1  0
 16 32  1  0
 16 33  1  0
 17 34  1  0
 17 35  1  0
 18 36  1  0
 18 37  1  0
 19 38  1  0
 19 39  1  0
 20 40  1  0
 20 41  1  0
M  CHG  1  10  -1
M  END
>  <UniqueID>  (30) 
29

>  <SMILES>  (30) 
O=C(Cc1ccccc1)[N-]CC(=O)N1CCCCCC1

>  <Energy>  (30) 
41.54986082595013

>  <Genealogy>  (30) 
O=C(Cc1ccccc1)[N-]CC(=O)N1CCCCCC1 (protonated)
O=C(Cc1ccccc1)[N-]CC(=O)N1CCCCCC1 (3D coordinates assigned)
O=C(Cc1ccccc1)[N-]CC(=O)N1CCCCCC1 (nonaromatic ring conformer: 41.54986082595013 kcal/mol)

>  <smiles>  (30) 
O=C(Cc1ccccc1)NCC(=O)N1CCCCCC1

>  <score_type>  (30) 
oracle

>  <origin>  (30) 
adg

>  <m_score__min__energy>  (30) 
-7.2199999999999998

>  <m_primary>  (30) 
energy

$$$$
30:0
     RDKit          3D

 40 41  0  0  1  0  0  0  0  0999 V2000
   60.3880   28.9670   45.3150 C   0  0  0  0  0  0  0  0  0  0  0  0
   60.4970   29.6780   46.6010 C   0  0  0  0  0  0  0  0  0  0  0  0
   61.4600   30.6050   46.8210 N   0  0  0  0  0  0  0  0  0  0  0  0
   61.5690   31.2620   47.9920 C   0  0  0  0  0  0  0  0  0  0  0  0
   62.4960   32.1290   48.1520 N   0  0  0  0  0  0  0  0  0  0  0  0
   62.1990   33.4320   48.6480 C   0  0  0  0  0  0  0  0  0  0  0  0
   61.1280   34.1740   47.8940 C   0  0  0  0  0  0  0  0  0  0  0  0
   60.4910   33.4130   46.8600 N   0  0  0  0  0  0  0  0  0  0  0  0
   59.1830   33.6480   46.3690 C   0  0  0  0  0  0  0  0  0  0  0  0
   58.4910   34.5960   46.8570 O   0  0  0  0  0  0  0  0  0  0  0  0
   58.5590   32.8570   45.3140 C   0  0  0  0  0  0  0  0  0  0  0  0
   58.4850   33.4270   44.0480 C   0  0  0  0  0  0  0  0  0  0  0  0
   57.8970   32.7170   42.9960 C   0  0  0  0  0  0  0  0  0  0  0  0
   57.3830   31.4520   43.1820 C   0  0  0  0  0  0  0  0  0  0  0  0
   57.4620   30.9030   44.4350 C   0  0  0  0  0  0  0  0  0  0  0  0
   56.8050   29.2870   44.6720 S   0  0  0  0  0  0  0  0  0  0  0  0
   57.4180   28.2760   43.4170 N   0  0  0  0  0  0  0  0  0  0  0  0
   55.3180   29.3560   44.5350 O   0  0  0  0  0  0  0  0  0  0  0  0
   57.2270   28.7230   45.9980 O   0  0  0  0  0  0  0  0  0  0  0  0
   58.0460   31.6120   45.4730 C   0  0  0  0  0  0  0  0  0  0  0  0
   60.6490   30.9460   48.9710 C   0  0  0  0  0  0  0  0  0  0  0  0
   59.6640   30.0020   48.7550 C   0  0  0  0  0  0  0  0  0  0  0  0
   59.6020   29.3770   47.5650 N   0  0  0  0  0  0  0  0  0  0  0  0
   60.2237   27.8954   45.5013 H   0  0  0  0  0  0  0  0  0  0  0  0
   59.5417   29.3735   44.7419 H   0  0  0  0  0  0  0  0  0  0  0  0
   61.3172   29.1013   44.7419 H   0  0  0  0  0  0  0  0  0  0  0  0
   61.8725   33.3322   49.6937 H   0  0  0  0  0  0  0  0  0  0  0  0
   63.1203   34.0215   48.5307 H   0  0  0  0  0  0  0  0  0  0  0  0
   60.3573   34.4885   48.6131 H   0  0  0  0  0  0  0  0  0  0  0  0
   61.6253   35.0202   47.3974 H   0  0  0  0  0  0  0  0  0  0  0  0
   61.0090   32.6030   46.4040 H   0  0  0  0  0  0  0  0  0  0  0  0
   58.8885   34.4354   43.8739 H   0  0  0  0  0  0  0  0  0  0  0  0
   57.8437   33.1783   41.9988 H   0  0  0  0  0  0  0  0  0  0  0  0
   56.9230   30.8994   42.3495 H   0  0  0  0  0  0  0  0  0  0  0  0
   56.6640   27.6570   43.0440 H   0  0  0  0  0  0  0  0  0  0  0  0
   57.7640   28.8340   42.6280 H   0  0  0  0  0  0  0  0  0  0  0  0
   58.0954   31.1450   46.4677 H   0  0  0  0  0  0  0  0  0  0  0  0
   60.7012   31.4567   49.9439 H   0  0  0  0  0  0  0  0  0  0  0  0
   58.9385   29.7639   49.5468 H   0  0  0  0  0  0  0  0  0  0  0  0
   58.8580   28.6630   47.3970 H   0  0  0  0  0  0  0  0  0  0  0  0
  1  2  1  0
  2  3  2  0
  3  4  1  0
  4  5  2  0
  5  6  1  0
  6  7  1  0
  7  8  1  0
  8  9  1  0
  9 10  2  0
  9 11  1  0
 11 12  2  0
 12 13  1  0
 13 14  2  0
 14 15  1  0
 15 16  1  0
 16 17  1  0
 16 18  2  0
 16 19  2  0
 15 20  2  0
  4 21  1  0
 21 22  2  0
 22 23  1  0
 23  2  1  0
 20 11  1  0
  1 24  1  0
  1 25  1  0
  1 26  1  0
  6 27  1  0
  6 28  1  0
  7 29  1  0
  7 30  1  0
  8 31  1  0
 12 32  1  0
 13 33  1  0
 14 34  1  0
 17 35  1  0
 17 36  1  0
 20 37  1  0
 21 38  1  0
 22 39  1  0
 23 40  1  0
M  END
>  <smiles>  (31) 
Cc1nc(=NCCNC(=O)c2cccc(S(N)(=O)=O)c2)cc[nH]1

>  <score_type>  (31) 
oracle

>  <origin>  (31) 
adg

>  <m_score__min__energy>  (31) 
-7.6100000000000003

>  <m_primary>  (31) 
energy

$$$$
31:0
     RDKit          3D

 26 27  0  0  0  0  0  0  0  0999 V2000
   52.6134   30.2343   55.4764 H   0  0  0  0  0  0  0  0  0  0  0  0
   53.6840   30.0060   55.3680 C   0  0  0  0  0  0  0  0  0  0  0  0
   54.2526   29.6156   56.2249 H   0  0  0  0  0  0  0  0  0  0  0  0
   54.2940   30.2030   54.1950 C   0  0  0  0  0  0  0  0  0  0  0  0
   53.7160   30.5460   52.9630 C   0  0  0  0  0  0  0  0  0  0  0  0
   52.4700   30.9510   52.6530 C   0  0  0  0  0  0  0  0  0  0  0  0
   51.7750   31.1219   53.4883 H   0  0  0  0  0  0  0  0  0  0  0  0
   51.9570   31.1850   51.2930 C   0  0  0  0  0  0  0  0  0  0  0  0
   51.9350   30.2630   50.3130 N   0  0  0  0  0  0  0  0  0  0  0  0
   51.2570   30.8800   49.3210 C   0  0  0  0  0  0  0  0  0  0  0  0
   51.0390   30.3330   48.2080 O   0  0  0  0  0  0  0  0  0  0  0  0
   50.8220   32.1220   49.6180 N   0  0  0  0  0  0  0  0  0  0  0  0
   51.2610   32.2920   50.8770 C   0  0  0  0  0  0  0  0  0  0  0  0
   51.0250   33.4360   51.6290 O   0  0  0  0  0  0  0  0  0  0  0  0
   54.7210   30.4050   52.0190 C   0  0  0  0  0  0  0  0  0  0  0  0
   54.6262   30.5487   50.9326 H   0  0  0  0  0  0  0  0  0  0  0  0
   55.8650   30.0490   52.7070 C   0  0  0  0  0  0  0  0  0  0  0  0
   57.1840   29.8080   52.1080 C   0  0  0  0  0  0  0  0  0  0  0  0
   57.4190   30.1850   50.9260 O   0  0  0  0  0  0  0  0  0  0  0  0
   58.1720   29.1600   52.8540 O   0  0  0  0  0  0  0  0  0  0  0  0
   58.9060   29.8110   53.8850 C   0  0  0  0  0  0  0  0  0  0  0  0
   58.5330   29.4802   54.8655 H   0  0  0  0  0  0  0  0  0  0  0  0
   59.9721   29.5560   53.7932 H   0  0  0  0  0  0  0  0  0  0  0  0
   58.7802   30.8999   53.7932 H   0  0  0  0  0  0  0  0  0  0  0  0
   55.6050   29.9350   54.0230 N   0  0  0  0  0  0  0  0  0  0  0  0
   56.2820   29.6360   54.7610 H   0  0  0  0  0  0  0  0  0  0  0  0
  1  2  1  0
  2  3  1  0
  2  4  2  0
  4  5  1  0
  5  6  2  0
  6  7  1  0
  6  8  1  0
  8  9  1  0
  9 10  1  0
 10 11  2  0
 10 12  1  0
 12 13  1  0
 13 14  1  0
  5 15  1  0
 15 16  1  0
 15 17  2  0
 17 18  1  0
 18 19  2  0
 18 20  1  0
 20 21  1  0
 21 22  1  0
 21 23  1  0
 21 24  1  0
 17 25  1  0
 25 26  1  0
 25  4  1  0
 13  8  2  0
M  CHG  3   9  -1  12  -1  14  -1
M  END
>  <UniqueID>  (32) 
30

>  <SMILES>  (32) 
C=c1[nH]c(C(=O)OC)c/c1=C/c1[n-]c(=O)[n-]c1[O-]

>  <Energy>  (32) 
90.12496306463204

>  <Genealogy>  (32) 
C=c1[nH]c(C(=O)OC)cc1=Cc1[n-]c(=O)[n-]c1[O-] (protonated)
C=c1[nH]c(C(=O)OC)c/c1=C/c1[n-]c(=O)[n-]c1[O-] (cis-trans isomerization)
C=c1[nH]c(C(=O)OC)c/c1=C/c1[n-]c(=O)[n-]c1[O-] (3D coordinates assigned)
C=c1[nH]c(C(=O)OC)c/c1=C/c1[n-]c(=O)[n-]c1[O-] (optimized conformer: 90.12496306463204 kcal/mol)

>  <smiles>  (32) 
C=c1[nH]c(C(=O)OC)cc1=Cc1[nH]c(=O)[nH]c1O

>  <score_type>  (32) 
oracle

>  <origin>  (32) 
adg

>  <m_score__min__energy>  (32) 
-15.17

>  <m_primary>  (32) 
energy

$$$$
32:0
     RDKit          3D

 61 64  0  0  0  0  0  0  0  0999 V2000
   57.3950   20.7210   45.8610 C   0  0  0  0  0  0  0  0  0  0  0  0
   57.4960   22.2140   45.9950 C   0  0  0  0  0  0  0  0  0  0  0  0
   58.3820   22.9340   45.1800 C   0  0  0  0  0  0  0  0  0  0  0  0
   58.4760   24.3240   45.2870 C   0  0  0  0  0  0  0  0  0  0  0  0
   57.6880   25.0150   46.2230 C   0  0  0  0  0  0  0  0  0  0  0  0
   57.7350   26.4460   46.3410 N   0  0  0  0  0  0  0  0  0  0  0  0
   56.7030   27.3610   45.9440 C   0  0  0  0  0  0  0  0  0  0  0  0
   55.5100   26.9540   45.9220 O   0  0  0  0  0  0  0  0  0  0  0  0
   56.9900   28.7750   45.6100 C   0  0  0  0  0  0  0  0  0  0  0  0
   58.1760   29.3660   46.0800 C   0  0  0  0  0  0  0  0  0  0  0  0
   58.4720   30.7030   45.7780 C   0  0  0  0  0  0  0  0  0  0  0  0
   59.6850   31.2910   46.2650 N   0  0  0  0  0  0  0  0  0  0  0  0
   60.6730   30.4270   46.9210 C   0  0  0  0  0  0  0  0  0  0  0  0
   62.0740   31.0300   46.7850 C   0  0  0  0  0  0  0  0  0  0  0  0
   62.0550   32.4430   47.2170 N   0  0  0  0  0  0  0  0  0  0  0  0
   63.4070   33.0270   47.3760 C   0  0  0  0  0  0  0  0  0  0  0  0
   63.8630   33.1940   48.8150 C   0  0  0  0  0  0  0  0  0  0  0  0
   65.0820   33.0680   49.1080 O   0  0  0  0  0  0  0  0  0  0  0  0
   62.9520   33.5760   49.8570 N   0  0  0  0  0  0  0  0  0  0  0  0
   62.3980   32.6980   50.8900 C   0  0  0  0  0  0  0  0  0  0  0  0
   61.0470   32.1700   50.4700 C   0  0  0  0  0  0  0  0  0  0  0  0
   60.7750   30.7900   50.4990 C   0  0  0  0  0  0  0  0  0  0  0  0
   59.5140   30.3120   50.1140 C   0  0  0  0  0  0  0  0  0  0  0  0
   58.5170   31.2040   49.7030 C   0  0  0  0  0  0  0  0  0  0  0  0
   58.7790   32.5780   49.6740 C   0  0  0  0  0  0  0  0  0  0  0  0
   60.0390   33.0600   50.0540 C   0  0  0  0  0  0  0  0  0  0  0  0
   61.1510   33.2530   46.3790 C   0  0  0  0  0  0  0  0  0  0  0  0
   59.7200   32.7340   46.5250 C   0  0  0  0  0  0  0  0  0  0  0  0
   57.5860   31.4540   44.9970 C   0  0  0  0  0  0  0  0  0  0  0  0
   56.4130   30.8720   44.5140 C   0  0  0  0  0  0  0  0  0  0  0  0
   56.1140   29.5350   44.8080 C   0  0  0  0  0  0  0  0  0  0  0  0
   54.9590   28.9690   44.2770 O   0  0  0  0  0  0  0  0  0  0  0  0
   56.7880   24.3030   47.0210 C   0  0  0  0  0  0  0  0  0  0  0  0
   56.6950   22.9090   46.9230 C   0  0  0  0  0  0  0  0  0  0  0  0
   55.5570   22.0650   47.9720 Cl  0  0  0  0  0  0  0  0  0  0  0  0
   57.3641   20.2643   46.8613 H   0  0  0  0  0  0  0  0  0  0  0  0
   56.4774   20.4634   45.3118 H   0  0  0  0  0  0  0  0  0  0  0  0
   58.2696   20.3422   45.3118 H   0  0  0  0  0  0  0  0  0  0  0  0
   59.0082   22.3997   44.4503 H   0  0  0  0  0  0  0  0  0  0  0  0
   59.1686   24.8787   44.6369 H   0  0  0  0  0  0  0  0  0  0  0  0
   58.8765   28.7755   46.6888 H   0  0  0  0  0  0  0  0  0  0  0  0
   60.4206   30.3305   47.9873 H   0  0  0  0  0  0  0  0  0  0  0  0
   60.6596   29.4371   46.4415 H   0  0  0  0  0  0  0  0  0  0  0  0
   62.7773   30.4651   47.4145 H   0  0  0  0  0  0  0  0  0  0  0  0
   62.3921   30.9760   45.7334 H   0  0  0  0  0  0  0  0  0  0  0  0
   64.1257   32.3709   46.8632 H   0  0  0  0  0  0  0  0  0  0  0  0
   63.3600   34.0386   46.9465 H   0  0  0  0  0  0  0  0  0  0  0  0
   63.0827   31.8522   51.0509 H   0  0  0  0  0  0  0  0  0  0  0  0
   62.2803   33.2743   51.8195 H   0  0  0  0  0  0  0  0  0  0  0  0
   61.5533   30.0841   50.8245 H   0  0  0  0  0  0  0  0  0  0  0  0
   59.3078   29.2317   50.1351 H   0  0  0  0  0  0  0  0  0  0  0  0
   57.5287   30.8253   49.4032 H   0  0  0  0  0  0  0  0  0  0  0  0
   57.9957   33.2803   49.3528 H   0  0  0  0  0  0  0  0  0  0  0  0
   60.2415   34.1409   50.0270 H   0  0  0  0  0  0  0  0  0  0  0  0
   61.1948   34.3037   46.7017 H   0  0  0  0  0  0  0  0  0  0  0  0
   61.4623   33.1797   45.3265 H   0  0  0  0  0  0  0  0  0  0  0  0
   59.3633   32.9295   47.5470 H   0  0  0  0  0  0  0  0  0  0  0  0
   59.0716   33.2490   45.8008 H   0  0  0  0  0  0  0  0  0  0  0  0
   57.8145   32.5044   44.7635 H   0  0  0  0  0  0  0  0  0  0  0  0
   55.7200   31.4656   43.8997 H   0  0  0  0  0  0  0  0  0  0  0  0
   56.1464   24.8429   47.7330 H   0  0  0  0  0  0  0  0  0  0  0  0
  1  2  1  0
  2  3  2  0
  3  4  1  0
  4  5  2  0
  5  6  1  0
  6  7  1  0
  7  8  2  0
  7  9  1  0
  9 10  2  0
 10 11  1  0
 11 12  1  0
 12 13  1  0
 13 14  1  0
 14 15  1  0
 15 16  1  0
 16 17  1  0
 17 18  2  0
 17 19  1  0
 19 20  1  0
 20 21  1  0
 21 22  2  0
 22 23  1  0
 23 24  2  0
 24 25  1  0
 25 26  2  0
 15 27  1  0
 27 28  1  0
 11 29  2  0
 29 30  1  0
 30 31  2  0
 31 32  1  0
  5 33  1  0
 33 34  2  0
 34 35  1  0
 34  2  1  0
 31  9  1  0
 28 12  1  0
 26 21  1  0
  1 36  1  0
  1 37  1  0
  1 38  1  0
  3 39  1  0
  4 40  1  0
 10 41  1  0
 13 42  1  0
 13 43  1  0
 14 44  1  0
 14 45  1  0
 16 46  1  0
 16 47  1  0
 20 48  1  0
 20 49  1  0
 22 50  1  0
 23 51  1  0
 24 52  1  0
 25 53  1  0
 26 54  1  0
 27 55  1  0
 27 56  1  0
 28 57  1  0
 28 58  1  0
 29 59  1  0
 30 60  1  0
 33 61  1  0
M  CHG  3   6  -1  19  -1  32  -1
M  END
>  <UniqueID>  (33) 
31

>  <SMILES>  (33) 
Cc1ccc([N-]C(=O)c2cc(N3CCN(CC(=O)[N-]Cc4ccccc4)CC3)ccc2[O-])cc1Cl

>  <Energy>  (33) 
81.21760292241052

>  <Genealogy>  (33) 
Cc1ccc([N-]C(=O)c2cc(N3CCN(CC(=O)[N-]Cc4ccccc4)CC3)ccc2[O-])cc1Cl (protonated)
Cc1ccc([N-]C(=O)c2cc(N3CCN(CC(=O)[N-]Cc4ccccc4)CC3)ccc2[O-])cc1Cl (3D coordinates assigned)
Cc1ccc([N-]C(=O)c2cc(N3CCN(CC(=O)[N-]Cc4ccccc4)CC3)ccc2[O-])cc1Cl (nonaromatic ring conformer: 81.21760292241052 kcal/mol)

>  <smiles>  (33) 
Cc1ccc(NC(=O)c2cc(N3CCN(CC(=O)NCc4ccccc4)CC3)ccc2O)cc1Cl

>  <score_type>  (33) 
oracle

>  <origin>  (33) 
adg

>  <m_score__min__energy>  (33) 
-12.75

>  <m_primary>  (33) 
energy

$$$$
33:0
     RDKit          3D

 40 42  0  0  0  0  0  0  0  0999 V2000
   57.4450   26.7550   47.4810 O   0  0  0  0  0  0  0  0  0  0  0  0
   58.0690   26.3040   46.4860 C   0  0  0  0  0  0  0  0  0  0  0  0
   59.0920   27.1750   45.8020 C   0  0  0  0  0  0  0  0  0  0  0  0
   58.9540   28.6430   46.2180 C   0  0  0  0  0  0  0  0  0  0  0  0
   57.7780   29.3110   45.5610 C   0  0  0  0  0  0  0  0  0  0  0  0
   56.6530   28.6530   45.2230 N   0  0  0  0  0  0  0  0  0  0  0  0
   55.9080   29.6000   44.6190 C   0  0  0  0  0  0  0  0  0  0  0  0
   54.7600   29.3680   44.1570 O   0  0  0  0  0  0  0  0  0  0  0  0
   56.4900   30.8120   44.5430 N   0  0  0  0  0  0  0  0  0  0  0  0
   57.6860   30.6220   45.1280 C   0  0  0  0  0  0  0  0  0  0  0  0
   58.6850   31.7260   45.3360 C   0  0  0  0  0  0  0  0  0  0  0  0
   58.0770   32.9040   46.1130 C   0  0  0  0  0  0  0  0  0  0  0  0
   58.7670   33.1200   47.4390 C   0  0  0  0  0  0  0  0  0  0  0  0
   58.5520   32.2320   48.5040 C   0  0  0  0  0  0  0  0  0  0  0  0
   59.1480   32.4660   49.7460 C   0  0  0  0  0  0  0  0  0  0  0  0
   59.9620   33.5890   49.9310 C   0  0  0  0  0  0  0  0  0  0  0  0
   60.1790   34.4790   48.8760 C   0  0  0  0  0  0  0  0  0  0  0  0
   59.5830   34.2470   47.6340 C   0  0  0  0  0  0  0  0  0  0  0  0
   57.6750   25.0410   45.9350 N   0  0  0  0  0  0  0  0  0  0  0  0
   56.3280   24.5570   45.8760 C   0  0  0  0  0  0  0  0  0  0  0  0
   55.9100   22.9450   45.6260 S   0  0  0  0  0  0  0  0  0  0  0  0
   54.2630   23.3090   45.5910 C   0  0  0  0  0  0  0  0  0  0  0  0
   53.3530   22.4600   45.4180 O   0  0  0  0  0  0  0  0  0  0  0  0
   54.0150   24.6290   45.7460 N   0  0  0  0  0  0  0  0  0  0  0  0
   55.1690   25.3310   45.8930 C   0  0  0  0  0  0  0  0  0  0  0  0
   55.1740   26.7180   46.0160 O   0  0  0  0  0  0  0  0  0  0  0  0
   60.0984   26.8213   46.0706 H   0  0  0  0  0  0  0  0  0  0  0  0
   58.9282   27.1090   44.7163 H   0  0  0  0  0  0  0  0  0  0  0  0
   58.8248   28.6914   47.3093 H   0  0  0  0  0  0  0  0  0  0  0  0
   59.8644   29.1716   45.8990 H   0  0  0  0  0  0  0  0  0  0  0  0
   59.5413   31.3300   45.9016 H   0  0  0  0  0  0  0  0  0  0  0  0
   59.0007   32.0932   44.3483 H   0  0  0  0  0  0  0  0  0  0  0  0
   58.1751   33.8175   45.5081 H   0  0  0  0  0  0  0  0  0  0  0  0
   57.0204   32.6719   46.3123 H   0  0  0  0  0  0  0  0  0  0  0  0
   57.9122   31.3488   48.3607 H   0  0  0  0  0  0  0  0  0  0  0  0
   58.9773   31.7674   50.5783 H   0  0  0  0  0  0  0  0  0  0  0  0
   60.4319   33.7715   50.9087 H   0  0  0  0  0  0  0  0  0  0  0  0
   60.8187   35.3617   49.0233 H   0  0  0  0  0  0  0  0  0  0  0  0
   59.7533   34.9498   46.8051 H   0  0  0  0  0  0  0  0  0  0  0  0
   56.0310   27.2410   45.8980 H   0  0  0  0  0  0  0  0  0  0  0  0
  1  2  2  0
  2  3  1  0
  3  4  1  0
  4  5  1  0
  5  6  1  0
  6  7  1  0
  7  8  2  0
  7  9  1  0
  9 10  1  0
 10 11  1  0
 11 12  1  0
 12 13  1  0
 13 14  2  0
 14 15  1  0
 15 16  2  0
 16 17  1  0
 17 18  2  0
  2 19  1  0
 19 20  1  0
 20 21  1  0
 21 22  1  0
 22 23  2  0
 22 24  1  0
 24 25  1  0
 25 26  1  0
 10  5  2  0
 18 13  1  0
 25 20  2  0
  3 27  1  0
  3 28  1  0
  4 29  1  0
  4 30  1  0
 11 31  1  0
 11 32  1  0
 12 33  1  0
 12 34  1  0
 14 35  1  0
 15 36  1  0
 16 37  1  0
 17 38  1  0
 18 39  1  0
 26 40  1  0
M  CHG  4   6  -1   9  -1  19  -1  24  -1
M  END
>  <UniqueID>  (34) 
32

>  <SMILES>  (34) 
O=C(CCc1[n-]c(=O)[n-]c1CCc1ccccc1)[N-]c1sc(=O)[n-]c1O

>  <Energy>  (34) 
97.6312965596032

>  <Genealogy>  (34) 
O=C(CCc1[n-]c(=O)[n-]c1CCc1ccccc1)[N-]c1sc(=O)[n-]c1O (protonated)
O=C(CCc1[n-]c(=O)[n-]c1CCc1ccccc1)[N-]c1sc(=O)[n-]c1O (3D coordinates assigned)
O=C(CCc1[n-]c(=O)[n-]c1CCc1ccccc1)[N-]c1sc(=O)[n-]c1O (optimized conformer: 97.6312965596032 kcal/mol)

>  <smiles>  (34) 
O=C(CCc1[nH]c(=O)[nH]c1CCc1ccccc1)Nc1sc(=O)[nH]c1O

>  <score_type>  (34) 
oracle

>  <origin>  (34) 
adg

>  <m_score__min__energy>  (34) 
-14.99

>  <m_primary>  (34) 
energy

$$$$
34:0
     RDKit          3D

 68 71  0  0  0  0  0  0  0  0999 V2000
   58.5370   31.9740   49.6220 C   0  0  0  0  0  0  0  0  0  0  0  0
   59.0990   32.1900   50.8110 C   0  0  0  0  0  0  0  0  0  0  0  0
   59.6510   33.5080   51.1980 C   0  0  0  0  0  0  0  0  0  0  0  0
   58.9180   34.3410   51.7930 O   0  0  0  0  0  0  0  0  0  0  0  0
   61.0300   33.8440   50.9810 N   0  0  0  0  0  0  0  0  0  0  0  0
   61.6850   33.7850   49.8580 C   0  0  0  0  0  0  0  0  0  0  0  0
   60.9910   33.9670   48.6540 C   0  0  0  0  0  0  0  0  0  0  0  0
   61.6640   33.8410   47.4360 C   0  0  0  0  0  0  0  0  0  0  0  0
   60.9480   34.0260   46.2440 O   0  0  0  0  0  0  0  0  0  0  0  0
   59.7350   33.4030   45.9170 C   0  0  0  0  0  0  0  0  0  0  0  0
   59.5700   32.0540   46.2490 C   0  0  0  0  0  0  0  0  0  0  0  0
   58.3930   31.3790   45.9100 C   0  0  0  0  0  0  0  0  0  0  0  0
   57.3600   32.0460   45.2450 C   0  0  0  0  0  0  0  0  0  0  0  0
   56.1960   31.3020   44.8590 N   0  0  0  0  0  0  0  0  0  0  0  0
   56.1750   29.9690   44.3320 C   0  0  0  0  0  0  0  0  0  0  0  0
   56.4880   29.7530   43.1320 O   0  0  0  0  0  0  0  0  0  0  0  0
   55.8090   28.8630   45.1650 N   0  0  0  0  0  0  0  0  0  0  0  0
   56.7020   27.8370   45.6230 C   0  0  0  0  0  0  0  0  0  0  0  0
   58.0800   28.0800   45.5960 C   0  0  0  0  0  0  0  0  0  0  0  0
   58.9810   27.1170   46.0720 C   0  0  0  0  0  0  0  0  0  0  0  0
   60.4500   27.4160   46.1140 C   0  0  0  0  0  0  0  0  0  0  0  0
   58.4930   25.9050   46.5810 C   0  0  0  0  0  0  0  0  0  0  0  0
   57.1190   25.6180   46.5410 C   0  0  0  0  0  0  0  0  0  0  0  0
   56.5960   24.3210   47.0170 C   0  0  0  0  0  0  0  0  0  0  0  0
   57.3960   23.4940   47.5280 O   0  0  0  0  0  0  0  0  0  0  0  0
   55.2000   23.9930   46.9790 N   0  0  0  0  0  0  0  0  0  0  0  0
   54.4820   23.4230   45.8420 C   0  0  0  0  0  0  0  0  0  0  0  0
   54.9260   21.9750   45.5820 C   0  0  0  0  0  0  0  0  0  0  0  0
   55.8440   21.8310   44.4300 N   0  0  0  0  0  0  0  0  0  0  0  0
   56.0490   23.0430   43.6080 C   0  0  0  0  0  0  0  0  0  0  0  0
   57.3920   23.7370   43.8900 C   0  0  0  0  0  0  0  0  0  0  0  0
   58.4590   22.8150   43.8640 O   0  0  0  0  0  0  0  0  0  0  0  0
   58.2920   21.8840   44.9100 C   0  0  0  0  0  0  0  0  0  0  0  0
   57.0520   21.0160   44.6640 C   0  0  0  0  0  0  0  0  0  0  0  0
   56.2270   26.5930   46.0710 C   0  0  0  0  0  0  0  0  0  0  0  0
   57.5310   33.3940   44.8860 C   0  0  0  0  0  0  0  0  0  0  0  0
   58.7110   34.0680   45.2130 C   0  0  0  0  0  0  0  0  0  0  0  0
   58.8780   35.3430   44.7800 F   0  0  0  0  0  0  0  0  0  0  0  0
   63.0430   33.5710   47.4400 C   0  0  0  0  0  0  0  0  0  0  0  0
   63.7050   33.3970   48.6560 C   0  0  0  0  0  0  0  0  0  0  0  0
   63.0170   33.4990   49.8260 N   0  0  0  0  0  0  0  0  0  0  0  0
   58.1389   30.9789   49.3744 H   0  0  0  0  0  0  0  0  0  0  0  0
   58.4712   32.7908   48.8882 H   0  0  0  0  0  0  0  0  0  0  0  0
   59.1547   31.3596   51.5302 H   0  0  0  0  0  0  0  0  0  0  0  0
   59.9180   34.2087   48.6679 H   0  0  0  0  0  0  0  0  0  0  0  0
   60.3718   31.5204   46.7805 H   0  0  0  0  0  0  0  0  0  0  0  0
   58.2793   30.3159   46.1684 H   0  0  0  0  0  0  0  0  0  0  0  0
   58.4588   29.0332   45.1986 H   0  0  0  0  0  0  0  0  0  0  0  0
   60.7807   27.4833   47.1610 H   0  0  0  0  0  0  0  0  0  0  0  0
   61.0025   26.6119   45.6059 H   0  0  0  0  0  0  0  0  0  0  0  0
   60.6443   28.3721   45.6059 H   0  0  0  0  0  0  0  0  0  0  0  0
   59.1913   25.1740   47.0146 H   0  0  0  0  0  0  0  0  0  0  0  0
   53.4028   23.4360   46.0546 H   0  0  0  0  0  0  0  0  0  0  0  0
   54.7053   24.0245   44.9485 H   0  0  0  0  0  0  0  0  0  0  0  0
   55.4370   21.6018   46.4818 H   0  0  0  0  0  0  0  0  0  0  0  0
   54.0195   21.3990   45.3441 H   0  0  0  0  0  0  0  0  0  0  0  0
   56.0180   22.7565   42.5464 H   0  0  0  0  0  0  0  0  0  0  0  0
   55.2497   23.7543   43.8635 H   0  0  0  0  0  0  0  0  0  0  0  0
   57.5652   24.5076   43.1244 H   0  0  0  0  0  0  0  0  0  0  0  0
   57.3466   24.1884   44.8921 H   0  0  0  0  0  0  0  0  0  0  0  0
   59.1808   21.2382   44.9650 H   0  0  0  0  0  0  0  0  0  0  0  0
   58.1614   22.4310   45.8554 H   0  0  0  0  0  0  0  0  0  0  0  0
   57.2304   20.3839   43.7816 H   0  0  0  0  0  0  0  0  0  0  0  0
   56.8810   20.4054   45.5629 H   0  0  0  0  0  0  0  0  0  0  0  0
   55.1476   26.3821   46.0530 H   0  0  0  0  0  0  0  0  0  0  0  0
   56.7318   33.9215   44.3447 H   0  0  0  0  0  0  0  0  0  0  0  0
   63.5962   33.4974   46.4921 H   0  0  0  0  0  0  0  0  0  0  0  0
   64.7828   33.1774   48.6690 H   0  0  0  0  0  0  0  0  0  0  0  0
  1  2  2  0
  2  3  1  0
  3  4  2  0
  3  5  1  0
  5  6  2  3
  6  7  1  0
  7  8  2  0
  8  9  1  0
  9 10  1  0
 10 11  2  0
 11 12  1  0
 12 13  2  0
 13 14  1  0
 14 15  1  0
 15 16  2  0
 15 17  1  0
 17 18  1  0
 18 19  2  0
 19 20  1  0
 20 21  1  0
 20 22  2  0
 22 23  1  0
 23 24  1  0
 24 25  2  0
 24 26  1  0
 26 27  1  0
 27 28  1  0
 28 29  1  0
 29 30  1  0
 30 31  1  0
 31 32  1  0
 32 33  1  0
 33 34  1  0
 23 35  2  0
 13 36  1  0
 36 37  2  0
 37 38  1  0
  8 39  1  0
 39 40  2  0
 40 41  1  0
 41  6  1  0
 37 10  1  0
 35 18  1  0
 34 29  1  0
  1 42  1  0
  1 43  1  0
  2 44  1  0
  7 45  1  0
 11 46  1  0
 12 47  1  0
 19 48  1  0
 21 49  1  0
 21 50  1  0
 21 51  1  0
 22 52  1  0
 27 53  1  0
 27 54  1  0
 28 55  1  0
 28 56  1  0
 30 57  1  0
 30 58  1  0
 31 59  1  0
 31 60  1  0
 33 61  1  0
 33 62  1  0
 34 63  1  0
 34 64  1  0
 35 65  1  0
 36 66  1  0
 39 67  1  0
 40 68  1  0
M  CHG  4  14  -1  17  -1  26  -1  41  -1
M  END
>  <UniqueID>  (35) 
33

>  <SMILES>  (35) 
C=CC(=O)N=c1cc(Oc2ccc([N-]C(=O)[N-]c3cc(C)cc(C(=O)[N-]CCN4CCOCC4)c3)cc2F)cc[n-]1

>  <Energy>  (35) 
101.91944075773479

>  <Genealogy>  (35) 
C=CC(=O)N=c1cc(Oc2ccc([N-]C(=O)[N-]c3cc(C)cc(C(=O)[N-]CCN4CCOCC4)c3)cc2F)cc[n-]1 (protonated)
C=CC(=O)N=c1cc(Oc2ccc([N-]C(=O)[N-]c3cc(C)cc(C(=O)[N-]CCN4CCOCC4)c3)cc2F)cc[n-]1 (3D coordinates assigned)
C=CC(=O)N=c1cc(Oc2ccc([N-]C(=O)[N-]c3cc(C)cc(C(=O)[N-]CCN4CCOCC4)c3)cc2F)cc[n-]1 (nonaromatic ring conformer: 101.91944075773479 kcal/mol)

>  <smiles>  (35) 
C=CC(=O)N=c1cc(Oc2ccc(NC(=O)Nc3cc(C)cc(C(=O)NCCN4CCOCC4)c3)cc2F)cc[nH]1

>  <score_type>  (35) 
oracle

>  <origin>  (35) 
adg

>  <m_score__min__energy>  (35) 
-15.69

>  <m_primary>  (35) 
energy

$$$$
35:0
     RDKit          3D

 35 37  0  0  0  0  0  0  0  0999 V2000
   60.2450   27.4018   47.5879 H   0  0  0  0  0  0  0  0  0  0  0  0
   60.1160   26.3620   47.2530 C   0  0  0  0  0  0  0  0  0  0  0  0
   60.7399   25.5644   47.6826 H   0  0  0  0  0  0  0  0  0  0  0  0
   59.2020   26.0680   46.3250 C   0  0  0  0  0  0  0  0  0  0  0  0
   59.0170   24.8080   45.8920 N   0  0  0  0  0  0  0  0  0  0  0  0
   57.9390   24.8880   45.0850 C   0  0  0  0  0  0  0  0  0  0  0  0
   57.3770   23.7490   44.4060 N   0  0  0  0  0  0  0  0  0  0  0  0
   56.0690   23.8670   43.7490 C   0  0  0  0  0  0  0  0  0  0  0  0
   55.2737   23.7265   44.4959 H   0  0  0  0  0  0  0  0  0  0  0  0
   55.9859   24.8648   43.2935 H   0  0  0  0  0  0  0  0  0  0  0  0
   55.9270   22.8060   42.6540 C   0  0  0  0  0  0  0  0  0  0  0  0
   54.8914   22.8073   42.2831 H   0  0  0  0  0  0  0  0  0  0  0  0
   56.6265   23.0450   41.8394 H   0  0  0  0  0  0  0  0  0  0  0  0
   56.2380   21.5210   43.1550 O   0  0  0  0  0  0  0  0  0  0  0  0
   57.6070   21.4700   43.5050 C   0  0  0  0  0  0  0  0  0  0  0  0
   57.8679   20.4404   43.7912 H   0  0  0  0  0  0  0  0  0  0  0  0
   58.2044   21.7898   42.6385 H   0  0  0  0  0  0  0  0  0  0  0  0
   57.9040   22.4080   44.6790 C   0  0  0  0  0  0  0  0  0  0  0  0
   57.4311   22.0108   45.5893 H   0  0  0  0  0  0  0  0  0  0  0  0
   58.9933   22.4734   44.8176 H   0  0  0  0  0  0  0  0  0  0  0  0
   57.4300   26.1350   44.9800 N   0  0  0  0  0  0  0  0  0  0  0  0
   58.2370   26.8960   45.7430 C   0  0  0  0  0  0  0  0  0  0  0  0
   58.0500   28.2240   45.8420 C   0  0  0  0  0  0  0  0  0  0  0  0
   58.1858   28.6777   46.8348 H   0  0  0  0  0  0  0  0  0  0  0  0
   57.6790   29.1240   44.7360 C   0  0  0  0  0  0  0  0  0  0  0  0
   57.9250   30.4990   44.8510 C   0  0  0  0  0  0  0  0  0  0  0  0
   58.4256   30.8996   45.7448 H   0  0  0  0  0  0  0  0  0  0  0  0
   57.5300   31.3560   43.8230 C   0  0  0  0  0  0  0  0  0  0  0  0
   57.7340   32.4345   43.8947 H   0  0  0  0  0  0  0  0  0  0  0  0
   56.8750   30.8400   42.7030 C   0  0  0  0  0  0  0  0  0  0  0  0
   56.5655   31.5063   41.8843 H   0  0  0  0  0  0  0  0  0  0  0  0
   56.6170   29.4700   42.6330 C   0  0  0  0  0  0  0  0  0  0  0  0
   56.0959   29.0545   41.7579 H   0  0  0  0  0  0  0  0  0  0  0  0
   57.0080   28.6460   43.6440 N   0  0  0  0  0  0  0  0  0  0  0  0
   56.7830   27.6290   43.5750 H   0  0  0  0  0  0  0  0  0  0  0  0
  1  2  1  0
  2  3  1  0
  2  4  2  0
  4  5  1  0
  5  6  2  0
  6  7  1  0
  7  8  1  0
  8  9  1  0
  8 10  1  0
  8 11  1  0
 11 12  1  0
 11 13  1  0
 11 14  1  0
 14 15  1  0
 15 16  1  0
 15 17  1  0
 15 18  1  0
 18 19  1  0
 18 20  1  0
  6 21  1  0
 21 22  1  0
 22 23  2  0
 23 24  1  0
 23 25  1  0
 25 26  2  0
 26 27  1  0
 26 28  1  0
 28 29  1  0
 28 30  2  0
 30 31  1  0
 30 32  1  0
 32 33  1  0
 32 34  2  0
 34 35  1  0
 22  4  1  0
 34 25  1  0
 18  7  1  0
M  CHG  2  21  -1  34   1
M  END
>  <UniqueID>  (36) 
34

>  <SMILES>  (36) 
C=c1nc(N2CCOCC2)[n-]/c1=C/c1cccc[nH+]1

>  <Energy>  (36) 
77.0966783708783

>  <Genealogy>  (36) 
C=c1nc(N2CCOCC2)[n-]c1=Cc1cccc[nH+]1 (protonated)
C=c1nc(N2CCOCC2)[n-]/c1=C/c1cccc[nH+]1 (cis-trans isomerization)
C=c1nc(N2CCOCC2)[n-]/c1=C/c1cccc[nH+]1 (3D coordinates assigned)
C=c1nc(N2CCOCC2)[n-]/c1=C/c1cccc[nH+]1 (nonaromatic ring conformer: 77.0966783708783 kcal/mol)

>  <smiles>  (36) 
C=c1nc(N2CCOCC2)[nH]c1=Cc1ccccn1

>  <score_type>  (36) 
oracle

>  <origin>  (36) 
adg

>  <m_score__min__energy>  (36) 
-6.2800000000000002

>  <m_primary>  (36) 
energy

$$$$
36:0
     RDKit          3D

 30 31  0  0  0  0  0  0  0  0999 V2000
   55.1620   27.4790   45.3090 H   0  0  0  0  0  0  0  0  0  0  0  0
   55.1140   26.7130   45.9700 O   0  0  0  0  0  0  0  0  0  0  0  0
   56.2230   25.9050   46.2080 C   0  0  0  0  0  0  0  0  0  0  0  0
   56.0760   24.7490   46.9080 N   0  0  0  0  0  0  0  0  0  0  0  0
   57.1370   23.9410   47.1590 C   0  0  0  0  0  0  0  0  0  0  0  0
   56.9750   22.8730   47.8050 O   0  0  0  0  0  0  0  0  0  0  0  0
   58.3740   24.2870   46.7210 N   0  0  0  0  0  0  0  0  0  0  0  0
   58.5760   25.4320   46.0190 C   0  0  0  0  0  0  0  0  0  0  0  0
   59.7450   25.7380   45.6630 O   0  0  0  0  0  0  0  0  0  0  0  0
   57.4860   26.2700   45.7190 C   0  0  0  0  0  0  0  0  0  0  0  0
   57.6500   27.5370   44.9680 C   0  0  0  0  0  0  0  0  0  0  0  0
   58.4124   27.5730   44.1758 H   0  0  0  0  0  0  0  0  0  0  0  0
   56.9460   28.6110   45.1890 N   0  0  0  0  0  0  0  0  0  0  0  0
   57.4370   29.9490   45.3830 C   0  0  0  0  0  0  0  0  0  0  0  0
   58.1340   30.2960   46.5570 C   0  0  0  0  0  0  0  0  0  0  0  0
   58.2742   29.5476   47.3509 H   0  0  0  0  0  0  0  0  0  0  0  0
   58.6480   31.5840   46.7190 C   0  0  0  0  0  0  0  0  0  0  0  0
   59.1747   31.8522   47.6467 H   0  0  0  0  0  0  0  0  0  0  0  0
   58.4950   32.5310   45.7070 C   0  0  0  0  0  0  0  0  0  0  0  0
   58.8966   33.5464   45.8401 H   0  0  0  0  0  0  0  0  0  0  0  0
   57.8330   32.1930   44.5250 C   0  0  0  0  0  0  0  0  0  0  0  0
   57.7308   32.9395   43.7236 H   0  0  0  0  0  0  0  0  0  0  0  0
   57.2960   30.9050   44.3520 C   0  0  0  0  0  0  0  0  0  0  0  0
   56.6100   30.5590   43.0540 C   0  0  0  0  0  0  0  0  0  0  0  0
   55.5210   30.6294   43.1919 H   0  0  0  0  0  0  0  0  0  0  0  0
   56.8947   29.5360   42.7670 H   0  0  0  0  0  0  0  0  0  0  0  0
   57.0360   31.5140   41.9440 C   0  0  0  0  0  0  0  0  0  0  0  0
   57.4459   32.4330   42.3883 H   0  0  0  0  0  0  0  0  0  0  0  0
   57.8049   31.0330   41.3215 H   0  0  0  0  0  0  0  0  0  0  0  0
   56.1644   31.7648   41.3215 H   0  0  0  0  0  0  0  0  0  0  0  0
  1  2  1  0
  2  3  1  0
  3  4  1  0
  4  5  1  0
  5  6  2  0
  5  7  1  0
  7  8  1  0
  8  9  2  0
  8 10  1  0
 10 11  1  0
 11 12  1  0
 11 13  2  0
 13 14  1  0
 14 15  2  0
 15 16  1  0
 15 17  1  0
 17 18  1  0
 17 19  2  0
 19 20  1  0
 19 21  1  0
 21 22  1  0
 21 23  2  0
 23 24  1  0
 24 25  1  0
 24 26  1  0
 24 27  1  0
 27 28  1  0
 27 29  1  0
 27 30  1  0
 10  3  2  0
 23 14  1  0
M  CHG  2   4  -1   7  -1
M  END
>  <UniqueID>  (37) 
35

>  <SMILES>  (37) 
CCc1ccccc1/N=C\c1c(O)[n-]c(=O)[n-]c1=O

>  <Energy>  (37) 
41.79034181587173

>  <Genealogy>  (37) 
CCc1ccccc1N=Cc1c(O)[n-]c(=O)[n-]c1=O (protonated)
CCc1ccccc1/N=C\c1c(O)[n-]c(=O)[n-]c1=O (cis-trans isomerization)
CCc1ccccc1/N=C\c1c(O)[n-]c(=O)[n-]c1=O (3D coordinates assigned)
CCc1ccccc1/N=C\c1c(O)[n-]c(=O)[n-]c1=O (optimized conformer: 41.79034181587173 kcal/mol)

>  <smiles>  (37) 
CCc1ccccc1N=Cc1c(O)[nH]c(=O)[nH]c1=O

>  <score_type>  (37) 
oracle

>  <origin>  (37) 
adg

>  <m_score__min__energy>  (37) 
-11.68

>  <m_primary>  (37) 
energy

$$$$
37:0
     RDKit          3D

 53 56  0  0  0  0  0  0  0  0999 V2000
   60.3190   28.3760   44.2470 H   0  0  0  0  0  0  0  0  0  0  0  0
   60.0840   29.3290   44.4830 O   0  0  0  0  0  0  0  0  0  0  0  0
   58.7640   29.7740   44.5800 C   0  0  0  0  0  0  0  0  0  0  0  0
   58.5210   31.1050   44.4930 N   0  0  0  0  0  0  0  0  0  0  0  0
   57.2540   31.6020   44.5620 C   0  0  0  0  0  0  0  0  0  0  0  0
   57.0310   32.8790   44.4730 N   0  0  0  0  0  0  0  0  0  0  0  0
   57.1690   33.8290   45.5780 C   0  0  0  0  0  0  0  0  0  0  0  0
   57.1330   34.8534   45.1789 H   0  0  0  0  0  0  0  0  0  0  0  0
   56.3453   33.6642   46.2881 H   0  0  0  0  0  0  0  0  0  0  0  0
   58.4740   33.6270   46.3000 C   0  0  0  0  0  0  0  0  0  0  0  0
   58.5580   32.7040   47.3510 C   0  0  0  0  0  0  0  0  0  0  0  0
   57.6649   32.1375   47.6536 H   0  0  0  0  0  0  0  0  0  0  0  0
   59.7670   32.4990   48.0160 C   0  0  0  0  0  0  0  0  0  0  0  0
   59.8225   31.7668   48.8351 H   0  0  0  0  0  0  0  0  0  0  0  0
   60.9140   33.2210   47.6470 C   0  0  0  0  0  0  0  0  0  0  0  0
   62.1680   32.9830   48.3220 N   0  0  0  0  0  0  0  0  0  0  0  0
   62.3310   32.6050   49.6800 C   0  0  0  0  0  0  0  0  0  0  0  0
   61.3850   32.1940   50.4050 O   0  0  0  0  0  0  0  0  0  0  0  0
   63.7300   32.6820   50.1430 C   0  0  0  0  0  0  0  0  0  0  0  0
   64.0661   31.7142   50.5435 H   0  0  0  0  0  0  0  0  0  0  0  0
   63.8739   33.4067   50.9579 H   0  0  0  0  0  0  0  0  0  0  0  0
   64.5050   33.0490   48.8700 C   0  0  0  0  0  0  0  0  0  0  0  0
   65.1848   32.2292   48.5948 H   0  0  0  0  0  0  0  0  0  0  0  0
   65.1074   33.9552   49.0310 H   0  0  0  0  0  0  0  0  0  0  0  0
   63.4720   33.2760   47.7470 C   0  0  0  0  0  0  0  0  0  0  0  0
   63.6750   32.6021   46.9016 H   0  0  0  0  0  0  0  0  0  0  0  0
   63.5171   34.3071   47.3665 H   0  0  0  0  0  0  0  0  0  0  0  0
   60.8270   34.1430   46.5890 C   0  0  0  0  0  0  0  0  0  0  0  0
   61.7203   34.7067   46.2818 H   0  0  0  0  0  0  0  0  0  0  0  0
   59.6160   34.3490   45.9250 C   0  0  0  0  0  0  0  0  0  0  0  0
   59.5577   35.0800   45.1051 H   0  0  0  0  0  0  0  0  0  0  0  0
   56.2060   30.7530   44.7190 N   0  0  0  0  0  0  0  0  0  0  0  0
   56.3960   29.4150   44.8210 C   0  0  0  0  0  0  0  0  0  0  0  0
   55.5328   28.7446   44.9454 H   0  0  0  0  0  0  0  0  0  0  0  0
   57.6900   28.8870   44.7680 C   0  0  0  0  0  0  0  0  0  0  0  0
   57.9270   27.1190   44.9890 S   0  0  0  0  0  0  0  0  0  0  0  0
   58.8780   27.3480   46.4930 C   0  0  0  0  0  0  0  0  0  0  0  0
   58.5040   28.3220   47.4260 C   0  0  0  0  0  0  0  0  0  0  0  0
   57.6052   28.9324   47.2542 H   0  0  0  0  0  0  0  0  0  0  0  0
   59.2520   28.5130   48.5440 N   0  0  0  0  0  0  0  0  0  0  0  0
   60.3730   27.7790   48.7990 C   0  0  0  0  0  0  0  0  0  0  0  0
   61.0650   27.9570   49.8860 N   0  0  0  0  0  0  0  0  0  0  0  0
   61.1260   29.1560   50.6780 C   0  0  0  0  0  0  0  0  0  0  0  0
   59.9730   29.9930   50.8300 N   0  0  0  0  0  0  0  0  0  0  0  0
   59.1070   29.8300   50.2690 H   0  0  0  0  0  0  0  0  0  0  0  0
   60.0190   30.8460   51.4280 H   0  0  0  0  0  0  0  0  0  0  0  0
   62.2570   29.5190   51.1930 N   0  0  0  0  0  0  0  0  0  0  0  0
   62.5310   30.5290   51.2220 H   0  0  0  0  0  0  0  0  0  0  0  0
   62.9300   28.8130   51.5700 H   0  0  0  0  0  0  0  0  0  0  0  0
   60.7630   26.7810   47.8970 C   0  0  0  0  0  0  0  0  0  0  0  0
   61.6514   26.1656   48.1020 H   0  0  0  0  0  0  0  0  0  0  0  0
   60.0170   26.5730   46.7370 C   0  0  0  0  0  0  0  0  0  0  0  0
   60.3235   25.8013   46.0155 H   0  0  0  0  0  0  0  0  0  0  0  0
  1  2  1  0
  2  3  1  0
  3  4  1  0
  4  5  1  0
  5  6  2  3
  6  7  1  0
  7  8  1  0
  7  9  1  0
  7 10  1  0
 10 11  2  0
 11 12  1  0
 11 13  1  0
 13 14  1  0
 13 15  2  0
 15 16  1  0
 16 17  1  0
 17 18  2  0
 17 19  1  0
 19 20  1  0
 19 21  1  0
 19 22  1  0
 22 23  1  0
 22 24  1  0
 22 25  1  0
 25 26  1  0
 25 27  1  0
 15 28  1  0
 28 29  1  0
 28 30  2  0
 30 31  1  0
  5 32  1  0
 32 33  2  0
 33 34  1  0
 33 35  1  0
 35 36  1  0
 36 37  1  0
 37 38  2  0
 38 39  1  0
 38 40  1  0
 40 41  1  0
 41 42  2  0
 42 43  1  0
 43 44  1  0
 44 45  1  0
 44 46  1  0
 43 47  2  0
 47 48  1  0
 47 49  1  0
 41 50  1  0
 50 51  1  0
 50 52  2  0
 52 53  1  0
 35  3  2  0
 52 37  1  0
 30 10  1  0
 25 16  1  0
M  CHG  3   4  -1  40  -1  47   1
M  END
>  <UniqueID>  (38) 
36

>  <SMILES>  (38) 
NC(=[NH2+])/N=c1/ccc(Sc2cnc(=NCc3ccc(N4CCCC4=O)cc3)[n-]c2O)c[n-]1

>  <Energy>  (38) 
67.30419971966514

>  <Genealogy>  (38) 
NC(=[NH2+])N=c1ccc(Sc2cnc(=NCc3ccc(N4CCCC4=O)cc3)[n-]c2O)c[n-]1 (protonated)
NC(=[NH2+])/N=c1/ccc(Sc2cnc(=NCc3ccc(N4CCCC4=O)cc3)[n-]c2O)c[n-]1 (cis-trans isomerization)
NC(=[NH2+])/N=c1/ccc(Sc2cnc(=NCc3ccc(N4CCCC4=O)cc3)[n-]c2O)c[n-]1 (3D coordinates assigned)
NC(=[NH2+])/N=c1/ccc(Sc2cnc(=NCc3ccc(N4CCCC4=O)cc3)[n-]c2O)c[n-]1 (nonaromatic ring conformer: 67.30419971966514 kcal/mol)

>  <smiles>  (38) 
N=C(N)N=c1ccc(Sc2cnc(=NCc3ccc(N4CCCC4=O)cc3)[nH]c2O)c[nH]1

>  <score_type>  (38) 
oracle

>  <origin>  (38) 
adg

>  <m_score__min__energy>  (38) 
-10.08

>  <m_primary>  (38) 
energy

$$$$
38:0
     RDKit          3D

 28 29  0  0  0  0  0  0  0  0999 V2000
   55.5670   27.0930   45.7440 N   0  0  0  0  0  0  0  0  0  0  0  0
   56.8260   26.5100   46.0930 C   0  0  0  0  0  0  0  0  0  0  0  0
   56.8920   25.2570   46.2460 O   0  0  0  0  0  0  0  0  0  0  0  0
   58.0190   27.3790   46.3000 C   0  0  0  0  0  0  0  0  0  0  0  0
   58.7570   27.2360   47.4940 C   0  0  0  0  0  0  0  0  0  0  0  0
   59.8900   28.0150   47.7380 C   0  0  0  0  0  0  0  0  0  0  0  0
   60.3080   28.9550   46.7990 C   0  0  0  0  0  0  0  0  0  0  0  0
   59.5950   29.1180   45.6120 C   0  0  0  0  0  0  0  0  0  0  0  0
   58.4530   28.3480   45.3500 C   0  0  0  0  0  0  0  0  0  0  0  0
   57.5870   28.6770   43.8050 S   0  0  0  0  0  0  0  0  0  0  0  0
   56.7630   30.1260   44.4680 C   0  0  0  0  0  0  0  0  0  0  0  0
   55.5540   30.0310   44.8110 O   0  0  0  0  0  0  0  0  0  0  0  0
   57.4910   31.3930   44.6980 C   0  0  0  0  0  0  0  0  0  0  0  0
   57.8140   31.7490   46.0190 C   0  0  0  0  0  0  0  0  0  0  0  0
   58.5180   32.9240   46.2860 C   0  0  0  0  0  0  0  0  0  0  0  0
   58.9090   33.7590   45.2410 C   0  0  0  0  0  0  0  0  0  0  0  0
   58.5820   33.4290   43.9250 C   0  0  0  0  0  0  0  0  0  0  0  0
   57.8700   32.2560   43.6430 C   0  0  0  0  0  0  0  0  0  0  0  0
   57.4030   31.9680   41.9710 Cl  0  0  0  0  0  0  0  0  0  0  0  0
   55.5160   27.9190   45.1070 H   0  0  0  0  0  0  0  0  0  0  0  0
   58.4348   26.4992   48.2446 H   0  0  0  0  0  0  0  0  0  0  0  0
   60.4536   27.8860   48.6738 H   0  0  0  0  0  0  0  0  0  0  0  0
   61.2001   29.5684   46.9938 H   0  0  0  0  0  0  0  0  0  0  0  0
   59.9323   29.8592   44.8726 H   0  0  0  0  0  0  0  0  0  0  0  0
   57.5091   31.0955   46.8497 H   0  0  0  0  0  0  0  0  0  0  0  0
   58.7649   33.1918   47.3239 H   0  0  0  0  0  0  0  0  0  0  0  0
   59.4752   34.6779   45.4534 H   0  0  0  0  0  0  0  0  0  0  0  0
   58.8855   34.0946   43.1035 H   0  0  0  0  0  0  0  0  0  0  0  0
  1  2  1  0
  2  3  2  0
  2  4  1  0
  4  5  2  0
  5  6  1  0
  6  7  2  0
  7  8  1  0
  8  9  2  0
  9 10  1  0
 10 11  1  0
 11 12  2  0
 11 13  1  0
 13 14  2  0
 14 15  1  0
 15 16  2  0
 16 17  1  0
 17 18  2  0
 18 19  1  0
  9  4  1  0
 18 13  1  0
  1 20  1  0
  5 21  1  0
  6 22  1  0
  7 23  1  0
  8 24  1  0
 14 25  1  0
 15 26  1  0
 16 27  1  0
 17 28  1  0
M  CHG  1   1  -1
M  END
>  <UniqueID>  (39) 
37

>  <SMILES>  (39) 
[NH-]C(=O)c1ccccc1SC(=O)c1ccccc1Cl

>  <Energy>  (39) 
34.94083941927601

>  <Genealogy>  (39) 
[NH-]C(=O)c1ccccc1SC(=O)c1ccccc1Cl (protonated)
[NH-]C(=O)c1ccccc1SC(=O)c1ccccc1Cl (3D coordinates assigned)
[NH-]C(=O)c1ccccc1SC(=O)c1ccccc1Cl (optimized conformer: 34.94083941927601 kcal/mol)

>  <smiles>  (39) 
NC(=O)c1ccccc1SC(=O)c1ccccc1Cl

>  <score_type>  (39) 
oracle

>  <origin>  (39) 
adg

>  <m_score__min__energy>  (39) 
-10.789999999999999

>  <m_primary>  (39) 
energy

$$$$
39:0
     RDKit          3D

 53 56  0  0  0  0  0  0  0  0999 V2000
   63.7160   33.8440   48.7780 C   0  0  0  0  0  0  0  0  0  0  0  0
   62.5450   33.7480   48.1330 C   0  0  0  0  0  0  0  0  0  0  0  0
   62.4950   33.7670   46.6550 C   0  0  0  0  0  0  0  0  0  0  0  0
   63.5370   33.9640   45.9740 O   0  0  0  0  0  0  0  0  0  0  0  0
   61.2910   33.5070   45.9930 O   0  0  0  0  0  0  0  0  0  0  0  0
   60.0080   33.5330   46.6280 C   0  0  1  0  0  0  0  0  0  0  0  0
   59.2210   32.2380   46.4160 C   0  0  0  0  0  0  0  0  0  0  0  0
   58.5790   32.0810   45.1680 C   0  0  0  0  0  0  0  0  0  0  0  0
   57.8210   30.9490   44.8790 C   0  0  0  0  0  0  0  0  0  0  0  0
   57.6830   29.9300   45.8300 C   0  0  0  0  0  0  0  0  0  0  0  0
   56.9170   28.7820   45.5810 O   0  0  0  0  0  0  0  0  0  0  0  0
   57.3830   27.4600   45.6580 C   0  0  0  0  0  0  0  0  0  0  0  0
   58.7530   27.1530   45.5760 C   0  0  0  0  0  0  0  0  0  0  0  0
   59.1850   25.8270   45.6710 C   0  0  0  0  0  0  0  0  0  0  0  0
   58.2590   24.7920   45.8700 C   0  0  0  0  0  0  0  0  0  0  0  0
   58.7210   23.3620   45.9310 C   0  0  0  0  0  0  0  0  0  0  0  0
   57.8570   22.5000   45.0510 C   0  0  0  0  0  0  0  0  0  0  0  0
   57.5090   22.9300   43.7600 C   0  0  0  0  0  0  0  0  0  0  0  0
   56.7340   22.1120   42.9300 C   0  0  0  0  0  0  0  0  0  0  0  0
   56.3110   20.8590   43.3800 C   0  0  0  0  0  0  0  0  0  0  0  0
   56.6640   20.4190   44.6590 C   0  0  0  0  0  0  0  0  0  0  0  0
   57.4370   21.2330   45.4910 C   0  0  0  0  0  0  0  0  0  0  0  0
   56.8930   25.1010   45.9610 C   0  0  0  0  0  0  0  0  0  0  0  0
   56.4590   26.4270   45.8650 C   0  0  0  0  0  0  0  0  0  0  0  0
   55.1030   26.7150   45.9680 O   0  0  0  0  0  0  0  0  0  0  0  0
   58.2810   30.0810   47.0800 C   0  0  0  0  0  0  0  0  0  0  0  0
   59.0460   31.2130   47.3910 C   0  0  0  0  0  0  0  0  0  0  0  0
   59.5980   31.2550   48.6700 O   0  0  0  0  0  0  0  0  0  0  0  0
   60.0560   34.0130   48.1060 C   0  0  1  0  0  0  0  0  0  0  0  0
   58.8590   33.6790   48.7640 O   0  0  0  0  0  0  0  0  0  0  0  0
   61.2630   33.4530   48.8820 C   0  0  2  0  0  0  0  0  0  0  0  0
   61.3040   34.0460   50.1580 O   0  0  0  0  0  0  0  0  0  0  0  0
   63.7411   33.8288   49.8776 H   0  0  0  0  0  0  0  0  0  0  0  0
   64.6519   33.9380   48.2077 H   0  0  0  0  0  0  0  0  0  0  0  0
   59.4292   34.3125   46.1110 H   0  0  0  0  0  0  0  0  0  0  0  0
   58.6798   32.8697   44.4079 H   0  0  0  0  0  0  0  0  0  0  0  0
   57.3287   30.8548   43.8999 H   0  0  0  0  0  0  0  0  0  0  0  0
   59.4877   27.9597   45.4365 H   0  0  0  0  0  0  0  0  0  0  0  0
   60.2569   25.5937   45.5893 H   0  0  0  0  0  0  0  0  0  0  0  0
   59.7642   23.3020   45.5872 H   0  0  0  0  0  0  0  0  0  0  0  0
   58.6470   23.0043   46.9686 H   0  0  0  0  0  0  0  0  0  0  0  0
   57.8467   23.9130   43.4001 H   0  0  0  0  0  0  0  0  0  0  0  0
   56.4577   22.4560   41.9224 H   0  0  0  0  0  0  0  0  0  0  0  0
   55.6998   20.2182   42.7275 H   0  0  0  0  0  0  0  0  0  0  0  0
   56.3329   19.4308   45.0109 H   0  0  0  0  0  0  0  0  0  0  0  0
   57.7180   20.8807   46.4945 H   0  0  0  0  0  0  0  0  0  0  0  0
   56.1591   24.2951   46.1088 H   0  0  0  0  0  0  0  0  0  0  0  0
   58.1496   29.2950   47.8382 H   0  0  0  0  0  0  0  0  0  0  0  0
   59.1510   31.6550   49.4740 H   0  0  0  0  0  0  0  0  0  0  0  0
   60.1744   35.1063   48.0807 H   0  0  0  0  0  0  0  0  0  0  0  0
   59.1040   33.1820   49.5890 H   0  0  0  0  0  0  0  0  0  0  0  0
   61.1601   32.3626   48.9845 H   0  0  0  0  0  0  0  0  0  0  0  0
   60.3730   34.2960   50.3930 H   0  0  0  0  0  0  0  0  0  0  0  0
  1  2  2  0
  2  3  1  0
  3  4  2  0
  3  5  1  0
  5  6  1  0
  6  7  1  0
  7  8  2  0
  8  9  1  0
  9 10  2  0
 10 11  1  0
 11 12  1  0
 12 13  2  0
 13 14  1  0
 14 15  2  0
 15 16  1  0
 16 17  1  0
 17 18  2  0
 18 19  1  0
 19 20  2  0
 20 21  1  0
 21 22  2  0
 15 23  1  0
 23 24  2  0
 24 25  1  0
 10 26  1  0
 26 27  2  0
 27 28  1  0
  6 29  1  0
 29 30  1  0
 29 31  1  0
 31 32  1  0
 31  2  1  0
 27  7  1  0
 24 12  1  0
 22 17  1  0
  1 33  1  0
  1 34  1  0
  6 35  1  6
  8 36  1  0
  9 37  1  0
 13 38  1  0
 14 39  1  0
 16 40  1  0
 16 41  1  0
 18 42  1  0
 19 43  1  0
 20 44  1  0
 21 45  1  0
 22 46  1  0
 23 47  1  0
 26 48  1  0
 28 49  1  0
 29 50  1  6
 30 51  1  0
 31 52  1  1
 32 53  1  0
M  CHG  1  25  -1
M  END
>  <UniqueID>  (40) 
38

>  <SMILES>  (40) 
C=C1C(=O)O[C@@H](c2ccc(Oc3ccc(Cc4ccccc4)cc3[O-])cc2O)[C@@H](O)C1O

>  <Energy>  (40) 
75.03517125123103

>  <Genealogy>  (40) 
C=C1C(=O)OC(c2ccc(Oc3ccc(Cc4ccccc4)cc3[O-])cc2O)C(O)C1O (protonated)
C=C1C(=O)O[C@@H](c2ccc(Oc3ccc(Cc4ccccc4)cc3[O-])cc2O)[C@@H](O)C1O (chirality)
C=C1C(=O)O[C@@H](c2ccc(Oc3ccc(Cc4ccccc4)cc3[O-])cc2O)[C@@H](O)C1O (3D coordinates assigned)
C=C1C(=O)O[C@@H](c2ccc(Oc3ccc(Cc4ccccc4)cc3[O-])cc2O)[C@@H](O)C1O (nonaromatic ring conformer: 75.03517125123103 kcal/mol)

>  <smiles>  (40) 
C=C1C(=O)OC(c2ccc(Oc3ccc(Cc4ccccc4)cc3O)cc2O)C(O)C1O

>  <score_type>  (40) 
oracle

>  <origin>  (40) 
adg

>  <m_score__min__energy>  (40) 
-11.359999999999999

>  <m_primary>  (40) 
energy

$$$$
40:0
     RDKit          3D

 50 53  0  0  0  0  0  0  0  0999 V2000
   57.9210   25.2090   47.5530 C   0  0  0  0  0  0  0  0  0  0  0  0
   58.2820   25.9520   46.4940 C   0  0  0  0  0  0  0  0  0  0  0  0
   57.8730   25.7520   45.1700 C   0  0  0  0  0  0  0  0  0  0  0  0
   57.1170   24.7410   44.6940 C   0  0  0  0  0  0  0  0  0  0  0  0
   55.7040   24.5060   45.0640 C   0  0  0  0  0  0  0  0  0  0  0  0
   55.0220   23.3730   44.8180 N   0  0  0  0  0  0  0  0  0  0  0  0
   53.7760   23.6520   45.2540 C   0  0  0  0  0  0  0  0  0  0  0  0
   52.8340   22.8190   45.1990 O   0  0  0  0  0  0  0  0  0  0  0  0
   53.6170   24.8960   45.7510 N   0  0  0  0  0  0  0  0  0  0  0  0
   54.8430   25.4290   45.6200 C   0  0  0  0  0  0  0  0  0  0  0  0
   55.1560   26.7280   46.0120 O   0  0  0  0  0  0  0  0  0  0  0  0
   58.4290   26.7870   44.4330 C   0  0  0  0  0  0  0  0  0  0  0  0
   59.1610   27.5540   45.3150 C   0  0  0  0  0  0  0  0  0  0  0  0
   59.9070   28.7950   44.9270 C   0  0  0  0  0  0  0  0  0  0  0  0
   59.0760   27.0520   46.5700 N   0  0  0  0  0  0  0  0  0  0  0  0
   59.7370   27.6020   47.7680 C   0  0  0  0  0  0  0  0  0  0  0  0
   58.9000   28.7040   48.4350 C   0  0  0  0  0  0  0  0  0  0  0  0
   59.6290   30.0090   48.5040 C   0  0  0  0  0  0  0  0  0  0  0  0
   60.8890   30.0290   48.4510 O   0  0  0  0  0  0  0  0  0  0  0  0
   58.8870   31.2260   48.6260 N   0  0  0  0  0  0  0  0  0  0  0  0
   59.0260   32.3550   47.7170 C   0  0  0  0  0  0  0  0  0  0  0  0
   58.5260   31.9790   46.3590 C   0  0  0  0  0  0  0  0  0  0  0  0
   58.6800   32.7450   45.2060 C   0  0  0  0  0  0  0  0  0  0  0  0
   58.0180   32.0410   44.2240 C   0  0  0  0  0  0  0  0  0  0  0  0
   57.8210   32.3320   42.8770 C   0  0  0  0  0  0  0  0  0  0  0  0
   57.0720   31.4190   42.1120 C   0  0  0  0  0  0  0  0  0  0  0  0
   56.5440   30.2510   42.7060 C   0  0  0  0  0  0  0  0  0  0  0  0
   56.7560   29.9880   44.0720 C   0  0  0  0  0  0  0  0  0  0  0  0
   57.4990   30.9120   44.8040 C   0  0  0  0  0  0  0  0  0  0  0  0
   57.7960   30.8650   46.1130 N   0  0  0  0  0  0  0  0  0  0  0  0
   58.3034   25.4562   48.5543 H   0  0  0  0  0  0  0  0  0  0  0  0
   57.2429   24.3533   47.4190 H   0  0  0  0  0  0  0  0  0  0  0  0
   57.5831   24.0438   43.9822 H   0  0  0  0  0  0  0  0  0  0  0  0
   55.1300   27.5020   45.3600 H   0  0  0  0  0  0  0  0  0  0  0  0
   58.3093   26.9622   43.3537 H   0  0  0  0  0  0  0  0  0  0  0  0
   60.2278   29.3286   45.8338 H   0  0  0  0  0  0  0  0  0  0  0  0
   60.7901   28.5208   44.3312 H   0  0  0  0  0  0  0  0  0  0  0  0
   59.2506   29.4462   44.3312 H   0  0  0  0  0  0  0  0  0  0  0  0
   59.8937   26.7885   48.4917 H   0  0  0  0  0  0  0  0  0  0  0  0
   60.6930   28.0461   47.4537 H   0  0  0  0  0  0  0  0  0  0  0  0
   57.9757   28.8455   47.8556 H   0  0  0  0  0  0  0  0  0  0  0  0
   58.6840   28.3848   49.4653 H   0  0  0  0  0  0  0  0  0  0  0  0
   58.4411   33.2048   48.0987 H   0  0  0  0  0  0  0  0  0  0  0  0
   60.0873   32.6356   47.6474 H   0  0  0  0  0  0  0  0  0  0  0  0
   59.2130   33.7017   45.1022 H   0  0  0  0  0  0  0  0  0  0  0  0
   58.2369   33.2450   42.4259 H   0  0  0  0  0  0  0  0  0  0  0  0
   56.8964   31.6160   41.0441 H   0  0  0  0  0  0  0  0  0  0  0  0
   55.9634   29.5426   42.0968 H   0  0  0  0  0  0  0  0  0  0  0  0
   56.3487   29.0829   44.5463 H   0  0  0  0  0  0  0  0  0  0  0  0
   57.5110   30.1320   46.7980 H   0  0  0  0  0  0  0  0  0  0  0  0
  1  2  2  0
  2  3  1  0
  3  4  2  3
  4  5  1  0
  5  6  1  0
  6  7  1  0
  7  8  2  0
  7  9  1  0
  9 10  1  0
 10 11  1  0
  3 12  1  0
 12 13  2  0
 13 14  1  0
 13 15  1  0
 15 16  1  0
 16 17  1  0
 17 18  1  0
 18 19  2  0
 18 20  1  0
 20 21  1  0
 21 22  1  0
 22 23  2  0
 23 24  1  0
 24 25  2  0
 25 26  1  0
 26 27  2  0
 27 28  1  0
 28 29  2  0
 29 30  1  0
 15  2  1  0
 30 22  1  0
 10  5  2  0
 29 24  1  0
  1 31  1  0
  1 32  1  0
  4 33  1  0
 11 34  1  0
 12 35  1  0
 14 36  1  0
 14 37  1  0
 14 38  1  0
 16 39  1  0
 16 40  1  0
 17 41  1  0
 17 42  1  0
 21 43  1  0
 21 44  1  0
 23 45  1  0
 25 46  1  0
 26 47  1  0
 27 48  1  0
 28 49  1  0
 30 50  1  0
M  CHG  3   6  -1   9  -1  20  -1
M  END
>  <UniqueID>  (41) 
39

>  <SMILES>  (41) 
C=c1c(=Cc2[n-]c(=O)[n-]c2O)cc(C)n1CCC(=O)[N-]Cc1cc2ccccc2[nH]1

>  <Energy>  (41) 
133.87632073511142

>  <Genealogy>  (41) 
C=c1c(=Cc2[n-]c(=O)[n-]c2O)cc(C)n1CCC(=O)[N-]Cc1cc2ccccc2[nH]1 (protonated)
C=c1c(=Cc2[n-]c(=O)[n-]c2O)cc(C)n1CCC(=O)[N-]Cc1cc2ccccc2[nH]1 (3D coordinates assigned)
C=c1c(=Cc2[n-]c(=O)[n-]c2O)cc(C)n1CCC(=O)[N-]Cc1cc2ccccc2[nH]1 (optimized conformer: 133.87632073511142 kcal/mol)

>  <smiles>  (41) 
C=c1c(=Cc2[nH]c(=O)[nH]c2O)cc(C)n1CCC(=O)NCc1cc2ccccc2[nH]1

>  <score_type>  (41) 
oracle

>  <origin>  (41) 
adg

>  <m_score__min__energy>  (41) 
-15.609999999999999

>  <m_primary>  (41) 
energy

$$$$
41:0
     RDKit          3D

 48 50  0  0  0  0  0  0  0  0999 V2000
   63.7493   33.3540   50.5276 H   0  0  0  0  0  0  0  0  0  0  0  0
   63.3420   33.4470   49.5100 C   0  0  0  0  0  0  0  0  0  0  0  0
   62.1280   34.0250   49.3150 N   0  0  0  0  0  0  0  0  0  0  0  0
   61.5800   34.1690   48.0770 C   0  0  0  0  0  0  0  0  0  0  0  0
   60.4070   34.7290   47.9790 N   0  0  0  0  0  0  0  0  0  0  0  0
   59.6550   34.9580   46.7760 C   0  0  0  0  0  0  0  0  0  0  0  0
   59.6530   36.1160   46.2790 O   0  0  0  0  0  0  0  0  0  0  0  0
   58.9520   33.8570   46.0710 C   0  0  0  0  0  0  0  0  0  0  0  0
   58.7910   32.6080   46.6930 C   0  0  0  0  0  0  0  0  0  0  0  0
   59.1857   32.4485   47.7073 H   0  0  0  0  0  0  0  0  0  0  0  0
   58.1330   31.5660   46.0330 C   0  0  0  0  0  0  0  0  0  0  0  0
   58.0103   30.5945   46.5341 H   0  0  0  0  0  0  0  0  0  0  0  0
   57.6270   31.7490   44.7350 C   0  0  0  0  0  0  0  0  0  0  0  0
   56.9230   30.6360   44.0530 C   0  0  0  0  0  0  0  0  0  0  0  0
   56.4590   30.8270   42.8960 O   0  0  0  0  0  0  0  0  0  0  0  0
   56.7180   29.3200   44.6940 C   0  0  0  0  0  0  0  0  0  0  0  0
   55.5480   28.8810   44.8680 O   0  0  0  0  0  0  0  0  0  0  0  0
   57.8510   28.5440   45.1210 N   0  0  0  0  0  0  0  0  0  0  0  0
   58.7620   29.0390   45.2500 H   0  0  0  0  0  0  0  0  0  0  0  0
   57.7770   27.1610   45.5090 C   0  0  0  0  0  0  0  0  0  0  0  0
   58.9340   26.3770   45.6440 C   0  0  0  0  0  0  0  0  0  0  0  0
   59.9201   26.8166   45.4333 H   0  0  0  0  0  0  0  0  0  0  0  0
   58.8400   25.0430   46.0440 C   0  0  0  0  0  0  0  0  0  0  0  0
   59.7519   24.4345   46.1347 H   0  0  0  0  0  0  0  0  0  0  0  0
   57.5870   24.4710   46.3320 C   0  0  0  0  0  0  0  0  0  0  0  0
   57.4530   23.1330   46.7350 O   0  0  0  0  0  0  0  0  0  0  0  0
   57.4010   22.0240   45.8430 C   0  0  0  0  0  0  0  0  0  0  0  0
   57.3572   21.0896   46.4218 H   0  0  0  0  0  0  0  0  0  0  0  0
   56.5057   22.1050   45.2091 H   0  0  0  0  0  0  0  0  0  0  0  0
   58.3000   22.0208   45.2091 H   0  0  0  0  0  0  0  0  0  0  0  0
   56.4270   25.2530   46.2220 C   0  0  0  0  0  0  0  0  0  0  0  0
   55.1920   24.6590   46.5230 O   0  0  0  0  0  0  0  0  0  0  0  0
   54.3240   24.0670   45.5630 C   0  0  0  0  0  0  0  0  0  0  0  0
   53.5224   23.5203   46.0813 H   0  0  0  0  0  0  0  0  0  0  0  0
   53.8833   24.8536   44.9329 H   0  0  0  0  0  0  0  0  0  0  0  0
   54.8954   23.3696   44.9329 H   0  0  0  0  0  0  0  0  0  0  0  0
   56.5310   26.5990   45.8180 C   0  0  0  0  0  0  0  0  0  0  0  0
   55.6233   27.2159   45.7443 H   0  0  0  0  0  0  0  0  0  0  0  0
   57.7640   33.0080   44.1240 C   0  0  0  0  0  0  0  0  0  0  0  0
   57.3509   33.1746   43.1182 H   0  0  0  0  0  0  0  0  0  0  0  0
   58.4210   34.0490   44.7850 C   0  0  0  0  0  0  0  0  0  0  0  0
   58.5233   35.0279   44.2937 H   0  0  0  0  0  0  0  0  0  0  0  0
   62.2860   33.6810   46.9550 C   0  0  0  0  0  0  0  0  0  0  0  0
   61.8545   33.7673   45.9469 H   0  0  0  0  0  0  0  0  0  0  0  0
   63.5370   33.0880   47.1380 C   0  0  0  0  0  0  0  0  0  0  0  0
   64.0998   32.7130   46.2705 H   0  0  0  0  0  0  0  0  0  0  0  0
   64.0730   32.9710   48.4200 C   0  0  0  0  0  0  0  0  0  0  0  0
   65.0599   32.5092   48.5706 H   0  0  0  0  0  0  0  0  0  0  0  0
  1  2  1  0
  2  3  1  0
  3  4  1  0
  4  5  2  0
  5  6  1  0
  6  7  2  0
  6  8  1  0
  8  9  2  0
  9 10  1  0
  9 11  1  0
 11 12  1  0
 11 13  2  0
 13 14  1  0
 14 15  2  0
 14 16  1  0
 16 17  2  0
 16 18  1  0
 18 19  1  0
 18 20  1  0
 20 21  2  0
 21 22  1  0
 21 23  1  0
 23 24  1  0
 23 25  2  0
 25 26  1  0
 26 27  1  0
 27 28  1  0
 27 29  1  0
 27 30  1  0
 25 31  1  0
 31 32  1  0
 32 33  1  0
 33 34  1  0
 33 35  1  0
 33 36  1  0
 31 37  2  0
 37 38  1  0
 13 39  1  0
 39 40  1  0
 39 41  2  0
 41 42  1  0
  4 43  1  0
 43 44  1  0
 43 45  2  0
 45 46  1  0
 45 47  1  0
 47 48  1  0
 47  2  2  0
 41  8  1  0
 37 20  1  0
M  CHG  1   3  -1
M  END
>  <UniqueID>  (42) 
40

>  <SMILES>  (42) 
COc1ccc(NC(=O)C(=O)c2ccc(C(=O)/N=c3\cccc[n-]3)cc2)cc1OC

>  <Energy>  (42) 
68.35512880228464

>  <Genealogy>  (42) 
COc1ccc(NC(=O)C(=O)c2ccc(C(=O)N=c3cccc[n-]3)cc2)cc1OC (protonated)
COc1ccc(NC(=O)C(=O)c2ccc(C(=O)/N=c3\cccc[n-]3)cc2)cc1OC (cis-trans isomerization)
COc1ccc(NC(=O)C(=O)c2ccc(C(=O)/N=c3\cccc[n-]3)cc2)cc1OC (3D coordinates assigned)
COc1ccc(NC(=O)C(=O)c2ccc(C(=O)/N=c3\cccc[n-]3)cc2)cc1OC (optimized conformer: 68.35512880228464 kcal/mol)

>  <smiles>  (42) 
COc1ccc(NC(=O)C(=O)c2ccc(C(=O)N=c3cccc[nH]3)cc2)cc1OC

>  <score_type>  (42) 
oracle

>  <origin>  (42) 
adg

>  <m_score__min__energy>  (42) 
-10.19

>  <m_primary>  (42) 
energy

$$$$
42:0
     RDKit          3D

 45 47  0  0  0  0  0  0  0  0999 V2000
   60.3580   28.3490   46.8950 C   0  0  0  0  0  0  0  0  0  0  0  0
   59.1640   28.7040   46.0590 C   0  0  0  0  0  0  0  0  0  0  0  0
   58.0580   27.8480   46.0100 C   0  0  0  0  0  0  0  0  0  0  0  0
   56.9300   28.1950   45.2670 C   0  0  0  0  0  0  0  0  0  0  0  0
   56.8810   29.4090   44.5610 C   0  0  0  0  0  0  0  0  0  0  0  0
   55.6370   29.7460   43.7800 C   0  0  0  0  0  0  0  0  0  0  0  0
   57.9950   30.2860   44.6110 C   0  0  0  0  0  0  0  0  0  0  0  0
   58.0250   31.6160   43.8910 C   0  0  0  0  0  0  0  0  0  0  0  0
   57.0510   32.5020   44.4390 O   0  0  0  0  0  0  0  0  0  0  0  0
   57.3780   33.6130   45.2260 C   0  0  0  0  0  0  0  0  0  0  0  0
   56.6220   34.6250   45.2360 O   0  0  0  0  0  0  0  0  0  0  0  0
   58.6100   33.6000   46.0440 C   0  0  0  0  0  0  0  0  0  0  0  0
   58.6220   32.9650   47.2970 C   0  0  0  0  0  0  0  0  0  0  0  0
   59.7850   32.9450   48.0720 C   0  0  0  0  0  0  0  0  0  0  0  0
   60.9640   33.5510   47.6070 C   0  0  0  0  0  0  0  0  0  0  0  0
   62.1630   33.5440   48.4070 N   0  0  0  0  0  0  0  0  0  0  0  0
   62.2770   34.1310   49.7330 C   0  0  0  0  0  0  0  0  0  0  0  0
   63.6420   33.6810   50.2840 C   0  0  0  0  0  0  0  0  0  0  0  0
   64.4290   33.0880   49.1070 C   0  0  0  0  0  0  0  0  0  0  0  0
   63.4170   32.9940   48.0370 C   0  0  0  0  0  0  0  0  0  0  0  0
   63.6640   32.5370   46.8890 O   0  0  0  0  0  0  0  0  0  0  0  0
   60.9480   34.1980   46.3590 C   0  0  0  0  0  0  0  0  0  0  0  0
   59.7850   34.2180   45.5840 C   0  0  0  0  0  0  0  0  0  0  0  0
   59.1180   29.9260   45.3760 C   0  0  0  0  0  0  0  0  0  0  0  0
   60.0959   28.4269   47.9605 H   0  0  0  0  0  0  0  0  0  0  0  0
   60.6709   27.3190   46.6688 H   0  0  0  0  0  0  0  0  0  0  0  0
   61.1828   29.0408   46.6688 H   0  0  0  0  0  0  0  0  0  0  0  0
   58.0785   26.8960   46.5607 H   0  0  0  0  0  0  0  0  0  0  0  0
   56.0692   27.5109   45.2332 H   0  0  0  0  0  0  0  0  0  0  0  0
   54.8156   29.9685   44.4769 H   0  0  0  0  0  0  0  0  0  0  0  0
   55.8286   30.6246   43.1465 H   0  0  0  0  0  0  0  0  0  0  0  0
   55.3589   28.8908   43.1465 H   0  0  0  0  0  0  0  0  0  0  0  0
   59.0238   32.0640   43.9994 H   0  0  0  0  0  0  0  0  0  0  0  0
   57.7974   31.4504   42.8276 H   0  0  0  0  0  0  0  0  0  0  0  0
   57.7086   32.4795   47.6713 H   0  0  0  0  0  0  0  0  0  0  0  0
   59.7770   32.4505   49.0545 H   0  0  0  0  0  0  0  0  0  0  0  0
   62.2340   35.2283   49.6696 H   0  0  0  0  0  0  0  0  0  0  0  0
   61.4537   33.8082   50.3872 H   0  0  0  0  0  0  0  0  0  0  0  0
   64.1823   34.5423   50.7037 H   0  0  0  0  0  0  0  0  0  0  0  0
   63.5158   32.9380   51.0853 H   0  0  0  0  0  0  0  0  0  0  0  0
   65.2553   33.7511   48.8111 H   0  0  0  0  0  0  0  0  0  0  0  0
   64.8964   32.1210   49.3445 H   0  0  0  0  0  0  0  0  0  0  0  0
   61.8583   34.6926   45.9894 H   0  0  0  0  0  0  0  0  0  0  0  0
   59.7897   34.7216   44.6061 H   0  0  0  0  0  0  0  0  0  0  0  0
   59.9736   30.6144   45.4392 H   0  0  0  0  0  0  0  0  0  0  0  0
  1  2  1  0
  2  3  2  0
  3  4  1  0
  4  5  2  0
  5  6  1  0
  5  7  1  0
  7  8  1  0
  8  9  1  0
  9 10  1  0
 10 11  2  0
 10 12  1  0
 12 13  2  0
 13 14  1  0
 14 15  2  0
 15 16  1  0
 16 17  1  0
 17 18  1  0
 18 19  1  0
 19 20  1  0
 20 21  2  0
 15 22  1  0
 22 23  2  0
  7 24  2  0
 24  2  1  0
 23 12  1  0
 20 16  1  0
  1 25  1  0
  1 26  1  0
  1 27  1  0
  3 28  1  0
  4 29  1  0
  6 30  1  0
  6 31  1  0
  6 32  1  0
  8 33  1  0
  8 34  1  0
 13 35  1  0
 14 36  1  0
 17 37  1  0
 17 38  1  0
 18 39  1  0
 18 40  1  0
 19 41  1  0
 19 42  1  0
 22 43  1  0
 23 44  1  0
 24 45  1  0
M  END
>  <UniqueID>  (43) 
41

>  <SMILES>  (43) 
Cc1ccc(C)c(COC(=O)c2ccc(N3CCCC3=O)cc2)c1

>  <Energy>  (43) 
56.14502626882102

>  <Genealogy>  (43) 
Cc1ccc(C)c(COC(=O)c2ccc(N3CCCC3=O)cc2)c1 (3D coordinates assigned)
Cc1ccc(C)c(COC(=O)c2ccc(N3CCCC3=O)cc2)c1 (nonaromatic ring conformer: 56.14502626882102 kcal/mol)

>  <smiles>  (43) 
Cc1ccc(C)c(COC(=O)c2ccc(N3CCCC3=O)cc2)c1

>  <score_type>  (43) 
oracle

>  <origin>  (43) 
adg

>  <m_score__min__energy>  (43) 
-8.2799999999999994

>  <m_primary>  (43) 
energy

$$$$
43:0
     RDKit          3D

 51 54  0  0  0  0  0  0  0  0999 V2000
   55.3440   26.3050   46.0590 N   0  0  0  0  0  0  0  0  0  0  0  0
   56.4270   26.7070   46.1450 C   0  0  0  0  0  0  0  0  0  0  0  0
   57.7750   27.2070   46.2510 C   0  0  0  0  0  0  0  0  0  0  0  0
   58.6280   26.6680   47.2240 C   0  0  0  0  0  0  0  0  0  0  0  0
   59.9390   27.1360   47.3440 C   0  0  0  0  0  0  0  0  0  0  0  0
   60.3990   28.1530   46.5070 C   0  0  0  0  0  0  0  0  0  0  0  0
   59.5560   28.6980   45.5330 C   0  0  0  0  0  0  0  0  0  0  0  0
   60.0070   29.7350   44.7840 F   0  0  0  0  0  0  0  0  0  0  0  0
   58.2410   28.2110   45.3800 C   0  0  0  0  0  0  0  0  0  0  0  0
   57.3530   28.7620   44.3960 N   0  0  0  0  0  0  0  0  0  0  0  0
   56.3420   29.7410   44.6520 C   0  0  0  0  0  0  0  0  0  0  0  0
   55.1590   29.3590   44.8530 O   0  0  0  0  0  0  0  0  0  0  0  0
   56.6540   31.1380   44.5740 N   0  0  0  0  0  0  0  0  0  0  0  0
   57.5240   31.8740   45.4470 C   0  0  0  0  0  0  0  0  0  0  0  0
   57.9710   33.1720   45.1360 C   0  0  0  0  0  0  0  0  0  0  0  0
   58.8080   33.8560   46.0210 C   0  0  0  0  0  0  0  0  0  0  0  0
   59.1870   33.2660   47.2290 C   0  0  0  0  0  0  0  0  0  0  0  0
   58.7130   31.9950   47.5740 C   0  0  0  0  0  0  0  0  0  0  0  0
   59.1140   31.4350   48.7950 O   0  0  0  0  0  0  0  0  0  0  0  0
   58.4720   31.6260   50.0270 C   0  0  0  0  0  0  0  0  0  0  0  0
   58.5550   32.8390   50.7270 C   0  0  0  0  0  0  0  0  0  0  0  0
   57.8990   32.9480   51.9510 C   0  0  0  0  0  0  0  0  0  0  0  0
   57.2150   31.8870   52.4500 N   0  0  0  0  0  0  0  0  0  0  0  0
   57.1640   30.7030   51.7780 C   0  0  0  0  0  0  0  0  0  0  0  0
   56.4960   29.6890   52.2450 N   0  0  0  0  0  0  0  0  0  0  0  0
   55.0660   29.5530   52.3090 C   0  0  0  0  0  0  0  0  0  0  0  0
   54.5220   28.5170   53.0780 C   0  0  0  0  0  0  0  0  0  0  0  0
   53.1370   28.3660   53.1830 C   0  0  0  0  0  0  0  0  0  0  0  0
   52.2820   29.2620   52.5390 C   0  0  0  0  0  0  0  0  0  0  0  0
   52.8100   30.3280   51.7980 C   0  0  0  0  0  0  0  0  0  0  0  0
   51.7430   31.4750   50.9930 S   0  0  0  0  0  0  0  0  0  0  0  0
   50.4730   31.9330   52.0710 N   0  0  0  0  0  0  0  0  0  0  0  0
   51.1580   30.8420   49.7620 O   0  0  0  0  0  0  0  0  0  0  0  0
   52.5140   32.6990   50.5860 O   0  0  0  0  0  0  0  0  0  0  0  0
   54.2000   30.4750   51.6880 C   0  0  0  0  0  0  0  0  0  0  0  0
   57.7880   30.5880   50.5770 N   0  0  0  0  0  0  0  0  0  0  0  0
   57.8890   31.2990   46.6700 C   0  0  0  0  0  0  0  0  0  0  0  0
   58.2646   25.8751   47.8943 H   0  0  0  0  0  0  0  0  0  0  0  0
   60.6098   26.7017   48.0999 H   0  0  0  0  0  0  0  0  0  0  0  0
   61.4278   28.5274   46.6134 H   0  0  0  0  0  0  0  0  0  0  0  0
   57.6607   33.6486   44.1944 H   0  0  0  0  0  0  0  0  0  0  0  0
   59.1699   34.8629   45.7656 H   0  0  0  0  0  0  0  0  0  0  0  0
   59.8613   33.8028   47.9125 H   0  0  0  0  0  0  0  0  0  0  0  0
   59.1258   33.6857   50.3181 H   0  0  0  0  0  0  0  0  0  0  0  0
   57.9352   33.8931   52.5127 H   0  0  0  0  0  0  0  0  0  0  0  0
   55.1893   27.8175   53.6028 H   0  0  0  0  0  0  0  0  0  0  0  0
   52.7190   27.5385   53.7750 H   0  0  0  0  0  0  0  0  0  0  0  0
   51.1923   29.1312   52.6132 H   0  0  0  0  0  0  0  0  0  0  0  0
   49.9610   32.7240   51.6200 H   0  0  0  0  0  0  0  0  0  0  0  0
   54.6171   31.3152   51.1134 H   0  0  0  0  0  0  0  0  0  0  0  0
   57.5279   30.2923   46.9272 H   0  0  0  0  0  0  0  0  0  0  0  0
  1  2  3  0
  2  3  1  0
  3  4  2  0
  4  5  1  0
  5  6  2  0
  6  7  1  0
  7  8  1  0
  7  9  2  0
  9 10  1  0
 10 11  1  0
 11 12  2  0
 11 13  1  0
 13 14  1  0
 14 15  2  0
 15 16  1  0
 16 17  2  0
 17 18  1  0
 18 19  1  0
 19 20  1  0
 20 21  1  0
 21 22  2  0
 22 23  1  0
 23 24  1  0
 24 25  2  3
 25 26  1  0
 26 27  2  0
 27 28  1  0
 28 29  2  0
 29 30  1  0
 30 31  1  0
 31 32  1  0
 31 33  2  0
 31 34  2  0
 30 35  2  0
 24 36  1  0
 18 37  2  0
  9  3  1  0
 37 14  1  0
 36 20  2  0
 35 26  1  0
  4 38  1  0
  5 39  1  0
  6 40  1  0
 15 41  1  0
 16 42  1  0
 17 43  1  0
 21 44  1  0
 22 45  1  0
 27 46  1  0
 28 47  1  0
 29 48  1  0
 32 49  1  0
 35 50  1  0
 37 51  1  0
M  CHG  4  10  -1  13  -1  23  -1  32  -1
M  END
>  <UniqueID>  (44) 
42

>  <SMILES>  (44) 
N#Cc1cccc(F)c1[N-]C(=O)[N-]c1cccc(Oc2cc[n-]c(=Nc3cccc(S([NH-])(=O)=O)c3)n2)c1

>  <Energy>  (44) 
77.72330460366423

>  <Genealogy>  (44) 
N#Cc1cccc(F)c1[N-]C(=O)[N-]c1cccc(Oc2cc[n-]c(=Nc3cccc(S([NH-])(=O)=O)c3)n2)c1 (protonated)
N#Cc1cccc(F)c1[N-]C(=O)[N-]c1cccc(Oc2cc[n-]c(=Nc3cccc(S([NH-])(=O)=O)c3)n2)c1 (3D coordinates assigned)
N#Cc1cccc(F)c1[N-]C(=O)[N-]c1cccc(Oc2cc[n-]c(=Nc3cccc(S([NH-])(=O)=O)c3)n2)c1 (optimized conformer: 77.72330460366423 kcal/mol)

>  <smiles>  (44) 
N#Cc1cccc(F)c1NC(=O)Nc1cccc(Oc2cc[nH]c(=Nc3cccc(S(N)(=O)=O)c3)n2)c1

>  <score_type>  (44) 
oracle

>  <origin>  (44) 
adg

>  <m_score__min__energy>  (44) 
-17.489999999999998

>  <m_primary>  (44) 
energy

$$$$
44:0
     RDKit          3D

 55 57  0  0  0  0  0  0  0  0999 V2000
   60.6760   30.6300   48.0660 C   0  0  0  0  0  0  0  0  0  0  0  0
   59.3120   30.2650   48.6420 C   0  0  0  0  0  0  0  0  0  0  0  0
   58.5060   31.4310   48.8020 O   0  0  0  0  0  0  0  0  0  0  0  0
   58.9140   32.7130   48.4110 C   0  0  0  0  0  0  0  0  0  0  0  0
   59.3490   33.5280   49.2710 O   0  0  0  0  0  0  0  0  0  0  0  0
   58.8260   33.1120   46.9890 C   0  0  0  0  0  0  0  0  0  0  0  0
   59.1170   34.4300   46.5940 C   0  0  0  0  0  0  0  0  0  0  0  0
   59.0260   34.8010   45.2510 C   0  0  0  0  0  0  0  0  0  0  0  0
   58.6470   33.8650   44.2870 C   0  0  0  0  0  0  0  0  0  0  0  0
   58.3630   32.5420   44.6590 C   0  0  0  0  0  0  0  0  0  0  0  0
   57.9190   31.5400   43.6270 C   0  0  0  0  0  0  0  0  0  0  0  0
   57.4480   30.2740   44.2950 C   0  0  0  0  0  0  0  0  0  0  0  0
   58.3760   29.3330   44.7610 C   0  0  0  0  0  0  0  0  0  0  0  0
   57.9500   28.2100   45.3940 N   0  0  0  0  0  0  0  0  0  0  0  0
   56.6290   27.9720   45.5970 C   0  0  0  0  0  0  0  0  0  0  0  0
   56.2670   26.8810   46.2090 N   0  0  0  0  0  0  0  0  0  0  0  0
   56.4310   25.4960   45.7490 C   0  0  2  0  0  0  0  0  0  0  0  0
   57.4530   25.3830   44.6060 C   0  0  0  0  0  0  0  0  0  0  0  0
   57.6890   23.9100   44.2030 C   0  0  0  0  0  0  0  0  0  0  0  0
   56.5500   23.0180   44.5380 N   0  0  2  0  0  0  0  0  0  0  0  0
   56.6050   21.5770   43.5500 S   0  0  0  0  0  0  0  0  0  0  0  0
   58.2930   21.0960   43.2510 C   0  0  0  0  0  0  0  0  0  0  0  0
   55.9210   21.8240   42.2340 O   0  0  0  0  0  0  0  0  0  0  0  0
   55.9070   20.4520   44.2640 O   0  0  0  0  0  0  0  0  0  0  0  0
   55.2500   23.6930   44.3640 C   0  0  0  0  0  0  0  0  0  0  0  0
   55.0790   24.8420   45.3780 C   0  0  0  0  0  0  0  0  0  0  0  0
   55.7110   28.8780   45.1630 N   0  0  0  0  0  0  0  0  0  0  0  0
   56.0850   30.0170   44.5250 C   0  0  0  0  0  0  0  0  0  0  0  0
   55.2020   30.8300   44.1460 O   0  0  0  0  0  0  0  0  0  0  0  0
   58.4460   32.1740   46.0120 C   0  0  0  0  0  0  0  0  0  0  0  0
   61.3824   30.8190   48.8878 H   0  0  0  0  0  0  0  0  0  0  0  0
   61.0469   29.7995   47.4474 H   0  0  0  0  0  0  0  0  0  0  0  0
   60.5826   31.5347   47.4474 H   0  0  0  0  0  0  0  0  0  0  0  0
   58.8062   29.5669   47.9588 H   0  0  0  0  0  0  0  0  0  0  0  0
   59.4568   29.7963   49.6265 H   0  0  0  0  0  0  0  0  0  0  0  0
   59.4180   35.1728   47.3474 H   0  0  0  0  0  0  0  0  0  0  0  0
   59.2538   35.8346   44.9514 H   0  0  0  0  0  0  0  0  0  0  0  0
   58.5707   34.1657   43.2317 H   0  0  0  0  0  0  0  0  0  0  0  0
   57.0945   31.9675   43.0375 H   0  0  0  0  0  0  0  0  0  0  0  0
   58.7689   31.3028   42.9701 H   0  0  0  0  0  0  0  0  0  0  0  0
   59.4525   29.5047   44.6135 H   0  0  0  0  0  0  0  0  0  0  0  0
   56.8381   24.9290   46.5992 H   0  0  0  0  0  0  0  0  0  0  0  0
   57.0763   25.9367   43.7333 H   0  0  0  0  0  0  0  0  0  0  0  0
   58.4082   25.8038   44.9533 H   0  0  0  0  0  0  0  0  0  0  0  0
   57.8571   23.8682   43.1167 H   0  0  0  0  0  0  0  0  0  0  0  0
   58.5599   23.5528   44.7721 H   0  0  0  0  0  0  0  0  0  0  0  0
   56.6390   22.7050   45.5340 H   0  0  0  0  0  0  0  0  0  0  0  0
   58.8081   20.9492   44.2118 H   0  0  0  0  0  0  0  0  0  0  0  0
   58.3107   20.1570   42.6782 H   0  0  0  0  0  0  0  0  0  0  0  0
   58.8030   21.8846   42.6782 H   0  0  0  0  0  0  0  0  0  0  0  0
   55.1916   24.1022   43.3446 H   0  0  0  0  0  0  0  0  0  0  0  0
   54.4498   22.9573   44.5326 H   0  0  0  0  0  0  0  0  0  0  0  0
   54.4230   25.6080   44.9389 H   0  0  0  0  0  0  0  0  0  0  0  0
   54.6425   24.4217   46.2961 H   0  0  0  0  0  0  0  0  0  0  0  0
   58.2114   31.1416   46.3107 H   0  0  0  0  0  0  0  0  0  0  0  0
  1  2  1  0
  2  3  1  0
  3  4  1  0
  4  5  2  0
  4  6  1  0
  6  7  2  0
  7  8  1  0
  8  9  2  0
  9 10  1  0
 10 11  1  0
 11 12  1  0
 12 13  2  0
 13 14  1  0
 14 15  1  0
 15 16  2  3
 16 17  1  0
 17 18  1  0
 18 19  1  0
 19 20  1  0
 20 21  1  0
 21 22  1  0
 21 23  2  0
 21 24  2  0
 20 25  1  0
 25 26  1  0
 15 27  1  0
 27 28  1  0
 28 29  2  0
 10 30  2  0
 30  6  1  0
 28 12  1  0
 26 17  1  0
  1 31  1  0
  1 32  1  0
  1 33  1  0
  2 34  1  0
  2 35  1  0
  7 36  1  0
  8 37  1  0
  9 38  1  0
 11 39  1  0
 11 40  1  0
 13 41  1  0
 17 42  1  1
 18 43  1  0
 18 44  1  0
 19 45  1  0
 19 46  1  0
 20 47  1  1
 22 48  1  0
 22 49  1  0
 22 50  1  0
 25 51  1  0
 25 52  1  0
 26 53  1  0
 26 54  1  0
 30 55  1  0
M  CHG  3  14  -1  20   1  27  -1
M  END
>  <UniqueID>  (45) 
43

>  <SMILES>  (45) 
CCOC(=O)c1cccc(Cc2c[n-]c(=NC3CC[NH+](S(C)(=O)=O)CC3)[n-]c2=O)c1

>  <Energy>  (45) 
54.597590552642636

>  <Genealogy>  (45) 
CCOC(=O)c1cccc(Cc2c[n-]c(=NC3CC[NH+](S(C)(=O)=O)CC3)[n-]c2=O)c1 (protonated)
CCOC(=O)c1cccc(Cc2c[n-]c(=NC3CC[NH+](S(C)(=O)=O)CC3)[n-]c2=O)c1 (3D coordinates assigned)
CCOC(=O)c1cccc(Cc2c[n-]c(=NC3CC[NH+](S(C)(=O)=O)CC3)[n-]c2=O)c1 (nonaromatic ring conformer: 54.597590552642636 kcal/mol)

>  <smiles>  (45) 
CCOC(=O)c1cccc(Cc2c[nH]c(=NC3CCN(S(C)(=O)=O)CC3)[nH]c2=O)c1

>  <score_type>  (45) 
oracle

>  <origin>  (45) 
adg

>  <m_score__min__energy>  (45) 
-11.050000000000001

>  <m_primary>  (45) 
energy

$$$$
45:0
     RDKit          3D

 58 62  0  0  1  0  0  0  0  0999 V2000
   59.7050   35.9470   45.6210 C   0  0  0  0  0  0  0  0  0  0  0  0
   59.1460   34.5990   45.8020 N   0  0  0  0  0  0  0  0  0  0  0  0
   58.6520   33.8100   44.8030 C   0  0  0  0  0  0  0  0  0  0  0  0
   58.2200   32.6270   45.3650 C   0  0  0  0  0  0  0  0  0  0  0  0
   57.6300   31.5360   44.5980 C   0  0  0  0  0  0  0  0  0  0  0  0
   57.3190   31.6170   43.2650 C   0  0  0  0  0  0  0  0  0  0  0  0
   56.7620   30.5390   42.6070 C   0  0  0  0  0  0  0  0  0  0  0  0
   56.5100   29.3640   43.2810 C   0  0  0  0  0  0  0  0  0  0  0  0
   56.8330   29.3080   44.6210 C   0  0  0  0  0  0  0  0  0  0  0  0
   56.6060   28.2170   45.2720 N   0  0  0  0  0  0  0  0  0  0  0  0
   57.5480   27.1650   45.2560 C   0  0  0  0  0  0  0  0  0  0  0  0
   57.7730   26.4320   44.2550 O   0  0  0  0  0  0  0  0  0  0  0  0
   58.3180   26.9070   46.4970 C   0  0  0  0  0  0  0  0  0  0  0  0
   59.2050   28.0690   46.7440 C   0  0  0  0  0  0  0  0  0  0  0  0
   59.9540   28.6390   45.7360 C   0  0  0  0  0  0  0  0  0  0  0  0
   60.7730   29.7260   46.0010 C   0  0  0  0  0  0  0  0  0  0  0  0
   60.8200   30.2170   47.2860 C   0  0  0  0  0  0  0  0  0  0  0  0
   60.0770   29.6580   48.3100 C   0  0  0  0  0  0  0  0  0  0  0  0
   59.2640   28.5760   48.0370 C   0  0  0  0  0  0  0  0  0  0  0  0
   57.3740   30.3770   45.2300 N   0  0  0  0  0  0  0  0  0  0  0  0
   58.4640   32.7210   46.7190 C   0  0  0  0  0  0  0  0  0  0  0  0
   58.2080   31.8420   47.5740 O   0  0  0  0  0  0  0  0  0  0  0  0
   59.0290   33.9370   46.9610 N   0  0  0  0  0  0  0  0  0  0  0  0
   59.4510   34.4630   48.2530 C   0  0  0  0  0  0  0  0  0  0  0  0
   60.8150   34.0350   48.5620 C   0  0  0  0  0  0  0  0  0  0  0  0
   61.7710   33.7090   47.6260 C   0  0  0  0  0  0  0  0  0  0  0  0
   63.0470   33.3110   48.0290 C   0  0  0  0  0  0  0  0  0  0  0  0
   63.3890   33.2310   49.3700 C   0  0  0  0  0  0  0  0  0  0  0  0
   64.7030   32.8230   49.8310 C   0  0  0  0  0  0  0  0  0  0  0  0
   65.2560   31.5980   49.7460 N   0  0  0  0  0  0  0  0  0  0  0  0
   66.4490   31.6540   50.2780 O   0  0  0  0  0  0  0  0  0  0  0  0
   66.7230   32.8480   50.7160 C   0  0  0  0  0  0  0  0  0  0  0  0
   67.7890   33.2470   51.2850 O   0  0  0  0  0  0  0  0  0  0  0  0
   65.6350   33.5940   50.4420 N   0  0  0  0  0  0  0  0  0  0  0  0
   62.4270   33.5580   50.3060 C   0  0  0  0  0  0  0  0  0  0  0  0
   61.1760   33.9490   49.9050 C   0  0  0  0  0  0  0  0  0  0  0  0
   59.8933   36.4010   46.6051 H   0  0  0  0  0  0  0  0  0  0  0  0
   60.6496   35.8801   45.0613 H   0  0  0  0  0  0  0  0  0  0  0  0
   58.9903   36.5682   45.0613 H   0  0  0  0  0  0  0  0  0  0  0  0
   58.6065   34.0723   43.7357 H   0  0  0  0  0  0  0  0  0  0  0  0
   57.5151   32.5493   42.7151 H   0  0  0  0  0  0  0  0  0  0  0  0
   56.5177   30.6185   41.5374 H   0  0  0  0  0  0  0  0  0  0  0  0
   56.0657   28.4987   42.7673 H   0  0  0  0  0  0  0  0  0  0  0  0
   57.6274   26.7796   47.3436 H   0  0  0  0  0  0  0  0  0  0  0  0
   58.9157   25.9900   46.3886 H   0  0  0  0  0  0  0  0  0  0  0  0
   59.9014   28.2292   44.7165 H   0  0  0  0  0  0  0  0  0  0  0  0
   61.3723   30.1861   45.2015 H   0  0  0  0  0  0  0  0  0  0  0  0
   61.4673   31.0790   47.5049 H   0  0  0  0  0  0  0  0  0  0  0  0
   60.1331   30.0700   49.3284 H   0  0  0  0  0  0  0  0  0  0  0  0
   58.6661   28.1175   48.8385 H   0  0  0  0  0  0  0  0  0  0  0  0
   57.5900   30.2430   46.2610 H   0  0  0  0  0  0  0  0  0  0  0  0
   59.4144   35.5620   48.2254 H   0  0  0  0  0  0  0  0  0  0  0  0
   58.7740   34.0793   49.0305 H   0  0  0  0  0  0  0  0  0  0  0  0
   61.5278   33.7625   46.5545 H   0  0  0  0  0  0  0  0  0  0  0  0
   63.7971   33.0554   47.2661 H   0  0  0  0  0  0  0  0  0  0  0  0
   65.5230   34.6110   50.6640 H   0  0  0  0  0  0  0  0  0  0  0  0
   62.6661   33.5043   51.3783 H   0  0  0  0  0  0  0  0  0  0  0  0
   60.4296   34.2043   50.6716 H   0  0  0  0  0  0  0  0  0  0  0  0
  1  2  1  0
  2  3  1  0
  3  4  2  0
  4  5  1  0
  5  6  2  0
  6  7  1  0
  7  8  2  0
  8  9  1  0
  9 10  2  0
 10 11  1  0
 11 12  2  0
 11 13  1  0
 13 14  1  0
 14 15  2  0
 15 16  1  0
 16 17  2  0
 17 18  1  0
 18 19  2  0
  9 20  1  0
  4 21  1  0
 21 22  2  0
 21 23  1  0
 23 24  1  0
 24 25  1  0
 25 26  2  0
 26 27  1  0
 27 28  2  0
 28 29  1  0
 29 30  2  0
 30 31  1  0
 31 32  1  0
 32 33  2  0
 32 34  1  0
 28 35  1  0
 35 36  2  0
 23  2  1  0
 36 25  1  0
 20  5  1  0
 34 29  1  0
 19 14  1  0
  1 37  1  0
  1 38  1  0
  1 39  1  0
  3 40  1  0
  6 41  1  0
  7 42  1  0
  8 43  1  0
 13 44  1  0
 13 45  1  0
 15 46  1  0
 16 47  1  0
 17 48  1  0
 18 49  1  0
 19 50  1  0
 20 51  1  0
 24 52  1  0
 24 53  1  0
 26 54  1  0
 27 55  1  0
 34 56  1  0
 35 57  1  0
 36 58  1  0
M  END
>  <smiles>  (46) 
Cn1cc(-c2cccc(=NC(=O)Cc3ccccc3)[nH]2)c(=O)n1Cc1ccc(-c2noc(=O)[nH]2)cc1

>  <score_type>  (46) 
oracle

>  <origin>  (46) 
adg

>  <m_score__min__energy>  (46) 
-10.130000000000001

>  <m_primary>  (46) 
energy

$$$$
46:0
     RDKit          3D

 69 71  0  0  0  0  0  0  0  0999 V2000
   63.8590   32.8560   49.1590 C   0  0  0  0  0  0  0  0  0  0  0  0
   62.7900   32.4090   48.1560 C   0  0  0  0  0  0  0  0  0  0  0  0
   63.4140   31.5000   47.0900 C   0  0  0  0  0  0  0  0  0  0  0  0
   62.1010   33.6440   47.5280 C   0  0  0  0  0  0  0  0  0  0  0  0
   60.7490   33.8940   48.0770 N   0  0  0  0  0  0  0  0  0  0  0  0
   60.2300   32.7030   48.7990 C   0  0  0  0  0  0  0  0  0  0  0  0
   59.2830   33.1190   49.9440 C   0  0  0  0  0  0  0  0  0  0  0  0
   58.2430   32.0330   50.2480 C   0  0  0  0  0  0  0  0  0  0  0  0
   60.0600   33.4930   51.2140 C   0  0  0  0  0  0  0  0  0  0  0  0
   59.6150   34.4210   46.8430 S   0  0  0  0  0  0  0  0  0  0  0  0
   58.5220   35.2340   47.4790 O   0  0  0  0  0  0  0  0  0  0  0  0
   60.3110   35.3150   45.8530 O   0  0  0  0  0  0  0  0  0  0  0  0
   58.8800   33.0670   45.9780 C   0  0  0  0  0  0  0  0  0  0  0  0
   57.8310   33.2930   45.0800 C   0  0  0  0  0  0  0  0  0  0  0  0
   57.1580   32.2190   44.4940 C   0  0  0  0  0  0  0  0  0  0  0  0
   57.5150   30.8970   44.8110 C   0  0  0  0  0  0  0  0  0  0  0  0
   56.7030   29.7660   44.3110 C   0  0  0  0  0  0  0  0  0  0  0  0
   56.4940   29.6370   43.0700 O   0  0  0  0  0  0  0  0  0  0  0  0
   56.1310   28.8230   45.2290 N   0  0  0  0  0  0  0  0  0  0  0  0
   56.8270   27.6980   45.7780 C   0  0  0  0  0  0  0  0  0  0  0  0
   56.2300   26.4320   45.7340 C   0  0  0  0  0  0  0  0  0  0  0  0
   56.8990   25.3210   46.2530 C   0  0  0  0  0  0  0  0  0  0  0  0
   58.1770   25.4610   46.8070 C   0  0  0  0  0  0  0  0  0  0  0  0
   58.8060   26.7170   46.8230 C   0  0  0  0  0  0  0  0  0  0  0  0
   60.1790   26.8660   47.3560 C   0  0  0  0  0  0  0  0  0  0  0  0
   61.1500   26.3320   46.7500 O   0  0  0  0  0  0  0  0  0  0  0  0
   60.4290   27.6070   48.5610 N   0  0  0  0  0  0  0  0  0  0  0  0
   60.7300   26.8720   49.7870 C   0  0  0  0  0  0  0  0  0  0  0  0
   61.4440   27.7860   50.7890 C   0  0  0  0  0  0  0  0  0  0  0  0
   60.7460   29.0090   50.9450 O   0  0  0  0  0  0  0  0  0  0  0  0
   60.7810   29.7350   49.7310 C   0  0  0  0  0  0  0  0  0  0  0  0
   59.9960   29.0060   48.6400 C   0  0  0  0  0  0  0  0  0  0  0  0
   58.1210   27.8320   46.3090 C   0  0  0  0  0  0  0  0  0  0  0  0
   58.5960   30.6740   45.6830 C   0  0  0  0  0  0  0  0  0  0  0  0
   59.2780   31.7520   46.2530 C   0  0  0  0  0  0  0  0  0  0  0  0
   63.4885   32.7011   50.1831 H   0  0  0  0  0  0  0  0  0  0  0  0
   64.7744   32.2653   49.0069 H   0  0  0  0  0  0  0  0  0  0  0  0
   64.0814   33.9225   49.0069 H   0  0  0  0  0  0  0  0  0  0  0  0
   62.0175   31.8264   48.6792 H   0  0  0  0  0  0  0  0  0  0  0  0
   63.9712   30.6884   47.5807 H   0  0  0  0  0  0  0  0  0  0  0  0
   62.6187   31.0715   46.4623 H   0  0  0  0  0  0  0  0  0  0  0  0
   64.0997   32.0881   46.4623 H   0  0  0  0  0  0  0  0  0  0  0  0
   62.7259   34.5289   47.7189 H   0  0  0  0  0  0  0  0  0  0  0  0
   61.9876   33.4457   46.4520 H   0  0  0  0  0  0  0  0  0  0  0  0
   59.6802   32.0649   48.0915 H   0  0  0  0  0  0  0  0  0  0  0  0
   61.0816   32.1562   49.2300 H   0  0  0  0  0  0  0  0  0  0  0  0
   58.7442   34.0136   49.5985 H   0  0  0  0  0  0  0  0  0  0  0  0
   58.1366   31.9219   51.3372 H   0  0  0  0  0  0  0  0  0  0  0  0
   57.2747   32.3204   49.8124 H   0  0  0  0  0  0  0  0  0  0  0  0
   58.5720   31.0780   49.8124 H   0  0  0  0  0  0  0  0  0  0  0  0
   59.4725   33.2102   52.0999 H   0  0  0  0  0  0  0  0  0  0  0  0
   61.0217   32.9591   51.2261 H   0  0  0  0  0  0  0  0  0  0  0  0
   60.2426   34.5777   51.2261 H   0  0  0  0  0  0  0  0  0  0  0  0
   57.5346   34.3234   44.8341 H   0  0  0  0  0  0  0  0  0  0  0  0
   56.3433   32.4088   43.7797 H   0  0  0  0  0  0  0  0  0  0  0  0
   55.2311   26.3121   45.2893 H   0  0  0  0  0  0  0  0  0  0  0  0
   56.4194   24.3314   46.2263 H   0  0  0  0  0  0  0  0  0  0  0  0
   58.6900   24.5852   47.2309 H   0  0  0  0  0  0  0  0  0  0  0  0
   59.7923   26.5073   50.2317 H   0  0  0  0  0  0  0  0  0  0  0  0
   61.3856   26.0225   49.5450 H   0  0  0  0  0  0  0  0  0  0  0  0
   61.5014   27.2775   51.7627 H   0  0  0  0  0  0  0  0  0  0  0  0
   62.4530   28.0035   50.4088 H   0  0  0  0  0  0  0  0  0  0  0  0
   60.3372   30.7285   49.8920 H   0  0  0  0  0  0  0  0  0  0  0  0
   61.8280   29.8313   49.4077 H   0  0  0  0  0  0  0  0  0  0  0  0
   58.9225   29.0423   48.8774 H   0  0  0  0  0  0  0  0  0  0  0  0
   60.1807   29.4966   47.6729 H   0  0  0  0  0  0  0  0  0  0  0  0
   58.6035   28.8204   46.3227 H   0  0  0  0  0  0  0  0  0  0  0  0
   58.9062   29.6450   45.9175 H   0  0  0  0  0  0  0  0  0  0  0  0
   60.1320   31.5674   46.9213 H   0  0  0  0  0  0  0  0  0  0  0  0
  1  2  1  0
  2  3  1  0
  2  4  1  0
  4  5  1  0
  5  6  1  0
  6  7  1  0
  7  8  1  0
  7  9  1  0
  5 10  1  0
 10 11  2  0
 10 12  2  0
 10 13  1  0
 13 14  2  0
 14 15  1  0
 15 16  2  0
 16 17  1  0
 17 18  2  0
 17 19  1  0
 19 20  1  0
 20 21  2  0
 21 22  1  0
 22 23  2  0
 23 24  1  0
 24 25  1  0
 25 26  2  0
 25 27  1  0
 27 28  1  0
 28 29  1  0
 29 30  1  0
 30 31  1  0
 31 32  1  0
 24 33  2  0
 16 34  1  0
 34 35  2  0
 35 13  1  0
 33 20  1  0
 32 27  1  0
  1 36  1  0
  1 37  1  0
  1 38  1  0
  2 39  1  0
  3 40  1  0
  3 41  1  0
  3 42  1  0
  4 43  1  0
  4 44  1  0
  6 45  1  0
  6 46  1  0
  7 47  1  0
  8 48  1  0
  8 49  1  0
  8 50  1  0
  9 51  1  0
  9 52  1  0
  9 53  1  0
 14 54  1  0
 15 55  1  0
 21 56  1  0
 22 57  1  0
 23 58  1  0
 28 59  1  0
 28 60  1  0
 29 61  1  0
 29 62  1  0
 31 63  1  0
 31 64  1  0
 32 65  1  0
 32 66  1  0
 33 67  1  0
 34 68  1  0
 35 69  1  0
M  CHG  1  19  -1
M  END
>  <UniqueID>  (47) 
44

>  <SMILES>  (47) 
CC(C)CN(CC(C)C)S(=O)(=O)c1ccc(C(=O)[N-]c2cccc(C(=O)N3CCOCC3)c2)cc1

>  <Energy>  (47) 
75.592243474871

>  <Genealogy>  (47) 
CC(C)CN(CC(C)C)S(=O)(=O)c1ccc(C(=O)[N-]c2cccc(C(=O)N3CCOCC3)c2)cc1 (protonated)
CC(C)CN(CC(C)C)S(=O)(=O)c1ccc(C(=O)[N-]c2cccc(C(=O)N3CCOCC3)c2)cc1 (3D coordinates assigned)
CC(C)CN(CC(C)C)S(=O)(=O)c1ccc(C(=O)[N-]c2cccc(C(=O)N3CCOCC3)c2)cc1 (nonaromatic ring conformer: 75.592243474871 kcal/mol)

>  <smiles>  (47) 
CC(C)CN(CC(C)C)S(=O)(=O)c1ccc(C(=O)Nc2cccc(C(=O)N3CCOCC3)c2)cc1

>  <score_type>  (47) 
oracle

>  <origin>  (47) 
adg

>  <m_score__min__energy>  (47) 
-11.119999999999999

>  <m_primary>  (47) 
energy

$$$$
47:0
     RDKit          3D

 41 43  0  0  0  0  0  0  0  0999 V2000
   60.8550   33.8940   46.4260 C   0  0  0  0  0  0  0  0  0  0  0  0
   59.7810   34.5790   47.2680 C   0  0  0  0  0  0  0  0  0  0  0  0
   58.4600   33.9620   47.0250 N   0  0  0  0  0  0  0  0  0  0  0  0
   58.3440   32.6120   47.6380 C   0  0  0  0  0  0  0  0  0  0  0  0
   58.4470   31.4850   46.6010 C   0  0  0  0  0  0  0  0  0  0  0  0
   57.3760   31.5880   45.5780 N   0  0  0  0  0  0  0  0  0  0  0  0
   57.7210   30.8250   44.3590 C   0  0  0  0  0  0  0  0  0  0  0  0
   58.5500   29.5990   44.6920 C   0  0  0  0  0  0  0  0  0  0  0  0
   59.9360   29.6860   44.4930 C   0  0  0  0  0  0  0  0  0  0  0  0
   60.7500   28.5980   44.8020 C   0  0  0  0  0  0  0  0  0  0  0  0
   61.9940   28.6730   44.6220 O   0  0  0  0  0  0  0  0  0  0  0  0
   60.2250   27.4850   45.2890 O   0  0  0  0  0  0  0  0  0  0  0  0
   58.9230   27.3360   45.5070 C   0  0  0  0  0  0  0  0  0  0  0  0
   58.4690   26.1220   46.0280 C   0  0  0  0  0  0  0  0  0  0  0  0
   57.1150   25.9250   46.2750 C   0  0  0  0  0  0  0  0  0  0  0  0
   56.2010   26.9400   46.0050 C   0  0  0  0  0  0  0  0  0  0  0  0
   56.6260   28.1700   45.4810 C   0  0  0  0  0  0  0  0  0  0  0  0
   55.6660   29.1470   45.2280 O   0  0  0  0  0  0  0  0  0  0  0  0
   58.0090   28.3900   45.2200 C   0  0  0  0  0  0  0  0  0  0  0  0
   57.0050   32.9900   45.2570 C   0  0  0  0  0  0  0  0  0  0  0  0
   58.1310   33.9800   45.5820 C   0  0  0  0  0  0  0  0  0  0  0  0
   61.5950   33.4220   47.0890 H   0  0  0  0  0  0  0  0  0  0  0  0
   60.3889   33.1260   45.7912 H   0  0  0  0  0  0  0  0  0  0  0  0
   61.3548   34.6405   45.7912 H   0  0  0  0  0  0  0  0  0  0  0  0
   60.0371   34.4781   48.3330 H   0  0  0  0  0  0  0  0  0  0  0  0
   59.7339   35.6417   46.9880 H   0  0  0  0  0  0  0  0  0  0  0  0
   59.1515   32.4885   48.3747 H   0  0  0  0  0  0  0  0  0  0  0  0
   57.3526   32.5430   48.1095 H   0  0  0  0  0  0  0  0  0  0  0  0
   59.4253   31.5467   46.1019 H   0  0  0  0  0  0  0  0  0  0  0  0
   58.3342   30.5236   47.1235 H   0  0  0  0  0  0  0  0  0  0  0  0
   56.7933   30.5059   43.8615 H   0  0  0  0  0  0  0  0  0  0  0  0
   58.3131   31.4754   43.6984 H   0  0  0  0  0  0  0  0  0  0  0  0
   60.3790   30.6105   44.0942 H   0  0  0  0  0  0  0  0  0  0  0  0
   59.1870   25.3171   46.2441 H   0  0  0  0  0  0  0  0  0  0  0  0
   56.7653   24.9657   46.6844 H   0  0  0  0  0  0  0  0  0  0  0  0
   55.1320   26.7754   46.2051 H   0  0  0  0  0  0  0  0  0  0  0  0
   55.7300   30.0790   45.6230 H   0  0  0  0  0  0  0  0  0  0  0  0
   56.7735   33.0576   44.1838 H   0  0  0  0  0  0  0  0  0  0  0  0
   56.1342   33.2570   45.8738 H   0  0  0  0  0  0  0  0  0  0  0  0
   59.0272   33.7056   45.0063 H   0  0  0  0  0  0  0  0  0  0  0  0
   57.7928   34.9920   45.3146 H   0  0  0  0  0  0  0  0  0  0  0  0
  1  2  1  0
  2  3  1  0
  3  4  1  0
  4  5  1  0
  5  6  1  0
  6  7  1  0
  7  8  1  0
  8  9  2  0
  9 10  1  0
 10 11  2  0
 10 12  1  0
 12 13  1  0
 13 14  2  0
 14 15  1  0
 15 16  2  0
 16 17  1  0
 17 18  1  0
 17 19  2  0
  6 20  1  0
 20 21  1  0
 21  3  1  0
 19  8  1  0
 19 13  1  0
  1 22  1  0
  1 23  1  0
  1 24  1  0
  2 25  1  0
  2 26  1  0
  4 27  1  0
  4 28  1  0
  5 29  1  0
  5 30  1  0
  7 31  1  0
  7 32  1  0
  9 33  1  0
 14 34  1  0
 15 35  1  0
 16 36  1  0
 18 37  1  0
 20 38  1  0
 20 39  1  0
 21 40  1  0
 21 41  1  0
M  END
>  <UniqueID>  (48) 
45

>  <SMILES>  (48) 
CCN1CCN(Cc2cc(=O)oc3cccc(O)c23)CC1

>  <Energy>  (48) 
62.66065613407637

>  <Genealogy>  (48) 
CCN1CCN(Cc2cc(=O)oc3cccc(O)c23)CC1 (3D coordinates assigned)
CCN1CCN(Cc2cc(=O)oc3cccc(O)c23)CC1 (nonaromatic ring conformer: 62.66065613407637 kcal/mol)

>  <smiles>  (48) 
CCN1CCN(Cc2cc(=O)oc3cccc(O)c23)CC1

>  <score_type>  (48) 
oracle

>  <origin>  (48) 
adg

>  <m_score__min__energy>  (48) 
-7.2999999999999998

>  <m_primary>  (48) 
energy

$$$$
48:0
     RDKit          3D

 54 57  0  0  0  0  0  0  0  0999 V2000
   60.0200   33.9320   49.4730 C   0  0  0  0  0  0  0  0  0  0  0  0
   59.2910   32.7020   50.0060 C   0  0  0  0  0  0  0  0  0  0  0  0
   58.5340   31.9320   48.9100 C   0  0  0  0  0  0  0  0  0  0  0  0
   59.1460   32.0980   47.5800 N   0  0  0  0  0  0  0  0  0  0  0  0
   60.3600   31.3380   47.2420 C   0  0  0  0  0  0  0  0  0  0  0  0
   60.2260   29.9020   47.6660 C   0  0  0  0  0  0  0  0  0  0  0  0
   60.8060   29.4620   48.8660 C   0  0  0  0  0  0  0  0  0  0  0  0
   60.6560   28.1350   49.2750 C   0  0  0  0  0  0  0  0  0  0  0  0
   59.9180   27.2390   48.4980 C   0  0  0  0  0  0  0  0  0  0  0  0
   59.3130   27.6680   47.3040 C   0  0  0  0  0  0  0  0  0  0  0  0
   58.5630   26.7600   46.4790 N   0  0  0  0  0  0  0  0  0  0  0  0
   58.1470   25.4530   46.9070 C   0  0  0  0  0  0  0  0  0  0  0  0
   58.0430   25.2030   48.1390 O   0  0  0  0  0  0  0  0  0  0  0  0
   57.7920   24.4070   45.9180 C   0  0  0  0  0  0  0  0  0  0  0  0
   58.5170   23.1830   45.8610 C   0  0  0  0  0  0  0  0  0  0  0  0
   58.1730   22.1830   44.9320 C   0  0  0  0  0  0  0  0  0  0  0  0
   57.1030   22.4320   44.0800 C   0  0  0  0  0  0  0  0  0  0  0  0
   56.6010   21.6280   43.1280 N   0  0  0  0  0  0  0  0  0  0  0  0
   55.5810   22.2740   42.5680 N   0  0  0  0  0  0  0  0  0  0  0  0
   55.4350   23.4810   43.1630 C   0  0  0  0  0  0  0  0  0  0  0  0
   56.4010   23.5970   44.1320 C   0  0  0  0  0  0  0  0  0  0  0  0
   56.7040   24.6100   45.0350 C   0  0  0  0  0  0  0  0  0  0  0  0
   59.4880   28.9960   46.8850 C   0  0  0  0  0  0  0  0  0  0  0  0
   58.4750   32.8750   46.5690 C   0  0  0  0  0  0  0  0  0  0  0  0
   58.0590   34.0370   46.8350 O   0  0  0  0  0  0  0  0  0  0  0  0
   58.2930   32.3440   45.2840 O   0  0  0  0  0  0  0  0  0  0  0  0
   57.0930   31.7000   44.8650 C   0  0  0  0  0  0  0  0  0  0  0  0
   57.3400   30.2450   44.6200 C   0  0  0  0  0  0  0  0  0  0  0  0
   58.4690   29.7400   44.1890 O   0  0  0  0  0  0  0  0  0  0  0  0
   58.2800   28.4420   44.0890 C   0  0  0  0  0  0  0  0  0  0  0  0
   59.1720   27.6460   43.6970 O   0  0  0  0  0  0  0  0  0  0  0  0
   57.0400   28.0410   44.4430 N   0  0  0  0  0  0  0  0  0  0  0  0
   56.4540   29.2040   44.7780 C   0  0  0  0  0  0  0  0  0  0  0  0
   55.1410   29.3110   45.2150 O   0  0  0  0  0  0  0  0  0  0  0  0
   60.3799   34.5392   50.3167 H   0  0  0  0  0  0  0  0  0  0  0  0
   60.8755   33.6138   48.8590 H   0  0  0  0  0  0  0  0  0  0  0  0
   59.3302   34.5297   48.8590 H   0  0  0  0  0  0  0  0  0  0  0  0
   60.0297   32.0268   50.4627 H   0  0  0  0  0  0  0  0  0  0  0  0
   58.5473   33.0507   50.7376 H   0  0  0  0  0  0  0  0  0  0  0  0
   58.5326   30.8624   49.1669 H   0  0  0  0  0  0  0  0  0  0  0  0
   57.5124   32.3370   48.8612 H   0  0  0  0  0  0  0  0  0  0  0  0
   60.5204   31.3795   46.1545 H   0  0  0  0  0  0  0  0  0  0  0  0
   61.2143   31.7840   47.7723 H   0  0  0  0  0  0  0  0  0  0  0  0
   61.3809   30.1650   49.4867 H   0  0  0  0  0  0  0  0  0  0  0  0
   61.1206   27.7943   50.2121 H   0  0  0  0  0  0  0  0  0  0  0  0
   59.8098   26.1933   48.8219 H   0  0  0  0  0  0  0  0  0  0  0  0
   58.2100   27.1120   45.5590 H   0  0  0  0  0  0  0  0  0  0  0  0
   59.3567   23.0167   46.5518 H   0  0  0  0  0  0  0  0  0  0  0  0
   58.7317   21.2368   44.8818 H   0  0  0  0  0  0  0  0  0  0  0  0
   54.6755   24.2367   42.9139 H   0  0  0  0  0  0  0  0  0  0  0  0
   56.1169   25.5398   45.0625 H   0  0  0  0  0  0  0  0  0  0  0  0
   59.0433   29.3310   45.9363 H   0  0  0  0  0  0  0  0  0  0  0  0
   56.3294   31.8110   45.6489 H   0  0  0  0  0  0  0  0  0  0  0  0
   56.7460   32.1652   43.9306 H   0  0  0  0  0  0  0  0  0  0  0  0
  1  2  1  0
  2  3  1  0
  3  4  1  0
  4  5  1  0
  5  6  1  0
  6  7  2  0
  7  8  1  0
  8  9  2  0
  9 10  1  0
 10 11  1  0
 11 12  1  0
 12 13  2  0
 12 14  1  0
 14 15  2  0
 15 16  1  0
 16 17  2  0
 17 18  1  0
 18 19  1  0
 19 20  2  0
 20 21  1  0
 21 22  2  0
 10 23  2  0
  4 24  1  0
 24 25  2  0
 24 26  1  0
 26 27  1  0
 27 28  1  0
 28 29  1  0
 29 30  1  0
 30 31  2  0
 30 32  1  0
 32 33  1  0
 33 34  1  0
 23  6  1  0
 33 28  2  0
 22 14  1  0
 21 17  1  0
  1 35  1  0
  1 36  1  0
  1 37  1  0
  2 38  1  0
  2 39  1  0
  3 40  1  0
  3 41  1  0
  5 42  1  0
  5 43  1  0
  7 44  1  0
  8 45  1  0
  9 46  1  0
 11 47  1  0
 15 48  1  0
 16 49  1  0
 20 50  1  0
 22 51  1  0
 23 52  1  0
 27 53  1  0
 27 54  1  0
M  CHG  3  18  -1  32  -1  34  -1
M  END
>  <UniqueID>  (49) 
46

>  <SMILES>  (49) 
CCCN(Cc1cccc(NC(=O)c2ccc3[n-]ncc3c2)c1)C(=O)OCc1oc(=O)[n-]c1[O-]

>  <Energy>  (49) 
123.38965838798129

>  <Genealogy>  (49) 
CCCN(Cc1cccc(NC(=O)c2ccc3[n-]ncc3c2)c1)C(=O)OCc1oc(=O)[n-]c1[O-] (protonated)
CCCN(Cc1cccc(NC(=O)c2ccc3[n-]ncc3c2)c1)C(=O)OCc1oc(=O)[n-]c1[O-] (3D coordinates assigned)
CCCN(Cc1cccc(NC(=O)c2ccc3[n-]ncc3c2)c1)C(=O)OCc1oc(=O)[n-]c1[O-] (optimized conformer: 123.38965838798129 kcal/mol)

>  <smiles>  (49) 
CCCN(Cc1cccc(NC(=O)c2ccc3[nH]ncc3c2)c1)C(=O)OCc1oc(=O)[nH]c1O

>  <score_type>  (49) 
oracle

>  <origin>  (49) 
adg

>  <m_score__min__energy>  (49) 
-15.960000000000001

>  <m_primary>  (49) 
energy

$$$$
49:0
     RDKit          3D

 44 46  0  0  0  0  0  0  0  0999 V2000
   65.6320   33.0550   49.8040 C   0  0  0  0  0  0  0  0  0  0  0  0
   64.1800   33.2970   49.5150 C   0  0  0  0  0  0  0  0  0  0  0  0
   63.3120   33.6860   50.5460 C   0  0  0  0  0  0  0  0  0  0  0  0
   61.9500   33.8710   50.2900 C   0  0  0  0  0  0  0  0  0  0  0  0
   61.4380   33.6700   48.9990 C   0  0  0  0  0  0  0  0  0  0  0  0
   59.9990   33.8440   48.7200 C   0  0  0  0  0  0  0  0  0  0  0  0
   59.1900   32.9590   49.1040 O   0  0  0  0  0  0  0  0  0  0  0  0
   59.4930   34.9700   47.9930 N   0  0  0  0  0  0  0  0  0  0  0  0
   59.6710   35.1830   46.5620 C   0  0  0  0  0  0  0  0  0  0  0  0
   59.1970   33.9770   45.8210 C   0  0  0  0  0  0  0  0  0  0  0  0
   58.9190   33.8960   44.4740 C   0  0  0  0  0  0  0  0  0  0  0  0
   58.4750   32.6850   44.2330 O   0  0  0  0  0  0  0  0  0  0  0  0
   58.4600   32.0280   45.3750 C   0  0  0  0  0  0  0  0  0  0  0  0
   58.0120   30.6200   45.5000 C   0  0  0  0  0  0  0  0  0  0  0  0
   57.0080   30.0890   44.6700 C   0  0  0  0  0  0  0  0  0  0  0  0
   56.6030   28.7590   44.8110 C   0  0  0  0  0  0  0  0  0  0  0  0
   57.1970   27.9370   45.7780 C   0  0  0  0  0  0  0  0  0  0  0  0
   56.6640   26.2720   45.9700 S   0  0  0  0  0  0  0  0  0  0  0  0
   57.2720   25.2990   44.6110 C   0  0  0  0  0  0  0  0  0  0  0  0
   57.1920   25.7140   47.2620 O   0  0  0  0  0  0  0  0  0  0  0  0
   55.1630   26.2140   45.9980 O   0  0  0  0  0  0  0  0  0  0  0  0
   58.1930   28.4610   46.6100 C   0  0  0  0  0  0  0  0  0  0  0  0
   58.6000   29.7910   46.4700 C   0  0  0  0  0  0  0  0  0  0  0  0
   58.8970   32.7990   46.3960 N   0  0  0  0  0  0  0  0  0  0  0  0
   62.3010   33.2440   47.9770 C   0  0  0  0  0  0  0  0  0  0  0  0
   63.6630   33.0590   48.2330 C   0  0  0  0  0  0  0  0  0  0  0  0
   65.7898   33.0287   50.8923 H   0  0  0  0  0  0  0  0  0  0  0  0
   65.9378   32.0935   49.3658 H   0  0  0  0  0  0  0  0  0  0  0  0
   66.2331   33.8654   49.3658 H   0  0  0  0  0  0  0  0  0  0  0  0
   63.7048   33.8463   51.5609 H   0  0  0  0  0  0  0  0  0  0  0  0
   61.2765   34.1756   51.1046 H   0  0  0  0  0  0  0  0  0  0  0  0
   59.0885   36.0609   46.2459 H   0  0  0  0  0  0  0  0  0  0  0  0
   60.7356   35.3543   46.3446 H   0  0  0  0  0  0  0  0  0  0  0  0
   59.0462   34.7006   43.7347 H   0  0  0  0  0  0  0  0  0  0  0  0
   56.5386   30.7249   43.9049 H   0  0  0  0  0  0  0  0  0  0  0  0
   55.8139   28.3553   44.1596 H   0  0  0  0  0  0  0  0  0  0  0  0
   57.8173   24.4264   44.9999 H   0  0  0  0  0  0  0  0  0  0  0  0
   56.4257   24.9585   43.9963 H   0  0  0  0  0  0  0  0  0  0  0  0
   57.9490   25.9104   43.9963 H   0  0  0  0  0  0  0  0  0  0  0  0
   58.6573   27.8238   47.3770 H   0  0  0  0  0  0  0  0  0  0  0  0
   59.3875   30.1920   47.1250 H   0  0  0  0  0  0  0  0  0  0  0  0
   58.9880   32.5590   47.4060 H   0  0  0  0  0  0  0  0  0  0  0  0
   61.9034   33.0547   46.9690 H   0  0  0  0  0  0  0  0  0  0  0  0
   64.3318   32.7255   47.4258 H   0  0  0  0  0  0  0  0  0  0  0  0
  1  2  1  0
  2  3  2  0
  3  4  1  0
  4  5  2  0
  5  6  1  0
  6  7  2  0
  6  8  1  0
  8  9  1  0
  9 10  1  0
 10 11  2  0
 11 12  1  0
 12 13  1  0
 13 14  1  0
 14 15  2  0
 15 16  1  0
 16 17  2  0
 17 18  1  0
 18 19  1  0
 18 20  2  0
 18 21  2  0
 17 22  1  0
 22 23  2  0
 13 24  2  0
  5 25  1  0
 25 26  2  0
 26  2  1  0
 24 10  1  0
 23 14  1  0
  1 27  1  0
  1 28  1  0
  1 29  1  0
  3 30  1  0
  4 31  1  0
  9 32  1  0
  9 33  1  0
 11 34  1  0
 15 35  1  0
 16 36  1  0
 19 37  1  0
 19 38  1  0
 19 39  1  0
 22 40  1  0
 23 41  1  0
 24 42  1  0
 25 43  1  0
 26 44  1  0
M  CHG  2   8  -1  24   1
M  END
>  <UniqueID>  (50) 
47

>  <SMILES>  (50) 
Cc1ccc(C(=O)[N-]Cc2coc(-c3ccc(S(C)(=O)=O)cc3)[nH+]2)cc1

>  <Energy>  (50) 
77.45075286931403

>  <Genealogy>  (50) 
Cc1ccc(C(=O)[N-]Cc2coc(-c3ccc(S(C)(=O)=O)cc3)[nH+]2)cc1 (protonated)
Cc1ccc(C(=O)[N-]Cc2coc(-c3ccc(S(C)(=O)=O)cc3)[nH+]2)cc1 (3D coordinates assigned)
Cc1ccc(C(=O)[N-]Cc2coc(-c3ccc(S(C)(=O)=O)cc3)[nH+]2)cc1 (optimized conformer: 77.45075286931403 kcal/mol)

>  <smiles>  (50) 
Cc1ccc(C(=O)NCc2coc(-c3ccc(S(C)(=O)=O)cc3)n2)cc1

>  <score_type>  (50) 
oracle

>  <origin>  (50) 
adg

>  <m_score__min__energy>  (50) 
-8.3499999999999996

>  <m_primary>  (50) 
energy

$$$$
50:0
     RDKit          3D

 40 42  0  0  0  0  0  0  0  0999 V2000
   59.3320   27.3660   47.3330 C   0  0  0  0  0  0  0  0  0  0  0  0
   58.6460   28.0340   46.3920 C   0  0  0  0  0  0  0  0  0  0  0  0
   58.0680   27.4850   45.2390 C   0  0  0  0  0  0  0  0  0  0  0  0
   57.8170   26.2050   44.8990 C   0  0  0  0  0  0  0  0  0  0  0  0
   57.1510   25.2080   45.7540 C   0  0  0  0  0  0  0  0  0  0  0  0
   57.7510   24.1260   46.2830 N   0  0  0  0  0  0  0  0  0  0  0  0
   56.8000   23.6030   47.0860 C   0  0  0  0  0  0  0  0  0  0  0  0
   56.9810   22.5530   47.7550 O   0  0  0  0  0  0  0  0  0  0  0  0
   55.6430   24.2990   47.1220 N   0  0  0  0  0  0  0  0  0  0  0  0
   55.8890   25.3200   46.2840 C   0  0  0  0  0  0  0  0  0  0  0  0
   54.9800   26.3370   46.0110 O   0  0  0  0  0  0  0  0  0  0  0  0
   57.7400   28.5520   44.4280 C   0  0  0  0  0  0  0  0  0  0  0  0
   58.0570   29.7020   45.1190 C   0  0  0  0  0  0  0  0  0  0  0  0
   57.8520   31.0460   44.5420 C   0  0  0  0  0  0  0  0  0  0  0  0
   56.8990   31.7870   44.8920 O   0  0  0  0  0  0  0  0  0  0  0  0
   58.5730   29.3950   46.3400 N   0  0  0  0  0  0  0  0  0  0  0  0
   58.9610   30.3280   47.4130 C   0  0  0  0  0  0  0  0  0  0  0  0
   59.9960   31.3140   46.9370 C   0  0  0  0  0  0  0  0  0  0  0  0
   61.1570   30.8960   46.6760 O   0  0  0  0  0  0  0  0  0  0  0  0
   59.6860   32.7070   46.7480 N   0  0  0  0  0  0  0  0  0  0  0  0
   58.3670   33.2930   46.9160 C   0  0  0  0  0  0  0  0  0  0  0  0
   58.4760   34.7080   46.3670 C   0  0  0  0  0  0  0  0  0  0  0  0
   59.9680   35.0230   46.3270 C   0  0  0  0  0  0  0  0  0  0  0  0
   60.6750   33.6750   46.3060 C   0  0  0  0  0  0  0  0  0  0  0  0
   59.7427   27.9039   48.2001 H   0  0  0  0  0  0  0  0  0  0  0  0
   59.4834   26.2807   47.2369 H   0  0  0  0  0  0  0  0  0  0  0  0
   58.1366   25.8776   43.8986 H   0  0  0  0  0  0  0  0  0  0  0  0
   54.3540   26.6760   46.7310 H   0  0  0  0  0  0  0  0  0  0  0  0
   57.3065   28.4956   43.4186 H   0  0  0  0  0  0  0  0  0  0  0  0
   58.5570   31.4107   43.7804 H   0  0  0  0  0  0  0  0  0  0  0  0
   58.0696   30.8786   47.7480 H   0  0  0  0  0  0  0  0  0  0  0  0
   59.3931   29.7446   48.2394 H   0  0  0  0  0  0  0  0  0  0  0  0
   57.6170   32.7189   46.3522 H   0  0  0  0  0  0  0  0  0  0  0  0
   58.0501   33.2880   47.9694 H   0  0  0  0  0  0  0  0  0  0  0  0
   58.0458   34.7611   45.3560 H   0  0  0  0  0  0  0  0  0  0  0  0
   57.9262   35.4283   46.9906 H   0  0  0  0  0  0  0  0  0  0  0  0
   60.2140   35.5989   45.4226 H   0  0  0  0  0  0  0  0  0  0  0  0
   60.2775   35.6295   47.1909 H   0  0  0  0  0  0  0  0  0  0  0  0
   61.0169   33.4368   45.2880 H   0  0  0  0  0  0  0  0  0  0  0  0
   61.5643   33.6722   46.9534 H   0  0  0  0  0  0  0  0  0  0  0  0
  1  2  2  0
  2  3  1  0
  3  4  2  3
  4  5  1  0
  5  6  1  0
  6  7  1  0
  7  8  2  0
  7  9  1  0
  9 10  1  0
 10 11  1  0
  3 12  1  0
 12 13  2  0
 13 14  1  0
 14 15  2  0
 13 16  1  0
 16 17  1  0
 17 18  1  0
 18 19  2  0
 18 20  1  0
 20 21  1  0
 21 22  1  0
 22 23  1  0
 23 24  1  0
 16  2  1  0
 24 20  1  0
 10  5  2  0
  1 25  1  0
  1 26  1  0
  4 27  1  0
 11 28  1  0
 12 29  1  0
 14 30  1  0
 17 31  1  0
 17 32  1  0
 21 33  1  0
 21 34  1  0
 22 35  1  0
 22 36  1  0
 23 37  1  0
 23 38  1  0
 24 39  1  0
 24 40  1  0
M  CHG  2   6  -1   9  -1
M  END
>  <UniqueID>  (51) 
48

>  <SMILES>  (51) 
C=c1c(=Cc2[n-]c(=O)[n-]c2O)cc(C=O)n1CC(=O)N1CCCC1

>  <Energy>  (51) 
110.6722833760078

>  <Genealogy>  (51) 
C=c1c(=Cc2[n-]c(=O)[n-]c2O)cc(C=O)n1CC(=O)N1CCCC1 (protonated)
C=c1c(=Cc2[n-]c(=O)[n-]c2O)cc(C=O)n1CC(=O)N1CCCC1 (3D coordinates assigned)
C=c1c(=Cc2[n-]c(=O)[n-]c2O)cc(C=O)n1CC(=O)N1CCCC1 (nonaromatic ring conformer: 110.6722833760078 kcal/mol)

>  <smiles>  (51) 
C=c1c(=Cc2[nH]c(=O)[nH]c2O)cc(C=O)n1CC(=O)N1CCCC1

>  <score_type>  (51) 
oracle

>  <origin>  (51) 
adg

>  <m_score__min__energy>  (51) 
-12.220000000000001

>  <m_primary>  (51) 
energy

$$$$
51:0
     RDKit          3D

 64 67  0  0  0  0  0  0  0  0999 V2000
   56.2830   22.5370   48.4730 C   0  0  0  0  0  0  0  0  0  0  0  0
   57.3060   22.7940   47.5140 O   0  0  0  0  0  0  0  0  0  0  0  0
   57.0820   23.0020   46.1430 C   0  0  0  0  0  0  0  0  0  0  0  0
   57.3510   21.9980   45.1910 C   0  0  0  0  0  0  0  0  0  0  0  0
   57.1340   22.2340   43.8310 C   0  0  0  0  0  0  0  0  0  0  0  0
   56.6500   23.4700   43.4040 C   0  0  0  0  0  0  0  0  0  0  0  0
   56.3770   24.4740   44.3340 C   0  0  0  0  0  0  0  0  0  0  0  0
   56.5770   24.2480   45.7070 C   0  0  0  0  0  0  0  0  0  0  0  0
   56.2640   25.3570   46.6840 C   0  0  0  0  0  0  0  0  0  0  0  0
   55.6890   26.5210   46.0020 N   0  0  0  0  0  0  0  0  0  0  0  0
   56.9200   27.6730   45.5640 S   0  0  0  0  0  0  0  0  0  0  0  0
   57.4050   27.3650   44.1750 O   0  0  0  0  0  0  0  0  0  0  0  0
   56.3390   29.0600   45.5690 O   0  0  0  0  0  0  0  0  0  0  0  0
   58.2900   27.5820   46.6690 C   0  0  0  0  0  0  0  0  0  0  0  0
   59.1720   26.4950   46.6270 C   0  0  0  0  0  0  0  0  0  0  0  0
   60.2750   26.4540   47.4820 C   0  0  0  0  0  0  0  0  0  0  0  0
   60.5020   27.4940   48.3880 C   0  0  0  0  0  0  0  0  0  0  0  0
   59.6110   28.5780   48.4580 C   0  0  0  0  0  0  0  0  0  0  0  0
   59.8520   29.6800   49.4150 C   0  0  0  0  0  0  0  0  0  0  0  0
   59.0390   29.8690   50.3590 O   0  0  0  0  0  0  0  0  0  0  0  0
   61.0100   30.5170   49.3250 N   0  0  0  0  0  0  0  0  0  0  0  0
   61.1710   31.6140   48.4150 C   0  0  0  0  0  0  0  0  0  0  0  0
   62.4390   32.1550   48.1370 C   0  0  0  0  0  0  0  0  0  0  0  0
   62.5710   33.2040   47.2240 C   0  0  0  0  0  0  0  0  0  0  0  0
   61.4440   33.7160   46.5780 C   0  0  0  0  0  0  0  0  0  0  0  0
   60.1760   33.1770   46.8370 C   0  0  0  0  0  0  0  0  0  0  0  0
   58.7560   33.8300   46.0170 S   0  0  0  0  0  0  0  0  0  0  0  0
   59.1500   35.0740   45.2700 O   0  0  0  0  0  0  0  0  0  0  0  0
   57.7210   34.2080   47.0410 O   0  0  0  0  0  0  0  0  0  0  0  0
   58.0830   32.6870   44.8810 N   0  0  0  0  0  0  0  0  0  0  0  0
   58.5160   31.3110   45.2100 C   0  0  0  0  0  0  0  0  0  0  0  0
   58.2970   30.3230   44.0430 C   0  0  0  0  0  0  0  0  0  0  0  0
   57.2480   30.8390   43.0550 C   0  0  0  0  0  0  0  0  0  0  0  0
   57.6380   32.2200   42.4980 C   0  0  0  0  0  0  0  0  0  0  0  0
   58.4460   33.0560   43.5050 C   0  0  0  0  0  0  0  0  0  0  0  0
   60.0460   32.1230   47.7520 C   0  0  0  0  0  0  0  0  0  0  0  0
   58.5100   28.6190   47.5840 C   0  0  0  0  0  0  0  0  0  0  0  0
   56.6965   22.6409   49.4870 H   0  0  0  0  0  0  0  0  0  0  0  0
   55.4627   23.2570   48.3360 H   0  0  0  0  0  0  0  0  0  0  0  0
   55.9004   21.5148   48.3360 H   0  0  0  0  0  0  0  0  0  0  0  0
   57.7346   21.0214   45.5212 H   0  0  0  0  0  0  0  0  0  0  0  0
   57.3453   21.4434   43.0960 H   0  0  0  0  0  0  0  0  0  0  0  0
   56.4831   23.6540   42.3324 H   0  0  0  0  0  0  0  0  0  0  0  0
   56.0025   25.4495   43.9902 H   0  0  0  0  0  0  0  0  0  0  0  0
   55.5442   24.9861   47.4285 H   0  0  0  0  0  0  0  0  0  0  0  0
   57.2011   25.6668   47.1696 H   0  0  0  0  0  0  0  0  0  0  0  0
   58.9954   25.6719   45.9190 H   0  0  0  0  0  0  0  0  0  0  0  0
   60.9677   25.6004   47.4425 H   0  0  0  0  0  0  0  0  0  0  0  0
   61.3812   27.4636   49.0484 H   0  0  0  0  0  0  0  0  0  0  0  0
   63.3298   31.7508   48.6401 H   0  0  0  0  0  0  0  0  0  0  0  0
   63.5643   33.6273   47.0137 H   0  0  0  0  0  0  0  0  0  0  0  0
   61.5514   34.5452   45.8633 H   0  0  0  0  0  0  0  0  0  0  0  0
   59.5872   31.3292   45.4596 H   0  0  0  0  0  0  0  0  0  0  0  0
   57.9070   30.9644   46.0579 H   0  0  0  0  0  0  0  0  0  0  0  0
   59.2495   30.1827   43.5110 H   0  0  0  0  0  0  0  0  0  0  0  0
   57.9360   29.3719   44.4615 H   0  0  0  0  0  0  0  0  0  0  0  0
   57.1606   30.1275   42.2207 H   0  0  0  0  0  0  0  0  0  0  0  0
   56.2890   30.9359   43.5850 H   0  0  0  0  0  0  0  0  0  0  0  0
   58.2450   32.0761   41.5920 H   0  0  0  0  0  0  0  0  0  0  0  0
   56.7086   32.7666   42.2804 H   0  0  0  0  0  0  0  0  0  0  0  0
   59.5195   32.8718   43.3510 H   0  0  0  0  0  0  0  0  0  0  0  0
   58.2205   34.1212   43.3486 H   0  0  0  0  0  0  0  0  0  0  0  0
   59.0536   31.6922   47.9511 H   0  0  0  0  0  0  0  0  0  0  0  0
   57.8164   29.4721   47.6194 H   0  0  0  0  0  0  0  0  0  0  0  0
  1  2  1  0
  2  3  1  0
  3  4  2  0
  4  5  1  0
  5  6  2  0
  6  7  1  0
  7  8  2  0
  8  9  1  0
  9 10  1  0
 10 11  1  0
 11 12  2  0
 11 13  2  0
 11 14  1  0
 14 15  2  0
 15 16  1  0
 16 17  2  0
 17 18  1  0
 18 19  1  0
 19 20  2  0
 19 21  1  0
 21 22  1  0
 22 23  2  0
 23 24  1  0
 24 25  2  0
 25 26  1  0
 26 27  1  0
 27 28  2  0
 27 29  2  0
 27 30  1  0
 30 31  1  0
 31 32  1  0
 32 33  1  0
 33 34  1  0
 34 35  1  0
 26 36  2  0
 18 37  2  0
  8  3  1  0
 37 14  1  0
 36 22  1  0
 35 30  1  0
  1 38  1  0
  1 39  1  0
  1 40  1  0
  4 41  1  0
  5 42  1  0
  6 43  1  0
  7 44  1  0
  9 45  1  0
  9 46  1  0
 15 47  1  0
 16 48  1  0
 17 49  1  0
 23 50  1  0
 24 51  1  0
 25 52  1  0
 31 53  1  0
 31 54  1  0
 32 55  1  0
 32 56  1  0
 33 57  1  0
 33 58  1  0
 34 59  1  0
 34 60  1  0
 35 61  1  0
 35 62  1  0
 36 63  1  0
 37 64  1  0
M  CHG  2  10  -1  21  -1
M  END
>  <UniqueID>  (52) 
49

>  <SMILES>  (52) 
COc1ccccc1C[N-]S(=O)(=O)c1cccc(C(=O)[N-]c2cccc(S(=O)(=O)N3CCCCC3)c2)c1

>  <Energy>  (52) 
74.15587047978464

>  <Genealogy>  (52) 
COc1ccccc1C[N-]S(=O)(=O)c1cccc(C(=O)[N-]c2cccc(S(=O)(=O)N3CCCCC3)c2)c1 (protonated)
COc1ccccc1C[N-]S(=O)(=O)c1cccc(C(=O)[N-]c2cccc(S(=O)(=O)N3CCCCC3)c2)c1 (3D coordinates assigned)
COc1ccccc1C[N-]S(=O)(=O)c1cccc(C(=O)[N-]c2cccc(S(=O)(=O)N3CCCCC3)c2)c1 (nonaromatic ring conformer: 74.15587047978464 kcal/mol)

>  <smiles>  (52) 
COc1ccccc1CNS(=O)(=O)c1cccc(C(=O)Nc2cccc(S(=O)(=O)N3CCCCC3)c2)c1

>  <score_type>  (52) 
oracle

>  <origin>  (52) 
adg

>  <m_score__min__energy>  (52) 
-14.41

>  <m_primary>  (52) 
energy

$$$$
52:0
     RDKit          3D

 57 60  0  0  0  0  0  0  0  0999 V2000
   56.6550   33.3850   45.2270 O   0  0  0  0  0  0  0  0  0  0  0  0
   57.8540   33.0030   45.1580 C   0  0  0  0  0  0  0  0  0  0  0  0
   58.8390   33.8650   44.5780 N   0  0  0  0  0  0  0  0  0  0  0  0
   59.4360   34.9840   45.3030 C   0  0  0  0  0  0  0  0  0  0  0  0
   60.1200   34.4840   46.5550 C   0  0  0  0  0  0  0  0  0  0  0  0
   59.5110   34.6410   47.8050 C   0  0  0  0  0  0  0  0  0  0  0  0
   60.1410   34.1660   48.9610 C   0  0  0  0  0  0  0  0  0  0  0  0
   61.3930   33.5460   48.8720 C   0  0  0  0  0  0  0  0  0  0  0  0
   62.0250   33.4120   47.6330 C   0  0  0  0  0  0  0  0  0  0  0  0
   61.3970   33.8880   46.4740 C   0  0  0  0  0  0  0  0  0  0  0  0
   58.2360   31.6570   45.6400 C   0  0  0  0  0  0  0  0  0  0  0  0
   58.7640   31.5020   46.9370 C   0  0  0  0  0  0  0  0  0  0  0  0
   59.0640   30.2310   47.4280 C   0  0  0  0  0  0  0  0  0  0  0  0
   58.8390   29.0960   46.6330 C   0  0  0  0  0  0  0  0  0  0  0  0
   59.0900   27.4890   47.3140 S   0  0  0  0  0  0  0  0  0  0  0  0
   57.7810   26.9690   47.8430 O   0  0  0  0  0  0  0  0  0  0  0  0
   60.0970   27.5300   48.4320 O   0  0  0  0  0  0  0  0  0  0  0  0
   59.6620   26.4290   46.0700 N   0  0  0  0  0  0  0  0  0  0  0  0
   58.8890   25.3610   45.4980 C   0  0  0  0  0  0  0  0  0  0  0  0
   57.7100   25.6720   44.8040 C   0  0  0  0  0  0  0  0  0  0  0  0
   56.9510   24.6620   44.2020 C   0  0  0  0  0  0  0  0  0  0  0  0
   57.3640   23.3230   44.2990 C   0  0  0  0  0  0  0  0  0  0  0  0
   56.4520   22.0380   43.5170 S   0  0  0  0  0  0  0  0  0  0  0  0
   55.5100   22.6530   42.5180 O   0  0  0  0  0  0  0  0  0  0  0  0
   57.3750   21.0900   42.7990 O   0  0  0  0  0  0  0  0  0  0  0  0
   55.5370   21.1920   44.7170 N   0  0  0  0  0  0  0  0  0  0  0  0
   55.2950   21.7680   45.9790 N   0  0  0  0  0  0  0  0  0  0  0  0
   56.2750   21.7410   46.9420 C   0  0  0  0  0  0  0  0  0  0  0  0
   57.4880   21.1070   46.6980 O   0  0  0  0  0  0  0  0  0  0  0  0
   56.0600   22.3340   48.1940 C   0  0  0  0  0  0  0  0  0  0  0  0
   57.0700   22.3070   49.1650 O   0  0  0  0  0  0  0  0  0  0  0  0
   54.8270   22.9410   48.4560 C   0  0  0  0  0  0  0  0  0  0  0  0
   53.8290   22.9460   47.4710 C   0  0  0  0  0  0  0  0  0  0  0  0
   54.0780   22.3480   46.2310 C   0  0  0  0  0  0  0  0  0  0  0  0
   53.1720   22.3610   45.3430 O   0  0  0  0  0  0  0  0  0  0  0  0
   58.5360   23.0110   44.9940 C   0  0  0  0  0  0  0  0  0  0  0  0
   59.3030   24.0170   45.5870 C   0  0  0  0  0  0  0  0  0  0  0  0
   58.3360   29.2450   45.3300 C   0  0  0  0  0  0  0  0  0  0  0  0
   58.0450   30.5170   44.8340 C   0  0  0  0  0  0  0  0  0  0  0  0
   60.1751   35.4825   44.6586 H   0  0  0  0  0  0  0  0  0  0  0  0
   58.6451   35.6951   45.5836 H   0  0  0  0  0  0  0  0  0  0  0  0
   58.5333   35.1397   47.8794 H   0  0  0  0  0  0  0  0  0  0  0  0
   59.6522   34.2799   49.9398 H   0  0  0  0  0  0  0  0  0  0  0  0
   61.8809   33.1630   49.7805 H   0  0  0  0  0  0  0  0  0  0  0  0
   63.0135   32.9339   47.5674 H   0  0  0  0  0  0  0  0  0  0  0  0
   61.8999   33.7970   45.4999 H   0  0  0  0  0  0  0  0  0  0  0  0
   58.9406   32.3873   47.5655 H   0  0  0  0  0  0  0  0  0  0  0  0
   59.4780   30.1179   48.4408 H   0  0  0  0  0  0  0  0  0  0  0  0
   57.3794   26.7187   44.7324 H   0  0  0  0  0  0  0  0  0  0  0  0
   56.0321   24.9165   43.6535 H   0  0  0  0  0  0  0  0  0  0  0  0
   57.9610   21.8570   48.9890 H   0  0  0  0  0  0  0  0  0  0  0  0
   54.6410   23.4130   49.4320 H   0  0  0  0  0  0  0  0  0  0  0  0
   52.8557   23.4175   47.6722 H   0  0  0  0  0  0  0  0  0  0  0  0
   58.8578   21.9622   45.0749 H   0  0  0  0  0  0  0  0  0  0  0  0
   60.2288   23.7602   46.1227 H   0  0  0  0  0  0  0  0  0  0  0  0
   58.1712   28.3586   44.6999 H   0  0  0  0  0  0  0  0  0  0  0  0
   57.6644   30.6301   43.8081 H   0  0  0  0  0  0  0  0  0  0  0  0
  1  2  2  0
  2  3  1  0
  3  4  1  0
  4  5  1  0
  5  6  2  0
  6  7  1  0
  7  8  2  0
  8  9  1  0
  9 10  2  0
  2 11  1  0
 11 12  2  0
 12 13  1  0
 13 14  2  0
 14 15  1  0
 15 16  2  0
 15 17  2  0
 15 18  1  0
 18 19  1  0
 19 20  2  0
 20 21  1  0
 21 22  2  0
 22 23  1  0
 23 24  2  0
 23 25  2  0
 23 26  1  0
 26 27  1  0
 27 28  1  0
 28 29  1  0
 28 30  2  0
 30 31  1  0
 30 32  1  0
 32 33  2  0
 33 34  1  0
 34 35  2  0
 22 36  1  0
 36 37  2  0
 14 38  1  0
 38 39  2  0
 10  5  1  0
 39 11  1  0
 37 19  1  0
 34 27  1  0
  4 40  1  0
  4 41  1  0
  6 42  1  0
  7 43  1  0
  8 44  1  0
  9 45  1  0
 10 46  1  0
 12 47  1  0
 13 48  1  0
 20 49  1  0
 21 50  1  0
 31 51  1  0
 32 52  1  0
 33 53  1  0
 36 54  1  0
 37 55  1  0
 38 56  1  0
 39 57  1  0
M  CHG  4   3  -1  18  -1  26  -1  29  -1
M  END
>  <UniqueID>  (53) 
50

>  <SMILES>  (53) 
O=C([N-]Cc1ccccc1)c1ccc(S(=O)(=O)[N-]c2ccc(S(=O)(=O)[N-]n3c([O-])c(O)ccc3=O)cc2)cc1

>  <Energy>  (53) 
70.25119653450531

>  <Genealogy>  (53) 
O=C([N-]Cc1ccccc1)c1ccc(S(=O)(=O)[N-]c2ccc(S(=O)(=O)[N-]n3c([O-])c(O)ccc3=O)cc2)cc1 (protonated)
O=C([N-]Cc1ccccc1)c1ccc(S(=O)(=O)[N-]c2ccc(S(=O)(=O)[N-]n3c([O-])c(O)ccc3=O)cc2)cc1 (3D coordinates assigned)
O=C([N-]Cc1ccccc1)c1ccc(S(=O)(=O)[N-]c2ccc(S(=O)(=O)[N-]n3c([O-])c(O)ccc3=O)cc2)cc1 (optimized conformer: 70.25119653450531 kcal/mol)

>  <smiles>  (53) 
O=C(NCc1ccccc1)c1ccc(S(=O)(=O)Nc2ccc(S(=O)(=O)Nn3c(O)c(O)ccc3=O)cc2)cc1

>  <score_type>  (53) 
oracle

>  <origin>  (53) 
adg

>  <m_score__min__energy>  (53) 
-16.850000000000001

>  <m_primary>  (53) 
energy

$$$$
53:0
     RDKit          3D

 56 59  0  0  0  0  0  0  0  0999 V2000
   55.5350   25.6560   47.1510 H   0  0  0  0  0  0  0  0  0  0  0  0
   55.1300   25.2980   46.2940 O   0  0  0  0  0  0  0  0  0  0  0  0
   55.8090   24.3870   45.4870 C   0  0  0  0  0  0  0  0  0  0  0  0
   55.1790   23.8570   44.3500 C   0  0  0  0  0  0  0  0  0  0  0  0
   54.1403   24.1361   44.1191 H   0  0  0  0  0  0  0  0  0  0  0  0
   55.8670   22.9750   43.5090 C   0  0  0  0  0  0  0  0  0  0  0  0
   55.3660   22.5568   42.6235 H   0  0  0  0  0  0  0  0  0  0  0  0
   57.1900   22.6250   43.7930 C   0  0  0  0  0  0  0  0  0  0  0  0
   57.7319   21.9370   43.1275 H   0  0  0  0  0  0  0  0  0  0  0  0
   57.8230   23.1480   44.9200 C   0  0  0  0  0  0  0  0  0  0  0  0
   58.8709   22.8863   45.1281 H   0  0  0  0  0  0  0  0  0  0  0  0
   57.1340   24.0050   45.7900 C   0  0  0  0  0  0  0  0  0  0  0  0
   57.8270   24.5240   46.9390 N   0  0  0  0  0  0  0  0  0  0  0  0
   58.2070   25.8910   47.1270 C   0  0  0  0  0  0  0  0  0  0  0  0
   57.3270   26.7930   47.1890 O   0  0  0  0  0  0  0  0  0  0  0  0
   59.6320   26.2140   47.3080 C   0  0  0  0  0  0  0  0  0  0  0  0
   60.2053   25.6698   48.0729 H   0  0  0  0  0  0  0  0  0  0  0  0
   60.2570   27.1470   46.5750 C   0  0  0  0  0  0  0  0  0  0  0  0
   61.2770   26.9389   46.2195 H   0  0  0  0  0  0  0  0  0  0  0  0
   59.6360   28.4460   46.2220 C   0  0  0  0  0  0  0  0  0  0  0  0
   59.2300   29.3100   47.2540 C   0  0  0  0  0  0  0  0  0  0  0  0
   59.3988   29.0231   48.3024 H   0  0  0  0  0  0  0  0  0  0  0  0
   58.6140   30.5300   46.9610 C   0  0  0  0  0  0  0  0  0  0  0  0
   58.2755   31.1825   47.7793 H   0  0  0  0  0  0  0  0  0  0  0  0
   58.4250   30.9270   45.6270 C   0  0  0  0  0  0  0  0  0  0  0  0
   57.7410   32.2060   45.3230 C   0  0  0  0  0  0  0  0  0  0  0  0
   56.5610   32.1840   44.8670 O   0  0  0  0  0  0  0  0  0  0  0  0
   58.4060   33.4730   45.4640 N   0  0  0  0  0  0  0  0  0  0  0  0
   59.3590   33.8100   46.4820 C   0  0  0  0  0  0  0  0  0  0  0  0
   58.8990   34.3300   47.6990 C   0  0  0  0  0  0  0  0  0  0  0  0
   57.8249   34.5188   47.8430 H   0  0  0  0  0  0  0  0  0  0  0  0
   59.8030   34.6110   48.7350 C   0  0  0  0  0  0  0  0  0  0  0  0
   59.4392   35.0505   49.6755 H   0  0  0  0  0  0  0  0  0  0  0  0
   61.1660   34.3340   48.5760 C   0  0  0  0  0  0  0  0  0  0  0  0
   61.8707   34.5490   49.3928 H   0  0  0  0  0  0  0  0  0  0  0  0
   61.6310   33.7830   47.3760 C   0  0  0  0  0  0  0  0  0  0  0  0
   63.3650   33.3370   47.2110 S   0  0  0  0  0  0  0  0  0  0  0  0
   63.2960   32.2170   48.6180 C   0  0  0  0  0  0  0  0  0  0  0  0
   62.1820   31.3750   48.7420 C   0  0  0  0  0  0  0  0  0  0  0  0
   61.4111   31.3710   47.9573 H   0  0  0  0  0  0  0  0  0  0  0  0
   62.0430   30.5410   49.8540 C   0  0  0  0  0  0  0  0  0  0  0  0
   61.1645   29.8851   49.9432 H   0  0  0  0  0  0  0  0  0  0  0  0
   63.0190   30.5400   50.8520 C   0  0  0  0  0  0  0  0  0  0  0  0
   62.9011   29.8946   51.7349 H   0  0  0  0  0  0  0  0  0  0  0  0
   64.1460   31.3580   50.7310 C   0  0  0  0  0  0  0  0  0  0  0  0
   64.9151   31.3483   51.5174 H   0  0  0  0  0  0  0  0  0  0  0  0
   64.3030   32.1930   49.6110 C   0  0  0  0  0  0  0  0  0  0  0  0
   65.4820   33.0030   49.5020 N   0  0  0  0  0  0  0  0  0  0  0  0
   65.9980   33.1090   48.6000 H   0  0  0  0  0  0  0  0  0  0  0  0
   65.8820   33.4770   50.3430 H   0  0  0  0  0  0  0  0  0  0  0  0
   60.7320   33.5360   46.3230 C   0  0  0  0  0  0  0  0  0  0  0  0
   61.1023   33.1272   45.3713 H   0  0  0  0  0  0  0  0  0  0  0  0
   58.8610   30.0810   44.5940 C   0  0  0  0  0  0  0  0  0  0  0  0
   58.7246   30.3854   43.5458 H   0  0  0  0  0  0  0  0  0  0  0  0
   59.4660   28.8570   44.8860 C   0  0  0  0  0  0  0  0  0  0  0  0
   59.8121   28.2095   44.0669 H   0  0  0  0  0  0  0  0  0  0  0  0
  1  2  1  0
  2  3  1  0
  3  4  2  0
  4  5  1  0
  4  6  1  0
  6  7  1  0
  6  8  2  0
  8  9  1  0
  8 10  1  0
 10 11  1  0
 10 12  2  0
 12 13  1  0
 13 14  1  0
 14 15  2  0
 14 16  1  0
 16 17  1  0
 16 18  2  0
 18 19  1  0
 18 20  1  0
 20 21  2  0
 21 22  1  0
 21 23  1  0
 23 24  1  0
 23 25  2  0
 25 26  1  0
 26 27  2  0
 26 28  1  0
 28 29  1  0
 29 30  2  0
 30 31  1  0
 30 32  1  0
 32 33  1  0
 32 34  2  0
 34 35  1  0
 34 36  1  0
 36 37  1  0
 37 38  1  0
 38 39  2  0
 39 40  1  0
 39 41  1  0
 41 42  1  0
 41 43  2  0
 43 44  1  0
 43 45  1  0
 45 46  1  0
 45 47  2  0
 47 48  1  0
 48 49  1  0
 48 50  1  0
 36 51  2  0
 51 52  1  0
 25 53  1  0
 53 54  1  0
 53 55  2  0
 55 56  1  0
 12  3  1  0
 55 20  1  0
 51 29  1  0
 47 38  1  0
M  CHG  2  13  -1  28  -1
M  END
>  <UniqueID>  (54) 
51

>  <SMILES>  (54) 
Nc1ccccc1Sc1cccc([N-]C(=O)c2ccc(/C=C/C(=O)[N-]c3ccccc3O)cc2)c1

>  <Energy>  (54) 
70.6547769544731

>  <Genealogy>  (54) 
Nc1ccccc1Sc1cccc([N-]C(=O)c2ccc(C=CC(=O)[N-]c3ccccc3O)cc2)c1 (protonated)
Nc1ccccc1Sc1cccc([N-]C(=O)c2ccc(/C=C/C(=O)[N-]c3ccccc3O)cc2)c1 (cis-trans isomerization)
Nc1ccccc1Sc1cccc([N-]C(=O)c2ccc(/C=C/C(=O)[N-]c3ccccc3O)cc2)c1 (3D coordinates assigned)
Nc1ccccc1Sc1cccc([N-]C(=O)c2ccc(/C=C/C(=O)[N-]c3ccccc3O)cc2)c1 (optimized conformer: 70.6547769544731 kcal/mol)

>  <smiles>  (54) 
Nc1ccccc1Sc1cccc(NC(=O)c2ccc(C=CC(=O)Nc3ccccc3O)cc2)c1

>  <score_type>  (54) 
oracle

>  <origin>  (54) 
adg

>  <m_score__min__energy>  (54) 
-12.699999999999999

>  <m_primary>  (54) 
energy

$$$$
54:0
     RDKit          3D

 39 41  0  0  0  0  0  0  0  0999 V2000
   59.7150   28.4520   44.8750 C   0  0  0  0  0  0  0  0  0  0  0  0
   58.6510   27.6090   45.4190 N   0  0  0  0  0  0  0  0  0  0  0  0
   57.3270   27.8720   45.4850 C   0  0  0  0  0  0  0  0  0  0  0  0
   56.6560   29.1010   45.0120 C   0  0  0  0  0  0  0  0  0  0  0  0
   55.4000   29.1810   45.0220 O   0  0  0  0  0  0  0  0  0  0  0  0
   57.4450   30.2220   44.5900 N   0  0  0  0  0  0  0  0  0  0  0  0
   57.6390   31.4510   45.3050 C   0  0  0  0  0  0  0  0  0  0  0  0
   57.0320   32.6530   44.9020 C   0  0  0  0  0  0  0  0  0  0  0  0
   57.2590   33.8310   45.6190 C   0  0  0  0  0  0  0  0  0  0  0  0
   58.1040   33.8240   46.7310 C   0  0  0  0  0  0  0  0  0  0  0  0
   58.7450   32.6400   47.1230 C   0  0  0  0  0  0  0  0  0  0  0  0
   59.6350   32.6250   48.3370 C   0  0  0  0  0  0  0  0  0  0  0  0
   61.0710   32.8150   47.9310 C   0  0  0  0  0  0  0  0  0  0  0  0
   62.0670   31.9580   48.4270 C   0  0  0  0  0  0  0  0  0  0  0  0
   63.3960   32.1130   48.0220 C   0  0  0  0  0  0  0  0  0  0  0  0
   63.7380   33.1180   47.1120 C   0  0  0  0  0  0  0  0  0  0  0  0
   62.7500   33.9670   46.6040 C   0  0  0  0  0  0  0  0  0  0  0  0
   61.4200   33.8150   47.0080 C   0  0  0  0  0  0  0  0  0  0  0  0
   58.5060   31.4570   46.4060 C   0  0  0  0  0  0  0  0  0  0  0  0
   56.7190   26.7820   46.0810 C   0  0  0  0  0  0  0  0  0  0  0  0
   55.3590   26.6520   46.3380 O   0  0  0  0  0  0  0  0  0  0  0  0
   57.6290   25.8380   46.3890 N   0  0  0  0  0  0  0  0  0  0  0  0
   58.7900   26.3810   45.9700 C   0  0  0  0  0  0  0  0  0  0  0  0
   59.8980   25.7910   46.0840 O   0  0  0  0  0  0  0  0  0  0  0  0
   60.2841   28.9029   45.7013 H   0  0  0  0  0  0  0  0  0  0  0  0
   60.3883   27.8396   44.2573 H   0  0  0  0  0  0  0  0  0  0  0  0
   59.2728   29.2475   44.2573 H   0  0  0  0  0  0  0  0  0  0  0  0
   56.3760   32.6666   44.0191 H   0  0  0  0  0  0  0  0  0  0  0  0
   56.7709   34.7660   45.3067 H   0  0  0  0  0  0  0  0  0  0  0  0
   58.2673   34.7504   47.3012 H   0  0  0  0  0  0  0  0  0  0  0  0
   59.3384   33.4388   49.0150 H   0  0  0  0  0  0  0  0  0  0  0  0
   59.5313   31.6554   48.8460 H   0  0  0  0  0  0  0  0  0  0  0  0
   61.8002   31.1614   49.1372 H   0  0  0  0  0  0  0  0  0  0  0  0
   64.1733   31.4438   48.4195 H   0  0  0  0  0  0  0  0  0  0  0  0
   64.7844   33.2407   46.7957 H   0  0  0  0  0  0  0  0  0  0  0  0
   63.0193   34.7554   45.8857 H   0  0  0  0  0  0  0  0  0  0  0  0
   60.6443   34.4807   46.6017 H   0  0  0  0  0  0  0  0  0  0  0  0
   59.0044   30.5252   46.7115 H   0  0  0  0  0  0  0  0  0  0  0  0
   54.7610   27.4690   46.3770 H   0  0  0  0  0  0  0  0  0  0  0  0
  1  2  1  0
  2  3  1  0
  3  4  1  0
  4  5  2  0
  4  6  1  0
  6  7  1  0
  7  8  2  0
  8  9  1  0
  9 10  2  0
 10 11  1  0
 11 12  1  0
 12 13  1  0
 13 14  2  0
 14 15  1  0
 15 16  2  0
 16 17  1  0
 17 18  2  0
 11 19  2  0
  3 20  2  0
 20 21  1  0
 20 22  1  0
 22 23  1  0
 23 24  2  0
 23  2  1  0
 19  7  1  0
 18 13  1  0
  1 25  1  0
  1 26  1  0
  1 27  1  0
  8 28  1  0
  9 29  1  0
 10 30  1  0
 12 31  1  0
 12 32  1  0
 14 33  1  0
 15 34  1  0
 16 35  1  0
 17 36  1  0
 18 37  1  0
 19 38  1  0
 21 39  1  0
M  CHG  2   6  -1  22  -1
M  END
>  <UniqueID>  (55) 
52

>  <SMILES>  (55) 
Cn1c(C(=O)[N-]c2cccc(Cc3ccccc3)c2)c(O)[n-]c1=O

>  <Energy>  (55) 
75.17881201694352

>  <Genealogy>  (55) 
Cn1c(C(=O)[N-]c2cccc(Cc3ccccc3)c2)c(O)[n-]c1=O (protonated)
Cn1c(C(=O)[N-]c2cccc(Cc3ccccc3)c2)c(O)[n-]c1=O (3D coordinates assigned)
Cn1c(C(=O)[N-]c2cccc(Cc3ccccc3)c2)c(O)[n-]c1=O (optimized conformer: 75.17881201694352 kcal/mol)

>  <smiles>  (55) 
Cn1c(C(=O)Nc2cccc(Cc3ccccc3)c2)c(O)[nH]c1=O

>  <score_type>  (55) 
oracle

>  <origin>  (55) 
adg

>  <m_score__min__energy>  (55) 
-13

>  <m_primary>  (55) 
energy

$$$$
55:0
     RDKit          3D

 34 36  0  0  0  0  0  0  0  0999 V2000
   52.1817   28.2844   52.8477 H   0  0  0  0  0  0  0  0  0  0  0  0
   53.2100   28.0240   53.1390 C   0  0  0  0  0  0  0  0  0  0  0  0
   53.4114   27.0742   53.6560 H   0  0  0  0  0  0  0  0  0  0  0  0
   54.2210   28.8670   52.8630 C   0  0  0  0  0  0  0  0  0  0  0  0
   54.0170   30.1770   52.3270 C   0  0  0  0  0  0  0  0  0  0  0  0
   52.8920   30.6080   51.7000 C   0  0  0  0  0  0  0  0  0  0  0  0
   52.6857   30.1934   50.7022 H   0  0  0  0  0  0  0  0  0  0  0  0
   51.9200   31.5830   52.2360 C   0  0  0  0  0  0  0  0  0  0  0  0
   51.6680   31.7810   53.5440 N   0  0  0  0  0  0  0  0  0  0  0  0
   50.6450   32.6630   53.5340 C   0  0  0  0  0  0  0  0  0  0  0  0
   50.1260   33.1110   54.5900 O   0  0  0  0  0  0  0  0  0  0  0  0
   50.2160   33.0190   52.3040 N   0  0  0  0  0  0  0  0  0  0  0  0
   51.0250   32.3170   51.4960 C   0  0  0  0  0  0  0  0  0  0  0  0
   50.9460   32.3430   50.1100 O   0  0  0  0  0  0  0  0  0  0  0  0
   55.0790   31.0940   52.4330 C   0  0  0  0  0  0  0  0  0  0  0  0
   54.9095   32.1470   52.1638 H   0  0  0  0  0  0  0  0  0  0  0  0
   56.3450   30.6960   52.8730 C   0  0  0  0  0  0  0  0  0  0  0  0
   57.4570   31.7150   52.9500 C   0  0  0  0  0  0  0  0  0  0  0  0
   57.1607   32.5211   53.6373 H   0  0  0  0  0  0  0  0  0  0  0  0
   58.3675   31.2169   53.3146 H   0  0  0  0  0  0  0  0  0  0  0  0
   57.7420   32.3100   51.5740 C   0  0  0  0  0  0  0  0  0  0  0  0
   58.2145   33.2964   51.6917 H   0  0  0  0  0  0  0  0  0  0  0  0
   58.4185   31.6433   51.0192 H   0  0  0  0  0  0  0  0  0  0  0  0
   56.7985   32.4193   51.0192 H   0  0  0  0  0  0  0  0  0  0  0  0
   56.5310   29.3590   53.2620 C   0  0  0  0  0  0  0  0  0  0  0  0
   57.8030   28.8920   53.7180 N   0  0  0  0  0  0  0  0  0  0  0  0
   58.6330   28.0870   54.6630 C   0  0  0  0  0  0  0  0  0  0  0  0
   58.7266   28.4071   55.7112 H   0  0  0  0  0  0  0  0  0  0  0  0
   58.6267   27.0322   54.9749 H   0  0  0  0  0  0  0  0  0  0  0  0
   59.2930   28.7880   53.6760 C   0  0  0  0  0  0  0  0  0  0  0  0
   59.9061   29.6602   53.9469 H   0  0  0  0  0  0  0  0  0  0  0  0
   60.0166   28.5090   52.8959 H   0  0  0  0  0  0  0  0  0  0  0  0
   55.4810   28.4950   53.2470 N   0  0  0  0  0  0  0  0  0  0  0  0
   55.6530   27.5250   53.6020 H   0  0  0  0  0  0  0  0  0  0  0  0
  1  2  1  0
  2  3  1  0
  2  4  2  0
  4  5  1  0
  5  6  2  0
  6  7  1  0
  6  8  1  0
  8  9  1  0
  9 10  1  0
 10 11  2  0
 10 12  1  0
 12 13  1  0
 13 14  1  0
  5 15  1  0
 15 16  1  0
 15 17  2  0
 17 18  1  0
 18 19  1  0
 18 20  1  0
 18 21  1  0
 21 22  1  0
 21 23  1  0
 21 24  1  0
 17 25  1  0
 25 26  1  0
 26 27  1  0
 27 28  1  0
 27 29  1  0
 27 30  1  0
 30 31  1  0
 30 32  1  0
 25 33  2  0
 33 34  1  0
 33  4  1  0
 13  8  2  0
 30 26  1  0
M  CHG  4   9  -1  12  -1  14  -1  33   1
M  END
>  <UniqueID>  (56) 
53

>  <SMILES>  (56) 
C=c1[nH+]c(N2CC2)c(CC)c/c1=C/c1[n-]c(=O)[n-]c1[O-]

>  <Energy>  (56) 
313.18024308137433

>  <Genealogy>  (56) 
C=c1[nH+]c(N2CC2)c(CC)cc1=Cc1[n-]c(=O)[n-]c1[O-] (protonated)
C=c1[nH+]c(N2CC2)c(CC)c/c1=C/c1[n-]c(=O)[n-]c1[O-] (cis-trans isomerization)
C=c1[nH+]c(N2CC2)c(CC)c/c1=C/c1[n-]c(=O)[n-]c1[O-] (3D coordinates assigned)
C=c1[nH+]c(N2CC2)c(CC)c/c1=C/c1[n-]c(=O)[n-]c1[O-] (nonaromatic ring conformer: 313.18024308137433 kcal/mol)

>  <smiles>  (56) 
C=c1nc(N2CC2)c(CC)cc1=Cc1[nH]c(=O)[nH]c1O

>  <score_type>  (56) 
oracle

>  <origin>  (56) 
adg

>  <m_score__min__energy>  (56) 
-14

>  <m_primary>  (56) 
energy

$$$$
56:0
     RDKit          3D

 55 57  0  0  0  0  0  0  0  0999 V2000
   57.0420   33.6310   45.2860 C   0  0  0  0  0  0  0  0  0  0  0  0
   57.9170   34.5940   44.9860 C   0  0  0  0  0  0  0  0  0  0  0  0
   59.3630   34.2870   44.7090 C   0  0  0  0  0  0  0  0  0  0  0  0
   60.1970   34.3250   45.9940 C   0  0  0  0  0  0  0  0  0  0  0  0
   59.7830   33.2420   46.9020 N   0  0  0  0  0  0  0  0  0  0  0  0
   59.5120   32.0100   46.3740 C   0  0  0  0  0  0  0  0  0  0  0  0
   59.0910   30.9490   47.1870 C   0  0  0  0  0  0  0  0  0  0  0  0
   58.8140   29.6090   46.6070 C   0  0  0  0  0  0  0  0  0  0  0  0
   58.0370   29.4800   45.4430 C   0  0  0  0  0  0  0  0  0  0  0  0
   57.7800   28.2210   44.8940 C   0  0  0  0  0  0  0  0  0  0  0  0
   58.2940   27.0620   45.5050 C   0  0  0  0  0  0  0  0  0  0  0  0
   58.0640   25.7720   45.0000 O   0  0  0  0  0  0  0  0  0  0  0  0
   56.7910   25.1300   44.9290 C   0  0  0  0  0  0  0  0  0  0  0  0
   55.9250   25.5270   46.0840 C   0  0  0  0  0  0  0  0  0  0  0  0
   55.8850   24.8140   47.1220 O   0  0  0  0  0  0  0  0  0  0  0  0
   55.1280   26.6610   45.9970 O   0  0  0  0  0  0  0  0  0  0  0  0
   59.0700   27.1910   46.6620 C   0  0  0  0  0  0  0  0  0  0  0  0
   59.3290   28.4480   47.2110 C   0  0  0  0  0  0  0  0  0  0  0  0
   58.9280   31.1810   48.5580 C   0  0  0  0  0  0  0  0  0  0  0  0
   59.1780   32.4470   49.1000 C   0  0  0  0  0  0  0  0  0  0  0  0
   58.9720   32.6740   50.5540 C   0  0  0  0  0  0  0  0  0  0  0  0
   59.7940   33.5650   51.2610 C   0  0  0  0  0  0  0  0  0  0  0  0
   59.5810   33.7920   52.6210 C   0  0  0  0  0  0  0  0  0  0  0  0
   58.5420   33.1390   53.2860 C   0  0  0  0  0  0  0  0  0  0  0  0
   57.7060   32.2530   52.6000 C   0  0  0  0  0  0  0  0  0  0  0  0
   56.6470   31.6130   53.3230 N   0  0  0  0  0  0  0  0  0  0  0  0
   55.8070   30.1760   52.8350 S   0  0  0  0  0  0  0  0  0  0  0  0
   55.2280   29.2850   54.2640 C   0  0  0  0  0  0  0  0  0  0  0  0
   56.7580   29.2990   52.0720 O   0  0  0  0  0  0  0  0  0  0  0  0
   54.6540   30.5340   51.9380 O   0  0  0  0  0  0  0  0  0  0  0  0
   57.9270   32.0200   51.2290 C   0  0  0  0  0  0  0  0  0  0  0  0
   59.6180   33.4780   48.2450 C   0  0  0  0  0  0  0  0  0  0  0  0
   59.8760   34.6190   48.7230 O   0  0  0  0  0  0  0  0  0  0  0  0
   55.9903   33.8856   45.4839 H   0  0  0  0  0  0  0  0  0  0  0  0
   57.3729   32.5831   45.3353 H   0  0  0  0  0  0  0  0  0  0  0  0
   57.5718   35.6374   44.9403 H   0  0  0  0  0  0  0  0  0  0  0  0
   59.4372   33.2841   44.2633 H   0  0  0  0  0  0  0  0  0  0  0  0
   59.7536   35.0497   44.0192 H   0  0  0  0  0  0  0  0  0  0  0  0
   61.2602   34.2002   45.7408 H   0  0  0  0  0  0  0  0  0  0  0  0
   60.0408   35.2920   46.4945 H   0  0  0  0  0  0  0  0  0  0  0  0
   59.6265   31.8489   45.2919 H   0  0  0  0  0  0  0  0  0  0  0  0
   57.6271   30.3790   44.9594 H   0  0  0  0  0  0  0  0  0  0  0  0
   57.1734   28.1354   43.9804 H   0  0  0  0  0  0  0  0  0  0  0  0
   56.2943   25.4187   43.9910 H   0  0  0  0  0  0  0  0  0  0  0  0
   56.9449   24.0414   44.9642 H   0  0  0  0  0  0  0  0  0  0  0  0
   59.4806   26.2918   47.1445 H   0  0  0  0  0  0  0  0  0  0  0  0
   59.9399   28.5310   48.1220 H   0  0  0  0  0  0  0  0  0  0  0  0
   58.6007   30.3615   49.2147 H   0  0  0  0  0  0  0  0  0  0  0  0
   60.6103   34.0870   50.7403 H   0  0  0  0  0  0  0  0  0  0  0  0
   60.2332   34.4870   53.1703 H   0  0  0  0  0  0  0  0  0  0  0  0
   58.3797   33.3229   54.3583 H   0  0  0  0  0  0  0  0  0  0  0  0
   55.5623   29.7994   55.1771 H   0  0  0  0  0  0  0  0  0  0  0  0
   54.1289   29.2420   54.2488 H   0  0  0  0  0  0  0  0  0  0  0  0
   55.6352   28.2632   54.2488 H   0  0  0  0  0  0  0  0  0  0  0  0
   57.2770   31.3210   50.6823 H   0  0  0  0  0  0  0  0  0  0  0  0
  1  2  2  0
  2  3  1  0
  3  4  1  0
  4  5  1  0
  5  6  1  0
  6  7  2  0
  7  8  1  0
  8  9  2  0
  9 10  1  0
 10 11  2  0
 11 12  1  0
 12 13  1  0
 13 14  1  0
 14 15  2  0
 14 16  1  0
 11 17  1  0
 17 18  2  0
  7 19  1  0
 19 20  2  0
 20 21  1  0
 21 22  2  0
 22 23  1  0
 23 24  2  0
 24 25  1  0
 25 26  1  0
 26 27  1  0
 27 28  1  0
 27 29  2  0
 27 30  2  0
 25 31  2  0
 20 32  1  0
 32 33  2  0
 32  5  1  0
 18  8  1  0
 31 21  1  0
  1 34  1  0
  1 35  1  0
  2 36  1  0
  3 37  1  0
  3 38  1  0
  4 39  1  0
  4 40  1  0
  6 41  1  0
  9 42  1  0
 10 43  1  0
 13 44  1  0
 13 45  1  0
 17 46  1  0
 18 47  1  0
 19 48  1  0
 22 49  1  0
 23 50  1  0
 24 51  1  0
 28 52  1  0
 28 53  1  0
 28 54  1  0
 31 55  1  0
M  CHG  2  16  -1  26  -1
M  END
>  <UniqueID>  (57) 
54

>  <SMILES>  (57) 
C=CCCn1cc(-c2ccc(OCC(=O)[O-])cc2)cc(-c2cccc([N-]S(C)(=O)=O)c2)c1=O

>  <Energy>  (57) 
64.21339704366193

>  <Genealogy>  (57) 
C=CCCn1cc(-c2ccc(OCC(=O)[O-])cc2)cc(-c2cccc([N-]S(C)(=O)=O)c2)c1=O (protonated)
C=CCCn1cc(-c2ccc(OCC(=O)[O-])cc2)cc(-c2cccc([N-]S(C)(=O)=O)c2)c1=O (3D coordinates assigned)
C=CCCn1cc(-c2ccc(OCC(=O)[O-])cc2)cc(-c2cccc([N-]S(C)(=O)=O)c2)c1=O (optimized conformer: 64.21339704366193 kcal/mol)

>  <smiles>  (57) 
C=CCCn1cc(-c2ccc(OCC(=O)O)cc2)cc(-c2cccc(NS(C)(=O)=O)c2)c1=O

>  <score_type>  (57) 
oracle

>  <origin>  (57) 
adg

>  <m_score__min__energy>  (57) 
-12.66

>  <m_primary>  (57) 
energy

$$$$
57:0
     RDKit          3D

 63 66  0  0  0  0  0  0  0  0999 V2000
   56.2840   31.5990   51.3400 N   0  0  0  0  0  0  0  0  0  0  0  0
   57.0110   30.5680   52.0060 C   0  0  0  0  0  0  0  0  0  0  0  0
   56.3890   29.6730   52.6390 O   0  0  0  0  0  0  0  0  0  0  0  0
   58.5070   30.5710   51.9990 C   0  0  0  0  0  0  0  0  0  0  0  0
   58.9940   30.7650   50.6370 N   0  0  0  0  0  0  0  0  0  0  0  0
   59.7860   29.9200   49.9530 C   0  0  0  0  0  0  0  0  0  0  0  0
   60.0500   30.4770   48.7200 C   0  0  0  0  0  0  0  0  0  0  0  0
   60.7150   29.7700   47.5740 C   0  0  0  0  0  0  0  0  0  0  0  0
   59.7060   29.0370   46.7850 N   0  0  0  0  0  0  0  0  0  0  0  0
   60.2460   28.6030   45.4770 C   0  0  0  0  0  0  0  0  0  0  0  0
   59.1270   27.9930   44.5890 C   0  0  0  0  0  0  0  0  0  0  0  0
   57.9600   27.5200   45.3770 N   0  0  0  0  0  0  0  0  0  0  0  0
   56.9970   28.6330   45.5770 C   0  0  0  0  0  0  0  0  0  0  0  0
   57.1540   29.6470   44.4740 C   0  0  0  0  0  0  0  0  0  0  0  0
   56.4960   29.4640   43.2460 C   0  0  0  0  0  0  0  0  0  0  0  0
   56.6380   30.4040   42.2220 C   0  0  0  0  0  0  0  0  0  0  0  0
   57.4390   31.5350   42.4140 C   0  0  0  0  0  0  0  0  0  0  0  0
   57.6190   32.7120   41.1270 Cl  0  0  0  0  0  0  0  0  0  0  0  0
   58.0970   31.7240   43.6340 C   0  0  0  0  0  0  0  0  0  0  0  0
   57.9550   30.7860   44.6600 C   0  0  0  0  0  0  0  0  0  0  0  0
   58.4520   26.8810   46.6250 C   0  0  2  0  0  0  0  0  0  0  0  0
   57.4620   25.8880   47.2960 C   0  0  0  0  0  0  0  0  0  0  0  0
   56.3540   25.2680   46.4350 C   0  0  0  0  0  0  0  0  0  0  0  0
   55.4860   26.2790   46.0060 O   0  0  0  0  0  0  0  0  0  0  0  0
   59.1440   27.9050   47.5580 C   0  0  0  0  0  0  0  0  0  0  0  0
   59.3680   31.6900   48.7280 C   0  0  0  0  0  0  0  0  0  0  0  0
   59.2670   32.6730   47.6330 C   0  0  0  0  0  0  0  0  0  0  0  0
   60.4160   33.2860   47.1030 C   0  0  0  0  0  0  0  0  0  0  0  0
   60.3020   34.2250   46.0750 C   0  0  0  0  0  0  0  0  0  0  0  0
   59.0420   34.5700   45.5770 C   0  0  0  0  0  0  0  0  0  0  0  0
   57.8940   33.9810   46.1130 C   0  0  0  0  0  0  0  0  0  0  0  0
   58.0040   33.0430   47.1430 C   0  0  0  0  0  0  0  0  0  0  0  0
   58.7350   31.8390   49.9080 N   0  0  0  0  0  0  0  0  0  0  0  0
   56.7850   32.3590   50.8290 H   0  0  0  0  0  0  0  0  0  0  0  0
   55.2400   31.6070   51.3620 H   0  0  0  0  0  0  0  0  0  0  0  0
   58.8736   31.3879   52.6379 H   0  0  0  0  0  0  0  0  0  0  0  0
   58.8742   29.6076   52.3825 H   0  0  0  0  0  0  0  0  0  0  0  0
   60.1591   28.9507   50.3154 H   0  0  0  0  0  0  0  0  0  0  0  0
   61.2157   30.5084   46.9306 H   0  0  0  0  0  0  0  0  0  0  0  0
   61.4556   29.0581   47.9673 H   0  0  0  0  0  0  0  0  0  0  0  0
   60.6815   29.4716   44.9613 H   0  0  0  0  0  0  0  0  0  0  0  0
   61.0135   27.8346   45.6516 H   0  0  0  0  0  0  0  0  0  0  0  0
   58.7841   28.7603   43.8794 H   0  0  0  0  0  0  0  0  0  0  0  0
   59.5532   27.1204   44.0723 H   0  0  0  0  0  0  0  0  0  0  0  0
   55.9714   28.2354   45.5645 H   0  0  0  0  0  0  0  0  0  0  0  0
   57.1952   29.1156   46.5454 H   0  0  0  0  0  0  0  0  0  0  0  0
   55.8658   28.5760   43.0900 H   0  0  0  0  0  0  0  0  0  0  0  0
   56.1193   30.2546   41.2635 H   0  0  0  0  0  0  0  0  0  0  0  0
   58.7273   32.6126   43.7859 H   0  0  0  0  0  0  0  0  0  0  0  0
   58.4730   30.9402   45.6181 H   0  0  0  0  0  0  0  0  0  0  0  0
   59.2515   26.1867   46.3270 H   0  0  0  0  0  0  0  0  0  0  0  0
   58.0592   25.0590   47.7036 H   0  0  0  0  0  0  0  0  0  0  0  0
   56.9211   26.5014   48.0317 H   0  0  0  0  0  0  0  0  0  0  0  0
   56.8011   24.7714   45.5612 H   0  0  0  0  0  0  0  0  0  0  0  0
   55.7959   24.5276   47.0269 H   0  0  0  0  0  0  0  0  0  0  0  0
   55.9240   26.7100   45.2270 H   0  0  0  0  0  0  0  0  0  0  0  0
   58.4064   28.2918   48.2766 H   0  0  0  0  0  0  0  0  0  0  0  0
   59.9670   27.3982   48.0832 H   0  0  0  0  0  0  0  0  0  0  0  0
   61.4084   33.0252   47.4993 H   0  0  0  0  0  0  0  0  0  0  0  0
   61.2050   34.6937   45.6567 H   0  0  0  0  0  0  0  0  0  0  0  0
   58.9545   35.3050   44.7633 H   0  0  0  0  0  0  0  0  0  0  0  0
   56.9026   34.2559   45.7238 H   0  0  0  0  0  0  0  0  0  0  0  0
   57.0969   32.5923   47.5720 H   0  0  0  0  0  0  0  0  0  0  0  0
  1  2  1  0
  2  3  2  0
  2  4  1  0
  4  5  1  0
  5  6  1  0
  6  7  2  0
  7  8  1  0
  8  9  1  0
  9 10  1  0
 10 11  1  0
 11 12  1  0
 12 13  1  0
 13 14  1  0
 14 15  2  0
 15 16  1  0
 16 17  2  0
 17 18  1  0
 17 19  1  0
 19 20  2  0
 12 21  1  0
 21 22  1  0
 22 23  1  0
 23 24  1  0
 21 25  1  0
  7 26  1  0
 26 27  1  0
 27 28  2  0
 28 29  1  0
 29 30  2  0
 30 31  1  0
 31 32  2  0
 26 33  2  0
 33  5  1  0
 25  9  1  0
 32 27  1  0
 20 14  1  0
  1 34  1  0
  1 35  1  0
  4 36  1  0
  4 37  1  0
  6 38  1  0
  8 39  1  0
  8 40  1  0
 10 41  1  0
 10 42  1  0
 11 43  1  0
 11 44  1  0
 13 45  1  0
 13 46  1  0
 15 47  1  0
 16 48  1  0
 19 49  1  0
 20 50  1  0
 21 51  1  6
 22 52  1  0
 22 53  1  0
 23 54  1  0
 23 55  1  0
 24 56  1  0
 25 57  1  0
 25 58  1  0
 28 59  1  0
 29 60  1  0
 30 61  1  0
 31 62  1  0
 32 63  1  0
M  END
>  <UniqueID>  (58) 
55

>  <SMILES>  (58) 
NC(=O)Cn1cc(CN2CCN(Cc3ccc(Cl)cc3)[C@H](CCO)C2)c(-c2ccccc2)n1

>  <Energy>  (58) 
114.6557199358599

>  <Genealogy>  (58) 
NC(=O)Cn1cc(CN2CCN(Cc3ccc(Cl)cc3)[C@H](CCO)C2)c(-c2ccccc2)n1 (chirality)
NC(=O)Cn1cc(CN2CCN(Cc3ccc(Cl)cc3)[C@H](CCO)C2)c(-c2ccccc2)n1 (3D coordinates assigned)
NC(=O)Cn1cc(CN2CCN(Cc3ccc(Cl)cc3)[C@H](CCO)C2)c(-c2ccccc2)n1 (nonaromatic ring conformer: 114.6557199358599 kcal/mol)

>  <smiles>  (58) 
NC(=O)Cn1cc(CN2CCN(Cc3ccc(Cl)cc3)C(CCO)C2)c(-c2ccccc2)n1

>  <score_type>  (58) 
oracle

>  <origin>  (58) 
adg

>  <m_score__min__energy>  (58) 
-10.720000000000001

>  <m_primary>  (58) 
energy

$$$$
58:0
     RDKit          3D

 44 46  0  0  0  0  0  0  0  0999 V2000
   57.7472   31.7742   40.7935 H   0  0  0  0  0  0  0  0  0  0  0  0
   57.4480   31.9890   41.8300 C   0  0  0  0  0  0  0  0  0  0  0  0
   57.4701   33.0225   42.2059 H   0  0  0  0  0  0  0  0  0  0  0  0
   57.0580   30.9950   42.6320 C   0  0  0  0  0  0  0  0  0  0  0  0
   57.0426   29.9681   42.2379 H   0  0  0  0  0  0  0  0  0  0  0  0
   56.6390   31.2340   44.0570 C   0  0  0  0  0  0  0  0  0  0  0  0
   56.7838   32.2970   44.3002 H   0  0  0  0  0  0  0  0  0  0  0  0
   55.5805   30.9533   44.1608 H   0  0  0  0  0  0  0  0  0  0  0  0
   57.4550   30.3920   45.0160 C   0  0  0  0  0  0  0  0  0  0  0  0
   58.0900   30.9360   46.1520 C   0  0  0  0  0  0  0  0  0  0  0  0
   57.9720   32.3750   46.4910 C   0  0  0  0  0  0  0  0  0  0  0  0
   57.1986   32.9600   45.9716 H   0  0  0  0  0  0  0  0  0  0  0  0
   58.7410   33.0150   47.3860 C   0  0  0  0  0  0  0  0  0  0  0  0
   58.2324   33.5574   48.1966 H   0  0  0  0  0  0  0  0  0  0  0  0
   60.2210   33.0470   47.3660 C   0  0  0  0  0  0  0  0  0  0  0  0
   60.9310   33.8180   46.4260 C   0  0  0  0  0  0  0  0  0  0  0  0
   60.3835   34.4073   45.6756 H   0  0  0  0  0  0  0  0  0  0  0  0
   62.3280   33.8380   46.4420 C   0  0  0  0  0  0  0  0  0  0  0  0
   62.8775   34.4284   45.6940 H   0  0  0  0  0  0  0  0  0  0  0  0
   63.0280   33.1090   47.4070 C   0  0  0  0  0  0  0  0  0  0  0  0
   64.3840   33.1300   47.4230 F   0  0  0  0  0  0  0  0  0  0  0  0
   62.3300   32.3650   48.3630 C   0  0  0  0  0  0  0  0  0  0  0  0
   62.8815   31.7968   49.1266 H   0  0  0  0  0  0  0  0  0  0  0  0
   60.9320   32.3420   48.3500 C   0  0  0  0  0  0  0  0  0  0  0  0
   60.3868   31.7688   49.1143 H   0  0  0  0  0  0  0  0  0  0  0  0
   58.8530   30.1000   46.9790 C   0  0  0  0  0  0  0  0  0  0  0  0
   59.3277   30.5226   47.8768 H   0  0  0  0  0  0  0  0  0  0  0  0
   59.0270   28.7350   46.6900 C   0  0  0  0  0  0  0  0  0  0  0  0
   59.9870   28.0790   47.3680 C   0  0  0  0  0  0  0  0  0  0  0  0
   60.5256   28.5825   48.1843 H   0  0  0  0  0  0  0  0  0  0  0  0
   60.2330   27.0394   47.1058 H   0  0  0  0  0  0  0  0  0  0  0  0
   58.2810   28.1530   45.6170 C   0  0  0  0  0  0  0  0  0  0  0  0
   58.1770   26.8240   45.3640 C   0  0  0  0  0  0  0  0  0  0  0  0
   58.7055   26.4440   44.4773 H   0  0  0  0  0  0  0  0  0  0  0  0
   57.4230   25.8390   46.1640 C   0  0  0  0  0  0  0  0  0  0  0  0
   56.0650   25.8090   46.4080 C   0  0  0  0  0  0  0  0  0  0  0  0
   55.1410   26.7600   45.9920 O   0  0  0  0  0  0  0  0  0  0  0  0
   55.7310   24.6930   47.0850 N   0  0  0  0  0  0  0  0  0  0  0  0
   56.9150   24.0570   47.2150 C   0  0  0  0  0  0  0  0  0  0  0  0
   57.0340   22.9470   47.7970 O   0  0  0  0  0  0  0  0  0  0  0  0
   57.9550   24.7100   46.6590 N   0  0  0  0  0  0  0  0  0  0  0  0
   58.9520   24.4020   46.6160 H   0  0  0  0  0  0  0  0  0  0  0  0
   57.5710   29.0180   44.7580 C   0  0  0  0  0  0  0  0  0  0  0  0
   57.0937   28.6023   43.8583 H   0  0  0  0  0  0  0  0  0  0  0  0
  1  2  1  0
  2  3  1  0
  2  4  2  0
  4  5  1  0
  4  6  1  0
  6  7  1  0
  6  8  1  0
  6  9  1  0
  9 10  1  0
 10 11  1  0
 11 12  1  0
 11 13  2  0
 13 14  1  0
 13 15  1  0
 15 16  2  0
 16 17  1  0
 16 18  1  0
 18 19  1  0
 18 20  2  0
 20 21  1  0
 20 22  1  0
 22 23  1  0
 22 24  2  0
 24 25  1  0
 10 26  2  0
 26 27  1  0
 26 28  1  0
 28 29  2  0
 29 30  1  0
 29 31  1  0
 28 32  1  0
 32 33  2  0
 33 34  1  0
 33 35  1  0
 35 36  2  0
 36 37  1  0
 36 38  1  0
 38 39  1  0
 39 40  2  0
 39 41  1  0
 41 42  1  0
 32 43  1  0
 43 44  1  0
 43  9  2  0
 24 15  1  0
 41 35  1  0
M  CHG  2  37  -1  38  -1
M  END
>  <UniqueID>  (59) 
56

>  <SMILES>  (59) 
C=CCc1c/c(=C/c2[nH]c(=O)[n-]c2[O-])c(=C)cc1/C=C\c1ccc(F)cc1

>  <Energy>  (59) 
106.849853049369

>  <Genealogy>  (59) 
C=CCc1cc(=Cc2[nH]c(=O)[n-]c2[O-])c(=C)cc1C=Cc1ccc(F)cc1 (protonated)
C=CCc1c/c(=C/c2[nH]c(=O)[n-]c2[O-])c(=C)cc1/C=C\c1ccc(F)cc1 (cis-trans isomerization)
C=CCc1c/c(=C/c2[nH]c(=O)[n-]c2[O-])c(=C)cc1/C=C\c1ccc(F)cc1 (3D coordinates assigned)
C=CCc1c/c(=C/c2[nH]c(=O)[n-]c2[O-])c(=C)cc1/C=C\c1ccc(F)cc1 (optimized conformer: 106.849853049369 kcal/mol)

>  <smiles>  (59) 
C=CCc1cc(=Cc2[nH]c(=O)[nH]c2O)c(=C)cc1C=Cc1ccc(F)cc1

>  <score_type>  (59) 
oracle

>  <origin>  (59) 
adg

>  <m_score__min__energy>  (59) 
-15.210000000000001

>  <m_primary>  (59) 
energy

$$$$
59:0
     RDKit          3D

 28 29  0  0  0  0  0  0  0  0999 V2000
   55.5350   30.0880   44.0200 C   0  0  0  0  0  0  0  0  0  0  0  0
   56.8720   29.5460   43.5190 C   0  0  0  0  0  0  0  0  0  0  0  0
   57.8220   29.2930   44.6710 C   0  0  0  0  0  0  0  0  0  0  0  0
   58.3090   30.4080   45.3770 C   0  0  0  0  0  0  0  0  0  0  0  0
   59.2210   30.2520   46.4220 C   0  0  0  0  0  0  0  0  0  0  0  0
   59.6640   28.9790   46.7770 C   0  0  0  0  0  0  0  0  0  0  0  0
   59.1960   27.8590   46.0900 C   0  0  0  0  0  0  0  0  0  0  0  0
   58.2700   27.9920   45.0380 C   0  0  0  0  0  0  0  0  0  0  0  0
   57.8020   26.7370   44.3330 C   0  0  0  0  0  0  0  0  0  0  0  0
   57.2920   25.7200   45.3150 C   0  0  0  0  0  0  0  0  0  0  0  0
   58.1470   24.3410   45.7800 S   0  0  0  0  0  0  0  0  0  0  0  0
   56.9580   23.8550   46.8600 C   0  0  0  0  0  0  0  0  0  0  0  0
   57.0190   22.8130   47.5610 O   0  0  0  0  0  0  0  0  0  0  0  0
   55.9180   24.7120   46.9040 N   0  0  0  0  0  0  0  0  0  0  0  0
   56.0990   25.7580   46.0540 C   0  0  0  0  0  0  0  0  0  0  0  0
   55.1430   26.7670   45.9590 O   0  0  0  0  0  0  0  0  0  0  0  0
   55.5293   30.0903   45.1200 H   0  0  0  0  0  0  0  0  0  0  0  0
   55.3938   31.1144   43.6504 H   0  0  0  0  0  0  0  0  0  0  0  0
   54.7189   29.4497   43.6504 H   0  0  0  0  0  0  0  0  0  0  0  0
   56.6987   28.6018   42.9819 H   0  0  0  0  0  0  0  0  0  0  0  0
   57.3241   30.2931   42.8500 H   0  0  0  0  0  0  0  0  0  0  0  0
   57.9664   31.4164   45.1018 H   0  0  0  0  0  0  0  0  0  0  0  0
   59.5903   31.1341   46.9657 H   0  0  0  0  0  0  0  0  0  0  0  0
   60.3836   28.8575   47.6000 H   0  0  0  0  0  0  0  0  0  0  0  0
   59.5551   26.8588   46.3739 H   0  0  0  0  0  0  0  0  0  0  0  0
   56.9934   26.9982   43.6345 H   0  0  0  0  0  0  0  0  0  0  0  0
   58.6558   26.3020   43.7928 H   0  0  0  0  0  0  0  0  0  0  0  0
   55.1610   27.4730   45.2360 H   0  0  0  0  0  0  0  0  0  0  0  0
  1  2  1  0
  2  3  1  0
  3  4  2  0
  4  5  1  0
  5  6  2  0
  6  7  1  0
  7  8  2  0
  8  9  1  0
  9 10  1  0
 10 11  1  0
 11 12  1  0
 12 13  2  0
 12 14  1  0
 14 15  1  0
 15 16  1  0
  8  3  1  0
 15 10  2  0
  1 17  1  0
  1 18  1  0
  1 19  1  0
  2 20  1  0
  2 21  1  0
  4 22  1  0
  5 23  1  0
  6 24  1  0
  7 25  1  0
  9 26  1  0
  9 27  1  0
 16 28  1  0
M  CHG  1  14  -1
M  END
>  <UniqueID>  (60) 
57

>  <SMILES>  (60) 
CCc1ccccc1Cc1sc(=O)[n-]c1O

>  <Energy>  (60) 
57.23161291671252

>  <Genealogy>  (60) 
CCc1ccccc1Cc1sc(=O)[n-]c1O (protonated)
CCc1ccccc1Cc1sc(=O)[n-]c1O (3D coordinates assigned)
CCc1ccccc1Cc1sc(=O)[n-]c1O (optimized conformer: 57.23161291671252 kcal/mol)

>  <smiles>  (60) 
CCc1ccccc1Cc1sc(=O)[nH]c1O

>  <score_type>  (60) 
oracle

>  <origin>  (60) 
adg

>  <m_score__min__energy>  (60) 
-9.5399999999999991

>  <m_primary>  (60) 
energy

$$$$
60:0
     RDKit          3D

 19 20  0  0  0  0  0  0  0  0999 V2000
   57.3910   23.1310   47.3500 O   0  0  0  0  0  0  0  0  0  0  0  0
   57.0560   24.2590   46.9010 C   0  0  0  0  0  0  0  0  0  0  0  0
   55.7800   24.6650   46.7920 N   0  0  0  0  0  0  0  0  0  0  0  0
   55.8840   25.9000   46.2790 C   0  0  0  0  0  0  0  0  0  0  0  0
   54.7870   26.7050   45.9980 O   0  0  0  0  0  0  0  0  0  0  0  0
   57.2260   26.2090   46.0890 C   0  0  0  0  0  0  0  0  0  0  0  0
   57.8520   27.4440   45.5510 C   0  0  0  0  0  0  0  0  0  0  0  0
   59.2430   27.5710   45.3730 C   0  0  0  0  0  0  0  0  0  0  0  0
   59.7880   28.7540   44.8620 C   0  0  0  0  0  0  0  0  0  0  0  0
   58.9550   29.8220   44.5230 C   0  0  0  0  0  0  0  0  0  0  0  0
   57.5750   29.7100   44.6940 C   0  0  0  0  0  0  0  0  0  0  0  0
   57.0250   28.5300   45.2040 C   0  0  0  0  0  0  0  0  0  0  0  0
   57.9180   25.1610   46.4880 O   0  0  0  0  0  0  0  0  0  0  0  0
   54.9110   24.1430   47.0470 H   0  0  0  0  0  0  0  0  0  0  0  0
   59.9060   26.7341   45.6376 H   0  0  0  0  0  0  0  0  0  0  0  0
   60.8760   28.8429   44.7269 H   0  0  0  0  0  0  0  0  0  0  0  0
   59.3864   30.7508   44.1215 H   0  0  0  0  0  0  0  0  0  0  0  0
   56.9185   30.5513   44.4272 H   0  0  0  0  0  0  0  0  0  0  0  0
   55.9359   28.4491   45.3355 H   0  0  0  0  0  0  0  0  0  0  0  0
  1  2  2  0
  2  3  1  0
  3  4  1  0
  4  5  1  0
  4  6  2  0
  6  7  1  0
  7  8  2  0
  8  9  1  0
  9 10  2  0
 10 11  1  0
 11 12  2  0
  6 13  1  0
 13  2  1  0
 12  7  1  0
  3 14  1  0
  8 15  1  0
  9 16  1  0
 10 17  1  0
 11 18  1  0
 12 19  1  0
M  CHG  1   5  -1
M  END
>  <UniqueID>  (61) 
58

>  <SMILES>  (61) 
O=c1[nH]c([O-])c(-c2ccccc2)o1

>  <Energy>  (61) 
56.06445387045168

>  <Genealogy>  (61) 
O=c1[nH]c([O-])c(-c2ccccc2)o1 (protonated)
O=c1[nH]c([O-])c(-c2ccccc2)o1 (3D coordinates assigned)
O=c1[nH]c([O-])c(-c2ccccc2)o1 (optimized conformer: 56.06445387045168 kcal/mol)

>  <smiles>  (61) 
O=c1[nH]c(O)c(-c2ccccc2)o1

>  <score_type>  (61) 
oracle

>  <origin>  (61) 
adg

>  <m_score__min__energy>  (61) 
-9.5700000000000003

>  <m_primary>  (61) 
energy

$$$$
61:0
     RDKit          3D

 47 49  0  0  0  0  0  0  0  0999 V2000
   58.3640   34.3850   45.5340 C   0  0  0  0  0  0  0  0  0  0  0  0
   59.4320   33.9450   46.4910 C   0  0  0  0  0  0  0  0  0  0  0  0
   60.7860   34.0860   46.1510 C   0  0  0  0  0  0  0  0  0  0  0  0
   61.7890   33.7230   47.0630 C   0  0  0  0  0  0  0  0  0  0  0  0
   63.2350   33.8360   46.6800 C   0  0  0  0  0  0  0  0  0  0  0  0
   61.4300   33.1950   48.3120 C   0  0  0  0  0  0  0  0  0  0  0  0
   60.0790   33.0630   48.6630 C   0  0  0  0  0  0  0  0  0  0  0  0
   59.6200   32.4440   50.2480 S   0  0  0  0  0  0  0  0  0  0  0  0
   60.2590   33.3060   51.3020 O   0  0  0  0  0  0  0  0  0  0  0  0
   58.1270   32.5200   50.4060 O   0  0  0  0  0  0  0  0  0  0  0  0
   60.1690   30.7860   50.4020 N   0  0  0  0  0  0  0  0  0  0  0  0
   59.0510   29.8290   50.2420 C   0  0  0  0  0  0  0  0  0  0  0  0
   58.5210   29.7910   48.7980 C   0  0  0  0  0  0  0  0  0  0  0  0
   59.6250   29.8770   47.8330 N   0  0  0  0  0  0  0  0  0  0  0  0
   59.4030   30.4290   46.5200 C   0  0  0  0  0  0  0  0  0  0  0  0
   60.2810   31.1720   46.0010 O   0  0  0  0  0  0  0  0  0  0  0  0
   58.1540   30.1690   45.7730 C   0  0  0  0  0  0  0  0  0  0  0  0
   57.6870   31.0920   44.8260 C   0  0  0  0  0  0  0  0  0  0  0  0
   56.5120   30.8350   44.1170 C   0  0  0  0  0  0  0  0  0  0  0  0
   55.8180   29.6470   44.3500 C   0  0  0  0  0  0  0  0  0  0  0  0
   54.7560   29.3980   43.7210 O   0  0  0  0  0  0  0  0  0  0  0  0
   56.2920   28.7500   45.2560 N   0  0  0  0  0  0  0  0  0  0  0  0
   57.4310   28.9800   45.9620 C   0  0  0  0  0  0  0  0  0  0  0  0
   60.9830   29.6040   48.3050 C   0  0  0  0  0  0  0  0  0  0  0  0
   61.3250   30.5120   49.5000 C   0  0  0  0  0  0  0  0  0  0  0  0
   59.0850   33.4520   47.7570 C   0  0  0  0  0  0  0  0  0  0  0  0
   57.4912   34.7446   46.0987 H   0  0  0  0  0  0  0  0  0  0  0  0
   58.7509   35.1970   44.9008 H   0  0  0  0  0  0  0  0  0  0  0  0
   58.0667   33.5361   44.9008 H   0  0  0  0  0  0  0  0  0  0  0  0
   61.0630   34.4835   45.1635 H   0  0  0  0  0  0  0  0  0  0  0  0
   63.8524   33.8842   47.5891 H   0  0  0  0  0  0  0  0  0  0  0  0
   63.5264   32.9579   46.0850 H   0  0  0  0  0  0  0  0  0  0  0  0
   63.3865   34.7487   46.0850 H   0  0  0  0  0  0  0  0  0  0  0  0
   62.2123   32.8830   49.0196 H   0  0  0  0  0  0  0  0  0  0  0  0
   60.5080   30.6910   51.3890 H   0  0  0  0  0  0  0  0  0  0  0  0
   59.4031   28.8237   50.5168 H   0  0  0  0  0  0  0  0  0  0  0  0
   58.2290   30.1575   50.8950 H   0  0  0  0  0  0  0  0  0  0  0  0
   57.9759   28.8489   48.6389 H   0  0  0  0  0  0  0  0  0  0  0  0
   57.8527   30.6514   48.6457 H   0  0  0  0  0  0  0  0  0  0  0  0
   58.2476   32.0203   44.6414 H   0  0  0  0  0  0  0  0  0  0  0  0
   56.1369   31.5621   43.3817 H   0  0  0  0  0  0  0  0  0  0  0  0
   57.7878   28.2313   46.6846 H   0  0  0  0  0  0  0  0  0  0  0  0
   61.0543   28.5515   48.6167 H   0  0  0  0  0  0  0  0  0  0  0  0
   61.6928   29.8037   47.4887 H   0  0  0  0  0  0  0  0  0  0  0  0
   62.1162   30.0254   50.0893 H   0  0  0  0  0  0  0  0  0  0  0  0
   61.6420   31.4800   49.0847 H   0  0  0  0  0  0  0  0  0  0  0  0
   58.0252   33.3704   48.0401 H   0  0  0  0  0  0  0  0  0  0  0  0
  1  2  1  0
  2  3  2  0
  3  4  1  0
  4  5  1  0
  4  6  2  0
  6  7  1  0
  7  8  1  0
  8  9  2  0
  8 10  2  0
  8 11  1  0
 11 12  1  0
 12 13  1  0
 13 14  1  0
 14 15  1  0
 15 16  2  0
 15 17  1  0
 17 18  1  0
 18 19  2  0
 19 20  1  0
 20 21  2  0
 20 22  1  0
 22 23  1  0
 14 24  1  0
 24 25  1  0
  7 26  2  0
 26  2  1  0
 25 11  1  0
 23 17  2  0
  1 27  1  0
  1 28  1  0
  1 29  1  0
  3 30  1  0
  5 31  1  0
  5 32  1  0
  5 33  1  0
  6 34  1  0
 11 35  1  0
 12 36  1  0
 12 37  1  0
 13 38  1  0
 13 39  1  0
 18 40  1  0
 19 41  1  0
 23 42  1  0
 24 43  1  0
 24 44  1  0
 25 45  1  0
 25 46  1  0
 26 47  1  0
M  CHG  2  11   1  22  -1
M  END
>  <UniqueID>  (62) 
59

>  <SMILES>  (62) 
Cc1cc(C)cc(S(=O)(=O)[NH+]2CCN(C(=O)c3ccc(=O)[n-]c3)CC2)c1

>  <Energy>  (62) 
59.43717049139253

>  <Genealogy>  (62) 
Cc1cc(C)cc(S(=O)(=O)[NH+]2CCN(C(=O)c3ccc(=O)[n-]c3)CC2)c1 (protonated)
Cc1cc(C)cc(S(=O)(=O)[NH+]2CCN(C(=O)c3ccc(=O)[n-]c3)CC2)c1 (3D coordinates assigned)
Cc1cc(C)cc(S(=O)(=O)[NH+]2CCN(C(=O)c3ccc(=O)[n-]c3)CC2)c1 (nonaromatic ring conformer: 59.43717049139253 kcal/mol)

>  <smiles>  (62) 
Cc1cc(C)cc(S(=O)(=O)N2CCN(C(=O)c3ccc(=O)[nH]c3)CC2)c1

>  <score_type>  (62) 
oracle

>  <origin>  (62) 
adg

>  <m_score__min__energy>  (62) 
-8.8800000000000008

>  <m_primary>  (62) 
energy

$$$$
62:0
     RDKit          3D

 40 42  0  0  0  0  0  0  0  0999 V2000
   54.0210   26.3410   46.4100 H   0  0  0  0  0  0  0  0  0  0  0  0
   54.8840   26.0020   45.9270 N   0  0  0  0  0  0  0  0  0  0  0  0
   56.0070   26.6340   46.0290 C   0  0  0  0  0  0  0  0  0  0  0  0
   56.1630   27.8340   45.4190 N   0  0  0  0  0  0  0  0  0  0  0  0
   57.3270   28.5340   45.4980 C   0  0  0  0  0  0  0  0  0  0  0  0
   57.4210   29.7970   44.7310 C   0  0  0  0  0  0  0  0  0  0  0  0
   57.0380   29.8230   43.3810 C   0  0  0  0  0  0  0  0  0  0  0  0
   56.6512   28.9105   42.9038 H   0  0  0  0  0  0  0  0  0  0  0  0
   57.1460   31.0040   42.6400 C   0  0  0  0  0  0  0  0  0  0  0  0
   56.8370   31.0205   41.5844 H   0  0  0  0  0  0  0  0  0  0  0  0
   57.6460   32.1630   43.2390 C   0  0  0  0  0  0  0  0  0  0  0  0
   57.7187   33.0945   42.6585 H   0  0  0  0  0  0  0  0  0  0  0  0
   58.0540   32.1390   44.5760 C   0  0  0  0  0  0  0  0  0  0  0  0
   58.4539   33.0500   45.0451 H   0  0  0  0  0  0  0  0  0  0  0  0
   57.9540   30.9580   45.3170 C   0  0  0  0  0  0  0  0  0  0  0  0
   58.2938   30.9372   46.3630 H   0  0  0  0  0  0  0  0  0  0  0  0
   58.3990   28.0080   46.2610 C   0  0  0  0  0  0  0  0  0  0  0  0
   59.6670   28.7400   46.5060 C   0  0  0  0  0  0  0  0  0  0  0  0
   60.3490   29.1560   45.5310 O   0  0  0  0  0  0  0  0  0  0  0  0
   60.1440   28.9360   47.8400 N   0  0  0  0  0  0  0  0  0  0  0  0
   60.6630   30.2110   48.3200 C   0  0  0  0  0  0  0  0  0  0  0  0
   61.1970   30.0522   49.2685 H   0  0  0  0  0  0  0  0  0  0  0  0
   61.3500   30.6254   47.5674 H   0  0  0  0  0  0  0  0  0  0  0  0
   59.5160   31.1960   48.5450 C   0  0  0  0  0  0  0  0  0  0  0  0
   58.5693   30.7138   48.2600 H   0  0  0  0  0  0  0  0  0  0  0  0
   59.5063   31.4784   49.6081 H   0  0  0  0  0  0  0  0  0  0  0  0
   59.6950   32.4460   47.7250 C   0  0  0  0  0  0  0  0  0  0  0  0
   60.9230   32.7120   47.0960 C   0  0  0  0  0  0  0  0  0  0  0  0
   61.7485   31.9899   47.1799 H   0  0  0  0  0  0  0  0  0  0  0  0
   61.1010   33.8900   46.3640 C   0  0  0  0  0  0  0  0  0  0  0  0
   62.0622   34.0891   45.8676 H   0  0  0  0  0  0  0  0  0  0  0  0
   60.0570   34.8150   46.2630 C   0  0  0  0  0  0  0  0  0  0  0  0
   60.1974   35.7416   45.6871 H   0  0  0  0  0  0  0  0  0  0  0  0
   58.8360   34.5630   46.8930 C   0  0  0  0  0  0  0  0  0  0  0  0
   58.0164   35.2924   46.8139 H   0  0  0  0  0  0  0  0  0  0  0  0
   58.6540   33.3850   47.6240 C   0  0  0  0  0  0  0  0  0  0  0  0
   57.6923   33.1924   48.1220 H   0  0  0  0  0  0  0  0  0  0  0  0
   58.2160   26.7510   46.8600 C   0  0  0  0  0  0  0  0  0  0  0  0
   59.0365   26.2936   47.4324 H   0  0  0  0  0  0  0  0  0  0  0  0
   57.0330   26.0970   46.7370 N   0  0  0  0  0  0  0  0  0  0  0  0
  1  2  1  0
  2  3  2  0
  3  4  1  0
  4  5  2  0
  5  6  1  0
  6  7  2  0
  7  8  1  0
  7  9  1  0
  9 10  1  0
  9 11  2  0
 11 12  1  0
 11 13  1  0
 13 14  1  0
 13 15  2  0
 15 16  1  0
  5 17  1  0
 17 18  1  0
 18 19  2  0
 18 20  1  0
 20 21  1  0
 21 22  1  0
 21 23  1  0
 21 24  1  0
 24 25  1  0
 24 26  1  0
 24 27  1  0
 27 28  2  0
 28 29  1  0
 28 30  1  0
 30 31  1  0
 30 32  2  0
 32 33  1  0
 32 34  1  0
 34 35  1  0
 34 36  2  0
 36 37  1  0
 17 38  2  0
 38 39  1  0
 38 40  1  0
 40  3  1  0
 15  6  1  0
 36 27  1  0
M  CHG  2  20  -1  40  -1
M  END
>  <UniqueID>  (63) 
60

>  <SMILES>  (63) 
[H]/N=c1/nc(-c2ccccc2)c(C(=O)[N-]CCc2ccccc2)c[n-]1

>  <Energy>  (63) 
46.17270283929555

>  <Genealogy>  (63) 
N=c1nc(-c2ccccc2)c(C(=O)[N-]CCc2ccccc2)c[n-]1 (protonated)
[H]/N=c1/nc(-c2ccccc2)c(C(=O)[N-]CCc2ccccc2)c[n-]1 (cis-trans isomerization)
[H]/N=c1/nc(-c2ccccc2)c(C(=O)[N-]CCc2ccccc2)c[n-]1 (3D coordinates assigned)
[H]/N=c1/nc(-c2ccccc2)c(C(=O)[N-]CCc2ccccc2)c[n-]1 (optimized conformer: 46.17270283929555 kcal/mol)

>  <smiles>  (63) 
N=c1nc(-c2ccccc2)c(C(=O)NCCc2ccccc2)c[nH]1

>  <score_type>  (63) 
oracle

>  <origin>  (63) 
adg

>  <m_score__min__energy>  (63) 
-11.050000000000001

>  <m_primary>  (63) 
energy

$$$$
63:0
     RDKit          3D

 36 37  0  0  0  0  0  0  0  0999 V2000
   54.7400   26.2620   45.9640 O   0  0  0  0  0  0  0  0  0  0  0  0
   55.9370   26.4210   46.3230 C   0  0  0  0  0  0  0  0  0  0  0  0
   56.7610   27.4960   45.6810 C   0  0  0  0  0  0  0  0  0  0  0  0
   55.9260   28.6120   45.2310 N   0  0  0  0  0  0  0  0  0  0  0  0
   56.7710   29.6310   44.0990 S   0  0  0  0  0  0  0  0  0  0  0  0
   55.8230   30.1480   43.0530 O   0  0  0  0  0  0  0  0  0  0  0  0
   57.8070   28.7980   43.3990 O   0  0  0  0  0  0  0  0  0  0  0  0
   57.5990   30.9500   44.9470 C   0  0  0  0  0  0  0  0  0  0  0  0
   57.0320   32.2330   44.8670 C   0  0  0  0  0  0  0  0  0  0  0  0
   57.6320   33.3190   45.5070 C   0  0  0  0  0  0  0  0  0  0  0  0
   58.8150   33.1410   46.2210 C   0  0  0  0  0  0  0  0  0  0  0  0
   59.4000   31.8770   46.3000 C   0  0  0  0  0  0  0  0  0  0  0  0
   58.8040   30.7750   45.6720 C   0  0  0  0  0  0  0  0  0  0  0  0
   59.7080   29.0920   45.8380 Br  0  0  0  0  0  0  0  0  0  0  0  0
   56.5210   25.5420   47.2890 N   0  0  0  0  0  0  0  0  0  0  0  0
   57.3590   24.4090   46.9200 C   0  0  0  0  0  0  0  0  0  0  0  0
   56.8590   23.8040   45.6350 C   0  0  0  0  0  0  0  0  0  0  0  0
   57.7750   23.5240   44.6050 C   0  0  0  0  0  0  0  0  0  0  0  0
   57.3370   22.9890   43.3910 C   0  0  0  0  0  0  0  0  0  0  0  0
   55.9830   22.7220   43.1920 C   0  0  0  0  0  0  0  0  0  0  0  0
   55.0620   22.9830   44.2090 C   0  0  0  0  0  0  0  0  0  0  0  0
   55.4860   23.5200   45.4320 C   0  0  0  0  0  0  0  0  0  0  0  0
   54.5240   23.7560   46.4160 O   0  0  0  0  0  0  0  0  0  0  0  0
   57.4942   27.8692   46.4112 H   0  0  0  0  0  0  0  0  0  0  0  0
   57.2676   27.0668   44.8040 H   0  0  0  0  0  0  0  0  0  0  0  0
   56.1052   32.3834   44.2939 H   0  0  0  0  0  0  0  0  0  0  0  0
   57.1705   34.3157   45.4475 H   0  0  0  0  0  0  0  0  0  0  0  0
   59.2882   33.9979   46.7229 H   0  0  0  0  0  0  0  0  0  0  0  0
   60.3373   31.7441   46.8601 H   0  0  0  0  0  0  0  0  0  0  0  0
   58.3959   24.7502   46.7841 H   0  0  0  0  0  0  0  0  0  0  0  0
   57.3201   23.6526   47.7177 H   0  0  0  0  0  0  0  0  0  0  0  0
   58.8452   23.7280   44.7566 H   0  0  0  0  0  0  0  0  0  0  0  0
   58.0616   22.7780   42.5907 H   0  0  0  0  0  0  0  0  0  0  0  0
   55.6400   22.3055   42.2334 H   0  0  0  0  0  0  0  0  0  0  0  0
   53.9957   22.7654   44.0488 H   0  0  0  0  0  0  0  0  0  0  0  0
   54.6260   24.4620   47.1330 H   0  0  0  0  0  0  0  0  0  0  0  0
  1  2  2  0
  2  3  1  0
  3  4  1  0
  4  5  1  0
  5  6  2  0
  5  7  2  0
  5  8  1  0
  8  9  2  0
  9 10  1  0
 10 11  2  0
 11 12  1  0
 12 13  2  0
 13 14  1  0
  2 15  1  0
 15 16  1  0
 16 17  1  0
 17 18  2  0
 18 19  1  0
 19 20  2  0
 20 21  1  0
 21 22  2  0
 22 23  1  0
 13  8  1  0
 22 17  1  0
  3 24  1  0
  3 25  1  0
  9 26  1  0
 10 27  1  0
 11 28  1  0
 12 29  1  0
 16 30  1  0
 16 31  1  0
 18 32  1  0
 19 33  1  0
 20 34  1  0
 21 35  1  0
 23 36  1  0
M  CHG  2   4  -1  15  -1
M  END
>  <UniqueID>  (64) 
61

>  <SMILES>  (64) 
O=C(C[N-]S(=O)(=O)c1ccccc1Br)[N-]Cc1ccccc1O

>  <Energy>  (64) 
33.79453620360654

>  <Genealogy>  (64) 
O=C(C[N-]S(=O)(=O)c1ccccc1Br)[N-]Cc1ccccc1O (protonated)
O=C(C[N-]S(=O)(=O)c1ccccc1Br)[N-]Cc1ccccc1O (3D coordinates assigned)
O=C(C[N-]S(=O)(=O)c1ccccc1Br)[N-]Cc1ccccc1O (optimized conformer: 33.79453620360654 kcal/mol)

>  <smiles>  (64) 
O=C(CNS(=O)(=O)c1ccccc1Br)NCc1ccccc1O

>  <score_type>  (64) 
oracle

>  <origin>  (64) 
adg

>  <m_score__min__energy>  (64) 
-12.390000000000001

>  <m_primary>  (64) 
energy

$$$$
64:0
     RDKit          3D

 51 54  0  0  0  0  0  0  0  0999 V2000
   59.7320   33.6840   49.3510 C   0  0  0  0  0  0  0  0  0  0  0  0
   59.7380   32.1800   49.3520 C   0  0  0  0  0  0  0  0  0  0  0  0
   58.8100   31.4830   50.1370 C   0  0  0  0  0  0  0  0  0  0  0  0
   58.7890   30.0840   50.1410 C   0  0  0  0  0  0  0  0  0  0  0  0
   59.6850   29.3600   49.3520 C   0  0  0  0  0  0  0  0  0  0  0  0
   59.6110   27.9270   49.3550 N   0  0  0  0  0  0  0  0  0  0  0  0
   59.6270   26.9280   47.9340 S   0  0  0  0  0  0  0  0  0  0  0  0
   58.5310   25.9050   48.0360 O   0  0  0  0  0  0  0  0  0  0  0  0
   60.9450   26.2070   47.8320 O   0  0  0  0  0  0  0  0  0  0  0  0
   59.3530   27.9250   46.5050 C   0  0  0  0  0  0  0  0  0  0  0  0
   60.3980   28.1890   45.6090 C   0  0  0  0  0  0  0  0  0  0  0  0
   60.1830   29.0130   44.5030 C   0  0  0  0  0  0  0  0  0  0  0  0
   58.9180   29.5610   44.2710 C   0  0  0  0  0  0  0  0  0  0  0  0
   57.8540   29.2730   45.1390 C   0  0  0  0  0  0  0  0  0  0  0  0
   56.5060   29.8180   44.8680 C   0  0  0  0  0  0  0  0  0  0  0  0
   55.5080   29.0510   44.9420 O   0  0  0  0  0  0  0  0  0  0  0  0
   56.2930   31.1900   44.4970 N   0  0  0  0  0  0  0  0  0  0  0  0
   57.0310   32.2020   44.8480 C   0  0  0  0  0  0  0  0  0  0  0  0
   57.0150   32.7660   46.0730 N   0  0  0  0  0  0  0  0  0  0  0  0
   57.8570   33.8310   46.1440 C   0  0  0  0  0  0  0  0  0  0  0  0
   58.5360   34.1240   44.9680 C   0  0  0  0  0  0  0  0  0  0  0  0
   58.0670   33.0050   43.8020 S   0  0  0  0  0  0  0  0  0  0  0  0
   58.0840   28.4710   46.2690 C   0  0  0  0  0  0  0  0  0  0  0  0
   60.6220   30.0530   48.5700 C   0  0  0  0  0  0  0  0  0  0  0  0
   60.6430   31.4520   48.5510 C   0  0  0  0  0  0  0  0  0  0  0  0
   61.5920   32.1140   47.7050 N   0  0  0  0  0  0  0  0  0  0  0  0
   63.0280   32.0230   47.9700 C   0  0  0  0  0  0  0  0  0  0  0  0
   63.6610   33.4060   47.7800 C   0  0  0  0  0  0  0  0  0  0  0  0
   63.3160   33.9490   46.5170 O   0  0  0  0  0  0  0  0  0  0  0  0
   61.9200   34.1860   46.4580 C   0  0  0  0  0  0  0  0  0  0  0  0
   61.1420   32.8680   46.5360 C   0  0  0  0  0  0  0  0  0  0  0  0
   59.7305   34.0513   50.3878 H   0  0  0  0  0  0  0  0  0  0  0  0
   60.6287   34.0539   48.8322 H   0  0  0  0  0  0  0  0  0  0  0  0
   58.8324   34.0467   48.8322 H   0  0  0  0  0  0  0  0  0  0  0  0
   58.0915   32.0407   50.7557 H   0  0  0  0  0  0  0  0  0  0  0  0
   58.0613   29.5506   50.7703 H   0  0  0  0  0  0  0  0  0  0  0  0
   61.3904   27.7456   45.7779 H   0  0  0  0  0  0  0  0  0  0  0  0
   61.0108   29.2316   43.8124 H   0  0  0  0  0  0  0  0  0  0  0  0
   58.7563   30.2200   43.4052 H   0  0  0  0  0  0  0  0  0  0  0  0
   57.9908   34.4176   47.0649 H   0  0  0  0  0  0  0  0  0  0  0  0
   59.2547   34.9442   44.8241 H   0  0  0  0  0  0  0  0  0  0  0  0
   57.2630   28.2702   46.9731 H   0  0  0  0  0  0  0  0  0  0  0  0
   61.3481   29.4900   47.9652 H   0  0  0  0  0  0  0  0  0  0  0  0
   63.1912   31.6818   49.0029 H   0  0  0  0  0  0  0  0  0  0  0  0
   63.4887   31.3056   47.2749 H   0  0  0  0  0  0  0  0  0  0  0  0
   63.3012   34.0790   48.5722 H   0  0  0  0  0  0  0  0  0  0  0  0
   64.7549   33.3029   47.8322 H   0  0  0  0  0  0  0  0  0  0  0  0
   61.6270   34.8285   47.3014 H   0  0  0  0  0  0  0  0  0  0  0  0
   61.6854   34.6786   45.5029 H   0  0  0  0  0  0  0  0  0  0  0  0
   60.0665   33.0802   46.6265 H   0  0  0  0  0  0  0  0  0  0  0  0
   61.3201   32.2786   45.6244 H   0  0  0  0  0  0  0  0  0  0  0  0
  1  2  1  0
  2  3  2  0
  3  4  1  0
  4  5  2  0
  5  6  1  0
  6  7  1  0
  7  8  2  0
  7  9  2  0
  7 10  1  0
 10 11  2  0
 11 12  1  0
 12 13  2  0
 13 14  1  0
 14 15  1  0
 15 16  2  0
 15 17  1  0
 17 18  2  3
 18 19  1  0
 19 20  1  0
 20 21  2  0
 21 22  1  0
 14 23  2  0
  5 24  1  0
 24 25  2  0
 25 26  1  0
 26 27  1  0
 27 28  1  0
 28 29  1  0
 29 30  1  0
 30 31  1  0
 25  2  1  0
 31 26  1  0
 23 10  1  0
 22 18  1  0
  1 32  1  0
  1 33  1  0
  1 34  1  0
  3 35  1  0
  4 36  1  0
 11 37  1  0
 12 38  1  0
 13 39  1  0
 20 40  1  0
 21 41  1  0
 23 42  1  0
 24 43  1  0
 27 44  1  0
 27 45  1  0
 28 46  1  0
 28 47  1  0
 30 48  1  0
 30 49  1  0
 31 50  1  0
 31 51  1  0
M  CHG  2   6  -1  19  -1
M  END
>  <UniqueID>  (65) 
62

>  <SMILES>  (65) 
Cc1ccc([N-]S(=O)(=O)c2cccc(C(=O)N=c3[n-]ccs3)c2)cc1N1CCOCC1

>  <Energy>  (65) 
100.84578788165958

>  <Genealogy>  (65) 
Cc1ccc([N-]S(=O)(=O)c2cccc(C(=O)N=c3[n-]ccs3)c2)cc1N1CCOCC1 (protonated)
Cc1ccc([N-]S(=O)(=O)c2cccc(C(=O)N=c3[n-]ccs3)c2)cc1N1CCOCC1 (3D coordinates assigned)
Cc1ccc([N-]S(=O)(=O)c2cccc(C(=O)N=c3[n-]ccs3)c2)cc1N1CCOCC1 (nonaromatic ring conformer: 100.84578788165958 kcal/mol)

>  <smiles>  (65) 
Cc1ccc(NS(=O)(=O)c2cccc(C(=O)N=c3[nH]ccs3)c2)cc1N1CCOCC1

>  <score_type>  (65) 
oracle

>  <origin>  (65) 
adg

>  <m_score__min__energy>  (65) 
-12.69

>  <m_primary>  (65) 
energy

$$$$
65:0
     RDKit          3D

 44 47  0  0  0  0  0  0  0  0999 V2000
   57.7410   34.8920   44.8890 O   0  0  0  0  0  0  0  0  0  0  0  0
   58.1570   33.9580   45.6250 C   0  0  0  0  0  0  0  0  0  0  0  0
   58.7270   34.2910   46.9010 N   0  0  0  0  0  0  0  0  0  0  0  0
   60.0670   33.9970   47.3230 C   0  0  0  0  0  0  0  0  0  0  0  0
   61.1040   34.2180   46.4070 C   0  0  0  0  0  0  0  0  0  0  0  0
   62.4130   33.8440   46.7130 C   0  0  0  0  0  0  0  0  0  0  0  0
   62.7010   33.2550   47.9430 C   0  0  0  0  0  0  0  0  0  0  0  0
   61.6860   33.0640   48.8830 C   0  0  0  0  0  0  0  0  0  0  0  0
   60.3640   33.4540   48.6010 C   0  0  0  0  0  0  0  0  0  0  0  0
   59.3450   33.3460   49.6700 C   0  0  0  0  0  0  0  0  0  0  0  0
   59.3290   34.1760   50.6180 O   0  0  0  0  0  0  0  0  0  0  0  0
   58.3670   32.3600   49.6200 O   0  0  0  0  0  0  0  0  0  0  0  0
   58.0460   32.5600   45.1490 C   0  0  0  0  0  0  0  0  0  0  0  0
   57.7410   32.3010   43.8020 C   0  0  0  0  0  0  0  0  0  0  0  0
   57.6060   30.9870   43.3430 C   0  0  0  0  0  0  0  0  0  0  0  0
   57.7830   29.9100   44.2270 C   0  0  0  0  0  0  0  0  0  0  0  0
   57.6490   28.5730   43.8180 C   0  0  0  0  0  0  0  0  0  0  0  0
   57.3580   28.2830   42.6250 O   0  0  0  0  0  0  0  0  0  0  0  0
   57.8370   27.5500   44.7490 C   0  0  0  0  0  0  0  0  0  0  0  0
   58.1600   27.8810   46.0750 C   0  0  0  0  0  0  0  0  0  0  0  0
   58.3600   26.8390   47.0960 C   0  0  0  0  0  0  0  0  0  0  0  0
   59.4350   26.7880   47.7540 O   0  0  0  0  0  0  0  0  0  0  0  0
   57.2770   25.9520   47.4110 N   0  0  0  0  0  0  0  0  0  0  0  0
   56.6370   25.1260   46.6290 C   0  0  0  0  0  0  0  0  0  0  0  0
   57.1020   23.8480   46.5500 N   0  0  0  0  0  0  0  0  0  0  0  0
   56.5220   22.9030   45.7640 C   0  0  0  0  0  0  0  0  0  0  0  0
   55.4030   23.2240   44.9990 C   0  0  0  0  0  0  0  0  0  0  0  0
   54.8770   24.5120   45.0710 C   0  0  0  0  0  0  0  0  0  0  0  0
   55.4710   25.4710   45.8960 C   0  0  0  0  0  0  0  0  0  0  0  0
   54.8610   26.7150   46.0060 O   0  0  0  0  0  0  0  0  0  0  0  0
   58.2840   29.1580   46.4270 O   0  0  0  0  0  0  0  0  0  0  0  0
   58.1110   30.1640   45.5760 C   0  0  0  0  0  0  0  0  0  0  0  0
   58.2530   31.4800   46.0250 C   0  0  0  0  0  0  0  0  0  0  0  0
   60.8843   34.6904   45.4382 H   0  0  0  0  0  0  0  0  0  0  0  0
   63.2181   34.0141   45.9831 H   0  0  0  0  0  0  0  0  0  0  0  0
   63.7294   32.9401   48.1737 H   0  0  0  0  0  0  0  0  0  0  0  0
   61.9226   32.6039   49.8538 H   0  0  0  0  0  0  0  0  0  0  0  0
   57.6073   33.1393   43.1024 H   0  0  0  0  0  0  0  0  0  0  0  0
   57.3607   30.7965   42.2877 H   0  0  0  0  0  0  0  0  0  0  0  0
   57.7334   26.4972   44.4476 H   0  0  0  0  0  0  0  0  0  0  0  0
   56.9363   21.8845   45.7319 H   0  0  0  0  0  0  0  0  0  0  0  0
   54.9402   22.4695   44.3459 H   0  0  0  0  0  0  0  0  0  0  0  0
   53.9902   24.7753   44.4758 H   0  0  0  0  0  0  0  0  0  0  0  0
   58.5290   31.6723   47.0723 H   0  0  0  0  0  0  0  0  0  0  0  0
  1  2  2  0
  2  3  1  0
  3  4  1  0
  4  5  2  0
  5  6  1  0
  6  7  2  0
  7  8  1  0
  8  9  2  0
  9 10  1  0
 10 11  2  0
 10 12  1  0
  2 13  1  0
 13 14  2  0
 14 15  1  0
 15 16  2  0
 16 17  1  0
 17 18  2  0
 17 19  1  0
 19 20  2  0
 20 21  1  0
 21 22  2  0
 21 23  1  0
 23 24  2  3
 24 25  1  0
 25 26  1  0
 26 27  2  0
 27 28  1  0
 28 29  2  0
 29 30  1  0
 20 31  1  0
 31 32  1  0
 32 33  2  0
  9  4  1  0
 33 13  1  0
 32 16  1  0
 29 24  1  0
  5 34  1  0
  6 35  1  0
  7 36  1  0
  8 37  1  0
 14 38  1  0
 15 39  1  0
 19 40  1  0
 26 41  1  0
 27 42  1  0
 28 43  1  0
 33 44  1  0
M  CHG  4   3  -1  12  -1  25  -1  30  -1
M  END
>  <UniqueID>  (66) 
63

>  <SMILES>  (66) 
O=C([N-]c1ccccc1C(=O)[O-])c1ccc2c(=O)cc(C(=O)N=c3[n-]cccc3[O-])oc2c1

>  <Energy>  (66) 
79.42356086971161

>  <Genealogy>  (66) 
O=C([N-]c1ccccc1C(=O)[O-])c1ccc2c(=O)cc(C(=O)N=c3[n-]cccc3[O-])oc2c1 (protonated)
O=C([N-]c1ccccc1C(=O)[O-])c1ccc2c(=O)cc(C(=O)N=c3[n-]cccc3[O-])oc2c1 (3D coordinates assigned)
O=C([N-]c1ccccc1C(=O)[O-])c1ccc2c(=O)cc(C(=O)N=c3[n-]cccc3[O-])oc2c1 (optimized conformer: 79.42356086971161 kcal/mol)

>  <smiles>  (66) 
O=C(Nc1ccccc1C(=O)O)c1ccc2c(=O)cc(C(=O)N=c3[nH]cccc3O)oc2c1

>  <score_type>  (66) 
oracle

>  <origin>  (66) 
adg

>  <m_score__min__energy>  (66) 
-16.399999999999999

>  <m_primary>  (66) 
energy

$$$$
66:0
     RDKit          3D

 33 35  0  0  0  0  0  0  0  0999 V2000
   57.6440   31.9010   42.5542 H   0  0  0  0  0  0  0  0  0  0  0  0
   57.3360   31.1900   43.3350 C   0  0  0  0  0  0  0  0  0  0  0  0
   56.5930   29.7030   43.0770 S   0  0  0  0  0  0  0  0  0  0  0  0
   56.5160   29.3390   44.7180 C   0  0  0  0  0  0  0  0  0  0  0  0
   55.9780   28.2800   45.2470 N   0  0  0  0  0  0  0  0  0  0  0  0
   56.6540   27.0640   45.5930 C   0  0  0  0  0  0  0  0  0  0  0  0
   57.9120   27.0360   45.5330 O   0  0  0  0  0  0  0  0  0  0  0  0
   55.8990   25.7810   45.8330 C   0  0  0  0  0  0  0  0  0  0  0  0
   55.7524   25.6496   46.9152 H   0  0  0  0  0  0  0  0  0  0  0  0
   54.9324   25.8467   45.3121 H   0  0  0  0  0  0  0  0  0  0  0  0
   56.6480   24.5900   45.2920 C   0  0  0  0  0  0  0  0  0  0  0  0
   56.0360   23.7160   44.3840 C   0  0  0  0  0  0  0  0  0  0  0  0
   55.0039   23.8908   44.0461 H   0  0  0  0  0  0  0  0  0  0  0  0
   56.7610   22.6200   43.9170 C   0  0  0  0  0  0  0  0  0  0  0  0
   56.2380   21.8160   43.1010 O   0  0  0  0  0  0  0  0  0  0  0  0
   58.0340   22.4200   44.3420 N   0  0  0  0  0  0  0  0  0  0  0  0
   58.6220   23.2760   45.2160 C   0  0  0  0  0  0  0  0  0  0  0  0
   59.8060   23.0690   45.5920 O   0  0  0  0  0  0  0  0  0  0  0  0
   57.9330   24.3530   45.6850 N   0  0  0  0  0  0  0  0  0  0  0  0
   58.4010   25.0060   46.3540 H   0  0  0  0  0  0  0  0  0  0  0  0
   57.0260   30.3330   45.4710 N   0  0  0  0  0  0  0  0  0  0  0  0
   57.4950   31.3670   44.7160 C   0  0  0  0  0  0  0  0  0  0  0  0
   58.1000   32.5720   45.3420 C   0  0  0  0  0  0  0  0  0  0  0  0
   58.5980   33.6080   44.5280 C   0  0  0  0  0  0  0  0  0  0  0  0
   58.5380   33.5179   43.4333 H   0  0  0  0  0  0  0  0  0  0  0  0
   59.1680   34.7500   45.0990 C   0  0  0  0  0  0  0  0  0  0  0  0
   59.5550   35.5517   44.4529 H   0  0  0  0  0  0  0  0  0  0  0  0
   59.2470   34.8750   46.4860 C   0  0  0  0  0  0  0  0  0  0  0  0
   59.6991   35.7728   46.9327 H   0  0  0  0  0  0  0  0  0  0  0  0
   58.7520   33.8600   47.3070 C   0  0  0  0  0  0  0  0  0  0  0  0
   58.8119   33.9608   48.4007 H   0  0  0  0  0  0  0  0  0  0  0  0
   58.1800   32.7150   46.7420 C   0  0  0  0  0  0  0  0  0  0  0  0
   57.7898   31.9205   47.3951 H   0  0  0  0  0  0  0  0  0  0  0  0
  1  2  1  0
  2  3  1  0
  3  4  1  0
  4  5  2  0
  5  6  1  0
  6  7  2  0
  6  8  1  0
  8  9  1  0
  8 10  1  0
  8 11  1  0
 11 12  2  0
 12 13  1  0
 12 14  1  0
 14 15  2  0
 14 16  1  0
 16 17  1  0
 17 18  2  0
 17 19  1  0
 19 20  1  0
  4 21  1  0
 21 22  1  0
 22 23  1  0
 23 24  2  0
 24 25  1  0
 24 26  1  0
 26 27  1  0
 26 28  2  0
 28 29  1  0
 28 30  1  0
 30 31  1  0
 30 32  2  0
 32 33  1  0
 22  2  2  0
 32 23  1  0
 19 11  1  0
M  CHG  2  16  -1  21  -1
M  END
>  <UniqueID>  (67) 
64

>  <SMILES>  (67) 
O=C(Cc1cc(=O)[n-]c(=O)[nH]1)/N=c1/[n-]c(-c2ccccc2)cs1

>  <Energy>  (67) 
75.46176733045559

>  <Genealogy>  (67) 
O=C(Cc1cc(=O)[n-]c(=O)[nH]1)N=c1[n-]c(-c2ccccc2)cs1 (protonated)
O=C(Cc1cc(=O)[n-]c(=O)[nH]1)/N=c1/[n-]c(-c2ccccc2)cs1 (cis-trans isomerization)
O=C(Cc1cc(=O)[n-]c(=O)[nH]1)/N=c1/[n-]c(-c2ccccc2)cs1 (3D coordinates assigned)
O=C(Cc1cc(=O)[n-]c(=O)[nH]1)/N=c1/[n-]c(-c2ccccc2)cs1 (optimized conformer: 75.46176733045559 kcal/mol)

>  <smiles>  (67) 
O=C(Cc1cc(=O)[nH]c(=O)[nH]1)N=c1[nH]c(-c2ccccc2)cs1

>  <score_type>  (67) 
oracle

>  <origin>  (67) 
adg

>  <m_score__min__energy>  (67) 
-11.91

>  <m_primary>  (67) 
energy

$$$$
67:0
     RDKit          3D

 61 64  0  0  0  0  0  0  0  0999 V2000
   55.6170   28.6500   44.8720 O   0  0  0  0  0  0  0  0  0  0  0  0
   56.5200   29.3720   44.3660 C   0  0  0  0  0  0  0  0  0  0  0  0
   56.4690   30.7980   44.4980 N   0  0  0  0  0  0  0  0  0  0  0  0
   57.4010   31.6120   45.2260 C   0  0  0  0  0  0  0  0  0  0  0  0
   58.5180   31.0630   45.8790 C   0  0  0  0  0  0  0  0  0  0  0  0
   59.3870   31.8850   46.6010 C   0  0  0  0  0  0  0  0  0  0  0  0
   59.1470   33.2660   46.7020 C   0  0  0  0  0  0  0  0  0  0  0  0
   60.0860   34.1310   47.4560 C   0  0  0  0  0  0  0  0  0  0  0  0
   59.9480   35.3850   47.4040 O   0  0  0  0  0  0  0  0  0  0  0  0
   61.1500   33.5760   48.2540 N   0  0  0  0  0  0  0  0  0  0  0  0
   61.4740   34.1550   49.5640 C   0  0  0  0  0  0  0  0  0  0  0  0
   62.9290   34.6210   49.5720 C   0  0  0  0  0  0  0  0  0  0  0  0
   63.7850   33.5270   49.0950 N   0  0  0  0  0  0  0  0  0  0  0  0
   64.8120   32.9360   49.9180 C   0  0  0  0  0  0  0  0  0  0  0  0
   65.8550   32.4590   49.3770 O   0  0  0  0  0  0  0  0  0  0  0  0
   64.6830   32.9150   51.4200 C   0  0  0  0  0  0  0  0  0  0  0  0
   65.2050   34.1850   52.0420 C   0  0  0  0  0  0  0  0  0  0  0  0
   66.5480   34.5650   51.8680 C   0  0  0  0  0  0  0  0  0  0  0  0
   67.0300   35.7330   52.4660 C   0  0  0  0  0  0  0  0  0  0  0  0
   66.1810   36.5250   53.2490 C   0  0  0  0  0  0  0  0  0  0  0  0
   64.8480   36.1470   53.4380 C   0  0  0  0  0  0  0  0  0  0  0  0
   64.3600   34.9800   52.8400 C   0  0  0  0  0  0  0  0  0  0  0  0
   63.4830   32.9740   47.7680 C   0  0  0  0  0  0  0  0  0  0  0  0
   62.0210   32.5150   47.7290 C   0  0  0  0  0  0  0  0  0  0  0  0
   58.0240   33.8100   46.0540 C   0  0  0  0  0  0  0  0  0  0  0  0
   57.1520   32.9840   45.3360 C   0  0  0  0  0  0  0  0  0  0  0  0
   57.6290   28.7700   43.6900 N   0  0  0  0  0  0  0  0  0  0  0  0
   57.7760   27.3220   43.5510 C   0  0  0  0  0  0  0  0  0  0  0  0
   57.8110   26.6700   44.9070 C   0  0  0  0  0  0  0  0  0  0  0  0
   58.7010   27.1240   45.8970 C   0  0  0  0  0  0  0  0  0  0  0  0
   58.7440   26.4950   47.1460 C   0  0  0  0  0  0  0  0  0  0  0  0
   57.9050   25.4080   47.4140 C   0  0  0  0  0  0  0  0  0  0  0  0
   57.0220   24.9450   46.4300 C   0  0  0  0  0  0  0  0  0  0  0  0
   56.9770   25.5720   45.1790 C   0  0  0  0  0  0  0  0  0  0  0  0
   58.7089   29.9812   45.8214 H   0  0  0  0  0  0  0  0  0  0  0  0
   60.2670   31.4472   47.0949 H   0  0  0  0  0  0  0  0  0  0  0  0
   60.8136   35.0129   49.7586 H   0  0  0  0  0  0  0  0  0  0  0  0
   61.3294   33.3946   50.3456 H   0  0  0  0  0  0  0  0  0  0  0  0
   63.0407   35.4921   48.9097 H   0  0  0  0  0  0  0  0  0  0  0  0
   63.2227   34.9037   50.5937 H   0  0  0  0  0  0  0  0  0  0  0  0
   63.6218   32.7982   51.6851 H   0  0  0  0  0  0  0  0  0  0  0  0
   65.2799   32.0745   51.8038 H   0  0  0  0  0  0  0  0  0  0  0  0
   67.2204   33.9418   51.2601 H   0  0  0  0  0  0  0  0  0  0  0  0
   68.0790   36.0308   52.3211 H   0  0  0  0  0  0  0  0  0  0  0  0
   66.5629   37.4450   53.7156 H   0  0  0  0  0  0  0  0  0  0  0  0
   64.1830   36.7672   54.0569 H   0  0  0  0  0  0  0  0  0  0  0  0
   63.3123   34.6824   52.9938 H   0  0  0  0  0  0  0  0  0  0  0  0
   63.6456   33.7470   47.0025 H   0  0  0  0  0  0  0  0  0  0  0  0
   64.1429   32.1169   47.5680 H   0  0  0  0  0  0  0  0  0  0  0  0
   61.7368   32.2902   46.6904 H   0  0  0  0  0  0  0  0  0  0  0  0
   61.9076   31.6133   48.3487 H   0  0  0  0  0  0  0  0  0  0  0  0
   57.8298   34.8912   46.1118 H   0  0  0  0  0  0  0  0  0  0  0  0
   56.2632   33.4173   44.8540 H   0  0  0  0  0  0  0  0  0  0  0  0
   58.3510   29.3900   43.2610 H   0  0  0  0  0  0  0  0  0  0  0  0
   56.9254   26.9238   42.9784 H   0  0  0  0  0  0  0  0  0  0  0  0
   58.7175   27.1059   43.0247 H   0  0  0  0  0  0  0  0  0  0  0  0
   59.3650   27.9759   45.6887 H   0  0  0  0  0  0  0  0  0  0  0  0
   59.4388   26.8558   47.9187 H   0  0  0  0  0  0  0  0  0  0  0  0
   57.9387   24.9168   48.3977 H   0  0  0  0  0  0  0  0  0  0  0  0
   56.3640   24.0889   46.6402 H   0  0  0  0  0  0  0  0  0  0  0  0
   56.2863   25.2038   44.4061 H   0  0  0  0  0  0  0  0  0  0  0  0
  1  2  2  0
  2  3  1  0
  3  4  1  0
  4  5  2  0
  5  6  1  0
  6  7  2  0
  7  8  1  0
  8  9  2  0
  8 10  1  0
 10 11  1  0
 11 12  1  0
 12 13  1  0
 13 14  1  0
 14 15  2  0
 14 16  1  0
 16 17  1  0
 17 18  2  0
 18 19  1  0
 19 20  2  0
 20 21  1  0
 21 22  2  0
 13 23  1  0
 23 24  1  0
  7 25  1  0
 25 26  2  0
  2 27  1  0
 27 28  1  0
 28 29  1  0
 29 30  2  0
 30 31  1  0
 31 32  2  0
 32 33  1  0
 33 34  2  0
 26  4  1  0
 34 29  1  0
 24 10  1  0
 22 17  1  0
  5 35  1  0
  6 36  1  0
 11 37  1  0
 11 38  1  0
 12 39  1  0
 12 40  1  0
 16 41  1  0
 16 42  1  0
 18 43  1  0
 19 44  1  0
 20 45  1  0
 21 46  1  0
 22 47  1  0
 23 48  1  0
 23 49  1  0
 24 50  1  0
 24 51  1  0
 25 52  1  0
 26 53  1  0
 27 54  1  0
 28 55  1  0
 28 56  1  0
 30 57  1  0
 31 58  1  0
 32 59  1  0
 33 60  1  0
 34 61  1  0
M  CHG  1   3  -1
M  END
>  <UniqueID>  (68) 
65

>  <SMILES>  (68) 
O=C([N-]c1ccc(C(=O)N2CCN(C(=O)Cc3ccccc3)CC2)cc1)NCc1ccccc1

>  <Energy>  (68) 
71.287558715341

>  <Genealogy>  (68) 
O=C([N-]c1ccc(C(=O)N2CCN(C(=O)Cc3ccccc3)CC2)cc1)NCc1ccccc1 (protonated)
O=C([N-]c1ccc(C(=O)N2CCN(C(=O)Cc3ccccc3)CC2)cc1)NCc1ccccc1 (3D coordinates assigned)
O=C([N-]c1ccc(C(=O)N2CCN(C(=O)Cc3ccccc3)CC2)cc1)NCc1ccccc1 (nonaromatic ring conformer: 71.287558715341 kcal/mol)

>  <smiles>  (68) 
O=C(NCc1ccccc1)Nc1ccc(C(=O)N2CCN(C(=O)Cc3ccccc3)CC2)cc1

>  <score_type>  (68) 
oracle

>  <origin>  (68) 
adg

>  <m_score__min__energy>  (68) 
-11.300000000000001

>  <m_primary>  (68) 
energy

$$$$
68:0
     RDKit          3D

 45 47  0  0  0  0  0  0  0  0999 V2000
   59.2660   35.2240   45.2650 C   0  0  0  0  0  0  0  0  0  0  0  0
   59.0950   33.7130   45.4510 C   0  0  1  0  0  0  0  0  0  0  0  0
   58.5850   33.3890   46.8670 C   0  0  0  0  0  0  0  0  0  0  0  0
   58.5380   31.8680   47.1200 C   0  0  0  0  0  0  0  0  0  0  0  0
   58.2470   31.0480   45.8390 C   0  0  1  0  0  0  0  0  0  0  0  0
   57.6100   29.7670   46.1550 N   0  0  0  0  0  0  0  0  0  0  0  0
   58.2600   28.4910   46.2160 C   0  0  0  0  0  0  0  0  0  0  0  0
   59.2910   28.2560   45.5300 O   0  0  0  0  0  0  0  0  0  0  0  0
   57.7410   27.4480   47.1510 C   0  0  0  0  0  0  0  0  0  0  0  0
   57.4040   26.2390   46.4030 N   0  0  0  0  0  0  0  0  0  0  0  0
   56.2070   25.9360   45.8530 C   0  0  0  0  0  0  0  0  0  0  0  0
   55.0620   26.7110   45.9940 O   0  0  0  0  0  0  0  0  0  0  0  0
   56.2940   24.7630   45.1300 C   0  0  0  0  0  0  0  0  0  0  0  0
   57.5910   24.3170   45.2610 C   0  0  0  0  0  0  0  0  0  0  0  0
   58.2540   25.2600   46.0200 C   0  0  0  0  0  0  0  0  0  0  0  0
   59.6070   25.2310   46.3370 O   0  0  0  0  0  0  0  0  0  0  0  0
   58.1380   23.1170   44.5520 C   0  0  0  0  0  0  0  0  0  0  0  0
   56.9890   22.1940   44.0980 C   0  0  0  0  0  0  0  0  0  0  0  0
   55.8430   22.9890   43.4330 C   0  0  0  0  0  0  0  0  0  0  0  0
   55.2190   24.0140   44.4030 C   0  0  0  0  0  0  0  0  0  0  0  0
   57.4220   31.8440   44.8150 C   0  0  0  0  0  0  0  0  0  0  0  0
   58.1580   33.1230   44.3650 C   0  0  0  0  0  0  0  0  0  0  0  0
   59.3211   35.7108   46.2499 H   0  0  0  0  0  0  0  0  0  0  0  0
   60.1923   35.4221   44.7058 H   0  0  0  0  0  0  0  0  0  0  0  0
   58.4074   35.6241   44.7058 H   0  0  0  0  0  0  0  0  0  0  0  0
   60.0810   33.2397   45.3335 H   0  0  0  0  0  0  0  0  0  0  0  0
   59.2578   33.8527   47.6034 H   0  0  0  0  0  0  0  0  0  0  0  0
   57.5634   33.7854   46.9636 H   0  0  0  0  0  0  0  0  0  0  0  0
   59.5098   31.5504   47.5258 H   0  0  0  0  0  0  0  0  0  0  0  0
   57.7154   31.6780   47.8251 H   0  0  0  0  0  0  0  0  0  0  0  0
   59.2193   30.8333   45.3715 H   0  0  0  0  0  0  0  0  0  0  0  0
   58.5118   27.2119   47.8994 H   0  0  0  0  0  0  0  0  0  0  0  0
   56.8399   27.8271   47.6553 H   0  0  0  0  0  0  0  0  0  0  0  0
   58.7096   23.4451   43.6713 H   0  0  0  0  0  0  0  0  0  0  0  0
   58.7923   22.5619   45.2403 H   0  0  0  0  0  0  0  0  0  0  0  0
   57.3828   21.4646   43.3748 H   0  0  0  0  0  0  0  0  0  0  0  0
   56.5838   21.6895   44.9876 H   0  0  0  0  0  0  0  0  0  0  0  0
   56.2414   23.5235   42.5580 H   0  0  0  0  0  0  0  0  0  0  0  0
   55.0589   22.2764   43.1375 H   0  0  0  0  0  0  0  0  0  0  0  0
   54.6033   24.7252   43.8327 H   0  0  0  0  0  0  0  0  0  0  0  0
   54.5964   23.4801   45.1360 H   0  0  0  0  0  0  0  0  0  0  0  0
   57.2370   31.2101   43.9352 H   0  0  0  0  0  0  0  0  0  0  0  0
   56.4757   32.1406   45.2910 H   0  0  0  0  0  0  0  0  0  0  0  0
   58.7618   32.8831   43.4774 H   0  0  0  0  0  0  0  0  0  0  0  0
   57.3893   33.8812   44.1547 H   0  0  0  0  0  0  0  0  0  0  0  0
  1  2  1  0
  2  3  1  0
  3  4  1  0
  4  5  1  0
  5  6  1  0
  6  7  1  0
  7  8  2  0
  7  9  1  0
  9 10  1  0
 10 11  1  0
 11 12  1  0
 11 13  2  0
 13 14  1  0
 14 15  2  0
 15 16  1  0
 14 17  1  0
 17 18  1  0
 18 19  1  0
 19 20  1  0
  5 21  1  0
 21 22  1  0
 22  2  1  0
 15 10  1  0
 20 13  1  0
  1 23  1  0
  1 24  1  0
  1 25  1  0
  2 26  1  6
  3 27  1  0
  3 28  1  0
  4 29  1  0
  4 30  1  0
  5 31  1  6
  9 32  1  0
  9 33  1  0
 17 34  1  0
 17 35  1  0
 18 36  1  0
 18 37  1  0
 19 38  1  0
 19 39  1  0
 20 40  1  0
 20 41  1  0
 21 42  1  0
 21 43  1  0
 22 44  1  0
 22 45  1  0
M  CHG  3   6  -1  12  -1  16  -1
M  END
>  <UniqueID>  (69) 
66

>  <SMILES>  (69) 
CC1CCC([N-]C(=O)Cn2c([O-])c3c(c2[O-])CCCC3)CC1

>  <Energy>  (69) 
71.24900948329231

>  <Genealogy>  (69) 
CC1CCC([N-]C(=O)Cn2c([O-])c3c(c2[O-])CCCC3)CC1 (protonated)
CC1CCC([N-]C(=O)Cn2c([O-])c3c(c2[O-])CCCC3)CC1 (3D coordinates assigned)
CC1CCC([N-]C(=O)Cn2c([O-])c3c(c2[O-])CCCC3)CC1 (nonaromatic ring conformer: 71.24900948329231 kcal/mol)

>  <smiles>  (69) 
CC1CCC(NC(=O)Cn2c(O)c3c(c2O)CCCC3)CC1

>  <score_type>  (69) 
oracle

>  <origin>  (69) 
adg

>  <m_score__min__energy>  (69) 
-13.949999999999999

>  <m_primary>  (69) 
energy

$$$$
69:0
     RDKit          3D

 51 54  0  0  0  0  0  0  0  0999 V2000
   58.9850   28.9890   48.6020 C   0  0  0  0  0  0  0  0  0  0  0  0
   60.2190   29.6200   49.0540 N   0  0  0  0  0  0  0  0  0  0  0  0
   60.8250   30.6160   48.4150 N   0  0  0  0  0  0  0  0  0  0  0  0
   61.9450   30.8770   49.1300 C   0  0  0  0  0  0  0  0  0  0  0  0
   62.8930   31.8810   48.8870 C   0  0  0  0  0  0  0  0  0  0  0  0
   62.7970   32.7920   47.7280 C   0  0  0  0  0  0  0  0  0  0  0  0
   63.7740   33.5370   47.4410 O   0  0  0  0  0  0  0  0  0  0  0  0
   61.6120   32.8270   46.9200 N   0  0  0  0  0  0  0  0  0  0  0  0
   61.3420   33.9420   46.0120 C   0  0  0  0  0  0  0  0  0  0  0  0
   59.8730   34.3800   46.0730 C   0  0  0  0  0  0  0  0  0  0  0  0
   58.9400   33.2890   45.6090 C   0  0  0  0  0  0  0  0  0  0  0  0
   58.4050   33.3150   44.3120 C   0  0  0  0  0  0  0  0  0  0  0  0
   57.5570   32.2960   43.8740 C   0  0  0  0  0  0  0  0  0  0  0  0
   57.2320   31.2230   44.7240 C   0  0  0  0  0  0  0  0  0  0  0  0
   56.3410   30.1380   44.2540 C   0  0  0  0  0  0  0  0  0  0  0  0
   55.9600   30.1110   43.0520 O   0  0  0  0  0  0  0  0  0  0  0  0
   55.9640   29.0810   45.1490 N   0  0  0  0  0  0  0  0  0  0  0  0
   56.7840   27.9680   45.5380 C   0  0  0  0  0  0  0  0  0  0  0  0
   58.1880   28.0230   45.4580 C   0  0  0  0  0  0  0  0  0  0  0  0
   58.9580   26.9140   45.8240 C   0  0  0  0  0  0  0  0  0  0  0  0
   58.3350   25.7420   46.2610 C   0  0  0  0  0  0  0  0  0  0  0  0
   56.9410   25.6730   46.3210 C   0  0  0  0  0  0  0  0  0  0  0  0
   56.1660   26.7780   45.9530 C   0  0  0  0  0  0  0  0  0  0  0  0
   54.7790   26.6940   46.0090 O   0  0  0  0  0  0  0  0  0  0  0  0
   57.7750   31.1980   46.0220 C   0  0  0  0  0  0  0  0  0  0  0  0
   58.6190   32.2220   46.4600 C   0  0  0  0  0  0  0  0  0  0  0  0
   63.9390   32.0090   49.8250 C   0  0  0  0  0  0  0  0  0  0  0  0
   64.0240   31.1440   50.9350 C   0  0  0  0  0  0  0  0  0  0  0  0
   63.0500   30.1510   51.1150 C   0  0  0  0  0  0  0  0  0  0  0  0
   62.0520   30.0710   50.2030 N   0  0  0  0  0  0  0  0  0  0  0  0
   60.9670   29.2880   50.1260 C   0  0  0  0  0  0  0  0  0  0  0  0
   60.6830   28.3740   50.9460 O   0  0  0  0  0  0  0  0  0  0  0  0
   58.3883   28.6839   49.4743 H   0  0  0  0  0  0  0  0  0  0  0  0
   58.4089   29.7032   47.9953 H   0  0  0  0  0  0  0  0  0  0  0  0
   59.2267   28.1038   47.9953 H   0  0  0  0  0  0  0  0  0  0  0  0
   60.9390   32.0320   46.9880 H   0  0  0  0  0  0  0  0  0  0  0  0
   61.9798   34.7931   46.2929 H   0  0  0  0  0  0  0  0  0  0  0  0
   61.5584   33.6092   44.9861 H   0  0  0  0  0  0  0  0  0  0  0  0
   59.6234   34.6433   47.1114 H   0  0  0  0  0  0  0  0  0  0  0  0
   59.7470   35.2434   45.4032 H   0  0  0  0  0  0  0  0  0  0  0  0
   58.6557   34.1449   43.6349 H   0  0  0  0  0  0  0  0  0  0  0  0
   57.1399   32.3324   42.8568 H   0  0  0  0  0  0  0  0  0  0  0  0
   58.6815   28.9411   45.1065 H   0  0  0  0  0  0  0  0  0  0  0  0
   60.0554   26.9646   45.7677 H   0  0  0  0  0  0  0  0  0  0  0  0
   58.9421   24.8740   46.5577 H   0  0  0  0  0  0  0  0  0  0  0  0
   56.4515   24.7475   46.6584 H   0  0  0  0  0  0  0  0  0  0  0  0
   57.5329   30.3647   46.6981 H   0  0  0  0  0  0  0  0  0  0  0  0
   59.0339   32.1907   47.4783 H   0  0  0  0  0  0  0  0  0  0  0  0
   64.6978   32.7936   49.6886 H   0  0  0  0  0  0  0  0  0  0  0  0
   64.8489   31.2472   51.6553 H   0  0  0  0  0  0  0  0  0  0  0  0
   63.0952   29.4595   51.9693 H   0  0  0  0  0  0  0  0  0  0  0  0
  1  2  1  0
  2  3  1  0
  3  4  2  0
  4  5  1  0
  5  6  1  0
  6  7  2  0
  6  8  1  0
  8  9  1  0
  9 10  1  0
 10 11  1  0
 11 12  2  0
 12 13  1  0
 13 14  2  0
 14 15  1  0
 15 16  2  0
 15 17  1  0
 17 18  1  0
 18 19  2  0
 19 20  1  0
 20 21  2  0
 21 22  1  0
 22 23  2  0
 23 24  1  0
 14 25  1  0
 25 26  2  0
  5 27  2  0
 27 28  1  0
 28 29  2  0
 29 30  1  0
 30 31  1  0
 31 32  2  0
 31  2  1  0
 30  4  1  0
 26 11  1  0
 23 18  1  0
  1 33  1  0
  1 34  1  0
  1 35  1  0
  8 36  1  0
  9 37  1  0
  9 38  1  0
 10 39  1  0
 10 40  1  0
 12 41  1  0
 13 42  1  0
 19 43  1  0
 20 44  1  0
 21 45  1  0
 22 46  1  0
 25 47  1  0
 26 48  1  0
 27 49  1  0
 28 50  1  0
 29 51  1  0
M  CHG  2  17  -1  24  -1
M  END
>  <UniqueID>  (70) 
67

>  <SMILES>  (70) 
Cn1nc2c(C(=O)NCCc3ccc(C(=O)[N-]c4ccccc4[O-])cc3)cccn2c1=O

>  <Energy>  (70) 
99.80566271891102

>  <Genealogy>  (70) 
Cn1nc2c(C(=O)NCCc3ccc(C(=O)[N-]c4ccccc4[O-])cc3)cccn2c1=O (protonated)
Cn1nc2c(C(=O)NCCc3ccc(C(=O)[N-]c4ccccc4[O-])cc3)cccn2c1=O (3D coordinates assigned)
Cn1nc2c(C(=O)NCCc3ccc(C(=O)[N-]c4ccccc4[O-])cc3)cccn2c1=O (optimized conformer: 99.80566271891102 kcal/mol)

>  <smiles>  (70) 
Cn1nc2c(C(=O)NCCc3ccc(C(=O)Nc4ccccc4O)cc3)cccn2c1=O

>  <score_type>  (70) 
oracle

>  <origin>  (70) 
adg

>  <m_score__min__energy>  (70) 
-15.23

>  <m_primary>  (70) 
energy

$$$$
70:0
     RDKit          3D

 55 58  0  0  0  0  0  0  0  0999 V2000
   57.5800   31.5050   43.1890 C   0  0  0  0  0  0  0  0  0  0  0  0
   57.4620   30.2360   43.9350 C   0  0  0  0  0  0  0  0  0  0  0  0
   58.5460   29.4590   44.2900 C   0  0  0  0  0  0  0  0  0  0  0  0
   58.3730   28.2720   44.9940 C   0  0  0  0  0  0  0  0  0  0  0  0
   59.5210   27.4160   45.3880 C   0  0  0  0  0  0  0  0  0  0  0  0
   59.8620   27.6090   46.8200 C   0  0  0  0  0  0  0  0  0  0  0  0
   60.3490   26.5360   47.5110 C   0  0  0  0  0  0  0  0  0  0  0  0
   60.6640   26.7200   48.8370 C   0  0  0  0  0  0  0  0  0  0  0  0
   60.4960   27.9250   49.4370 C   0  0  0  0  0  0  0  0  0  0  0  0
   59.9980   29.0600   48.7650 C   0  0  0  0  0  0  0  0  0  0  0  0
   59.8570   30.2680   49.4650 N   0  0  0  0  0  0  0  0  0  0  0  0
   58.9650   30.5840   50.4920 C   0  0  0  0  0  0  0  0  0  0  0  0
   58.1630   29.6550   50.8500 O   0  0  0  0  0  0  0  0  0  0  0  0
   58.8310   31.8370   51.2060 C   0  0  0  0  0  0  0  0  0  0  0  0
   58.0300   31.8680   52.3510 C   0  0  0  0  0  0  0  0  0  0  0  0
   57.8250   32.9880   53.1090 C   0  0  0  0  0  0  0  0  0  0  0  0
   58.4190   34.1520   52.7570 C   0  0  0  0  0  0  0  0  0  0  0  0
   59.2170   34.1720   51.6360 C   0  0  0  0  0  0  0  0  0  0  0  0
   59.4360   33.0330   50.8490 C   0  0  0  0  0  0  0  0  0  0  0  0
   60.2100   33.1090   49.7860 O   0  0  0  0  0  0  0  0  0  0  0  0
   60.5900   33.8940   48.7560 C   0  0  0  0  0  0  0  0  0  0  0  0
   59.6790   33.9190   47.6050 C   0  0  0  0  0  0  0  0  0  0  0  0
   59.8410   34.6530   46.4580 C   0  0  0  0  0  0  0  0  0  0  0  0
   58.9550   34.6320   45.3990 C   0  0  0  0  0  0  0  0  0  0  0  0
   57.8310   33.8270   45.4840 C   0  0  0  0  0  0  0  0  0  0  0  0
   57.6360   33.0770   46.6190 C   0  0  0  0  0  0  0  0  0  0  0  0
   58.5350   33.1180   47.6560 C   0  0  0  0  0  0  0  0  0  0  0  0
   59.6930   28.8460   47.4430 C   0  0  0  0  0  0  0  0  0  0  0  0
   57.1320   27.8790   45.3320 N   0  0  0  0  0  0  0  0  0  0  0  0
   56.1000   28.6330   44.9860 N   0  0  0  0  0  0  0  0  0  0  0  0
   56.2120   29.7840   44.3080 C   0  0  0  0  0  0  0  0  0  0  0  0
   55.1570   30.4190   44.0330 O   0  0  0  0  0  0  0  0  0  0  0  0
   57.6578   32.3417   43.8988 H   0  0  0  0  0  0  0  0  0  0  0  0
   58.4793   31.4761   42.5563 H   0  0  0  0  0  0  0  0  0  0  0  0
   56.6908   31.6424   42.5563 H   0  0  0  0  0  0  0  0  0  0  0  0
   59.5600   29.7827   44.0125 H   0  0  0  0  0  0  0  0  0  0  0  0
   59.2576   26.3613   45.2200 H   0  0  0  0  0  0  0  0  0  0  0  0
   60.3929   27.6972   44.7792 H   0  0  0  0  0  0  0  0  0  0  0  0
   60.4845   25.5591   47.0239 H   0  0  0  0  0  0  0  0  0  0  0  0
   61.0589   25.8756   49.4210 H   0  0  0  0  0  0  0  0  0  0  0  0
   60.7614   28.0213   50.5002 H   0  0  0  0  0  0  0  0  0  0  0  0
   60.5240   31.0410   49.1670 H   0  0  0  0  0  0  0  0  0  0  0  0
   57.5349   30.9360   52.6611 H   0  0  0  0  0  0  0  0  0  0  0  0
   57.1810   32.9429   53.9996 H   0  0  0  0  0  0  0  0  0  0  0  0
   58.2671   35.0630   53.3544 H   0  0  0  0  0  0  0  0  0  0  0  0
   59.7008   35.1167   51.3469 H   0  0  0  0  0  0  0  0  0  0  0  0
   60.6867   34.9229   49.1329 H   0  0  0  0  0  0  0  0  0  0  0  0
   61.5320   33.4651   48.3836 H   0  0  0  0  0  0  0  0  0  0  0  0
   60.7293   35.2966   46.3767 H   0  0  0  0  0  0  0  0  0  0  0  0
   59.1387   35.2439   44.5035 H   0  0  0  0  0  0  0  0  0  0  0  0
   57.1067   33.7887   44.6570 H   0  0  0  0  0  0  0  0  0  0  0  0
   56.7467   32.4344   46.6978 H   0  0  0  0  0  0  0  0  0  0  0  0
   58.3500   32.5045   48.5501 H   0  0  0  0  0  0  0  0  0  0  0  0
   59.2990   29.6849   46.8506 H   0  0  0  0  0  0  0  0  0  0  0  0
   55.1600   28.2900   45.2690 H   0  0  0  0  0  0  0  0  0  0  0  0
  1  2  1  0
  2  3  2  0
  3  4  1  0
  4  5  1  0
  5  6  1  0
  6  7  2  0
  7  8  1  0
  8  9  2  0
  9 10  1  0
 10 11  1  0
 11 12  1  0
 12 13  2  0
 12 14  1  0
 14 15  2  0
 15 16  1  0
 16 17  2  0
 17 18  1  0
 18 19  2  0
 19 20  1  0
 20 21  1  0
 21 22  1  0
 22 23  2  0
 23 24  1  0
 24 25  2  0
 25 26  1  0
 26 27  2  0
 10 28  2  0
  4 29  2  0
 29 30  1  0
 30 31  1  0
 31 32  2  0
 31  2  1  0
 28  6  1  0
 19 14  1  0
 27 22  1  0
  1 33  1  0
  1 34  1  0
  1 35  1  0
  3 36  1  0
  5 37  1  0
  5 38  1  0
  7 39  1  0
  8 40  1  0
  9 41  1  0
 11 42  1  0
 15 43  1  0
 16 44  1  0
 17 45  1  0
 18 46  1  0
 21 47  1  0
 21 48  1  0
 23 49  1  0
 24 50  1  0
 25 51  1  0
 26 52  1  0
 27 53  1  0
 28 54  1  0
 30 55  1  0
M  END
>  <smiles>  (71) 
Cc1cc(Cc2cccc(NC(=O)c3ccccc3OCc3ccccc3)c2)n[nH]c1=O

>  <score_type>  (71) 
oracle

>  <origin>  (71) 
adg

>  <m_score__min__energy>  (71) 
-10.32

>  <m_primary>  (71) 
energy

$$$$
71:0
     RDKit          3D

 32 33  0  0  0  0  0  0  0  0999 V2000
   58.8910   36.3240   47.2170 H   0  0  0  0  0  0  0  0  0  0  0  0
   59.5280   35.5590   47.0290 O   0  0  0  0  0  0  0  0  0  0  0  0
   59.1280   34.4360   46.3060 C   0  0  0  0  0  0  0  0  0  0  0  0
   58.2420   34.5760   45.2290 C   0  0  0  0  0  0  0  0  0  0  0  0
   57.8532   35.5710   44.9667 H   0  0  0  0  0  0  0  0  0  0  0  0
   57.8500   33.4600   44.4870 C   0  0  0  0  0  0  0  0  0  0  0  0
   57.1405   33.5768   43.6546 H   0  0  0  0  0  0  0  0  0  0  0  0
   58.3570   32.1930   44.7990 C   0  0  0  0  0  0  0  0  0  0  0  0
   57.9040   31.0170   44.0300 C   0  0  0  0  0  0  0  0  0  0  0  0
   57.8903   31.1115   42.9341 H   0  0  0  0  0  0  0  0  0  0  0  0
   57.5050   29.8360   44.5490 C   0  0  0  0  0  0  0  0  0  0  0  0
   58.4750   28.9660   44.9440 N   0  0  0  0  0  0  0  0  0  0  0  0
   58.1950   27.7450   45.4690 C   0  0  0  0  0  0  0  0  0  0  0  0
   59.1420   26.9860   45.8090 O   0  0  0  0  0  0  0  0  0  0  0  0
   56.8530   27.3550   45.6210 C   0  0  0  0  0  0  0  0  0  0  0  0
   56.5090   26.1650   46.1210 C   0  0  0  0  0  0  0  0  0  0  0  0
   55.4469   25.8978   46.2238 H   0  0  0  0  0  0  0  0  0  0  0  0
   57.2878   25.4523   46.4300 H   0  0  0  0  0  0  0  0  0  0  0  0
   55.8760   28.2260   45.2520 N   0  0  0  0  0  0  0  0  0  0  0  0
   56.1530   29.4500   44.7330 C   0  0  0  0  0  0  0  0  0  0  0  0
   55.1950   30.2210   44.4630 O   0  0  0  0  0  0  0  0  0  0  0  0
   59.2160   32.0420   45.9000 C   0  0  0  0  0  0  0  0  0  0  0  0
   59.5835   31.0417   46.1728 H   0  0  0  0  0  0  0  0  0  0  0  0
   59.6090   33.1590   46.6550 C   0  0  0  0  0  0  0  0  0  0  0  0
   60.5790   32.9850   47.7980 C   0  0  0  0  0  0  0  0  0  0  0  0
   60.2804   32.1107   48.3950 H   0  0  0  0  0  0  0  0  0  0  0  0
   60.5624   33.8939   48.4174 H   0  0  0  0  0  0  0  0  0  0  0  0
   61.9750   32.7770   47.2830 C   0  0  0  0  0  0  0  0  0  0  0  0
   62.4282   31.7772   47.3540 H   0  0  0  0  0  0  0  0  0  0  0  0
   62.6810   33.7740   46.7410 C   0  0  0  0  0  0  0  0  0  0  0  0
   63.7010   33.5890   46.3731 H   0  0  0  0  0  0  0  0  0  0  0  0
   62.2421   34.7796   46.6628 H   0  0  0  0  0  0  0  0  0  0  0  0
  1  2  1  0
  2  3  1  0
  3  4  2  0
  4  5  1  0
  4  6  1  0
  6  7  1  0
  6  8  2  0
  8  9  1  0
  9 10  1  0
  9 11  2  0
 11 12  1  0
 12 13  1  0
 13 14  2  0
 13 15  1  0
 15 16  2  0
 16 17  1  0
 16 18  1  0
 15 19  1  0
 19 20  1  0
 20 21  2  0
  8 22  1  0
 22 23  1  0
 22 24  2  0
 24 25  1  0
 25 26  1  0
 25 27  1  0
 25 28  1  0
 28 29  1  0
 28 30  2  0
 30 31  1  0
 30 32  1  0
 24  3  1  0
 20 11  1  0
M  CHG  2  12  -1  19  -1
M  END
>  <UniqueID>  (72) 
68

>  <SMILES>  (72) 
C=CCc1cc(/C=c2/[n-]c(=O)c(=C)[n-]c2=O)ccc1O

>  <Energy>  (72) 
43.91436028734005

>  <Genealogy>  (72) 
C=CCc1cc(C=c2[n-]c(=O)c(=C)[n-]c2=O)ccc1O (protonated)
C=CCc1cc(/C=c2/[n-]c(=O)c(=C)[n-]c2=O)ccc1O (cis-trans isomerization)
C=CCc1cc(/C=c2/[n-]c(=O)c(=C)[n-]c2=O)ccc1O (3D coordinates assigned)
C=CCc1cc(/C=c2/[n-]c(=O)c(=C)[n-]c2=O)ccc1O (optimized conformer: 43.91436028734005 kcal/mol)

>  <smiles>  (72) 
C=CCc1cc(C=c2[nH]c(=O)c(=C)[nH]c2=O)ccc1O

>  <score_type>  (72) 
oracle

>  <origin>  (72) 
adg

>  <m_score__min__energy>  (72) 
-10.75

>  <m_primary>  (72) 
energy

$$$$
72:0
     RDKit          3D

 47 51  0  0  0  0  0  0  0  0999 V2000
   57.6680   27.9930   44.1210 C   0  0  0  0  0  0  0  0  0  0  0  0
   58.0330   27.3250   45.2260 C   0  0  0  0  0  0  0  0  0  0  0  0
   57.8790   25.9510   45.4720 C   0  0  0  0  0  0  0  0  0  0  0  0
   57.1610   25.0120   44.8260 C   0  0  0  0  0  0  0  0  0  0  0  0
   55.8060   24.5670   45.1930 C   0  0  0  0  0  0  0  0  0  0  0  0
   55.3050   23.3430   44.9420 N   0  0  0  0  0  0  0  0  0  0  0  0
   54.0140   23.4510   45.3240 C   0  0  0  0  0  0  0  0  0  0  0  0
   53.2050   22.4890   45.2540 O   0  0  0  0  0  0  0  0  0  0  0  0
   53.6560   24.6720   45.7750 N   0  0  0  0  0  0  0  0  0  0  0  0
   54.7990   25.3690   45.6720 C   0  0  0  0  0  0  0  0  0  0  0  0
   54.9170   26.7120   46.0030 O   0  0  0  0  0  0  0  0  0  0  0  0
   58.6370   25.6720   46.5970 C   0  0  0  0  0  0  0  0  0  0  0  0
   59.1520   26.8720   47.0410 C   0  0  0  0  0  0  0  0  0  0  0  0
   60.0190   27.0270   48.2530 C   0  0  0  0  0  0  0  0  0  0  0  0
   58.7870   27.8760   46.2120 N   0  0  0  0  0  0  0  0  0  0  0  0
   59.1720   29.2570   46.3420 C   0  0  0  0  0  0  0  0  0  0  0  0
   58.2240   30.2780   46.1130 C   0  0  0  0  0  0  0  0  0  0  0  0
   58.6020   31.6220   46.2470 C   0  0  0  0  0  0  0  0  0  0  0  0
   59.8840   31.8970   46.6000 N   0  0  0  0  0  0  0  0  0  0  0  0
   60.5090   33.0760   46.7970 C   0  0  0  0  0  0  0  0  0  0  0  0
   59.8810   34.4260   46.6340 C   0  0  0  0  0  0  0  0  0  0  0  0
   61.8360   32.7960   47.1110 C   0  0  0  0  0  0  0  0  0  0  0  0
   62.9070   33.7940   47.4410 C   0  0  0  0  0  0  0  0  0  0  0  0
   63.0330   34.1330   48.9190 C   0  0  0  0  0  0  0  0  0  0  0  0
   64.0620   33.2340   48.2580 C   0  0  0  0  0  0  0  0  0  0  0  0
   62.0120   31.4550   47.1430 N   0  0  0  0  0  0  0  0  0  0  0  0
   60.8090   30.9450   46.8200 C   0  0  0  0  0  0  0  0  0  0  0  0
   60.4910   29.5940   46.7030 C   0  0  0  0  0  0  0  0  0  0  0  0
   57.8443   29.0765   44.0499 H   0  0  0  0  0  0  0  0  0  0  0  0
   57.1925   27.4572   43.2863 H   0  0  0  0  0  0  0  0  0  0  0  0
   57.6264   24.5372   43.9497 H   0  0  0  0  0  0  0  0  0  0  0  0
   58.7976   24.6825   47.0499 H   0  0  0  0  0  0  0  0  0  0  0  0
   59.4053   26.9173   49.1593 H   0  0  0  0  0  0  0  0  0  0  0  0
   60.8022   26.2546   48.2448 H   0  0  0  0  0  0  0  0  0  0  0  0
   60.4861   28.0229   48.2448 H   0  0  0  0  0  0  0  0  0  0  0  0
   57.1926   30.0203   45.8305 H   0  0  0  0  0  0  0  0  0  0  0  0
   57.8789   32.4320   46.0708 H   0  0  0  0  0  0  0  0  0  0  0  0
   59.6797   34.8588   47.6250 H   0  0  0  0  0  0  0  0  0  0  0  0
   60.5654   35.0841   46.0786 H   0  0  0  0  0  0  0  0  0  0  0  0
   58.9367   34.3265   46.0786 H   0  0  0  0  0  0  0  0  0  0  0  0
   62.8147   34.3776   46.5131 H   0  0  0  0  0  0  0  0  0  0  0  0
   63.3103   35.1517   49.2277 H   0  0  0  0  0  0  0  0  0  0  0  0
   62.3737   34.0466   49.7953 H   0  0  0  0  0  0  0  0  0  0  0  0
   65.0847   33.6015   48.0879 H   0  0  0  0  0  0  0  0  0  0  0  0
   64.4567   32.2268   48.4573 H   0  0  0  0  0  0  0  0  0  0  0  0
   62.8880   30.9300   47.3660 H   0  0  0  0  0  0  0  0  0  0  0  0
   61.2458   28.8152   46.8867 H   0  0  0  0  0  0  0  0  0  0  0  0
  1  2  2  0
  2  3  1  0
  3  4  2  3
  4  5  1  0
  5  6  1  0
  6  7  1  0
  7  8  2  0
  7  9  1  0
  9 10  1  0
 10 11  1  0
  3 12  1  0
 12 13  2  0
 13 14  1  0
 13 15  1  0
 15 16  1  0
 16 17  1  0
 17 18  2  0
 18 19  1  0
 19 20  1  0
 20 21  1  0
 20 22  2  0
 22 23  1  0
 23 24  1  0
 24 25  1  0
 22 26  1  0
 26 27  2  0
 27 28  1  0
 15  2  1  0
 28 16  2  0
 10  5  2  0
 27 19  1  0
 25 23  1  0
  1 29  1  0
  1 30  1  0
  4 31  1  0
 12 32  1  0
 14 33  1  0
 14 34  1  0
 14 35  1  0
 17 36  1  0
 18 37  1  0
 21 38  1  0
 21 39  1  0
 21 40  1  0
 23 41  1  0
 24 42  1  0
 24 43  1  0
 25 44  1  0
 25 45  1  0
 26 46  1  0
 28 47  1  0
M  CHG  4   6  -1   9  -1  11  -1  26   1
M  END
>  <UniqueID>  (73) 
69

>  <SMILES>  (73) 
C=c1c(=Cc2[n-]c(=O)[n-]c2[O-])cc(C)n1-c1ccn2c(C)c(C3CC3)[nH+]c2c1

>  <Energy>  (73) 
424.8298206395782

>  <Genealogy>  (73) 
C=c1c(=Cc2[n-]c(=O)[n-]c2[O-])cc(C)n1-c1ccn2c(C)c(C3CC3)[nH+]c2c1 (protonated)
C=c1c(=Cc2[n-]c(=O)[n-]c2[O-])cc(C)n1-c1ccn2c(C)c(C3CC3)[nH+]c2c1 (3D coordinates assigned)
C=c1c(=Cc2[n-]c(=O)[n-]c2[O-])cc(C)n1-c1ccn2c(C)c(C3CC3)[nH+]c2c1 (nonaromatic ring conformer: 424.8298206395782 kcal/mol)

>  <smiles>  (73) 
C=c1c(=Cc2[nH]c(=O)[nH]c2O)cc(C)n1-c1ccn2c(C)c(C3CC3)nc2c1

>  <score_type>  (73) 
oracle

>  <origin>  (73) 
adg

>  <m_score__min__energy>  (73) 
-14.76

>  <m_primary>  (73) 
energy

$$$$
73:0
     RDKit          3D

 52 55  0  0  0  0  0  0  0  0999 V2000
   54.2490   21.5620   46.2460 O   0  0  0  0  0  0  0  0  0  0  0  0
   55.1150   21.8140   45.3660 C   0  0  0  0  0  0  0  0  0  0  0  0
   55.5180   20.7990   44.5060 O   0  0  0  0  0  0  0  0  0  0  0  0
   55.6970   23.1700   45.2500 C   0  0  0  0  0  0  0  0  0  0  0  0
   56.9640   23.3590   44.6710 C   0  0  0  0  0  0  0  0  0  0  0  0
   57.5100   24.6410   44.5660 C   0  0  0  0  0  0  0  0  0  0  0  0
   56.8120   25.7560   45.0490 C   0  0  0  0  0  0  0  0  0  0  0  0
   57.3980   27.0610   44.9190 N   0  0  0  0  0  0  0  0  0  0  0  0
   58.0160   27.7550   46.0160 C   0  0  0  0  0  0  0  0  0  0  0  0
   58.3580   27.1110   47.0460 O   0  0  0  0  0  0  0  0  0  0  0  0
   58.2950   29.2080   45.9360 C   0  0  0  0  0  0  0  0  0  0  0  0
   59.5340   29.7200   46.3570 C   0  0  0  0  0  0  0  0  0  0  0  0
   59.7900   31.0900   46.2900 C   0  0  0  0  0  0  0  0  0  0  0  0
   58.8000   31.9510   45.8030 C   0  0  0  0  0  0  0  0  0  0  0  0
   59.0280   33.4330   45.7690 C   0  0  0  0  0  0  0  0  0  0  0  0
   59.6040   33.8870   47.0350 N   0  0  0  0  0  0  0  0  0  0  0  0
   60.9580   33.6050   47.4500 C   0  0  0  0  0  0  0  0  0  0  0  0
   62.0360   33.8450   46.5760 C   0  0  0  0  0  0  0  0  0  0  0  0
   63.3400   33.5130   46.9480 C   0  0  0  0  0  0  0  0  0  0  0  0
   63.5880   32.9310   48.1900 C   0  0  0  0  0  0  0  0  0  0  0  0
   62.5340   32.6880   49.0710 C   0  0  0  0  0  0  0  0  0  0  0  0
   61.2170   33.0300   48.7190 C   0  0  0  0  0  0  0  0  0  0  0  0
   60.1390   32.8180   49.7130 C   0  0  0  0  0  0  0  0  0  0  0  0
   59.2990   31.6950   49.6220 C   0  0  0  0  0  0  0  0  0  0  0  0
   58.2750   31.5030   50.5540 C   0  0  0  0  0  0  0  0  0  0  0  0
   58.0770   32.4340   51.5770 C   0  0  0  0  0  0  0  0  0  0  0  0
   58.8990   33.5600   51.6680 C   0  0  0  0  0  0  0  0  0  0  0  0
   59.9250   33.7560   50.7370 C   0  0  0  0  0  0  0  0  0  0  0  0
   57.5980   31.4450   45.4160 N   0  0  0  0  0  0  0  0  0  0  0  0
   57.3270   30.1130   45.4670 C   0  0  0  0  0  0  0  0  0  0  0  0
   55.5280   25.5750   45.6000 C   0  0  0  0  0  0  0  0  0  0  0  0
   54.7740   26.6670   46.0170 O   0  0  0  0  0  0  0  0  0  0  0  0
   54.9840   24.2900   45.7090 C   0  0  0  0  0  0  0  0  0  0  0  0
   57.5293   22.4921   44.2982 H   0  0  0  0  0  0  0  0  0  0  0  0
   58.4971   24.7762   44.0998 H   0  0  0  0  0  0  0  0  0  0  0  0
   57.5410   27.4360   43.9550 H   0  0  0  0  0  0  0  0  0  0  0  0
   60.3061   29.0372   46.7414 H   0  0  0  0  0  0  0  0  0  0  0  0
   60.7612   31.4897   46.6170 H   0  0  0  0  0  0  0  0  0  0  0  0
   59.7192   33.6751   44.9483 H   0  0  0  0  0  0  0  0  0  0  0  0
   58.0645   33.9399   45.6119 H   0  0  0  0  0  0  0  0  0  0  0  0
   59.0060   34.4980   47.6360 H   0  0  0  0  0  0  0  0  0  0  0  0
   61.8488   34.2982   45.5913 H   0  0  0  0  0  0  0  0  0  0  0  0
   64.1742   33.7113   46.2589 H   0  0  0  0  0  0  0  0  0  0  0  0
   64.6159   32.6630   48.4758 H   0  0  0  0  0  0  0  0  0  0  0  0
   62.7352   32.2253   50.0485 H   0  0  0  0  0  0  0  0  0  0  0  0
   59.4480   30.9638   48.8138 H   0  0  0  0  0  0  0  0  0  0  0  0
   57.6248   30.6186   50.4820 H   0  0  0  0  0  0  0  0  0  0  0  0
   57.2729   32.2801   52.3116 H   0  0  0  0  0  0  0  0  0  0  0  0
   58.7395   34.2932   52.4723 H   0  0  0  0  0  0  0  0  0  0  0  0
   60.5660   34.6472   50.8070 H   0  0  0  0  0  0  0  0  0  0  0  0
   56.3447   29.7419   45.1393 H   0  0  0  0  0  0  0  0  0  0  0  0
   53.9889   24.1559   46.1583 H   0  0  0  0  0  0  0  0  0  0  0  0
  1  2  2  0
  2  3  1  0
  2  4  1  0
  4  5  2  0
  5  6  1  0
  6  7  2  0
  7  8  1  0
  8  9  1  0
  9 10  2  0
  9 11  1  0
 11 12  2  0
 12 13  1  0
 13 14  2  0
 14 15  1  0
 15 16  1  0
 16 17  1  0
 17 18  2  0
 18 19  1  0
 19 20  2  0
 20 21  1  0
 21 22  2  0
 22 23  1  0
 23 24  2  0
 24 25  1  0
 25 26  2  0
 26 27  1  0
 27 28  2  0
 14 29  1  0
 29 30  2  0
  7 31  1  0
 31 32  1  0
 31 33  2  0
 33  4  1  0
 30 11  1  0
 22 17  1  0
 28 23  1  0
  5 34  1  0
  6 35  1  0
  8 36  1  0
 12 37  1  0
 13 38  1  0
 15 39  1  0
 15 40  1  0
 16 41  1  0
 18 42  1  0
 19 43  1  0
 20 44  1  0
 21 45  1  0
 24 46  1  0
 25 47  1  0
 26 48  1  0
 27 49  1  0
 28 50  1  0
 30 51  1  0
 33 52  1  0
M  CHG  2   3  -1  32  -1
M  END
>  <UniqueID>  (74) 
70

>  <SMILES>  (74) 
O=C([O-])c1ccc(NC(=O)c2ccc(CNc3ccccc3-c3ccccc3)nc2)c([O-])c1

>  <Energy>  (74) 
71.60384358017619

>  <Genealogy>  (74) 
O=C([O-])c1ccc(NC(=O)c2ccc(CNc3ccccc3-c3ccccc3)nc2)c([O-])c1 (protonated)
O=C([O-])c1ccc(NC(=O)c2ccc(CNc3ccccc3-c3ccccc3)nc2)c([O-])c1 (3D coordinates assigned)
O=C([O-])c1ccc(NC(=O)c2ccc(CNc3ccccc3-c3ccccc3)nc2)c([O-])c1 (optimized conformer: 71.60384358017619 kcal/mol)

>  <smiles>  (74) 
O=C(O)c1ccc(NC(=O)c2ccc(CNc3ccccc3-c3ccccc3)nc2)c(O)c1

>  <score_type>  (74) 
oracle

>  <origin>  (74) 
adg

>  <m_score__min__energy>  (74) 
-14.779999999999999

>  <m_primary>  (74) 
energy

$$$$
74:0
     RDKit          3D

 18 18  0  0  0  0  0  0  0  0999 V2000
   59.3060   27.8510   44.1970 C   0  0  0  0  0  0  0  0  0  0  0  0
   57.9060   28.3390   44.3930 C   0  0  0  0  0  0  0  0  0  0  0  0
   57.3240   29.2940   43.6480 N   0  0  0  0  0  0  0  0  0  0  0  0
   56.1000   29.4440   44.1870 C   0  0  0  0  0  0  0  0  0  0  0  0
   55.2520   30.2650   43.7500 O   0  0  0  0  0  0  0  0  0  0  0  0
   55.8620   28.6380   45.2440 N   0  0  0  0  0  0  0  0  0  0  0  0
   57.0070   27.9340   45.3650 C   0  0  0  0  0  0  0  0  0  0  0  0
   57.2530   26.9380   46.4570 C   0  0  0  0  0  0  0  0  0  0  0  0
   56.1100   25.9790   46.5460 C   0  0  0  0  0  0  0  0  0  0  0  0
   54.8420   26.3270   45.9980 N   0  0  0  0  0  0  0  0  0  0  0  0
   56.2760   24.8490   47.0770 O   0  0  0  0  0  0  0  0  0  0  0  0
   59.7776   27.6866   45.1771 H   0  0  0  0  0  0  0  0  0  0  0  0
   59.2895   26.9056   43.6349 H   0  0  0  0  0  0  0  0  0  0  0  0
   59.8807   28.6018   43.6349 H   0  0  0  0  0  0  0  0  0  0  0  0
   57.7310   29.8120   42.8390 H   0  0  0  0  0  0  0  0  0  0  0  0
   58.1776   26.3826   46.2411 H   0  0  0  0  0  0  0  0  0  0  0  0
   57.3507   27.4708   47.4144 H   0  0  0  0  0  0  0  0  0  0  0  0
   54.7680   26.7430   45.0430 H   0  0  0  0  0  0  0  0  0  0  0  0
  1  2  1  0
  2  3  1  0
  3  4  1  0
  4  5  2  0
  4  6  1  0
  6  7  1  0
  7  8  1  0
  8  9  1  0
  9 10  1  0
  9 11  2  0
  7  2  2  0
  1 12  1  0
  1 13  1  0
  1 14  1  0
  3 15  1  0
  8 16  1  0
  8 17  1  0
 10 18  1  0
M  CHG  2   6  -1  10  -1
M  END
>  <UniqueID>  (75) 
71

>  <SMILES>  (75) 
Cc1[nH]c(=O)[n-]c1CC([NH-])=O

>  <Energy>  (75) 
41.60538215040252

>  <Genealogy>  (75) 
Cc1[nH]c(=O)[n-]c1CC([NH-])=O (protonated)
Cc1[nH]c(=O)[n-]c1CC([NH-])=O (3D coordinates assigned)
Cc1[nH]c(=O)[n-]c1CC([NH-])=O (optimized conformer: 41.60538215040252 kcal/mol)

>  <smiles>  (75) 
Cc1[nH]c(=O)[nH]c1CC(N)=O

>  <score_type>  (75) 
oracle

>  <origin>  (75) 
adg

>  <m_score__min__energy>  (75) 
-10.44

>  <m_primary>  (75) 
energy

$$$$
75:0
     RDKit          3D

 40 42  0  0  0  0  0  0  0  0999 V2000
   57.7100   25.6100   43.5890 C   0  0  0  0  0  0  0  0  0  0  0  0
   58.4170   25.0120   44.6680 O   0  0  0  0  0  0  0  0  0  0  0  0
   58.8760   25.7380   45.7730 C   0  0  0  0  0  0  0  0  0  0  0  0
   60.2100   25.7930   46.0480 N   0  0  0  0  0  0  0  0  0  0  0  0
   60.6990   26.4560   47.1270 C   0  0  0  0  0  0  0  0  0  0  0  0
   59.8270   27.1010   48.0020 C   0  0  0  0  0  0  0  0  0  0  0  0
   58.4560   27.0690   47.7490 C   0  0  0  0  0  0  0  0  0  0  0  0
   57.9600   26.4020   46.6180 C   0  0  0  0  0  0  0  0  0  0  0  0
   56.5020   26.4060   46.3480 C   0  0  0  0  0  0  0  0  0  0  0  0
   55.8030   25.4360   46.7460 O   0  0  0  0  0  0  0  0  0  0  0  0
   55.8590   27.4630   45.6220 N   0  0  0  0  0  0  0  0  0  0  0  0
   56.4380   28.7300   45.2830 C   0  0  0  0  0  0  0  0  0  0  0  0
   57.7070   29.1110   45.7500 C   0  0  0  0  0  0  0  0  0  0  0  0
   58.2600   30.3350   45.3670 C   0  0  0  0  0  0  0  0  0  0  0  0
   57.5530   31.1950   44.5130 C   0  0  0  0  0  0  0  0  0  0  0  0
   58.1530   32.4780   44.0940 C   0  0  0  0  0  0  0  0  0  0  0  0
   58.1410   32.7880   42.8720 O   0  0  0  0  0  0  0  0  0  0  0  0
   58.7280   33.3850   45.0500 N   0  0  0  0  0  0  0  0  0  0  0  0
   59.4850   34.5720   44.6730 C   0  0  0  0  0  0  0  0  0  0  0  0
   59.6090   35.3260   45.9500 C   0  0  0  0  0  0  0  0  0  0  0  0
   58.9940   34.6930   46.9410 C   0  0  0  0  0  0  0  0  0  0  0  0
   58.3850   33.4210   46.4680 C   0  0  0  0  0  0  0  0  0  0  0  0
   56.2620   30.8380   44.0940 C   0  0  0  0  0  0  0  0  0  0  0  0
   55.7090   29.6150   44.4810 C   0  0  0  0  0  0  0  0  0  0  0  0
   56.9268   26.2725   43.9862 H   0  0  0  0  0  0  0  0  0  0  0  0
   58.4081   26.1958   42.9730 H   0  0  0  0  0  0  0  0  0  0  0  0
   57.2481   24.8243   42.9730 H   0  0  0  0  0  0  0  0  0  0  0  0
   61.7832   26.4841   47.3106 H   0  0  0  0  0  0  0  0  0  0  0  0
   60.2165   27.6304   48.8840 H   0  0  0  0  0  0  0  0  0  0  0  0
   57.7601   27.5688   48.4389 H   0  0  0  0  0  0  0  0  0  0  0  0
   58.2674   28.4425   46.4201 H   0  0  0  0  0  0  0  0  0  0  0  0
   59.2543   30.6261   45.7365 H   0  0  0  0  0  0  0  0  0  0  0  0
   60.4754   34.2983   44.2804 H   0  0  0  0  0  0  0  0  0  0  0  0
   58.9987   35.1550   43.8771 H   0  0  0  0  0  0  0  0  0  0  0  0
   60.1408   36.2828   46.0583 H   0  0  0  0  0  0  0  0  0  0  0  0
   58.9415   35.0607   47.9764 H   0  0  0  0  0  0  0  0  0  0  0  0
   58.8147   32.5584   46.9984 H   0  0  0  0  0  0  0  0  0  0  0  0
   57.3009   33.3725   46.6477 H   0  0  0  0  0  0  0  0  0  0  0  0
   55.6832   31.5241   43.4582 H   0  0  0  0  0  0  0  0  0  0  0  0
   54.6940   29.3460   44.1532 H   0  0  0  0  0  0  0  0  0  0  0  0
  1  2  1  0
  2  3  1  0
  3  4  2  0
  4  5  1  0
  5  6  2  0
  6  7  1  0
  7  8  2  0
  8  9  1  0
  9 10  2  0
  9 11  1  0
 11 12  1  0
 12 13  2  0
 13 14  1  0
 14 15  2  0
 15 16  1  0
 16 17  2  0
 16 18  1  0
 18 19  1  0
 19 20  1  0
 20 21  2  0
 21 22  1  0
 15 23  1  0
 23 24  2  0
  8  3  1  0
 24 12  1  0
 22 18  1  0
  1 25  1  0
  1 26  1  0
  1 27  1  0
  5 28  1  0
  6 29  1  0
  7 30  1  0
 13 31  1  0
 14 32  1  0
 19 33  1  0
 19 34  1  0
 20 35  1  0
 21 36  1  0
 22 37  1  0
 22 38  1  0
 23 39  1  0
 24 40  1  0
M  CHG  1  11  -1
M  END
>  <UniqueID>  (76) 
72

>  <SMILES>  (76) 
COc1ncccc1C(=O)[N-]c1ccc(C(=O)N2CC=CC2)cc1

>  <Energy>  (76) 
57.99850007081718

>  <Genealogy>  (76) 
COc1ncccc1C(=O)[N-]c1ccc(C(=O)N2CC=CC2)cc1 (protonated)
COc1ncccc1C(=O)[N-]c1ccc(C(=O)N2CC=CC2)cc1 (3D coordinates assigned)
COc1ncccc1C(=O)[N-]c1ccc(C(=O)N2CC=CC2)cc1 (nonaromatic ring conformer: 57.99850007081718 kcal/mol)

>  <smiles>  (76) 
COc1ncccc1C(=O)Nc1ccc(C(=O)N2CC=CC2)cc1

>  <score_type>  (76) 
oracle

>  <origin>  (76) 
adg

>  <m_score__min__energy>  (76) 
-9.8200000000000003

>  <m_primary>  (76) 
energy

$$$$
76:0
     RDKit          3D

 29 30  0  0  0  0  0  0  0  0999 V2000
   57.2700   25.7870   45.9840 O   0  0  0  0  0  0  0  0  0  0  0  0
   56.5480   26.8160   45.8870 C   0  0  0  0  0  0  0  0  0  0  0  0
   55.1660   26.6720   45.9150 O   0  0  0  0  0  0  0  0  0  0  0  0
   57.1700   28.1570   45.8200 C   0  0  0  0  0  0  0  0  0  0  0  0
   58.4170   28.3520   46.4350 C   0  0  0  0  0  0  0  0  0  0  0  0
   59.0080   29.6160   46.4650 C   0  0  0  0  0  0  0  0  0  0  0  0
   58.3680   30.7180   45.8790 C   0  0  0  0  0  0  0  0  0  0  0  0
   58.9830   32.0710   45.9270 C   0  0  0  0  0  0  0  0  0  0  0  0
   60.0790   32.2750   46.6820 C   0  0  0  0  0  0  0  0  0  0  0  0
   60.8610   33.8430   46.7970 S   0  0  0  0  0  0  0  0  0  0  0  0
   60.8350   34.3090   48.2260 O   0  0  0  0  0  0  0  0  0  0  0  0
   62.2830   33.7380   46.3230 O   0  0  0  0  0  0  0  0  0  0  0  0
   59.9780   35.0060   45.7800 C   0  0  0  0  0  0  0  0  0  0  0  0
   58.5250   34.5640   45.6400 C   0  0  0  0  0  0  0  0  0  0  0  0
   58.4290   33.1600   45.0260 C   0  0  0  0  0  0  0  0  0  0  0  0
   57.1270   30.5240   45.2490 C   0  0  0  0  0  0  0  0  0  0  0  0
   56.5360   29.2560   45.1920 C   0  0  0  0  0  0  0  0  0  0  0  0
   55.3440   29.1270   44.4750 O   0  0  0  0  0  0  0  0  0  0  0  0
   58.9341   27.4989   46.8985 H   0  0  0  0  0  0  0  0  0  0  0  0
   59.9849   29.7493   46.9528 H   0  0  0  0  0  0  0  0  0  0  0  0
   60.4993   31.4297   47.2466 H   0  0  0  0  0  0  0  0  0  0  0  0
   60.0144   36.0015   46.2465 H   0  0  0  0  0  0  0  0  0  0  0  0
   60.4443   35.0482   44.7846 H   0  0  0  0  0  0  0  0  0  0  0  0
   58.0556   34.5536   46.6348 H   0  0  0  0  0  0  0  0  0  0  0  0
   58.0080   35.2714   44.9749 H   0  0  0  0  0  0  0  0  0  0  0  0
   57.3707   32.9397   44.8223 H   0  0  0  0  0  0  0  0  0  0  0  0
   59.0359   33.1636   44.1086 H   0  0  0  0  0  0  0  0  0  0  0  0
   56.6115   31.3822   44.7932 H   0  0  0  0  0  0  0  0  0  0  0  0
   54.7680   28.2970   44.4980 H   0  0  0  0  0  0  0  0  0  0  0  0
  1  2  2  0
  2  3  1  0
  2  4  1  0
  4  5  2  0
  5  6  1  0
  6  7  2  0
  7  8  1  0
  8  9  2  0
  9 10  1  0
 10 11  2  0
 10 12  2  0
 10 13  1  0
 13 14  1  0
 14 15  1  0
  7 16  1  0
 16 17  2  0
 17 18  1  0
 17  4  1  0
 15  8  1  0
  5 19  1  0
  6 20  1  0
  9 21  1  0
 13 22  1  0
 13 23  1  0
 14 24  1  0
 14 25  1  0
 15 26  1  0
 15 27  1  0
 16 28  1  0
 18 29  1  0
M  CHG  1   3  -1
M  END
>  <UniqueID>  (77) 
73

>  <SMILES>  (77) 
O=C([O-])c1ccc(C2=CS(=O)(=O)CCC2)cc1O

>  <Energy>  (77) 
36.97750550965893

>  <Genealogy>  (77) 
O=C([O-])c1ccc(C2=CS(=O)(=O)CCC2)cc1O (protonated)
O=C([O-])c1ccc(C2=CS(=O)(=O)CCC2)cc1O (3D coordinates assigned)
O=C([O-])c1ccc(C2=CS(=O)(=O)CCC2)cc1O (nonaromatic ring conformer: 36.97750550965893 kcal/mol)

>  <smiles>  (77) 
O=C(O)c1ccc(C2=CS(=O)(=O)CCC2)cc1O

>  <score_type>  (77) 
oracle

>  <origin>  (77) 
adg

>  <m_score__min__energy>  (77) 
-10.35

>  <m_primary>  (77) 
energy

$$$$
77:0
     RDKit          3D

 57 60  0  0  0  0  0  0  0  0999 V2000
   61.4350   31.3770   51.1440 O   0  0  0  0  0  0  0  0  0  0  0  0
   60.2160   31.6550   51.3090 C   0  0  0  0  0  0  0  0  0  0  0  0
   59.8690   32.9500   51.6970 C   0  0  0  0  0  0  0  0  0  0  0  0
   58.5300   33.2490   51.9050 C   0  0  0  0  0  0  0  0  0  0  0  0
   58.1530   34.5350   52.2820 O   0  0  0  0  0  0  0  0  0  0  0  0
   57.5930   32.2830   51.7440 N   0  0  0  0  0  0  0  0  0  0  0  0
   57.9310   31.0230   51.3670 C   0  0  0  0  0  0  0  0  0  0  0  0
   57.0180   30.1620   51.2450 O   0  0  0  0  0  0  0  0  0  0  0  0
   59.2440   30.7000   51.1180 N   0  0  0  0  0  0  0  0  0  0  0  0
   59.6230   29.3370   50.6920 C   0  0  0  0  0  0  0  0  0  0  0  0
   60.6730   29.3280   49.5540 C   0  0  0  0  0  0  0  0  0  0  0  0
   60.1380   29.4480   48.1740 N   0  0  0  0  0  0  0  0  0  0  0  0
   61.0290   30.1320   47.2130 C   0  0  0  0  0  0  0  0  0  0  0  0
   61.5430   31.4270   47.7820 C   0  0  0  0  0  0  0  0  0  0  0  0
   62.9250   31.6210   47.9450 C   0  0  0  0  0  0  0  0  0  0  0  0
   63.4110   32.8320   48.4480 C   0  0  0  0  0  0  0  0  0  0  0  0
   62.5240   33.8580   48.7880 C   0  0  0  0  0  0  0  0  0  0  0  0
   62.9980   35.0330   49.2690 F   0  0  0  0  0  0  0  0  0  0  0  0
   61.1480   33.6720   48.6260 C   0  0  0  0  0  0  0  0  0  0  0  0
   60.6560   32.4630   48.1250 C   0  0  0  0  0  0  0  0  0  0  0  0
   59.5820   28.1910   47.6360 C   0  0  0  0  0  0  0  0  0  0  0  0
   58.7650   28.4840   46.4070 C   0  0  0  0  0  0  0  0  0  0  0  0
   58.5310   27.4870   45.4470 C   0  0  0  0  0  0  0  0  0  0  0  0
   57.7760   27.7720   44.3070 C   0  0  0  0  0  0  0  0  0  0  0  0
   57.2620   29.0550   44.1080 C   0  0  0  0  0  0  0  0  0  0  0  0
   57.5130   30.0710   45.0480 C   0  0  0  0  0  0  0  0  0  0  0  0
   57.0050   31.3680   44.8910 O   0  0  0  0  0  0  0  0  0  0  0  0
   57.6950   32.5540   45.1790 C   0  0  0  0  0  0  0  0  0  0  0  0
   58.5130   33.1940   44.2260 C   0  0  0  0  0  0  0  0  0  0  0  0
   59.1990   34.3650   44.5620 C   0  0  0  0  0  0  0  0  0  0  0  0
   59.0890   34.8990   45.8480 C   0  0  0  0  0  0  0  0  0  0  0  0
   58.2930   34.2600   46.8030 C   0  0  0  0  0  0  0  0  0  0  0  0
   57.6030   33.0880   46.4710 C   0  0  0  0  0  0  0  0  0  0  0  0
   58.2500   29.7740   46.2000 C   0  0  0  0  0  0  0  0  0  0  0  0
   60.6428   33.7195   51.8354 H   0  0  0  0  0  0  0  0  0  0  0  0
   58.5130   35.3460   51.7930 H   0  0  0  0  0  0  0  0  0  0  0  0
   60.0404   28.8026   51.5581 H   0  0  0  0  0  0  0  0  0  0  0  0
   58.7158   28.8491   50.3061 H   0  0  0  0  0  0  0  0  0  0  0  0
   61.3599   30.1704   49.7231 H   0  0  0  0  0  0  0  0  0  0  0  0
   61.1531   28.3394   49.6011 H   0  0  0  0  0  0  0  0  0  0  0  0
   61.8818   29.4762   46.9836 H   0  0  0  0  0  0  0  0  0  0  0  0
   60.4564   30.3530   46.3002 H   0  0  0  0  0  0  0  0  0  0  0  0
   63.6269   30.8178   47.6761 H   0  0  0  0  0  0  0  0  0  0  0  0
   64.4937   32.9777   48.5765 H   0  0  0  0  0  0  0  0  0  0  0  0
   60.4503   34.4792   48.8935 H   0  0  0  0  0  0  0  0  0  0  0  0
   59.5724   32.3218   47.9988 H   0  0  0  0  0  0  0  0  0  0  0  0
   60.4048   27.5095   47.3744 H   0  0  0  0  0  0  0  0  0  0  0  0
   58.9411   27.7208   48.3964 H   0  0  0  0  0  0  0  0  0  0  0  0
   58.9436   26.4778   45.5930 H   0  0  0  0  0  0  0  0  0  0  0  0
   57.5858   26.9836   43.5639 H   0  0  0  0  0  0  0  0  0  0  0  0
   56.6592   29.2718   43.2138 H   0  0  0  0  0  0  0  0  0  0  0  0
   58.6119   32.7711   43.2154 H   0  0  0  0  0  0  0  0  0  0  0  0
   59.8271   34.8672   43.8115 H   0  0  0  0  0  0  0  0  0  0  0  0
   59.6283   35.8215   46.1090 H   0  0  0  0  0  0  0  0  0  0  0  0
   58.2086   34.6786   47.8167 H   0  0  0  0  0  0  0  0  0  0  0  0
   56.9853   32.5836   47.2286 H   0  0  0  0  0  0  0  0  0  0  0  0
   58.4276   30.5584   46.9504 H   0  0  0  0  0  0  0  0  0  0  0  0
  1  2  2  0
  2  3  1  0
  3  4  2  0
  4  5  1  0
  4  6  1  0
  6  7  1  0
  7  8  2  0
  7  9  1  0
  9 10  1  0
 10 11  1  0
 11 12  1  0
 12 13  1  0
 13 14  1  0
 14 15  2  0
 15 16  1  0
 16 17  2  0
 17 18  1  0
 17 19  1  0
 19 20  2  0
 12 21  1  0
 21 22  1  0
 22 23  2  0
 23 24  1  0
 24 25  2  0
 25 26  1  0
 26 27  1  0
 27 28  1  0
 28 29  2  0
 29 30  1  0
 30 31  2  0
 31 32  1  0
 32 33  2  0
 26 34  2  0
  9  2  1  0
 20 14  1  0
 34 22  1  0
 33 28  1  0
  3 35  1  0
  5 36  1  0
 10 37  1  0
 10 38  1  0
 11 39  1  0
 11 40  1  0
 13 41  1  0
 13 42  1  0
 15 43  1  0
 16 44  1  0
 19 45  1  0
 20 46  1  0
 21 47  1  0
 21 48  1  0
 23 49  1  0
 24 50  1  0
 25 51  1  0
 29 52  1  0
 30 53  1  0
 31 54  1  0
 32 55  1  0
 33 56  1  0
 34 57  1  0
M  CHG  1   6  -1
M  END
>  <UniqueID>  (78) 
74

>  <SMILES>  (78) 
O=c1cc(O)[n-]c(=O)n1CCN(Cc1ccc(F)cc1)Cc1cccc(Oc2ccccc2)c1

>  <Energy>  (78) 
76.1008629936937

>  <Genealogy>  (78) 
O=c1cc(O)[n-]c(=O)n1CCN(Cc1ccc(F)cc1)Cc1cccc(Oc2ccccc2)c1 (protonated)
O=c1cc(O)[n-]c(=O)n1CCN(Cc1ccc(F)cc1)Cc1cccc(Oc2ccccc2)c1 (3D coordinates assigned)
O=c1cc(O)[n-]c(=O)n1CCN(Cc1ccc(F)cc1)Cc1cccc(Oc2ccccc2)c1 (optimized conformer: 76.1008629936937 kcal/mol)

>  <smiles>  (78) 
O=c1cc(O)[nH]c(=O)n1CCN(Cc1ccc(F)cc1)Cc1cccc(Oc2ccccc2)c1

>  <score_type>  (78) 
oracle

>  <origin>  (78) 
adg

>  <m_score__min__energy>  (78) 
-11.23

>  <m_primary>  (78) 
energy

$$$$
78:0
     RDKit          3D

 45 48  0  0  1  0  0  0  0  0999 V2000
   55.1480   26.6500   46.0010 N   0  0  0  0  0  0  0  0  0  0  0  0
   56.1150   25.6510   45.7300 C   0  0  0  0  0  0  0  0  0  0  0  0
   55.6570   24.4360   45.2110 C   0  0  0  0  0  0  0  0  0  0  0  0
   56.5590   23.4440   44.9360 C   0  0  0  0  0  0  0  0  0  0  0  0
   57.9090   23.6250   45.1630 C   0  0  0  0  0  0  0  0  0  0  0  0
   58.3590   24.8250   45.6760 C   0  0  0  0  0  0  0  0  0  0  0  0
   57.4690   25.8310   45.9590 C   0  0  0  0  0  0  0  0  0  0  0  0
   57.8800   27.1210   46.5020 C   0  0  0  0  0  0  0  0  0  0  0  0
   57.1700   28.1260   46.2400 O   0  0  0  0  0  0  0  0  0  0  0  0
   59.0320   27.3020   47.3070 N   0  0  0  0  0  0  0  0  0  0  0  0
   59.2990   28.6280   47.7610 C   0  0  0  0  0  0  0  0  0  0  0  0
   59.0750   29.0050   49.0680 C   0  0  0  0  0  0  0  0  0  0  0  0
   59.3050   30.2470   49.5740 C   0  0  0  0  0  0  0  0  0  0  0  0
   59.8000   31.2260   48.7460 C   0  0  0  0  0  0  0  0  0  0  0  0
   60.0380   32.5250   49.3370 C   0  0  0  0  0  0  0  0  0  0  0  0
   60.9250   33.3560   49.0520 N   0  0  0  0  0  0  0  0  0  0  0  0
   61.8240   33.4040   48.0470 N   0  0  0  0  0  0  0  0  0  0  0  0
   61.6900   33.8980   46.7770 C   0  0  0  0  0  0  0  0  0  0  0  0
   60.5130   34.5670   46.1720 C   0  0  0  0  0  0  0  0  0  0  0  0
   59.2520   33.7660   46.0480 C   0  0  0  0  0  0  0  0  0  0  0  0
   59.3250   34.9460   46.9860 C   0  0  0  0  0  0  0  0  0  0  0  0
   62.8620   33.6700   46.1090 N   0  0  0  0  0  0  0  0  0  0  0  0
   63.6630   33.0630   46.9460 N   0  0  0  0  0  0  0  0  0  0  0  0
   63.0900   32.8730   48.1420 C   0  0  0  0  0  0  0  0  0  0  0  0
   63.7350   32.1600   49.4560 S   0  0  0  0  0  0  0  0  0  0  0  0
   60.0320   30.8770   47.4420 C   0  0  0  0  0  0  0  0  0  0  0  0
   59.7960   29.6050   46.9260 C   0  0  0  0  0  0  0  0  0  0  0  0
   54.4120   26.5060   46.7290 H   0  0  0  0  0  0  0  0  0  0  0  0
   55.1470   27.5420   45.4850 H   0  0  0  0  0  0  0  0  0  0  0  0
   54.5841   24.2793   45.0259 H   0  0  0  0  0  0  0  0  0  0  0  0
   56.2027   22.4869   44.5275 H   0  0  0  0  0  0  0  0  0  0  0  0
   58.6214   22.8180   44.9365 H   0  0  0  0  0  0  0  0  0  0  0  0
   59.4333   24.9754   45.8584 H   0  0  0  0  0  0  0  0  0  0  0  0
   59.6340   26.4820   47.5370 H   0  0  0  0  0  0  0  0  0  0  0  0
   58.6796   28.2425   49.7552 H   0  0  0  0  0  0  0  0  0  0  0  0
   59.0974   30.4647   50.6321 H   0  0  0  0  0  0  0  0  0  0  0  0
   59.3479   32.8184   50.1418 H   0  0  0  0  0  0  0  0  0  0  0  0
   61.1690   35.1343   45.4953 H   0  0  0  0  0  0  0  0  0  0  0  0
   58.6477   33.8267   45.1309 H   0  0  0  0  0  0  0  0  0  0  0  0
   58.9883   32.7028   46.1484 H   0  0  0  0  0  0  0  0  0  0  0  0
   58.7710   35.8677   46.7546 H   0  0  0  0  0  0  0  0  0  0  0  0
   59.1338   35.1004   48.0582 H   0  0  0  0  0  0  0  0  0  0  0  0
   64.6450   32.7520   46.7320 H   0  0  0  0  0  0  0  0  0  0  0  0
   60.4278   31.6462   46.7626 H   0  0  0  0  0  0  0  0  0  0  0  0
   60.0031   29.3838   45.8686 H   0  0  0  0  0  0  0  0  0  0  0  0
  1  2  1  0
  2  3  2  0
  3  4  1  0
  4  5  2  0
  5  6  1  0
  6  7  2  0
  7  8  1  0
  8  9  2  0
  8 10  1  0
 10 11  1  0
 11 12  2  0
 12 13  1  0
 13 14  2  0
 14 15  1  0
 15 16  2  0
 16 17  1  0
 17 18  1  0
 18 19  1  0
 19 20  1  0
 20 21  1  0
 18 22  2  0
 22 23  1  0
 23 24  1  0
 24 25  2  0
 14 26  1  0
 26 27  2  0
  7  2  1  0
 27 11  1  0
 24 17  1  0
 21 19  1  0
  1 28  1  0
  1 29  1  0
  3 30  1  0
  4 31  1  0
  5 32  1  0
  6 33  1  0
 10 34  1  0
 12 35  1  0
 13 36  1  0
 15 37  1  0
 19 38  1  0
 20 39  1  0
 20 40  1  0
 21 41  1  0
 21 42  1  0
 23 43  1  0
 26 44  1  0
 27 45  1  0
M  END
>  <smiles>  (79) 
Nc1ccccc1C(=O)Nc1ccc(C=Nn2c(C3CC3)n[nH]c2=S)cc1

>  <score_type>  (79) 
oracle

>  <origin>  (79) 
adg

>  <m_score__min__energy>  (79) 
-8.7400000000000002

>  <m_primary>  (79) 
energy

$$$$
79:0
     RDKit          3D

 51 55  0  0  0  0  0  0  0  0999 V2000
   59.4240   22.7610   45.7130 O   0  0  0  0  0  0  0  0  0  0  0  0
   58.4250   23.4350   45.3420 C   0  0  0  0  0  0  0  0  0  0  0  0
   58.3980   24.8920   45.6440 C   0  0  0  0  0  0  0  0  0  0  0  0
   59.6260   25.5800   45.6860 C   0  0  0  0  0  0  0  0  0  0  0  0
   59.6730   26.9490   45.9430 C   0  0  0  0  0  0  0  0  0  0  0  0
   58.4970   27.6730   46.1540 C   0  0  0  0  0  0  0  0  0  0  0  0
   58.5780   29.0810   46.4310 N   0  0  0  0  0  0  0  0  0  0  0  0
   57.8460   30.0860   45.7040 C   0  0  0  0  0  0  0  0  0  0  0  0
   57.0920   29.7570   44.7480 O   0  0  0  0  0  0  0  0  0  0  0  0
   57.9600   31.5170   46.0650 C   0  0  0  0  0  0  0  0  0  0  0  0
   57.3100   32.4720   45.2770 C   0  0  0  0  0  0  0  0  0  0  0  0
   57.4000   33.8220   45.5970 C   0  0  0  0  0  0  0  0  0  0  0  0
   58.1470   34.2170   46.7040 C   0  0  0  0  0  0  0  0  0  0  0  0
   58.7990   33.2930   47.4740 N   0  0  0  0  0  0  0  0  0  0  0  0
   59.6160   33.7650   48.6060 C   0  0  0  0  0  0  0  0  0  0  0  0
   61.0770   33.5260   48.3320 C   0  0  0  0  0  0  0  0  0  0  0  0
   61.9270   33.0910   49.3620 C   0  0  0  0  0  0  0  0  0  0  0  0
   63.2900   32.8980   49.1180 C   0  0  0  0  0  0  0  0  0  0  0  0
   63.8160   33.1440   47.8460 C   0  0  0  0  0  0  0  0  0  0  0  0
   62.9780   33.5840   46.8170 C   0  0  0  0  0  0  0  0  0  0  0  0
   63.4890   33.8250   45.5850 F   0  0  0  0  0  0  0  0  0  0  0  0
   61.6140   33.7780   47.0570 C   0  0  0  0  0  0  0  0  0  0  0  0
   58.7330   31.9560   47.1630 C   0  0  0  0  0  0  0  0  0  0  0  0
   59.3870   31.1170   47.8430 O   0  0  0  0  0  0  0  0  0  0  0  0
   57.2700   26.9940   46.1590 C   0  0  0  0  0  0  0  0  0  0  0  0
   57.2050   25.6100   45.9090 C   0  0  0  0  0  0  0  0  0  0  0  0
   55.8590   24.9300   45.9530 C   0  0  0  0  0  0  0  0  0  0  0  0
   55.4450   24.4610   44.5590 C   0  0  0  0  0  0  0  0  0  0  0  0
   56.1100   23.1700   44.2010 C   0  0  0  0  0  0  0  0  0  0  0  0
   55.5130   22.2180   43.4580 N   0  0  0  0  0  0  0  0  0  0  0  0
   56.3480   21.1960   43.3360 N   0  0  0  0  0  0  0  0  0  0  0  0
   57.4830   21.4880   43.9970 C   0  0  0  0  0  0  0  0  0  0  0  0
   57.3790   22.7450   44.5570 C   0  0  0  0  0  0  0  0  0  0  0  0
   60.5621   25.0287   45.5134 H   0  0  0  0  0  0  0  0  0  0  0  0
   60.6444   27.4638   45.9800 H   0  0  0  0  0  0  0  0  0  0  0  0
   59.2510   29.3840   47.1690 H   0  0  0  0  0  0  0  0  0  0  0  0
   56.7255   32.1541   44.4010 H   0  0  0  0  0  0  0  0  0  0  0  0
   56.8847   34.5729   44.9801 H   0  0  0  0  0  0  0  0  0  0  0  0
   58.2136   35.2842   46.9622 H   0  0  0  0  0  0  0  0  0  0  0  0
   59.4457   34.8419   48.7522 H   0  0  0  0  0  0  0  0  0  0  0  0
   59.3267   33.2112   49.5113 H   0  0  0  0  0  0  0  0  0  0  0  0
   61.5183   32.9013   50.3655 H   0  0  0  0  0  0  0  0  0  0  0  0
   63.9494   32.5522   49.9277 H   0  0  0  0  0  0  0  0  0  0  0  0
   64.8885   32.9914   47.6550 H   0  0  0  0  0  0  0  0  0  0  0  0
   60.9591   34.1288   46.2458 H   0  0  0  0  0  0  0  0  0  0  0  0
   56.3436   27.5516   46.3615 H   0  0  0  0  0  0  0  0  0  0  0  0
   55.9155   24.0606   46.6245 H   0  0  0  0  0  0  0  0  0  0  0  0
   55.1117   25.6485   46.3208 H   0  0  0  0  0  0  0  0  0  0  0  0
   54.3542   24.3204   44.5373 H   0  0  0  0  0  0  0  0  0  0  0  0
   55.7532   25.2246   43.8297 H   0  0  0  0  0  0  0  0  0  0  0  0
   58.3585   20.8270   44.0784 H   0  0  0  0  0  0  0  0  0  0  0  0
  1  2  2  0
  2  3  1  0
  3  4  2  0
  4  5  1  0
  5  6  2  0
  6  7  1  0
  7  8  1  0
  8  9  2  0
  8 10  1  0
 10 11  2  0
 11 12  1  0
 12 13  2  0
 13 14  1  0
 14 15  1  0
 15 16  1  0
 16 17  2  0
 17 18  1  0
 18 19  2  0
 19 20  1  0
 20 21  1  0
 20 22  2  0
 14 23  1  0
 23 24  2  0
  6 25  1  0
 25 26  2  0
 26 27  1  0
 27 28  1  0
 28 29  1  0
 29 30  1  0
 30 31  1  0
 31 32  2  0
 32 33  1  0
 33  2  1  0
 26  3  1  0
 33 29  2  0
 23 10  1  0
 22 16  1  0
  4 34  1  0
  5 35  1  0
  7 36  1  0
 11 37  1  0
 12 38  1  0
 13 39  1  0
 15 40  1  0
 15 41  1  0
 17 42  1  0
 18 43  1  0
 19 44  1  0
 22 45  1  0
 25 46  1  0
 27 47  1  0
 27 48  1  0
 28 49  1  0
 28 50  1  0
 32 51  1  0
M  CHG  1  30  -1
M  END
>  <UniqueID>  (80) 
75

>  <SMILES>  (80) 
O=C1c2ccc(NC(=O)c3cccn(Cc4cccc(F)c4)c3=O)cc2CCc2[n-]ncc21

>  <Energy>  (80) 
105.77383885253272

>  <Genealogy>  (80) 
O=C1c2ccc(NC(=O)c3cccn(Cc4cccc(F)c4)c3=O)cc2CCc2[n-]ncc21 (protonated)
O=C1c2ccc(NC(=O)c3cccn(Cc4cccc(F)c4)c3=O)cc2CCc2[n-]ncc21 (3D coordinates assigned)
O=C1c2ccc(NC(=O)c3cccn(Cc4cccc(F)c4)c3=O)cc2CCc2[n-]ncc21 (nonaromatic ring conformer: 105.77383885253272 kcal/mol)

>  <smiles>  (80) 
O=C1c2ccc(NC(=O)c3cccn(Cc4cccc(F)c4)c3=O)cc2CCc2[nH]ncc21

>  <score_type>  (80) 
oracle

>  <origin>  (80) 
adg

>  <m_score__min__energy>  (80) 
-10.16

>  <m_primary>  (80) 
energy

$$$$
80:0
     RDKit          3D

 66 69  0  0  0  0  0  0  0  0999 V2000
   56.8983   22.4664   44.5868 H   0  0  0  0  0  0  0  0  0  0  0  0
   57.1250   23.3750   45.1640 C   0  0  0  0  0  0  0  0  0  0  0  0
   58.4510   23.7900   45.3220 C   0  0  0  0  0  0  0  0  0  0  0  0
   59.2668   23.2071   44.8696 H   0  0  0  0  0  0  0  0  0  0  0  0
   58.7410   24.9460   46.0550 C   0  0  0  0  0  0  0  0  0  0  0  0
   59.7845   25.2733   46.1731 H   0  0  0  0  0  0  0  0  0  0  0  0
   57.7040   25.6890   46.6400 C   0  0  0  0  0  0  0  0  0  0  0  0
   58.0150   26.9630   47.3780 C   0  0  0  0  0  0  0  0  0  0  0  0
   58.9933   26.8689   47.8720 H   0  0  0  0  0  0  0  0  0  0  0  0
   57.2343   27.1452   48.1312 H   0  0  0  0  0  0  0  0  0  0  0  0
   58.0510   28.0830   46.4420 N   0  0  0  0  0  0  0  0  0  0  0  0
   57.1920   28.2330   45.4450 N   0  0  0  0  0  0  0  0  0  0  0  0
   57.4600   29.4130   44.8400 C   0  0  0  0  0  0  0  0  0  0  0  0
   56.6720   29.9780   43.6720 C   0  0  0  0  0  0  0  0  0  0  0  0
   56.6440   28.9720   42.5010 C   0  0  0  0  0  0  0  0  0  0  0  0
   56.6155   27.9469   42.8989 H   0  0  0  0  0  0  0  0  0  0  0  0
   55.7505   29.1512   41.8849 H   0  0  0  0  0  0  0  0  0  0  0  0
   57.5461   29.1012   41.8849 H   0  0  0  0  0  0  0  0  0  0  0  0
   57.3310   31.2850   43.1900 C   0  0  0  0  0  0  0  0  0  0  0  0
   57.6338   31.8856   44.0604 H   0  0  0  0  0  0  0  0  0  0  0  0
   58.2168   31.0468   42.5828 H   0  0  0  0  0  0  0  0  0  0  0  0
   56.6128   31.8555   42.5828 H   0  0  0  0  0  0  0  0  0  0  0  0
   55.2270   30.2610   44.1240 C   0  0  0  0  0  0  0  0  0  0  0  0
   55.1817   30.2699   45.2230 H   0  0  0  0  0  0  0  0  0  0  0  0
   54.9063   31.2390   43.7359 H   0  0  0  0  0  0  0  0  0  0  0  0
   54.5611   29.4762   43.7359 H   0  0  0  0  0  0  0  0  0  0  0  0
   58.5160   30.0430   45.4890 C   0  0  0  0  0  0  0  0  0  0  0  0
   58.9761   31.0138   45.2527 H   0  0  0  0  0  0  0  0  0  0  0  0
   58.8520   29.1630   46.5010 C   0  0  0  0  0  0  0  0  0  0  0  0
   59.7650   29.3360   47.4120 N   0  0  0  0  0  0  0  0  0  0  0  0
   60.0340   30.6080   48.0800 C   0  0  0  0  0  0  0  0  0  0  0  0
   60.9312   30.5037   48.7078 H   0  0  0  0  0  0  0  0  0  0  0  0
   60.1917   31.3831   47.3155 H   0  0  0  0  0  0  0  0  0  0  0  0
   58.8760   31.0080   48.9400 C   0  0  0  0  0  0  0  0  0  0  0  0
   58.5310   30.2930   49.9200 O   0  0  0  0  0  0  0  0  0  0  0  0
   58.1590   32.2090   48.6280 N   0  0  0  0  0  0  0  0  0  0  0  0
   58.3680   33.0520   47.4830 C   0  0  0  0  0  0  0  0  0  0  0  0
   57.5120   32.9830   46.3670 C   0  0  0  0  0  0  0  0  0  0  0  0
   56.6613   32.2857   46.3751 H   0  0  0  0  0  0  0  0  0  0  0  0
   57.7330   33.7910   45.2510 C   0  0  0  0  0  0  0  0  0  0  0  0
   57.0472   33.7414   44.3924 H   0  0  0  0  0  0  0  0  0  0  0  0
   58.8220   34.6610   45.2230 C   0  0  0  0  0  0  0  0  0  0  0  0
   58.9929   35.2992   44.3435 H   0  0  0  0  0  0  0  0  0  0  0  0
   59.6950   34.7230   46.3090 C   0  0  0  0  0  0  0  0  0  0  0  0
   60.5614   35.3998   46.2729 H   0  0  0  0  0  0  0  0  0  0  0  0
   59.4790   33.9290   47.4500 C   0  0  0  0  0  0  0  0  0  0  0  0
   60.4380   34.0080   48.5790 C   0  0  0  0  0  0  0  0  0  0  0  0
   60.0970   34.6020   49.6380 O   0  0  0  0  0  0  0  0  0  0  0  0
   61.7420   33.4030   48.5000 N   0  0  0  0  0  0  0  0  0  0  0  0
   62.2560   32.6180   49.6250 C   0  0  0  0  0  0  0  0  0  0  0  0
   61.7974   32.9738   50.5594 H   0  0  0  0  0  0  0  0  0  0  0  0
   62.0080   31.5571   49.4734 H   0  0  0  0  0  0  0  0  0  0  0  0
   63.7760   32.7770   49.7110 C   0  0  0  0  0  0  0  0  0  0  0  0
   64.0150   33.8126   49.9946 H   0  0  0  0  0  0  0  0  0  0  0  0
   64.1623   32.0753   50.4649 H   0  0  0  0  0  0  0  0  0  0  0  0
   64.3820   32.4850   48.4660 O   0  0  0  0  0  0  0  0  0  0  0  0
   63.9850   33.4450   47.5030 C   0  0  0  0  0  0  0  0  0  0  0  0
   64.2255   34.4511   47.8770 H   0  0  0  0  0  0  0  0  0  0  0  0
   64.5233   33.2452   46.5648 H   0  0  0  0  0  0  0  0  0  0  0  0
   62.4790   33.3570   47.2320 C   0  0  0  0  0  0  0  0  0  0  0  0
   62.1716   34.2033   46.6001 H   0  0  0  0  0  0  0  0  0  0  0  0
   62.2574   32.4104   46.7174 H   0  0  0  0  0  0  0  0  0  0  0  0
   56.3740   25.2680   46.4730 C   0  0  0  0  0  0  0  0  0  0  0  0
   55.5549   25.8490   46.9218 H   0  0  0  0  0  0  0  0  0  0  0  0
   56.0880   24.1140   45.7390 C   0  0  0  0  0  0  0  0  0  0  0  0
   55.0452   23.7869   45.6137 H   0  0  0  0  0  0  0  0  0  0  0  0
  1  2  1  0
  2  3  2  0
  3  4  1  0
  3  5  1  0
  5  6  1  0
  5  7  2  0
  7  8  1  0
  8  9  1  0
  8 10  1  0
  8 11  1  0
 11 12  1  0
 12 13  1  0
 13 14  1  0
 14 15  1  0
 15 16  1  0
 15 17  1  0
 15 18  1  0
 14 19  1  0
 19 20  1  0
 19 21  1  0
 19 22  1  0
 14 23  1  0
 23 24  1  0
 23 25  1  0
 23 26  1  0
 13 27  2  0
 27 28  1  0
 27 29  1  0
 29 30  2  0
 30 31  1  0
 31 32  1  0
 31 33  1  0
 31 34  1  0
 34 35  2  0
 34 36  1  0
 36 37  1  0
 37 38  2  0
 38 39  1  0
 38 40  1  0
 40 41  1  0
 40 42  2  0
 42 43  1  0
 42 44  1  0
 44 45  1  0
 44 46  2  0
 46 47  1  0
 47 48  2  0
 47 49  1  0
 49 50  1  0
 50 51  1  0
 50 52  1  0
 50 53  1  0
 53 54  1  0
 53 55  1  0
 53 56  1  0
 56 57  1  0
 57 58  1  0
 57 59  1  0
 57 60  1  0
 60 61  1  0
 60 62  1  0
  7 63  1  0
 63 64  1  0
 63 65  2  0
 65 66  1  0
 65  2  1  0
 29 11  1  0
 46 37  1  0
 60 49  1  0
M  CHG  2  12  -1  36  -1
M  END
>  <UniqueID>  (81) 
76

>  <SMILES>  (81) 
CC(C)(C)c1c/c(=N\CC(=O)[N-]c2ccccc2C(=O)N2CCOCC2)n(Cc2ccccc2)[n-]1

>  <Energy>  (81) 
104.39209972715729

>  <Genealogy>  (81) 
CC(C)(C)c1cc(=NCC(=O)[N-]c2ccccc2C(=O)N2CCOCC2)n(Cc2ccccc2)[n-]1 (protonated)
CC(C)(C)c1c/c(=N\CC(=O)[N-]c2ccccc2C(=O)N2CCOCC2)n(Cc2ccccc2)[n-]1 (cis-trans isomerization)
CC(C)(C)c1c/c(=N\CC(=O)[N-]c2ccccc2C(=O)N2CCOCC2)n(Cc2ccccc2)[n-]1 (3D coordinates assigned)
CC(C)(C)c1c/c(=N\CC(=O)[N-]c2ccccc2C(=O)N2CCOCC2)n(Cc2ccccc2)[n-]1 (nonaromatic ring conformer: 104.39209972715729 kcal/mol)

>  <smiles>  (81) 
CC(C)(C)c1cc(=NCC(=O)Nc2ccccc2C(=O)N2CCOCC2)n(Cc2ccccc2)[nH]1

>  <score_type>  (81) 
oracle

>  <origin>  (81) 
adg

>  <m_score__min__energy>  (81) 
-11.1

>  <m_primary>  (81) 
energy

$$$$
81:0
     RDKit          3D

 61 64  0  0  0  0  0  0  0  0999 V2000
   63.7380   31.0410   52.9250 C   0  0  0  0  0  0  0  0  0  0  0  0
   63.0720   30.8620   51.5960 C   0  0  0  0  0  0  0  0  0  0  0  0
   62.1620   29.8980   51.3560 N   0  0  0  0  0  0  0  0  0  0  0  0
   61.7950   30.0130   50.0650 C   0  0  0  0  0  0  0  0  0  0  0  0
   60.7870   29.1200   49.4120 C   0  0  0  0  0  0  0  0  0  0  0  0
   62.4720   31.0640   49.4660 C   0  0  0  0  0  0  0  0  0  0  0  0
   62.2750   31.6190   47.7990 S   0  0  0  0  0  0  0  0  0  0  0  0
   63.6100   31.5520   47.1100 O   0  0  0  0  0  0  0  0  0  0  0  0
   61.3200   30.7180   47.0650 O   0  0  0  0  0  0  0  0  0  0  0  0
   61.6820   33.2630   47.7640 N   0  0  0  0  0  0  0  0  0  0  0  0
   60.2860   33.3050   48.2560 C   0  0  0  0  0  0  0  0  0  0  0  0
   59.5760   34.5910   47.8100 C   0  0  0  0  0  0  0  0  0  0  0  0
   59.5270   34.7320   46.3290 N   0  0  0  0  0  0  0  0  0  0  0  0
   58.1720   34.5120   45.7730 C   0  0  0  0  0  0  0  0  0  0  0  0
   57.4920   33.3140   46.4510 C   0  0  0  0  0  0  0  0  0  0  0  0
   57.7710   32.0170   45.7380 C   0  0  0  0  0  0  0  0  0  0  0  0
   58.4300   30.9680   46.4000 C   0  0  0  0  0  0  0  0  0  0  0  0
   58.7190   29.7790   45.7230 C   0  0  0  0  0  0  0  0  0  0  0  0
   58.3560   29.6310   44.3820 C   0  0  0  0  0  0  0  0  0  0  0  0
   57.7030   30.6720   43.7150 C   0  0  0  0  0  0  0  0  0  0  0  0
   57.4130   31.8630   44.3880 C   0  0  0  0  0  0  0  0  0  0  0  0
   60.5370   33.9090   45.6250 C   0  0  0  0  0  0  0  0  0  0  0  0
   61.8530   33.8590   46.4120 C   0  0  0  0  0  0  0  0  0  0  0  0
   63.2830   31.6150   50.4500 C   0  0  0  0  0  0  0  0  0  0  0  0
   64.1950   32.7600   50.3110 C   0  0  0  0  0  0  0  0  0  0  0  0
   63.7380   33.8960   50.0240 O   0  0  0  0  0  0  0  0  0  0  0  0
   65.5970   32.5960   50.5180 N   0  0  0  0  0  0  0  0  0  0  0  0
   66.5200   31.5550   51.0030 C   0  0  0  0  0  0  0  0  0  0  0  0
   67.7480   32.4020   50.9670 C   0  0  0  0  0  0  0  0  0  0  0  0
   66.8000   33.4460   50.4770 C   0  0  0  0  0  0  0  0  0  0  0  0
   63.0121   30.8459   53.7281 H   0  0  0  0  0  0  0  0  0  0  0  0
   64.5787   30.3369   53.0116 H   0  0  0  0  0  0  0  0  0  0  0  0
   64.1125   32.0717   53.0116 H   0  0  0  0  0  0  0  0  0  0  0  0
   61.8140   29.1900   52.0410 H   0  0  0  0  0  0  0  0  0  0  0  0
   60.2013   28.6012   50.1852 H   0  0  0  0  0  0  0  0  0  0  0  0
   60.1138   29.7235   48.7854 H   0  0  0  0  0  0  0  0  0  0  0  0
   61.3050   28.3790   48.7854 H   0  0  0  0  0  0  0  0  0  0  0  0
   62.2740   33.8120   48.4300 H   0  0  0  0  0  0  0  0  0  0  0  0
   59.7395   32.4374   47.8578 H   0  0  0  0  0  0  0  0  0  0  0  0
   60.3045   33.2820   49.3556 H   0  0  0  0  0  0  0  0  0  0  0  0
   58.5465   34.5777   48.1972 H   0  0  0  0  0  0  0  0  0  0  0  0
   60.1473   35.4428   48.2077 H   0  0  0  0  0  0  0  0  0  0  0  0
   57.5635   35.4133   45.9387 H   0  0  0  0  0  0  0  0  0  0  0  0
   58.2623   34.3033   44.6967 H   0  0  0  0  0  0  0  0  0  0  0  0
   57.8617   33.2360   47.4841 H   0  0  0  0  0  0  0  0  0  0  0  0
   56.4057   33.4850   46.4238 H   0  0  0  0  0  0  0  0  0  0  0  0
   58.7199   31.0822   47.4550 H   0  0  0  0  0  0  0  0  0  0  0  0
   59.2327   28.9594   46.2468 H   0  0  0  0  0  0  0  0  0  0  0  0
   58.5840   28.6952   43.8507 H   0  0  0  0  0  0  0  0  0  0  0  0
   57.4170   30.5540   42.6594 H   0  0  0  0  0  0  0  0  0  0  0  0
   56.9031   32.6817   43.8590 H   0  0  0  0  0  0  0  0  0  0  0  0
   60.1491   32.8863   45.5079 H   0  0  0  0  0  0  0  0  0  0  0  0
   60.7341   34.3620   44.6422 H   0  0  0  0  0  0  0  0  0  0  0  0
   62.5790   33.2545   45.8485 H   0  0  0  0  0  0  0  0  0  0  0  0
   62.2053   34.8928   46.5429 H   0  0  0  0  0  0  0  0  0  0  0  0
   66.2733   31.2080   52.0173 H   0  0  0  0  0  0  0  0  0  0  0  0
   66.5474   30.6092   50.4419 H   0  0  0  0  0  0  0  0  0  0  0  0
   68.2141   32.6042   51.9427 H   0  0  0  0  0  0  0  0  0  0  0  0
   68.6742   32.1195   50.4451 H   0  0  0  0  0  0  0  0  0  0  0  0
   66.7327   34.3101   51.1544 H   0  0  0  0  0  0  0  0  0  0  0  0
   67.0392   33.9299   49.5185 H   0  0  0  0  0  0  0  0  0  0  0  0
  1  2  1  0
  2  3  1  0
  3  4  1  0
  4  5  1  0
  4  6  2  0
  6  7  1  0
  7  8  2  0
  7  9  2  0
  7 10  1  0
 10 11  1  0
 11 12  1  0
 12 13  1  0
 13 14  1  0
 14 15  1  0
 15 16  1  0
 16 17  2  0
 17 18  1  0
 18 19  2  0
 19 20  1  0
 20 21  2  0
 13 22  1  0
 22 23  1  0
  6 24  1  0
 24 25  1  0
 25 26  2  0
 25 27  1  0
 27 28  1  0
 28 29  1  0
 29 30  1  0
 24  2  2  0
 30 27  1  0
 23 10  1  0
 21 16  1  0
  1 31  1  0
  1 32  1  0
  1 33  1  0
  3 34  1  0
  5 35  1  0
  5 36  1  0
  5 37  1  0
 10 38  1  0
 11 39  1  0
 11 40  1  0
 12 41  1  0
 12 42  1  0
 14 43  1  0
 14 44  1  0
 15 45  1  0
 15 46  1  0
 17 47  1  0
 18 48  1  0
 19 49  1  0
 20 50  1  0
 21 51  1  0
 22 52  1  0
 22 53  1  0
 23 54  1  0
 23 55  1  0
 28 56  1  0
 28 57  1  0
 29 58  1  0
 29 59  1  0
 30 60  1  0
 30 61  1  0
M  CHG  1  10   1
M  END
>  <UniqueID>  (82) 
77

>  <SMILES>  (82) 
Cc1[nH]c(C)c(S(=O)(=O)[NH+]2CCN(CCc3ccccc3)CC2)c1C(=O)N1CCC1

>  <Energy>  (82) 
144.01867002973242

>  <Genealogy>  (82) 
Cc1[nH]c(C)c(S(=O)(=O)[NH+]2CCN(CCc3ccccc3)CC2)c1C(=O)N1CCC1 (protonated)
Cc1[nH]c(C)c(S(=O)(=O)[NH+]2CCN(CCc3ccccc3)CC2)c1C(=O)N1CCC1 (3D coordinates assigned)
Cc1[nH]c(C)c(S(=O)(=O)[NH+]2CCN(CCc3ccccc3)CC2)c1C(=O)N1CCC1 (nonaromatic ring conformer: 144.01867002973242 kcal/mol)

>  <smiles>  (82) 
Cc1[nH]c(C)c(S(=O)(=O)N2CCN(CCc3ccccc3)CC2)c1C(=O)N1CCC1

>  <score_type>  (82) 
oracle

>  <origin>  (82) 
adg

>  <m_score__min__energy>  (82) 
-7.25

>  <m_primary>  (82) 
energy

$$$$
82:0
     RDKit          3D

 56 58  0  0  0  0  0  0  0  0999 V2000
   58.5690   29.0100   46.6740 C   0  0  0  0  0  0  0  0  0  0  0  0
   57.7790   29.7240   45.2500 S   0  0  0  0  0  0  0  0  0  0  0  0
   56.1400   29.3600   45.2110 O   0  0  0  0  0  0  0  0  0  0  0  0
   58.0310   31.4590   45.1710 C   0  0  0  0  0  0  0  0  0  0  0  0
   57.3930   32.2150   44.1830 C   0  0  0  0  0  0  0  0  0  0  0  0
   57.5990   33.5940   44.1170 C   0  0  0  0  0  0  0  0  0  0  0  0
   58.4430   34.2230   45.0380 C   0  0  0  0  0  0  0  0  0  0  0  0
   59.0880   33.4770   46.0430 C   0  0  0  0  0  0  0  0  0  0  0  0
   59.9850   34.1610   47.0130 C   0  0  0  0  0  0  0  0  0  0  0  0
   60.4130   35.3170   46.7440 O   0  0  0  0  0  0  0  0  0  0  0  0
   60.4290   33.4800   48.2870 C   0  0  0  0  0  0  0  0  0  0  0  0
   59.7320   34.0600   49.5400 C   0  0  0  0  0  0  0  0  0  0  0  0
   58.8330   33.1070   50.2250 N   0  0  0  0  0  0  0  0  0  0  0  0
   58.9490   31.7040   49.7590 C   0  0  0  0  0  0  0  0  0  0  0  0
   59.4920   30.7690   50.8530 C   0  0  0  0  0  0  0  0  0  0  0  0
   58.6700   30.8060   52.0910 N   0  0  0  0  0  0  0  0  0  0  0  0
   57.6910   29.7000   52.1220 C   0  0  0  0  0  0  0  0  0  0  0  0
   56.3450   30.1930   52.5590 C   0  0  0  0  0  0  0  0  0  0  0  0
   56.1310   30.4310   53.7780 O   0  0  0  0  0  0  0  0  0  0  0  0
   55.3310   30.4340   51.5750 N   0  0  0  0  0  0  0  0  0  0  0  0
   53.9180   30.4970   51.8140 C   0  0  0  0  0  0  0  0  0  0  0  0
   53.3120   29.4620   52.5390 C   0  0  0  0  0  0  0  0  0  0  0  0
   51.9400   29.4980   52.8100 C   0  0  0  0  0  0  0  0  0  0  0  0
   51.1680   30.5770   52.3710 C   0  0  0  0  0  0  0  0  0  0  0  0
   51.7680   31.6270   51.6710 C   0  0  0  0  0  0  0  0  0  0  0  0
   51.0030   32.7090   51.2510 O   0  0  0  0  0  0  0  0  0  0  0  0
   53.1400   31.5930   51.3960 C   0  0  0  0  0  0  0  0  0  0  0  0
   58.0170   32.1190   52.3330 C   0  0  0  0  0  0  0  0  0  0  0  0
   58.7980   33.2700   51.6930 C   0  0  0  0  0  0  0  0  0  0  0  0
   58.8750   32.0840   46.0970 C   0  0  0  0  0  0  0  0  0  0  0  0
   58.1157   29.4197   47.5887 H   0  0  0  0  0  0  0  0  0  0  0  0
   58.4378   27.9180   46.6571 H   0  0  0  0  0  0  0  0  0  0  0  0
   59.6422   29.2506   46.6571 H   0  0  0  0  0  0  0  0  0  0  0  0
   55.7840   29.7280   46.0590 H   0  0  0  0  0  0  0  0  0  0  0  0
   56.7285   31.7230   43.4575 H   0  0  0  0  0  0  0  0  0  0  0  0
   57.0964   34.1873   43.3389 H   0  0  0  0  0  0  0  0  0  0  0  0
   58.6042   35.3094   44.9767 H   0  0  0  0  0  0  0  0  0  0  0  0
   60.1922   32.4082   48.2155 H   0  0  0  0  0  0  0  0  0  0  0  0
   61.5105   33.6477   48.3973 H   0  0  0  0  0  0  0  0  0  0  0  0
   60.5084   34.3758   50.2524 H   0  0  0  0  0  0  0  0  0  0  0  0
   59.1058   34.8966   49.1965 H   0  0  0  0  0  0  0  0  0  0  0  0
   57.9538   31.3495   49.4525 H   0  0  0  0  0  0  0  0  0  0  0  0
   59.6581   31.6860   48.9183 H   0  0  0  0  0  0  0  0  0  0  0  0
   59.5003   29.7396   50.4654 H   0  0  0  0  0  0  0  0  0  0  0  0
   60.5047   31.1106   51.1131 H   0  0  0  0  0  0  0  0  0  0  0  0
   57.6063   29.2650   51.1152 H   0  0  0  0  0  0  0  0  0  0  0  0
   58.0385   28.9415   52.8388 H   0  0  0  0  0  0  0  0  0  0  0  0
   53.9184   28.6169   52.8969 H   0  0  0  0  0  0  0  0  0  0  0  0
   51.4685   28.6763   53.3691 H   0  0  0  0  0  0  0  0  0  0  0  0
   50.0876   30.5997   52.5766 H   0  0  0  0  0  0  0  0  0  0  0  0
   53.6113   32.4248   50.8519 H   0  0  0  0  0  0  0  0  0  0  0  0
   57.0033   32.0963   51.9066 H   0  0  0  0  0  0  0  0  0  0  0  0
   57.9857   32.2899   53.4192 H   0  0  0  0  0  0  0  0  0  0  0  0
   58.3091   34.2235   51.9414 H   0  0  0  0  0  0  0  0  0  0  0  0
   59.8277   33.2647   52.0799 H   0  0  0  0  0  0  0  0  0  0  0  0
   59.3753   31.4845   46.8718 H   0  0  0  0  0  0  0  0  0  0  0  0
  1  2  1  0
  2  3  1  1
  2  4  1  0
  4  5  2  0
  5  6  1  0
  6  7  2  0
  7  8  1  0
  8  9  1  0
  9 10  2  0
  9 11  1  0
 11 12  1  0
 12 13  1  0
 13 14  1  0
 14 15  1  0
 15 16  1  0
 16 17  1  0
 17 18  1  0
 18 19  2  0
 18 20  1  0
 20 21  1  0
 21 22  2  0
 22 23  1  0
 23 24  2  0
 24 25  1  0
 25 26  1  0
 25 27  2  0
 16 28  1  0
 28 29  1  0
  8 30  2  0
 30  4  1  0
 29 13  1  0
 27 21  1  0
  1 31  1  0
  1 32  1  0
  1 33  1  0
  3 34  1  0
  5 35  1  0
  6 36  1  0
  7 37  1  0
 11 38  1  0
 11 39  1  0
 12 40  1  0
 12 41  1  0
 14 42  1  0
 14 43  1  0
 15 44  1  0
 15 45  1  0
 17 46  1  0
 17 47  1  0
 22 48  1  0
 23 49  1  0
 24 50  1  0
 27 51  1  0
 28 52  1  0
 28 53  1  0
 29 54  1  0
 29 55  1  0
 30 56  1  0
M  CHG  3   2   1  20  -1  26  -1
M  END
>  <UniqueID>  (83) 
78

>  <SMILES>  (83) 
C[S@@+](O)c1cccc(C(=O)CCN2CCN(CC(=O)[N-]c3cccc([O-])c3)CC2)c1

>  <Energy>  (83) 
72.12282025735264

>  <Genealogy>  (83) 
C[S+](O)c1cccc(C(=O)CCN2CCN(CC(=O)[N-]c3cccc([O-])c3)CC2)c1 (protonated)
C[S@@+](O)c1cccc(C(=O)CCN2CCN(CC(=O)[N-]c3cccc([O-])c3)CC2)c1 (chirality)
C[S@@+](O)c1cccc(C(=O)CCN2CCN(CC(=O)[N-]c3cccc([O-])c3)CC2)c1 (3D coordinates assigned)
C[S@@+](O)c1cccc(C(=O)CCN2CCN(CC(=O)[N-]c3cccc([O-])c3)CC2)c1 (nonaromatic ring conformer: 72.12282025735264 kcal/mol)

>  <smiles>  (83) 
C[S+]([O-])c1cccc(C(=O)CCN2CCN(CC(=O)Nc3cccc(O)c3)CC2)c1

>  <score_type>  (83) 
oracle

>  <origin>  (83) 
adg

>  <m_score__min__energy>  (83) 
-13.300000000000001

>  <m_primary>  (83) 
energy

$$$$
83:0
     RDKit          3D

 55 58  0  0  0  0  0  0  0  0999 V2000
   59.6750   36.1070   45.7070 C   0  0  0  0  0  0  0  0  0  0  0  0
   59.1230   34.7100   45.6940 C   0  0  0  0  0  0  0  0  0  0  0  0
   58.9690   34.0260   44.4740 C   0  0  0  0  0  0  0  0  0  0  0  0
   58.4600   32.7220   44.4570 C   0  0  0  0  0  0  0  0  0  0  0  0
   58.0990   32.0860   45.6570 C   0  0  0  0  0  0  0  0  0  0  0  0
   57.5530   30.6830   45.6420 C   0  0  0  0  0  0  0  0  0  0  0  0
   58.6110   29.7070   45.9340 N   0  0  0  0  0  0  0  0  0  0  0  0
   58.6960   28.4400   45.2010 C   0  0  0  0  0  0  0  0  0  0  0  0
   57.6410   27.4950   45.6930 C   0  0  0  0  0  0  0  0  0  0  0  0
   57.8900   26.2880   46.3260 C   0  0  0  0  0  0  0  0  0  0  0  0
   56.6590   25.6910   46.5070 C   0  0  0  0  0  0  0  0  0  0  0  0
   55.7380   26.5650   45.9630 C   0  0  0  0  0  0  0  0  0  0  0  0
   54.3690   26.3410   45.9200 O   0  0  0  0  0  0  0  0  0  0  0  0
   56.3210   27.6670   45.4550 N   0  0  0  0  0  0  0  0  0  0  0  0
   59.4950   29.9280   47.0420 C   0  0  0  0  0  0  0  0  0  0  0  0
   60.6860   30.5550   46.8490 N   0  0  0  0  0  0  0  0  0  0  0  0
   61.5640   30.7240   47.8710 C   0  0  0  0  0  0  0  0  0  0  0  0
   61.2590   30.2320   49.1470 C   0  0  0  0  0  0  0  0  0  0  0  0
   62.2100   30.3910   50.2700 C   0  0  0  0  0  0  0  0  0  0  0  0
   62.0840   29.6550   51.2890 O   0  0  0  0  0  0  0  0  0  0  0  0
   63.2750   31.3600   50.2260 N   0  0  0  0  0  0  0  0  0  0  0  0
   63.0660   32.6740   49.5980 C   0  0  0  0  0  0  0  0  0  0  0  0
   63.7670   33.7670   50.4100 C   0  0  0  0  0  0  0  0  0  0  0  0
   65.2720   33.4900   50.6070 C   0  0  0  0  0  0  0  0  0  0  0  0
   65.6570   32.0080   50.4650 C   0  0  0  0  0  0  0  0  0  0  0  0
   64.5350   31.0710   50.9320 C   0  0  0  0  0  0  0  0  0  0  0  0
   60.0130   29.6160   49.3260 C   0  0  0  0  0  0  0  0  0  0  0  0
   59.1660   29.4670   48.2770 N   0  0  0  0  0  0  0  0  0  0  0  0
   58.2780   32.7600   46.8780 C   0  0  0  0  0  0  0  0  0  0  0  0
   58.7920   34.0610   46.8960 C   0  0  0  0  0  0  0  0  0  0  0  0
   59.8064   36.4396   46.7472 H   0  0  0  0  0  0  0  0  0  0  0  0
   60.6467   36.1221   45.1916 H   0  0  0  0  0  0  0  0  0  0  0  0
   58.9761   36.7822   45.1916 H   0  0  0  0  0  0  0  0  0  0  0  0
   59.2494   34.5174   43.5307 H   0  0  0  0  0  0  0  0  0  0  0  0
   58.3421   32.1928   43.4999 H   0  0  0  0  0  0  0  0  0  0  0  0
   56.7625   30.5958   46.4020 H   0  0  0  0  0  0  0  0  0  0  0  0
   57.1476   30.4738   44.6411 H   0  0  0  0  0  0  0  0  0  0  0  0
   58.5452   28.6285   44.1278 H   0  0  0  0  0  0  0  0  0  0  0  0
   59.6877   27.9928   45.3639 H   0  0  0  0  0  0  0  0  0  0  0  0
   58.8700   25.8869   46.6239 H   0  0  0  0  0  0  0  0  0  0  0  0
   56.4540   24.7216   46.9847 H   0  0  0  0  0  0  0  0  0  0  0  0
   62.5156   31.2476   47.6970 H   0  0  0  0  0  0  0  0  0  0  0  0
   63.4779   32.6587   48.5781 H   0  0  0  0  0  0  0  0  0  0  0  0
   61.9875   32.8880   49.5649 H   0  0  0  0  0  0  0  0  0  0  0  0
   63.6517   34.7256   49.8829 H   0  0  0  0  0  0  0  0  0  0  0  0
   63.3006   33.7916   51.4059 H   0  0  0  0  0  0  0  0  0  0  0  0
   65.8315   34.0666   49.8557 H   0  0  0  0  0  0  0  0  0  0  0  0
   65.5189   33.7866   51.6371 H   0  0  0  0  0  0  0  0  0  0  0  0
   65.8764   31.7986   49.4076 H   0  0  0  0  0  0  0  0  0  0  0  0
   66.5364   31.8249   51.0999 H   0  0  0  0  0  0  0  0  0  0  0  0
   64.8290   30.0303   50.7309 H   0  0  0  0  0  0  0  0  0  0  0  0
   64.3756   31.2263   52.0093 H   0  0  0  0  0  0  0  0  0  0  0  0
   59.7205   29.2516   50.3218 H   0  0  0  0  0  0  0  0  0  0  0  0
   58.0129   32.2625   47.8225 H   0  0  0  0  0  0  0  0  0  0  0  0
   58.9378   34.5786   47.8556 H   0  0  0  0  0  0  0  0  0  0  0  0
  1  2  1  0
  2  3  2  0
  3  4  1  0
  4  5  2  0
  5  6  1  0
  6  7  1  0
  7  8  1  0
  8  9  1  0
  9 10  2  0
 10 11  1  0
 11 12  2  0
 12 13  1  0
 12 14  1  0
  7 15  1  0
 15 16  2  0
 16 17  1  0
 17 18  2  0
 18 19  1  0
 19 20  2  0
 19 21  1  0
 21 22  1  0
 22 23  1  0
 23 24  1  0
 24 25  1  0
 25 26  1  0
 18 27  1  0
 27 28  2  0
  5 29  1  0
 29 30  2  0
 30  2  1  0
 14  9  1  0
 28 15  1  0
 26 21  1  0
  1 31  1  0
  1 32  1  0
  1 33  1  0
  3 34  1  0
  4 35  1  0
  6 36  1  0
  6 37  1  0
  8 38  1  0
  8 39  1  0
 10 40  1  0
 11 41  1  0
 17 42  1  0
 22 43  1  0
 22 44  1  0
 23 45  1  0
 23 46  1  0
 24 47  1  0
 24 48  1  0
 25 49  1  0
 25 50  1  0
 26 51  1  0
 26 52  1  0
 27 53  1  0
 29 54  1  0
 30 55  1  0
M  CHG  2  13  -1  14  -1
M  END
>  <UniqueID>  (84) 
79

>  <SMILES>  (84) 
Cc1ccc(CN(Cc2ccc([O-])[n-]2)c2ncc(C(=O)N3CCCCC3)cn2)cc1

>  <Energy>  (84) 
89.21832699989952

>  <Genealogy>  (84) 
Cc1ccc(CN(Cc2ccc([O-])[n-]2)c2ncc(C(=O)N3CCCCC3)cn2)cc1 (protonated)
Cc1ccc(CN(Cc2ccc([O-])[n-]2)c2ncc(C(=O)N3CCCCC3)cn2)cc1 (3D coordinates assigned)
Cc1ccc(CN(Cc2ccc([O-])[n-]2)c2ncc(C(=O)N3CCCCC3)cn2)cc1 (nonaromatic ring conformer: 89.21832699989952 kcal/mol)

>  <smiles>  (84) 
Cc1ccc(CN(Cc2ccc(O)[nH]2)c2ncc(C(=O)N3CCCCC3)cn2)cc1

>  <score_type>  (84) 
oracle

>  <origin>  (84) 
adg

>  <m_score__min__energy>  (84) 
-13.58

>  <m_primary>  (84) 
energy

$$$$
84:0
     RDKit          3D

 41 44  0  0  0  0  0  0  0  0999 V2000
   58.4840   26.8440   43.0630 O   0  0  0  0  0  0  0  0  0  0  0  0
   58.1840   27.0330   44.2710 C   0  0  0  0  0  0  0  0  0  0  0  0
   57.9980   26.1480   45.4660 C   0  0  2  0  0  0  0  0  0  0  0  0
   56.8620   25.1450   45.3290 C   0  0  0  0  0  0  0  0  0  0  0  0
   57.1860   23.8290   44.9550 C   0  0  0  0  0  0  0  0  0  0  0  0
   56.1920   22.8580   44.8270 C   0  0  0  0  0  0  0  0  0  0  0  0
   54.8590   23.1830   45.0760 C   0  0  0  0  0  0  0  0  0  0  0  0
   54.5090   24.4790   45.4630 C   0  0  0  0  0  0  0  0  0  0  0  0
   53.1700   24.7710   45.7120 O   0  0  0  0  0  0  0  0  0  0  0  0
   55.5060   25.4650   45.5960 C   0  0  0  0  0  0  0  0  0  0  0  0
   55.1420   26.7470   45.9950 O   0  0  0  0  0  0  0  0  0  0  0  0
   57.6790   27.3300   46.2400 C   0  0  1  0  0  0  0  0  0  0  0  0
   58.6580   27.6050   47.3680 C   0  0  0  0  0  0  0  0  0  0  0  0
   59.7440   26.7350   47.5610 C   0  0  0  0  0  0  0  0  0  0  0  0
   60.6690   26.9750   48.5820 C   0  0  0  0  0  0  0  0  0  0  0  0
   60.5250   28.0900   49.4120 C   0  0  0  0  0  0  0  0  0  0  0  0
   61.4460   28.3260   50.4250 O   0  0  0  0  0  0  0  0  0  0  0  0
   59.4560   28.9690   49.2190 C   0  0  0  0  0  0  0  0  0  0  0  0
   58.5290   28.7330   48.2000 C   0  0  0  0  0  0  0  0  0  0  0  0
   57.8760   28.2200   45.1080 N   0  0  0  0  0  0  0  0  0  0  0  0
   57.7730   29.6310   44.8850 C   0  0  0  0  0  0  0  0  0  0  0  0
   57.1460   30.1220   43.7300 C   0  0  0  0  0  0  0  0  0  0  0  0
   57.0520   31.5010   43.5140 C   0  0  0  0  0  0  0  0  0  0  0  0
   57.5830   32.3950   44.4490 C   0  0  0  0  0  0  0  0  0  0  0  0
   58.2080   31.9100   45.6020 C   0  0  0  0  0  0  0  0  0  0  0  0
   58.3040   30.5330   45.8210 C   0  0  0  0  0  0  0  0  0  0  0  0
   58.7833   25.4515   45.7950 H   0  0  0  0  0  0  0  0  0  0  0  0
   58.2352   23.5617   44.7610 H   0  0  0  0  0  0  0  0  0  0  0  0
   56.4606   21.8338   44.5290 H   0  0  0  0  0  0  0  0  0  0  0  0
   54.0790   22.4150   44.9672 H   0  0  0  0  0  0  0  0  0  0  0  0
   52.7040   25.5700   45.2980 H   0  0  0  0  0  0  0  0  0  0  0  0
   56.7236   27.3516   46.7848 H   0  0  0  0  0  0  0  0  0  0  0  0
   59.8674   25.8603   46.9055 H   0  0  0  0  0  0  0  0  0  0  0  0
   61.5120   26.2844   48.7321 H   0  0  0  0  0  0  0  0  0  0  0  0
   59.3439   29.8483   49.8703 H   0  0  0  0  0  0  0  0  0  0  0  0
   57.6940   29.4326   48.0474 H   0  0  0  0  0  0  0  0  0  0  0  0
   56.7274   29.4212   42.9927 H   0  0  0  0  0  0  0  0  0  0  0  0
   56.5597   31.8826   42.6074 H   0  0  0  0  0  0  0  0  0  0  0  0
   57.5091   33.4790   44.2776 H   0  0  0  0  0  0  0  0  0  0  0  0
   58.6248   32.6134   46.3379 H   0  0  0  0  0  0  0  0  0  0  0  0
   58.7968   30.1549   46.7289 H   0  0  0  0  0  0  0  0  0  0  0  0
  1  2  2  0
  2  3  1  0
  3  4  1  0
  4  5  2  0
  5  6  1  0
  6  7  2  0
  7  8  1  0
  8  9  1  0
  8 10  2  0
 10 11  1  0
  3 12  1  0
 12 13  1  0
 13 14  2  0
 14 15  1  0
 15 16  2  0
 16 17  1  0
 16 18  1  0
 18 19  2  0
 12 20  1  0
 20 21  1  0
 21 22  2  0
 22 23  1  0
 23 24  2  0
 24 25  1  0
 25 26  2  0
 20  2  1  0
 26 21  1  0
 10  4  1  0
 19 13  1  0
  3 27  1  1
  5 28  1  0
  6 29  1  0
  7 30  1  0
  9 31  1  0
 12 32  1  1
 14 33  1  0
 15 34  1  0
 18 35  1  0
 19 36  1  0
 22 37  1  0
 23 38  1  0
 24 39  1  0
 25 40  1  0
 26 41  1  0
M  CHG  2  11  -1  17  -1
M  END
>  <UniqueID>  (85) 
80

>  <SMILES>  (85) 
O=C1[C@H](c2cccc(O)c2[O-])[C@@H](c2ccc([O-])cc2)N1c1ccccc1

>  <Energy>  (85) 
81.36547737208163

>  <Genealogy>  (85) 
O=C1C(c2cccc(O)c2[O-])C(c2ccc([O-])cc2)N1c1ccccc1 (protonated)
O=C1[C@H](c2cccc(O)c2[O-])[C@@H](c2ccc([O-])cc2)N1c1ccccc1 (chirality)
O=C1[C@H](c2cccc(O)c2[O-])[C@@H](c2ccc([O-])cc2)N1c1ccccc1 (3D coordinates assigned)
O=C1[C@H](c2cccc(O)c2[O-])[C@@H](c2ccc([O-])cc2)N1c1ccccc1 (nonaromatic ring conformer: 81.36547737208163 kcal/mol)

>  <smiles>  (85) 
O=C1C(c2cccc(O)c2O)C(c2ccc(O)cc2)N1c1ccccc1

>  <score_type>  (85) 
oracle

>  <origin>  (85) 
adg

>  <m_score__min__energy>  (85) 
-12.130000000000001

>  <m_primary>  (85) 
energy

$$$$
85:0
     RDKit          3D

 36 38  0  0  0  0  0  0  0  0999 V2000
   55.2880   30.0290   54.5610 O   0  0  0  0  0  0  0  0  0  0  0  0
   55.7790   29.5670   53.2170 S   0  0  0  0  0  0  0  0  0  0  0  0
   56.4340   28.2240   53.3720 O   0  0  0  0  0  0  0  0  0  0  0  0
   54.4280   29.4230   52.1370 N   0  0  0  0  0  0  0  0  0  0  0  0
   53.3070   30.3270   52.1250 C   0  0  0  0  0  0  0  0  0  0  0  0
   52.4040   30.4090   53.2030 C   0  0  0  0  0  0  0  0  0  0  0  0
   51.3300   31.3050   53.1590 C   0  0  0  0  0  0  0  0  0  0  0  0
   51.1440   32.1210   52.0410 C   0  0  0  0  0  0  0  0  0  0  0  0
   50.0760   33.0090   51.9990 O   0  0  0  0  0  0  0  0  0  0  0  0
   52.0290   32.0420   50.9640 C   0  0  0  0  0  0  0  0  0  0  0  0
   53.1040   31.1480   51.0050 C   0  0  0  0  0  0  0  0  0  0  0  0
   56.9580   30.6990   52.5610 C   0  0  0  0  0  0  0  0  0  0  0  0
   57.3470   30.6040   51.2190 C   0  0  0  0  0  0  0  0  0  0  0  0
   58.2740   31.5050   50.6900 C   0  0  0  0  0  0  0  0  0  0  0  0
   58.8260   32.5100   51.5000 C   0  0  0  0  0  0  0  0  0  0  0  0
   59.8480   33.4630   50.9430 C   0  0  0  0  0  0  0  0  0  0  0  0
   59.5600   33.7630   49.1650 S   0  0  0  0  0  0  0  0  0  0  0  0
   61.2870   33.6320   48.7090 C   0  0  0  0  0  0  0  0  0  0  0  0
   62.2880   34.1940   49.4130 N   0  0  0  0  0  0  0  0  0  0  0  0
   63.3670   33.8230   48.6970 C   0  0  0  0  0  0  0  0  0  0  0  0
   63.0380   33.0850   47.6210 N   0  0  0  0  0  0  0  0  0  0  0  0
   61.7230   32.9650   47.6270 N   0  0  0  0  0  0  0  0  0  0  0  0
   58.4420   32.5970   52.8470 C   0  0  0  0  0  0  0  0  0  0  0  0
   57.5120   31.6960   53.3740 C   0  0  0  0  0  0  0  0  0  0  0  0
   54.4800   28.6700   51.4140 H   0  0  0  0  0  0  0  0  0  0  0  0
   52.5438   29.7654   54.0840 H   0  0  0  0  0  0  0  0  0  0  0  0
   50.6312   31.3667   54.0063 H   0  0  0  0  0  0  0  0  0  0  0  0
   51.8808   32.6833   50.0826 H   0  0  0  0  0  0  0  0  0  0  0  0
   53.7962   31.0879   50.1522 H   0  0  0  0  0  0  0  0  0  0  0  0
   56.9210   29.8171   50.5793 H   0  0  0  0  0  0  0  0  0  0  0  0
   58.5728   31.4268   49.6342 H   0  0  0  0  0  0  0  0  0  0  0  0
   59.7822   34.4182   51.4845 H   0  0  0  0  0  0  0  0  0  0  0  0
   60.8466   33.0186   51.0668 H   0  0  0  0  0  0  0  0  0  0  0  0
   64.4000   34.0928   48.9619 H   0  0  0  0  0  0  0  0  0  0  0  0
   58.8745   33.3772   53.4907 H   0  0  0  0  0  0  0  0  0  0  0  0
   57.2144   31.7703   54.4304 H   0  0  0  0  0  0  0  0  0  0  0  0
  1  2  2  0
  2  3  2  0
  2  4  1  0
  4  5  1  0
  5  6  2  0
  6  7  1  0
  7  8  2  0
  8  9  1  0
  8 10  1  0
 10 11  2  0
  2 12  1  0
 12 13  2  0
 13 14  1  0
 14 15  2  0
 15 16  1  0
 16 17  1  0
 17 18  1  0
 18 19  1  0
 19 20  2  0
 20 21  1  0
 21 22  1  0
 15 23  1  0
 23 24  2  0
 11  5  1  0
 24 12  1  0
 22 18  2  0
  4 25  1  0
  6 26  1  0
  7 27  1  0
 10 28  1  0
 11 29  1  0
 13 30  1  0
 14 31  1  0
 16 32  1  0
 16 33  1  0
 20 34  1  0
 23 35  1  0
 24 36  1  0
M  CHG  2   9  -1  21  -1
M  END
>  <UniqueID>  (86) 
81

>  <SMILES>  (86) 
O=S(=O)(Nc1ccc([O-])cc1)c1ccc(CSc2nc[n-]n2)cc1

>  <Energy>  (86) 
68.45852955840951

>  <Genealogy>  (86) 
O=S(=O)(Nc1ccc([O-])cc1)c1ccc(CSc2nc[n-]n2)cc1 (protonated)
O=S(=O)(Nc1ccc([O-])cc1)c1ccc(CSc2nc[n-]n2)cc1 (3D coordinates assigned)
O=S(=O)(Nc1ccc([O-])cc1)c1ccc(CSc2nc[n-]n2)cc1 (optimized conformer: 68.45852955840951 kcal/mol)

>  <smiles>  (86) 
O=S(=O)(Nc1ccc(O)cc1)c1ccc(CSc2nc[nH]n2)cc1

>  <score_type>  (86) 
oracle

>  <origin>  (86) 
adg

>  <m_score__min__energy>  (86) 
-12.33

>  <m_primary>  (86) 
energy

$$$$
86:0
     RDKit          3D

 54 56  0  0  0  0  0  0  0  0999 V2000
   60.9680   26.2900   50.8310 O   0  0  0  0  0  0  0  0  0  0  0  0
   60.7480   27.3780   50.2360 C   0  0  0  0  0  0  0  0  0  0  0  0
   60.0570   28.4940   50.9570 C   0  0  0  0  0  0  0  0  0  0  0  0
   59.8420   29.6270   50.0590 N   0  0  0  0  0  0  0  0  0  0  0  0
   58.6550   30.4280   50.0970 C   0  0  0  0  0  0  0  0  0  0  0  0
   57.7280   30.1540   50.9110 O   0  0  0  0  0  0  0  0  0  0  0  0
   58.5360   31.5140   49.2240 O   0  0  0  0  0  0  0  0  0  0  0  0
   59.2280   32.7480   49.4090 C   0  0  0  0  0  0  0  0  0  0  0  0
   60.5280   32.7380   48.6520 C   0  0  0  0  0  0  0  0  0  0  0  0
   60.8690   31.6540   47.8250 C   0  0  0  0  0  0  0  0  0  0  0  0
   62.0900   31.6460   47.1420 C   0  0  0  0  0  0  0  0  0  0  0  0
   62.9780   32.7170   47.2830 C   0  0  0  0  0  0  0  0  0  0  0  0
   62.6490   33.7960   48.1080 C   0  0  0  0  0  0  0  0  0  0  0  0
   61.4290   33.8070   48.7920 C   0  0  0  0  0  0  0  0  0  0  0  0
   61.1270   27.5460   48.8660 N   0  0  0  0  0  0  0  0  0  0  0  0
   60.6140   26.7200   47.7800 C   0  0  0  0  0  0  0  0  0  0  0  0
   59.6100   27.4930   46.9710 C   0  0  0  0  0  0  0  0  0  0  0  0
   58.3340   26.9540   46.7390 C   0  0  0  0  0  0  0  0  0  0  0  0
   57.4020   27.6540   45.9690 C   0  0  0  0  0  0  0  0  0  0  0  0
   57.7340   28.9000   45.4180 C   0  0  0  0  0  0  0  0  0  0  0  0
   56.5530   29.8020   44.4740 S   0  0  0  0  0  0  0  0  0  0  0  0
   55.1610   29.3140   44.7640 O   0  0  0  0  0  0  0  0  0  0  0  0
   56.8340   29.6040   43.0120 O   0  0  0  0  0  0  0  0  0  0  0  0
   56.6660   31.4870   44.8530 N   0  0  0  0  0  0  0  0  0  0  0  0
   57.6670   32.3350   44.2900 C   0  0  0  0  0  0  0  0  0  0  0  0
   58.0210   32.1990   43.0880 O   0  0  0  0  0  0  0  0  0  0  0  0
   58.2670   33.3490   45.0890 N   0  0  0  0  0  0  0  0  0  0  0  0
   59.2820   34.4050   44.9250 C   0  0  0  0  0  0  0  0  0  0  0  0
   59.2120   34.9100   46.3290 C   0  0  0  0  0  0  0  0  0  0  0  0
   58.1840   33.8340   46.4780 C   0  0  0  0  0  0  0  0  0  0  0  0
   59.0060   29.4410   45.6500 C   0  0  0  0  0  0  0  0  0  0  0  0
   59.9400   28.7420   46.4180 C   0  0  0  0  0  0  0  0  0  0  0  0
   59.0853   28.1376   51.3295 H   0  0  0  0  0  0  0  0  0  0  0  0
   60.6882   28.8201   51.7968 H   0  0  0  0  0  0  0  0  0  0  0  0
   60.5710   29.8500   49.3460 H   0  0  0  0  0  0  0  0  0  0  0  0
   58.6010   33.5739   49.0419 H   0  0  0  0  0  0  0  0  0  0  0  0
   59.4395   32.8818   50.4802 H   0  0  0  0  0  0  0  0  0  0  0  0
   60.1735   30.8090   47.7144 H   0  0  0  0  0  0  0  0  0  0  0  0
   62.3516   30.7967   46.4937 H   0  0  0  0  0  0  0  0  0  0  0  0
   63.9368   32.7102   46.7438 H   0  0  0  0  0  0  0  0  0  0  0  0
   63.3496   34.6367   48.2194 H   0  0  0  0  0  0  0  0  0  0  0  0
   61.1737   34.6565   49.4425 H   0  0  0  0  0  0  0  0  0  0  0  0
   61.4475   26.4153   47.1300 H   0  0  0  0  0  0  0  0  0  0  0  0
   60.1253   25.8308   48.2048 H   0  0  0  0  0  0  0  0  0  0  0  0
   58.0672   25.9759   47.1657 H   0  0  0  0  0  0  0  0  0  0  0  0
   56.4038   27.2261   45.7942 H   0  0  0  0  0  0  0  0  0  0  0  0
   60.2734   34.0047   44.6665 H   0  0  0  0  0  0  0  0  0  0  0  0
   59.1185   35.1369   44.1202 H   0  0  0  0  0  0  0  0  0  0  0  0
   60.1262   34.7792   46.9267 H   0  0  0  0  0  0  0  0  0  0  0  0
   59.0413   35.9636   46.5950 H   0  0  0  0  0  0  0  0  0  0  0  0
   58.4732   33.0688   47.2134 H   0  0  0  0  0  0  0  0  0  0  0  0
   57.1921   34.1349   46.8462 H   0  0  0  0  0  0  0  0  0  0  0  0
   59.2699   30.4207   45.2252 H   0  0  0  0  0  0  0  0  0  0  0  0
   60.9381   29.1710   46.5907 H   0  0  0  0  0  0  0  0  0  0  0  0
  1  2  2  0
  2  3  1  0
  3  4  1  0
  4  5  1  0
  5  6  2  0
  5  7  1  0
  7  8  1  0
  8  9  1  0
  9 10  2  0
 10 11  1  0
 11 12  2  0
 12 13  1  0
 13 14  2  0
  2 15  1  0
 15 16  1  0
 16 17  1  0
 17 18  2  0
 18 19  1  0
 19 20  2  0
 20 21  1  0
 21 22  2  0
 21 23  2  0
 21 24  1  0
 24 25  1  0
 25 26  2  0
 25 27  1  0
 27 28  1  0
 28 29  1  0
 29 30  1  0
 20 31  1  0
 31 32  2  0
 14  9  1  0
 32 17  1  0
 30 27  1  0
  3 33  1  0
  3 34  1  0
  4 35  1  0
  8 36  1  0
  8 37  1  0
 10 38  1  0
 11 39  1  0
 12 40  1  0
 13 41  1  0
 14 42  1  0
 16 43  1  0
 16 44  1  0
 18 45  1  0
 19 46  1  0
 28 47  1  0
 28 48  1  0
 29 49  1  0
 29 50  1  0
 30 51  1  0
 30 52  1  0
 31 53  1  0
 32 54  1  0
M  CHG  2  15  -1  24  -1
M  END
>  <UniqueID>  (87) 
82

>  <SMILES>  (87) 
O=C(CNC(=O)OCc1ccccc1)[N-]Cc1ccc(S(=O)(=O)[N-]C(=O)N2CCC2)cc1

>  <Energy>  (87) 
91.78635747683157

>  <Genealogy>  (87) 
O=C(CNC(=O)OCc1ccccc1)[N-]Cc1ccc(S(=O)(=O)[N-]C(=O)N2CCC2)cc1 (protonated)
O=C(CNC(=O)OCc1ccccc1)[N-]Cc1ccc(S(=O)(=O)[N-]C(=O)N2CCC2)cc1 (3D coordinates assigned)
O=C(CNC(=O)OCc1ccccc1)[N-]Cc1ccc(S(=O)(=O)[N-]C(=O)N2CCC2)cc1 (nonaromatic ring conformer: 91.78635747683157 kcal/mol)

>  <smiles>  (87) 
O=C(CNC(=O)OCc1ccccc1)NCc1ccc(S(=O)(=O)NC(=O)N2CCC2)cc1

>  <score_type>  (87) 
oracle

>  <origin>  (87) 
adg

>  <m_score__min__energy>  (87) 
-11.779999999999999

>  <m_primary>  (87) 
energy

$$$$
87:0
     RDKit          3D

 60 64  0  0  0  0  0  0  0  0999 V2000
   61.2316   27.0032   48.5905 H   0  0  0  0  0  0  0  0  0  0  0  0
   60.3780   27.3420   47.9850 C   0  0  0  0  0  0  0  0  0  0  0  0
   59.7600   26.5660   46.6280 S   0  0  0  0  0  0  0  0  0  0  0  0
   58.5630   27.7270   46.3770 C   0  0  0  0  0  0  0  0  0  0  0  0
   57.6650   27.7290   45.4330 N   0  0  0  0  0  0  0  0  0  0  0  0
   57.8750   27.9310   44.0260 C   0  0  0  0  0  0  0  0  0  0  0  0
   58.6930   27.2240   43.3770 O   0  0  0  0  0  0  0  0  0  0  0  0
   57.0330   28.9460   43.3100 C   0  0  0  0  0  0  0  0  0  0  0  0
   56.9658   28.6715   42.2469 H   0  0  0  0  0  0  0  0  0  0  0  0
   56.0339   28.9583   43.7700 H   0  0  0  0  0  0  0  0  0  0  0  0
   57.6120   30.2830   43.4220 N   0  0  0  0  0  0  0  0  0  0  0  0
   58.5350   30.4650   42.9680 H   0  0  0  0  0  0  0  0  0  0  0  0
   56.9450   31.3590   44.1000 C   0  0  0  0  0  0  0  0  0  0  0  0
   55.7780   31.2040   44.5550 O   0  0  0  0  0  0  0  0  0  0  0  0
   57.6120   32.6970   44.2220 C   0  0  0  0  0  0  0  0  0  0  0  0
   58.4138   32.7730   43.4728 H   0  0  0  0  0  0  0  0  0  0  0  0
   56.8652   33.4870   44.0542 H   0  0  0  0  0  0  0  0  0  0  0  0
   58.2000   32.8610   45.5980 C   0  0  0  0  0  0  0  0  0  0  0  0
   58.7450   34.0910   45.9930 C   0  0  0  0  0  0  0  0  0  0  0  0
   58.7768   34.9291   45.2812 H   0  0  0  0  0  0  0  0  0  0  0  0
   59.2480   34.2580   47.2860 C   0  0  0  0  0  0  0  0  0  0  0  0
   59.6839   35.2240   47.5807 H   0  0  0  0  0  0  0  0  0  0  0  0
   59.2020   33.2020   48.2140 C   0  0  0  0  0  0  0  0  0  0  0  0
   59.7200   33.3830   49.5490 N   0  0  0  0  0  0  0  0  0  0  0  0
   59.0990   32.9700   50.7560 C   0  0  0  0  0  0  0  0  0  0  0  0
   57.9290   32.5040   50.8130 O   0  0  0  0  0  0  0  0  0  0  0  0
   59.9190   33.2360   51.9520 C   0  0  0  0  0  0  0  0  0  0  0  0
   60.1210   32.3072   52.5056 H   0  0  0  0  0  0  0  0  0  0  0  0
   59.4268   33.9085   52.6700 H   0  0  0  0  0  0  0  0  0  0  0  0
   61.2130   33.8220   51.3710 C   0  0  0  0  0  0  0  0  0  0  0  0
   62.0455   33.1186   51.5196 H   0  0  0  0  0  0  0  0  0  0  0  0
   61.4736   34.7665   51.8710 H   0  0  0  0  0  0  0  0  0  0  0  0
   60.9740   34.0470   49.8660 C   0  0  0  0  0  0  0  0  0  0  0  0
   61.7957   33.6093   49.2801 H   0  0  0  0  0  0  0  0  0  0  0  0
   60.9315   35.1191   49.6235 H   0  0  0  0  0  0  0  0  0  0  0  0
   58.6640   31.9670   47.8090 C   0  0  0  0  0  0  0  0  0  0  0  0
   58.6421   31.1239   48.5152 H   0  0  0  0  0  0  0  0  0  0  0  0
   58.1570   31.8020   46.5170 C   0  0  0  0  0  0  0  0  0  0  0  0
   57.7219   30.8366   46.2192 H   0  0  0  0  0  0  0  0  0  0  0  0
   58.6220   28.7040   47.3060 N   0  0  0  0  0  0  0  0  0  0  0  0
   59.6190   28.4910   48.2090 C   0  0  0  0  0  0  0  0  0  0  0  0
   59.8690   29.4400   49.3080 C   0  0  0  0  0  0  0  0  0  0  0  0
   58.8880   29.8690   49.9780 O   0  0  0  0  0  0  0  0  0  0  0  0
   61.2040   29.8490   49.6580 N   0  0  0  0  0  0  0  0  0  0  0  0
   61.9570   30.8380   48.9720 C   0  0  0  0  0  0  0  0  0  0  0  0
   61.7830   31.2700   47.6510 C   0  0  0  0  0  0  0  0  0  0  0  0
   60.9863   30.8479   47.0209 H   0  0  0  0  0  0  0  0  0  0  0  0
   62.6500   32.2550   47.1500 C   0  0  0  0  0  0  0  0  0  0  0  0
   62.5294   32.6177   46.1186 H   0  0  0  0  0  0  0  0  0  0  0  0
   63.6730   32.7800   47.9630 C   0  0  0  0  0  0  0  0  0  0  0  0
   64.3455   33.5548   47.5664 H   0  0  0  0  0  0  0  0  0  0  0  0
   63.8370   32.3170   49.2790 C   0  0  0  0  0  0  0  0  0  0  0  0
   64.6363   32.7165   49.9205 H   0  0  0  0  0  0  0  0  0  0  0  0
   62.9620   31.3380   49.7540 C   0  0  0  0  0  0  0  0  0  0  0  0
   62.9520   30.6960   51.0950 C   0  0  0  0  0  0  0  0  0  0  0  0
   62.7832   31.4404   51.8871 H   0  0  0  0  0  0  0  0  0  0  0  0
   63.9052   30.2076   51.3458 H   0  0  0  0  0  0  0  0  0  0  0  0
   61.7670   29.7030   51.0050 C   0  0  0  0  0  0  0  0  0  0  0  0
   61.0080   29.9471   51.7628 H   0  0  0  0  0  0  0  0  0  0  0  0
   62.0981   28.6702   51.1885 H   0  0  0  0  0  0  0  0  0  0  0  0
  1  2  1  0
  2  3  1  0
  3  4  1  0
  4  5  2  0
  5  6  1  0
  6  7  2  0
  6  8  1  0
  8  9  1  0
  8 10  1  0
  8 11  1  0
 11 12  1  0
 11 13  1  0
 13 14  2  0
 13 15  1  0
 15 16  1  0
 15 17  1  0
 15 18  1  0
 18 19  2  0
 19 20  1  0
 19 21  1  0
 21 22  1  0
 21 23  2  0
 23 24  1  0
 24 25  1  0
 25 26  2  0
 25 27  1  0
 27 28  1  0
 27 29  1  0
 27 30  1  0
 30 31  1  0
 30 32  1  0
 30 33  1  0
 33 34  1  0
 33 35  1  0
 23 36  1  0
 36 37  1  0
 36 38  2  0
 38 39  1  0
  4 40  1  0
 40 41  1  0
 41 42  1  0
 42 43  2  0
 42 44  1  0
 44 45  1  0
 45 46  2  0
 46 47  1  0
 46 48  1  0
 48 49  1  0
 48 50  2  0
 50 51  1  0
 50 52  1  0
 52 53  1  0
 52 54  2  0
 54 55  1  0
 55 56  1  0
 55 57  1  0
 55 58  1  0
 58 59  1  0
 58 60  1  0
 41  2  2  0
 58 44  1  0
 38 18  1  0
 54 45  1  0
 33 24  1  0
M  CHG  1  40  -1
M  END
>  <UniqueID>  (88) 
83

>  <SMILES>  (88) 
O=C(CNC(=O)Cc1ccc(N2CCCC2=O)cc1)/N=c1/[n-]c(C(=O)N2CCc3ccccc32)cs1

>  <Energy>  (88) 
122.9062706415742

>  <Genealogy>  (88) 
O=C(CNC(=O)Cc1ccc(N2CCCC2=O)cc1)N=c1[n-]c(C(=O)N2CCc3ccccc32)cs1 (protonated)
O=C(CNC(=O)Cc1ccc(N2CCCC2=O)cc1)/N=c1/[n-]c(C(=O)N2CCc3ccccc32)cs1 (cis-trans isomerization)
O=C(CNC(=O)Cc1ccc(N2CCCC2=O)cc1)/N=c1/[n-]c(C(=O)N2CCc3ccccc32)cs1 (3D coordinates assigned)
O=C(CNC(=O)Cc1ccc(N2CCCC2=O)cc1)/N=c1/[n-]c(C(=O)N2CCc3ccccc32)cs1 (nonaromatic ring conformer: 122.9062706415742 kcal/mol)

>  <smiles>  (88) 
O=C(CNC(=O)Cc1ccc(N2CCCC2=O)cc1)N=c1[nH]c(C(=O)N2CCc3ccccc32)cs1

>  <score_type>  (88) 
oracle

>  <origin>  (88) 
adg

>  <m_score__min__energy>  (88) 
-11.17

>  <m_primary>  (88) 
energy

$$$$
