0:0
     RDKit          3D

 63 67  0  0  0  0  0  0  0  0999 V2000
   55.9330   28.1990   45.2470 O   0  0  0  0  0  0  0  0  0  0  0  0
   56.6430   29.2390   45.2270 C   0  0  0  0  0  0  0  0  0  0  0  0
   57.6830   29.3640   46.2090 N   0  0  0  0  0  0  0  0  0  0  0  0
   59.0350   28.8160   46.1220 C   0  0  0  0  0  0  0  0  0  0  0  0
   59.5490   28.4830   47.4970 C   0  0  0  0  0  0  0  0  0  0  0  0
   60.3570   27.3510   47.6850 C   0  0  0  0  0  0  0  0  0  0  0  0
   60.8200   27.0200   48.9600 C   0  0  0  0  0  0  0  0  0  0  0  0
   60.4670   27.8050   50.0610 C   0  0  0  0  0  0  0  0  0  0  0  0
   59.6330   28.9220   49.8940 C   0  0  0  0  0  0  0  0  0  0  0  0
   59.2490   29.7710   51.0800 C   0  0  0  0  0  0  0  0  0  0  0  0
   57.8510   29.5580   51.4430 N   0  0  0  0  0  0  0  0  0  0  0  0
   57.0280   30.5500   52.0700 C   0  0  0  0  0  0  0  0  0  0  0  0
   55.7720   30.4740   51.9930 O   0  0  0  0  0  0  0  0  0  0  0  0
   57.6400   31.6270   52.7900 N   0  0  0  0  0  0  0  0  0  0  0  0
   58.0760   31.5220   54.1840 C   0  0  0  0  0  0  0  0  0  0  0  0
   58.6020   32.8780   54.4690 C   0  0  0  0  0  0  0  0  0  0  0  0
   59.1510   33.3540   55.6580 C   0  0  0  0  0  0  0  0  0  0  0  0
   59.5780   34.6910   55.6930 C   0  0  0  0  0  0  0  0  0  0  0  0
   59.4470   35.4840   54.5880 N   0  0  0  0  0  0  0  0  0  0  0  0
   58.9080   35.0160   53.4260 C   0  0  0  0  0  0  0  0  0  0  0  0
   58.4840   33.6900   53.3680 C   0  0  0  0  0  0  0  0  0  0  0  0
   57.8730   32.9600   52.2300 C   0  0  0  0  0  0  0  0  0  0  0  0
   59.1910   29.2660   48.6070 C   0  0  0  0  0  0  0  0  0  0  0  0
   56.3750   30.2780   44.2030 C   0  0  0  0  0  0  0  0  0  0  0  0
   56.3050   29.9680   42.9860 O   0  0  0  0  0  0  0  0  0  0  0  0
   56.2210   31.6560   44.5610 N   0  0  0  0  0  0  0  0  0  0  0  0
   57.2790   32.5530   44.9210 C   0  0  0  0  0  0  0  0  0  0  0  0
   58.1270   33.1180   43.9510 C   0  0  0  0  0  0  0  0  0  0  0  0
   59.1850   33.9430   44.3380 C   0  0  0  0  0  0  0  0  0  0  0  0
   59.4130   34.2030   45.6920 C   0  0  0  0  0  0  0  0  0  0  0  0
   58.5790   33.6460   46.6680 C   0  0  0  0  0  0  0  0  0  0  0  0
   58.8520   33.9090   48.0190 O   0  0  0  0  0  0  0  0  0  0  0  0
   59.8880   33.3230   48.7610 C   0  0  0  0  0  0  0  0  0  0  0  0
   60.6830   32.2870   48.2370 C   0  0  0  0  0  0  0  0  0  0  0  0
   61.6930   31.7140   49.0140 C   0  0  0  0  0  0  0  0  0  0  0  0
   61.9140   32.1650   50.3190 C   0  0  0  0  0  0  0  0  0  0  0  0
   61.1170   33.1830   50.8500 C   0  0  0  0  0  0  0  0  0  0  0  0
   60.1030   33.7540   50.0760 C   0  0  0  0  0  0  0  0  0  0  0  0
   57.5250   32.8030   46.2760 C   0  0  0  0  0  0  0  0  0  0  0  0
   59.0184   27.9028   45.5090 H   0  0  0  0  0  0  0  0  0  0  0  0
   59.6973   29.5643   45.6621 H   0  0  0  0  0  0  0  0  0  0  0  0
   60.6267   26.7217   46.8241 H   0  0  0  0  0  0  0  0  0  0  0  0
   61.4642   26.1392   49.0982 H   0  0  0  0  0  0  0  0  0  0  0  0
   60.8438   27.5469   51.0617 H   0  0  0  0  0  0  0  0  0  0  0  0
   59.8876   29.5048   51.9352 H   0  0  0  0  0  0  0  0  0  0  0  0
   59.3852   30.8294   50.8131 H   0  0  0  0  0  0  0  0  0  0  0  0
   57.2317   31.2779   54.8455 H   0  0  0  0  0  0  0  0  0  0  0  0
   58.8162   30.7252   54.3490 H   0  0  0  0  0  0  0  0  0  0  0  0
   59.2467   32.7037   56.5400 H   0  0  0  0  0  0  0  0  0  0  0  0
   60.0195   35.1015   56.6131 H   0  0  0  0  0  0  0  0  0  0  0  0
   58.8097   35.6738   52.5499 H   0  0  0  0  0  0  0  0  0  0  0  0
   56.9285   33.4300   51.9186 H   0  0  0  0  0  0  0  0  0  0  0  0
   58.5035   32.9505   51.3287 H   0  0  0  0  0  0  0  0  0  0  0  0
   58.5594   30.1556   48.4665 H   0  0  0  0  0  0  0  0  0  0  0  0
   57.9561   32.9092   42.8846 H   0  0  0  0  0  0  0  0  0  0  0  0
   59.8404   34.3892   43.5755 H   0  0  0  0  0  0  0  0  0  0  0  0
   60.2518   34.8484   45.9920 H   0  0  0  0  0  0  0  0  0  0  0  0
   60.5088   31.9270   47.2123 H   0  0  0  0  0  0  0  0  0  0  0  0
   62.3149   30.9073   48.5987 H   0  0  0  0  0  0  0  0  0  0  0  0
   62.7146   31.7189   50.9273 H   0  0  0  0  0  0  0  0  0  0  0  0
   61.2880   33.5351   51.8780 H   0  0  0  0  0  0  0  0  0  0  0  0
   59.4702   34.5465   50.5021 H   0  0  0  0  0  0  0  0  0  0  0  0
   56.8877   32.3355   47.0410 H   0  0  0  0  0  0  0  0  0  0  0  0
  1  2  2  0
  2  3  1  0
  3  4  1  0
  4  5  1  0
  5  6  2  0
  6  7  1  0
  7  8  2  0
  8  9  1  0
  9 10  1  0
 10 11  1  0
 11 12  1  0
 12 13  2  0
 12 14  1  0
 14 15  1  0
 15 16  1  0
 16 17  2  0
 17 18  1  0
 18 19  2  0
 19 20  1  0
 20 21  2  0
 21 22  1  0
  9 23  2  0
  2 24  1  0
 24 25  2  0
 24 26  1  0
 26 27  1  0
 27 28  2  0
 28 29  1  0
 29 30  2  0
 30 31  1  0
 31 32  1  0
 32 33  1  0
 33 34  2  0
 34 35  1  0
 35 36  2  0
 36 37  1  0
 37 38  2  0
 31 39  2  0
 23  5  1  0
 39 27  1  0
 22 14  1  0
 38 33  1  0
 21 16  1  0
  4 40  1  0
  4 41  1  0
  6 42  1  0
  7 43  1  0
  8 44  1  0
 10 45  1  0
 10 46  1  0
 15 47  1  0
 15 48  1  0
 17 49  1  0
 18 50  1  0
 20 51  1  0
 22 52  1  0
 22 53  1  0
 23 54  1  0
 28 55  1  0
 29 56  1  0
 30 57  1  0
 34 58  1  0
 35 59  1  0
 36 60  1  0
 37 61  1  0
 38 62  1  0
 39 63  1  0
M  CHG  3   3  -1  11  -1  26  -1
M  END
>  <UniqueID>  (1) 
1

>  <SMILES>  (1) 
O=C([N-]Cc1cccc(C[N-]C(=O)N2Cc3ccncc3C2)c1)C(=O)[N-]c1cccc(Oc2ccccc2)c1

>  <Energy>  (1) 
88.96967099178478

>  <Genealogy>  (1) 
O=C([N-]Cc1cccc(C[N-]C(=O)N2Cc3ccncc3C2)c1)C(=O)[N-]c1cccc(Oc2ccccc2)c1 (protonated)
O=C([N-]Cc1cccc(C[N-]C(=O)N2Cc3ccncc3C2)c1)C(=O)[N-]c1cccc(Oc2ccccc2)c1 (3D coordinates assigned)
O=C([N-]Cc1cccc(C[N-]C(=O)N2Cc3ccncc3C2)c1)C(=O)[N-]c1cccc(Oc2ccccc2)c1 (nonaromatic ring conformer: 88.96967099178478 kcal/mol)

>  <smiles>  (1) 
O=C(NCc1cccc(CNC(=O)N2Cc3ccncc3C2)c1)C(=O)Nc1cccc(Oc2ccccc2)c1

>  <score_type>  (1) 
oracle

>  <origin>  (1) 
adg

>  <m_score__min__energy>  (1) 
-12.94

>  <m_primary>  (1) 
energy

$$$$
1:0
     RDKit          3D

 46 49  0  0  0  0  0  0  0  0999 V2000
   56.9670   31.4580   44.0540 C   0  0  0  0  0  0  0  0  0  0  0  0
   57.4810   30.5540   44.8940 C   0  0  0  0  0  0  0  0  0  0  0  0
   57.3780   29.2360   44.5770 N   0  0  0  0  0  0  0  0  0  0  0  0
   57.8620   28.2440   45.3730 C   0  0  0  0  0  0  0  0  0  0  0  0
   57.7510   26.9550   45.0080 C   0  0  0  0  0  0  0  0  0  0  0  0
   57.1340   25.9030   45.8390 C   0  0  0  0  0  0  0  0  0  0  0  0
   57.8390   24.8950   46.3840 N   0  0  0  0  0  0  0  0  0  0  0  0
   56.9200   24.2140   47.1000 C   0  0  0  0  0  0  0  0  0  0  0  0
   57.2030   23.1790   47.7570 O   0  0  0  0  0  0  0  0  0  0  0  0
   55.6760   24.7340   47.0630 N   0  0  0  0  0  0  0  0  0  0  0  0
   55.8260   25.8080   46.2700 C   0  0  0  0  0  0  0  0  0  0  0  0
   54.8000   26.7040   45.9970 O   0  0  0  0  0  0  0  0  0  0  0  0
   58.5130   28.5850   46.5690 C   0  0  0  0  0  0  0  0  0  0  0  0
   58.6540   29.9320   46.9330 C   0  0  0  0  0  0  0  0  0  0  0  0
   59.3250   30.2750   48.2090 C   0  0  0  0  0  0  0  0  0  0  0  0
   58.6340   30.3770   49.2600 O   0  0  0  0  0  0  0  0  0  0  0  0
   60.7470   30.4930   48.2710 N   0  0  0  0  0  0  0  0  0  0  0  0
   61.4070   31.2880   47.2230 C   0  0  0  0  0  0  0  0  0  0  0  0
   62.8700   31.5930   47.5730 C   0  0  0  0  0  0  0  0  0  0  0  0
   62.9880   32.0180   48.9770 N   0  0  0  0  0  0  0  0  0  0  0  0
   63.9310   33.0470   49.3420 C   0  0  0  0  0  0  0  0  0  0  0  0
   64.8090   33.4220   48.5170 O   0  0  0  0  0  0  0  0  0  0  0  0
   63.9240   33.6540   50.7190 C   0  0  0  0  0  0  0  0  0  0  0  0
   64.5530   32.7970   51.8080 C   0  0  0  0  0  0  0  0  0  0  0  0
   65.3030   33.9970   51.2610 C   0  0  0  0  0  0  0  0  0  0  0  0
   62.2590   31.2880   50.0280 C   0  0  0  0  0  0  0  0  0  0  0  0
   61.5050   30.0840   49.4580 C   0  0  0  0  0  0  0  0  0  0  0  0
   58.1250   30.9300   46.0920 C   0  0  0  0  0  0  0  0  0  0  0  0
   58.2430   32.1490   46.4030 O   0  0  0  0  0  0  0  0  0  0  0  0
   57.0382   32.5302   44.2891 H   0  0  0  0  0  0  0  0  0  0  0  0
   56.4729   31.1296   43.1277 H   0  0  0  0  0  0  0  0  0  0  0  0
   58.1467   26.6648   44.0235 H   0  0  0  0  0  0  0  0  0  0  0  0
   58.9130   27.7948   47.2214 H   0  0  0  0  0  0  0  0  0  0  0  0
   61.3770   30.7257   46.2780 H   0  0  0  0  0  0  0  0  0  0  0  0
   60.8714   32.2445   47.1321 H   0  0  0  0  0  0  0  0  0  0  0  0
   63.4755   30.6880   47.4170 H   0  0  0  0  0  0  0  0  0  0  0  0
   63.2280   32.4063   46.9246 H   0  0  0  0  0  0  0  0  0  0  0  0
   62.9691   34.1881   50.6059 H   0  0  0  0  0  0  0  0  0  0  0  0
   64.1471   32.8214   52.8301 H   0  0  0  0  0  0  0  0  0  0  0  0
   64.7771   31.7262   51.9223 H   0  0  0  0  0  0  0  0  0  0  0  0
   65.4409   34.8910   51.8868 H   0  0  0  0  0  0  0  0  0  0  0  0
   66.2959   34.1556   50.8149 H   0  0  0  0  0  0  0  0  0  0  0  0
   62.9781   30.9347   50.7817 H   0  0  0  0  0  0  0  0  0  0  0  0
   61.5246   31.9731   50.4767 H   0  0  0  0  0  0  0  0  0  0  0  0
   62.2247   29.2999   49.1802 H   0  0  0  0  0  0  0  0  0  0  0  0
   60.8109   29.6955   50.2178 H   0  0  0  0  0  0  0  0  0  0  0  0
  1  2  2  0
  2  3  1  0
  3  4  1  0
  4  5  2  3
  5  6  1  0
  6  7  1  0
  7  8  1  0
  8  9  2  0
  8 10  1  0
 10 11  1  0
 11 12  1  0
  4 13  1  0
 13 14  2  0
 14 15  1  0
 15 16  2  0
 15 17  1  0
 17 18  1  0
 18 19  1  0
 19 20  1  0
 20 21  1  0
 21 22  2  0
 21 23  1  0
 23 24  1  0
 24 25  1  0
 20 26  1  0
 26 27  1  0
 14 28  1  0
 28 29  2  0
 28  2  1  0
 11  6  2  0
 27 17  1  0
 25 23  1  0
  1 30  1  0
  1 31  1  0
  5 32  1  0
 13 33  1  0
 18 34  1  0
 18 35  1  0
 19 36  1  0
 19 37  1  0
 23 38  1  0
 24 39  1  0
 24 40  1  0
 25 41  1  0
 25 42  1  0
 26 43  1  0
 26 44  1  0
 27 45  1  0
 27 46  1  0
M  CHG  4   3  -1   7  -1  10  -1  12  -1
M  END
>  <UniqueID>  (2) 
2

>  <SMILES>  (2) 
C=c1[n-]c(=Cc2[n-]c(=O)[n-]c2[O-])cc(C(=O)N2CCN(C(=O)C3CC3)CC2)c1=O

>  <Energy>  (2) 
355.26244804088975

>  <Genealogy>  (2) 
C=c1[n-]c(=Cc2[n-]c(=O)[n-]c2[O-])cc(C(=O)N2CCN(C(=O)C3CC3)CC2)c1=O (protonated)
C=c1[n-]c(=Cc2[n-]c(=O)[n-]c2[O-])cc(C(=O)N2CCN(C(=O)C3CC3)CC2)c1=O (3D coordinates assigned)
C=c1[n-]c(=Cc2[n-]c(=O)[n-]c2[O-])cc(C(=O)N2CCN(C(=O)C3CC3)CC2)c1=O (nonaromatic ring conformer: 355.26244804088975 kcal/mol)

>  <smiles>  (2) 
C=c1[nH]c(=Cc2[nH]c(=O)[nH]c2O)cc(C(=O)N2CCN(C(=O)C3CC3)CC2)c1=O

>  <score_type>  (2) 
oracle

>  <origin>  (2) 
adg

>  <m_score__min__energy>  (2) 
-18.390000000000001

>  <m_primary>  (2) 
energy

$$$$
2:0
     RDKit          3D

 47 50  0  0  0  0  0  0  0  0999 V2000
   54.3330   26.6930   46.7420 H   0  0  0  0  0  0  0  0  0  0  0  0
   55.0260   26.3490   46.0890 O   0  0  0  0  0  0  0  0  0  0  0  0
   55.8760   25.2800   46.3770 C   0  0  0  0  0  0  0  0  0  0  0  0
   55.5420   24.4410   47.3930 N   0  0  0  0  0  0  0  0  0  0  0  0
   56.3280   23.3860   47.7240 C   0  0  0  0  0  0  0  0  0  0  0  0
   55.9960   22.6290   48.6730 O   0  0  0  0  0  0  0  0  0  0  0  0
   57.4690   23.1440   47.0320 N   0  0  0  0  0  0  0  0  0  0  0  0
   57.8500   23.9470   46.0060 C   0  0  0  0  0  0  0  0  0  0  0  0
   58.9020   23.6720   45.3680 O   0  0  0  0  0  0  0  0  0  0  0  0
   57.0650   25.0610   45.6540 C   0  0  0  0  0  0  0  0  0  0  0  0
   57.4380   25.9340   44.5190 C   0  0  0  0  0  0  0  0  0  0  0  0
   57.3119   25.5456   43.4976 H   0  0  0  0  0  0  0  0  0  0  0  0
   57.9240   27.1800   44.6740 C   0  0  0  0  0  0  0  0  0  0  0  0
   57.3770   28.3370   44.1430 C   0  0  0  0  0  0  0  0  0  0  0  0
   56.4629   28.4128   43.5358 H   0  0  0  0  0  0  0  0  0  0  0  0
   58.2020   29.3760   44.5240 C   0  0  0  0  0  0  0  0  0  0  0  0
   57.9430   30.8170   44.1970 C   0  0  0  0  0  0  0  0  0  0  0  0
   57.8397   31.3917   45.1292 H   0  0  0  0  0  0  0  0  0  0  0  0
   58.7837   31.2168   43.6110 H   0  0  0  0  0  0  0  0  0  0  0  0
   57.0157   30.8991   43.6110 H   0  0  0  0  0  0  0  0  0  0  0  0
   59.2360   28.9170   45.2700 N   0  0  0  0  0  0  0  0  0  0  0  0
   60.2760   29.7580   45.8860 C   0  0  0  0  0  0  0  0  0  0  0  0
   61.1802   29.1532   46.0491 H   0  0  0  0  0  0  0  0  0  0  0  0
   60.4969   30.5989   45.2122 H   0  0  0  0  0  0  0  0  0  0  0  0
   59.8020   30.3060   47.2070 C   0  0  0  0  0  0  0  0  0  0  0  0
   59.8690   29.5190   48.3670 C   0  0  0  0  0  0  0  0  0  0  0  0
   60.2801   28.5001   48.3130 H   0  0  0  0  0  0  0  0  0  0  0  0
   59.4170   30.0210   49.5900 C   0  0  0  0  0  0  0  0  0  0  0  0
   59.4753   29.3945   50.4923 H   0  0  0  0  0  0  0  0  0  0  0  0
   58.8890   31.3190   49.6760 C   0  0  0  0  0  0  0  0  0  0  0  0
   58.4210   31.8350   50.9350 N   0  0  0  0  0  0  0  0  0  0  0  0
   57.5020   31.2470   51.8500 C   0  0  0  0  0  0  0  0  0  0  0  0
   56.9770   30.1120   51.6990 O   0  0  0  0  0  0  0  0  0  0  0  0
   57.2970   32.1140   53.0070 C   0  0  0  0  0  0  0  0  0  0  0  0
   56.6379   31.9068   53.8629 H   0  0  0  0  0  0  0  0  0  0  0  0
   58.0490   33.1990   52.8420 C   0  0  0  0  0  0  0  0  0  0  0  0
   58.1244   34.0470   53.5386 H   0  0  0  0  0  0  0  0  0  0  0  0
   58.7570   33.0640   51.5710 C   0  0  0  0  0  0  0  0  0  0  0  0
   59.5230   33.9340   51.0780 O   0  0  0  0  0  0  0  0  0  0  0  0
   58.8250   32.1070   48.5150 C   0  0  0  0  0  0  0  0  0  0  0  0
   58.4137   33.1258   48.5684 H   0  0  0  0  0  0  0  0  0  0  0  0
   59.2800   31.6060   47.2930 C   0  0  0  0  0  0  0  0  0  0  0  0
   59.2288   32.2347   46.3918 H   0  0  0  0  0  0  0  0  0  0  0  0
   59.0750   27.5680   45.3690 C   0  0  0  0  0  0  0  0  0  0  0  0
   59.8970   26.7480   46.0440 C   0  0  0  0  0  0  0  0  0  0  0  0
   60.7794   27.1556   46.5589 H   0  0  0  0  0  0  0  0  0  0  0  0
   59.6878   25.6687   46.0820 H   0  0  0  0  0  0  0  0  0  0  0  0
  1  2  1  0
  2  3  1  0
  3  4  1  0
  4  5  1  0
  5  6  2  0
  5  7  1  0
  7  8  1  0
  8  9  2  0
  8 10  1  0
 10 11  1  0
 11 12  1  0
 11 13  2  0
 13 14  1  0
 14 15  1  0
 14 16  2  0
 16 17  1  0
 17 18  1  0
 17 19  1  0
 17 20  1  0
 16 21  1  0
 21 22  1  0
 22 23  1  0
 22 24  1  0
 22 25  1  0
 25 26  2  0
 26 27  1  0
 26 28  1  0
 28 29  1  0
 28 30  2  0
 30 31  1  0
 31 32  1  0
 32 33  2  0
 32 34  1  0
 34 35  1  0
 34 36  2  0
 36 37  1  0
 36 38  1  0
 38 39  2  0
 30 40  1  0
 40 41  1  0
 40 42  2  0
 42 43  1  0
 21 44  1  0
 44 45  2  0
 45 46  1  0
 45 47  1  0
 10  3  2  0
 44 13  1  0
 42 25  1  0
 38 31  1  0
M  CHG  2   4  -1   7  -1
M  END
>  <UniqueID>  (3) 
3

>  <SMILES>  (3) 
C=c1/c(=C/c2c(O)[n-]c(=O)[n-]c2=O)cc(C)n1Cc1ccc(N2C(=O)C=CC2=O)cc1

>  <Energy>  (3) 
120.7289459637436

>  <Genealogy>  (3) 
C=c1c(=Cc2c(O)[n-]c(=O)[n-]c2=O)cc(C)n1Cc1ccc(N2C(=O)C=CC2=O)cc1 (protonated)
C=c1/c(=C/c2c(O)[n-]c(=O)[n-]c2=O)cc(C)n1Cc1ccc(N2C(=O)C=CC2=O)cc1 (cis-trans isomerization)
C=c1/c(=C/c2c(O)[n-]c(=O)[n-]c2=O)cc(C)n1Cc1ccc(N2C(=O)C=CC2=O)cc1 (3D coordinates assigned)
C=c1/c(=C/c2c(O)[n-]c(=O)[n-]c2=O)cc(C)n1Cc1ccc(N2C(=O)C=CC2=O)cc1 (nonaromatic ring conformer: 120.7289459637436 kcal/mol)

>  <smiles>  (3) 
C=c1c(=Cc2c(O)[nH]c(=O)[nH]c2=O)cc(C)n1Cc1ccc(N2C(=O)C=CC2=O)cc1

>  <score_type>  (3) 
oracle

>  <origin>  (3) 
adg

>  <m_score__min__energy>  (3) 
-13.31

>  <m_primary>  (3) 
energy

$$$$
3:0
     RDKit          3D

 74 79  0  0  0  0  0  0  0  0999 V2000
   57.8480   32.3390   41.9890 C   0  0  0  0  0  0  0  0  0  0  0  0
   57.9260   32.6810   43.3710 O   0  0  0  0  0  0  0  0  0  0  0  0
   58.0810   31.7500   44.4140 C   0  0  0  0  0  0  0  0  0  0  0  0
   57.7150   30.3980   44.2650 C   0  0  0  0  0  0  0  0  0  0  0  0
   57.8940   29.4970   45.3190 C   0  0  0  0  0  0  0  0  0  0  0  0
   57.5370   28.1940   45.1660 N   0  0  0  0  0  0  0  0  0  0  0  0
   57.7060   27.2920   46.1710 C   0  0  0  0  0  0  0  0  0  0  0  0
   57.3380   25.9100   45.9760 N   0  0  0  0  0  0  0  0  0  0  0  0
   58.3540   24.9380   45.5550 C   0  0  0  0  0  0  0  0  0  0  0  0
   57.7870   23.5100   45.5340 C   0  0  0  0  0  0  0  0  0  0  0  0
   56.4810   23.4330   44.8430 N   0  0  0  0  0  0  0  0  0  0  0  0
   56.6440   23.4180   43.3780 C   0  0  0  0  0  0  0  0  0  0  0  0
   55.4850   24.4540   45.2730 C   0  0  0  0  0  0  0  0  0  0  0  0
   56.0050   25.4210   46.3480 C   0  0  0  0  0  0  0  0  0  0  0  0
   58.2460   27.7010   47.3510 N   0  0  0  0  0  0  0  0  0  0  0  0
   58.6250   28.9880   47.5610 C   0  0  0  0  0  0  0  0  0  0  0  0
   59.2160   29.3360   48.8200 N   0  0  0  0  0  0  0  0  0  0  0  0
   58.5010   30.2650   49.7060 C   0  0  0  0  0  0  0  0  0  0  0  0
   59.4350   30.8460   50.7740 C   0  0  0  0  0  0  0  0  0  0  0  0
   60.6960   31.2960   50.1550 N   0  0  0  0  0  0  0  0  0  0  0  0
   61.2990   32.5500   50.5670 C   0  0  0  0  0  0  0  0  0  0  0  0
   60.7920   33.1970   51.5250 O   0  0  0  0  0  0  0  0  0  0  0  0
   62.5470   33.0980   49.8920 C   0  0  1  0  0  0  0  0  0  0  0  0
   63.5280   32.0170   49.3780 C   0  0  0  0  0  0  0  0  0  0  0  0
   63.7260   32.4100   47.9030 C   0  0  1  0  0  0  0  0  0  0  0  0
   62.4490   32.0510   47.1220 C   0  0  0  0  0  0  0  0  0  0  0  0
   61.4490   33.1200   47.5910 C   0  0  0  0  0  0  0  0  0  0  0  0
   62.2720   33.9310   48.6150 C   0  0  2  0  0  0  0  0  0  0  0  0
   63.6380   33.9190   47.9630 C   0  0  0  0  0  0  0  0  0  0  0  0
   61.3830   30.4110   49.1940 C   0  0  0  0  0  0  0  0  0  0  0  0
   60.6440   29.0800   49.0280 C   0  0  0  0  0  0  0  0  0  0  0  0
   58.4490   29.9370   46.5380 C   0  0  0  0  0  0  0  0  0  0  0  0
   58.7910   31.2900   46.6950 C   0  0  0  0  0  0  0  0  0  0  0  0
   58.6180   32.1980   45.6300 C   0  0  0  0  0  0  0  0  0  0  0  0
   58.9740   33.5510   45.7420 O   0  0  0  0  0  0  0  0  0  0  0  0
   58.5280   34.4180   46.7800 C   0  0  0  0  0  0  0  0  0  0  0  0
   57.6044   31.2710   41.8888 H   0  0  0  0  0  0  0  0  0  0  0  0
   57.0640   32.9408   41.5060 H   0  0  0  0  0  0  0  0  0  0  0  0
   58.8154   32.5414   41.5060 H   0  0  0  0  0  0  0  0  0  0  0  0
   57.2860   30.0491   43.3141 H   0  0  0  0  0  0  0  0  0  0  0  0
   58.7032   25.1996   44.5452 H   0  0  0  0  0  0  0  0  0  0  0  0
   59.1848   24.9707   46.2752 H   0  0  0  0  0  0  0  0  0  0  0  0
   58.5009   22.8538   45.0146 H   0  0  0  0  0  0  0  0  0  0  0  0
   57.6346   23.1938   46.5765 H   0  0  0  0  0  0  0  0  0  0  0  0
   57.7109   23.3198   43.1288 H   0  0  0  0  0  0  0  0  0  0  0  0
   56.0891   22.5671   42.9560 H   0  0  0  0  0  0  0  0  0  0  0  0
   56.2537   24.3559   42.9560 H   0  0  0  0  0  0  0  0  0  0  0  0
   55.1906   25.0426   44.3916 H   0  0  0  0  0  0  0  0  0  0  0  0
   54.6410   23.9071   45.7186 H   0  0  0  0  0  0  0  0  0  0  0  0
   55.3153   26.2733   46.4366 H   0  0  0  0  0  0  0  0  0  0  0  0
   56.0682   24.8928   47.3108 H   0  0  0  0  0  0  0  0  0  0  0  0
   58.0886   31.0883   49.1043 H   0  0  0  0  0  0  0  0  0  0  0  0
   57.6960   29.7120   50.2122 H   0  0  0  0  0  0  0  0  0  0  0  0
   58.9434   31.7012   51.2608 H   0  0  0  0  0  0  0  0  0  0  0  0
   59.6576   30.0679   51.5190 H   0  0  0  0  0  0  0  0  0  0  0  0
   62.9664   33.6983   50.7128 H   0  0  0  0  0  0  0  0  0  0  0  0
   64.4797   32.0516   49.9285 H   0  0  0  0  0  0  0  0  0  0  0  0
   63.1532   30.9911   49.5089 H   0  0  0  0  0  0  0  0  0  0  0  0
   64.6291   31.9578   47.4671 H   0  0  0  0  0  0  0  0  0  0  0  0
   62.6173   32.1153   46.0369 H   0  0  0  0  0  0  0  0  0  0  0  0
   62.1031   31.0227   47.3033 H   0  0  0  0  0  0  0  0  0  0  0  0
   61.1240   33.7537   46.7527 H   0  0  0  0  0  0  0  0  0  0  0  0
   60.5245   32.6975   48.0115 H   0  0  0  0  0  0  0  0  0  0  0  0
   61.7838   34.8869   48.8558 H   0  0  0  0  0  0  0  0  0  0  0  0
   63.6460   34.3914   46.9696 H   0  0  0  0  0  0  0  0  0  0  0  0
   64.4529   34.4644   48.4615 H   0  0  0  0  0  0  0  0  0  0  0  0
   61.4345   30.9152   48.2177 H   0  0  0  0  0  0  0  0  0  0  0  0
   62.3912   30.1997   49.5798 H   0  0  0  0  0  0  0  0  0  0  0  0
   61.0501   28.5411   48.1593 H   0  0  0  0  0  0  0  0  0  0  0  0
   60.7789   28.4706   49.9338 H   0  0  0  0  0  0  0  0  0  0  0  0
   59.1963   31.6436   47.6545 H   0  0  0  0  0  0  0  0  0  0  0  0
   58.7590   33.9690   47.7573 H   0  0  0  0  0  0  0  0  0  0  0  0
   59.0389   35.3882   46.6922 H   0  0  0  0  0  0  0  0  0  0  0  0
   57.4416   34.5665   46.6922 H   0  0  0  0  0  0  0  0  0  0  0  0
  1  2  1  0
  2  3  1  0
  3  4  2  0
  4  5  1  0
  5  6  2  0
  6  7  1  0
  7  8  1  0
  8  9  1  0
  9 10  1  0
 10 11  1  0
 11 12  1  0
 11 13  1  0
 13 14  1  0
  7 15  2  0
 15 16  1  0
 16 17  1  0
 17 18  1  0
 18 19  1  0
 19 20  1  0
 20 21  1  0
 21 22  2  0
 21 23  1  0
 23 24  1  0
 24 25  1  0
 25 26  1  0
 26 27  1  0
 27 28  1  0
 28 29  1  0
 20 30  1  0
 30 31  1  0
 16 32  2  0
 32 33  1  0
 33 34  2  0
 34 35  1  0
 35 36  1  0
 34  3  1  0
 32  5  1  0
 14  8  1  0
 31 17  1  0
 28 23  1  0
 29 25  1  0
  1 37  1  0
  1 38  1  0
  1 39  1  0
  4 40  1  0
  9 41  1  0
  9 42  1  0
 10 43  1  0
 10 44  1  0
 12 45  1  0
 12 46  1  0
 12 47  1  0
 13 48  1  0
 13 49  1  0
 14 50  1  0
 14 51  1  0
 18 52  1  0
 18 53  1  0
 19 54  1  0
 19 55  1  0
 23 56  1  1
 24 57  1  0
 24 58  1  0
 25 59  1  6
 26 60  1  0
 26 61  1  0
 27 62  1  0
 27 63  1  0
 28 64  1  1
 29 65  1  0
 29 66  1  0
 30 67  1  0
 30 68  1  0
 31 69  1  0
 31 70  1  0
 33 71  1  0
 36 72  1  0
 36 73  1  0
 36 74  1  0
M  END
>  <UniqueID>  (4) 
4

>  <SMILES>  (4) 
COc1cc2nc(N3CCN(C)CC3)nc(N3CCN(C(=O)[C@H]4C[C@H]5CCC4C5)CC3)c2cc1OC

>  <Energy>  (4) 
122.10069137219615

>  <Genealogy>  (4) 
COc1cc2nc(N3CCN(C)CC3)nc(N3CCN(C(=O)[C@H]4C[C@H]5CCC4C5)CC3)c2cc1OC (chirality)
COc1cc2nc(N3CCN(C)CC3)nc(N3CCN(C(=O)[C@H]4C[C@H]5CCC4C5)CC3)c2cc1OC (3D coordinates assigned)
COc1cc2nc(N3CCN(C)CC3)nc(N3CCN(C(=O)[C@H]4C[C@H]5CCC4C5)CC3)c2cc1OC (nonaromatic ring conformer: 122.10069137219615 kcal/mol)

>  <smiles>  (4) 
COc1cc2nc(N3CCN(C)CC3)nc(N3CCN(C(=O)C4CC5CCC4C5)CC3)c2cc1OC

>  <score_type>  (4) 
oracle

>  <origin>  (4) 
adg

>  <m_score__min__energy>  (4) 
-8.4499999999999993

>  <m_primary>  (4) 
energy

$$$$
4:0
     RDKit          3D

 52 55  0  0  0  0  0  0  0  0999 V2000
   56.4969   31.1574   43.1366 H   0  0  0  0  0  0  0  0  0  0  0  0
   56.8760   31.1350   44.1690 C   0  0  0  0  0  0  0  0  0  0  0  0
   56.8210   32.2750   44.8720 C   0  0  0  0  0  0  0  0  0  0  0  0
   55.8329   32.6089   45.2215 H   0  0  0  0  0  0  0  0  0  0  0  0
   57.9880   33.1190   45.2140 C   0  0  0  0  0  0  0  0  0  0  0  0
   58.4220   34.2250   44.5010 C   0  0  0  0  0  0  0  0  0  0  0  0
   58.0235   34.5854   43.5411 H   0  0  0  0  0  0  0  0  0  0  0  0
   59.4500   34.7860   45.2280 C   0  0  0  0  0  0  0  0  0  0  0  0
   60.0288   35.6832   44.9635 H   0  0  0  0  0  0  0  0  0  0  0  0
   59.6120   34.0000   46.3560 C   0  0  0  0  0  0  0  0  0  0  0  0
   60.4990   34.3190   47.4960 C   0  0  0  0  0  0  0  0  0  0  0  0
   60.3111   35.2601   48.0335 H   0  0  0  0  0  0  0  0  0  0  0  0
   61.5220   33.5490   47.9320 C   0  0  0  0  0  0  0  0  0  0  0  0
   62.8350   33.4670   47.2440 C   0  0  0  0  0  0  0  0  0  0  0  0
   62.9850   33.8900   46.0670 O   0  0  0  0  0  0  0  0  0  0  0  0
   63.9380   32.8350   47.8950 N   0  0  0  0  0  0  0  0  0  0  0  0
   64.8780   32.8540   47.4410 H   0  0  0  0  0  0  0  0  0  0  0  0
   63.7680   32.1230   49.1220 C   0  0  0  0  0  0  0  0  0  0  0  0
   64.7740   31.5920   49.6660 O   0  0  0  0  0  0  0  0  0  0  0  0
   62.4640   32.0060   49.7250 N   0  0  0  0  0  0  0  0  0  0  0  0
   62.2600   31.1230   50.8840 C   0  0  0  0  0  0  0  0  0  0  0  0
   63.2311   30.9143   51.3567 H   0  0  0  0  0  0  0  0  0  0  0  0
   61.5917   31.6220   51.6012 H   0  0  0  0  0  0  0  0  0  0  0  0
   61.6310   29.8270   50.4480 C   0  0  0  0  0  0  0  0  0  0  0  0
   61.6720   28.7010   51.2880 C   0  0  0  0  0  0  0  0  0  0  0  0
   62.1428   28.7743   52.2795 H   0  0  0  0  0  0  0  0  0  0  0  0
   61.1170   27.4880   50.8690 C   0  0  0  0  0  0  0  0  0  0  0  0
   61.1480   26.6114   51.5327 H   0  0  0  0  0  0  0  0  0  0  0  0
   60.5230   27.3880   49.6080 C   0  0  0  0  0  0  0  0  0  0  0  0
   60.0874   26.4327   49.2799 H   0  0  0  0  0  0  0  0  0  0  0  0
   60.4820   28.5000   48.7640 C   0  0  0  0  0  0  0  0  0  0  0  0
   60.0135   28.4200   47.7720 H   0  0  0  0  0  0  0  0  0  0  0  0
   61.0360   29.7150   49.1790 C   0  0  0  0  0  0  0  0  0  0  0  0
   61.0062   30.5873   48.5095 H   0  0  0  0  0  0  0  0  0  0  0  0
   61.3420   32.7000   49.1370 C   0  0  0  0  0  0  0  0  0  0  0  0
   60.1990   32.5960   49.6650 O   0  0  0  0  0  0  0  0  0  0  0  0
   58.7080   32.9960   46.3520 N   0  0  0  0  0  0  0  0  0  0  0  0
   58.4900   32.0160   47.4170 C   0  0  0  0  0  0  0  0  0  0  0  0
   58.5993   32.5071   48.3952 H   0  0  0  0  0  0  0  0  0  0  0  0
   57.4767   31.5972   47.3281 H   0  0  0  0  0  0  0  0  0  0  0  0
   59.2302   31.2071   47.3281 H   0  0  0  0  0  0  0  0  0  0  0  0
   57.4070   29.8480   44.6730 C   0  0  0  0  0  0  0  0  0  0  0  0
   58.7890   29.6640   44.8650 C   0  0  0  0  0  0  0  0  0  0  0  0
   59.4891   30.4753   44.6165 H   0  0  0  0  0  0  0  0  0  0  0  0
   59.2760   28.4550   45.3700 C   0  0  0  0  0  0  0  0  0  0  0  0
   60.3585   28.3115   45.5029 H   0  0  0  0  0  0  0  0  0  0  0  0
   58.3900   27.4290   45.7060 C   0  0  0  0  0  0  0  0  0  0  0  0
   58.7755   26.4762   46.0977 H   0  0  0  0  0  0  0  0  0  0  0  0
   57.0150   27.6120   45.5450 C   0  0  0  0  0  0  0  0  0  0  0  0
   56.3190   26.8052   45.8182 H   0  0  0  0  0  0  0  0  0  0  0  0
   56.5190   28.8190   45.0370 C   0  0  0  0  0  0  0  0  0  0  0  0
   55.1460   28.9820   44.8900 O   0  0  0  0  0  0  0  0  0  0  0  0
  1  2  1  0
  2  3  2  3
  3  4  1  0
  3  5  1  0
  5  6  2  0
  6  7  1  0
  6  8  1  0
  8  9  1  0
  8 10  2  0
 10 11  1  0
 11 12  1  0
 11 13  2  0
 13 14  1  0
 14 15  2  0
 14 16  1  0
 16 17  1  0
 16 18  1  0
 18 19  2  0
 18 20  1  0
 20 21  1  0
 21 22  1  0
 21 23  1  0
 21 24  1  0
 24 25  2  0
 25 26  1  0
 25 27  1  0
 27 28  1  0
 27 29  2  0
 29 30  1  0
 29 31  1  0
 31 32  1  0
 31 33  2  0
 33 34  1  0
 20 35  1  0
 35 36  2  0
 10 37  1  0
 37 38  1  0
 38 39  1  0
 38 40  1  0
 38 41  1  0
  2 42  1  0
 42 43  2  0
 43 44  1  0
 43 45  1  0
 45 46  1  0
 45 47  2  0
 47 48  1  0
 47 49  1  0
 49 50  1  0
 49 51  2  0
 51 52  1  0
 37  5  1  0
 51 42  1  0
 35 13  1  0
 33 24  1  0
M  CHG  1  52  -1
M  END
>  <UniqueID>  (5) 
5

>  <SMILES>  (5) 
Cn1c(C=Cc2ccccc2[O-])ccc1/C=C1\C(=O)NC(=O)N(Cc2ccccc2)C1=O

>  <Energy>  (5) 
99.06244548717176

>  <Genealogy>  (5) 
Cn1c(C=Cc2ccccc2[O-])ccc1C=C1C(=O)NC(=O)N(Cc2ccccc2)C1=O (protonated)
Cn1c(C=Cc2ccccc2[O-])ccc1/C=C1\C(=O)NC(=O)N(Cc2ccccc2)C1=O (cis-trans isomerization)
Cn1c(C=Cc2ccccc2[O-])ccc1/C=C1\C(=O)NC(=O)N(Cc2ccccc2)C1=O (3D coordinates assigned)
Cn1c(C=Cc2ccccc2[O-])ccc1/C=C1\C(=O)NC(=O)N(Cc2ccccc2)C1=O (nonaromatic ring conformer: 99.06244548717176 kcal/mol)

>  <smiles>  (5) 
Cn1c(C=Cc2ccccc2O)ccc1C=C1C(=O)NC(=O)N(Cc2ccccc2)C1=O

>  <score_type>  (5) 
oracle

>  <origin>  (5) 
adg

>  <m_score__min__energy>  (5) 
-13.130000000000001

>  <m_primary>  (5) 
energy

$$$$
5:0
     RDKit          3D

 43 45  0  0  0  0  0  0  0  0999 V2000
   56.5810   32.3219   43.2544 H   0  0  0  0  0  0  0  0  0  0  0  0
   57.0590   31.5880   43.9200 C   0  0  0  0  0  0  0  0  0  0  0  0
   57.4870   32.0660   45.2640 C   0  0  0  0  0  0  0  0  0  0  0  0
   57.7560   31.2230   46.1640 O   0  0  0  0  0  0  0  0  0  0  0  0
   57.5030   33.4780   45.6100 N   0  0  0  0  0  0  0  0  0  0  0  0
   56.5740   33.8580   45.3050 H   0  0  0  0  0  0  0  0  0  0  0  0
   57.5890   33.7300   47.0790 C   0  0  0  0  0  0  0  0  0  0  0  0
   56.7411   34.3679   47.3691 H   0  0  0  0  0  0  0  0  0  0  0  0
   57.5710   32.7452   47.5687 H   0  0  0  0  0  0  0  0  0  0  0  0
   58.8910   34.4230   47.5300 C   0  0  0  0  0  0  0  0  0  0  0  0
   58.7805   35.5101   47.4031 H   0  0  0  0  0  0  0  0  0  0  0  0
   59.0707   34.1699   48.5853 H   0  0  0  0  0  0  0  0  0  0  0  0
   60.0400   33.9650   46.7430 N   0  0  0  0  0  0  0  0  0  0  0  0
   61.3280   33.7990   47.3680 C   0  0  0  0  0  0  0  0  0  0  0  0
   62.4570   33.4670   46.5980 C   0  0  0  0  0  0  0  0  0  0  0  0
   62.3580   33.3341   45.5106 H   0  0  0  0  0  0  0  0  0  0  0  0
   63.7050   33.3050   47.2080 C   0  0  0  0  0  0  0  0  0  0  0  0
   64.5837   33.0447   46.5996 H   0  0  0  0  0  0  0  0  0  0  0  0
   63.8380   33.4730   48.5880 C   0  0  0  0  0  0  0  0  0  0  0  0
   64.8204   33.3437   49.0658 H   0  0  0  0  0  0  0  0  0  0  0  0
   62.7240   33.8050   49.3610 C   0  0  0  0  0  0  0  0  0  0  0  0
   62.8301   33.9386   50.4477 H   0  0  0  0  0  0  0  0  0  0  0  0
   61.4740   33.9680   48.7570 C   0  0  0  0  0  0  0  0  0  0  0  0
   60.5997   34.2298   49.3711 H   0  0  0  0  0  0  0  0  0  0  0  0
   59.9420   33.9180   45.2800 C   0  0  0  0  0  0  0  0  0  0  0  0
   60.6204   34.6699   44.8505 H   0  0  0  0  0  0  0  0  0  0  0  0
   60.2203   32.9081   44.9442 H   0  0  0  0  0  0  0  0  0  0  0  0
   58.5110   34.2090   44.8110 C   0  0  0  0  0  0  0  0  0  0  0  0
   58.3207   35.2886   44.9022 H   0  0  0  0  0  0  0  0  0  0  0  0
   58.4226   33.8744   43.7669 H   0  0  0  0  0  0  0  0  0  0  0  0
   57.2060   30.3400   43.4510 C   0  0  0  0  0  0  0  0  0  0  0  0
   57.1063   30.1925   42.3655 H   0  0  0  0  0  0  0  0  0  0  0  0
   57.4910   29.1480   44.2750 C   0  0  0  0  0  0  0  0  0  0  0  0
   58.7900   28.6120   44.3280 C   0  0  0  0  0  0  0  0  0  0  0  0
   59.6093   29.1062   43.7854 H   0  0  0  0  0  0  0  0  0  0  0  0
   59.0440   27.4530   45.0680 C   0  0  0  0  0  0  0  0  0  0  0  0
   60.0648   27.0462   45.1178 H   0  0  0  0  0  0  0  0  0  0  0  0
   58.0040   26.8110   45.7440 C   0  0  0  0  0  0  0  0  0  0  0  0
   58.2067   25.9013   46.3283 H   0  0  0  0  0  0  0  0  0  0  0  0
   56.7070   27.3240   45.6780 C   0  0  0  0  0  0  0  0  0  0  0  0
   55.8888   26.8154   46.2090 H   0  0  0  0  0  0  0  0  0  0  0  0
   56.4440   28.4840   44.9380 C   0  0  0  0  0  0  0  0  0  0  0  0
   55.1440   28.9750   44.8770 O   0  0  0  0  0  0  0  0  0  0  0  0
  1  2  1  0
  2  3  1  0
  3  4  2  0
  3  5  1  0
  5  6  1  0
  5  7  1  0
  7  8  1  0
  7  9  1  0
  7 10  1  0
 10 11  1  0
 10 12  1  0
 10 13  1  0
 13 14  1  0
 14 15  2  0
 15 16  1  0
 15 17  1  0
 17 18  1  0
 17 19  2  0
 19 20  1  0
 19 21  1  0
 21 22  1  0
 21 23  2  0
 23 24  1  0
 13 25  1  0
 25 26  1  0
 25 27  1  0
 25 28  1  0
 28 29  1  0
 28 30  1  0
  2 31  2  0
 31 32  1  0
 31 33  1  0
 33 34  2  0
 34 35  1  0
 34 36  1  0
 36 37  1  0
 36 38  2  0
 38 39  1  0
 38 40  1  0
 40 41  1  0
 40 42  2  0
 42 43  1  0
 28  5  1  0
 42 33  1  0
 23 14  1  0
M  CHG  2   5   1  43  -1
M  END
>  <UniqueID>  (6) 
6

>  <SMILES>  (6) 
O=C(/C=C\c1ccccc1[O-])[NH+]1CCN(c2ccccc2)CC1

>  <Energy>  (6) 
67.97007420451598

>  <Genealogy>  (6) 
O=C(C=Cc1ccccc1[O-])[NH+]1CCN(c2ccccc2)CC1 (protonated)
O=C(/C=C\c1ccccc1[O-])[NH+]1CCN(c2ccccc2)CC1 (cis-trans isomerization)
O=C(/C=C\c1ccccc1[O-])[NH+]1CCN(c2ccccc2)CC1 (3D coordinates assigned)
O=C(/C=C\c1ccccc1[O-])[NH+]1CCN(c2ccccc2)CC1 (nonaromatic ring conformer: 67.97007420451598 kcal/mol)

>  <smiles>  (6) 
O=C(C=Cc1ccccc1O)N1CCN(c2ccccc2)CC1

>  <score_type>  (6) 
oracle

>  <origin>  (6) 
adg

>  <m_score__min__energy>  (6) 
-10.609999999999999

>  <m_primary>  (6) 
energy

$$$$
6:0
     RDKit          3D

 43 46  0  0  0  0  0  0  0  0999 V2000
   58.0750   33.5470   45.5710 C   0  0  0  0  0  0  0  0  0  0  0  0
   57.0460   32.6150   45.2540 O   0  0  0  0  0  0  0  0  0  0  0  0
   57.2750   31.3110   44.7900 C   0  0  0  0  0  0  0  0  0  0  0  0
   58.5350   30.7420   45.0010 C   0  0  0  0  0  0  0  0  0  0  0  0
   58.8130   29.4450   44.5580 C   0  0  0  0  0  0  0  0  0  0  0  0
   57.8300   28.6910   43.8940 C   0  0  0  0  0  0  0  0  0  0  0  0
   58.1270   27.3150   43.4280 C   0  0  0  0  0  0  0  0  0  0  0  0
   58.1250   27.0620   42.1950 O   0  0  0  0  0  0  0  0  0  0  0  0
   58.3170   26.2600   44.3830 N   0  0  0  0  0  0  0  0  0  0  0  0
   57.4840   25.8220   45.2880 C   0  0  0  0  0  0  0  0  0  0  0  0
   56.4160   24.9480   45.1340 C   0  0  0  0  0  0  0  0  0  0  0  0
   55.9230   24.7920   46.3930 C   0  0  0  0  0  0  0  0  0  0  0  0
   56.6250   25.5100   47.2870 N   0  0  0  0  0  0  0  0  0  0  0  0
   57.5730   26.1440   46.6050 N   0  0  0  0  0  0  0  0  0  0  0  0
   58.5370   27.0070   47.2330 C   0  0  0  0  0  0  0  0  0  0  0  0
   58.2360   28.3530   47.5050 C   0  0  0  0  0  0  0  0  0  0  0  0
   59.1860   29.1820   48.1070 C   0  0  0  0  0  0  0  0  0  0  0  0
   60.4500   28.6780   48.4310 C   0  0  0  0  0  0  0  0  0  0  0  0
   60.7650   27.3490   48.1440 C   0  0  0  0  0  0  0  0  0  0  0  0
   59.8160   26.5160   47.5420 C   0  0  0  0  0  0  0  0  0  0  0  0
   54.9260   23.7240   46.6390 C   0  0  0  0  0  0  0  0  0  0  0  0
   54.7970   22.9750   45.0230 S   0  0  0  0  0  0  0  0  0  0  0  0
   55.2630   21.5470   45.0430 O   0  0  0  0  0  0  0  0  0  0  0  0
   53.3960   23.0680   44.4880 O   0  0  0  0  0  0  0  0  0  0  0  0
   55.9210   24.0110   44.0890 C   0  0  0  0  0  0  0  0  0  0  0  0
   56.5640   29.2660   43.6800 C   0  0  0  0  0  0  0  0  0  0  0  0
   56.2890   30.5630   44.1230 C   0  0  0  0  0  0  0  0  0  0  0  0
   58.1688   33.6320   46.6637 H   0  0  0  0  0  0  0  0  0  0  0  0
   59.0284   33.1988   45.1471 H   0  0  0  0  0  0  0  0  0  0  0  0
   57.8226   34.5301   45.1471 H   0  0  0  0  0  0  0  0  0  0  0  0
   59.3141   31.3196   45.5199 H   0  0  0  0  0  0  0  0  0  0  0  0
   59.8091   29.0114   44.7306 H   0  0  0  0  0  0  0  0  0  0  0  0
   57.2467   28.7559   47.2423 H   0  0  0  0  0  0  0  0  0  0  0  0
   58.9398   30.2314   48.3263 H   0  0  0  0  0  0  0  0  0  0  0  0
   61.1953   29.3288   48.9117 H   0  0  0  0  0  0  0  0  0  0  0  0
   61.7619   26.9556   48.3918 H   0  0  0  0  0  0  0  0  0  0  0  0
   60.0726   25.4719   47.3096 H   0  0  0  0  0  0  0  0  0  0  0  0
   55.2861   23.0033   47.3880 H   0  0  0  0  0  0  0  0  0  0  0  0
   53.9693   24.0886   47.0411 H   0  0  0  0  0  0  0  0  0  0  0  0
   56.7438   23.4215   43.6582 H   0  0  0  0  0  0  0  0  0  0  0  0
   55.4526   24.5120   43.2290 H   0  0  0  0  0  0  0  0  0  0  0  0
   55.7842   28.6903   43.1599 H   0  0  0  0  0  0  0  0  0  0  0  0
   55.2951   31.0010   43.9487 H   0  0  0  0  0  0  0  0  0  0  0  0
  1  2  1  0
  2  3  1  0
  3  4  2  0
  4  5  1  0
  5  6  2  0
  6  7  1  0
  7  8  2  0
  7  9  1  0
  9 10  2  3
 10 11  1  0
 11 12  2  0
 12 13  1  0
 13 14  1  0
 14 15  1  0
 15 16  2  0
 16 17  1  0
 17 18  2  0
 18 19  1  0
 19 20  2  0
 12 21  1  0
 21 22  1  0
 22 23  2  0
 22 24  2  0
 22 25  1  0
  6 26  1  0
 26 27  2  0
 27  3  1  0
 14 10  1  0
 20 15  1  0
 25 11  1  0
  1 28  1  0
  1 29  1  0
  1 30  1  0
  4 31  1  0
  5 32  1  0
 16 33  1  0
 17 34  1  0
 18 35  1  0
 19 36  1  0
 20 37  1  0
 21 38  1  0
 21 39  1  0
 25 40  1  0
 25 41  1  0
 26 42  1  0
 27 43  1  0
M  CHG  1  13  -1
M  END
>  <UniqueID>  (7) 
7

>  <SMILES>  (7) 
COc1ccc(C(=O)N=c2c3c([n-]n2-c2ccccc2)CS(=O)(=O)C3)cc1

>  <Energy>  (7) 
101.63069939614401

>  <Genealogy>  (7) 
COc1ccc(C(=O)N=c2c3c([n-]n2-c2ccccc2)CS(=O)(=O)C3)cc1 (protonated)
COc1ccc(C(=O)N=c2c3c([n-]n2-c2ccccc2)CS(=O)(=O)C3)cc1 (3D coordinates assigned)
COc1ccc(C(=O)N=c2c3c([n-]n2-c2ccccc2)CS(=O)(=O)C3)cc1 (nonaromatic ring conformer: 101.63069939614401 kcal/mol)

>  <smiles>  (7) 
COc1ccc(C(=O)N=c2c3c([nH]n2-c2ccccc2)CS(=O)(=O)C3)cc1

>  <score_type>  (7) 
oracle

>  <origin>  (7) 
adg

>  <m_score__min__energy>  (7) 
-8.9600000000000009

>  <m_primary>  (7) 
energy

$$$$
7:0
     RDKit          3D

 36 38  0  0  0  0  0  0  0  0999 V2000
   55.2100   29.4050   44.9790 O   0  0  0  0  0  0  0  0  0  0  0  0
   56.3670   29.3860   44.4810 C   0  0  0  0  0  0  0  0  0  0  0  0
   56.9360   30.6510   43.8960 C   0  0  0  0  0  0  0  0  0  0  0  0
   57.4470   31.5620   44.9850 C   0  0  0  0  0  0  0  0  0  0  0  0
   56.7180   32.6740   45.2710 N   0  0  0  0  0  0  0  0  0  0  0  0
   57.0930   33.5560   46.1960 N   0  0  0  0  0  0  0  0  0  0  0  0
   58.2340   33.4000   46.9080 C   0  0  0  0  0  0  0  0  0  0  0  0
   58.5460   34.2650   47.7710 O   0  0  0  0  0  0  0  0  0  0  0  0
   59.0480   32.2790   46.6760 C   0  0  0  0  0  0  0  0  0  0  0  0
   60.2410   32.0810   47.3970 C   0  0  0  0  0  0  0  0  0  0  0  0
   61.0340   30.9580   47.1530 C   0  0  0  0  0  0  0  0  0  0  0  0
   60.6480   30.0240   46.1940 C   0  0  0  0  0  0  0  0  0  0  0  0
   59.4670   30.2040   45.4690 C   0  0  0  0  0  0  0  0  0  0  0  0
   58.6510   31.3340   45.6950 C   0  0  0  0  0  0  0  0  0  0  0  0
   57.1110   28.1620   44.5250 N   0  0  0  0  0  0  0  0  0  0  0  0
   57.8820   27.6950   45.6700 C   0  0  0  0  0  0  0  0  0  0  0  0
   57.5350   26.2580   45.9560 C   0  0  0  0  0  0  0  0  0  0  0  0
   58.5670   25.3070   46.0570 C   0  0  0  0  0  0  0  0  0  0  0  0
   58.2750   23.9670   46.3150 C   0  0  0  0  0  0  0  0  0  0  0  0
   56.9500   23.5560   46.4670 C   0  0  0  0  0  0  0  0  0  0  0  0
   55.9140   24.4860   46.3570 C   0  0  0  0  0  0  0  0  0  0  0  0
   56.1910   25.8340   46.0970 C   0  0  0  0  0  0  0  0  0  0  0  0
   55.1150   26.7170   45.9800 O   0  0  0  0  0  0  0  0  0  0  0  0
   57.7660   30.3948   43.2211 H   0  0  0  0  0  0  0  0  0  0  0  0
   56.1408   31.1730   43.3437 H   0  0  0  0  0  0  0  0  0  0  0  0
   60.5498   32.8146   48.1562 H   0  0  0  0  0  0  0  0  0  0  0  0
   61.9655   30.8104   47.7192 H   0  0  0  0  0  0  0  0  0  0  0  0
   61.2760   29.1405   46.0066 H   0  0  0  0  0  0  0  0  0  0  0  0
   59.1705   29.4591   44.7159 H   0  0  0  0  0  0  0  0  0  0  0  0
   58.9560   27.7754   45.4463 H   0  0  0  0  0  0  0  0  0  0  0  0
   57.6435   28.3118   46.5490 H   0  0  0  0  0  0  0  0  0  0  0  0
   59.6133   25.6225   45.9315 H   0  0  0  0  0  0  0  0  0  0  0  0
   59.0905   23.2335   46.3987 H   0  0  0  0  0  0  0  0  0  0  0  0
   56.7217   22.4999   46.6734 H   0  0  0  0  0  0  0  0  0  0  0  0
   54.8711   24.1568   46.4756 H   0  0  0  0  0  0  0  0  0  0  0  0
   55.1430   27.5560   45.4140 H   0  0  0  0  0  0  0  0  0  0  0  0
  1  2  2  0
  2  3  1  0
  3  4  1  0
  4  5  2  0
  5  6  1  0
  6  7  1  0
  7  8  2  0
  7  9  1  0
  9 10  2  0
 10 11  1  0
 11 12  2  0
 12 13  1  0
 13 14  2  0
  2 15  1  0
 15 16  1  0
 16 17  1  0
 17 18  2  0
 18 19  1  0
 19 20  2  0
 20 21  1  0
 21 22  2  0
 22 23  1  0
 14  4  1  0
 22 17  1  0
 14  9  1  0
  3 24  1  0
  3 25  1  0
 10 26  1  0
 11 27  1  0
 12 28  1  0
 13 29  1  0
 16 30  1  0
 16 31  1  0
 18 32  1  0
 19 33  1  0
 20 34  1  0
 21 35  1  0
 23 36  1  0
M  CHG  2   6  -1  15  -1
M  END
>  <UniqueID>  (8) 
8

>  <SMILES>  (8) 
O=C(Cc1n[n-]c(=O)c2ccccc12)[N-]Cc1ccccc1O

>  <Energy>  (8) 
44.27328069575936

>  <Genealogy>  (8) 
O=C(Cc1n[n-]c(=O)c2ccccc12)[N-]Cc1ccccc1O (protonated)
O=C(Cc1n[n-]c(=O)c2ccccc12)[N-]Cc1ccccc1O (3D coordinates assigned)
O=C(Cc1n[n-]c(=O)c2ccccc12)[N-]Cc1ccccc1O (optimized conformer: 44.27328069575936 kcal/mol)

>  <smiles>  (8) 
O=C(Cc1n[nH]c(=O)c2ccccc12)NCc1ccccc1O

>  <score_type>  (8) 
oracle

>  <origin>  (8) 
adg

>  <m_score__min__energy>  (8) 
-11.99

>  <m_primary>  (8) 
energy

$$$$
8:0
     RDKit          3D

 46 48  0  0  0  0  0  0  0  0999 V2000
   55.4180   26.3530   45.9800 N   0  0  0  0  0  0  0  0  0  0  0  0
   55.1630   24.9710   45.7320 C   0  0  0  0  0  0  0  0  0  0  0  0
   54.0540   24.4810   46.0750 O   0  0  0  0  0  0  0  0  0  0  0  0
   56.1580   24.1240   45.0270 C   0  0  0  0  0  0  0  0  0  0  0  0
   57.4320   23.9550   45.4590 C   0  0  0  0  0  0  0  0  0  0  0  0
   57.9130   24.4360   46.7790 C   0  0  0  0  0  0  0  0  0  0  0  0
   57.4030   23.9700   47.8320 O   0  0  0  0  0  0  0  0  0  0  0  0
   59.0230   25.3380   46.8960 N   0  0  0  0  0  0  0  0  0  0  0  0
   59.0060   26.7420   46.6090 C   0  0  0  0  0  0  0  0  0  0  0  0
   57.8240   27.4600   46.8340 C   0  0  0  0  0  0  0  0  0  0  0  0
   57.7680   28.8310   46.5710 C   0  0  0  0  0  0  0  0  0  0  0  0
   58.8870   29.4970   46.0510 C   0  0  0  0  0  0  0  0  0  0  0  0
   58.8280   30.9470   45.7820 C   0  0  0  0  0  0  0  0  0  0  0  0
   59.6230   31.8030   46.5620 C   0  0  0  0  0  0  0  0  0  0  0  0
   59.6250   33.1780   46.3280 C   0  0  0  0  0  0  0  0  0  0  0  0
   58.8330   33.7140   45.3140 C   0  0  0  0  0  0  0  0  0  0  0  0
   58.0280   32.8790   44.5370 C   0  0  0  0  0  0  0  0  0  0  0  0
   58.0040   31.4930   44.7670 C   0  0  0  0  0  0  0  0  0  0  0  0
   56.9200   30.4900   43.7890 S   0  0  0  0  0  0  0  0  0  0  0  0
   55.4310   30.2440   44.6300 N   0  0  0  0  0  0  0  0  0  0  0  0
   57.5590   29.1560   43.5230 O   0  0  0  0  0  0  0  0  0  0  0  0
   56.6490   31.1540   42.4680 O   0  0  0  0  0  0  0  0  0  0  0  0
   60.0670   28.7780   45.8090 C   0  0  0  0  0  0  0  0  0  0  0  0
   60.1250   27.4060   46.0710 C   0  0  0  0  0  0  0  0  0  0  0  0
   61.2570   26.7270   45.7610 F   0  0  0  0  0  0  0  0  0  0  0  0
   58.3910   23.1860   44.5760 C   0  0  0  0  0  0  0  0  0  0  0  0
   57.7510   21.8870   44.0590 C   0  0  0  0  0  0  0  0  0  0  0  0
   56.2750   22.0470   43.6220 C   0  0  0  0  0  0  0  0  0  0  0  0
   55.7620   23.4930   43.7110 C   0  0  0  0  0  0  0  0  0  0  0  0
   54.7170   26.9490   46.4730 H   0  0  0  0  0  0  0  0  0  0  0  0
   56.9344   26.9409   47.2202 H   0  0  0  0  0  0  0  0  0  0  0  0
   56.8424   29.3902   46.7727 H   0  0  0  0  0  0  0  0  0  0  0  0
   60.2493   31.3854   47.3641 H   0  0  0  0  0  0  0  0  0  0  0  0
   60.2518   33.8396   46.9439 H   0  0  0  0  0  0  0  0  0  0  0  0
   58.8423   34.7977   45.1255 H   0  0  0  0  0  0  0  0  0  0  0  0
   57.4071   33.3098   43.7377 H   0  0  0  0  0  0  0  0  0  0  0  0
   55.5540   29.3920   45.2220 H   0  0  0  0  0  0  0  0  0  0  0  0
   60.9516   29.2967   45.4109 H   0  0  0  0  0  0  0  0  0  0  0  0
   58.6709   23.8144   43.7177 H   0  0  0  0  0  0  0  0  0  0  0  0
   59.2785   22.9243   45.1708 H   0  0  0  0  0  0  0  0  0  0  0  0
   58.3322   21.5347   43.1941 H   0  0  0  0  0  0  0  0  0  0  0  0
   57.7614   21.1711   44.8941 H   0  0  0  0  0  0  0  0  0  0  0  0
   56.1819   21.7082   42.5796 H   0  0  0  0  0  0  0  0  0  0  0  0
   55.6663   21.4449   44.3126 H   0  0  0  0  0  0  0  0  0  0  0  0
   56.1924   24.0796   42.8860 H   0  0  0  0  0  0  0  0  0  0  0  0
   54.6642   23.4822   43.6417 H   0  0  0  0  0  0  0  0  0  0  0  0
  1  2  1  0
  2  3  2  0
  2  4  1  0
  4  5  2  0
  5  6  1  0
  6  7  2  0
  6  8  1  0
  8  9  1  0
  9 10  2  0
 10 11  1  0
 11 12  2  0
 12 13  1  0
 13 14  2  0
 14 15  1  0
 15 16  2  0
 16 17  1  0
 17 18  2  0
 18 19  1  0
 19 20  1  0
 19 21  2  0
 19 22  2  0
 12 23  1  0
 23 24  2  0
 24 25  1  0
  5 26  1  0
 26 27  1  0
 27 28  1  0
 28 29  1  0
 29  4  1  0
 24  9  1  0
 18 13  1  0
  1 30  1  0
 10 31  1  0
 11 32  1  0
 14 33  1  0
 15 34  1  0
 16 35  1  0
 17 36  1  0
 20 37  1  0
 23 38  1  0
 26 39  1  0
 26 40  1  0
 27 41  1  0
 27 42  1  0
 28 43  1  0
 28 44  1  0
 29 45  1  0
 29 46  1  0
M  CHG  3   1  -1   8  -1  20  -1
M  END
>  <UniqueID>  (9) 
9

>  <SMILES>  (9) 
[NH-]C(=O)C1=C(C(=O)[N-]c2ccc(-c3ccccc3S([NH-])(=O)=O)cc2F)CCCC1

>  <Energy>  (9) 
72.30541971659406

>  <Genealogy>  (9) 
[NH-]C(=O)C1=C(C(=O)[N-]c2ccc(-c3ccccc3S([NH-])(=O)=O)cc2F)CCCC1 (protonated)
[NH-]C(=O)C1=C(C(=O)[N-]c2ccc(-c3ccccc3S([NH-])(=O)=O)cc2F)CCCC1 (3D coordinates assigned)
[NH-]C(=O)C1=C(C(=O)[N-]c2ccc(-c3ccccc3S([NH-])(=O)=O)cc2F)CCCC1 (nonaromatic ring conformer: 72.30541971659406 kcal/mol)

>  <smiles>  (9) 
NC(=O)C1=C(C(=O)Nc2ccc(-c3ccccc3S(N)(=O)=O)cc2F)CCCC1

>  <score_type>  (9) 
oracle

>  <origin>  (9) 
adg

>  <m_score__min__energy>  (9) 
-16.77

>  <m_primary>  (9) 
energy

$$$$
9:0
     RDKit          3D

 55 58  0  0  0  0  0  0  0  0999 V2000
   54.7620   27.4580   46.3270 H   0  0  0  0  0  0  0  0  0  0  0  0
   55.1620   26.7020   45.7890 O   0  0  0  0  0  0  0  0  0  0  0  0
   56.1280   25.8710   46.3440 C   0  0  0  0  0  0  0  0  0  0  0  0
   55.8640   24.6900   46.9270 N   0  0  0  0  0  0  0  0  0  0  0  0
   57.0990   24.2500   47.2660 C   0  0  0  0  0  0  0  0  0  0  0  0
   57.2940   23.1410   47.8300 O   0  0  0  0  0  0  0  0  0  0  0  0
   58.1090   25.0800   46.9370 N   0  0  0  0  0  0  0  0  0  0  0  0
   57.4800   26.1290   46.3750 C   0  0  0  0  0  0  0  0  0  0  0  0
   58.1490   27.3240   45.8160 C   0  0  0  0  0  0  0  0  0  0  0  0
   58.3638   27.3381   44.7373 H   0  0  0  0  0  0  0  0  0  0  0  0
   58.5120   28.3980   46.5480 C   0  0  0  0  0  0  0  0  0  0  0  0
   58.2540   29.7300   46.2530 C   0  0  0  0  0  0  0  0  0  0  0  0
   57.6883   30.1124   45.3906 H   0  0  0  0  0  0  0  0  0  0  0  0
   58.8420   30.4810   47.2470 C   0  0  0  0  0  0  0  0  0  0  0  0
   58.8300   31.9750   47.3060 C   0  0  0  0  0  0  0  0  0  0  0  0
   58.8274   32.3004   48.3568 H   0  0  0  0  0  0  0  0  0  0  0  0
   59.7250   32.3690   46.8023 H   0  0  0  0  0  0  0  0  0  0  0  0
   57.9288   32.3546   46.8023 H   0  0  0  0  0  0  0  0  0  0  0  0
   59.4630   29.6770   48.1350 N   0  0  0  0  0  0  0  0  0  0  0  0
   60.2230   30.1180   49.2720 C   0  0  0  0  0  0  0  0  0  0  0  0
   61.3340   30.6840   49.0860 O   0  0  0  0  0  0  0  0  0  0  0  0
   59.6890   29.9780   50.6040 N   0  0  0  0  0  0  0  0  0  0  0  0
   58.2470   30.1780   50.8200 C   0  0  0  0  0  0  0  0  0  0  0  0
   57.7089   30.0245   49.8730 H   0  0  0  0  0  0  0  0  0  0  0  0
   57.8830   29.4575   51.5672 H   0  0  0  0  0  0  0  0  0  0  0  0
   58.0010   31.6170   51.3260 C   0  0  0  0  0  0  0  0  0  0  0  0
   57.7240   32.2586   50.4765 H   0  0  0  0  0  0  0  0  0  0  0  0
   57.1879   31.6031   52.0667 H   0  0  0  0  0  0  0  0  0  0  0  0
   59.2240   32.1500   51.9620 N   0  0  0  0  0  0  0  0  0  0  0  0
   59.8870   33.3180   51.4300 C   0  0  0  0  0  0  0  0  0  0  0  0
   59.4010   33.9260   50.4360 O   0  0  0  0  0  0  0  0  0  0  0  0
   61.1040   33.7870   52.0280 N   0  0  0  0  0  0  0  0  0  0  0  0
   62.4440   33.4250   51.5700 C   0  0  0  0  0  0  0  0  0  0  0  0
   63.1752   34.1036   52.0334 H   0  0  0  0  0  0  0  0  0  0  0  0
   62.6372   32.3819   51.8609 H   0  0  0  0  0  0  0  0  0  0  0  0
   62.5630   33.5260   50.0800 C   0  0  0  0  0  0  0  0  0  0  0  0
   61.8610   34.3860   49.3140 N   0  0  0  0  0  0  0  0  0  0  0  0
   62.2330   34.1750   48.0810 O   0  0  0  0  0  0  0  0  0  0  0  0
   63.1400   33.2260   48.0140 C   0  0  0  0  0  0  0  0  0  0  0  0
   63.7570   32.7350   46.7490 C   0  0  0  0  0  0  0  0  0  0  0  0
   64.5974   32.0662   46.9864 H   0  0  0  0  0  0  0  0  0  0  0  0
   63.0052   32.1855   46.1635 H   0  0  0  0  0  0  0  0  0  0  0  0
   64.1237   33.5910   46.1635 H   0  0  0  0  0  0  0  0  0  0  0  0
   63.3890   32.7540   49.2850 C   0  0  0  0  0  0  0  0  0  0  0  0
   64.0794   31.9548   49.5927 H   0  0  0  0  0  0  0  0  0  0  0  0
   60.0040   31.1800   52.7430 C   0  0  0  0  0  0  0  0  0  0  0  0
   60.8325   31.6945   53.2518 H   0  0  0  0  0  0  0  0  0  0  0  0
   59.3626   30.7036   53.4991 H   0  0  0  0  0  0  0  0  0  0  0  0
   60.5660   30.1150   51.7830 C   0  0  0  0  0  0  0  0  0  0  0  0
   61.5717   30.4162   51.4547 H   0  0  0  0  0  0  0  0  0  0  0  0
   60.6157   29.1494   52.3075 H   0  0  0  0  0  0  0  0  0  0  0  0
   59.2670   28.4010   47.7280 C   0  0  0  0  0  0  0  0  0  0  0  0
   59.7440   27.3290   48.3780 C   0  0  0  0  0  0  0  0  0  0  0  0
   60.3274   27.4602   49.3013 H   0  0  0  0  0  0  0  0  0  0  0  0
   59.5518   26.3187   47.9878 H   0  0  0  0  0  0  0  0  0  0  0  0
  1  2  1  0
  2  3  1  0
  3  4  1  0
  4  5  1  0
  5  6  2  0
  5  7  1  0
  7  8  1  0
  8  9  1  0
  9 10  1  0
  9 11  2  0
 11 12  1  0
 12 13  1  0
 12 14  2  0
 14 15  1  0
 15 16  1  0
 15 17  1  0
 15 18  1  0
 14 19  1  0
 19 20  1  0
 20 21  2  0
 20 22  1  0
 22 23  1  0
 23 24  1  0
 23 25  1  0
 23 26  1  0
 26 27  1  0
 26 28  1  0
 26 29  1  0
 29 30  1  0
 30 31  2  0
 30 32  1  0
 32 33  1  0
 33 34  1  0
 33 35  1  0
 33 36  1  0
 36 37  2  0
 37 38  1  0
 38 39  1  0
 39 40  1  0
 40 41  1  0
 40 42  1  0
 40 43  1  0
 39 44  2  0
 44 45  1  0
 29 46  1  0
 46 47  1  0
 46 48  1  0
 46 49  1  0
 49 50  1  0
 49 51  1  0
 19 52  1  0
 52 53  2  0
 53 54  1  0
 53 55  1  0
  8  3  2  0
 52 11  1  0
 49 22  1  0
 44 36  1  0
M  CHG  3   4  -1   7  -1  32  -1
M  END
>  <UniqueID>  (10) 
10

>  <SMILES>  (10) 
C=c1/c(=C/c2[n-]c(=O)[n-]c2O)cc(C)n1C(=O)N1CCN(C(=O)[N-]Cc2cc(C)on2)CC1

>  <Energy>  (10) 
162.51905582286852

>  <Genealogy>  (10) 
C=c1c(=Cc2[n-]c(=O)[n-]c2O)cc(C)n1C(=O)N1CCN(C(=O)[N-]Cc2cc(C)on2)CC1 (protonated)
C=c1/c(=C/c2[n-]c(=O)[n-]c2O)cc(C)n1C(=O)N1CCN(C(=O)[N-]Cc2cc(C)on2)CC1 (cis-trans isomerization)
C=c1/c(=C/c2[n-]c(=O)[n-]c2O)cc(C)n1C(=O)N1CCN(C(=O)[N-]Cc2cc(C)on2)CC1 (3D coordinates assigned)
C=c1/c(=C/c2[n-]c(=O)[n-]c2O)cc(C)n1C(=O)N1CCN(C(=O)[N-]Cc2cc(C)on2)CC1 (nonaromatic ring conformer: 162.51905582286852 kcal/mol)

>  <smiles>  (10) 
C=c1c(=Cc2[nH]c(=O)[nH]c2O)cc(C)n1C(=O)N1CCN(C(=O)NCc2cc(C)on2)CC1

>  <score_type>  (10) 
oracle

>  <origin>  (10) 
adg

>  <m_score__min__energy>  (10) 
-14.41

>  <m_primary>  (10) 
energy

$$$$
10:0
     RDKit          3D

 50 53  0  0  0  0  0  0  0  0999 V2000
   55.1550   27.4870   45.4860 H   0  0  0  0  0  0  0  0  0  0  0  0
   54.9140   26.6450   45.9920 O   0  0  0  0  0  0  0  0  0  0  0  0
   55.8950   25.7930   46.4950 C   0  0  0  0  0  0  0  0  0  0  0  0
   55.7370   24.4620   46.5900 N   0  0  0  0  0  0  0  0  0  0  0  0
   56.9040   24.0600   47.1360 C   0  0  0  0  0  0  0  0  0  0  0  0
   57.1540   22.8530   47.3910 O   0  0  0  0  0  0  0  0  0  0  0  0
   57.7810   25.0540   47.3940 N   0  0  0  0  0  0  0  0  0  0  0  0
   57.1400   26.1560   46.9630 C   0  0  0  0  0  0  0  0  0  0  0  0
   57.6520   27.5360   47.1090 C   0  0  0  0  0  0  0  0  0  0  0  0
   57.0484   28.2370   47.7042 H   0  0  0  0  0  0  0  0  0  0  0  0
   58.8090   28.0120   46.5680 C   0  0  0  0  0  0  0  0  0  0  0  0
   59.0810   27.7850   45.1790 C   0  0  0  0  0  0  0  0  0  0  0  0
   58.2390   26.8750   44.3000 C   0  0  0  0  0  0  0  0  0  0  0  0
   58.8274   25.9786   44.0544 H   0  0  0  0  0  0  0  0  0  0  0  0
   57.3273   26.6195   44.8600 H   0  0  0  0  0  0  0  0  0  0  0  0
   57.8150   27.5440   43.0130 C   0  0  0  0  0  0  0  0  0  0  0  0
   58.2160   27.0800   41.9110 O   0  0  0  0  0  0  0  0  0  0  0  0
   56.9690   28.7070   42.9940 N   0  0  0  0  0  0  0  0  0  0  0  0
   57.1270   29.8100   43.6660 C   0  0  0  0  0  0  0  0  0  0  0  0
   56.7970   29.9730   44.9670 N   0  0  0  0  0  0  0  0  0  0  0  0
   57.0350   31.2050   45.4130 N   0  0  0  0  0  0  0  0  0  0  0  0
   57.5380   32.0290   44.4660 C   0  0  0  0  0  0  0  0  0  0  0  0
   57.9470   33.4400   44.7320 C   0  0  0  0  0  0  0  0  0  0  0  0
   58.8714   33.6623   44.1788 H   0  0  0  0  0  0  0  0  0  0  0  0
   57.1451   34.1176   44.4035 H   0  0  0  0  0  0  0  0  0  0  0  0
   58.1860   33.6330   46.1940 C   0  0  0  0  0  0  0  0  0  0  0  0
   57.2830   33.3250   47.0170 O   0  0  0  0  0  0  0  0  0  0  0  0
   59.4020   34.2570   46.6300 N   0  0  0  0  0  0  0  0  0  0  0  0
   60.6150   33.6040   47.0370 C   0  0  0  0  0  0  0  0  0  0  0  0
   61.8540   33.8620   46.4170 C   0  0  0  0  0  0  0  0  0  0  0  0
   61.9120   34.5802   45.5858 H   0  0  0  0  0  0  0  0  0  0  0  0
   63.0100   33.2080   46.8550 C   0  0  0  0  0  0  0  0  0  0  0  0
   63.9732   33.4057   46.3619 H   0  0  0  0  0  0  0  0  0  0  0  0
   62.9430   32.3030   47.9190 C   0  0  0  0  0  0  0  0  0  0  0  0
   63.8508   31.7801   48.2544 H   0  0  0  0  0  0  0  0  0  0  0  0
   61.7230   32.0630   48.5560 C   0  0  0  0  0  0  0  0  0  0  0  0
   61.6731   31.3607   49.4011 H   0  0  0  0  0  0  0  0  0  0  0  0
   60.5650   32.7150   48.1200 C   0  0  0  0  0  0  0  0  0  0  0  0
   59.6084   32.5290   48.6303 H   0  0  0  0  0  0  0  0  0  0  0  0
   57.7320   31.2280   42.9930 S   0  0  0  0  0  0  0  0  0  0  0  0
   60.1200   28.4910   44.5490 C   0  0  0  0  0  0  0  0  0  0  0  0
   60.2975   28.3486   43.4728 H   0  0  0  0  0  0  0  0  0  0  0  0
   60.9250   29.3650   45.2650 C   0  0  0  0  0  0  0  0  0  0  0  0
   61.6913   29.9572   44.7434 H   0  0  0  0  0  0  0  0  0  0  0  0
   60.7660   29.4940   46.6370 C   0  0  0  0  0  0  0  0  0  0  0  0
   61.4280   30.1695   47.1986 H   0  0  0  0  0  0  0  0  0  0  0  0
   59.7700   28.7730   47.3200 C   0  0  0  0  0  0  0  0  0  0  0  0
   59.8580   28.7310   48.6630 C   0  0  0  0  0  0  0  0  0  0  0  0
   59.1051   28.1809   49.2466 H   0  0  0  0  0  0  0  0  0  0  0  0
   60.6828   29.2468   49.1765 H   0  0  0  0  0  0  0  0  0  0  0  0
  1  2  1  0
  2  3  1  0
  3  4  1  0
  4  5  1  0
  5  6  2  0
  5  7  1  0
  7  8  1  0
  8  9  1  0
  9 10  1  0
  9 11  2  0
 11 12  1  0
 12 13  1  0
 13 14  1  0
 13 15  1  0
 13 16  1  0
 16 17  2  0
 16 18  1  0
 18 19  2  3
 19 20  1  0
 20 21  1  0
 21 22  2  0
 22 23  1  0
 23 24  1  0
 23 25  1  0
 23 26  1  0
 26 27  2  0
 26 28  1  0
 28 29  1  0
 29 30  2  0
 30 31  1  0
 30 32  1  0
 32 33  1  0
 32 34  2  0
 34 35  1  0
 34 36  1  0
 36 37  1  0
 36 38  2  0
 38 39  1  0
 22 40  1  0
 12 41  2  0
 41 42  1  0
 41 43  1  0
 43 44  1  0
 43 45  2  0
 45 46  1  0
 45 47  1  0
 47 48  2  0
 48 49  1  0
 48 50  1  0
  8  3  2  0
 47 11  1  0
 40 19  1  0
 38 29  1  0
M  CHG  4   4  -1   7  -1  20  -1  28  -1
M  END
>  <UniqueID>  (11) 
11

>  <SMILES>  (11) 
C=c1cccc(CC(=O)N=c2[n-]nc(CC(=O)[N-]c3ccccc3)s2)/c1=C/c1[n-]c(=O)[n-]c1O

>  <Energy>  (11) 
146.94617950412942

>  <Genealogy>  (11) 
C=c1cccc(CC(=O)N=c2[n-]nc(CC(=O)[N-]c3ccccc3)s2)c1=Cc1[n-]c(=O)[n-]c1O (protonated)
C=c1cccc(CC(=O)N=c2[n-]nc(CC(=O)[N-]c3ccccc3)s2)/c1=C/c1[n-]c(=O)[n-]c1O (cis-trans isomerization)
C=c1cccc(CC(=O)N=c2[n-]nc(CC(=O)[N-]c3ccccc3)s2)/c1=C/c1[n-]c(=O)[n-]c1O (3D coordinates assigned)
C=c1cccc(CC(=O)N=c2[n-]nc(CC(=O)[N-]c3ccccc3)s2)/c1=C/c1[n-]c(=O)[n-]c1O (optimized conformer: 146.94617950412942 kcal/mol)

>  <smiles>  (11) 
C=c1cccc(CC(=O)N=c2[nH]nc(CC(=O)Nc3ccccc3)s2)c1=Cc1[nH]c(=O)[nH]c1O

>  <score_type>  (11) 
oracle

>  <origin>  (11) 
adg

>  <m_score__min__energy>  (11) 
-17.469999999999999

>  <m_primary>  (11) 
energy

$$$$
11:0
     RDKit          3D

 45 48  0  0  0  0  0  0  0  0999 V2000
   57.4730   27.8340   45.9920 C   0  0  0  0  0  0  0  0  0  0  0  0
   57.3770   29.1850   45.4440 N   0  0  0  0  0  0  0  0  0  0  0  0
   58.3490   30.1170   45.3440 C   0  0  0  0  0  0  0  0  0  0  0  0
   59.7620   29.9450   45.7690 C   0  0  0  0  0  0  0  0  0  0  0  0
   60.5520   29.3350   44.9990 O   0  0  0  0  0  0  0  0  0  0  0  0
   60.2520   30.5300   47.0080 N   0  0  1  0  0  0  0  0  0  0  0  0
   61.5600   31.2120   46.8300 C   0  0  0  0  0  0  0  0  0  0  0  0
   61.9070   32.2510   47.8720 C   0  0  0  0  0  0  0  0  0  0  0  0
   63.0200   32.0570   48.7110 C   0  0  0  0  0  0  0  0  0  0  0  0
   63.2680   32.9310   49.7730 C   0  0  0  0  0  0  0  0  0  0  0  0
   62.3970   33.9920   50.0220 C   0  0  0  0  0  0  0  0  0  0  0  0
   61.2900   34.1940   49.1950 C   0  0  0  0  0  0  0  0  0  0  0  0
   61.0560   33.3420   48.1090 C   0  0  0  0  0  0  0  0  0  0  0  0
   59.9790   33.6020   47.2690 O   0  0  0  0  0  0  0  0  0  0  0  0
   58.8840   32.7030   47.1610 C   0  0  0  0  0  0  0  0  0  0  0  0
   59.1750   31.2910   47.7150 C   0  0  2  0  0  0  0  0  0  0  0  0
   59.2680   31.2330   49.2680 C   0  0  0  0  0  0  0  0  0  0  0  0
   59.9710   30.0630   49.7920 N   0  0  0  0  0  0  0  0  0  0  0  0
   60.9170   30.0760   50.7510 C   0  0  0  0  0  0  0  0  0  0  0  0
   61.4190   28.7990   50.8830 C   0  0  0  0  0  0  0  0  0  0  0  0
   60.7380   28.0550   49.9390 C   0  0  0  0  0  0  0  0  0  0  0  0
   59.8750   28.8470   49.2760 N   0  0  0  0  0  0  0  0  0  0  0  0
   57.8060   31.2420   44.7450 C   0  0  0  0  0  0  0  0  0  0  0  0
   56.5050   31.0210   44.4620 N   0  0  0  0  0  0  0  0  0  0  0  0
   56.2870   29.7650   44.8990 C   0  0  0  0  0  0  0  0  0  0  0  0
   55.1700   29.1950   44.8010 O   0  0  0  0  0  0  0  0  0  0  0  0
   57.4695   27.8830   47.0909 H   0  0  0  0  0  0  0  0  0  0  0  0
   56.6150   27.2373   45.6488 H   0  0  0  0  0  0  0  0  0  0  0  0
   58.4068   27.3646   45.6488 H   0  0  0  0  0  0  0  0  0  0  0  0
   60.4880   29.7250   47.6340 H   0  0  0  0  0  0  0  0  0  0  0  0
   62.3464   30.4431   46.8450 H   0  0  0  0  0  0  0  0  0  0  0  0
   61.4857   31.7571   45.8775 H   0  0  0  0  0  0  0  0  0  0  0  0
   63.6997   31.2114   48.5296 H   0  0  0  0  0  0  0  0  0  0  0  0
   64.1503   32.7823   50.4128 H   0  0  0  0  0  0  0  0  0  0  0  0
   62.5821   34.6689   50.8691 H   0  0  0  0  0  0  0  0  0  0  0  0
   60.5992   35.0257   49.3976 H   0  0  0  0  0  0  0  0  0  0  0  0
   58.0338   33.1246   47.7173 H   0  0  0  0  0  0  0  0  0  0  0  0
   58.6715   32.5869   46.0880 H   0  0  0  0  0  0  0  0  0  0  0  0
   58.2670   30.7251   47.4595 H   0  0  0  0  0  0  0  0  0  0  0  0
   59.7958   32.1339   49.6141 H   0  0  0  0  0  0  0  0  0  0  0  0
   58.2349   31.1687   49.6402 H   0  0  0  0  0  0  0  0  0  0  0  0
   61.2347   30.9557   51.3300 H   0  0  0  0  0  0  0  0  0  0  0  0
   62.1909   28.4497   51.5846 H   0  0  0  0  0  0  0  0  0  0  0  0
   60.8795   26.9794   49.7570 H   0  0  0  0  0  0  0  0  0  0  0  0
   58.3518   32.1731   44.5325 H   0  0  0  0  0  0  0  0  0  0  0  0
  1  2  1  0
  2  3  1  0
  3  4  1  0
  4  5  2  0
  4  6  1  0
  6  7  1  0
  7  8  1  0
  8  9  2  0
  9 10  1  0
 10 11  2  0
 11 12  1  0
 12 13  2  0
 13 14  1  0
 14 15  1  0
 15 16  1  0
 16 17  1  0
 17 18  1  0
 18 19  1  0
 19 20  2  0
 20 21  1  0
 21 22  2  0
  3 23  2  0
 23 24  1  0
 24 25  1  0
 25 26  2  0
 25  2  1  0
 16  6  1  0
 22 18  1  0
 13  8  1  0
  1 27  1  0
  1 28  1  0
  1 29  1  0
  6 30  1  1
  7 31  1  0
  7 32  1  0
  9 33  1  0
 10 34  1  0
 11 35  1  0
 12 36  1  0
 15 37  1  0
 15 38  1  0
 16 39  1  1
 17 40  1  0
 17 41  1  0
 19 42  1  0
 20 43  1  0
 21 44  1  0
 23 45  1  0
M  CHG  2   6   1  24  -1
M  END
>  <UniqueID>  (12) 
12

>  <SMILES>  (12) 
Cn1c(C(=O)[N@H+]2Cc3ccccc3OC[C@@H]2Cn2cccn2)c[n-]c1=O

>  <Energy>  (12) 
133.65417648721174

>  <Genealogy>  (12) 
Cn1c(C(=O)[NH+]2Cc3ccccc3OCC2Cn2cccn2)c[n-]c1=O (protonated)
Cn1c(C(=O)[N@H+]2Cc3ccccc3OC[C@@H]2Cn2cccn2)c[n-]c1=O (chirality)
Cn1c(C(=O)[N@H+]2Cc3ccccc3OC[C@@H]2Cn2cccn2)c[n-]c1=O (3D coordinates assigned)
Cn1c(C(=O)[N@H+]2Cc3ccccc3OC[C@@H]2Cn2cccn2)c[n-]c1=O (nonaromatic ring conformer: 133.65417648721174 kcal/mol)

>  <smiles>  (12) 
Cn1c(C(=O)N2Cc3ccccc3OCC2Cn2cccn2)c[nH]c1=O

>  <score_type>  (12) 
oracle

>  <origin>  (12) 
adg

>  <m_score__min__energy>  (12) 
-5.1200000000000001

>  <m_primary>  (12) 
energy

$$$$
12:0
     RDKit          3D

 52 54  0  0  0  0  0  0  0  0999 V2000
   53.6230   24.5580   45.2950 C   0  0  0  0  0  0  0  0  0  0  0  0
   54.7090   25.3830   45.6610 O   0  0  0  0  0  0  0  0  0  0  0  0
   55.8300   24.5950   46.0260 C   0  0  0  0  0  0  0  0  0  0  0  0
   56.9350   25.4750   46.6370 C   0  0  1  0  0  0  0  0  0  0  0  0
   58.3190   24.8570   46.4020 C   0  0  0  0  0  0  0  0  0  0  0  0
   56.8880   26.8220   46.0620 N   0  0  0  0  0  0  0  0  0  0  0  0
   57.6600   27.9080   46.5930 C   0  0  0  0  0  0  0  0  0  0  0  0
   58.4210   27.7200   47.5820 O   0  0  0  0  0  0  0  0  0  0  0  0
   57.5560   29.2590   45.9990 C   0  0  0  0  0  0  0  0  0  0  0  0
   56.4780   29.5420   45.1380 C   0  0  0  0  0  0  0  0  0  0  0  0
   55.5150   28.5750   44.8700 O   0  0  0  0  0  0  0  0  0  0  0  0
   56.3720   30.7910   44.5250 C   0  0  0  0  0  0  0  0  0  0  0  0
   57.3260   31.7790   44.7560 C   0  0  0  0  0  0  0  0  0  0  0  0
   58.3980   31.5340   45.6220 C   0  0  0  0  0  0  0  0  0  0  0  0
   59.3390   32.5450   45.8750 C   0  0  0  0  0  0  0  0  0  0  0  0
   60.4020   32.3280   46.7580 C   0  0  0  0  0  0  0  0  0  0  0  0
   61.3290   33.3970   46.9890 N   0  0  0  0  0  0  0  0  0  0  0  0
   63.0500   33.2210   47.1610 S   0  0  0  0  0  0  0  0  0  0  0  0
   63.7670   34.1840   46.2570 O   0  0  0  0  0  0  0  0  0  0  0  0
   63.4380   31.8240   46.7630 O   0  0  0  0  0  0  0  0  0  0  0  0
   63.5020   33.4770   48.8460 C   0  0  0  0  0  0  0  0  0  0  0  0
   62.6960   34.2800   49.6640 C   0  0  0  0  0  0  0  0  0  0  0  0
   63.0560   34.5220   50.9920 C   0  0  0  0  0  0  0  0  0  0  0  0
   64.2250   33.9550   51.5230 C   0  0  0  0  0  0  0  0  0  0  0  0
   64.6240   34.2480   52.9380 C   0  0  0  0  0  0  0  0  0  0  0  0
   65.0410   33.1610   50.7020 C   0  0  0  0  0  0  0  0  0  0  0  0
   64.6770   32.9170   49.3710 C   0  0  0  0  0  0  0  0  0  0  0  0
   60.5130   31.0890   47.4030 C   0  0  0  0  0  0  0  0  0  0  0  0
   59.5860   30.0730   47.1620 C   0  0  0  0  0  0  0  0  0  0  0  0
   58.5240   30.2680   46.2580 C   0  0  0  0  0  0  0  0  0  0  0  0
   53.1270   24.1812   46.2016 H   0  0  0  0  0  0  0  0  0  0  0  0
   52.9047   25.1403   44.6991 H   0  0  0  0  0  0  0  0  0  0  0  0
   53.9913   23.7099   44.6991 H   0  0  0  0  0  0  0  0  0  0  0  0
   55.5176   23.8422   46.7647 H   0  0  0  0  0  0  0  0  0  0  0  0
   56.2259   24.1030   45.1254 H   0  0  0  0  0  0  0  0  0  0  0  0
   56.7599   25.5388   47.7211 H   0  0  0  0  0  0  0  0  0  0  0  0
   58.7949   24.6445   47.3707 H   0  0  0  0  0  0  0  0  0  0  0  0
   58.2111   23.9216   45.8334 H   0  0  0  0  0  0  0  0  0  0  0  0
   58.9435   25.5618   45.8334 H   0  0  0  0  0  0  0  0  0  0  0  0
   56.2180   27.0250   45.2890 H   0  0  0  0  0  0  0  0  0  0  0  0
   55.5264   30.9974   43.8525 H   0  0  0  0  0  0  0  0  0  0  0  0
   57.2368   32.7549   44.2563 H   0  0  0  0  0  0  0  0  0  0  0  0
   59.2391   33.5187   45.3731 H   0  0  0  0  0  0  0  0  0  0  0  0
   61.7743   34.7224   49.2581 H   0  0  0  0  0  0  0  0  0  0  0  0
   62.4206   35.1596   51.6242 H   0  0  0  0  0  0  0  0  0  0  0  0
   63.9326   33.7403   53.6266 H   0  0  0  0  0  0  0  0  0  0  0  0
   65.6477   33.8854   53.1129 H   0  0  0  0  0  0  0  0  0  0  0  0
   64.5845   35.3333   53.1129 H   0  0  0  0  0  0  0  0  0  0  0  0
   65.9690   32.7290   51.1047 H   0  0  0  0  0  0  0  0  0  0  0  0
   65.3143   32.2845   48.7355 H   0  0  0  0  0  0  0  0  0  0  0  0
   61.3399   30.9148   48.1072 H   0  0  0  0  0  0  0  0  0  0  0  0
   59.6864   29.1099   47.6839 H   0  0  0  0  0  0  0  0  0  0  0  0
  1  2  1  0
  2  3  1  0
  3  4  1  0
  4  5  1  0
  4  6  1  0
  6  7  1  0
  7  8  2  0
  7  9  1  0
  9 10  2  0
 10 11  1  0
 10 12  1  0
 12 13  2  0
 13 14  1  0
 14 15  2  0
 15 16  1  0
 16 17  1  0
 17 18  1  0
 18 19  2  0
 18 20  2  0
 18 21  1  0
 21 22  2  0
 22 23  1  0
 23 24  2  0
 24 25  1  0
 24 26  1  0
 26 27  2  0
 16 28  2  0
 28 29  1  0
 29 30  2  0
 30  9  1  0
 30 14  1  0
 27 21  1  0
  1 31  1  0
  1 32  1  0
  1 33  1  0
  3 34  1  0
  3 35  1  0
  4 36  1  1
  5 37  1  0
  5 38  1  0
  5 39  1  0
  6 40  1  0
 12 41  1  0
 13 42  1  0
 15 43  1  0
 22 44  1  0
 23 45  1  0
 25 46  1  0
 25 47  1  0
 25 48  1  0
 26 49  1  0
 27 50  1  0
 28 51  1  0
 29 52  1  0
M  CHG  2  11  -1  17  -1
M  END
>  <UniqueID>  (13) 
13

>  <SMILES>  (13) 
COC[C@@H](C)NC(=O)c1c([O-])ccc2cc([N-]S(=O)(=O)c3ccc(C)cc3)ccc12

>  <Energy>  (13) 
65.92677108532732

>  <Genealogy>  (13) 
COCC(C)NC(=O)c1c([O-])ccc2cc([N-]S(=O)(=O)c3ccc(C)cc3)ccc12 (protonated)
COC[C@@H](C)NC(=O)c1c([O-])ccc2cc([N-]S(=O)(=O)c3ccc(C)cc3)ccc12 (chirality)
COC[C@@H](C)NC(=O)c1c([O-])ccc2cc([N-]S(=O)(=O)c3ccc(C)cc3)ccc12 (3D coordinates assigned)
COC[C@@H](C)NC(=O)c1c([O-])ccc2cc([N-]S(=O)(=O)c3ccc(C)cc3)ccc12 (optimized conformer: 65.92677108532732 kcal/mol)

>  <smiles>  (13) 
COCC(C)NC(=O)c1c(O)ccc2cc(NS(=O)(=O)c3ccc(C)cc3)ccc12

>  <score_type>  (13) 
oracle

>  <origin>  (13) 
adg

>  <m_score__min__energy>  (13) 
-12.76

>  <m_primary>  (13) 
energy

$$$$
13:0
     RDKit          3D

 50 52  0  0  0  0  0  0  0  0999 V2000
   57.8390   29.1680   46.8850 O   0  0  0  0  0  0  0  0  0  0  0  0
   57.4350   28.6520   45.5340 S   0  0  0  0  0  0  0  0  0  0  0  0
   58.4390   29.1260   44.5200 O   0  0  0  0  0  0  0  0  0  0  0  0
   55.8550   29.2630   45.1380 N   0  0  0  0  0  0  0  0  0  0  0  0
   55.7960   29.7200   43.7480 C   0  0  0  0  0  0  0  0  0  0  0  0
   56.6310   30.9870   43.5710 C   0  0  0  0  0  0  0  0  0  0  0  0
   56.9750   31.5480   44.8820 N   0  0  0  0  0  0  0  0  0  0  0  0
   58.0040   32.5830   44.7410 C   0  0  0  0  0  0  0  0  0  0  0  0
   58.4960   32.9980   46.1020 C   0  0  0  0  0  0  0  0  0  0  0  0
   59.0550   34.2670   46.2870 C   0  0  0  0  0  0  0  0  0  0  0  0
   59.4820   34.6650   47.5510 C   0  0  0  0  0  0  0  0  0  0  0  0
   59.3420   33.8100   48.6450 C   0  0  0  0  0  0  0  0  0  0  0  0
   58.7570   32.5290   48.5010 C   0  0  0  0  0  0  0  0  0  0  0  0
   58.5980   31.6360   49.6480 N   0  0  0  0  0  0  0  0  0  0  0  0
   59.1070   30.2500   49.5620 C   0  0  0  0  0  0  0  0  0  0  0  0
   58.9400   29.4530   50.8590 C   0  0  0  0  0  0  0  0  0  0  0  0
   57.7180   29.7600   51.4860 O   0  0  0  0  0  0  0  0  0  0  0  0
   57.7870   31.0810   51.9670 C   0  0  0  0  0  0  0  0  0  0  0  0
   57.8040   32.0850   50.8110 C   0  0  0  0  0  0  0  0  0  0  0  0
   58.3370   32.1420   47.2040 C   0  0  0  0  0  0  0  0  0  0  0  0
   57.4010   26.8910   45.5810 C   0  0  0  0  0  0  0  0  0  0  0  0
   57.7880   26.1350   44.4640 C   0  0  0  0  0  0  0  0  0  0  0  0
   57.7430   24.7380   44.5120 C   0  0  0  0  0  0  0  0  0  0  0  0
   57.3100   24.0900   45.6730 C   0  0  0  0  0  0  0  0  0  0  0  0
   56.9190   24.8390   46.7870 C   0  0  0  0  0  0  0  0  0  0  0  0
   56.9630   26.2360   46.7410 C   0  0  0  0  0  0  0  0  0  0  0  0
   56.1891   28.9313   43.0896 H   0  0  0  0  0  0  0  0  0  0  0  0
   54.7503   29.9412   43.4879 H   0  0  0  0  0  0  0  0  0  0  0  0
   57.5545   30.7416   43.0261 H   0  0  0  0  0  0  0  0  0  0  0  0
   56.0483   31.7272   43.0030 H   0  0  0  0  0  0  0  0  0  0  0  0
   57.3760   30.7760   45.4670 H   0  0  0  0  0  0  0  0  0  0  0  0
   58.8448   32.1851   44.1539 H   0  0  0  0  0  0  0  0  0  0  0  0
   57.5749   33.4557   44.2270 H   0  0  0  0  0  0  0  0  0  0  0  0
   59.1574   34.9517   45.4322 H   0  0  0  0  0  0  0  0  0  0  0  0
   59.9323   35.6592   47.6881 H   0  0  0  0  0  0  0  0  0  0  0  0
   59.6919   34.1368   49.6353 H   0  0  0  0  0  0  0  0  0  0  0  0
   58.5622   29.7287   48.7611 H   0  0  0  0  0  0  0  0  0  0  0  0
   60.1864   30.3151   49.3606 H   0  0  0  0  0  0  0  0  0  0  0  0
   58.9649   28.3782   50.6264 H   0  0  0  0  0  0  0  0  0  0  0  0
   59.7606   29.7188   51.5417 H   0  0  0  0  0  0  0  0  0  0  0  0
   56.9112   31.2788   52.6025 H   0  0  0  0  0  0  0  0  0  0  0  0
   58.7159   31.1958   52.5449 H   0  0  0  0  0  0  0  0  0  0  0  0
   56.7682   32.2526   50.4809 H   0  0  0  0  0  0  0  0  0  0  0  0
   58.2769   33.0035   51.1888 H   0  0  0  0  0  0  0  0  0  0  0  0
   57.8781   31.1531   47.0577 H   0  0  0  0  0  0  0  0  0  0  0  0
   58.1274   26.6421   43.5488 H   0  0  0  0  0  0  0  0  0  0  0  0
   58.0486   24.1482   43.6353 H   0  0  0  0  0  0  0  0  0  0  0  0
   57.2770   22.9911   45.7099 H   0  0  0  0  0  0  0  0  0  0  0  0
   56.5767   24.3293   47.6997 H   0  0  0  0  0  0  0  0  0  0  0  0
   56.6529   26.8232   47.6179 H   0  0  0  0  0  0  0  0  0  0  0  0
  1  2  2  0
  2  3  2  0
  2  4  1  0
  4  5  1  0
  5  6  1  0
  6  7  1  0
  7  8  1  0
  8  9  1  0
  9 10  2  0
 10 11  1  0
 11 12  2  0
 12 13  1  0
 13 14  1  0
 14 15  1  0
 15 16  1  0
 16 17  1  0
 17 18  1  0
 18 19  1  0
 13 20  2  0
  2 21  1  0
 21 22  2  0
 22 23  1  0
 23 24  2  0
 24 25  1  0
 25 26  2  0
 20  9  1  0
 26 21  1  0
 19 14  1  0
  5 27  1  0
  5 28  1  0
  6 29  1  0
  6 30  1  0
  7 31  1  0
  8 32  1  0
  8 33  1  0
 10 34  1  0
 11 35  1  0
 12 36  1  0
 15 37  1  0
 15 38  1  0
 16 39  1  0
 16 40  1  0
 18 41  1  0
 18 42  1  0
 19 43  1  0
 19 44  1  0
 20 45  1  0
 22 46  1  0
 23 47  1  0
 24 48  1  0
 25 49  1  0
 26 50  1  0
M  CHG  1   4  -1
M  END
>  <UniqueID>  (14) 
14

>  <SMILES>  (14) 
O=S(=O)([N-]CCNCc1cccc(N2CCOCC2)c1)c1ccccc1

>  <Energy>  (14) 
54.87519319105778

>  <Genealogy>  (14) 
O=S(=O)([N-]CCNCc1cccc(N2CCOCC2)c1)c1ccccc1 (protonated)
O=S(=O)([N-]CCNCc1cccc(N2CCOCC2)c1)c1ccccc1 (3D coordinates assigned)
O=S(=O)([N-]CCNCc1cccc(N2CCOCC2)c1)c1ccccc1 (nonaromatic ring conformer: 54.87519319105778 kcal/mol)

>  <smiles>  (14) 
O=S(=O)(NCCNCc1cccc(N2CCOCC2)c1)c1ccccc1

>  <score_type>  (14) 
oracle

>  <origin>  (14) 
adg

>  <m_score__min__energy>  (14) 
-10.029999999999999

>  <m_primary>  (14) 
energy

$$$$
14:0
     RDKit          3D

 54 57  0  0  0  0  0  0  0  0999 V2000
   56.0560   28.2640   45.2530 N   0  0  0  0  0  0  0  0  0  0  0  0
   56.9210   29.6400   44.6660 S   0  0  0  0  0  0  0  0  0  0  0  0
   57.4570   29.3500   43.2920 O   0  0  0  0  0  0  0  0  0  0  0  0
   55.9910   30.8160   44.5810 O   0  0  0  0  0  0  0  0  0  0  0  0
   58.2520   30.0070   45.7580 C   0  0  0  0  0  0  0  0  0  0  0  0
   58.1040   30.9860   46.7500 C   0  0  0  0  0  0  0  0  0  0  0  0
   59.1650   31.2820   47.6090 C   0  0  0  0  0  0  0  0  0  0  0  0
   60.3830   30.5990   47.4850 C   0  0  0  0  0  0  0  0  0  0  0  0
   61.5130   30.9140   48.3840 C   0  0  0  0  0  0  0  0  0  0  0  0
   62.4160   31.9580   48.0680 C   0  0  0  0  0  0  0  0  0  0  0  0
   62.2660   32.7870   46.8020 C   0  0  0  0  0  0  0  0  0  0  0  0
   60.9660   33.5600   46.7950 C   0  0  0  0  0  0  0  0  0  0  0  0
   60.1700   33.5720   45.6350 C   0  0  0  0  0  0  0  0  0  0  0  0
   58.9530   34.2580   45.6160 C   0  0  0  0  0  0  0  0  0  0  0  0
   58.5230   34.9510   46.7480 C   0  0  0  0  0  0  0  0  0  0  0  0
   59.3120   34.9680   47.8990 C   0  0  0  0  0  0  0  0  0  0  0  0
   60.5370   34.2840   47.9290 C   0  0  0  0  0  0  0  0  0  0  0  0
   61.3180   34.3190   49.0850 O   0  0  0  0  0  0  0  0  0  0  0  0
   63.4930   32.1760   48.9460 C   0  0  0  0  0  0  0  0  0  0  0  0
   64.3400   33.0810   48.7190 O   0  0  0  0  0  0  0  0  0  0  0  0
   63.6350   31.4070   50.0510 N   0  0  0  0  0  0  0  0  0  0  0  0
   62.7640   30.4110   50.3400 C   0  0  0  0  0  0  0  0  0  0  0  0
   62.9340   29.7240   51.3830 O   0  0  0  0  0  0  0  0  0  0  0  0
   61.7130   30.1550   49.5060 N   0  0  0  0  0  0  0  0  0  0  0  0
   60.8120   29.1180   49.8240 N   0  0  0  0  0  0  0  0  0  0  0  0
   59.8570   29.2400   50.8910 C   0  0  0  0  0  0  0  0  0  0  0  0
   59.9560   28.3970   52.0070 C   0  0  0  0  0  0  0  0  0  0  0  0
   59.0420   28.5050   53.0560 C   0  0  0  0  0  0  0  0  0  0  0  0
   58.0290   29.4660   53.0100 C   0  0  0  0  0  0  0  0  0  0  0  0
   57.9330   30.3440   51.9180 C   0  0  0  0  0  0  0  0  0  0  0  0
   56.8210   31.3620   51.8440 C   0  0  0  0  0  0  0  0  0  0  0  0
   57.0360   32.2540   50.8080 F   0  0  0  0  0  0  0  0  0  0  0  0
   56.7640   32.0600   53.0350 F   0  0  0  0  0  0  0  0  0  0  0  0
   55.6060   30.7340   51.6300 F   0  0  0  0  0  0  0  0  0  0  0  0
   58.8370   30.2100   50.8500 C   0  0  0  0  0  0  0  0  0  0  0  0
   60.5220   29.6010   46.5090 C   0  0  0  0  0  0  0  0  0  0  0  0
   59.4620   29.3080   45.6490 C   0  0  0  0  0  0  0  0  0  0  0  0
   55.1400   28.6130   45.6150 H   0  0  0  0  0  0  0  0  0  0  0  0
   57.1494   31.5229   46.8524 H   0  0  0  0  0  0  0  0  0  0  0  0
   59.0446   32.0528   48.3845 H   0  0  0  0  0  0  0  0  0  0  0  0
   63.1040   33.4968   46.7384 H   0  0  0  0  0  0  0  0  0  0  0  0
   62.2650   32.1032   45.9404 H   0  0  0  0  0  0  0  0  0  0  0  0
   60.5086   33.0369   44.7356 H   0  0  0  0  0  0  0  0  0  0  0  0
   58.3330   34.2517   44.7074 H   0  0  0  0  0  0  0  0  0  0  0  0
   57.5611   35.4845   46.7332 H   0  0  0  0  0  0  0  0  0  0  0  0
   58.9719   35.5204   48.7873 H   0  0  0  0  0  0  0  0  0  0  0  0
   62.2980   34.0650   49.0730 H   0  0  0  0  0  0  0  0  0  0  0  0
   60.9270   28.1960   49.3450 H   0  0  0  0  0  0  0  0  0  0  0  0
   60.7586   27.6463   52.0559 H   0  0  0  0  0  0  0  0  0  0  0  0
   59.1194   27.8312   53.9220 H   0  0  0  0  0  0  0  0  0  0  0  0
   57.3028   29.5354   53.8333 H   0  0  0  0  0  0  0  0  0  0  0  0
   58.7468   30.8691   49.9739 H   0  0  0  0  0  0  0  0  0  0  0  0
   61.4687   29.0478   46.4211 H   0  0  0  0  0  0  0  0  0  0  0  0
   59.5767   28.5263   44.8836 H   0  0  0  0  0  0  0  0  0  0  0  0
  1  2  1  0
  2  3  2  0
  2  4  2  0
  2  5  1  0
  5  6  2  0
  6  7  1  0
  7  8  2  0
  8  9  1  0
  9 10  2  0
 10 11  1  0
 11 12  1  0
 12 13  2  0
 13 14  1  0
 14 15  2  0
 15 16  1  0
 16 17  2  0
 17 18  1  0
 10 19  1  0
 19 20  2  0
 19 21  1  0
 21 22  1  0
 22 23  2  0
 22 24  1  0
 24 25  1  0
 25 26  1  0
 26 27  2  0
 27 28  1  0
 28 29  2  0
 29 30  1  0
 30 31  1  0
 31 32  1  0
 31 33  1  0
 31 34  1  0
 30 35  2  0
  8 36  1  0
 36 37  2  0
 37  5  1  0
 24  9  1  0
 35 26  1  0
 17 12  1  0
  1 38  1  0
  6 39  1  0
  7 40  1  0
 11 41  1  0
 11 42  1  0
 13 43  1  0
 14 44  1  0
 15 45  1  0
 16 46  1  0
 18 47  1  0
 25 48  1  0
 27 49  1  0
 28 50  1  0
 29 51  1  0
 35 52  1  0
 36 53  1  0
 37 54  1  0
M  CHG  2   1  -1  21  -1
M  END
>  <UniqueID>  (15) 
15

>  <SMILES>  (15) 
[NH-]S(=O)(=O)c1ccc(-c2c(Cc3ccccc3O)c(=O)[n-]c(=O)n2Nc2cccc(C(F)(F)F)c2)cc1

>  <Energy>  (15) 
73.46272296048

>  <Genealogy>  (15) 
[NH-]S(=O)(=O)c1ccc(-c2c(Cc3ccccc3O)c(=O)[n-]c(=O)n2Nc2cccc(C(F)(F)F)c2)cc1 (protonated)
[NH-]S(=O)(=O)c1ccc(-c2c(Cc3ccccc3O)c(=O)[n-]c(=O)n2Nc2cccc(C(F)(F)F)c2)cc1 (3D coordinates assigned)
[NH-]S(=O)(=O)c1ccc(-c2c(Cc3ccccc3O)c(=O)[n-]c(=O)n2Nc2cccc(C(F)(F)F)c2)cc1 (optimized conformer: 73.46272296048 kcal/mol)

>  <smiles>  (15) 
NS(=O)(=O)c1ccc(-c2c(Cc3ccccc3O)c(=O)[nH]c(=O)n2Nc2cccc(C(F)(F)F)c2)cc1

>  <score_type>  (15) 
oracle

>  <origin>  (15) 
adg

>  <m_score__min__energy>  (15) 
-12.18

>  <m_primary>  (15) 
energy

$$$$
15:0
     RDKit          3D

 52 55  0  0  0  0  0  0  0  0999 V2000
   54.9360   26.3200   46.0360 O   0  0  0  0  0  0  0  0  0  0  0  0
   56.0490   25.7500   45.8790 C   0  0  0  0  0  0  0  0  0  0  0  0
   57.2140   26.3540   46.4590 N   0  0  0  0  0  0  0  0  0  0  0  0
   57.8820   27.5460   46.0180 C   0  0  0  0  0  0  0  0  0  0  0  0
   59.2800   27.5480   45.9530 C   0  0  0  0  0  0  0  0  0  0  0  0
   59.9640   28.6740   45.4960 C   0  0  0  0  0  0  0  0  0  0  0  0
   59.2580   29.8030   45.0810 C   0  0  0  0  0  0  0  0  0  0  0  0
   57.8520   29.8150   45.1080 C   0  0  0  0  0  0  0  0  0  0  0  0
   57.1130   31.0250   44.6650 C   0  0  0  0  0  0  0  0  0  0  0  0
   55.8660   30.9520   44.4920 O   0  0  0  0  0  0  0  0  0  0  0  0
   57.7730   32.2650   44.3620 N   0  0  0  0  0  0  0  0  0  0  0  0
   58.4690   33.1150   45.2860 C   0  0  0  0  0  0  0  0  0  0  0  0
   58.9430   34.3540   44.8390 C   0  0  0  0  0  0  0  0  0  0  0  0
   59.6410   35.1960   45.7070 C   0  0  0  0  0  0  0  0  0  0  0  0
   59.8570   34.8130   47.0340 C   0  0  0  0  0  0  0  0  0  0  0  0
   59.3610   33.5880   47.5030 C   0  0  0  0  0  0  0  0  0  0  0  0
   59.6140   33.1080   49.1820 S   0  0  0  0  0  0  0  0  0  0  0  0
   59.6470   34.3400   50.0450 O   0  0  0  0  0  0  0  0  0  0  0  0
   58.4590   32.2570   49.6350 O   0  0  0  0  0  0  0  0  0  0  0  0
   61.1000   32.2110   49.3890 N   0  0  0  0  0  0  0  0  0  0  0  0
   60.8450   30.7670   49.4200 C   0  0  0  0  0  0  0  0  0  0  0  0
   61.1250   30.2040   48.0360 C   0  0  0  0  0  0  0  0  0  0  0  0
   61.9220   31.2690   47.3100 C   0  0  0  0  0  0  0  0  0  0  0  0
   62.0230   32.4420   48.2720 C   0  0  0  0  0  0  0  0  0  0  0  0
   58.6590   32.7470   46.6290 C   0  0  0  0  0  0  0  0  0  0  0  0
   57.1700   28.6810   45.5870 C   0  0  0  0  0  0  0  0  0  0  0  0
   56.1210   24.5190   45.0570 C   0  0  0  0  0  0  0  0  0  0  0  0
   57.3480   24.0920   44.5280 C   0  0  0  0  0  0  0  0  0  0  0  0
   57.4140   22.9330   43.7540 C   0  0  0  0  0  0  0  0  0  0  0  0
   56.2470   22.1980   43.5210 C   0  0  0  0  0  0  0  0  0  0  0  0
   56.2880   21.1520   42.8230 O   0  0  0  0  0  0  0  0  0  0  0  0
   55.0670   22.6120   44.0530 N   0  0  0  0  0  0  0  0  0  0  0  0
   54.9770   23.7370   44.8100 C   0  0  0  0  0  0  0  0  0  0  0  0
   59.8428   26.6557   46.2644 H   0  0  0  0  0  0  0  0  0  0  0  0
   61.0635   28.6718   45.4627 H   0  0  0  0  0  0  0  0  0  0  0  0
   59.8049   30.6905   44.7300 H   0  0  0  0  0  0  0  0  0  0  0  0
   58.7648   34.6657   43.7992 H   0  0  0  0  0  0  0  0  0  0  0  0
   60.0217   36.1628   45.3459 H   0  0  0  0  0  0  0  0  0  0  0  0
   60.4172   35.4739   47.7117 H   0  0  0  0  0  0  0  0  0  0  0  0
   61.5061   30.2881   50.1573 H   0  0  0  0  0  0  0  0  0  0  0  0
   59.8005   30.5722   49.7046 H   0  0  0  0  0  0  0  0  0  0  0  0
   61.7080   29.2743   48.1115 H   0  0  0  0  0  0  0  0  0  0  0  0
   60.1945   29.9607   47.5022 H   0  0  0  0  0  0  0  0  0  0  0  0
   62.9246   30.8923   47.0594 H   0  0  0  0  0  0  0  0  0  0  0  0
   61.4392   31.5614   46.3658 H   0  0  0  0  0  0  0  0  0  0  0  0
   63.0522   32.5223   48.6520 H   0  0  0  0  0  0  0  0  0  0  0  0
   61.7608   33.3766   47.7545 H   0  0  0  0  0  0  0  0  0  0  0  0
   58.2540   31.7926   46.9965 H   0  0  0  0  0  0  0  0  0  0  0  0
   56.0707   28.6817   45.6249 H   0  0  0  0  0  0  0  0  0  0  0  0
   58.2613   24.6729   44.7241 H   0  0  0  0  0  0  0  0  0  0  0  0
   58.3737   22.6008   43.3315 H   0  0  0  0  0  0  0  0  0  0  0  0
   54.0064   24.0377   45.2313 H   0  0  0  0  0  0  0  0  0  0  0  0
  1  2  2  0
  2  3  1  0
  3  4  1  0
  4  5  2  0
  5  6  1  0
  6  7  2  0
  7  8  1  0
  8  9  1  0
  9 10  2  0
  9 11  1  0
 11 12  1  0
 12 13  2  0
 13 14  1  0
 14 15  2  0
 15 16  1  0
 16 17  1  0
 17 18  2  0
 17 19  2  0
 17 20  1  0
 20 21  1  0
 21 22  1  0
 22 23  1  0
 23 24  1  0
 16 25  2  0
  8 26  2  0
  2 27  1  0
 27 28  1  0
 28 29  2  0
 29 30  1  0
 30 31  2  0
 30 32  1  0
 32 33  1  0
 26  4  1  0
 33 27  2  0
 25 12  1  0
 24 20  1  0
  5 34  1  0
  6 35  1  0
  7 36  1  0
 13 37  1  0
 14 38  1  0
 15 39  1  0
 21 40  1  0
 21 41  1  0
 22 42  1  0
 22 43  1  0
 23 44  1  0
 23 45  1  0
 24 46  1  0
 24 47  1  0
 25 48  1  0
 26 49  1  0
 28 50  1  0
 29 51  1  0
 33 52  1  0
M  CHG  3   3  -1  11  -1  32  -1
M  END
>  <UniqueID>  (16) 
16

>  <SMILES>  (16) 
O=C([N-]c1cccc(C(=O)[N-]c2cccc(S(=O)(=O)N3CCCC3)c2)c1)c1ccc(=O)[n-]c1

>  <Energy>  (16) 
68.59172759174463

>  <Genealogy>  (16) 
O=C([N-]c1cccc(C(=O)[N-]c2cccc(S(=O)(=O)N3CCCC3)c2)c1)c1ccc(=O)[n-]c1 (protonated)
O=C([N-]c1cccc(C(=O)[N-]c2cccc(S(=O)(=O)N3CCCC3)c2)c1)c1ccc(=O)[n-]c1 (3D coordinates assigned)
O=C([N-]c1cccc(C(=O)[N-]c2cccc(S(=O)(=O)N3CCCC3)c2)c1)c1ccc(=O)[n-]c1 (nonaromatic ring conformer: 68.59172759174463 kcal/mol)

>  <smiles>  (16) 
O=C(Nc1cccc(C(=O)Nc2cccc(S(=O)(=O)N3CCCC3)c2)c1)c1ccc(=O)[nH]c1

>  <score_type>  (16) 
oracle

>  <origin>  (16) 
adg

>  <m_score__min__energy>  (16) 
-15.699999999999999

>  <m_primary>  (16) 
energy

$$$$
16:0
     RDKit          3D

 45 47  0  0  0  0  0  0  0  0999 V2000
   66.6180   32.8120   49.9160 C   0  0  0  0  0  0  0  0  0  0  0  0
   65.1320   32.6450   49.8400 C   0  0  0  0  0  0  0  0  0  0  0  0
   64.5060   32.2390   50.8540 O   0  0  0  0  0  0  0  0  0  0  0  0
   64.4370   32.9520   48.6200 N   0  0  0  0  0  0  0  0  0  0  0  0
   63.0070   32.9300   48.4760 C   0  0  0  0  0  0  0  0  0  0  0  0
   62.2280   33.8190   49.2260 C   0  0  0  0  0  0  0  0  0  0  0  0
   60.8350   33.8140   49.1150 C   0  0  0  0  0  0  0  0  0  0  0  0
   60.1930   32.8990   48.2640 C   0  0  0  0  0  0  0  0  0  0  0  0
   58.7150   32.9080   48.1430 C   0  0  0  0  0  0  0  0  0  0  0  0
   58.0150   32.4340   49.0780 O   0  0  0  0  0  0  0  0  0  0  0  0
   58.0490   33.4850   47.0120 N   0  0  0  0  0  0  0  0  0  0  0  0
   58.0160   32.9340   45.6870 C   0  0  0  0  0  0  0  0  0  0  0  0
   58.4690   33.6650   44.5760 C   0  0  0  0  0  0  0  0  0  0  0  0
   58.4380   33.0930   43.3010 C   0  0  0  0  0  0  0  0  0  0  0  0
   57.9850   31.7850   43.1310 C   0  0  0  0  0  0  0  0  0  0  0  0
   57.5730   31.0280   44.2340 C   0  0  0  0  0  0  0  0  0  0  0  0
   57.1290   29.6780   44.0200 N   0  0  0  0  0  0  0  0  0  0  0  0
   56.3810   28.8630   44.9320 C   0  0  0  0  0  0  0  0  0  0  0  0
   55.1650   29.1310   45.1210 O   0  0  0  0  0  0  0  0  0  0  0  0
   56.9800   27.6900   45.6110 C   0  0  0  0  0  0  0  0  0  0  0  0
   58.3740   27.6030   45.7670 C   0  0  0  0  0  0  0  0  0  0  0  0
   58.9470   26.5120   46.4280 C   0  0  0  0  0  0  0  0  0  0  0  0
   60.8410   26.4180   46.6540 Br  0  0  0  0  0  0  0  0  0  0  0  0
   58.1350   25.4920   46.9280 C   0  0  0  0  0  0  0  0  0  0  0  0
   56.7490   25.5600   46.7660 C   0  0  0  0  0  0  0  0  0  0  0  0
   56.1670   26.6530   46.1110 C   0  0  0  0  0  0  0  0  0  0  0  0
   54.7840   26.7100   45.9880 O   0  0  0  0  0  0  0  0  0  0  0  0
   57.5680   31.6200   45.5110 C   0  0  0  0  0  0  0  0  0  0  0  0
   60.9740   32.0000   47.5180 C   0  0  0  0  0  0  0  0  0  0  0  0
   62.3660   32.0040   47.6340 C   0  0  0  0  0  0  0  0  0  0  0  0
   66.9296   32.8470   50.9704 H   0  0  0  0  0  0  0  0  0  0  0  0
   67.1084   31.9633   49.4167 H   0  0  0  0  0  0  0  0  0  0  0  0
   66.9078   33.7484   49.4167 H   0  0  0  0  0  0  0  0  0  0  0  0
   65.0130   33.0540   47.7540 H   0  0  0  0  0  0  0  0  0  0  0  0
   62.7173   34.5285   49.9095 H   0  0  0  0  0  0  0  0  0  0  0  0
   60.2376   34.5308   49.6975 H   0  0  0  0  0  0  0  0  0  0  0  0
   58.8485   34.6888   44.7097 H   0  0  0  0  0  0  0  0  0  0  0  0
   58.7716   33.6758   42.4298 H   0  0  0  0  0  0  0  0  0  0  0  0
   57.9512   31.3452   42.1233 H   0  0  0  0  0  0  0  0  0  0  0  0
   59.0190   28.3988   45.3663 H   0  0  0  0  0  0  0  0  0  0  0  0
   58.5865   24.6351   47.4494 H   0  0  0  0  0  0  0  0  0  0  0  0
   56.1120   24.7517   47.1545 H   0  0  0  0  0  0  0  0  0  0  0  0
   57.2091   31.0452   46.3775 H   0  0  0  0  0  0  0  0  0  0  0  0
   60.4853   31.2874   46.8373 H   0  0  0  0  0  0  0  0  0  0  0  0
   62.9643   31.2785   47.0633 H   0  0  0  0  0  0  0  0  0  0  0  0
  1  2  1  0
  2  3  2  0
  2  4  1  0
  4  5  1  0
  5  6  2  0
  6  7  1  0
  7  8  2  0
  8  9  1  0
  9 10  2  0
  9 11  1  0
 11 12  1  0
 12 13  2  0
 13 14  1  0
 14 15  2  0
 15 16  1  0
 16 17  1  0
 17 18  1  0
 18 19  2  0
 18 20  1  0
 20 21  2  0
 21 22  1  0
 22 23  1  0
 22 24  2  0
 24 25  1  0
 25 26  2  0
 26 27  1  0
 16 28  2  0
  8 29  1  0
 29 30  2  0
 30  5  1  0
 28 12  1  0
 26 20  1  0
  1 31  1  0
  1 32  1  0
  1 33  1  0
  4 34  1  0
  6 35  1  0
  7 36  1  0
 13 37  1  0
 14 38  1  0
 15 39  1  0
 21 40  1  0
 24 41  1  0
 25 42  1  0
 28 43  1  0
 29 44  1  0
 30 45  1  0
M  CHG  3  11  -1  17  -1  27  -1
M  END
>  <UniqueID>  (17) 
17

>  <SMILES>  (17) 
CC(=O)Nc1ccc(C(=O)[N-]c2cccc([N-]C(=O)c3cc(Br)ccc3[O-])c2)cc1

>  <Energy>  (17) 
64.29893256105856

>  <Genealogy>  (17) 
CC(=O)Nc1ccc(C(=O)[N-]c2cccc([N-]C(=O)c3cc(Br)ccc3[O-])c2)cc1 (protonated)
CC(=O)Nc1ccc(C(=O)[N-]c2cccc([N-]C(=O)c3cc(Br)ccc3[O-])c2)cc1 (3D coordinates assigned)
CC(=O)Nc1ccc(C(=O)[N-]c2cccc([N-]C(=O)c3cc(Br)ccc3[O-])c2)cc1 (optimized conformer: 64.29893256105856 kcal/mol)

>  <smiles>  (17) 
CC(=O)Nc1ccc(C(=O)Nc2cccc(NC(=O)c3cc(Br)ccc3O)c2)cc1

>  <score_type>  (17) 
oracle

>  <origin>  (17) 
adg

>  <m_score__min__energy>  (17) 
-16.449999999999999

>  <m_primary>  (17) 
energy

$$$$
17:0
     RDKit          3D

 49 51  0  0  0  0  0  0  0  0999 V2000
   60.3010   34.3120   46.7640 C   0  0  0  0  0  0  0  0  0  0  0  0
   59.1820   33.5430   46.1260 C   0  0  0  0  0  0  0  0  0  0  0  0
   58.4720   34.0770   45.0450 C   0  0  0  0  0  0  0  0  0  0  0  0
   57.4190   33.3590   44.4740 C   0  0  0  0  0  0  0  0  0  0  0  0
   57.0660   32.1030   45.0100 C   0  0  0  0  0  0  0  0  0  0  0  0
   56.1020   31.3770   44.5160 N   0  0  0  0  0  0  0  0  0  0  0  0
   56.1720   29.9840   44.1870 C   0  0  0  0  0  0  0  0  0  0  0  0
   55.4740   29.1610   44.8360 O   0  0  0  0  0  0  0  0  0  0  0  0
   56.9520   29.5150   42.9850 C   0  0  0  0  0  0  0  0  0  0  0  0
   57.4850   28.1580   43.1790 N   0  0  0  0  0  0  0  0  0  0  0  0
   58.2360   28.0550   44.4070 C   0  0  0  0  0  0  0  0  0  0  0  0
   57.7900   27.2240   45.4500 C   0  0  0  0  0  0  0  0  0  0  0  0
   58.5060   27.1450   46.6480 C   0  0  0  0  0  0  0  0  0  0  0  0
   59.6700   27.9050   46.8290 C   0  0  0  0  0  0  0  0  0  0  0  0
   60.4230   27.8020   48.0950 C   0  0  0  0  0  0  0  0  0  0  0  0
   61.0050   26.7220   48.3730 O   0  0  0  0  0  0  0  0  0  0  0  0
   60.4780   28.8770   49.0410 N   0  0  0  0  0  0  0  0  0  0  0  0
   60.1080   30.2590   48.7590 C   0  0  0  0  0  0  0  0  0  0  0  0
   61.3520   31.0760   48.5710 C   0  0  0  0  0  0  0  0  0  0  0  0
   61.9250   31.2080   47.2950 C   0  0  0  0  0  0  0  0  0  0  0  0
   63.1040   31.9400   47.1250 C   0  0  0  0  0  0  0  0  0  0  0  0
   63.7240   32.5360   48.2260 C   0  0  0  0  0  0  0  0  0  0  0  0
   63.1680   32.3980   49.5010 C   0  0  0  0  0  0  0  0  0  0  0  0
   61.9900   31.6650   49.6760 C   0  0  0  0  0  0  0  0  0  0  0  0
   60.1280   28.7210   45.7830 C   0  0  0  0  0  0  0  0  0  0  0  0
   59.4130   28.8030   44.5860 C   0  0  0  0  0  0  0  0  0  0  0  0
   57.7710   31.6130   46.0650 N   0  0  0  0  0  0  0  0  0  0  0  0
   58.8000   32.2960   46.6350 C   0  0  0  0  0  0  0  0  0  0  0  0
   60.2110   34.2502   47.8586 H   0  0  0  0  0  0  0  0  0  0  0  0
   61.2649   33.8847   46.4506 H   0  0  0  0  0  0  0  0  0  0  0  0
   60.2476   35.3651   46.4506 H   0  0  0  0  0  0  0  0  0  0  0  0
   58.7438   35.0646   44.6440 H   0  0  0  0  0  0  0  0  0  0  0  0
   56.8697   33.7694   43.6138 H   0  0  0  0  0  0  0  0  0  0  0  0
   56.2891   29.5156   42.1072 H   0  0  0  0  0  0  0  0  0  0  0  0
   57.8006   30.1993   42.8381 H   0  0  0  0  0  0  0  0  0  0  0  0
   58.1140   27.9270   42.3750 H   0  0  0  0  0  0  0  0  0  0  0  0
   56.7020   27.4630   43.1650 H   0  0  0  0  0  0  0  0  0  0  0  0
   56.8716   26.6322   45.3224 H   0  0  0  0  0  0  0  0  0  0  0  0
   58.1542   26.4830   47.4530 H   0  0  0  0  0  0  0  0  0  0  0  0
   59.5010   30.2973   47.8424 H   0  0  0  0  0  0  0  0  0  0  0  0
   59.5246   30.6634   49.5993 H   0  0  0  0  0  0  0  0  0  0  0  0
   61.4443   30.7338   46.4266 H   0  0  0  0  0  0  0  0  0  0  0  0
   63.5442   32.0468   46.1226 H   0  0  0  0  0  0  0  0  0  0  0  0
   64.6499   33.1140   48.0895 H   0  0  0  0  0  0  0  0  0  0  0  0
   63.6575   32.8664   50.3676 H   0  0  0  0  0  0  0  0  0  0  0  0
   61.5612   31.5490   50.6823 H   0  0  0  0  0  0  0  0  0  0  0  0
   61.0555   29.2993   45.9066 H   0  0  0  0  0  0  0  0  0  0  0  0
   59.7730   29.4570   43.7781 H   0  0  0  0  0  0  0  0  0  0  0  0
   59.3327   31.8680   47.4970 H   0  0  0  0  0  0  0  0  0  0  0  0
  1  2  1  0
  2  3  1  0
  3  4  2  0
  4  5  1  0
  5  6  2  3
  6  7  1  0
  7  8  2  0
  7  9  1  0
  9 10  1  0
 10 11  1  0
 11 12  2  0
 12 13  1  0
 13 14  2  0
 14 15  1  0
 15 16  2  0
 15 17  1  0
 17 18  1  0
 18 19  1  0
 19 20  2  0
 20 21  1  0
 21 22  2  0
 22 23  1  0
 23 24  2  0
 14 25  1  0
 25 26  2  0
  5 27  1  0
 27 28  1  0
 28  2  2  0
 26 11  1  0
 24 19  1  0
  1 29  1  0
  1 30  1  0
  1 31  1  0
  3 32  1  0
  4 33  1  0
  9 34  1  0
  9 35  1  0
 10 36  1  0
 10 37  1  0
 12 38  1  0
 13 39  1  0
 18 40  1  0
 18 41  1  0
 20 42  1  0
 21 43  1  0
 22 44  1  0
 23 45  1  0
 24 46  1  0
 25 47  1  0
 26 48  1  0
 28 49  1  0
M  CHG  3  10   1  17  -1  27  -1
M  END
>  <UniqueID>  (18) 
18

>  <SMILES>  (18) 
Cc1ccc(=NC(=O)C[NH2+]c2ccc(C(=O)[N-]Cc3ccccc3)cc2)[n-]c1

>  <Energy>  (18) 
65.33268388216086

>  <Genealogy>  (18) 
Cc1ccc(=NC(=O)C[NH2+]c2ccc(C(=O)[N-]Cc3ccccc3)cc2)[n-]c1 (protonated)
Cc1ccc(=NC(=O)C[NH2+]c2ccc(C(=O)[N-]Cc3ccccc3)cc2)[n-]c1 (3D coordinates assigned)
Cc1ccc(=NC(=O)C[NH2+]c2ccc(C(=O)[N-]Cc3ccccc3)cc2)[n-]c1 (optimized conformer: 65.33268388216086 kcal/mol)

>  <smiles>  (18) 
Cc1ccc(=NC(=O)CNc2ccc(C(=O)NCc3ccccc3)cc2)[nH]c1

>  <score_type>  (18) 
oracle

>  <origin>  (18) 
adg

>  <m_score__min__energy>  (18) 
-9.9299999999999997

>  <m_primary>  (18) 
energy

$$$$
18:0
     RDKit          3D

 42 43  0  0  0  0  0  0  0  0999 V2000
   59.1700   30.6340   48.7930 C   0  0  0  0  0  0  0  0  0  0  0  0
   60.4930   31.3390   48.6590 C   0  0  0  0  0  0  0  0  0  0  0  0
   61.5310   31.0390   49.5520 C   0  0  0  0  0  0  0  0  0  0  0  0
   62.7700   31.6660   49.4310 C   0  0  0  0  0  0  0  0  0  0  0  0
   62.9920   32.5910   48.4110 C   0  0  0  0  0  0  0  0  0  0  0  0
   61.9720   32.9040   47.4990 C   0  0  0  0  0  0  0  0  0  0  0  0
   62.2570   33.8540   46.3670 C   0  0  0  0  0  0  0  0  0  0  0  0
   60.7110   32.2750   47.6220 C   0  0  0  0  0  0  0  0  0  0  0  0
   59.6580   32.5630   46.6900 N   0  0  0  0  0  0  0  0  0  0  0  0
   58.8510   33.7440   46.8130 C   0  0  0  0  0  0  0  0  0  0  0  0
   59.1170   34.6020   47.6990 O   0  0  0  0  0  0  0  0  0  0  0  0
   57.6280   33.9130   46.0100 C   0  0  0  0  0  0  0  0  0  0  0  0
   57.4120   33.4010   44.7880 C   0  0  0  0  0  0  0  0  0  0  0  0
   57.7280   32.0170   44.3560 C   0  0  0  0  0  0  0  0  0  0  0  0
   58.1890   31.7910   43.2080 O   0  0  0  0  0  0  0  0  0  0  0  0
   57.5300   30.9040   45.2380 N   0  0  0  0  0  0  0  0  0  0  0  0
   58.3120   29.7000   45.2850 C   0  0  0  0  0  0  0  0  0  0  0  0
   59.7130   29.7780   45.3960 C   0  0  0  0  0  0  0  0  0  0  0  0
   60.4830   28.6210   45.5160 C   0  0  0  0  0  0  0  0  0  0  0  0
   59.8650   27.3740   45.5490 C   0  0  0  0  0  0  0  0  0  0  0  0
   58.4750   27.2770   45.4680 C   0  0  0  0  0  0  0  0  0  0  0  0
   57.6770   28.4320   45.3380 C   0  0  0  0  0  0  0  0  0  0  0  0
   56.1990   28.2750   45.2530 C   0  0  0  0  0  0  0  0  0  0  0  0
   55.5570   27.0710   45.6690 N   0  0  0  0  0  0  0  0  0  0  0  0
   55.4890   29.2250   44.8240 O   0  0  0  0  0  0  0  0  0  0  0  0
   58.9292   30.5057   49.8586 H   0  0  0  0  0  0  0  0  0  0  0  0
   58.3846   31.2332   48.3092 H   0  0  0  0  0  0  0  0  0  0  0  0
   59.2293   29.6479   48.3092 H   0  0  0  0  0  0  0  0  0  0  0  0
   61.3667   30.3039   50.3536 H   0  0  0  0  0  0  0  0  0  0  0  0
   63.5753   31.4305   50.1423 H   0  0  0  0  0  0  0  0  0  0  0  0
   63.9737   33.0789   48.3206 H   0  0  0  0  0  0  0  0  0  0  0  0
   62.5506   34.8326   46.7747 H   0  0  0  0  0  0  0  0  0  0  0  0
   63.0746   33.4538   45.7495 H   0  0  0  0  0  0  0  0  0  0  0  0
   61.3541   33.9700   45.7495 H   0  0  0  0  0  0  0  0  0  0  0  0
   59.3070   31.7780   46.0980 H   0  0  0  0  0  0  0  0  0  0  0  0
   56.8185   34.5129   46.4514 H   0  0  0  0  0  0  0  0  0  0  0  0
   56.9598   34.0678   44.0391 H   0  0  0  0  0  0  0  0  0  0  0  0
   60.2058   30.7614   45.3880 H   0  0  0  0  0  0  0  0  0  0  0  0
   61.5784   28.6940   45.5845 H   0  0  0  0  0  0  0  0  0  0  0  0
   60.4740   26.4624   45.6392 H   0  0  0  0  0  0  0  0  0  0  0  0
   57.9963   26.2874   45.5060 H   0  0  0  0  0  0  0  0  0  0  0  0
   54.7730   27.0900   46.3570 H   0  0  0  0  0  0  0  0  0  0  0  0
  1  2  1  0
  2  3  2  0
  3  4  1  0
  4  5  2  0
  5  6  1  0
  6  7  1  0
  6  8  2  0
  8  9  1  0
  9 10  1  0
 10 11  2  0
 10 12  1  0
 12 13  2  3
 13 14  1  0
 14 15  2  0
 14 16  1  0
 16 17  1  0
 17 18  2  0
 18 19  1  0
 19 20  2  0
 20 21  1  0
 21 22  2  0
 22 23  1  0
 23 24  1  0
 23 25  2  0
  8  2  1  0
 22 17  1  0
  1 26  1  0
  1 27  1  0
  1 28  1  0
  3 29  1  0
  4 30  1  0
  5 31  1  0
  7 32  1  0
  7 33  1  0
  7 34  1  0
  9 35  1  0
 12 36  1  0
 13 37  1  0
 18 38  1  0
 19 39  1  0
 20 40  1  0
 21 41  1  0
 24 42  1  0
M  CHG  2  16  -1  24  -1
M  END
>  <UniqueID>  (19) 
19

>  <SMILES>  (19) 
Cc1cccc(C)c1NC(=O)C=CC(=O)[N-]c1ccccc1C([NH-])=O

>  <Energy>  (19) 
63.589054193822285

>  <Genealogy>  (19) 
Cc1cccc(C)c1NC(=O)C=CC(=O)[N-]c1ccccc1C([NH-])=O (protonated)
Cc1cccc(C)c1NC(=O)C=CC(=O)[N-]c1ccccc1C([NH-])=O (3D coordinates assigned)
Cc1cccc(C)c1NC(=O)C=CC(=O)[N-]c1ccccc1C([NH-])=O (optimized conformer: 63.589054193822285 kcal/mol)

>  <smiles>  (19) 
Cc1cccc(C)c1NC(=O)C=CC(=O)Nc1ccccc1C(N)=O

>  <score_type>  (19) 
oracle

>  <origin>  (19) 
adg

>  <m_score__min__energy>  (19) 
-13.960000000000001

>  <m_primary>  (19) 
energy

$$$$
19:0
     RDKit          3D

 37 39  0  0  0  0  0  0  0  0999 V2000
   56.8218   29.6519   42.8513 H   0  0  0  0  0  0  0  0  0  0  0  0
   56.7740   30.6170   43.3770 C   0  0  0  0  0  0  0  0  0  0  0  0
   56.2436   31.4660   42.9210 H   0  0  0  0  0  0  0  0  0  0  0  0
   57.3600   30.7580   44.5690 C   0  0  0  0  0  0  0  0  0  0  0  0
   57.3220   31.8970   45.2240 O   0  0  0  0  0  0  0  0  0  0  0  0
   58.0360   31.7860   46.3190 C   0  0  0  0  0  0  0  0  0  0  0  0
   58.1940   32.8720   47.2980 C   0  0  0  0  0  0  0  0  0  0  0  0
   57.7660   32.6930   48.4690 O   0  0  0  0  0  0  0  0  0  0  0  0
   58.7720   34.1400   46.9620 N   0  0  0  0  0  0  0  0  0  0  0  0
   59.9920   34.3430   46.1820 C   0  0  0  0  0  0  0  0  0  0  0  0
   59.9714   33.6772   45.3066 H   0  0  0  0  0  0  0  0  0  0  0  0
   60.0314   35.3975   45.8713 H   0  0  0  0  0  0  0  0  0  0  0  0
   61.2230   34.0440   46.9950 C   0  0  0  0  0  0  0  0  0  0  0  0
   61.1420   33.9730   48.3970 C   0  0  0  0  0  0  0  0  0  0  0  0
   60.1812   34.1565   48.9002 H   0  0  0  0  0  0  0  0  0  0  0  0
   62.2780   33.6700   49.1540 C   0  0  0  0  0  0  0  0  0  0  0  0
   62.2117   33.6317   50.2513 H   0  0  0  0  0  0  0  0  0  0  0  0
   63.4960   33.4160   48.5210 C   0  0  0  0  0  0  0  0  0  0  0  0
   64.3890   33.1836   49.1198 H   0  0  0  0  0  0  0  0  0  0  0  0
   63.5810   33.4570   47.1260 C   0  0  0  0  0  0  0  0  0  0  0  0
   64.5394   33.2493   46.6276 H   0  0  0  0  0  0  0  0  0  0  0  0
   62.4480   33.7620   46.3630 C   0  0  0  0  0  0  0  0  0  0  0  0
   62.5155   33.7813   45.2652 H   0  0  0  0  0  0  0  0  0  0  0  0
   58.5580   30.5120   46.4160 C   0  0  0  0  0  0  0  0  0  0  0  0
   59.1975   30.1195   47.2203 H   0  0  0  0  0  0  0  0  0  0  0  0
   58.1150   29.8280   45.2980 C   0  0  0  0  0  0  0  0  0  0  0  0
   58.3950   28.5320   45.0700 C   0  0  0  0  0  0  0  0  0  0  0  0
   59.2893   28.3073   44.4703 H   0  0  0  0  0  0  0  0  0  0  0  0
   57.6030   27.3880   45.5570 C   0  0  0  0  0  0  0  0  0  0  0  0
   56.2020   27.4500   45.6190 C   0  0  0  0  0  0  0  0  0  0  0  0
   55.5220   28.5810   45.1810 O   0  0  0  0  0  0  0  0  0  0  0  0
   55.4980   26.3980   46.1130 N   0  0  0  0  0  0  0  0  0  0  0  0
   56.1310   25.2850   46.5670 C   0  0  0  0  0  0  0  0  0  0  0  0
   55.4580   24.3210   47.0170 O   0  0  0  0  0  0  0  0  0  0  0  0
   57.4860   25.2130   46.5420 N   0  0  0  0  0  0  0  0  0  0  0  0
   58.2340   26.2380   46.0560 C   0  0  0  0  0  0  0  0  0  0  0  0
   59.4900   26.1410   46.0540 O   0  0  0  0  0  0  0  0  0  0  0  0
  1  2  1  0
  2  3  1  0
  2  4  2  0
  4  5  1  0
  5  6  1  0
  6  7  1  0
  7  8  2  0
  7  9  1  0
  9 10  1  0
 10 11  1  0
 10 12  1  0
 10 13  1  0
 13 14  2  0
 14 15  1  0
 14 16  1  0
 16 17  1  0
 16 18  2  0
 18 19  1  0
 18 20  1  0
 20 21  1  0
 20 22  2  0
 22 23  1  0
  6 24  2  0
 24 25  1  0
 24 26  1  0
 26 27  2  0
 27 28  1  0
 27 29  1  0
 29 30  2  0
 30 31  1  0
 30 32  1  0
 32 33  1  0
 33 34  2  0
 33 35  1  0
 35 36  1  0
 36 37  2  0
 26  4  1  0
 36 29  1  0
 22 13  1  0
M  CHG  4   9  -1  31  -1  32  -1  35  -1
M  END
>  <UniqueID>  (20) 
20

>  <SMILES>  (20) 
C=c1oc(C(=O)[N-]Cc2ccccc2)c/c1=C/c1c([O-])[n-]c(=O)[n-]c1=O

>  <Energy>  (20) 
84.85568480972819

>  <Genealogy>  (20) 
C=c1oc(C(=O)[N-]Cc2ccccc2)cc1=Cc1c([O-])[n-]c(=O)[n-]c1=O (protonated)
C=c1oc(C(=O)[N-]Cc2ccccc2)c/c1=C/c1c([O-])[n-]c(=O)[n-]c1=O (cis-trans isomerization)
C=c1oc(C(=O)[N-]Cc2ccccc2)c/c1=C/c1c([O-])[n-]c(=O)[n-]c1=O (3D coordinates assigned)
C=c1oc(C(=O)[N-]Cc2ccccc2)c/c1=C/c1c([O-])[n-]c(=O)[n-]c1=O (optimized conformer: 84.85568480972819 kcal/mol)

>  <smiles>  (20) 
C=c1oc(C(=O)NCc2ccccc2)cc1=Cc1c(O)[nH]c(=O)[nH]c1=O

>  <score_type>  (20) 
oracle

>  <origin>  (20) 
adg

>  <m_score__min__energy>  (20) 
-16.850000000000001

>  <m_primary>  (20) 
energy

$$$$
20:0
     RDKit          3D

 45 47  0  0  0  0  0  0  0  0999 V2000
   60.2020   27.8510   46.6720 C   0  0  0  0  0  0  0  0  0  0  0  0
   59.1610   28.4990   46.1250 C   0  0  0  0  0  0  0  0  0  0  0  0
   58.1500   27.9420   45.3230 C   0  0  0  0  0  0  0  0  0  0  0  0
   57.8490   26.6600   45.0390 C   0  0  0  0  0  0  0  0  0  0  0  0
   57.2810   25.6810   45.9790 C   0  0  0  0  0  0  0  0  0  0  0  0
   57.9690   24.6350   46.4680 N   0  0  0  0  0  0  0  0  0  0  0  0
   57.0380   23.9500   47.1670 C   0  0  0  0  0  0  0  0  0  0  0  0
   57.3060   22.8930   47.7980 O   0  0  0  0  0  0  0  0  0  0  0  0
   55.7960   24.4780   47.1290 N   0  0  0  0  0  0  0  0  0  0  0  0
   55.9630   25.5650   46.3590 C   0  0  0  0  0  0  0  0  0  0  0  0
   54.9310   26.4230   45.9910 O   0  0  0  0  0  0  0  0  0  0  0  0
   57.4200   29.0060   44.8250 C   0  0  0  0  0  0  0  0  0  0  0  0
   57.9460   30.1480   45.3870 C   0  0  0  0  0  0  0  0  0  0  0  0
   57.4130   31.4990   45.1480 C   0  0  0  0  0  0  0  0  0  0  0  0
   56.3350   31.6270   44.5080 O   0  0  0  0  0  0  0  0  0  0  0  0
   58.0840   32.6610   45.6610 N   0  0  0  0  0  0  0  0  0  0  0  0
   59.1340   33.3670   44.9440 C   0  0  0  0  0  0  0  0  0  0  0  0
   59.7470   34.3310   45.9540 C   0  0  0  0  0  0  0  0  0  0  0  0
   58.7360   34.4200   47.1030 C   0  0  2  0  0  0  0  0  0  0  0  0
   59.3600   34.5520   48.3560 O   0  0  0  0  0  0  0  0  0  0  0  0
   57.8820   33.1550   47.0110 C   0  0  0  0  0  0  0  0  0  0  0  0
   59.0080   29.8510   46.1740 N   0  0  0  0  0  0  0  0  0  0  0  0
   59.9210   30.8300   46.7930 C   0  0  0  0  0  0  0  0  0  0  0  0
   60.1670   30.5150   48.2770 C   0  0  0  0  0  0  0  0  0  0  0  0
   58.8940   30.6200   49.1140 C   0  0  0  0  0  0  0  0  0  0  0  0
   60.9317   28.4008   47.2846 H   0  0  0  0  0  0  0  0  0  0  0  0
   60.3251   26.7704   46.5075 H   0  0  0  0  0  0  0  0  0  0  0  0
   58.0453   26.3145   44.0133 H   0  0  0  0  0  0  0  0  0  0  0  0
   54.0090   26.3250   46.3990 H   0  0  0  0  0  0  0  0  0  0  0  0
   56.5806   28.9507   44.1162 H   0  0  0  0  0  0  0  0  0  0  0  0
   59.8930   32.6588   44.5802 H   0  0  0  0  0  0  0  0  0  0  0  0
   58.7394   33.8971   44.0646 H   0  0  0  0  0  0  0  0  0  0  0  0
   60.7100   33.9443   46.3187 H   0  0  0  0  0  0  0  0  0  0  0  0
   59.9451   35.3169   45.5081 H   0  0  0  0  0  0  0  0  0  0  0  0
   58.1146   35.3229   47.0100 H   0  0  0  0  0  0  0  0  0  0  0  0
   59.1250   35.4450   48.7220 H   0  0  0  0  0  0  0  0  0  0  0  0
   58.2144   32.4099   47.7488 H   0  0  0  0  0  0  0  0  0  0  0  0
   56.8215   33.3569   47.2221 H   0  0  0  0  0  0  0  0  0  0  0  0
   60.8826   30.8083   46.2593 H   0  0  0  0  0  0  0  0  0  0  0  0
   59.4562   31.8246   46.7250 H   0  0  0  0  0  0  0  0  0  0  0  0
   60.5608   29.4913   48.3601 H   0  0  0  0  0  0  0  0  0  0  0  0
   60.8834   31.2554   48.6624 H   0  0  0  0  0  0  0  0  0  0  0  0
   59.1548   30.5985   50.1824 H   0  0  0  0  0  0  0  0  0  0  0  0
   58.3789   31.5637   48.8812 H   0  0  0  0  0  0  0  0  0  0  0  0
   58.2313   29.7735   48.8812 H   0  0  0  0  0  0  0  0  0  0  0  0
  1  2  2  0
  2  3  1  0
  3  4  2  3
  4  5  1  0
  5  6  1  0
  6  7  1  0
  7  8  2  0
  7  9  1  0
  9 10  1  0
 10 11  1  0
  3 12  1  0
 12 13  2  0
 13 14  1  0
 14 15  2  0
 14 16  1  0
 16 17  1  0
 17 18  1  0
 18 19  1  0
 19 20  1  0
 19 21  1  0
 13 22  1  0
 22 23  1  0
 23 24  1  0
 24 25  1  0
 22  2  1  0
 10  5  2  0
 21 16  1  0
  1 26  1  0
  1 27  1  0
  4 28  1  0
 11 29  1  0
 12 30  1  0
 17 31  1  0
 17 32  1  0
 18 33  1  0
 18 34  1  0
 19 35  1  6
 20 36  1  0
 21 37  1  0
 21 38  1  0
 23 39  1  0
 23 40  1  0
 24 41  1  0
 24 42  1  0
 25 43  1  0
 25 44  1  0
 25 45  1  0
M  CHG  2   6  -1   9  -1
M  END
>  <UniqueID>  (21) 
21

>  <SMILES>  (21) 
C=c1c(=Cc2[n-]c(=O)[n-]c2O)cc(C(=O)N2CC[C@H](O)C2)n1CCC

>  <Energy>  (21) 
116.56369582309813

>  <Genealogy>  (21) 
C=c1c(=Cc2[n-]c(=O)[n-]c2O)cc(C(=O)N2CCC(O)C2)n1CCC (protonated)
C=c1c(=Cc2[n-]c(=O)[n-]c2O)cc(C(=O)N2CC[C@H](O)C2)n1CCC (chirality)
C=c1c(=Cc2[n-]c(=O)[n-]c2O)cc(C(=O)N2CC[C@H](O)C2)n1CCC (3D coordinates assigned)
C=c1c(=Cc2[n-]c(=O)[n-]c2O)cc(C(=O)N2CC[C@H](O)C2)n1CCC (nonaromatic ring conformer: 116.56369582309813 kcal/mol)

>  <smiles>  (21) 
C=c1c(=Cc2[nH]c(=O)[nH]c2O)cc(C(=O)N2CCC(O)C2)n1CCC

>  <score_type>  (21) 
oracle

>  <origin>  (21) 
adg

>  <m_score__min__energy>  (21) 
-12.48

>  <m_primary>  (21) 
energy

$$$$
21:0
     RDKit          3D

 32 33  0  0  0  0  0  0  0  0999 V2000
   59.6200   34.5690   47.7680 C   0  0  0  0  0  0  0  0  0  0  0  0
   59.9990   34.0570   46.3840 C   0  0  0  0  0  0  0  0  0  0  0  0
   59.1500   34.6740   45.3630 N   0  0  0  0  0  0  0  0  0  0  0  0
   57.6300   33.8390   45.1900 S   0  0  0  0  0  0  0  0  0  0  0  0
   57.1940   33.2270   46.4940 O   0  0  0  0  0  0  0  0  0  0  0  0
   56.5870   34.8240   44.7450 O   0  0  0  0  0  0  0  0  0  0  0  0
   57.7720   32.5650   43.9470 C   0  0  0  0  0  0  0  0  0  0  0  0
   57.2630   31.2610   44.4690 C   0  0  0  0  0  0  0  0  0  0  0  0
   55.9720   30.7660   44.3070 C   0  0  0  0  0  0  0  0  0  0  0  0
   55.7790   29.5110   44.7920 N   0  0  0  0  0  0  0  0  0  0  0  0
   56.9040   29.0010   45.3340 C   0  0  0  0  0  0  0  0  0  0  0  0
   56.9440   27.7980   45.8270 N   0  0  0  0  0  0  0  0  0  0  0  0
   57.5900   26.6460   45.2620 C   0  0  0  0  0  0  0  0  0  0  0  0
   58.0470   26.6580   44.0870 O   0  0  0  0  0  0  0  0  0  0  0  0
   57.7720   25.4270   46.1130 C   0  0  2  0  0  0  0  0  0  0  0  0
   57.5270   24.2510   45.3770 O   0  0  0  0  0  0  0  0  0  0  0  0
   56.5860   24.5660   46.3780 C   0  0  2  0  0  0  0  0  0  0  0  0
   55.2680   24.9590   45.7840 C   0  0  0  0  0  0  0  0  0  0  0  0
   54.7650   26.2810   45.9600 N   0  0  0  0  0  0  0  0  0  0  0  0
   54.6180   24.1270   45.0990 O   0  0  0  0  0  0  0  0  0  0  0  0
   58.1970   30.0840   45.2260 S   0  0  0  0  0  0  0  0  0  0  0  0
   60.0893   33.9350   48.5347 H   0  0  0  0  0  0  0  0  0  0  0  0
   59.9704   35.6052   47.8843 H   0  0  0  0  0  0  0  0  0  0  0  0
   58.5266   34.5365   47.8843 H   0  0  0  0  0  0  0  0  0  0  0  0
   61.0508   34.3066   46.1804 H   0  0  0  0  0  0  0  0  0  0  0  0
   59.8577   32.9665   46.3552 H   0  0  0  0  0  0  0  0  0  0  0  0
   57.1841   32.8549   43.0636 H   0  0  0  0  0  0  0  0  0  0  0  0
   58.8322   32.4493   43.6777 H   0  0  0  0  0  0  0  0  0  0  0  0
   55.1709   31.3451   43.8244 H   0  0  0  0  0  0  0  0  0  0  0  0
   58.5498   25.8538   46.7633 H   0  0  0  0  0  0  0  0  0  0  0  0
   56.1688   24.1254   47.2955 H   0  0  0  0  0  0  0  0  0  0  0  0
   55.1510   27.0790   45.4070 H   0  0  0  0  0  0  0  0  0  0  0  0
  1  2  1  0
  2  3  1  0
  3  4  1  0
  4  5  2  0
  4  6  2  0
  4  7  1  0
  7  8  1  0
  8  9  2  0
  9 10  1  0
 10 11  1  0
 11 12  2  3
 12 13  1  0
 13 14  2  0
 13 15  1  0
 15 16  1  0
 16 17  1  0
 17 18  1  0
 18 19  1  0
 18 20  2  0
 11 21  1  0
 21  8  1  0
 17 15  1  0
  1 22  1  0
  1 23  1  0
  1 24  1  0
  2 25  1  0
  2 26  1  0
  7 27  1  0
  7 28  1  0
  9 29  1  0
 15 30  1  1
 17 31  1  1
 19 32  1  0
M  CHG  3   3  -1  10  -1  19  -1
M  END
>  <UniqueID>  (22) 
22

>  <SMILES>  (22) 
CC[N-]S(=O)(=O)Cc1c[n-]c(=NC(=O)[C@@H]2O[C@@H]2C([NH-])=O)s1

>  <Energy>  (22) 
386.48558910295355

>  <Genealogy>  (22) 
CC[N-]S(=O)(=O)Cc1c[n-]c(=NC(=O)C2OC2C([NH-])=O)s1 (protonated)
CC[N-]S(=O)(=O)Cc1c[n-]c(=NC(=O)[C@@H]2O[C@@H]2C([NH-])=O)s1 (chirality)
CC[N-]S(=O)(=O)Cc1c[n-]c(=NC(=O)[C@@H]2O[C@@H]2C([NH-])=O)s1 (3D coordinates assigned)
CC[N-]S(=O)(=O)Cc1c[n-]c(=NC(=O)[C@@H]2O[C@@H]2C([NH-])=O)s1 (nonaromatic ring conformer: 386.48558910295355 kcal/mol)

>  <smiles>  (22) 
CCNS(=O)(=O)Cc1c[nH]c(=NC(=O)C2OC2C(N)=O)s1

>  <score_type>  (22) 
oracle

>  <origin>  (22) 
adg

>  <m_score__min__energy>  (22) 
-12.42

>  <m_primary>  (22) 
energy

$$$$
22:0
     RDKit          3D

 56 59  0  0  0  0  0  0  0  0999 V2000
   58.1570   33.0280   47.4710 C   0  0  0  0  0  0  0  0  0  0  0  0
   59.0050   33.6210   46.3340 C   0  0  0  0  0  0  0  0  0  0  0  0
   59.7540   34.8730   46.8050 C   0  0  0  0  0  0  0  0  0  0  0  0
   58.1680   33.8900   45.0680 C   0  0  0  0  0  0  0  0  0  0  0  0
   57.6700   32.6340   44.4160 C   0  0  0  0  0  0  0  0  0  0  0  0
   56.7360   31.8330   44.9660 N   0  0  0  0  0  0  0  0  0  0  0  0
   56.5860   30.8620   44.0460 C   0  0  0  0  0  0  0  0  0  0  0  0
   55.6620   29.7340   44.1970 C   0  0  0  0  0  0  0  0  0  0  0  0
   54.6850   29.6020   43.4110 O   0  0  0  0  0  0  0  0  0  0  0  0
   55.8860   28.7860   45.2450 N   0  0  0  0  0  0  0  0  0  0  0  0
   57.1430   28.6430   45.9680 C   0  0  0  0  0  0  0  0  0  0  0  0
   57.4790   27.1860   46.1650 C   0  0  0  0  0  0  0  0  0  0  0  0
   56.4820   26.2160   45.9910 C   0  0  0  0  0  0  0  0  0  0  0  0
   56.7940   24.8620   46.1010 C   0  0  0  0  0  0  0  0  0  0  0  0
   58.1070   24.4840   46.3840 C   0  0  0  0  0  0  0  0  0  0  0  0
   59.0620   25.4300   46.5710 N   0  0  0  0  0  0  0  0  0  0  0  0
   58.7890   26.7600   46.4850 C   0  0  0  0  0  0  0  0  0  0  0  0
   59.8500   27.7000   46.6970 N   0  0  0  0  0  0  0  0  0  0  0  0
   60.3670   28.5180   45.5970 C   0  0  0  0  0  0  0  0  0  0  0  0
   60.3800   29.9920   46.0020 C   0  0  0  0  0  0  0  0  0  0  0  0
   61.0480   30.1650   47.3090 N   0  0  0  0  0  0  0  0  0  0  0  0
   61.3250   31.5570   47.7530 C   0  0  0  0  0  0  0  0  0  0  0  0
   62.6360   32.1560   47.2480 C   0  0  0  0  0  0  0  0  0  0  0  0
   62.4750   31.8350   48.7260 C   0  0  0  0  0  0  0  0  0  0  0  0
   60.3840   29.3890   48.3750 C   0  0  0  0  0  0  0  0  0  0  0  0
   60.4050   27.8970   48.0340 C   0  0  0  0  0  0  0  0  0  0  0  0
   57.4260   31.1010   42.9840 C   0  0  0  0  0  0  0  0  0  0  0  0
   58.0860   32.2030   43.2460 O   0  0  0  0  0  0  0  0  0  0  0  0
   58.5833   33.3261   48.4402 H   0  0  0  0  0  0  0  0  0  0  0  0
   57.1258   33.4028   47.3932 H   0  0  0  0  0  0  0  0  0  0  0  0
   58.1552   31.9308   47.3932 H   0  0  0  0  0  0  0  0  0  0  0  0
   59.7576   32.8692   46.0541 H   0  0  0  0  0  0  0  0  0  0  0  0
   59.7696   34.8990   47.9046 H   0  0  0  0  0  0  0  0  0  0  0  0
   60.7857   34.8481   46.4242 H   0  0  0  0  0  0  0  0  0  0  0  0
   59.2442   35.7703   46.4242 H   0  0  0  0  0  0  0  0  0  0  0  0
   57.3014   34.5080   45.3456 H   0  0  0  0  0  0  0  0  0  0  0  0
   58.8211   34.3995   44.3442 H   0  0  0  0  0  0  0  0  0  0  0  0
   57.9475   29.1251   45.3933 H   0  0  0  0  0  0  0  0  0  0  0  0
   57.0414   29.1201   46.9539 H   0  0  0  0  0  0  0  0  0  0  0  0
   55.4502   26.5244   45.7669 H   0  0  0  0  0  0  0  0  0  0  0  0
   56.0131   24.0992   45.9661 H   0  0  0  0  0  0  0  0  0  0  0  0
   58.3684   23.4179   46.4556 H   0  0  0  0  0  0  0  0  0  0  0  0
   61.3912   28.1977   45.3552 H   0  0  0  0  0  0  0  0  0  0  0  0
   59.7187   28.3912   44.7175 H   0  0  0  0  0  0  0  0  0  0  0  0
   60.9209   30.5719   45.2397 H   0  0  0  0  0  0  0  0  0  0  0  0
   59.3421   30.3471   46.0837 H   0  0  0  0  0  0  0  0  0  0  0  0
   60.2590   31.8285   47.7485 H   0  0  0  0  0  0  0  0  0  0  0  0
   63.3120   31.5516   46.6253 H   0  0  0  0  0  0  0  0  0  0  0  0
   62.9085   33.0541   46.6743 H   0  0  0  0  0  0  0  0  0  0  0  0
   63.0333   30.9982   49.1710 H   0  0  0  0  0  0  0  0  0  0  0  0
   62.5818   32.4038   49.6614 H   0  0  0  0  0  0  0  0  0  0  0  0
   60.9124   29.5519   49.3259 H   0  0  0  0  0  0  0  0  0  0  0  0
   59.3395   29.7222   48.4640 H   0  0  0  0  0  0  0  0  0  0  0  0
   61.4412   27.5286   48.0598 H   0  0  0  0  0  0  0  0  0  0  0  0
   59.8028   27.3423   48.7686 H   0  0  0  0  0  0  0  0  0  0  0  0
   57.5259   30.4814   42.0806 H   0  0  0  0  0  0  0  0  0  0  0  0
  1  2  1  0
  2  3  1  0
  2  4  1  0
  4  5  1  0
  5  6  2  0
  6  7  1  0
  7  8  1  0
  8  9  2  0
  8 10  1  0
 10 11  1  0
 11 12  1  0
 12 13  2  0
 13 14  1  0
 14 15  2  0
 15 16  1  0
 16 17  2  0
 17 18  1  0
 18 19  1  0
 19 20  1  0
 20 21  1  0
 21 22  1  0
 22 23  1  0
 23 24  1  0
 21 25  1  0
 25 26  1  0
  7 27  2  0
 27 28  1  0
 28  5  1  0
 17 12  1  0
 26 18  1  0
 24 22  1  0
  1 29  1  0
  1 30  1  0
  1 31  1  0
  2 32  1  0
  3 33  1  0
  3 34  1  0
  3 35  1  0
  4 36  1  0
  4 37  1  0
 11 38  1  0
 11 39  1  0
 13 40  1  0
 14 41  1  0
 15 42  1  0
 19 43  1  0
 19 44  1  0
 20 45  1  0
 20 46  1  0
 22 47  1  0
 23 48  1  0
 23 49  1  0
 24 50  1  0
 24 51  1  0
 25 52  1  0
 25 53  1  0
 26 54  1  0
 26 55  1  0
 27 56  1  0
M  CHG  1  10  -1
M  END
>  <UniqueID>  (23) 
23

>  <SMILES>  (23) 
CC(C)Cc1nc(C(=O)[N-]Cc2cccnc2N2CCN(C3CC3)CC2)co1

>  <Energy>  (23) 
357.67895342102173

>  <Genealogy>  (23) 
CC(C)Cc1nc(C(=O)[N-]Cc2cccnc2N2CCN(C3CC3)CC2)co1 (protonated)
CC(C)Cc1nc(C(=O)[N-]Cc2cccnc2N2CCN(C3CC3)CC2)co1 (3D coordinates assigned)
CC(C)Cc1nc(C(=O)[N-]Cc2cccnc2N2CCN(C3CC3)CC2)co1 (nonaromatic ring conformer: 357.67895342102173 kcal/mol)

>  <smiles>  (23) 
CC(C)Cc1nc(C(=O)NCc2cccnc2N2CCN(C3CC3)CC2)co1

>  <score_type>  (23) 
oracle

>  <origin>  (23) 
adg

>  <m_score__min__energy>  (23) 
-10.07

>  <m_primary>  (23) 
energy

$$$$
23:0
     RDKit          3D

 68 71  0  0  0  0  0  0  0  0999 V2000
   59.0840   35.0240   47.3660 C   0  0  0  0  0  0  0  0  0  0  0  0
   59.5960   34.3330   46.0760 C   0  0  0  0  0  0  0  0  0  0  0  0
   59.3150   35.2610   44.8790 C   0  0  0  0  0  0  0  0  0  0  0  0
   61.1290   34.1600   46.2290 C   0  0  0  0  0  0  0  0  0  0  0  0
   58.9000   32.9790   45.8180 C   0  0  0  0  0  0  0  0  0  0  0  0
   58.8680   31.9530   46.7930 C   0  0  0  0  0  0  0  0  0  0  0  0
   58.1530   30.7710   46.5770 C   0  0  0  0  0  0  0  0  0  0  0  0
   57.4470   30.5730   45.3840 C   0  0  0  0  0  0  0  0  0  0  0  0
   56.6490   29.3400   45.1760 C   0  0  0  0  0  0  0  0  0  0  0  0
   55.4080   29.4250   44.9790 O   0  0  0  0  0  0  0  0  0  0  0  0
   57.2710   28.0490   45.1460 N   0  0  0  0  0  0  0  0  0  0  0  0
   58.4300   27.7210   45.9200 C   0  0  0  0  0  0  0  0  0  0  0  0
   59.4810   27.0140   45.3270 C   0  0  0  0  0  0  0  0  0  0  0  0
   60.6370   26.7330   46.0600 C   0  0  0  0  0  0  0  0  0  0  0  0
   60.7430   27.1460   47.3910 C   0  0  0  0  0  0  0  0  0  0  0  0
   59.6830   27.8310   48.0100 C   0  0  0  0  0  0  0  0  0  0  0  0
   59.7830   28.2350   49.4710 C   0  0  0  0  0  0  0  0  0  0  0  0
   59.8110   29.7040   49.7100 N   0  0  0  0  0  0  0  0  0  0  0  0
   58.4870   30.2650   50.0400 C   0  0  0  0  0  0  0  0  0  0  0  0
   58.5200   31.7980   49.9480 C   0  0  0  0  0  0  0  0  0  0  0  0
   59.7700   32.3820   50.4830 N   0  0  0  0  0  0  0  0  0  0  0  0
   60.4990   33.3010   49.5840 C   0  0  0  0  0  0  0  0  0  0  0  0
   62.0010   33.2220   49.7300 C   0  0  0  0  0  0  0  0  0  0  0  0
   62.6570   33.9220   50.7580 C   0  0  0  0  0  0  0  0  0  0  0  0
   64.0480   33.8600   50.8780 C   0  0  0  0  0  0  0  0  0  0  0  0
   64.7960   33.0870   49.9840 C   0  0  0  0  0  0  0  0  0  0  0  0
   66.5420   33.0140   50.1340 Cl  0  0  0  0  0  0  0  0  0  0  0  0
   64.1500   32.3690   48.9730 C   0  0  0  0  0  0  0  0  0  0  0  0
   62.7590   32.4300   48.8510 C   0  0  0  0  0  0  0  0  0  0  0  0
   60.6040   31.4950   51.3180 C   0  0  0  0  0  0  0  0  0  0  0  0
   60.8290   30.0900   50.7150 C   0  0  0  0  0  0  0  0  0  0  0  0
   58.5190   28.0960   47.2700 C   0  0  0  0  0  0  0  0  0  0  0  0
   57.4590   31.5850   44.4140 C   0  0  0  0  0  0  0  0  0  0  0  0
   58.1600   32.7720   44.6330 C   0  0  0  0  0  0  0  0  0  0  0  0
   59.4766   34.4941   48.2464 H   0  0  0  0  0  0  0  0  0  0  0  0
   59.4277   36.0688   47.3834 H   0  0  0  0  0  0  0  0  0  0  0  0
   57.9844   34.9994   47.3834 H   0  0  0  0  0  0  0  0  0  0  0  0
   59.0146   36.2532   45.2469 H   0  0  0  0  0  0  0  0  0  0  0  0
   60.2245   35.3565   44.2677 H   0  0  0  0  0  0  0  0  0  0  0  0
   58.5053   34.8360   44.2677 H   0  0  0  0  0  0  0  0  0  0  0  0
   61.3899   34.1306   47.2972 H   0  0  0  0  0  0  0  0  0  0  0  0
   61.4417   33.2209   45.7492 H   0  0  0  0  0  0  0  0  0  0  0  0
   61.6431   35.0058   45.7492 H   0  0  0  0  0  0  0  0  0  0  0  0
   59.4155   32.0881   47.7375 H   0  0  0  0  0  0  0  0  0  0  0  0
   58.1450   29.9896   47.3512 H   0  0  0  0  0  0  0  0  0  0  0  0
   59.3975   26.6788   44.2826 H   0  0  0  0  0  0  0  0  0  0  0  0
   61.4660   26.1852   45.5881 H   0  0  0  0  0  0  0  0  0  0  0  0
   61.6616   26.9337   47.9577 H   0  0  0  0  0  0  0  0  0  0  0  0
   58.9145   27.8180   50.0019 H   0  0  0  0  0  0  0  0  0  0  0  0
   60.7434   27.8426   49.8367 H   0  0  0  0  0  0  0  0  0  0  0  0
   60.1090   30.1240   48.7980 H   0  0  0  0  0  0  0  0  0  0  0  0
   57.7408   29.8749   49.3321 H   0  0  0  0  0  0  0  0  0  0  0  0
   58.2206   29.9736   51.0667 H   0  0  0  0  0  0  0  0  0  0  0  0
   58.4216   32.0881   48.8915 H   0  0  0  0  0  0  0  0  0  0  0  0
   57.6894   32.1825   50.5582 H   0  0  0  0  0  0  0  0  0  0  0  0
   60.2367   33.0526   48.5450 H   0  0  0  0  0  0  0  0  0  0  0  0
   60.2009   34.3242   49.8564 H   0  0  0  0  0  0  0  0  0  0  0  0
   62.0724   34.5214   51.4714 H   0  0  0  0  0  0  0  0  0  0  0  0
   64.5556   34.4202   51.6771 H   0  0  0  0  0  0  0  0  0  0  0  0
   64.7368   31.7558   48.2733 H   0  0  0  0  0  0  0  0  0  0  0  0
   62.2542   31.8540   48.0614 H   0  0  0  0  0  0  0  0  0  0  0  0
   61.5851   31.9728   51.4566 H   0  0  0  0  0  0  0  0  0  0  0  0
   60.0643   31.3511   52.2656 H   0  0  0  0  0  0  0  0  0  0  0  0
   61.8174   30.0732   50.2325 H   0  0  0  0  0  0  0  0  0  0  0  0
   60.7540   29.3690   51.5423 H   0  0  0  0  0  0  0  0  0  0  0  0
   57.6696   28.6018   47.7524 H   0  0  0  0  0  0  0  0  0  0  0  0
   56.9107   31.4423   43.4712 H   0  0  0  0  0  0  0  0  0  0  0  0
   58.1356   33.5617   43.8676 H   0  0  0  0  0  0  0  0  0  0  0  0
  1  2  1  0
  2  3  1  0
  2  4  1  0
  2  5  1  0
  5  6  2  0
  6  7  1  0
  7  8  2  0
  8  9  1  0
  9 10  2  0
  9 11  1  0
 11 12  1  0
 12 13  2  0
 13 14  1  0
 14 15  2  0
 15 16  1  0
 16 17  1  0
 17 18  1  0
 18 19  1  0
 19 20  1  0
 20 21  1  0
 21 22  1  0
 22 23  1  0
 23 24  2  0
 24 25  1  0
 25 26  2  0
 26 27  1  0
 26 28  1  0
 28 29  2  0
 21 30  1  0
 30 31  1  0
 16 32  2  0
  8 33  1  0
 33 34  2  0
 34  5  1  0
 32 12  1  0
 31 18  1  0
 29 23  1  0
  1 35  1  0
  1 36  1  0
  1 37  1  0
  3 38  1  0
  3 39  1  0
  3 40  1  0
  4 41  1  0
  4 42  1  0
  4 43  1  0
  6 44  1  0
  7 45  1  0
 13 46  1  0
 14 47  1  0
 15 48  1  0
 17 49  1  0
 17 50  1  0
 18 51  1  0
 19 52  1  0
 19 53  1  0
 20 54  1  0
 20 55  1  0
 22 56  1  0
 22 57  1  0
 24 58  1  0
 25 59  1  0
 28 60  1  0
 29 61  1  0
 30 62  1  0
 30 63  1  0
 31 64  1  0
 31 65  1  0
 32 66  1  0
 33 67  1  0
 34 68  1  0
M  CHG  2  11  -1  18   1
M  END
>  <UniqueID>  (24) 
24

>  <SMILES>  (24) 
CC(C)(C)c1ccc(C(=O)[N-]c2cccc(C[NH+]3CCN(Cc4ccc(Cl)cc4)CC3)c2)cc1

>  <Energy>  (24) 
95.79031424766248

>  <Genealogy>  (24) 
CC(C)(C)c1ccc(C(=O)[N-]c2cccc(C[NH+]3CCN(Cc4ccc(Cl)cc4)CC3)c2)cc1 (protonated)
CC(C)(C)c1ccc(C(=O)[N-]c2cccc(C[NH+]3CCN(Cc4ccc(Cl)cc4)CC3)c2)cc1 (3D coordinates assigned)
CC(C)(C)c1ccc(C(=O)[N-]c2cccc(C[NH+]3CCN(Cc4ccc(Cl)cc4)CC3)c2)cc1 (nonaromatic ring conformer: 95.79031424766248 kcal/mol)

>  <smiles>  (24) 
CC(C)(C)c1ccc(C(=O)Nc2cccc(CN3CCN(Cc4ccc(Cl)cc4)CC3)c2)cc1

>  <score_type>  (24) 
oracle

>  <origin>  (24) 
adg

>  <m_score__min__energy>  (24) 
-9.6099999999999994

>  <m_primary>  (24) 
energy

$$$$
24:0
     RDKit          3D

 43 45  0  0  0  0  0  0  0  0999 V2000
   64.0933   34.6158   47.7313 H   0  0  0  0  0  0  0  0  0  0  0  0
   63.3680   33.8100   47.9170 C   0  0  0  0  0  0  0  0  0  0  0  0
   63.3140   32.7080   47.0600 C   0  0  0  0  0  0  0  0  0  0  0  0
   63.9994   32.6452   46.2019 H   0  0  0  0  0  0  0  0  0  0  0  0
   62.3890   31.6840   47.2920 C   0  0  0  0  0  0  0  0  0  0  0  0
   62.3510   30.8165   46.6168 H   0  0  0  0  0  0  0  0  0  0  0  0
   61.5080   31.7600   48.3850 C   0  0  0  0  0  0  0  0  0  0  0  0
   60.5330   30.6460   48.6540 C   0  0  0  0  0  0  0  0  0  0  0  0
   61.0557   29.8204   49.1591 H   0  0  0  0  0  0  0  0  0  0  0  0
   60.1144   30.2984   47.6980 H   0  0  0  0  0  0  0  0  0  0  0  0
   59.4150   31.1320   49.5280 C   0  0  0  0  0  0  0  0  0  0  0  0
   59.1540   30.5220   50.5980 O   0  0  0  0  0  0  0  0  0  0  0  0
   58.6120   32.2500   49.1510 N   0  0  0  0  0  0  0  0  0  0  0  0
   57.9830   32.3040   47.9260 O   0  0  0  0  0  0  0  0  0  0  0  0
   58.4080   33.1600   46.9010 C   0  0  0  0  0  0  0  0  0  0  0  0
   59.0550   34.3710   47.2060 C   0  0  0  0  0  0  0  0  0  0  0  0
   59.2194   34.6519   48.2567 H   0  0  0  0  0  0  0  0  0  0  0  0
   59.4900   35.2190   46.1870 C   0  0  0  0  0  0  0  0  0  0  0  0
   59.9917   36.1656   46.4363 H   0  0  0  0  0  0  0  0  0  0  0  0
   59.2890   34.8670   44.8520 C   0  0  0  0  0  0  0  0  0  0  0  0
   59.6337   35.5360   44.0497 H   0  0  0  0  0  0  0  0  0  0  0  0
   58.6510   33.6670   44.5330 C   0  0  0  0  0  0  0  0  0  0  0  0
   58.5025   33.3942   43.4778 H   0  0  0  0  0  0  0  0  0  0  0  0
   58.1950   32.8010   45.5470 C   0  0  0  0  0  0  0  0  0  0  0  0
   57.5090   31.5350   45.1710 C   0  0  0  0  0  0  0  0  0  0  0  0
   56.3680   31.5710   44.6380 O   0  0  0  0  0  0  0  0  0  0  0  0
   58.1750   30.2790   45.3920 N   0  0  0  0  0  0  0  0  0  0  0  0
   57.6650   29.0810   45.4780 C   0  0  0  0  0  0  0  0  0  0  0  0
   56.3480   28.7960   45.6240 N   0  0  0  0  0  0  0  0  0  0  0  0
   55.5260   29.4300   45.7040 H   0  0  0  0  0  0  0  0  0  0  0  0
   56.3050   27.4500   45.6570 C   0  0  0  0  0  0  0  0  0  0  0  0
   55.1370   26.7130   45.7920 O   0  0  0  0  0  0  0  0  0  0  0  0
   57.5730   26.9290   45.5370 C   0  0  0  0  0  0  0  0  0  0  0  0
   57.8402   25.8620   45.5250 H   0  0  0  0  0  0  0  0  0  0  0  0
   58.4260   27.9650   45.4370 N   0  0  0  0  0  0  0  0  0  0  0  0
   59.8700   27.8840   45.2370 C   0  0  0  0  0  0  0  0  0  0  0  0
   60.3745   27.8557   46.2141 H   0  0  0  0  0  0  0  0  0  0  0  0
   60.1114   26.9709   44.6731 H   0  0  0  0  0  0  0  0  0  0  0  0
   60.2120   28.7644   44.6731 H   0  0  0  0  0  0  0  0  0  0  0  0
   61.5780   32.8670   49.2480 C   0  0  0  0  0  0  0  0  0  0  0  0
   60.9033   32.9293   50.1146 H   0  0  0  0  0  0  0  0  0  0  0  0
   62.5010   33.8890   49.0100 C   0  0  0  0  0  0  0  0  0  0  0  0
   62.5451   34.7571   49.6842 H   0  0  0  0  0  0  0  0  0  0  0  0
  1  2  1  0
  2  3  2  0
  3  4  1  0
  3  5  1  0
  5  6  1  0
  5  7  2  0
  7  8  1  0
  8  9  1  0
  8 10  1  0
  8 11  1  0
 11 12  2  0
 11 13  1  0
 13 14  1  0
 14 15  1  0
 15 16  2  0
 16 17  1  0
 16 18  1  0
 18 19  1  0
 18 20  2  0
 20 21  1  0
 20 22  1  0
 22 23  1  0
 22 24  2  0
 24 25  1  0
 25 26  2  0
 25 27  1  0
 27 28  2  0
 28 29  1  0
 29 30  1  0
 29 31  1  0
 31 32  1  0
 31 33  2  0
 33 34  1  0
 33 35  1  0
 35 36  1  0
 36 37  1  0
 36 38  1  0
 36 39  1  0
  7 40  1  0
 40 41  1  0
 40 42  2  0
 42 43  1  0
 42  2  1  0
 24 15  1  0
 35 28  1  0
M  CHG  2  13  -1  32  -1
M  END
>  <UniqueID>  (25) 
25

>  <SMILES>  (25) 
Cn1cc([O-])[nH]/c1=N\C(=O)c1ccccc1O[N-]C(=O)Cc1ccccc1

>  <Energy>  (25) 
80.60175983617881

>  <Genealogy>  (25) 
Cn1cc([O-])[nH]c1=NC(=O)c1ccccc1O[N-]C(=O)Cc1ccccc1 (protonated)
Cn1cc([O-])[nH]/c1=N\C(=O)c1ccccc1O[N-]C(=O)Cc1ccccc1 (cis-trans isomerization)
Cn1cc([O-])[nH]/c1=N\C(=O)c1ccccc1O[N-]C(=O)Cc1ccccc1 (3D coordinates assigned)
Cn1cc([O-])[nH]/c1=N\C(=O)c1ccccc1O[N-]C(=O)Cc1ccccc1 (optimized conformer: 80.60175983617881 kcal/mol)

>  <smiles>  (25) 
Cn1cc(O)[nH]c1=NC(=O)c1ccccc1ONC(=O)Cc1ccccc1

>  <score_type>  (25) 
oracle

>  <origin>  (25) 
adg

>  <m_score__min__energy>  (25) 
-13.06

>  <m_primary>  (25) 
energy

$$$$
25:0
     RDKit          3D

 52 55  0  0  0  0  0  0  0  0999 V2000
   59.8620   26.9840   46.7850 H   0  0  0  0  0  0  0  0  0  0  0  0
   58.8650   26.8070   46.8780 O   0  0  0  0  0  0  0  0  0  0  0  0
   57.9340   27.5590   46.1690 C   0  0  0  0  0  0  0  0  0  0  0  0
   56.6090   27.2280   45.9270 C   0  0  0  0  0  0  0  0  0  0  0  0
   55.9180   25.9780   46.3790 C   0  0  0  0  0  0  0  0  0  0  0  0
   55.9003   25.9459   47.4784 H   0  0  0  0  0  0  0  0  0  0  0  0
   54.8871   25.9697   45.9953 H   0  0  0  0  0  0  0  0  0  0  0  0
   56.4592   25.1006   45.9953 H   0  0  0  0  0  0  0  0  0  0  0  0
   55.9960   28.2090   45.2380 N   0  0  0  0  0  0  0  0  0  0  0  0
   56.9460   29.1550   45.0260 C   0  0  0  0  0  0  0  0  0  0  0  0
   56.6790   30.3770   44.2560 C   0  0  0  0  0  0  0  0  0  0  0  0
   56.7489   30.3577   43.1584 H   0  0  0  0  0  0  0  0  0  0  0  0
   56.3610   31.4800   44.8630 N   0  0  0  0  0  0  0  0  0  0  0  0
   57.2970   32.5140   45.2000 C   0  0  0  0  0  0  0  0  0  0  0  0
   57.4070   33.0000   46.5170 C   0  0  0  0  0  0  0  0  0  0  0  0
   56.7327   32.6228   47.3000 H   0  0  0  0  0  0  0  0  0  0  0  0
   58.3740   33.9630   46.8310 C   0  0  0  0  0  0  0  0  0  0  0  0
   58.4603   34.3372   47.8618 H   0  0  0  0  0  0  0  0  0  0  0  0
   59.2310   34.4510   45.8380 C   0  0  0  0  0  0  0  0  0  0  0  0
   59.9823   35.2153   46.0858 H   0  0  0  0  0  0  0  0  0  0  0  0
   59.1310   33.9660   44.5310 C   0  0  0  0  0  0  0  0  0  0  0  0
   59.8017   34.3515   43.7490 H   0  0  0  0  0  0  0  0  0  0  0  0
   58.1770   32.9890   44.2160 C   0  0  0  0  0  0  0  0  0  0  0  0
   58.0900   32.5240   42.9400 F   0  0  0  0  0  0  0  0  0  0  0  0
   58.1570   28.7940   45.6050 C   0  0  0  0  0  0  0  0  0  0  0  0
   59.4000   29.5760   45.7080 C   0  0  0  0  0  0  0  0  0  0  0  0
   60.2830   29.4040   44.8230 O   0  0  0  0  0  0  0  0  0  0  0  0
   59.6550   30.4620   46.8270 N   0  0  0  0  0  0  0  0  0  0  0  0
   60.7530   31.4400   46.7530 C   0  0  0  0  0  0  0  0  0  0  0  0
   61.2523   31.3565   45.7764 H   0  0  0  0  0  0  0  0  0  0  0  0
   60.3465   32.4550   46.8735 H   0  0  0  0  0  0  0  0  0  0  0  0
   61.7660   31.1620   47.8690 C   0  0  0  0  0  0  0  0  0  0  0  0
   62.3921   30.3052   47.5791 H   0  0  0  0  0  0  0  0  0  0  0  0
   62.3806   32.0630   48.0118 H   0  0  0  0  0  0  0  0  0  0  0  0
   61.0910   30.8540   49.1410 N   0  0  0  0  0  0  0  0  0  0  0  0
   61.8400   30.2520   50.2180 C   0  0  0  0  0  0  0  0  0  0  0  0
   63.0340   30.8440   50.6660 C   0  0  0  0  0  0  0  0  0  0  0  0
   63.3988   31.7682   50.1940 H   0  0  0  0  0  0  0  0  0  0  0  0
   63.7590   30.2610   51.7100 C   0  0  0  0  0  0  0  0  0  0  0  0
   64.6945   30.7263   52.0539 H   0  0  0  0  0  0  0  0  0  0  0  0
   63.3000   29.0900   52.3180 C   0  0  0  0  0  0  0  0  0  0  0  0
   63.8699   28.6398   53.1441 H   0  0  0  0  0  0  0  0  0  0  0  0
   62.1190   28.4910   51.8780 C   0  0  0  0  0  0  0  0  0  0  0  0
   61.7629   27.5649   52.3528 H   0  0  0  0  0  0  0  0  0  0  0  0
   61.3880   29.0660   50.8350 C   0  0  0  0  0  0  0  0  0  0  0  0
   60.4560   28.5920   50.4934 H   0  0  0  0  0  0  0  0  0  0  0  0
   59.6340   31.0280   49.2470 C   0  0  0  0  0  0  0  0  0  0  0  0
   59.2870   30.6306   50.2122 H   0  0  0  0  0  0  0  0  0  0  0  0
   59.3877   32.0980   49.1798 H   0  0  0  0  0  0  0  0  0  0  0  0
   58.9430   30.2740   48.1070 C   0  0  0  0  0  0  0  0  0  0  0  0
   58.9201   29.2013   48.3496 H   0  0  0  0  0  0  0  0  0  0  0  0
   57.9231   30.6713   47.9974 H   0  0  0  0  0  0  0  0  0  0  0  0
  1  2  1  0
  2  3  1  0
  3  4  2  0
  4  5  1  0
  5  6  1  0
  5  7  1  0
  5  8  1  0
  4  9  1  0
  9 10  1  0
 10 11  1  0
 11 12  1  0
 11 13  2  0
 13 14  1  0
 14 15  2  0
 15 16  1  0
 15 17  1  0
 17 18  1  0
 17 19  2  0
 19 20  1  0
 19 21  1  0
 21 22  1  0
 21 23  2  0
 23 24  1  0
 10 25  2  0
 25 26  1  0
 26 27  2  0
 26 28  1  0
 28 29  1  0
 29 30  1  0
 29 31  1  0
 29 32  1  0
 32 33  1  0
 32 34  1  0
 32 35  1  0
 35 36  1  0
 36 37  2  0
 37 38  1  0
 37 39  1  0
 39 40  1  0
 39 41  2  0
 41 42  1  0
 41 43  1  0
 43 44  1  0
 43 45  2  0
 45 46  1  0
 35 47  1  0
 47 48  1  0
 47 49  1  0
 47 50  1  0
 50 51  1  0
 50 52  1  0
 25  3  1  0
 50 28  1  0
 23 14  1  0
 45 36  1  0
M  CHG  1   9  -1
M  END
>  <UniqueID>  (26) 
26

>  <SMILES>  (26) 
Cc1[n-]c(/C=N/c2ccccc2F)c(C(=O)N2CCN(c3ccccc3)CC2)c1O

>  <Energy>  (26) 
95.63953056325184

>  <Genealogy>  (26) 
Cc1[n-]c(C=Nc2ccccc2F)c(C(=O)N2CCN(c3ccccc3)CC2)c1O (protonated)
Cc1[n-]c(/C=N/c2ccccc2F)c(C(=O)N2CCN(c3ccccc3)CC2)c1O (cis-trans isomerization)
Cc1[n-]c(/C=N/c2ccccc2F)c(C(=O)N2CCN(c3ccccc3)CC2)c1O (3D coordinates assigned)
Cc1[n-]c(/C=N/c2ccccc2F)c(C(=O)N2CCN(c3ccccc3)CC2)c1O (nonaromatic ring conformer: 95.63953056325184 kcal/mol)

>  <smiles>  (26) 
Cc1[nH]c(C=Nc2ccccc2F)c(C(=O)N2CCN(c3ccccc3)CC2)c1O

>  <score_type>  (26) 
oracle

>  <origin>  (26) 
adg

>  <m_score__min__energy>  (26) 
-9.3000000000000007

>  <m_primary>  (26) 
energy

$$$$
26:0
     RDKit          3D

 63 67  0  0  0  0  0  0  0  0999 V2000
   58.3230   21.2790   45.5950 N   0  0  0  0  0  0  0  0  0  0  0  0
   58.9630   22.5500   45.4460 C   0  0  0  0  0  0  0  0  0  0  0  0
   60.2140   22.5870   45.3000 O   0  0  0  0  0  0  0  0  0  0  0  0
   58.1910   23.8180   45.4780 C   0  0  0  0  0  0  0  0  0  0  0  0
   56.7790   23.7850   45.3220 C   0  0  0  0  0  0  0  0  0  0  0  0
   56.0210   24.9700   45.3500 C   0  0  0  0  0  0  0  0  0  0  0  0
   56.6960   26.1710   45.5370 C   0  0  0  0  0  0  0  0  0  0  0  0
   56.1610   27.4020   45.6210 N   0  0  0  0  0  0  0  0  0  0  0  0
   57.1950   28.2450   45.8370 C   0  0  0  0  0  0  0  0  0  0  0  0
   58.3940   27.5430   45.8780 C   0  0  0  0  0  0  0  0  0  0  0  0
   59.7490   28.1050   46.1860 C   0  0  0  0  0  0  0  0  0  0  0  0
   59.8940   28.3070   47.6610 C   0  0  0  0  0  0  0  0  0  0  0  0
   60.7460   27.6100   48.4420 N   0  0  0  0  0  0  0  0  0  0  0  0
   60.4830   28.0650   49.6870 C   0  0  0  0  0  0  0  0  0  0  0  0
   61.1080   27.6640   50.7060 O   0  0  0  0  0  0  0  0  0  0  0  0
   59.4950   28.9880   49.7310 N   0  0  0  0  0  0  0  0  0  0  0  0
   58.9780   29.7170   50.8920 C   0  0  0  0  0  0  0  0  0  0  0  0
   58.8270   31.1860   50.5880 C   0  0  0  0  0  0  0  0  0  0  0  0
   57.6540   31.6420   50.4900 O   0  0  0  0  0  0  0  0  0  0  0  0
   59.9610   32.0670   50.3720 N   0  0  0  0  0  0  0  0  0  0  0  0
   59.7330   33.4810   50.0190 C   0  0  0  0  0  0  0  0  0  0  0  0
   59.4640   33.6360   48.5430 C   0  0  0  0  0  0  0  0  0  0  0  0
   60.2170   34.5400   47.7710 C   0  0  0  0  0  0  0  0  0  0  0  0
   60.0000   34.6440   46.3930 C   0  0  0  0  0  0  0  0  0  0  0  0
   59.0260   33.8550   45.7760 C   0  0  0  0  0  0  0  0  0  0  0  0
   58.2640   32.9630   46.5360 C   0  0  0  0  0  0  0  0  0  0  0  0
   58.4790   32.8530   47.9140 C   0  0  0  0  0  0  0  0  0  0  0  0
   61.3560   31.5990   50.4930 C   0  0  0  0  0  0  0  0  0  0  0  0
   62.2070   32.1090   49.3570 C   0  0  0  0  0  0  0  0  0  0  0  0
   62.9110   33.3200   49.4810 C   0  0  0  0  0  0  0  0  0  0  0  0
   63.6710   33.8060   48.4120 C   0  0  0  0  0  0  0  0  0  0  0  0
   63.7460   33.0820   47.2200 C   0  0  0  0  0  0  0  0  0  0  0  0
   63.0700   31.8650   47.0980 C   0  0  0  0  0  0  0  0  0  0  0  0
   62.3060   31.3770   48.1610 C   0  0  0  0  0  0  0  0  0  0  0  0
   59.1390   29.1480   48.4470 C   0  0  0  0  0  0  0  0  0  0  0  0
   58.1550   30.0250   47.9990 O   0  0  0  0  0  0  0  0  0  0  0  0
   58.0560   26.2160   45.6940 C   0  0  0  0  0  0  0  0  0  0  0  0
   58.8370   25.0610   45.6800 C   0  0  0  0  0  0  0  0  0  0  0  0
   58.8910   20.4050   45.5480 H   0  0  0  0  0  0  0  0  0  0  0  0
   57.3170   21.1950   45.8530 H   0  0  0  0  0  0  0  0  0  0  0  0
   56.2716   22.8198   45.1774 H   0  0  0  0  0  0  0  0  0  0  0  0
   54.9281   24.9470   45.2277 H   0  0  0  0  0  0  0  0  0  0  0  0
   55.1500   27.6560   45.5530 H   0  0  0  0  0  0  0  0  0  0  0  0
   57.1010   29.3337   45.9627 H   0  0  0  0  0  0  0  0  0  0  0  0
   60.5221   27.4051   45.8361 H   0  0  0  0  0  0  0  0  0  0  0  0
   59.8641   29.0724   45.6753 H   0  0  0  0  0  0  0  0  0  0  0  0
   57.9961   29.3044   51.1671 H   0  0  0  0  0  0  0  0  0  0  0  0
   59.6915   29.6036   51.7215 H   0  0  0  0  0  0  0  0  0  0  0  0
   58.8669   33.8570   50.5834 H   0  0  0  0  0  0  0  0  0  0  0  0
   60.6374   34.0541   50.2712 H   0  0  0  0  0  0  0  0  0  0  0  0
   60.9802   35.1681   48.2536 H   0  0  0  0  0  0  0  0  0  0  0  0
   60.5970   35.3478   45.7945 H   0  0  0  0  0  0  0  0  0  0  0  0
   58.8587   33.9358   44.6918 H   0  0  0  0  0  0  0  0  0  0  0  0
   57.4938   32.3463   46.0496 H   0  0  0  0  0  0  0  0  0  0  0  0
   57.8753   32.1513   48.5082 H   0  0  0  0  0  0  0  0  0  0  0  0
   61.7739   31.9610   51.4440 H   0  0  0  0  0  0  0  0  0  0  0  0
   61.3568   30.4995   50.4602 H   0  0  0  0  0  0  0  0  0  0  0  0
   62.8638   33.8873   50.4223 H   0  0  0  0  0  0  0  0  0  0  0  0
   64.2103   34.7597   48.5103 H   0  0  0  0  0  0  0  0  0  0  0  0
   64.3371   33.4697   46.3773 H   0  0  0  0  0  0  0  0  0  0  0  0
   63.1396   31.2900   46.1629 H   0  0  0  0  0  0  0  0  0  0  0  0
   61.7798   30.4161   48.0617 H   0  0  0  0  0  0  0  0  0  0  0  0
   59.9265   25.1145   45.8222 H   0  0  0  0  0  0  0  0  0  0  0  0
  1  2  1  0
  2  3  2  0
  2  4  1  0
  4  5  2  0
  5  6  1  0
  6  7  2  0
  7  8  1  0
  8  9  1  0
  9 10  2  0
 10 11  1  0
 11 12  1  0
 12 13  1  0
 13 14  1  0
 14 15  2  0
 14 16  1  0
 16 17  1  0
 17 18  1  0
 18 19  2  0
 18 20  1  0
 20 21  1  0
 21 22  1  0
 22 23  2  0
 23 24  1  0
 24 25  2  0
 25 26  1  0
 26 27  2  0
 20 28  1  0
 28 29  1  0
 29 30  2  0
 30 31  1  0
 31 32  2  0
 32 33  1  0
 33 34  2  0
 16 35  1  0
 35 36  1  0
 10 37  1  0
 37 38  2  0
 38  4  1  0
 37  7  1  0
 35 12  2  0
 27 22  1  0
 34 29  1  0
  1 39  1  0
  1 40  1  0
  5 41  1  0
  6 42  1  0
  8 43  1  0
  9 44  1  0
 11 45  1  0
 11 46  1  0
 17 47  1  0
 17 48  1  0
 21 49  1  0
 21 50  1  0
 23 51  1  0
 24 52  1  0
 25 53  1  0
 26 54  1  0
 27 55  1  0
 28 56  1  0
 28 57  1  0
 30 58  1  0
 31 59  1  0
 32 60  1  0
 33 61  1  0
 34 62  1  0
 38 63  1  0
M  CHG  2  13  -1  36  -1
M  END
>  <UniqueID>  (27) 
27

>  <SMILES>  (27) 
NC(=O)c1ccc2[nH]cc(Cc3[n-]c(=O)n(CC(=O)N(Cc4ccccc4)Cc4ccccc4)c3[O-])c2c1

>  <Energy>  (27) 
129.51892953579951

>  <Genealogy>  (27) 
NC(=O)c1ccc2[nH]cc(Cc3[n-]c(=O)n(CC(=O)N(Cc4ccccc4)Cc4ccccc4)c3[O-])c2c1 (protonated)
NC(=O)c1ccc2[nH]cc(Cc3[n-]c(=O)n(CC(=O)N(Cc4ccccc4)Cc4ccccc4)c3[O-])c2c1 (3D coordinates assigned)
NC(=O)c1ccc2[nH]cc(Cc3[n-]c(=O)n(CC(=O)N(Cc4ccccc4)Cc4ccccc4)c3[O-])c2c1 (optimized conformer: 129.51892953579951 kcal/mol)

>  <smiles>  (27) 
NC(=O)c1ccc2[nH]cc(Cc3[nH]c(=O)n(CC(=O)N(Cc4ccccc4)Cc4ccccc4)c3O)c2c1

>  <score_type>  (27) 
oracle

>  <origin>  (27) 
adg

>  <m_score__min__energy>  (27) 
-13.470000000000001

>  <m_primary>  (27) 
energy

$$$$
27:0
     RDKit          3D

 55 58  0  0  0  0  0  0  0  0999 V2000
   58.1440   27.1540   43.5250 C   0  0  0  0  0  0  0  0  0  0  0  0
   57.4440   27.7530   44.4880 C   0  0  0  0  0  0  0  0  0  0  0  0
   57.4260   29.2160   44.6440 C   0  0  0  0  0  0  0  0  0  0  0  0
   58.4820   29.9980   45.0650 C   0  0  0  0  0  0  0  0  0  0  0  0
   58.0370   31.2670   45.0530 N   0  0  0  0  0  0  0  0  0  0  0  0
   58.8190   32.4670   45.3660 C   0  0  1  0  0  0  0  0  0  0  0  0
   58.7220   33.4940   44.2470 C   0  0  0  0  0  0  0  0  0  0  0  0
   57.9980   34.6770   44.8650 C   0  0  0  0  0  0  0  0  0  0  0  0
   58.1910   34.6120   46.3220 N   0  0  0  0  0  0  0  0  0  0  0  0
   59.4100   35.3360   46.7470 C   0  0  0  0  0  0  0  0  0  0  0  0
   60.3340   34.4240   47.5140 C   0  0  0  0  0  0  0  0  0  0  0  0
   60.1340   34.1920   48.8830 C   0  0  0  0  0  0  0  0  0  0  0  0
   60.9590   33.3020   49.5760 C   0  0  0  0  0  0  0  0  0  0  0  0
   61.9900   32.6230   48.9090 C   0  0  0  0  0  0  0  0  0  0  0  0
   62.8390   31.6600   49.6420 C   0  0  0  0  0  0  0  0  0  0  0  0
   62.4190   30.4790   49.8040 O   0  0  0  0  0  0  0  0  0  0  0  0
   64.1360   32.0310   50.1500 N   0  0  0  0  0  0  0  0  0  0  0  0
   64.9630   33.0020   49.4110 C   0  0  0  0  0  0  0  0  0  0  0  0
   66.4480   32.8450   49.7510 C   0  0  0  0  0  0  0  0  0  0  0  0
   66.6960   32.9200   51.2690 C   0  0  0  0  0  0  0  0  0  0  0  0
   66.7020   34.2500   51.6550 F   0  0  0  0  0  0  0  0  0  0  0  0
   67.9490   32.3940   51.5330 F   0  0  0  0  0  0  0  0  0  0  0  0
   65.6320   32.1570   52.1010 C   0  0  0  0  0  0  0  0  0  0  0  0
   64.7350   31.2540   51.2460 C   0  0  0  0  0  0  0  0  0  0  0  0
   62.2140   32.8860   47.5470 C   0  0  0  0  0  0  0  0  0  0  0  0
   61.3870   33.7730   46.8530 C   0  0  0  0  0  0  0  0  0  0  0  0
   58.3000   33.1750   46.6220 C   0  0  0  0  0  0  0  0  0  0  0  0
   56.7780   31.2490   44.6410 N   0  0  0  0  0  0  0  0  0  0  0  0
   56.3700   30.0150   44.3850 N   0  0  0  0  0  0  0  0  0  0  0  0
   58.1340   26.0574   43.4386 H   0  0  0  0  0  0  0  0  0  0  0  0
   58.7318   27.7562   42.8166 H   0  0  0  0  0  0  0  0  0  0  0  0
   56.8620   27.1349   45.1875 H   0  0  0  0  0  0  0  0  0  0  0  0
   59.4860   29.6528   45.3526 H   0  0  0  0  0  0  0  0  0  0  0  0
   59.8516   32.1157   45.5084 H   0  0  0  0  0  0  0  0  0  0  0  0
   59.7248   33.7896   43.9048 H   0  0  0  0  0  0  0  0  0  0  0  0
   58.1940   33.0989   43.3666 H   0  0  0  0  0  0  0  0  0  0  0  0
   58.4151   35.6167   44.4740 H   0  0  0  0  0  0  0  0  0  0  0  0
   56.9267   34.6433   44.6177 H   0  0  0  0  0  0  0  0  0  0  0  0
   59.9337   35.7142   45.8567 H   0  0  0  0  0  0  0  0  0  0  0  0
   59.1150   36.1701   47.4007 H   0  0  0  0  0  0  0  0  0  0  0  0
   59.3237   34.7133   49.4137 H   0  0  0  0  0  0  0  0  0  0  0  0
   60.7991   33.1327   50.6511 H   0  0  0  0  0  0  0  0  0  0  0  0
   64.8242   32.8419   48.3316 H   0  0  0  0  0  0  0  0  0  0  0  0
   64.6473   34.0155   49.6993 H   0  0  0  0  0  0  0  0  0  0  0  0
   66.7973   31.8700   49.3805 H   0  0  0  0  0  0  0  0  0  0  0  0
   66.9981   33.6687   49.2727 H   0  0  0  0  0  0  0  0  0  0  0  0
   66.1500   31.5332   52.8444 H   0  0  0  0  0  0  0  0  0  0  0  0
   64.9843   32.9094   52.5747 H   0  0  0  0  0  0  0  0  0  0  0  0
   65.3376   30.4356   50.8251 H   0  0  0  0  0  0  0  0  0  0  0  0
   63.9331   30.8416   51.8760 H   0  0  0  0  0  0  0  0  0  0  0  0
   63.0453   32.3907   47.0240 H   0  0  0  0  0  0  0  0  0  0  0  0
   61.5621   33.9619   45.7836 H   0  0  0  0  0  0  0  0  0  0  0  0
   59.0016   33.0197   47.4549 H   0  0  0  0  0  0  0  0  0  0  0  0
   57.3192   32.7696   46.9114 H   0  0  0  0  0  0  0  0  0  0  0  0
   56.1790   32.0960   44.5170 H   0  0  0  0  0  0  0  0  0  0  0  0
  1  2  2  0
  2  3  1  0
  3  4  2  0
  4  5  1  0
  5  6  1  0
  6  7  1  0
  7  8  1  0
  8  9  1  0
  9 10  1  0
 10 11  1  0
 11 12  2  0
 12 13  1  0
 13 14  2  0
 14 15  1  0
 15 16  2  0
 15 17  1  0
 17 18  1  0
 18 19  1  0
 19 20  1  0
 20 21  1  0
 20 22  1  0
 20 23  1  0
 23 24  1  0
 14 25  1  0
 25 26  2  0
  9 27  1  0
  5 28  1  0
 28 29  2  0
 29  3  1  0
 27  6  1  0
 26 11  1  0
 24 17  1  0
  1 30  1  0
  1 31  1  0
  2 32  1  0
  4 33  1  0
  6 34  1  1
  7 35  1  0
  7 36  1  0
  8 37  1  0
  8 38  1  0
 10 39  1  0
 10 40  1  0
 12 41  1  0
 13 42  1  0
 18 43  1  0
 18 44  1  0
 19 45  1  0
 19 46  1  0
 23 47  1  0
 23 48  1  0
 24 49  1  0
 24 50  1  0
 25 51  1  0
 26 52  1  0
 27 53  1  0
 27 54  1  0
 28 55  1  0
M  CHG  1  28   1
M  END
>  <UniqueID>  (28) 
28

>  <SMILES>  (28) 
C=Cc1cn([C@H]2CCN(Cc3ccc(C(=O)N4CCC(F)(F)CC4)cc3)C2)[nH+]n1

>  <Energy>  (28) 
100.37421263431439

>  <Genealogy>  (28) 
C=Cc1cn(C2CCN(Cc3ccc(C(=O)N4CCC(F)(F)CC4)cc3)C2)[nH+]n1 (protonated)
C=Cc1cn([C@H]2CCN(Cc3ccc(C(=O)N4CCC(F)(F)CC4)cc3)C2)[nH+]n1 (chirality)
C=Cc1cn([C@H]2CCN(Cc3ccc(C(=O)N4CCC(F)(F)CC4)cc3)C2)[nH+]n1 (3D coordinates assigned)
C=Cc1cn([C@H]2CCN(Cc3ccc(C(=O)N4CCC(F)(F)CC4)cc3)C2)[nH+]n1 (nonaromatic ring conformer: 100.37421263431439 kcal/mol)

>  <smiles>  (28) 
C=Cc1cn(C2CCN(Cc3ccc(C(=O)N4CCC(F)(F)CC4)cc3)C2)nn1

>  <score_type>  (28) 
oracle

>  <origin>  (28) 
adg

>  <m_score__min__energy>  (28) 
-7.4900000000000002

>  <m_primary>  (28) 
energy

$$$$
28:0
     RDKit          3D

 50 52  0  0  0  0  0  0  0  0999 V2000
   56.6470   30.4400   45.2380 O   0  0  0  0  0  0  0  0  0  0  0  0
   57.6310   30.6490   44.4800 C   0  0  0  0  0  0  0  0  0  0  0  0
   57.7740   31.9470   43.8900 N   0  0  0  0  0  0  0  0  0  0  0  0
   57.3870   33.2080   44.5090 C   0  0  0  0  0  0  0  0  0  0  0  0
   57.9840   33.3310   45.8850 C   0  0  0  0  0  0  0  0  0  0  0  0
   59.1720   33.8940   46.1500 C   0  0  0  0  0  0  0  0  0  0  0  0
   60.3690   33.1490   46.5880 C   0  0  0  0  0  0  0  0  0  0  0  0
   60.2950   31.7910   46.9370 C   0  0  0  0  0  0  0  0  0  0  0  0
   61.4380   31.1130   47.3740 C   0  0  0  0  0  0  0  0  0  0  0  0
   62.6550   31.7910   47.4800 C   0  0  0  0  0  0  0  0  0  0  0  0
   62.7290   33.1490   47.1620 C   0  0  0  0  0  0  0  0  0  0  0  0
   61.5880   33.8300   46.7250 C   0  0  0  0  0  0  0  0  0  0  0  0
   58.5680   29.5930   44.2030 N   0  0  0  0  0  0  0  0  0  0  0  0
   58.6160   28.3560   44.9350 C   0  0  0  0  0  0  0  0  0  0  0  0
   59.8340   27.9310   45.4860 C   0  0  0  0  0  0  0  0  0  0  0  0
   59.9030   26.7380   46.2100 C   0  0  0  0  0  0  0  0  0  0  0  0
   58.7550   25.9660   46.4020 C   0  0  0  0  0  0  0  0  0  0  0  0
   57.5270   26.3900   45.8780 C   0  0  0  0  0  0  0  0  0  0  0  0
   56.0720   25.4200   46.1240 S   0  0  0  0  0  0  0  0  0  0  0  0
   54.8630   26.3040   45.9830 O   0  0  0  0  0  0  0  0  0  0  0  0
   56.0780   24.8600   47.5180 O   0  0  0  0  0  0  0  0  0  0  0  0
   55.9650   24.1090   44.9740 N   0  0  0  0  0  0  0  0  0  0  0  0
   56.7240   24.4270   43.7560 C   0  0  0  0  0  0  0  0  0  0  0  0
   56.5920   23.2720   42.7410 C   0  0  0  0  0  0  0  0  0  0  0  0
   55.9550   22.1350   43.2980 O   0  0  0  0  0  0  0  0  0  0  0  0
   56.6030   21.7610   44.4980 C   0  0  0  0  0  0  0  0  0  0  0  0
   56.4610   22.8590   45.5720 C   0  0  0  0  0  0  0  0  0  0  0  0
   57.4590   27.5900   45.1560 C   0  0  0  0  0  0  0  0  0  0  0  0
   57.7435   34.0408   43.8850 H   0  0  0  0  0  0  0  0  0  0  0  0
   56.2908   33.2376   44.5954 H   0  0  0  0  0  0  0  0  0  0  0  0
   57.4062   32.9317   46.7316 H   0  0  0  0  0  0  0  0  0  0  0  0
   59.2605   34.9842   46.0332 H   0  0  0  0  0  0  0  0  0  0  0  0
   59.3351   31.2584   46.8666 H   0  0  0  0  0  0  0  0  0  0  0  0
   61.3786   30.0459   47.6342 H   0  0  0  0  0  0  0  0  0  0  0  0
   63.5555   31.2549   47.8141 H   0  0  0  0  0  0  0  0  0  0  0  0
   63.6858   33.6837   47.2553 H   0  0  0  0  0  0  0  0  0  0  0  0
   61.6466   34.9026   46.4881 H   0  0  0  0  0  0  0  0  0  0  0  0
   59.1880   29.6780   43.3690 H   0  0  0  0  0  0  0  0  0  0  0  0
   60.7394   28.5401   45.3474 H   0  0  0  0  0  0  0  0  0  0  0  0
   60.8640   26.4059   46.6299 H   0  0  0  0  0  0  0  0  0  0  0  0
   58.8153   25.0233   46.9657 H   0  0  0  0  0  0  0  0  0  0  0  0
   56.3286   25.3517   43.3104 H   0  0  0  0  0  0  0  0  0  0  0  0
   57.7844   24.5639   44.0144 H   0  0  0  0  0  0  0  0  0  0  0  0
   56.0016   23.6224   41.8816 H   0  0  0  0  0  0  0  0  0  0  0  0
   57.6064   22.9738   42.4376 H   0  0  0  0  0  0  0  0  0  0  0  0
   56.1531   20.8304   44.8741 H   0  0  0  0  0  0  0  0  0  0  0  0
   57.6727   21.6157   44.2865 H   0  0  0  0  0  0  0  0  0  0  0  0
   55.7525   22.5211   46.3426 H   0  0  0  0  0  0  0  0  0  0  0  0
   57.4485   23.0475   46.0185 H   0  0  0  0  0  0  0  0  0  0  0  0
   56.4925   27.9344   44.7595 H   0  0  0  0  0  0  0  0  0  0  0  0
  1  2  2  0
  2  3  1  0
  3  4  1  0
  4  5  1  0
  5  6  2  3
  6  7  1  0
  7  8  2  0
  8  9  1  0
  9 10  2  0
 10 11  1  0
 11 12  2  0
  2 13  1  0
 13 14  1  0
 14 15  2  0
 15 16  1  0
 16 17  2  0
 17 18  1  0
 18 19  1  0
 19 20  2  0
 19 21  2  0
 19 22  1  0
 22 23  1  0
 23 24  1  0
 24 25  1  0
 25 26  1  0
 26 27  1  0
 18 28  2  0
 12  7  1  0
 28 14  1  0
 27 22  1  0
  4 29  1  0
  4 30  1  0
  5 31  1  0
  6 32  1  0
  8 33  1  0
  9 34  1  0
 10 35  1  0
 11 36  1  0
 12 37  1  0
 13 38  1  0
 15 39  1  0
 16 40  1  0
 17 41  1  0
 23 42  1  0
 23 43  1  0
 24 44  1  0
 24 45  1  0
 26 46  1  0
 26 47  1  0
 27 48  1  0
 27 49  1  0
 28 50  1  0
M  CHG  1   3  -1
M  END
>  <UniqueID>  (29) 
29

>  <SMILES>  (29) 
O=C([N-]CC=Cc1ccccc1)Nc1cccc(S(=O)(=O)N2CCOCC2)c1

>  <Energy>  (29) 
65.77478203079873

>  <Genealogy>  (29) 
O=C([N-]CC=Cc1ccccc1)Nc1cccc(S(=O)(=O)N2CCOCC2)c1 (protonated)
O=C([N-]CC=Cc1ccccc1)Nc1cccc(S(=O)(=O)N2CCOCC2)c1 (3D coordinates assigned)
O=C([N-]CC=Cc1ccccc1)Nc1cccc(S(=O)(=O)N2CCOCC2)c1 (nonaromatic ring conformer: 65.77478203079873 kcal/mol)

>  <smiles>  (29) 
O=C(NCC=Cc1ccccc1)Nc1cccc(S(=O)(=O)N2CCOCC2)c1

>  <score_type>  (29) 
oracle

>  <origin>  (29) 
adg

>  <m_score__min__energy>  (29) 
-11.9

>  <m_primary>  (29) 
energy

$$$$
29:0
     RDKit          3D

 41 42  0  0  0  0  0  0  0  0999 V2000
   56.8790   25.5820   46.6290 O   0  0  0  0  0  0  0  0  0  0  0  0
   56.1550   26.4350   46.0500 C   0  0  0  0  0  0  0  0  0  0  0  0
   56.8090   27.6390   45.4300 C   0  0  0  0  0  0  0  0  0  0  0  0
   55.8300   28.7050   45.2460 N   0  0  0  0  0  0  0  0  0  0  0  0
   55.9620   29.7440   44.2710 C   0  0  0  0  0  0  0  0  0  0  0  0
   55.1470   29.8300   43.3130 O   0  0  0  0  0  0  0  0  0  0  0  0
   57.0690   30.7430   44.3970 C   0  0  0  0  0  0  0  0  0  0  0  0
   56.6460   31.9080   45.1780 N   0  0  0  0  0  0  0  0  0  0  0  0
   57.7020   33.2690   44.9240 S   0  0  0  0  0  0  0  0  0  0  0  0
   58.4040   33.1210   43.6020 O   0  0  0  0  0  0  0  0  0  0  0  0
   56.8770   34.5230   44.8810 O   0  0  0  0  0  0  0  0  0  0  0  0
   58.8830   33.4110   46.2250 C   0  0  0  0  0  0  0  0  0  0  0  0
   58.8870   34.5530   47.0380 C   0  0  0  0  0  0  0  0  0  0  0  0
   59.8080   34.6670   48.0840 C   0  0  0  0  0  0  0  0  0  0  0  0
   60.7250   33.6400   48.3260 C   0  0  0  0  0  0  0  0  0  0  0  0
   60.7200   32.4970   47.5220 C   0  0  0  0  0  0  0  0  0  0  0  0
   59.8020   32.3810   46.4730 C   0  0  0  0  0  0  0  0  0  0  0  0
   54.7380   26.2220   46.0130 N   0  0  0  0  0  0  0  0  0  0  0  0
   54.0870   24.9850   45.6040 C   0  0  0  0  0  0  0  0  0  0  0  0
   55.0580   23.8480   45.7330 C   0  0  0  0  0  0  0  0  0  0  0  0
   55.3200   23.2810   46.9920 C   0  0  0  0  0  0  0  0  0  0  0  0
   56.1980   22.1990   47.1070 C   0  0  0  0  0  0  0  0  0  0  0  0
   56.8130   21.6700   45.9680 C   0  0  0  0  0  0  0  0  0  0  0  0
   56.5460   22.2190   44.7100 C   0  0  0  0  0  0  0  0  0  0  0  0
   57.3080   21.5460   43.2800 Cl  0  0  0  0  0  0  0  0  0  0  0  0
   55.6660   23.3010   44.5910 C   0  0  0  0  0  0  0  0  0  0  0  0
   57.6143   27.9950   46.0893 H   0  0  0  0  0  0  0  0  0  0  0  0
   57.2226   27.3583   44.4501 H   0  0  0  0  0  0  0  0  0  0  0  0
   57.9257   30.2678   44.8972 H   0  0  0  0  0  0  0  0  0  0  0  0
   57.3476   31.0827   43.3885 H   0  0  0  0  0  0  0  0  0  0  0  0
   58.1641   35.3611   46.8527 H   0  0  0  0  0  0  0  0  0  0  0  0
   59.8109   35.5663   48.7175 H   0  0  0  0  0  0  0  0  0  0  0  0
   61.4497   33.7315   49.1484 H   0  0  0  0  0  0  0  0  0  0  0  0
   61.4392   31.6872   47.7144 H   0  0  0  0  0  0  0  0  0  0  0  0
   59.8009   31.4803   45.8415 H   0  0  0  0  0  0  0  0  0  0  0  0
   53.2148   24.7984   46.2478 H   0  0  0  0  0  0  0  0  0  0  0  0
   53.7563   25.0706   44.5584 H   0  0  0  0  0  0  0  0  0  0  0  0
   54.8329   23.6897   47.8896 H   0  0  0  0  0  0  0  0  0  0  0  0
   56.4054   21.7630   48.0954 H   0  0  0  0  0  0  0  0  0  0  0  0
   57.5070   20.8217   46.0617 H   0  0  0  0  0  0  0  0  0  0  0  0
   55.4497   23.7246   43.5992 H   0  0  0  0  0  0  0  0  0  0  0  0
  1  2  2  0
  2  3  1  0
  3  4  1  0
  4  5  1  0
  5  6  2  0
  5  7  1  0
  7  8  1  0
  8  9  1  0
  9 10  2  0
  9 11  2  0
  9 12  1  0
 12 13  2  0
 13 14  1  0
 14 15  2  0
 15 16  1  0
 16 17  2  0
  2 18  1  0
 18 19  1  0
 19 20  1  0
 20 21  2  0
 21 22  1  0
 22 23  2  0
 23 24  1  0
 24 25  1  0
 24 26  2  0
 17 12  1  0
 26 20  1  0
  3 27  1  0
  3 28  1  0
  7 29  1  0
  7 30  1  0
 13 31  1  0
 14 32  1  0
 15 33  1  0
 16 34  1  0
 17 35  1  0
 19 36  1  0
 19 37  1  0
 21 38  1  0
 22 39  1  0
 23 40  1  0
 26 41  1  0
M  CHG  3   4  -1   8  -1  18  -1
M  END
>  <UniqueID>  (30) 
30

>  <SMILES>  (30) 
O=C(C[N-]C(=O)C[N-]S(=O)(=O)c1ccccc1)[N-]Cc1cccc(Cl)c1

>  <Energy>  (30) 
33.91195714989948

>  <Genealogy>  (30) 
O=C(C[N-]C(=O)C[N-]S(=O)(=O)c1ccccc1)[N-]Cc1cccc(Cl)c1 (protonated)
O=C(C[N-]C(=O)C[N-]S(=O)(=O)c1ccccc1)[N-]Cc1cccc(Cl)c1 (3D coordinates assigned)
O=C(C[N-]C(=O)C[N-]S(=O)(=O)c1ccccc1)[N-]Cc1cccc(Cl)c1 (optimized conformer: 33.91195714989948 kcal/mol)

>  <smiles>  (30) 
O=C(CNC(=O)CNS(=O)(=O)c1ccccc1)NCc1cccc(Cl)c1

>  <score_type>  (30) 
oracle

>  <origin>  (30) 
adg

>  <m_score__min__energy>  (30) 
-13.83

>  <m_primary>  (30) 
energy

$$$$
30:0
     RDKit          3D

 62 65  0  0  0  0  0  0  0  0999 V2000
   57.6820   31.0240   43.7850 C   0  0  0  0  0  0  0  0  0  0  0  0
   58.0760   31.2050   45.0570 C   0  0  0  0  0  0  0  0  0  0  0  0
   58.6130   30.2290   45.9140 C   0  0  0  0  0  0  0  0  0  0  0  0
   58.6900   28.8860   45.8040 C   0  0  0  0  0  0  0  0  0  0  0  0
   57.5820   27.9350   46.0020 C   0  0  0  0  0  0  0  0  0  0  0  0
   57.7250   26.6700   46.4430 N   0  0  0  0  0  0  0  0  0  0  0  0
   56.4780   26.1620   46.3350 C   0  0  0  0  0  0  0  0  0  0  0  0
   56.1970   24.9860   46.6770 O   0  0  0  0  0  0  0  0  0  0  0  0
   55.5640   27.0070   45.8160 N   0  0  0  0  0  0  0  0  0  0  0  0
   56.2850   28.1180   45.5960 C   0  0  0  0  0  0  0  0  0  0  0  0
   55.7610   29.2840   45.0460 O   0  0  0  0  0  0  0  0  0  0  0  0
   59.0610   30.9040   47.0330 C   0  0  0  0  0  0  0  0  0  0  0  0
   58.7250   32.2310   46.8660 C   0  0  0  0  0  0  0  0  0  0  0  0
   58.9690   33.2650   47.8930 C   0  0  0  0  0  0  0  0  0  0  0  0
   59.1270   34.4650   47.5480 O   0  0  0  0  0  0  0  0  0  0  0  0
   59.1000   32.8990   49.2810 N   0  0  0  0  0  0  0  0  0  0  0  0
   60.1010   33.5660   50.1130 C   0  0  0  0  0  0  0  0  0  0  0  0
   60.1170   32.9680   51.5230 C   0  0  0  0  0  0  0  0  0  0  0  0
   60.1010   31.4880   51.5000 N   0  0  0  0  0  0  0  0  0  0  0  0
   61.4290   30.9320   51.1690 C   0  0  0  0  0  0  0  0  0  0  0  0
   61.6190   30.8000   49.6470 C   0  0  0  0  0  0  0  0  0  0  0  0
   62.3730   31.9510   49.1020 N   0  0  0  0  0  0  0  0  0  0  0  0
   62.2760   32.0180   47.6240 C   0  0  0  0  0  0  0  0  0  0  0  0
   63.3660   32.9210   47.0340 C   0  0  0  0  0  0  0  0  0  0  0  0
   63.8290   33.8440   47.9980 O   0  0  0  0  0  0  0  0  0  0  0  0
   64.5240   33.1650   49.0270 C   0  0  0  0  0  0  0  0  0  0  0  0
   63.7830   31.8990   49.5200 C   0  0  0  0  0  0  0  0  0  0  0  0
   59.0110   30.8940   50.6820 C   0  0  0  0  0  0  0  0  0  0  0  0
   58.1950   31.9250   49.8950 C   0  0  0  0  0  0  0  0  0  0  0  0
   58.1290   32.4260   45.6620 N   0  0  0  0  0  0  0  0  0  0  0  0
   57.5030   33.6790   45.2000 C   0  0  0  0  0  0  0  0  0  0  0  0
   58.5730   34.7030   44.8360 C   0  0  0  0  0  0  0  0  0  0  0  0
   57.2747   31.8686   43.2099 H   0  0  0  0  0  0  0  0  0  0  0  0
   57.7668   30.0312   43.3189 H   0  0  0  0  0  0  0  0  0  0  0  0
   59.6707   28.4621   45.5423 H   0  0  0  0  0  0  0  0  0  0  0  0
   55.6040   30.0970   45.6240 H   0  0  0  0  0  0  0  0  0  0  0  0
   59.5864   30.4658   47.8944 H   0  0  0  0  0  0  0  0  0  0  0  0
   61.0934   33.4395   49.6556 H   0  0  0  0  0  0  0  0  0  0  0  0
   59.8475   34.6340   50.1842 H   0  0  0  0  0  0  0  0  0  0  0  0
   61.0271   33.3049   52.0409 H   0  0  0  0  0  0  0  0  0  0  0  0
   59.2111   33.3086   52.0459 H   0  0  0  0  0  0  0  0  0  0  0  0
   62.2064   31.5989   51.5702 H   0  0  0  0  0  0  0  0  0  0  0  0
   61.5059   29.9298   51.6158 H   0  0  0  0  0  0  0  0  0  0  0  0
   62.1729   29.8740   49.4331 H   0  0  0  0  0  0  0  0  0  0  0  0
   60.6271   30.7759   49.1720 H   0  0  0  0  0  0  0  0  0  0  0  0
   62.3882   31.0045   47.2113 H   0  0  0  0  0  0  0  0  0  0  0  0
   61.2951   32.4398   47.3594 H   0  0  0  0  0  0  0  0  0  0  0  0
   64.2078   32.2977   46.6980 H   0  0  0  0  0  0  0  0  0  0  0  0
   62.9409   33.4794   46.1869 H   0  0  0  0  0  0  0  0  0  0  0  0
   65.5121   32.8674   48.6461 H   0  0  0  0  0  0  0  0  0  0  0  0
   64.6050   33.8537   49.8809 H   0  0  0  0  0  0  0  0  0  0  0  0
   64.2590   31.0062   49.0884 H   0  0  0  0  0  0  0  0  0  0  0  0
   63.8345   31.8529   50.6178 H   0  0  0  0  0  0  0  0  0  0  0  0
   59.4593   30.1881   49.9674 H   0  0  0  0  0  0  0  0  0  0  0  0
   58.3177   30.4031   51.3808 H   0  0  0  0  0  0  0  0  0  0  0  0
   57.6187   31.4142   49.1095 H   0  0  0  0  0  0  0  0  0  0  0  0
   57.5056   32.4445   50.5768 H   0  0  0  0  0  0  0  0  0  0  0  0
   56.8843   33.4705   44.3147 H   0  0  0  0  0  0  0  0  0  0  0  0
   56.8787   34.0863   46.0089 H   0  0  0  0  0  0  0  0  0  0  0  0
   59.0091   35.1203   45.7556 H   0  0  0  0  0  0  0  0  0  0  0  0
   59.3618   34.2147   44.2449 H   0  0  0  0  0  0  0  0  0  0  0  0
   58.1199   35.5125   44.2449 H   0  0  0  0  0  0  0  0  0  0  0  0
  1  2  2  0
  2  3  1  0
  3  4  2  3
  4  5  1  0
  5  6  1  0
  6  7  1  0
  7  8  2  0
  7  9  1  0
  9 10  1  0
 10 11  1  0
  3 12  1  0
 12 13  2  0
 13 14  1  0
 14 15  2  0
 14 16  1  0
 16 17  1  0
 17 18  1  0
 18 19  1  0
 19 20  1  0
 20 21  1  0
 21 22  1  0
 22 23  1  0
 23 24  1  0
 24 25  1  0
 25 26  1  0
 26 27  1  0
 19 28  1  0
 28 29  1  0
 13 30  1  0
 30 31  1  0
 31 32  1  0
 30  2  1  0
 10  5  2  0
 29 16  1  0
 27 22  1  0
  1 33  1  0
  1 34  1  0
  4 35  1  0
 11 36  1  0
 12 37  1  0
 17 38  1  0
 17 39  1  0
 18 40  1  0
 18 41  1  0
 20 42  1  0
 20 43  1  0
 21 44  1  0
 21 45  1  0
 23 46  1  0
 23 47  1  0
 24 48  1  0
 24 49  1  0
 26 50  1  0
 26 51  1  0
 27 52  1  0
 27 53  1  0
 28 54  1  0
 28 55  1  0
 29 56  1  0
 29 57  1  0
 31 58  1  0
 31 59  1  0
 32 60  1  0
 32 61  1  0
 32 62  1  0
M  CHG  2   6  -1   9  -1
M  END
>  <UniqueID>  (31) 
31

>  <SMILES>  (31) 
C=c1c(=Cc2[n-]c(=O)[n-]c2O)cc(C(=O)N2CCN(CCN3CCOCC3)CC2)n1CC

>  <Energy>  (31) 
152.4987515094007

>  <Genealogy>  (31) 
C=c1c(=Cc2[n-]c(=O)[n-]c2O)cc(C(=O)N2CCN(CCN3CCOCC3)CC2)n1CC (protonated)
C=c1c(=Cc2[n-]c(=O)[n-]c2O)cc(C(=O)N2CCN(CCN3CCOCC3)CC2)n1CC (3D coordinates assigned)
C=c1c(=Cc2[n-]c(=O)[n-]c2O)cc(C(=O)N2CCN(CCN3CCOCC3)CC2)n1CC (nonaromatic ring conformer: 152.4987515094007 kcal/mol)

>  <smiles>  (31) 
C=c1c(=Cc2[nH]c(=O)[nH]c2O)cc(C(=O)N2CCN(CCN3CCOCC3)CC2)n1CC

>  <score_type>  (31) 
oracle

>  <origin>  (31) 
adg

>  <m_score__min__energy>  (31) 
-14.210000000000001

>  <m_primary>  (31) 
energy

$$$$
31:0
     RDKit          3D

 65 68  0  0  0  0  0  0  0  0999 V2000
   56.7820   23.5720   43.7630 C   0  0  0  0  0  0  0  0  0  0  0  0
   57.1920   24.9980   44.0170 C   0  0  0  0  0  0  0  0  0  0  0  0
   57.7650   25.7480   42.9750 C   0  0  0  0  0  0  0  0  0  0  0  0
   58.1450   27.0750   43.1800 C   0  0  0  0  0  0  0  0  0  0  0  0
   57.9700   27.6760   44.4330 C   0  0  0  0  0  0  0  0  0  0  0  0
   58.3140   29.0590   44.6290 N   0  0  0  0  0  0  0  0  0  0  0  0
   59.6930   29.4330   44.9630 C   0  0  0  0  0  0  0  0  0  0  0  0
   60.2490   28.5070   46.0020 C   0  0  0  0  0  0  0  0  0  0  0  0
   61.1280   27.6630   45.6810 O   0  0  0  0  0  0  0  0  0  0  0  0
   59.7050   28.5300   47.3270 N   0  0  0  0  0  0  0  0  0  0  0  0
   59.8920   29.5290   48.3380 C   0  0  0  0  0  0  0  0  0  0  0  0
   58.8850   29.8690   49.2560 C   0  0  0  0  0  0  0  0  0  0  0  0
   59.1400   30.8050   50.2590 C   0  0  0  0  0  0  0  0  0  0  0  0
   60.4020   31.3940   50.3710 C   0  0  0  0  0  0  0  0  0  0  0  0
   61.4320   31.0500   49.4730 C   0  0  0  0  0  0  0  0  0  0  0  0
   62.8060   31.6140   49.5960 C   0  0  0  0  0  0  0  0  0  0  0  0
   63.6000   31.0950   50.4320 O   0  0  0  0  0  0  0  0  0  0  0  0
   63.2360   32.7690   48.8280 N   0  0  0  0  0  0  0  0  0  0  0  0
   62.2670   33.8930   48.9470 C   0  0  0  0  0  0  0  0  0  0  0  0
   61.3500   33.9920   47.7140 C   0  0  0  0  0  0  0  0  0  0  0  0
   62.0610   34.1940   46.5010 O   0  0  0  0  0  0  0  0  0  0  0  0
   63.3420   33.5760   46.4760 C   0  0  0  0  0  0  0  0  0  0  0  0
   63.4720   32.3680   47.4200 C   0  0  0  0  0  0  0  0  0  0  0  0
   61.1590   30.1100   48.4630 C   0  0  0  0  0  0  0  0  0  0  0  0
   57.1490   30.3020   44.2730 S   0  0  0  0  0  0  0  0  0  0  0  0
   56.9770   30.4170   42.7830 O   0  0  0  0  0  0  0  0  0  0  0  0
   55.8180   29.9350   44.8670 O   0  0  0  0  0  0  0  0  0  0  0  0
   57.6910   31.8450   44.9330 C   0  0  0  0  0  0  0  0  0  0  0  0
   57.9870   32.9210   44.0820 C   0  0  0  0  0  0  0  0  0  0  0  0
   58.4350   34.1350   44.6150 C   0  0  0  0  0  0  0  0  0  0  0  0
   58.5920   34.2800   45.9970 C   0  0  0  0  0  0  0  0  0  0  0  0
   58.3000   33.2120   46.8480 C   0  0  0  0  0  0  0  0  0  0  0  0
   57.8480   31.9980   46.3190 C   0  0  0  0  0  0  0  0  0  0  0  0
   57.4040   26.9340   45.4780 C   0  0  0  0  0  0  0  0  0  0  0  0
   57.0100   25.6010   45.2850 C   0  0  0  0  0  0  0  0  0  0  0  0
   56.3780   24.8470   46.4280 C   0  0  0  0  0  0  0  0  0  0  0  0
   56.6338   23.0565   44.7234 H   0  0  0  0  0  0  0  0  0  0  0  0
   55.8431   23.5569   43.1900 H   0  0  0  0  0  0  0  0  0  0  0  0
   57.5695   23.0606   43.1900 H   0  0  0  0  0  0  0  0  0  0  0  0
   57.9152   25.2844   41.9888 H   0  0  0  0  0  0  0  0  0  0  0  0
   58.5844   27.6522   42.3531 H   0  0  0  0  0  0  0  0  0  0  0  0
   60.3137   29.3753   44.0567 H   0  0  0  0  0  0  0  0  0  0  0  0
   59.6980   30.4588   45.3602 H   0  0  0  0  0  0  0  0  0  0  0  0
   57.8941   29.3969   49.1843 H   0  0  0  0  0  0  0  0  0  0  0  0
   58.3431   31.0806   50.9654 H   0  0  0  0  0  0  0  0  0  0  0  0
   60.5927   32.1309   51.1651 H   0  0  0  0  0  0  0  0  0  0  0  0
   64.1380   33.1230   49.2250 H   0  0  0  0  0  0  0  0  0  0  0  0
   61.6457   33.7341   49.8407 H   0  0  0  0  0  0  0  0  0  0  0  0
   62.8385   34.8298   49.0235 H   0  0  0  0  0  0  0  0  0  0  0  0
   60.7749   33.0580   47.6305 H   0  0  0  0  0  0  0  0  0  0  0  0
   60.6996   34.8669   47.8605 H   0  0  0  0  0  0  0  0  0  0  0  0
   63.5421   33.2358   45.4492 H   0  0  0  0  0  0  0  0  0  0  0  0
   64.0657   34.3291   46.8210 H   0  0  0  0  0  0  0  0  0  0  0  0
   62.7322   31.6059   47.1337 H   0  0  0  0  0  0  0  0  0  0  0  0
   64.4917   31.9642   47.3357 H   0  0  0  0  0  0  0  0  0  0  0  0
   61.9553   29.8266   47.7590 H   0  0  0  0  0  0  0  0  0  0  0  0
   57.8667   32.8100   42.9943 H   0  0  0  0  0  0  0  0  0  0  0  0
   58.6642   34.9770   43.9453 H   0  0  0  0  0  0  0  0  0  0  0  0
   58.9453   35.2348   46.4135 H   0  0  0  0  0  0  0  0  0  0  0  0
   58.4254   33.3252   47.9350 H   0  0  0  0  0  0  0  0  0  0  0  0
   57.6148   31.1601   46.9924 H   0  0  0  0  0  0  0  0  0  0  0  0
   57.2665   27.4029   46.4635 H   0  0  0  0  0  0  0  0  0  0  0  0
   56.7293   25.2661   47.3825 H   0  0  0  0  0  0  0  0  0  0  0  0
   55.2836   24.9394   46.3676 H   0  0  0  0  0  0  0  0  0  0  0  0
   56.6602   23.7855   46.3676 H   0  0  0  0  0  0  0  0  0  0  0  0
  1  2  1  0
  2  3  2  0
  3  4  1  0
  4  5  2  0
  5  6  1  0
  6  7  1  0
  7  8  1  0
  8  9  2  0
  8 10  1  0
 10 11  1  0
 11 12  2  0
 12 13  1  0
 13 14  2  0
 14 15  1  0
 15 16  1  0
 16 17  2  0
 16 18  1  0
 18 19  1  0
 19 20  1  0
 20 21  1  0
 21 22  1  0
 22 23  1  0
 15 24  2  0
  6 25  1  0
 25 26  2  0
 25 27  2  0
 25 28  1  0
 28 29  2  0
 29 30  1  0
 30 31  2  0
 31 32  1  0
 32 33  2  0
  5 34  1  0
 34 35  2  0
 35 36  1  0
 35  2  1  0
 24 11  1  0
 33 28  1  0
 23 18  1  0
  1 37  1  0
  1 38  1  0
  1 39  1  0
  3 40  1  0
  4 41  1  0
  7 42  1  0
  7 43  1  0
 12 44  1  0
 13 45  1  0
 14 46  1  0
 18 47  1  0
 19 48  1  0
 19 49  1  0
 20 50  1  0
 20 51  1  0
 22 52  1  0
 22 53  1  0
 23 54  1  0
 23 55  1  0
 24 56  1  0
 29 57  1  0
 30 58  1  0
 31 59  1  0
 32 60  1  0
 33 61  1  0
 34 62  1  0
 36 63  1  0
 36 64  1  0
 36 65  1  0
M  CHG  2  10  -1  18   1
M  END
>  <UniqueID>  (32) 
32

>  <SMILES>  (32) 
Cc1ccc(N(CC(=O)[N-]c2cccc(C(=O)[NH+]3CCOCC3)c2)S(=O)(=O)c2ccccc2)cc1C

>  <Energy>  (32) 
90.63320880966472

>  <Genealogy>  (32) 
Cc1ccc(N(CC(=O)[N-]c2cccc(C(=O)[NH+]3CCOCC3)c2)S(=O)(=O)c2ccccc2)cc1C (protonated)
Cc1ccc(N(CC(=O)[N-]c2cccc(C(=O)[NH+]3CCOCC3)c2)S(=O)(=O)c2ccccc2)cc1C (3D coordinates assigned)
Cc1ccc(N(CC(=O)[N-]c2cccc(C(=O)[NH+]3CCOCC3)c2)S(=O)(=O)c2ccccc2)cc1C (nonaromatic ring conformer: 90.63320880966472 kcal/mol)

>  <smiles>  (32) 
Cc1ccc(N(CC(=O)Nc2cccc(C(=O)N3CCOCC3)c2)S(=O)(=O)c2ccccc2)cc1C

>  <score_type>  (32) 
oracle

>  <origin>  (32) 
adg

>  <m_score__min__energy>  (32) 
-10.24

>  <m_primary>  (32) 
energy

$$$$
32:0
     RDKit          3D

 50 53  0  0  0  0  0  0  0  0999 V2000
   58.2140   27.0440   42.9210 C   0  0  0  0  0  0  0  0  0  0  0  0
   58.2210   26.7990   44.2410 C   0  0  0  0  0  0  0  0  0  0  0  0
   57.5500   25.7550   44.8960 C   0  0  0  0  0  0  0  0  0  0  0  0
   56.7640   24.8170   44.3250 C   0  0  0  0  0  0  0  0  0  0  0  0
   55.5200   24.2590   44.9030 C   0  0  0  0  0  0  0  0  0  0  0  0
   55.1210   22.9760   44.8380 N   0  0  0  0  0  0  0  0  0  0  0  0
   53.9490   22.9730   45.5060 C   0  0  0  0  0  0  0  0  0  0  0  0
   53.2610   21.9310   45.6640 O   0  0  0  0  0  0  0  0  0  0  0  0
   53.5690   24.1750   45.9920 N   0  0  0  0  0  0  0  0  0  0  0  0
   54.5760   24.9770   45.6010 C   0  0  0  0  0  0  0  0  0  0  0  0
   54.6360   26.3380   45.8820 O   0  0  0  0  0  0  0  0  0  0  0  0
   57.8500   25.8980   46.2470 C   0  0  0  0  0  0  0  0  0  0  0  0
   58.6720   27.0010   46.3610 C   0  0  0  0  0  0  0  0  0  0  0  0
   59.2600   27.4850   47.6550 C   0  0  0  0  0  0  0  0  0  0  0  0
   58.9020   27.5510   45.1460 N   0  0  0  0  0  0  0  0  0  0  0  0
   59.6930   28.7640   44.8780 C   0  0  0  0  0  0  0  0  0  0  0  0
   58.8110   29.9850   44.8920 C   0  0  0  0  0  0  0  0  0  0  0  0
   57.8490   30.1850   43.8890 C   0  0  0  0  0  0  0  0  0  0  0  0
   57.0400   31.3240   43.9080 C   0  0  0  0  0  0  0  0  0  0  0  0
   57.1860   32.2730   44.9220 C   0  0  0  0  0  0  0  0  0  0  0  0
   58.1270   32.0770   45.9420 C   0  0  0  0  0  0  0  0  0  0  0  0
   58.2460   33.0590   46.9810 N   0  0  0  0  0  0  0  0  0  0  0  0
   59.3750   33.9190   47.1920 C   0  0  0  0  0  0  0  0  0  0  0  0
   59.1750   35.1580   47.2900 O   0  0  0  0  0  0  0  0  0  0  0  0
   60.7520   33.3880   47.3500 C   0  0  0  0  0  0  0  0  0  0  0  0
   61.0340   32.3820   48.2960 C   0  0  0  0  0  0  0  0  0  0  0  0
   62.3410   31.9100   48.4590 C   0  0  0  0  0  0  0  0  0  0  0  0
   63.3790   32.4440   47.6910 C   0  0  0  0  0  0  0  0  0  0  0  0
   63.1120   33.4380   46.7460 C   0  0  0  0  0  0  0  0  0  0  0  0
   61.8060   33.9140   46.5790 C   0  0  0  0  0  0  0  0  0  0  0  0
   58.9530   30.9430   45.9090 C   0  0  0  0  0  0  0  0  0  0  0  0
   58.7801   27.8961   42.5168 H   0  0  0  0  0  0  0  0  0  0  0  0
   57.6422   26.3926   42.2437 H   0  0  0  0  0  0  0  0  0  0  0  0
   57.0758   24.4330   43.3425 H   0  0  0  0  0  0  0  0  0  0  0  0
   54.2870   26.6980   46.7630 H   0  0  0  0  0  0  0  0  0  0  0  0
   57.4991   25.2549   47.0676 H   0  0  0  0  0  0  0  0  0  0  0  0
   58.7135   27.0352   48.4970 H   0  0  0  0  0  0  0  0  0  0  0  0
   60.3194   27.1938   47.7080 H   0  0  0  0  0  0  0  0  0  0  0  0
   59.1778   28.5806   47.7080 H   0  0  0  0  0  0  0  0  0  0  0  0
   60.4679   28.8687   45.6517 H   0  0  0  0  0  0  0  0  0  0  0  0
   60.1572   28.6728   43.8849 H   0  0  0  0  0  0  0  0  0  0  0  0
   57.7319   29.4426   43.0858 H   0  0  0  0  0  0  0  0  0  0  0  0
   56.2856   31.4737   43.1216 H   0  0  0  0  0  0  0  0  0  0  0  0
   56.5602   33.1776   44.9202 H   0  0  0  0  0  0  0  0  0  0  0  0
   60.2217   31.9655   48.9098 H   0  0  0  0  0  0  0  0  0  0  0  0
   62.5516   31.1177   49.1925 H   0  0  0  0  0  0  0  0  0  0  0  0
   64.4080   32.0813   47.8306 H   0  0  0  0  0  0  0  0  0  0  0  0
   63.9286   33.8469   46.1328 H   0  0  0  0  0  0  0  0  0  0  0  0
   61.6022   34.7037   45.8409 H   0  0  0  0  0  0  0  0  0  0  0  0
   59.7184   30.8033   46.6866 H   0  0  0  0  0  0  0  0  0  0  0  0
  1  2  2  0
  2  3  1  0
  3  4  2  3
  4  5  1  0
  5  6  1  0
  6  7  1  0
  7  8  2  0
  7  9  1  0
  9 10  1  0
 10 11  1  0
  3 12  1  0
 12 13  2  0
 13 14  1  0
 13 15  1  0
 15 16  1  0
 16 17  1  0
 17 18  2  0
 18 19  1  0
 19 20  2  0
 20 21  1  0
 21 22  1  0
 22 23  1  0
 23 24  2  0
 23 25  1  0
 25 26  2  0
 26 27  1  0
 27 28  2  0
 28 29  1  0
 29 30  2  0
 21 31  2  0
 15  2  1  0
 31 17  1  0
 10  5  2  0
 30 25  1  0
  1 32  1  0
  1 33  1  0
  4 34  1  0
 11 35  1  0
 12 36  1  0
 14 37  1  0
 14 38  1  0
 14 39  1  0
 16 40  1  0
 16 41  1  0
 18 42  1  0
 19 43  1  0
 20 44  1  0
 26 45  1  0
 27 46  1  0
 28 47  1  0
 29 48  1  0
 30 49  1  0
 31 50  1  0
M  CHG  3   6  -1   9  -1  22  -1
M  END
>  <UniqueID>  (33) 
33

>  <SMILES>  (33) 
C=c1c(=Cc2[n-]c(=O)[n-]c2O)cc(C)n1Cc1cccc([N-]C(=O)c2ccccc2)c1

>  <Energy>  (33) 
115.9388464842096

>  <Genealogy>  (33) 
C=c1c(=Cc2[n-]c(=O)[n-]c2O)cc(C)n1Cc1cccc([N-]C(=O)c2ccccc2)c1 (protonated)
C=c1c(=Cc2[n-]c(=O)[n-]c2O)cc(C)n1Cc1cccc([N-]C(=O)c2ccccc2)c1 (3D coordinates assigned)
C=c1c(=Cc2[n-]c(=O)[n-]c2O)cc(C)n1Cc1cccc([N-]C(=O)c2ccccc2)c1 (optimized conformer: 115.9388464842096 kcal/mol)

>  <smiles>  (33) 
C=c1c(=Cc2[nH]c(=O)[nH]c2O)cc(C)n1Cc1cccc(NC(=O)c2ccccc2)c1

>  <score_type>  (33) 
oracle

>  <origin>  (33) 
adg

>  <m_score__min__energy>  (33) 
-15.470000000000001

>  <m_primary>  (33) 
energy

$$$$
33:0
     RDKit          3D

 39 41  0  0  0  0  0  0  0  0999 V2000
   58.9450   25.9400   45.5880 C   0  0  0  0  0  0  0  0  0  0  0  0
   57.4580   25.9780   45.7330 C   0  0  0  0  0  0  0  0  0  0  0  0
   56.6770   24.8830   45.7460 N   0  0  0  0  0  0  0  0  0  0  0  0
   55.4380   25.3910   45.9090 C   0  0  0  0  0  0  0  0  0  0  0  0
   54.4110   24.6660   45.9660 O   0  0  0  0  0  0  0  0  0  0  0  0
   55.3860   26.7350   46.0040 N   0  0  0  0  0  0  0  0  0  0  0  0
   56.6760   27.1020   45.9030 C   0  0  0  0  0  0  0  0  0  0  0  0
   57.1410   28.5280   45.9120 C   0  0  0  0  0  0  0  0  0  0  0  0
   56.3060   29.3730   44.9860 C   0  0  0  0  0  0  0  0  0  0  0  0
   55.1620   28.9670   44.6420 O   0  0  0  0  0  0  0  0  0  0  0  0
   56.7890   30.6100   44.4420 N   0  0  0  0  0  0  0  0  0  0  0  0
   57.3440   31.5880   45.0940 C   0  0  0  0  0  0  0  0  0  0  0  0
   56.7150   32.7700   45.2770 N   0  0  0  0  0  0  0  0  0  0  0  0
   57.4570   33.6260   46.0280 C   0  0  0  0  0  0  0  0  0  0  0  0
   58.6790   33.1170   46.4480 C   0  0  0  0  0  0  0  0  0  0  0  0
   59.8400   33.9390   47.4730 S   0  0  0  0  0  0  0  0  0  0  0  0
   59.3330   33.9520   48.8890 O   0  0  0  0  0  0  0  0  0  0  0  0
   59.9920   35.3570   47.0000 O   0  0  0  0  0  0  0  0  0  0  0  0
   61.3770   33.1200   47.3820 N   0  0  0  0  0  0  0  0  0  0  0  0
   62.2750   33.7510   46.4130 C   0  0  0  0  0  0  0  0  0  0  0  0
   63.6940   33.4490   46.8720 C   0  0  0  0  0  0  0  0  0  0  0  0
   63.5730   33.0660   48.3400 C   0  0  0  0  0  0  0  0  0  0  0  0
   62.0880   33.1510   48.6630 C   0  0  0  0  0  0  0  0  0  0  0  0
   58.8400   31.5430   45.8820 S   0  0  0  0  0  0  0  0  0  0  0  0
   59.4104   25.9281   46.5846 H   0  0  0  0  0  0  0  0  0  0  0  0
   59.2366   25.0341   45.0363 H   0  0  0  0  0  0  0  0  0  0  0  0
   59.2825   26.8298   45.0363 H   0  0  0  0  0  0  0  0  0  0  0  0
   57.0600   28.9265   46.9341 H   0  0  0  0  0  0  0  0  0  0  0  0
   58.1856   28.5586   45.5686 H   0  0  0  0  0  0  0  0  0  0  0  0
   57.1169   34.6406   46.2827 H   0  0  0  0  0  0  0  0  0  0  0  0
   61.2110   32.1230   47.1040 H   0  0  0  0  0  0  0  0  0  0  0  0
   62.1040   33.3336   45.4097 H   0  0  0  0  0  0  0  0  0  0  0  0
   62.0990   34.8354   46.3577 H   0  0  0  0  0  0  0  0  0  0  0  0
   64.1171   32.6163   46.2910 H   0  0  0  0  0  0  0  0  0  0  0  0
   64.3618   34.3113   46.7287 H   0  0  0  0  0  0  0  0  0  0  0  0
   63.9434   32.0430   48.5019 H   0  0  0  0  0  0  0  0  0  0  0  0
   64.1688   33.7290   48.9845 H   0  0  0  0  0  0  0  0  0  0  0  0
   61.7857   32.2959   49.2854 H   0  0  0  0  0  0  0  0  0  0  0  0
   61.8563   34.0693   49.2225 H   0  0  0  0  0  0  0  0  0  0  0  0
  1  2  1  0
  2  3  1  0
  3  4  1  0
  4  5  2  0
  4  6  1  0
  6  7  1  0
  7  8  1  0
  8  9  1  0
  9 10  2  0
  9 11  1  0
 11 12  2  3
 12 13  1  0
 13 14  1  0
 14 15  2  0
 15 16  1  0
 16 17  2  0
 16 18  2  0
 16 19  1  0
 19 20  1  0
 20 21  1  0
 21 22  1  0
 22 23  1  0
 15 24  1  0
  7  2  2  0
 24 12  1  0
 23 19  1  0
  1 25  1  0
  1 26  1  0
  1 27  1  0
  8 28  1  0
  8 29  1  0
 14 30  1  0
 19 31  1  0
 20 32  1  0
 20 33  1  0
 21 34  1  0
 21 35  1  0
 22 36  1  0
 22 37  1  0
 23 38  1  0
 23 39  1  0
M  CHG  4   3  -1   6  -1  13  -1  19   1
M  END
>  <UniqueID>  (34) 
34

>  <SMILES>  (34) 
Cc1[n-]c(=O)[n-]c1CC(=O)N=c1[n-]cc(S(=O)(=O)[NH+]2CCCC2)s1

>  <Energy>  (34) 
102.6353027968478

>  <Genealogy>  (34) 
Cc1[n-]c(=O)[n-]c1CC(=O)N=c1[n-]cc(S(=O)(=O)[NH+]2CCCC2)s1 (protonated)
Cc1[n-]c(=O)[n-]c1CC(=O)N=c1[n-]cc(S(=O)(=O)[NH+]2CCCC2)s1 (3D coordinates assigned)
Cc1[n-]c(=O)[n-]c1CC(=O)N=c1[n-]cc(S(=O)(=O)[NH+]2CCCC2)s1 (nonaromatic ring conformer: 102.6353027968478 kcal/mol)

>  <smiles>  (34) 
Cc1[nH]c(=O)[nH]c1CC(=O)N=c1[nH]cc(S(=O)(=O)N2CCCC2)s1

>  <score_type>  (34) 
oracle

>  <origin>  (34) 
adg

>  <m_score__min__energy>  (34) 
-12.859999999999999

>  <m_primary>  (34) 
energy

$$$$
34:0
     RDKit          3D

 40 42  0  0  0  0  0  0  0  0999 V2000
   60.4070   26.5250   47.9090 N   0  0  0  0  0  0  0  0  0  0  0  0
   60.1590   27.5810   48.3120 C   0  0  0  0  0  0  0  0  0  0  0  0
   59.8500   28.8950   48.8140 C   0  0  0  0  0  0  0  0  0  0  0  0
   59.8080   29.1250   50.1930 C   0  0  0  0  0  0  0  0  0  0  0  0
   59.5040   30.3970   50.6800 C   0  0  0  0  0  0  0  0  0  0  0  0
   59.2460   31.4460   49.7940 C   0  0  0  0  0  0  0  0  0  0  0  0
   59.2960   31.2350   48.4010 C   0  0  0  0  0  0  0  0  0  0  0  0
   59.0180   32.3330   47.4410 C   0  0  0  0  0  0  0  0  0  0  0  0
   58.9330   32.0990   46.0560 C   0  0  0  0  0  0  0  0  0  0  0  0
   58.6610   33.1580   45.1800 C   0  0  0  0  0  0  0  0  0  0  0  0
   58.5850   32.9050   43.9020 N   0  0  0  0  0  0  0  0  0  0  0  0
   57.5600   32.1170   43.2140 C   0  0  0  0  0  0  0  0  0  0  0  0
   57.3820   30.7730   43.8730 C   0  0  0  0  0  0  0  0  0  0  0  0
   58.4880   29.9410   44.1090 C   0  0  0  0  0  0  0  0  0  0  0  0
   58.3160   28.6980   44.7270 C   0  0  0  0  0  0  0  0  0  0  0  0
   57.0400   28.2760   45.1200 C   0  0  0  0  0  0  0  0  0  0  0  0
   56.8260   26.7170   45.9100 S   0  0  0  0  0  0  0  0  0  0  0  0
   55.1400   26.3550   46.0260 N   0  0  0  0  0  0  0  0  0  0  0  0
   57.4250   26.7570   47.2880 O   0  0  0  0  0  0  0  0  0  0  0  0
   57.5160   25.6440   45.1150 O   0  0  0  0  0  0  0  0  0  0  0  0
   55.9370   29.1130   44.9040 C   0  0  0  0  0  0  0  0  0  0  0  0
   56.1070   30.3550   44.2860 C   0  0  0  0  0  0  0  0  0  0  0  0
   58.4790   34.4500   45.7100 C   0  0  0  0  0  0  0  0  0  0  0  0
   58.5590   34.6430   47.0900 C   0  0  0  0  0  0  0  0  0  0  0  0
   58.8210   33.5960   47.9120 N   0  0  0  0  0  0  0  0  0  0  0  0
   59.5910   29.9430   47.9220 C   0  0  0  0  0  0  0  0  0  0  0  0
   60.0147   28.3029   50.8940 H   0  0  0  0  0  0  0  0  0  0  0  0
   59.4674   30.5743   51.7650 H   0  0  0  0  0  0  0  0  0  0  0  0
   59.0020   32.4442   50.1864 H   0  0  0  0  0  0  0  0  0  0  0  0
   59.0803   31.0832   45.6606 H   0  0  0  0  0  0  0  0  0  0  0  0
   56.6053   32.6625   43.2450 H   0  0  0  0  0  0  0  0  0  0  0  0
   57.8785   31.9585   42.1731 H   0  0  0  0  0  0  0  0  0  0  0  0
   59.4938   30.2680   43.8067 H   0  0  0  0  0  0  0  0  0  0  0  0
   59.1865   28.0495   44.9050 H   0  0  0  0  0  0  0  0  0  0  0  0
   54.7120   27.0870   46.6370 H   0  0  0  0  0  0  0  0  0  0  0  0
   54.9342   28.7915   45.2219 H   0  0  0  0  0  0  0  0  0  0  0  0
   55.2373   31.0084   44.1224 H   0  0  0  0  0  0  0  0  0  0  0  0
   58.2755   35.2999   45.0420 H   0  0  0  0  0  0  0  0  0  0  0  0
   58.4091   35.6475   47.5126 H   0  0  0  0  0  0  0  0  0  0  0  0
   59.6181   29.7561   46.8383 H   0  0  0  0  0  0  0  0  0  0  0  0
  1  2  3  0
  2  3  1  0
  3  4  2  0
  4  5  1  0
  5  6  2  0
  6  7  1  0
  7  8  1  0
  8  9  2  0
  9 10  1  0
 10 11  2  3
 11 12  1  0
 12 13  1  0
 13 14  2  0
 14 15  1  0
 15 16  2  0
 16 17  1  0
 17 18  1  0
 17 19  2  0
 17 20  2  0
 16 21  1  0
 21 22  2  0
 10 23  1  0
 23 24  2  0
 24 25  1  0
  7 26  2  0
 26  3  1  0
 25  8  1  0
 22 13  1  0
  4 27  1  0
  5 28  1  0
  6 29  1  0
  9 30  1  0
 12 31  1  0
 12 32  1  0
 14 33  1  0
 15 34  1  0
 18 35  1  0
 21 36  1  0
 22 37  1  0
 23 38  1  0
 24 39  1  0
 26 40  1  0
M  CHG  2  18  -1  25  -1
M  END
>  <UniqueID>  (35) 
35

>  <SMILES>  (35) 
N#Cc1cccc(-c2cc(=NCc3ccc(S([NH-])(=O)=O)cc3)cc[n-]2)c1

>  <Energy>  (35) 
48.14498124020302

>  <Genealogy>  (35) 
N#Cc1cccc(-c2cc(=NCc3ccc(S([NH-])(=O)=O)cc3)cc[n-]2)c1 (protonated)
N#Cc1cccc(-c2cc(=NCc3ccc(S([NH-])(=O)=O)cc3)cc[n-]2)c1 (3D coordinates assigned)
N#Cc1cccc(-c2cc(=NCc3ccc(S([NH-])(=O)=O)cc3)cc[n-]2)c1 (optimized conformer: 48.14498124020302 kcal/mol)

>  <smiles>  (35) 
N#Cc1cccc(-c2cc(=NCc3ccc(S(N)(=O)=O)cc3)cc[nH]2)c1

>  <score_type>  (35) 
oracle

>  <origin>  (35) 
adg

>  <m_score__min__energy>  (35) 
-12.119999999999999

>  <m_primary>  (35) 
energy

$$$$
35:0
     RDKit          3D

 40 42  0  0  0  0  0  0  0  0999 V2000
   60.3290   28.7910   51.4620 O   0  0  0  0  0  0  0  0  0  0  0  0
   59.4190   29.4110   50.8500 C   0  0  0  0  0  0  0  0  0  0  0  0
   59.2890   29.1980   49.4370 N   0  0  0  0  0  0  0  0  0  0  0  0
   60.1140   29.8000   48.3960 C   0  0  0  0  0  0  0  0  0  0  0  0
   59.8220   31.2710   48.3230 C   0  0  0  0  0  0  0  0  0  0  0  0
   60.7260   32.2000   48.8630 C   0  0  0  0  0  0  0  0  0  0  0  0
   60.4690   33.5720   48.7640 C   0  0  0  0  0  0  0  0  0  0  0  0
   59.3170   34.0240   48.1150 C   0  0  0  0  0  0  0  0  0  0  0  0
   58.4210   33.1050   47.5610 C   0  0  0  0  0  0  0  0  0  0  0  0
   58.6740   31.7320   47.6580 C   0  0  0  0  0  0  0  0  0  0  0  0
   58.5360   30.3260   51.6140 C   0  0  0  0  0  0  0  0  0  0  0  0
   58.8390   31.5410   51.7550 O   0  0  0  0  0  0  0  0  0  0  0  0
   57.2890   29.8270   52.2370 C   0  0  0  0  0  0  0  0  0  0  0  0
   57.2910   28.6700   53.0470 C   0  0  0  0  0  0  0  0  0  0  0  0
   58.4430   27.9070   53.2450 O   0  0  0  0  0  0  0  0  0  0  0  0
   56.1400   28.2610   53.6410 N   0  0  0  0  0  0  0  0  0  0  0  0
   54.9660   28.9210   53.4810 C   0  0  0  0  0  0  0  0  0  0  0  0
   54.8970   30.0650   52.6740 C   0  0  0  0  0  0  0  0  0  0  0  0
   53.5990   30.7650   52.4970 C   0  0  0  0  0  0  0  0  0  0  0  0
   52.7190   30.9250   53.5820 C   0  0  0  0  0  0  0  0  0  0  0  0
   51.5020   31.5920   53.4130 C   0  0  0  0  0  0  0  0  0  0  0  0
   51.1540   32.1090   52.1620 C   0  0  0  0  0  0  0  0  0  0  0  0
   49.9440   32.7710   51.9960 O   0  0  0  0  0  0  0  0  0  0  0  0
   52.0240   31.9610   51.0790 C   0  0  0  0  0  0  0  0  0  0  0  0
   53.2420   31.2950   51.2450 C   0  0  0  0  0  0  0  0  0  0  0  0
   56.0790   30.5280   52.0610 C   0  0  0  0  0  0  0  0  0  0  0  0
   56.0620   31.5930   51.3830 O   0  0  0  0  0  0  0  0  0  0  0  0
   61.1769   29.6474   48.6348 H   0  0  0  0  0  0  0  0  0  0  0  0
   59.8878   29.3300   47.4275 H   0  0  0  0  0  0  0  0  0  0  0  0
   61.6391   31.8481   49.3654 H   0  0  0  0  0  0  0  0  0  0  0  0
   61.1748   34.2957   49.1977 H   0  0  0  0  0  0  0  0  0  0  0  0
   59.1152   35.1027   48.0400 H   0  0  0  0  0  0  0  0  0  0  0  0
   57.5157   33.4616   47.0480 H   0  0  0  0  0  0  0  0  0  0  0  0
   57.9719   31.0120   47.2123 H   0  0  0  0  0  0  0  0  0  0  0  0
   59.3190   28.0940   52.7750 H   0  0  0  0  0  0  0  0  0  0  0  0
   54.0610   28.5557   53.9885 H   0  0  0  0  0  0  0  0  0  0  0  0
   52.9897   30.5230   54.5695 H   0  0  0  0  0  0  0  0  0  0  0  0
   50.8174   31.7101   54.2658 H   0  0  0  0  0  0  0  0  0  0  0  0
   51.7504   32.3689   50.0947 H   0  0  0  0  0  0  0  0  0  0  0  0
   53.9255   31.1850   50.3902 H   0  0  0  0  0  0  0  0  0  0  0  0
  1  2  2  0
  2  3  1  0
  3  4  1  0
  4  5  1  0
  5  6  2  0
  6  7  1  0
  7  8  2  0
  8  9  1  0
  9 10  2  0
  2 11  1  0
 11 12  2  0
 11 13  1  0
 13 14  2  0
 14 15  1  0
 14 16  1  0
 16 17  1  0
 17 18  2  0
 18 19  1  0
 19 20  2  0
 20 21  1  0
 21 22  2  0
 22 23  1  0
 22 24  1  0
 24 25  2  0
 18 26  1  0
 26 27  2  0
 10  5  1  0
 26 13  1  0
 25 19  1  0
  4 28  1  0
  4 29  1  0
  6 30  1  0
  7 31  1  0
  8 32  1  0
  9 33  1  0
 10 34  1  0
 15 35  1  0
 17 36  1  0
 20 37  1  0
 21 38  1  0
 24 39  1  0
 25 40  1  0
M  CHG  3   3  -1  16  -1  23  -1
M  END
>  <UniqueID>  (36) 
36

>  <SMILES>  (36) 
O=C([N-]Cc1ccccc1)C(=O)c1c(O)[n-]cc(-c2ccc([O-])cc2)c1=O

>  <Energy>  (36) 
58.36422368207835

>  <Genealogy>  (36) 
O=C([N-]Cc1ccccc1)C(=O)c1c(O)[n-]cc(-c2ccc([O-])cc2)c1=O (protonated)
O=C([N-]Cc1ccccc1)C(=O)c1c(O)[n-]cc(-c2ccc([O-])cc2)c1=O (3D coordinates assigned)
O=C([N-]Cc1ccccc1)C(=O)c1c(O)[n-]cc(-c2ccc([O-])cc2)c1=O (optimized conformer: 58.36422368207835 kcal/mol)

>  <smiles>  (36) 
O=C(NCc1ccccc1)C(=O)c1c(O)[nH]cc(-c2ccc(O)cc2)c1=O

>  <score_type>  (36) 
oracle

>  <origin>  (36) 
adg

>  <m_score__min__energy>  (36) 
-12.630000000000001

>  <m_primary>  (36) 
energy

$$$$
36:0
     RDKit          3D

 40 42  0  0  0  0  0  0  0  0999 V2000
   54.2289   24.3039   45.3311 H   0  0  0  0  0  0  0  0  0  0  0  0
   55.2360   24.7360   45.4260 C   0  0  0  0  0  0  0  0  0  0  0  0
   55.5250   25.7390   46.2970 N   0  0  0  0  0  0  0  0  0  0  0  0
   56.8290   26.0950   46.2300 C   0  0  0  0  0  0  0  0  0  0  0  0
   57.3820   27.0290   46.9490 N   0  0  0  0  0  0  0  0  0  0  0  0
   57.9280   28.2880   46.5110 C   0  0  0  0  0  0  0  0  0  0  0  0
   58.6850   28.9130   47.3020 O   0  0  0  0  0  0  0  0  0  0  0  0
   57.6330   28.8750   45.1530 C   0  0  0  0  0  0  0  0  0  0  0  0
   58.2583   28.3692   44.4025 H   0  0  0  0  0  0  0  0  0  0  0  0
   56.5640   28.7266   44.9402 H   0  0  0  0  0  0  0  0  0  0  0  0
   57.9110   30.3100   45.1120 N   0  0  0  0  0  0  0  0  0  0  0  0
   58.6770   30.6860   45.7140 H   0  0  0  0  0  0  0  0  0  0  0  0
   57.2340   31.2020   44.2140 C   0  0  0  0  0  0  0  0  0  0  0  0
   56.3210   30.7710   43.4580 O   0  0  0  0  0  0  0  0  0  0  0  0
   57.6340   32.6420   44.1420 C   0  0  0  0  0  0  0  0  0  0  0  0
   58.2853   32.7969   43.2692 H   0  0  0  0  0  0  0  0  0  0  0  0
   56.7325   33.2651   44.0470 H   0  0  0  0  0  0  0  0  0  0  0  0
   58.3710   33.0260   45.3860 C   0  0  0  0  0  0  0  0  0  0  0  0
   59.6520   32.6230   45.6110 N   0  0  0  0  0  0  0  0  0  0  0  0
   60.1070   33.0320   46.8170 C   0  0  0  0  0  0  0  0  0  0  0  0
   61.4280   32.7290   47.3090 N   0  0  0  0  0  0  0  0  0  0  0  0
   62.5810   33.4540   46.7600 C   0  0  0  0  0  0  0  0  0  0  0  0
   62.8853   32.9860   45.8122 H   0  0  0  0  0  0  0  0  0  0  0  0
   62.2945   34.5023   46.5897 H   0  0  0  0  0  0  0  0  0  0  0  0
   63.7540   33.4140   47.7410 C   0  0  0  0  0  0  0  0  0  0  0  0
   64.6478   33.8278   47.2513 H   0  0  0  0  0  0  0  0  0  0  0  0
   63.4922   34.0101   48.6277 H   0  0  0  0  0  0  0  0  0  0  0  0
   64.0220   32.0880   48.1500 O   0  0  0  0  0  0  0  0  0  0  0  0
   62.9320   31.5980   48.9040 C   0  0  0  0  0  0  0  0  0  0  0  0
   63.1892   30.6069   49.3060 H   0  0  0  0  0  0  0  0  0  0  0  0
   62.7260   32.3039   49.7221 H   0  0  0  0  0  0  0  0  0  0  0  0
   61.6750   31.4760   48.0360 C   0  0  0  0  0  0  0  0  0  0  0  0
   61.8125   30.6588   47.3126 H   0  0  0  0  0  0  0  0  0  0  0  0
   60.8128   31.2659   48.6860 H   0  0  0  0  0  0  0  0  0  0  0  0
   58.9240   33.8950   47.6530 S   0  0  0  0  0  0  0  0  0  0  0  0
   57.7860   33.7490   46.4240 C   0  0  0  0  0  0  0  0  0  0  0  0
   56.7626   34.1521   46.4369 H   0  0  0  0  0  0  0  0  0  0  0  0
   57.6760   25.1890   45.0950 S   0  0  0  0  0  0  0  0  0  0  0  0
   56.3140   24.3000   44.6650 C   0  0  0  0  0  0  0  0  0  0  0  0
   56.2700   22.9200   43.3500 Br  0  0  0  0  0  0  0  0  0  0  0  0
  1  2  1  0
  2  3  1  0
  3  4  1  0
  4  5  2  0
  5  6  1  0
  6  7  2  0
  6  8  1  0
  8  9  1  0
  8 10  1  0
  8 11  1  0
 11 12  1  0
 11 13  1  0
 13 14  2  0
 13 15  1  0
 15 16  1  0
 15 17  1  0
 15 18  1  0
 18 19  1  0
 19 20  2  0
 20 21  1  0
 21 22  1  0
 22 23  1  0
 22 24  1  0
 22 25  1  0
 25 26  1  0
 25 27  1  0
 25 28  1  0
 28 29  1  0
 29 30  1  0
 29 31  1  0
 29 32  1  0
 32 33  1  0
 32 34  1  0
 20 35  1  0
 35 36  1  0
 36 37  1  0
  4 38  1  0
 38 39  1  0
 39 40  1  0
 39  2  2  0
 36 18  2  0
 32 21  1  0
M  CHG  1   3  -1
M  END
>  <UniqueID>  (37) 
37

>  <SMILES>  (37) 
O=C(CNC(=O)Cc1csc(N2CCOCC2)n1)/N=c1\[n-]cc(Br)s1

>  <Energy>  (37) 
101.54752405170778

>  <Genealogy>  (37) 
O=C(CNC(=O)Cc1csc(N2CCOCC2)n1)N=c1[n-]cc(Br)s1 (protonated)
O=C(CNC(=O)Cc1csc(N2CCOCC2)n1)/N=c1\[n-]cc(Br)s1 (cis-trans isomerization)
O=C(CNC(=O)Cc1csc(N2CCOCC2)n1)/N=c1\[n-]cc(Br)s1 (3D coordinates assigned)
O=C(CNC(=O)Cc1csc(N2CCOCC2)n1)/N=c1\[n-]cc(Br)s1 (nonaromatic ring conformer: 101.54752405170778 kcal/mol)

>  <smiles>  (37) 
O=C(CNC(=O)Cc1csc(N2CCOCC2)n1)N=c1[nH]cc(Br)s1

>  <score_type>  (37) 
oracle

>  <origin>  (37) 
adg

>  <m_score__min__energy>  (37) 
-10.279999999999999

>  <m_primary>  (37) 
energy

$$$$
37:0
     RDKit          3D

 51 53  0  0  0  0  0  0  0  0999 V2000
   52.9520   28.5244   52.7155 H   0  0  0  0  0  0  0  0  0  0  0  0
   54.0430   28.4010   52.6490 C   0  0  0  0  0  0  0  0  0  0  0  0
   54.4888   27.3983   52.7259 H   0  0  0  0  0  0  0  0  0  0  0  0
   54.8260   29.4680   52.4750 C   0  0  0  0  0  0  0  0  0  0  0  0
   56.1310   29.3800   52.3890 O   0  0  0  0  0  0  0  0  0  0  0  0
   56.6400   30.5810   52.2170 C   0  0  0  0  0  0  0  0  0  0  0  0
   58.1000   30.7870   52.0450 C   0  0  0  0  0  0  0  0  0  0  0  0
   58.8620   29.9150   52.5470 O   0  0  0  0  0  0  0  0  0  0  0  0
   58.7000   31.9240   51.3650 N   0  0  0  0  0  0  0  0  0  0  0  0
   58.6420   32.7170   52.0510 H   0  0  0  0  0  0  0  0  0  0  0  0
   60.1530   31.7520   51.1250 C   0  0  0  0  0  0  0  0  0  0  0  0
   60.7067   32.1705   51.9784 H   0  0  0  0  0  0  0  0  0  0  0  0
   60.3554   30.6768   51.0108 H   0  0  0  0  0  0  0  0  0  0  0  0
   60.6040   32.4560   49.8520 C   0  0  0  0  0  0  0  0  0  0  0  0
   60.3601   33.5268   49.9147 H   0  0  0  0  0  0  0  0  0  0  0  0
   61.6911   32.3444   49.7264 H   0  0  0  0  0  0  0  0  0  0  0  0
   59.9030   31.8550   48.7090 N   0  0  0  0  0  0  0  0  0  0  0  0
   60.4270   32.3810   47.4310 C   0  0  0  0  0  0  0  0  0  0  0  0
   61.5154   32.5167   47.5140 H   0  0  0  0  0  0  0  0  0  0  0  0
   60.1952   31.6649   46.6288 H   0  0  0  0  0  0  0  0  0  0  0  0
   59.7720   33.7320   47.0980 C   0  0  0  0  0  0  0  0  0  0  0  0
   59.1459   34.0364   47.9497 H   0  0  0  0  0  0  0  0  0  0  0  0
   60.5829   34.4496   46.9041 H   0  0  0  0  0  0  0  0  0  0  0  0
   58.8890   33.6840   45.8320 C   0  0  0  0  0  0  0  0  0  0  0  0
   59.0759   32.7209   45.3344 H   0  0  0  0  0  0  0  0  0  0  0  0
   57.3920   33.7500   46.1690 C   0  0  0  0  0  0  0  0  0  0  0  0
   57.2620   33.7557   47.2613 H   0  0  0  0  0  0  0  0  0  0  0  0
   56.9605   34.6680   45.7435 H   0  0  0  0  0  0  0  0  0  0  0  0
   56.8814   32.8735   45.7435 H   0  0  0  0  0  0  0  0  0  0  0  0
   59.2610   34.8390   44.8930 C   0  0  0  0  0  0  0  0  0  0  0  0
   59.5445   35.7192   45.4888 H   0  0  0  0  0  0  0  0  0  0  0  0
   60.1075   34.5376   44.2585 H   0  0  0  0  0  0  0  0  0  0  0  0
   58.3977   35.0883   44.2585 H   0  0  0  0  0  0  0  0  0  0  0  0
   58.4240   31.9810   48.8100 C   0  0  0  0  0  0  0  0  0  0  0  0
   58.0970   32.7413   48.0854 H   0  0  0  0  0  0  0  0  0  0  0  0
   58.0179   30.9787   48.6088 H   0  0  0  0  0  0  0  0  0  0  0  0
   57.8910   32.3880   50.2040 C   0  0  0  0  0  0  0  0  0  0  0  0
   57.8456   33.4864   50.2410 H   0  0  0  0  0  0  0  0  0  0  0  0
   56.9116   31.8976   50.3056 H   0  0  0  0  0  0  0  0  0  0  0  0
   55.6140   31.5170   52.1960 C   0  0  0  0  0  0  0  0  0  0  0  0
   55.7132   32.6056   52.0735 H   0  0  0  0  0  0  0  0  0  0  0  0
   54.4390   30.7990   52.3610 C   0  0  0  0  0  0  0  0  0  0  0  0
   53.1830   31.2840   52.3430 C   0  0  0  0  0  0  0  0  0  0  0  0
   52.7539   31.6491   53.2877 H   0  0  0  0  0  0  0  0  0  0  0  0
   52.3520   31.3530   51.1300 C   0  0  0  0  0  0  0  0  0  0  0  0
   52.3360   30.3990   50.1840 N   0  0  0  0  0  0  0  0  0  0  0  0
   51.3690   30.8140   49.3370 C   0  0  0  0  0  0  0  0  0  0  0  0
   51.0620   30.1800   48.2950 O   0  0  0  0  0  0  0  0  0  0  0  0
   50.7500   31.9580   49.7020 N   0  0  0  0  0  0  0  0  0  0  0  0
   51.3760   32.2800   50.8440 C   0  0  0  0  0  0  0  0  0  0  0  0
   51.0260   33.3670   51.6340 O   0  0  0  0  0  0  0  0  0  0  0  0
  1  2  1  0
  2  3  1  0
  2  4  2  0
  4  5  1  0
  5  6  1  0
  6  7  1  0
  7  8  2  0
  7  9  1  0
  9 10  1  0
  9 11  1  0
 11 12  1  0
 11 13  1  0
 11 14  1  0
 14 15  1  0
 14 16  1  0
 14 17  1  0
 17 18  1  0
 18 19  1  0
 18 20  1  0
 18 21  1  0
 21 22  1  0
 21 23  1  0
 21 24  1  0
 24 25  1  0
 24 26  1  0
 26 27  1  0
 26 28  1  0
 26 29  1  0
 24 30  1  0
 30 31  1  0
 30 32  1  0
 30 33  1  0
 17 34  1  0
 34 35  1  0
 34 36  1  0
 34 37  1  0
 37 38  1  0
 37 39  1  0
  6 40  2  0
 40 41  1  0
 40 42  1  0
 42 43  2  0
 43 44  1  0
 43 45  1  0
 45 46  1  0
 46 47  1  0
 47 48  2  0
 47 49  1  0
 49 50  1  0
 50 51  1  0
 42  4  1  0
 50 45  2  0
 37  9  1  0
M  CHG  4   9   1  46  -1  49  -1  51  -1
M  END
>  <UniqueID>  (38) 
38

>  <SMILES>  (38) 
C=c1oc(C(=O)[NH+]2CCN(CCC(C)C)CC2)c/c1=C\c1[n-]c(=O)[n-]c1[O-]

>  <Energy>  (38) 
128.1296955702392

>  <Genealogy>  (38) 
C=c1oc(C(=O)[NH+]2CCN(CCC(C)C)CC2)cc1=Cc1[n-]c(=O)[n-]c1[O-] (protonated)
C=c1oc(C(=O)[NH+]2CCN(CCC(C)C)CC2)c/c1=C\c1[n-]c(=O)[n-]c1[O-] (cis-trans isomerization)
C=c1oc(C(=O)[NH+]2CCN(CCC(C)C)CC2)c/c1=C\c1[n-]c(=O)[n-]c1[O-] (3D coordinates assigned)
C=c1oc(C(=O)[NH+]2CCN(CCC(C)C)CC2)c/c1=C\c1[n-]c(=O)[n-]c1[O-] (nonaromatic ring conformer: 128.1296955702392 kcal/mol)

>  <smiles>  (38) 
C=c1oc(C(=O)N2CCN(CCC(C)C)CC2)cc1=Cc1[nH]c(=O)[nH]c1O

>  <score_type>  (38) 
oracle

>  <origin>  (38) 
adg

>  <m_score__min__energy>  (38) 
-16.050000000000001

>  <m_primary>  (38) 
energy

$$$$
38:0
     RDKit          3D

 49 52  0  0  0  0  0  0  0  0999 V2000
   55.1520   26.5950   45.9970 N   0  0  0  0  0  0  0  0  0  0  0  0
   56.5670   26.7740   46.0060 C   0  0  0  0  0  0  0  0  0  0  0  0
   57.3200   25.7940   46.2550 O   0  0  0  0  0  0  0  0  0  0  0  0
   57.1490   28.0950   45.7270 C   0  0  0  0  0  0  0  0  0  0  0  0
   58.4840   28.4510   45.9010 C   0  0  0  0  0  0  0  0  0  0  0  0
   58.7540   29.7770   45.5380 C   0  0  0  0  0  0  0  0  0  0  0  0
   57.6250   30.4590   45.0920 C   0  0  0  0  0  0  0  0  0  0  0  0
   57.5670   31.7800   44.6260 O   0  0  0  0  0  0  0  0  0  0  0  0
   58.2920   32.8540   45.1590 C   0  0  0  0  0  0  0  0  0  0  0  0
   58.4660   33.9990   44.3750 C   0  0  0  0  0  0  0  0  0  0  0  0
   59.1810   35.0920   44.8690 C   0  0  0  0  0  0  0  0  0  0  0  0
   59.7100   35.0570   46.1620 C   0  0  0  0  0  0  0  0  0  0  0  0
   59.5110   33.9330   46.9790 C   0  0  0  0  0  0  0  0  0  0  0  0
   60.0670   33.9060   48.3490 C   0  0  0  0  0  0  0  0  0  0  0  0
   59.2730   33.8980   49.3300 O   0  0  0  0  0  0  0  0  0  0  0  0
   61.4890   33.8620   48.5840 N   0  0  0  0  0  0  0  0  0  0  0  0
   62.3540   33.0490   47.7180 C   0  0  0  0  0  0  0  0  0  0  0  0
   63.6700   32.6950   48.4270 C   0  0  0  0  0  0  0  0  0  0  0  0
   63.4430   32.2800   49.8290 N   0  0  0  0  0  0  0  0  0  0  0  0
   63.0620   30.8450   49.9410 C   0  0  0  0  0  0  0  0  0  0  0  0
   61.6590   30.4720   49.4550 C   0  0  0  0  0  0  0  0  0  0  0  0
   61.3000   30.0210   50.8680 C   0  0  0  0  0  0  0  0  0  0  0  0
   62.6930   30.4040   51.3580 C   0  0  0  0  0  0  0  0  0  0  0  0
   62.6750   33.2600   50.6510 C   0  0  0  0  0  0  0  0  0  0  0  0
   62.0520   34.3990   49.8270 C   0  0  0  0  0  0  0  0  0  0  0  0
   58.8080   32.8290   46.4680 C   0  0  0  0  0  0  0  0  0  0  0  0
   56.3040   29.4220   45.1210 S   0  0  0  0  0  0  0  0  0  0  0  0
   54.5440   27.0810   46.6940 H   0  0  0  0  0  0  0  0  0  0  0  0
   59.2495   27.7606   46.2848 H   0  0  0  0  0  0  0  0  0  0  0  0
   59.7537   30.2319   45.5990 H   0  0  0  0  0  0  0  0  0  0  0  0
   58.0369   34.0388   43.3629 H   0  0  0  0  0  0  0  0  0  0  0  0
   59.3281   35.9819   44.2394 H   0  0  0  0  0  0  0  0  0  0  0  0
   60.2852   35.9145   46.5414 H   0  0  0  0  0  0  0  0  0  0  0  0
   61.8270   32.1203   47.4539 H   0  0  0  0  0  0  0  0  0  0  0  0
   62.5893   33.6303   46.8142 H   0  0  0  0  0  0  0  0  0  0  0  0
   64.1558   31.8699   47.8854 H   0  0  0  0  0  0  0  0  0  0  0  0
   64.3071   33.5917   48.4341 H   0  0  0  0  0  0  0  0  0  0  0  0
   63.9372   30.4260   49.4228 H   0  0  0  0  0  0  0  0  0  0  0  0
   61.0672   31.3244   49.0902 H   0  0  0  0  0  0  0  0  0  0  0  0
   61.5247   29.7936   48.5996 H   0  0  0  0  0  0  0  0  0  0  0  0
   60.4881   30.6018   51.3300 H   0  0  0  0  0  0  0  0  0  0  0  0
   60.9126   29.0063   51.0424 H   0  0  0  0  0  0  0  0  0  0  0  0
   62.7018   31.2168   52.0991 H   0  0  0  0  0  0  0  0  0  0  0  0
   63.3162   29.6752   51.8970 H   0  0  0  0  0  0  0  0  0  0  0  0
   61.8666   32.7223   51.1682 H   0  0  0  0  0  0  0  0  0  0  0  0
   63.3862   33.7206   51.3525 H   0  0  0  0  0  0  0  0  0  0  0  0
   61.2537   34.8788   50.4122 H   0  0  0  0  0  0  0  0  0  0  0  0
   62.8290   35.1388   49.5841 H   0  0  0  0  0  0  0  0  0  0  0  0
   58.6598   31.9382   47.0961 H   0  0  0  0  0  0  0  0  0  0  0  0
  1  2  1  0
  2  3  2  0
  2  4  1  0
  4  5  2  0
  5  6  1  0
  6  7  2  0
  7  8  1  0
  8  9  1  0
  9 10  2  0
 10 11  1  0
 11 12  2  0
 12 13  1  0
 13 14  1  0
 14 15  2  0
 14 16  1  0
 16 17  1  0
 17 18  1  0
 18 19  1  0
 19 20  1  0
 20 21  1  0
 21 22  1  0
 22 23  1  0
 19 24  1  0
 24 25  1  0
 13 26  2  0
  7 27  1  0
 27  4  1  0
 26  9  1  0
 25 16  1  0
 23 20  1  0
  1 28  1  0
  5 29  1  0
  6 30  1  0
 10 31  1  0
 11 32  1  0
 12 33  1  0
 17 34  1  0
 17 35  1  0
 18 36  1  0
 18 37  1  0
 20 38  1  0
 21 39  1  0
 21 40  1  0
 22 41  1  0
 22 42  1  0
 23 43  1  0
 23 44  1  0
 24 45  1  0
 24 46  1  0
 25 47  1  0
 25 48  1  0
 26 49  1  0
M  CHG  1   1  -1
M  END
>  <UniqueID>  (39) 
39

>  <SMILES>  (39) 
[NH-]C(=O)c1ccc(Oc2cccc(C(=O)N3CCN(C4CCC4)CC3)c2)s1

>  <Energy>  (39) 
160.52365832942414

>  <Genealogy>  (39) 
[NH-]C(=O)c1ccc(Oc2cccc(C(=O)N3CCN(C4CCC4)CC3)c2)s1 (protonated)
[NH-]C(=O)c1ccc(Oc2cccc(C(=O)N3CCN(C4CCC4)CC3)c2)s1 (3D coordinates assigned)
[NH-]C(=O)c1ccc(Oc2cccc(C(=O)N3CCN(C4CCC4)CC3)c2)s1 (nonaromatic ring conformer: 160.52365832942414 kcal/mol)

>  <smiles>  (39) 
NC(=O)c1ccc(Oc2cccc(C(=O)N3CCN(C4CCC4)CC3)c2)s1

>  <score_type>  (39) 
oracle

>  <origin>  (39) 
adg

>  <m_score__min__energy>  (39) 
-12.109999999999999

>  <m_primary>  (39) 
energy

$$$$
39:0
     RDKit          3D

 64 67  0  0  0  0  0  0  0  0999 V2000
   61.1340   33.1260   50.0970 C   0  0  0  0  0  0  0  0  0  0  0  0
   60.8610   33.4340   48.6790 N   0  0  2  0  0  0  0  0  0  0  0  0
   59.4440   33.2170   48.4440 C   0  0  0  0  0  0  0  0  0  0  0  0
   58.6700   33.0170   49.4220 O   0  0  0  0  0  0  0  0  0  0  0  0
   58.8780   33.2080   47.0720 C   0  0  0  0  0  0  0  0  0  0  0  0
   58.9350   34.3730   46.2890 C   0  0  0  0  0  0  0  0  0  0  0  0
   58.3850   34.3910   45.0070 C   0  0  0  0  0  0  0  0  0  0  0  0
   57.7880   33.2440   44.4830 C   0  0  0  0  0  0  0  0  0  0  0  0
   57.7560   32.0550   45.2320 C   0  0  0  0  0  0  0  0  0  0  0  0
   57.1480   30.8230   44.6720 C   0  0  0  0  0  0  0  0  0  0  0  0
   55.9000   30.7690   44.5070 O   0  0  0  0  0  0  0  0  0  0  0  0
   57.9430   29.7020   44.2630 N   0  0  0  0  0  0  0  0  0  0  0  0
   58.2620   28.5580   45.0700 C   0  0  0  0  0  0  0  0  0  0  0  0
   59.5260   28.4070   45.6670 C   0  0  0  0  0  0  0  0  0  0  0  0
   59.8060   27.2810   46.4440 C   0  0  0  0  0  0  0  0  0  0  0  0
   58.8270   26.3020   46.6390 C   0  0  0  0  0  0  0  0  0  0  0  0
   57.5580   26.4540   46.0640 C   0  0  0  0  0  0  0  0  0  0  0  0
   56.3100   25.2360   46.3160 S   0  0  0  0  0  0  0  0  0  0  0  0
   56.3100   24.8420   47.7680 O   0  0  0  0  0  0  0  0  0  0  0  0
   54.9610   25.8080   45.9770 O   0  0  0  0  0  0  0  0  0  0  0  0
   56.6370   23.8360   45.3270 N   0  0  0  0  0  0  0  0  0  0  0  0
   56.0080   24.0090   44.0010 C   0  0  0  0  0  0  0  0  0  0  0  0
   56.5070   22.9740   42.9670 C   0  0  0  0  0  0  0  0  0  0  0  0
   57.2200   21.8010   43.6440 C   0  0  0  0  0  0  0  0  0  0  0  0
   58.3950   22.2970   44.5020 C   0  0  0  0  0  0  0  0  0  0  0  0
   58.0910   23.6370   45.1990 C   0  0  0  0  0  0  0  0  0  0  0  0
   57.2760   27.5900   45.2950 C   0  0  0  0  0  0  0  0  0  0  0  0
   58.2900   32.0490   46.5310 C   0  0  0  0  0  0  0  0  0  0  0  0
   61.6810   32.6010   47.7460 C   0  0  0  0  0  0  0  0  0  0  0  0
   62.4410   33.4580   46.7180 C   0  0  0  0  0  0  0  0  0  0  0  0
   63.7640   33.8350   47.3720 C   0  0  0  0  0  0  0  0  0  0  0  0
   64.0040   32.8190   48.4860 C   0  0  0  0  0  0  0  0  0  0  0  0
   62.8240   31.8570   48.4550 C   0  0  0  0  0  0  0  0  0  0  0  0
   60.5411   33.7949   50.7382 H   0  0  0  0  0  0  0  0  0  0  0  0
   60.8600   32.0811   50.3046 H   0  0  0  0  0  0  0  0  0  0  0  0
   62.2042   33.2726   50.3046 H   0  0  0  0  0  0  0  0  0  0  0  0
   61.0980   34.4400   48.5140 H   0  0  0  0  0  0  0  0  0  0  0  0
   59.4166   35.2773   46.6895 H   0  0  0  0  0  0  0  0  0  0  0  0
   58.4221   35.3125   44.4074 H   0  0  0  0  0  0  0  0  0  0  0  0
   57.3401   33.2703   43.4787 H   0  0  0  0  0  0  0  0  0  0  0  0
   60.2967   29.1782   45.5215 H   0  0  0  0  0  0  0  0  0  0  0  0
   60.7986   27.1640   46.9035 H   0  0  0  0  0  0  0  0  0  0  0  0
   59.0530   25.4117   47.2442 H   0  0  0  0  0  0  0  0  0  0  0  0
   54.9189   23.9004   44.1108 H   0  0  0  0  0  0  0  0  0  0  0  0
   56.2807   25.0082   43.6306 H   0  0  0  0  0  0  0  0  0  0  0  0
   55.6451   22.5898   42.4018 H   0  0  0  0  0  0  0  0  0  0  0  0
   57.2238   23.4732   42.2985 H   0  0  0  0  0  0  0  0  0  0  0  0
   56.5047   21.2668   44.2866 H   0  0  0  0  0  0  0  0  0  0  0  0
   57.6112   21.1298   42.8653 H   0  0  0  0  0  0  0  0  0  0  0  0
   58.6145   21.5413   45.2705 H   0  0  0  0  0  0  0  0  0  0  0  0
   59.2542   22.4548   43.8336 H   0  0  0  0  0  0  0  0  0  0  0  0
   58.5453   23.6348   46.2008 H   0  0  0  0  0  0  0  0  0  0  0  0
   58.5092   24.4548   44.5937 H   0  0  0  0  0  0  0  0  0  0  0  0
   56.2724   27.7226   44.8646 H   0  0  0  0  0  0  0  0  0  0  0  0
   58.2483   31.1287   47.1321 H   0  0  0  0  0  0  0  0  0  0  0  0
   60.9396   31.9235   47.2972 H   0  0  0  0  0  0  0  0  0  0  0  0
   62.6210   32.8806   45.7992 H   0  0  0  0  0  0  0  0  0  0  0  0
   61.8643   34.3516   46.4373 H   0  0  0  0  0  0  0  0  0  0  0  0
   64.5788   33.7893   46.6344 H   0  0  0  0  0  0  0  0  0  0  0  0
   63.7325   34.8601   47.7696 H   0  0  0  0  0  0  0  0  0  0  0  0
   64.9430   32.2745   48.3079 H   0  0  0  0  0  0  0  0  0  0  0  0
   64.0882   33.3141   49.4647 H   0  0  0  0  0  0  0  0  0  0  0  0
   63.0893   30.9463   47.8979 H   0  0  0  0  0  0  0  0  0  0  0  0
   62.5322   31.5486   49.4698 H   0  0  0  0  0  0  0  0  0  0  0  0
  1  2  1  0
  2  3  1  0
  3  4  2  0
  3  5  1  0
  5  6  2  0
  6  7  1  0
  7  8  2  0
  8  9  1  0
  9 10  1  0
 10 11  2  0
 10 12  1  0
 12 13  1  0
 13 14  2  0
 14 15  1  0
 15 16  2  0
 16 17  1  0
 17 18  1  0
 18 19  2  0
 18 20  2  0
 18 21  1  0
 21 22  1  0
 22 23  1  0
 23 24  1  0
 24 25  1  0
 25 26  1  0
 17 27  2  0
  9 28  2  0
  2 29  1  0
 29 30  1  0
 30 31  1  0
 31 32  1  0
 32 33  1  0
 28  5  1  0
 33 29  1  0
 27 13  1  0
 26 21  1  0
  1 34  1  0
  1 35  1  0
  1 36  1  0
  2 37  1  1
  6 38  1  0
  7 39  1  0
  8 40  1  0
 14 41  1  0
 15 42  1  0
 16 43  1  0
 22 44  1  0
 22 45  1  0
 23 46  1  0
 23 47  1  0
 24 48  1  0
 24 49  1  0
 25 50  1  0
 25 51  1  0
 26 52  1  0
 26 53  1  0
 27 54  1  0
 28 55  1  0
 29 56  1  0
 30 57  1  0
 30 58  1  0
 31 59  1  0
 31 60  1  0
 32 61  1  0
 32 62  1  0
 33 63  1  0
 33 64  1  0
M  CHG  2   2   1  12  -1
M  END
>  <UniqueID>  (40) 
40

>  <SMILES>  (40) 
C[N@H+](C(=O)c1cccc(C(=O)[N-]c2cccc(S(=O)(=O)N3CCCCC3)c2)c1)C1CCCC1

>  <Energy>  (40) 
85.44493283870676

>  <Genealogy>  (40) 
C[NH+](C(=O)c1cccc(C(=O)[N-]c2cccc(S(=O)(=O)N3CCCCC3)c2)c1)C1CCCC1 (protonated)
C[N@H+](C(=O)c1cccc(C(=O)[N-]c2cccc(S(=O)(=O)N3CCCCC3)c2)c1)C1CCCC1 (chirality)
C[N@H+](C(=O)c1cccc(C(=O)[N-]c2cccc(S(=O)(=O)N3CCCCC3)c2)c1)C1CCCC1 (3D coordinates assigned)
C[N@H+](C(=O)c1cccc(C(=O)[N-]c2cccc(S(=O)(=O)N3CCCCC3)c2)c1)C1CCCC1 (nonaromatic ring conformer: 85.44493283870676 kcal/mol)

>  <smiles>  (40) 
CN(C(=O)c1cccc(C(=O)Nc2cccc(S(=O)(=O)N3CCCCC3)c2)c1)C1CCCC1

>  <score_type>  (40) 
oracle

>  <origin>  (40) 
adg

>  <m_score__min__energy>  (40) 
-11.5

>  <m_primary>  (40) 
energy

$$$$
40:0
     RDKit          3D

 38 40  0  0  0  0  0  0  0  0999 V2000
   61.4130   32.2650   47.3950 O   0  0  0  0  0  0  0  0  0  0  0  0
   60.2230   32.9410   48.0130 S   0  0  0  0  0  0  0  0  0  0  0  0
   60.6660   34.2110   48.6810 O   0  0  0  0  0  0  0  0  0  0  0  0
   59.5180   31.8910   49.1990 N   0  0  0  0  0  0  0  0  0  0  0  0
   59.8120   30.4950   49.3420 C   0  0  0  0  0  0  0  0  0  0  0  0
   60.4520   29.9790   50.4830 C   0  0  0  0  0  0  0  0  0  0  0  0
   60.7230   28.6120   50.5790 C   0  0  0  0  0  0  0  0  0  0  0  0
   60.3740   27.7490   49.5370 C   0  0  0  0  0  0  0  0  0  0  0  0
   60.5950   26.4180   49.6770 F   0  0  0  0  0  0  0  0  0  0  0  0
   59.7620   28.2610   48.3770 C   0  0  0  0  0  0  0  0  0  0  0  0
   59.3890   27.4060   47.2840 N   0  0  0  0  0  0  0  0  0  0  0  0
   58.2330   27.3710   46.6840 C   0  0  0  0  0  0  0  0  0  0  0  0
   57.8060   28.3500   45.6590 C   0  0  0  0  0  0  0  0  0  0  0  0
   58.7610   29.2210   45.1180 C   0  0  0  0  0  0  0  0  0  0  0  0
   58.3940   30.1620   44.1530 C   0  0  0  0  0  0  0  0  0  0  0  0
   57.0630   30.2320   43.6980 C   0  0  0  0  0  0  0  0  0  0  0  0
   56.6390   31.1870   42.7120 N   0  0  0  0  0  0  0  0  0  0  0  0
   57.4400   31.8790   42.0040 C   0  0  0  0  0  0  0  0  0  0  0  0
   58.4540   32.7540   41.1080 S   0  0  0  0  0  0  0  0  0  0  0  0
   56.1180   29.3380   44.2140 C   0  0  0  0  0  0  0  0  0  0  0  0
   56.4830   28.3900   45.1760 C   0  0  0  0  0  0  0  0  0  0  0  0
   55.5310   27.4800   45.6230 O   0  0  0  0  0  0  0  0  0  0  0  0
   59.4540   29.6250   48.3050 C   0  0  0  0  0  0  0  0  0  0  0  0
   59.0350   33.3300   46.7830 C   0  0  0  0  0  0  0  0  0  0  0  0
   57.8220   32.6860   46.5980 C   0  0  0  0  0  0  0  0  0  0  0  0
   57.0920   33.1990   45.5200 C   0  0  0  0  0  0  0  0  0  0  0  0
   57.7310   34.2420   44.8600 C   0  0  0  0  0  0  0  0  0  0  0  0
   59.2070   34.5260   45.6170 S   0  0  0  0  0  0  0  0  0  0  0  0
   60.7401   30.6539   51.3024 H   0  0  0  0  0  0  0  0  0  0  0  0
   61.2135   28.2131   51.4792 H   0  0  0  0  0  0  0  0  0  0  0  0
   57.5332   26.5667   46.9550 H   0  0  0  0  0  0  0  0  0  0  0  0
   59.8064   29.1634   45.4553 H   0  0  0  0  0  0  0  0  0  0  0  0
   59.1483   30.8517   43.7465 H   0  0  0  0  0  0  0  0  0  0  0  0
   55.0776   29.3811   43.8596 H   0  0  0  0  0  0  0  0  0  0  0  0
   58.9249   30.0174   47.4240 H   0  0  0  0  0  0  0  0  0  0  0  0
   57.4700   31.8587   47.2318 H   0  0  0  0  0  0  0  0  0  0  0  0
   56.1056   32.8132   45.2230 H   0  0  0  0  0  0  0  0  0  0  0  0
   57.3385   34.7892   43.9902 H   0  0  0  0  0  0  0  0  0  0  0  0
  1  2  2  0
  2  3  2  0
  2  4  1  0
  4  5  1  0
  5  6  2  0
  6  7  1  0
  7  8  2  0
  8  9  1  0
  8 10  1  0
 10 11  1  0
 11 12  2  3
 12 13  1  0
 13 14  2  0
 14 15  1  0
 15 16  2  0
 16 17  1  0
 17 18  2  0
 18 19  2  0
 16 20  1  0
 20 21  2  0
 21 22  1  0
 10 23  2  0
  2 24  1  0
 24 25  2  0
 25 26  1  0
 26 27  2  0
 27 28  1  0
 23  5  1  0
 28 24  1  0
 21 13  1  0
  6 29  1  0
  7 30  1  0
 12 31  1  0
 14 32  1  0
 15 33  1  0
 20 34  1  0
 23 35  1  0
 25 36  1  0
 26 37  1  0
 27 38  1  0
M  CHG  2   4  -1  22  -1
M  END
>  <UniqueID>  (41) 
41

>  <SMILES>  (41) 
O=S(=O)([N-]c1ccc(F)c(N=Cc2ccc(N=C=S)cc2[O-])c1)c1cccs1

>  <Energy>  (41) 
84.14530972682026

>  <Genealogy>  (41) 
O=S(=O)([N-]c1ccc(F)c(N=Cc2ccc(N=C=S)cc2[O-])c1)c1cccs1 (protonated)
O=S(=O)([N-]c1ccc(F)c(N=Cc2ccc(N=C=S)cc2[O-])c1)c1cccs1 (3D coordinates assigned)
O=S(=O)([N-]c1ccc(F)c(N=Cc2ccc(N=C=S)cc2[O-])c1)c1cccs1 (optimized conformer: 84.14530972682026 kcal/mol)

>  <smiles>  (41) 
O=S(=O)(Nc1ccc(F)c(N=Cc2ccc(N=C=S)cc2O)c1)c1cccs1

>  <score_type>  (41) 
oracle

>  <origin>  (41) 
adg

>  <m_score__min__energy>  (41) 
-13.529999999999999

>  <m_primary>  (41) 
energy

$$$$
41:0
     RDKit          3D

 54 57  0  0  0  0  0  0  0  0999 V2000
   54.9900   28.3640   53.7540 C   0  0  0  0  0  0  0  0  0  0  0  0
   55.4490   29.4570   53.1250 C   0  0  0  0  0  0  0  0  0  0  0  0
   54.8090   30.1470   52.0910 C   0  0  0  0  0  0  0  0  0  0  0  0
   53.6390   29.8380   51.5020 C   0  0  0  0  0  0  0  0  0  0  0  0
   52.5370   30.8000   51.3260 C   0  0  0  0  0  0  0  0  0  0  0  0
   52.2670   31.7780   52.2080 N   0  0  0  0  0  0  0  0  0  0  0  0
   51.2310   32.4350   51.6420 C   0  0  0  0  0  0  0  0  0  0  0  0
   50.6780   33.4260   52.1840 O   0  0  0  0  0  0  0  0  0  0  0  0
   50.8410   31.9490   50.4440 N   0  0  0  0  0  0  0  0  0  0  0  0
   51.6840   30.9220   50.2480 C   0  0  0  0  0  0  0  0  0  0  0  0
   51.6920   30.1540   49.0860 O   0  0  0  0  0  0  0  0  0  0  0  0
   55.6480   31.1970   51.7460 C   0  0  0  0  0  0  0  0  0  0  0  0
   56.7400   31.1250   52.5890 C   0  0  0  0  0  0  0  0  0  0  0  0
   57.8690   32.0740   52.5490 C   0  0  0  0  0  0  0  0  0  0  0  0
   58.2070   32.6480   53.6200 O   0  0  0  0  0  0  0  0  0  0  0  0
   58.6020   32.3330   51.3350 N   0  0  0  0  0  0  0  0  0  0  0  0
   58.8230   31.2640   50.3470 C   0  0  0  0  0  0  0  0  0  0  0  0
   58.6750   31.7980   48.9130 C   0  0  0  0  0  0  0  0  0  0  0  0
   59.3160   33.1990   48.7170 C   0  0  0  0  0  0  0  0  0  0  0  0
   60.0450   33.3360   47.4470 N   0  0  0  0  0  0  0  0  0  0  0  0
   59.0630   33.6260   46.0290 S   0  0  0  0  0  0  0  0  0  0  0  0
   57.9740   34.5980   46.3820 O   0  0  0  0  0  0  0  0  0  0  0  0
   59.8710   34.1840   44.8900 O   0  0  0  0  0  0  0  0  0  0  0  0
   58.3270   32.1100   45.5190 C   0  0  0  0  0  0  0  0  0  0  0  0
   58.9970   30.8950   45.7140 C   0  0  0  0  0  0  0  0  0  0  0  0
   58.4050   29.7010   45.3020 C   0  0  0  0  0  0  0  0  0  0  0  0
   57.1480   29.7340   44.6950 C   0  0  0  0  0  0  0  0  0  0  0  0
   56.5140   30.9220   44.5060 N   0  0  0  0  0  0  0  0  0  0  0  0
   57.0700   32.0980   44.8990 C   0  0  0  0  0  0  0  0  0  0  0  0
   60.1480   33.6840   49.9180 C   0  0  0  0  0  0  0  0  0  0  0  0
   59.3160   33.6150   51.2040 C   0  0  0  0  0  0  0  0  0  0  0  0
   56.6290   30.0590   53.4180 N   0  0  0  0  0  0  0  0  0  0  0  0
   57.6340   29.5760   54.3720 C   0  0  0  0  0  0  0  0  0  0  0  0
   55.5823   27.9026   54.5580 H   0  0  0  0  0  0  0  0  0  0  0  0
   54.0215   27.9295   53.4656 H   0  0  0  0  0  0  0  0  0  0  0  0
   53.4978   28.8118   51.1320 H   0  0  0  0  0  0  0  0  0  0  0  0
   51.7760   30.5760   48.1710 H   0  0  0  0  0  0  0  0  0  0  0  0
   55.4768   31.9419   50.9550 H   0  0  0  0  0  0  0  0  0  0  0  0
   59.8373   30.8587   50.4767 H   0  0  0  0  0  0  0  0  0  0  0  0
   58.0699   30.4784   50.5072 H   0  0  0  0  0  0  0  0  0  0  0  0
   59.1605   31.0911   48.2241 H   0  0  0  0  0  0  0  0  0  0  0  0
   57.5987   31.8976   48.7088 H   0  0  0  0  0  0  0  0  0  0  0  0
   58.4550   33.8811   48.6578 H   0  0  0  0  0  0  0  0  0  0  0  0
   59.9881   30.8827   46.1911 H   0  0  0  0  0  0  0  0  0  0  0  0
   58.9234   28.7428   45.4538 H   0  0  0  0  0  0  0  0  0  0  0  0
   56.6702   28.7982   44.3694 H   0  0  0  0  0  0  0  0  0  0  0  0
   56.5324   33.0427   44.7302 H   0  0  0  0  0  0  0  0  0  0  0  0
   61.0365   33.0446   50.0259 H   0  0  0  0  0  0  0  0  0  0  0  0
   60.4529   34.7265   49.7445 H   0  0  0  0  0  0  0  0  0  0  0  0
   59.9868   33.7370   52.0672 H   0  0  0  0  0  0  0  0  0  0  0  0
   58.5652   34.4180   51.1648 H   0  0  0  0  0  0  0  0  0  0  0  0
   57.2774   29.7474   55.3984 H   0  0  0  0  0  0  0  0  0  0  0  0
   57.7999   28.4998   54.2164 H   0  0  0  0  0  0  0  0  0  0  0  0
   58.5780   30.1188   54.2164 H   0  0  0  0  0  0  0  0  0  0  0  0
  1  2  2  0
  2  3  1  0
  3  4  2  3
  4  5  1  0
  5  6  1  0
  6  7  1  0
  7  8  2  0
  7  9  1  0
  9 10  1  0
 10 11  1  0
  3 12  1  0
 12 13  2  0
 13 14  1  0
 14 15  2  0
 14 16  1  0
 16 17  1  0
 17 18  1  0
 18 19  1  0
 19 20  1  0
 20 21  1  0
 21 22  2  0
 21 23  2  0
 21 24  1  0
 24 25  2  0
 25 26  1  0
 26 27  2  0
 27 28  1  0
 28 29  2  0
 19 30  1  0
 30 31  1  0
 13 32  1  0
 32 33  1  0
 32  2  1  0
 10  5  2  0
 31 16  1  0
 29 24  1  0
  1 34  1  0
  1 35  1  0
  4 36  1  0
 11 37  1  0
 12 38  1  0
 17 39  1  0
 17 40  1  0
 18 41  1  0
 18 42  1  0
 19 43  1  0
 25 44  1  0
 26 45  1  0
 27 46  1  0
 29 47  1  0
 30 48  1  0
 30 49  1  0
 31 50  1  0
 31 51  1  0
 33 52  1  0
 33 53  1  0
 33 54  1  0
M  CHG  3   6  -1   9  -1  20  -1
M  END
>  <UniqueID>  (42) 
42

>  <SMILES>  (42) 
C=c1c(=Cc2[n-]c(=O)[n-]c2O)cc(C(=O)N2CCC([N-]S(=O)(=O)c3cccnc3)CC2)n1C

>  <Energy>  (42) 
136.18506727898355

>  <Genealogy>  (42) 
C=c1c(=Cc2[n-]c(=O)[n-]c2O)cc(C(=O)N2CCC([N-]S(=O)(=O)c3cccnc3)CC2)n1C (protonated)
C=c1c(=Cc2[n-]c(=O)[n-]c2O)cc(C(=O)N2CCC([N-]S(=O)(=O)c3cccnc3)CC2)n1C (3D coordinates assigned)
C=c1c(=Cc2[n-]c(=O)[n-]c2O)cc(C(=O)N2CCC([N-]S(=O)(=O)c3cccnc3)CC2)n1C (nonaromatic ring conformer: 136.18506727898355 kcal/mol)

>  <smiles>  (42) 
C=c1c(=Cc2[nH]c(=O)[nH]c2O)cc(C(=O)N2CCC(NS(=O)(=O)c3cccnc3)CC2)n1C

>  <score_type>  (42) 
oracle

>  <origin>  (42) 
adg

>  <m_score__min__energy>  (42) 
-15.6

>  <m_primary>  (42) 
energy

$$$$
42:0
     RDKit          3D

 37 39  0  0  0  0  0  0  0  0999 V2000
   53.7400   29.1080   53.5550 O   0  0  0  0  0  0  0  0  0  0  0  0
   54.0230   30.1360   52.8820 C   0  0  0  0  0  0  0  0  0  0  0  0
   52.9660   31.0420   52.5380 N   0  0  0  0  0  0  0  0  0  0  0  0
   52.2710   31.0680   51.2860 C   0  0  0  0  0  0  0  0  0  0  0  0
   52.2950   30.1110   50.2930 C   0  0  0  0  0  0  0  0  0  0  0  0
   51.4100   30.5730   49.3360 C   0  0  0  0  0  0  0  0  0  0  0  0
   51.1200   29.9200   48.1430 O   0  0  0  0  0  0  0  0  0  0  0  0
   50.8380   31.7440   49.6900 N   0  0  0  0  0  0  0  0  0  0  0  0
   51.3710   32.0300   50.8930 C   0  0  0  0  0  0  0  0  0  0  0  0
   51.0380   33.1600   51.6300 O   0  0  0  0  0  0  0  0  0  0  0  0
   55.4320   30.3950   52.5120 C   0  0  0  0  0  0  0  0  0  0  0  0
   56.4050   29.3890   52.6340 C   0  0  0  0  0  0  0  0  0  0  0  0
   57.7320   29.6440   52.2830 C   0  0  0  0  0  0  0  0  0  0  0  0
   58.1140   30.9000   51.7990 C   0  0  0  0  0  0  0  0  0  0  0  0
   59.4660   31.1050   51.4770 O   0  0  0  0  0  0  0  0  0  0  0  0
   60.0590   32.3680   51.1760 C   0  0  0  0  0  0  0  0  0  0  0  0
   59.6670   32.8280   49.7980 C   0  0  0  0  0  0  0  0  0  0  0  0
   58.9760   31.9700   48.9260 C   0  0  0  0  0  0  0  0  0  0  0  0
   58.6210   32.4040   47.6450 C   0  0  0  0  0  0  0  0  0  0  0  0
   58.9590   33.6910   47.2220 C   0  0  0  0  0  0  0  0  0  0  0  0
   59.6570   34.5480   48.0790 C   0  0  0  0  0  0  0  0  0  0  0  0
   60.0130   34.1180   49.3600 C   0  0  0  0  0  0  0  0  0  0  0  0
   57.1370   31.9010   51.6500 C   0  0  0  0  0  0  0  0  0  0  0  0
   55.8070   31.6480   52.0000 C   0  0  0  0  0  0  0  0  0  0  0  0
   52.8875   29.1845   50.2678 H   0  0  0  0  0  0  0  0  0  0  0  0
   50.1850   29.9410   47.7540 H   0  0  0  0  0  0  0  0  0  0  0  0
   56.1197   28.3947   53.0082 H   0  0  0  0  0  0  0  0  0  0  0  0
   58.4851   28.8492   52.3881 H   0  0  0  0  0  0  0  0  0  0  0  0
   59.7204   33.1103   51.9138 H   0  0  0  0  0  0  0  0  0  0  0  0
   61.1532   32.2616   51.2140 H   0  0  0  0  0  0  0  0  0  0  0  0
   58.7132   30.9529   49.2523 H   0  0  0  0  0  0  0  0  0  0  0  0
   58.0743   31.7300   46.9691 H   0  0  0  0  0  0  0  0  0  0  0  0
   58.6763   34.0309   46.2147 H   0  0  0  0  0  0  0  0  0  0  0  0
   59.9258   35.5608   47.7445 H   0  0  0  0  0  0  0  0  0  0  0  0
   60.5670   34.7927   50.0292 H   0  0  0  0  0  0  0  0  0  0  0  0
   57.4207   32.8881   51.2561 H   0  0  0  0  0  0  0  0  0  0  0  0
   55.0495   32.4355   51.8735 H   0  0  0  0  0  0  0  0  0  0  0  0
  1  2  2  0
  2  3  1  0
  3  4  1  0
  4  5  1  0
  5  6  2  0
  6  7  1  0
  6  8  1  0
  8  9  1  0
  9 10  1  0
  2 11  1  0
 11 12  2  0
 12 13  1  0
 13 14  2  0
 14 15  1  0
 15 16  1  0
 16 17  1  0
 17 18  2  0
 18 19  1  0
 19 20  2  0
 20 21  1  0
 21 22  2  0
 14 23  1  0
 23 24  2  0
  9  4  2  0
 24 11  1  0
 22 17  1  0
  5 25  1  0
  7 26  1  0
 12 27  1  0
 13 28  1  0
 16 29  1  0
 16 30  1  0
 18 31  1  0
 19 32  1  0
 20 33  1  0
 21 34  1  0
 22 35  1  0
 23 36  1  0
 24 37  1  0
M  CHG  3   3  -1   8  -1  10  -1
M  END
>  <UniqueID>  (43) 
43

>  <SMILES>  (43) 
O=C([N-]c1cc(O)[n-]c1[O-])c1ccc(OCc2ccccc2)cc1

>  <Energy>  (43) 
71.9035373814986

>  <Genealogy>  (43) 
O=C([N-]c1cc(O)[n-]c1[O-])c1ccc(OCc2ccccc2)cc1 (protonated)
O=C([N-]c1cc(O)[n-]c1[O-])c1ccc(OCc2ccccc2)cc1 (3D coordinates assigned)
O=C([N-]c1cc(O)[n-]c1[O-])c1ccc(OCc2ccccc2)cc1 (optimized conformer: 71.9035373814986 kcal/mol)

>  <smiles>  (43) 
O=C(Nc1cc(O)[nH]c1O)c1ccc(OCc2ccccc2)cc1

>  <score_type>  (43) 
oracle

>  <origin>  (43) 
adg

>  <m_score__min__energy>  (43) 
-15.449999999999999

>  <m_primary>  (43) 
energy

$$$$
43:0
     RDKit          3D

 37 38  0  0  0  0  0  0  0  0999 V2000
   56.2650   29.3470   42.6420 C   0  0  0  0  0  0  0  0  0  0  0  0
   56.7690   30.0680   44.1880 S   0  0  0  0  0  0  0  0  0  0  0  0
   55.8300   31.1970   44.5100 O   0  0  0  0  0  0  0  0  0  0  0  0
   56.6570   29.0200   45.2600 O   0  0  0  0  0  0  0  0  0  0  0  0
   58.4230   30.6430   44.0390 N   0  0  0  0  0  0  0  0  0  0  0  0
   59.2220   30.3850   45.2550 C   0  0  0  0  0  0  0  0  0  0  0  0
   58.8220   31.2790   46.3940 C   0  0  0  0  0  0  0  0  0  0  0  0
   58.9830   30.8760   47.5780 O   0  0  0  0  0  0  0  0  0  0  0  0
   58.3360   32.6060   46.1310 N   0  0  0  0  0  0  0  0  0  0  0  0
   58.0870   33.5550   47.2280 C   0  0  0  0  0  0  0  0  0  0  0  0
   59.1100   34.6990   47.2270 C   0  0  0  0  0  0  0  0  0  0  0  0
   60.5050   34.2070   47.5190 C   0  0  0  0  0  0  0  0  0  0  0  0
   60.9640   34.1330   48.8450 C   0  0  0  0  0  0  0  0  0  0  0  0
   62.2700   33.7120   49.1170 C   0  0  0  0  0  0  0  0  0  0  0  0
   63.1240   33.3590   48.0680 C   0  0  0  0  0  0  0  0  0  0  0  0
   62.6720   33.4230   46.7480 C   0  0  0  0  0  0  0  0  0  0  0  0
   61.3680   33.8420   46.4720 C   0  0  0  0  0  0  0  0  0  0  0  0
   58.0950   32.9890   44.7640 C   0  0  0  0  0  0  0  0  0  0  0  0
   57.6030   34.1180   44.4920 O   0  0  0  0  0  0  0  0  0  0  0  0
   58.4760   32.0640   43.6380 C   0  0  0  0  0  0  0  0  0  0  0  0
   55.6447   28.4596   42.8362 H   0  0  0  0  0  0  0  0  0  0  0  0
   55.6832   30.0823   42.0669 H   0  0  0  0  0  0  0  0  0  0  0  0
   57.1554   29.0532   42.0669 H   0  0  0  0  0  0  0  0  0  0  0  0
   58.8600   30.0890   43.2660 H   0  0  0  0  0  0  0  0  0  0  0  0
   59.0778   29.3376   45.5586 H   0  0  0  0  0  0  0  0  0  0  0  0
   60.2763   30.5900   45.0175 H   0  0  0  0  0  0  0  0  0  0  0  0
   57.0781   33.9779   47.1124 H   0  0  0  0  0  0  0  0  0  0  0  0
   58.1781   33.0122   48.1804 H   0  0  0  0  0  0  0  0  0  0  0  0
   59.1028   35.1814   46.2385 H   0  0  0  0  0  0  0  0  0  0  0  0
   58.8270   35.4096   48.0175 H   0  0  0  0  0  0  0  0  0  0  0  0
   60.2935   34.4073   49.6727 H   0  0  0  0  0  0  0  0  0  0  0  0
   62.6251   33.6587   50.1567 H   0  0  0  0  0  0  0  0  0  0  0  0
   64.1518   33.0309   48.2822 H   0  0  0  0  0  0  0  0  0  0  0  0
   63.3443   33.1428   45.9237 H   0  0  0  0  0  0  0  0  0  0  0  0
   61.0156   33.8863   45.4309 H   0  0  0  0  0  0  0  0  0  0  0  0
   57.7811   32.2215   42.8000 H   0  0  0  0  0  0  0  0  0  0  0  0
   59.5120   32.2941   43.3486 H   0  0  0  0  0  0  0  0  0  0  0  0
  1  2  1  0
  2  3  2  0
  2  4  2  0
  2  5  1  0
  5  6  1  0
  6  7  1  0
  7  8  2  0
  7  9  1  0
  9 10  1  0
 10 11  1  0
 11 12  1  0
 12 13  2  0
 13 14  1  0
 14 15  2  0
 15 16  1  0
 16 17  2  0
  9 18  1  0
 18 19  2  0
 18 20  1  0
 20  5  1  0
 17 12  1  0
  1 21  1  0
  1 22  1  0
  1 23  1  0
  5 24  1  0
  6 25  1  0
  6 26  1  0
 10 27  1  0
 10 28  1  0
 11 29  1  0
 11 30  1  0
 13 31  1  0
 14 32  1  0
 15 33  1  0
 16 34  1  0
 17 35  1  0
 20 36  1  0
 20 37  1  0
M  CHG  1   5   1
M  END
>  <UniqueID>  (44) 
44

>  <SMILES>  (44) 
CS(=O)(=O)[NH+]1CC(=O)N(CCc2ccccc2)C(=O)C1

>  <Energy>  (44) 
31.9940133513619

>  <Genealogy>  (44) 
CS(=O)(=O)[NH+]1CC(=O)N(CCc2ccccc2)C(=O)C1 (protonated)
CS(=O)(=O)[NH+]1CC(=O)N(CCc2ccccc2)C(=O)C1 (3D coordinates assigned)
CS(=O)(=O)[NH+]1CC(=O)N(CCc2ccccc2)C(=O)C1 (nonaromatic ring conformer: 31.9940133513619 kcal/mol)

>  <smiles>  (44) 
CS(=O)(=O)N1CC(=O)N(CCc2ccccc2)C(=O)C1

>  <score_type>  (44) 
oracle

>  <origin>  (44) 
adg

>  <m_score__min__energy>  (44) 
-6.2999999999999998

>  <m_primary>  (44) 
energy

$$$$
44:0
     RDKit          3D

 56 59  0  0  0  0  0  0  0  0999 V2000
   58.4640   32.3340   41.9810 C   0  0  0  0  0  0  0  0  0  0  0  0
   57.6830   31.3720   42.8270 C   0  0  0  0  0  0  0  0  0  0  0  0
   56.6220   30.6400   42.2740 C   0  0  0  0  0  0  0  0  0  0  0  0
   55.9200   29.7150   43.0530 C   0  0  0  0  0  0  0  0  0  0  0  0
   56.2690   29.5150   44.4020 C   0  0  0  0  0  0  0  0  0  0  0  0
   55.5940   28.5610   45.2360 N   0  0  0  0  0  0  0  0  0  0  0  0
   56.0830   27.2840   45.6690 C   0  0  0  0  0  0  0  0  0  0  0  0
   55.2870   26.3180   45.8100 O   0  0  0  0  0  0  0  0  0  0  0  0
   57.5220   27.1230   46.0040 C   0  0  0  0  0  0  0  0  0  0  0  0
   58.1160   27.9430   46.9760 C   0  0  0  0  0  0  0  0  0  0  0  0
   59.4440   27.8300   47.2940 N   0  0  0  0  0  0  0  0  0  0  0  0
   60.0270   28.6930   48.3520 C   0  0  2  0  0  0  0  0  0  0  0  0
   58.9120   29.3980   49.1490 C   0  0  0  0  0  0  0  0  0  0  0  0
   59.5200   30.5020   50.0220 C   0  0  0  0  0  0  0  0  0  0  0  0
   60.2100   31.5610   49.2270 N   0  0  2  0  0  0  0  0  0  0  0  0
   59.4930   32.8650   49.2490 C   0  0  0  0  0  0  0  0  0  0  0  0
   59.0650   33.3730   47.8820 C   0  0  0  0  0  0  0  0  0  0  0  0
   57.8020   33.0280   47.3630 C   0  0  0  0  0  0  0  0  0  0  0  0
   57.4060   33.4820   46.1020 C   0  0  0  0  0  0  0  0  0  0  0  0
   58.2690   34.2750   45.3400 C   0  0  0  0  0  0  0  0  0  0  0  0
   59.5340   34.6000   45.8330 C   0  0  0  0  0  0  0  0  0  0  0  0
   59.9380   34.1430   47.0910 C   0  0  0  0  0  0  0  0  0  0  0  0
   60.5850   31.1510   47.8460 C   0  0  0  0  0  0  0  0  0  0  0  0
   61.0770   29.6950   47.7890 C   0  0  0  0  0  0  0  0  0  0  0  0
   60.2010   26.8730   46.6640 C   0  0  0  0  0  0  0  0  0  0  0  0
   61.4200   26.7180   46.9480 O   0  0  0  0  0  0  0  0  0  0  0  0
   59.6450   26.0690   45.7230 N   0  0  0  0  0  0  0  0  0  0  0  0
   58.3400   26.1700   45.3760 C   0  0  0  0  0  0  0  0  0  0  0  0
   57.8830   25.4030   44.4860 O   0  0  0  0  0  0  0  0  0  0  0  0
   57.3560   30.2160   44.9370 C   0  0  0  0  0  0  0  0  0  0  0  0
   58.0590   31.1410   44.1580 C   0  0  0  0  0  0  0  0  0  0  0  0
   59.0234   33.0231   42.6308 H   0  0  0  0  0  0  0  0  0  0  0  0
   59.1679   31.7760   41.3460 H   0  0  0  0  0  0  0  0  0  0  0  0
   57.7733   32.9082   41.3460 H   0  0  0  0  0  0  0  0  0  0  0  0
   56.3407   30.7944   41.2219 H   0  0  0  0  0  0  0  0  0  0  0  0
   55.0922   29.1417   42.6102 H   0  0  0  0  0  0  0  0  0  0  0  0
   57.5013   28.6936   47.4944 H   0  0  0  0  0  0  0  0  0  0  0  0
   60.5786   28.0438   49.0479 H   0  0  0  0  0  0  0  0  0  0  0  0
   58.1876   29.8417   48.4502 H   0  0  0  0  0  0  0  0  0  0  0  0
   58.4035   28.6640   49.7914 H   0  0  0  0  0  0  0  0  0  0  0  0
   58.7142   30.9710   50.6057 H   0  0  0  0  0  0  0  0  0  0  0  0
   60.2752   30.0315   50.6687 H   0  0  0  0  0  0  0  0  0  0  0  0
   61.1180   31.7440   49.7210 H   0  0  0  0  0  0  0  0  0  0  0  0
   58.5925   32.7513   49.8705 H   0  0  0  0  0  0  0  0  0  0  0  0
   60.2019   33.6047   49.6493 H   0  0  0  0  0  0  0  0  0  0  0  0
   57.1224   32.3967   47.9544 H   0  0  0  0  0  0  0  0  0  0  0  0
   56.4141   33.2150   45.7086 H   0  0  0  0  0  0  0  0  0  0  0  0
   57.9516   34.6425   44.3530 H   0  0  0  0  0  0  0  0  0  0  0  0
   60.2153   35.2178   45.2296 H   0  0  0  0  0  0  0  0  0  0  0  0
   60.9436   34.3866   47.4645 H   0  0  0  0  0  0  0  0  0  0  0  0
   59.7050   31.2540   47.1940 H   0  0  0  0  0  0  0  0  0  0  0  0
   61.4075   31.8001   47.5112 H   0  0  0  0  0  0  0  0  0  0  0  0
   61.2886   29.4341   46.7416 H   0  0  0  0  0  0  0  0  0  0  0  0
   61.9803   29.6208   48.4124 H   0  0  0  0  0  0  0  0  0  0  0  0
   57.6600   30.0380   45.9790 H   0  0  0  0  0  0  0  0  0  0  0  0
   58.9091   31.6887   44.5907 H   0  0  0  0  0  0  0  0  0  0  0  0
  1  2  1  0
  2  3  2  0
  3  4  1  0
  4  5  2  0
  5  6  1  0
  6  7  1  0
  7  8  2  0
  7  9  1  0
  9 10  2  0
 10 11  1  0
 11 12  1  0
 12 13  1  0
 13 14  1  0
 14 15  1  0
 15 16  1  0
 16 17  1  0
 17 18  2  0
 18 19  1  0
 19 20  2  0
 20 21  1  0
 21 22  2  0
 15 23  1  0
 23 24  1  0
 11 25  1  0
 25 26  2  0
 25 27  1  0
 27 28  1  0
 28 29  2  0
  5 30  1  0
 30 31  2  0
 31  2  1  0
 28  9  1  0
 24 12  1  0
 22 17  1  0
  1 32  1  0
  1 33  1  0
  1 34  1  0
  3 35  1  0
  4 36  1  0
 10 37  1  0
 12 38  1  1
 13 39  1  0
 13 40  1  0
 14 41  1  0
 14 42  1  0
 15 43  1  1
 16 44  1  0
 16 45  1  0
 18 46  1  0
 19 47  1  0
 20 48  1  0
 21 49  1  0
 22 50  1  0
 23 51  1  0
 23 52  1  0
 24 53  1  0
 24 54  1  0
 30 55  1  0
 31 56  1  0
M  CHG  3   6  -1  15   1  27  -1
M  END
>  <UniqueID>  (45) 
45

>  <SMILES>  (45) 
Cc1ccc([N-]C(=O)c2cn(C3CC[NH+](Cc4ccccc4)CC3)c(=O)[n-]c2=O)cc1

>  <Energy>  (45) 
80.4507903833523

>  <Genealogy>  (45) 
Cc1ccc([N-]C(=O)c2cn(C3CC[NH+](Cc4ccccc4)CC3)c(=O)[n-]c2=O)cc1 (protonated)
Cc1ccc([N-]C(=O)c2cn(C3CC[NH+](Cc4ccccc4)CC3)c(=O)[n-]c2=O)cc1 (3D coordinates assigned)
Cc1ccc([N-]C(=O)c2cn(C3CC[NH+](Cc4ccccc4)CC3)c(=O)[n-]c2=O)cc1 (nonaromatic ring conformer: 80.4507903833523 kcal/mol)

>  <smiles>  (45) 
Cc1ccc(NC(=O)c2cn(C3CCN(Cc4ccccc4)CC3)c(=O)[nH]c2=O)cc1

>  <score_type>  (45) 
oracle

>  <origin>  (45) 
adg

>  <m_score__min__energy>  (45) 
-11.34

>  <m_primary>  (45) 
energy

$$$$
45:0
     RDKit          3D

 54 56  0  0  0  0  0  0  0  0999 V2000
   60.7770   25.7170   51.3910 C   0  0  0  0  0  0  0  0  0  0  0  0
   61.3330   26.8520   50.9620 C   0  0  0  0  0  0  0  0  0  0  0  0
   60.7780   27.6310   49.8430 C   0  0  0  0  0  0  0  0  0  0  0  0
   60.7910   28.8930   49.8760 O   0  0  0  0  0  0  0  0  0  0  0  0
   60.1800   26.9280   48.7410 N   0  0  0  0  0  0  0  0  0  0  0  0
   59.5110   27.5210   47.6170 C   0  0  0  0  0  0  0  0  0  0  0  0
   60.1770   28.3680   46.7110 C   0  0  0  0  0  0  0  0  0  0  0  0
   59.4800   28.9370   45.6390 C   0  0  0  0  0  0  0  0  0  0  0  0
   58.1140   28.6780   45.4650 C   0  0  0  0  0  0  0  0  0  0  0  0
   57.1950   29.4790   44.1910 S   0  0  0  0  0  0  0  0  0  0  0  0
   55.8280   29.8150   44.7160 O   0  0  0  0  0  0  0  0  0  0  0  0
   57.0350   28.5840   42.9930 O   0  0  0  0  0  0  0  0  0  0  0  0
   58.0020   30.9450   43.7330 N   0  0  0  0  0  0  0  0  0  0  0  0
   58.2030   32.0530   44.6280 C   0  0  0  0  0  0  0  0  0  0  0  0
   57.4150   33.2080   44.4790 C   0  0  0  0  0  0  0  0  0  0  0  0
   57.5970   34.3050   45.3240 C   0  0  0  0  0  0  0  0  0  0  0  0
   58.5700   34.2660   46.3250 C   0  0  0  0  0  0  0  0  0  0  0  0
   59.3710   33.1220   46.4900 C   0  0  0  0  0  0  0  0  0  0  0  0
   60.3950   33.0860   47.5040 N   0  0  0  0  0  0  0  0  0  0  0  0
   61.7780   32.7420   47.1590 C   0  0  0  0  0  0  0  0  0  0  0  0
   62.4570   31.9500   48.3090 C   0  0  1  0  0  0  0  0  0  0  0  0
   63.5140   32.7850   49.0500 C   0  0  0  0  0  0  0  0  0  0  0  0
   61.4640   31.3920   49.2460 N   0  0  0  0  0  0  0  0  0  0  0  0
   60.6260   32.4270   49.8900 C   0  0  2  0  0  0  0  0  0  0  0  0
   59.4740   31.7590   50.6430 C   0  0  0  0  0  0  0  0  0  0  0  0
   60.1040   33.4910   48.8850 C   0  0  0  0  0  0  0  0  0  0  0  0
   59.1870   32.0240   45.6330 C   0  0  0  0  0  0  0  0  0  0  0  0
   57.4590   27.8050   46.3460 C   0  0  0  0  0  0  0  0  0  0  0  0
   58.1610   27.2160   47.4020 C   0  0  0  0  0  0  0  0  0  0  0  0
   61.2265   25.1676   52.2313 H   0  0  0  0  0  0  0  0  0  0  0  0
   59.8692   25.3309   50.9042 H   0  0  0  0  0  0  0  0  0  0  0  0
   62.2404   27.2193   51.4637 H   0  0  0  0  0  0  0  0  0  0  0  0
   61.2473   28.5830   46.8459 H   0  0  0  0  0  0  0  0  0  0  0  0
   60.0075   29.5911   44.9291 H   0  0  0  0  0  0  0  0  0  0  0  0
   58.1880   31.0800   42.7160 H   0  0  0  0  0  0  0  0  0  0  0  0
   56.6490   33.2479   43.6905 H   0  0  0  0  0  0  0  0  0  0  0  0
   56.9724   35.2020   45.2008 H   0  0  0  0  0  0  0  0  0  0  0  0
   58.7104   35.1333   46.9868 H   0  0  0  0  0  0  0  0  0  0  0  0
   61.7789   32.1255   46.2480 H   0  0  0  0  0  0  0  0  0  0  0  0
   62.3404   33.6729   46.9945 H   0  0  0  0  0  0  0  0  0  0  0  0
   62.9852   31.1074   47.8388 H   0  0  0  0  0  0  0  0  0  0  0  0
   63.3739   32.6743   50.1354 H   0  0  0  0  0  0  0  0  0  0  0  0
   64.5190   32.4343   48.7724 H   0  0  0  0  0  0  0  0  0  0  0  0
   63.4055   33.8438   48.7724 H   0  0  0  0  0  0  0  0  0  0  0  0
   60.8510   30.7330   48.7050 H   0  0  0  0  0  0  0  0  0  0  0  0
   61.2588   32.9739   50.6045 H   0  0  0  0  0  0  0  0  0  0  0  0
   59.6395   31.8550   51.7262 H   0  0  0  0  0  0  0  0  0  0  0  0
   58.5266   32.2478   50.3721 H   0  0  0  0  0  0  0  0  0  0  0  0
   59.4276   30.6939   50.3721 H   0  0  0  0  0  0  0  0  0  0  0  0
   59.0164   33.6009   49.0077 H   0  0  0  0  0  0  0  0  0  0  0  0
   60.6090   34.4470   49.0875 H   0  0  0  0  0  0  0  0  0  0  0  0
   59.8195   31.1316   45.7492 H   0  0  0  0  0  0  0  0  0  0  0  0
   56.3907   27.5833   46.2058 H   0  0  0  0  0  0  0  0  0  0  0  0
   57.6489   26.5073   48.0694 H   0  0  0  0  0  0  0  0  0  0  0  0
  1  2  2  0
  2  3  1  0
  3  4  2  0
  3  5  1  0
  5  6  1  0
  6  7  2  0
  7  8  1  0
  8  9  2  0
  9 10  1  0
 10 11  2  0
 10 12  2  0
 10 13  1  0
 13 14  1  0
 14 15  2  0
 15 16  1  0
 16 17  2  0
 17 18  1  0
 18 19  1  0
 19 20  1  0
 20 21  1  0
 21 22  1  0
 21 23  1  0
 23 24  1  0
 24 25  1  0
 24 26  1  0
 18 27  2  0
  9 28  1  0
 28 29  2  0
 29  6  1  0
 27 14  1  0
 26 19  1  0
  1 30  1  0
  1 31  1  0
  2 32  1  0
  7 33  1  0
  8 34  1  0
 13 35  1  0
 15 36  1  0
 16 37  1  0
 17 38  1  0
 20 39  1  0
 20 40  1  0
 21 41  1  6
 22 42  1  0
 22 43  1  0
 22 44  1  0
 23 45  1  0
 24 46  1  1
 25 47  1  0
 25 48  1  0
 25 49  1  0
 26 50  1  0
 26 51  1  0
 27 52  1  0
 28 53  1  0
 29 54  1  0
M  CHG  1   5  -1
M  END
>  <UniqueID>  (46) 
46

>  <SMILES>  (46) 
C=CC(=O)[N-]c1ccc(S(=O)(=O)Nc2cccc(N3C[C@@H](C)N[C@H](C)C3)c2)cc1

>  <Energy>  (46) 
66.90228694796038

>  <Genealogy>  (46) 
C=CC(=O)[N-]c1ccc(S(=O)(=O)Nc2cccc(N3CC(C)NC(C)C3)c2)cc1 (protonated)
C=CC(=O)[N-]c1ccc(S(=O)(=O)Nc2cccc(N3C[C@@H](C)N[C@H](C)C3)c2)cc1 (chirality)
C=CC(=O)[N-]c1ccc(S(=O)(=O)Nc2cccc(N3C[C@@H](C)N[C@H](C)C3)c2)cc1 (3D coordinates assigned)
C=CC(=O)[N-]c1ccc(S(=O)(=O)Nc2cccc(N3C[C@@H](C)N[C@H](C)C3)c2)cc1 (nonaromatic ring conformer: 66.90228694796038 kcal/mol)

>  <smiles>  (46) 
C=CC(=O)Nc1ccc(S(=O)(=O)Nc2cccc(N3CC(C)NC(C)C3)c2)cc1

>  <score_type>  (46) 
oracle

>  <origin>  (46) 
adg

>  <m_score__min__energy>  (46) 
-10.69

>  <m_primary>  (46) 
energy

$$$$
46:0
     RDKit          3D

 65 69  0  0  0  0  0  0  0  0999 V2000
   60.9870   28.6940   44.9110 C   0  0  0  0  0  0  0  0  0  0  0  0
   59.6350   28.2490   44.8540 O   0  0  0  0  0  0  0  0  0  0  0  0
   58.5380   29.0800   44.5790 C   0  0  0  0  0  0  0  0  0  0  0  0
   58.6910   30.4100   44.1380 C   0  0  0  0  0  0  0  0  0  0  0  0
   57.5650   31.2190   43.9060 C   0  0  0  0  0  0  0  0  0  0  0  0
   57.7260   32.6730   43.5060 C   0  0  0  0  0  0  0  0  0  0  0  0
   57.9520   33.5860   44.6530 N   0  0  0  0  0  0  0  0  0  0  0  0
   57.4940   33.0310   45.9490 C   0  0  0  0  0  0  0  0  0  0  0  0
   58.0000   33.8600   47.1330 C   0  0  0  0  0  0  0  0  0  0  0  0
   59.5580   33.9190   47.1790 C   0  0  0  0  0  0  0  0  0  0  0  0
   60.1790   33.0290   48.2070 N   0  0  2  0  0  0  0  0  0  0  0  0
   61.1100   33.7030   49.0640 C   0  0  0  0  0  0  0  0  0  0  0  0
   60.7510   34.5650   49.9110 O   0  0  0  0  0  0  0  0  0  0  0  0
   62.4480   33.2460   48.9620 N   0  0  0  0  0  0  0  0  0  0  0  0
   63.6370   33.7420   49.6700 C   0  0  0  0  0  0  0  0  0  0  0  0
   63.7060   33.3170   51.1330 C   0  0  0  0  0  0  0  0  0  0  0  0
   64.9640   32.5110   50.8320 C   0  0  0  0  0  0  0  0  0  0  0  0
   64.8990   32.9410   49.3690 C   0  0  0  0  0  0  0  0  0  0  0  0
   62.4790   32.1590   48.0090 C   0  0  0  0  0  0  0  0  0  0  0  0
   60.9990   31.9350   47.5970 C   0  0  1  0  0  0  0  0  0  0  0  0
   60.5050   30.5640   48.0330 C   0  0  0  0  0  0  0  0  0  0  0  0
   59.3290   30.0120   47.4840 C   0  0  0  0  0  0  0  0  0  0  0  0
   58.8890   28.7470   47.8830 C   0  0  0  0  0  0  0  0  0  0  0  0
   59.6140   28.0180   48.8280 C   0  0  0  0  0  0  0  0  0  0  0  0
   60.7840   28.5520   49.3760 C   0  0  0  0  0  0  0  0  0  0  0  0
   61.2310   29.8170   48.9800 C   0  0  0  0  0  0  0  0  0  0  0  0
   60.1930   33.7030   45.7790 C   0  0  0  0  0  0  0  0  0  0  0  0
   59.2840   34.2400   44.6680 C   0  0  0  0  0  0  0  0  0  0  0  0
   56.2820   30.6710   44.0720 C   0  0  0  0  0  0  0  0  0  0  0  0
   56.1270   29.3520   44.4990 C   0  0  0  0  0  0  0  0  0  0  0  0
   57.2480   28.5620   44.7570 C   0  0  0  0  0  0  0  0  0  0  0  0
   57.0840   27.2860   45.1850 F   0  0  0  0  0  0  0  0  0  0  0  0
   61.2956   28.7956   45.9619 H   0  0  0  0  0  0  0  0  0  0  0  0
   61.6355   27.9619   44.4075 H   0  0  0  0  0  0  0  0  0  0  0  0
   61.0739   29.6682   44.4075 H   0  0  0  0  0  0  0  0  0  0  0  0
   59.6993   30.8181   43.9741 H   0  0  0  0  0  0  0  0  0  0  0  0
   58.5857   32.7524   42.8244 H   0  0  0  0  0  0  0  0  0  0  0  0
   56.7833   32.9817   43.0306 H   0  0  0  0  0  0  0  0  0  0  0  0
   56.3941   33.0229   45.9641 H   0  0  0  0  0  0  0  0  0  0  0  0
   57.8981   32.0126   46.0469 H   0  0  0  0  0  0  0  0  0  0  0  0
   57.6080   34.8839   47.0435 H   0  0  0  0  0  0  0  0  0  0  0  0
   57.6498   33.3805   48.0590 H   0  0  0  0  0  0  0  0  0  0  0  0
   59.7895   34.9445   47.5025 H   0  0  0  0  0  0  0  0  0  0  0  0
   59.4190   32.6330   48.8080 H   0  0  0  0  0  0  0  0  0  0  0  0
   63.5771   34.8087   49.4081 H   0  0  0  0  0  0  0  0  0  0  0  0
   63.8616   34.1483   51.8364 H   0  0  0  0  0  0  0  0  0  0  0  0
   62.8407   32.8423   51.6188 H   0  0  0  0  0  0  0  0  0  0  0  0
   65.8601   32.8642   51.3633 H   0  0  0  0  0  0  0  0  0  0  0  0
   65.0143   31.4439   51.0942 H   0  0  0  0  0  0  0  0  0  0  0  0
   65.7527   33.5521   49.0408 H   0  0  0  0  0  0  0  0  0  0  0  0
   64.9074   32.1911   48.5643 H   0  0  0  0  0  0  0  0  0  0  0  0
   63.0860   32.4314   47.1331 H   0  0  0  0  0  0  0  0  0  0  0  0
   62.9282   31.2506   48.4367 H   0  0  0  0  0  0  0  0  0  0  0  0
   60.9067   31.9650   46.5013 H   0  0  0  0  0  0  0  0  0  0  0  0
   58.7548   30.5804   46.7375 H   0  0  0  0  0  0  0  0  0  0  0  0
   57.9695   28.3246   47.4517 H   0  0  0  0  0  0  0  0  0  0  0  0
   59.2643   27.0232   49.1413 H   0  0  0  0  0  0  0  0  0  0  0  0
   61.3542   27.9764   50.1200 H   0  0  0  0  0  0  0  0  0  0  0  0
   62.1548   30.2303   49.4109 H   0  0  0  0  0  0  0  0  0  0  0  0
   61.1583   34.2289   45.7381 H   0  0  0  0  0  0  0  0  0  0  0  0
   60.3321   32.6230   45.6230 H   0  0  0  0  0  0  0  0  0  0  0  0
   59.1440   35.3205   44.8191 H   0  0  0  0  0  0  0  0  0  0  0  0
   59.7715   34.0241   43.7058 H   0  0  0  0  0  0  0  0  0  0  0  0
   55.3940   31.2860   43.8639 H   0  0  0  0  0  0  0  0  0  0  0  0
   55.1185   28.9336   44.6327 H   0  0  0  0  0  0  0  0  0  0  0  0
  1  2  1  0
  2  3  1  0
  3  4  2  0
  4  5  1  0
  5  6  1  0
  6  7  1  0
  7  8  1  0
  8  9  1  0
  9 10  1  0
 10 11  1  0
 11 12  1  0
 12 13  2  0
 12 14  1  0
 14 15  1  0
 15 16  1  0
 16 17  1  0
 17 18  1  0
 14 19  1  0
 19 20  1  0
 20 21  1  0
 21 22  2  0
 22 23  1  0
 23 24  2  0
 24 25  1  0
 25 26  2  0
 10 27  1  0
 27 28  1  0
  5 29  2  0
 29 30  1  0
 30 31  2  0
 31 32  1  0
 31  3  1  0
 28  7  1  0
 20 11  1  0
 26 21  1  0
 18 15  1  0
  1 33  1  0
  1 34  1  0
  1 35  1  0
  4 36  1  0
  6 37  1  0
  6 38  1  0
  8 39  1  0
  8 40  1  0
  9 41  1  0
  9 42  1  0
 10 43  1  0
 11 44  1  1
 15 45  1  0
 16 46  1  0
 16 47  1  0
 17 48  1  0
 17 49  1  0
 18 50  1  0
 18 51  1  0
 19 52  1  0
 19 53  1  0
 20 54  1  6
 22 55  1  0
 23 56  1  0
 24 57  1  0
 25 58  1  0
 26 59  1  0
 27 60  1  0
 27 61  1  0
 28 62  1  0
 28 63  1  0
 29 64  1  0
 30 65  1  0
M  CHG  1  11   1
M  END
>  <UniqueID>  (47) 
47

>  <SMILES>  (47) 
COc1cc(CN2CCC([N@@H+]3C(=O)N(C4CCC4)C[C@H]3c3ccccc3)CC2)ccc1F

>  <Energy>  (47) 
152.6909768284492

>  <Genealogy>  (47) 
COc1cc(CN2CCC([NH+]3C(=O)N(C4CCC4)CC3c3ccccc3)CC2)ccc1F (protonated)
COc1cc(CN2CCC([N@@H+]3C(=O)N(C4CCC4)C[C@H]3c3ccccc3)CC2)ccc1F (chirality)
COc1cc(CN2CCC([N@@H+]3C(=O)N(C4CCC4)C[C@H]3c3ccccc3)CC2)ccc1F (3D coordinates assigned)
COc1cc(CN2CCC([N@@H+]3C(=O)N(C4CCC4)C[C@H]3c3ccccc3)CC2)ccc1F (nonaromatic ring conformer: 152.6909768284492 kcal/mol)

>  <smiles>  (47) 
COc1cc(CN2CCC(N3C(=O)N(C4CCC4)CC3c3ccccc3)CC2)ccc1F

>  <score_type>  (47) 
oracle

>  <origin>  (47) 
adg

>  <m_score__min__energy>  (47) 
-7.9500000000000002

>  <m_primary>  (47) 
energy

$$$$
47:0
     RDKit          3D

 46 49  0  0  0  0  0  0  0  0999 V2000
   53.2150   27.8509   53.2846 H   0  0  0  0  0  0  0  0  0  0  0  0
   54.2860   28.0270   53.1060 C   0  0  0  0  0  0  0  0  0  0  0  0
   55.0216   27.2511   53.3647 H   0  0  0  0  0  0  0  0  0  0  0  0
   54.6940   29.1850   52.5740 C   0  0  0  0  0  0  0  0  0  0  0  0
   55.9690   29.4190   52.3510 O   0  0  0  0  0  0  0  0  0  0  0  0
   56.1050   30.6850   52.0160 C   0  0  0  0  0  0  0  0  0  0  0  0
   57.4030   31.3020   51.7390 C   0  0  0  0  0  0  0  0  0  0  0  0
   57.4890   32.5610   51.8900 O   0  0  0  0  0  0  0  0  0  0  0  0
   58.5680   30.5450   51.3100 N   0  0  0  0  0  0  0  0  0  0  0  0
   58.4960   29.6220   51.8010 H   0  0  0  0  0  0  0  0  0  0  0  0
   58.6010   30.2160   49.8560 C   0  0  0  0  0  0  0  0  0  0  0  0
   59.2558   29.3436   49.7140 H   0  0  0  0  0  0  0  0  0  0  0  0
   57.5621   30.0215   49.5511 H   0  0  0  0  0  0  0  0  0  0  0  0
   59.1190   31.3600   48.9640 C   0  0  0  0  0  0  0  0  0  0  0  0
   59.3698   30.9582   47.9712 H   0  0  0  0  0  0  0  0  0  0  0  0
   58.3334   32.1252   48.8793 H   0  0  0  0  0  0  0  0  0  0  0  0
   60.3120   31.9740   49.5490 N   0  0  0  0  0  0  0  0  0  0  0  0
   61.3400   32.5010   48.6820 C   0  0  0  0  0  0  0  0  0  0  0  0
   60.9850   33.2940   47.5730 C   0  0  0  0  0  0  0  0  0  0  0  0
   59.9265   33.5267   47.3848 H   0  0  0  0  0  0  0  0  0  0  0  0
   61.9690   33.7880   46.7090 C   0  0  0  0  0  0  0  0  0  0  0  0
   61.6819   34.3979   45.8398 H   0  0  0  0  0  0  0  0  0  0  0  0
   63.3180   33.5060   46.9510 C   0  0  0  0  0  0  0  0  0  0  0  0
   64.0912   33.8930   46.2710 H   0  0  0  0  0  0  0  0  0  0  0  0
   63.6840   32.7310   48.0590 C   0  0  0  0  0  0  0  0  0  0  0  0
   64.7454   32.5160   48.2518 H   0  0  0  0  0  0  0  0  0  0  0  0
   62.6990   32.2280   48.9240 C   0  0  0  0  0  0  0  0  0  0  0  0
   62.9903   31.6193   49.7927 H   0  0  0  0  0  0  0  0  0  0  0  0
   60.2740   32.3590   50.9550 C   0  0  0  0  0  0  0  0  0  0  0  0
   61.2754   32.6830   51.2746 H   0  0  0  0  0  0  0  0  0  0  0  0
   59.5626   33.1867   51.0917 H   0  0  0  0  0  0  0  0  0  0  0  0
   59.8310   31.1550   51.7980 C   0  0  0  0  0  0  0  0  0  0  0  0
   60.6241   30.3934   51.7672 H   0  0  0  0  0  0  0  0  0  0  0  0
   59.6512   31.5153   52.8216 H   0  0  0  0  0  0  0  0  0  0  0  0
   54.8790   31.3250   52.0010 C   0  0  0  0  0  0  0  0  0  0  0  0
   54.6880   32.3903   51.8043 H   0  0  0  0  0  0  0  0  0  0  0  0
   53.9420   30.3460   52.2850 C   0  0  0  0  0  0  0  0  0  0  0  0
   52.6120   30.5680   52.2050 C   0  0  0  0  0  0  0  0  0  0  0  0
   52.0479   30.5252   53.1484 H   0  0  0  0  0  0  0  0  0  0  0  0
   51.8340   30.8630   50.9800 C   0  0  0  0  0  0  0  0  0  0  0  0
   51.7860   30.1030   49.8630 N   0  0  0  0  0  0  0  0  0  0  0  0
   51.0150   30.8230   49.0100 C   0  0  0  0  0  0  0  0  0  0  0  0
   50.7070   30.4220   47.8450 O   0  0  0  0  0  0  0  0  0  0  0  0
   50.6050   32.0140   49.4950 N   0  0  0  0  0  0  0  0  0  0  0  0
   51.1480   32.0280   50.7330 C   0  0  0  0  0  0  0  0  0  0  0  0
   51.0210   33.0880   51.6280 O   0  0  0  0  0  0  0  0  0  0  0  0
  1  2  1  0
  2  3  1  0
  2  4  2  0
  4  5  1  0
  5  6  1  0
  6  7  1  0
  7  8  2  0
  7  9  1  0
  9 10  1  0
  9 11  1  0
 11 12  1  0
 11 13  1  0
 11 14  1  0
 14 15  1  0
 14 16  1  0
 14 17  1  0
 17 18  1  0
 18 19  2  0
 19 20  1  0
 19 21  1  0
 21 22  1  0
 21 23  2  0
 23 24  1  0
 23 25  1  0
 25 26  1  0
 25 27  2  0
 27 28  1  0
 17 29  1  0
 29 30  1  0
 29 31  1  0
 29 32  1  0
 32 33  1  0
 32 34  1  0
  6 35  2  0
 35 36  1  0
 35 37  1  0
 37 38  2  0
 38 39  1  0
 38 40  1  0
 40 41  1  0
 41 42  1  0
 42 43  2  0
 42 44  1  0
 44 45  1  0
 45 46  1  0
 37  4  1  0
 45 40  2  0
 32  9  1  0
 27 18  1  0
M  CHG  4   9   1  41  -1  44  -1  46  -1
M  END
>  <UniqueID>  (48) 
48

>  <SMILES>  (48) 
C=c1oc(C(=O)[NH+]2CCN(c3ccccc3)CC2)c/c1=C/c1[n-]c(=O)[n-]c1[O-]

>  <Energy>  (48) 
137.58948657139538

>  <Genealogy>  (48) 
C=c1oc(C(=O)[NH+]2CCN(c3ccccc3)CC2)cc1=Cc1[n-]c(=O)[n-]c1[O-] (protonated)
C=c1oc(C(=O)[NH+]2CCN(c3ccccc3)CC2)c/c1=C/c1[n-]c(=O)[n-]c1[O-] (cis-trans isomerization)
C=c1oc(C(=O)[NH+]2CCN(c3ccccc3)CC2)c/c1=C/c1[n-]c(=O)[n-]c1[O-] (3D coordinates assigned)
C=c1oc(C(=O)[NH+]2CCN(c3ccccc3)CC2)c/c1=C/c1[n-]c(=O)[n-]c1[O-] (nonaromatic ring conformer: 137.58948657139538 kcal/mol)

>  <smiles>  (48) 
C=c1oc(C(=O)N2CCN(c3ccccc3)CC2)cc1=Cc1[nH]c(=O)[nH]c1O

>  <score_type>  (48) 
oracle

>  <origin>  (48) 
adg

>  <m_score__min__energy>  (48) 
-16.77

>  <m_primary>  (48) 
energy

$$$$
48:0
     RDKit          3D

 44 46  0  0  0  0  0  0  0  0999 V2000
   59.9660   27.9440   47.2110 C   0  0  0  0  0  0  0  0  0  0  0  0
   60.2670   26.7190   46.3540 C   0  0  0  0  0  0  0  0  0  0  0  0
   59.4700   25.6080   46.7640 O   0  0  0  0  0  0  0  0  0  0  0  0
   58.5380   24.9210   45.9650 C   0  0  0  0  0  0  0  0  0  0  0  0
   58.8510   23.6980   45.3370 C   0  0  0  0  0  0  0  0  0  0  0  0
   57.8990   23.0370   44.5560 C   0  0  0  0  0  0  0  0  0  0  0  0
   56.6270   23.5810   44.3950 C   0  0  0  0  0  0  0  0  0  0  0  0
   56.2990   24.7890   45.0120 C   0  0  0  0  0  0  0  0  0  0  0  0
   57.2470   25.4700   45.7950 C   0  0  0  0  0  0  0  0  0  0  0  0
   56.8410   26.7580   46.4680 C   0  0  0  0  0  0  0  0  0  0  0  0
   55.8980   27.4870   45.6280 N   0  0  0  0  0  0  0  0  0  0  0  0
   56.2560   28.6230   44.8360 C   0  0  0  0  0  0  0  0  0  0  0  0
   55.3680   29.3820   44.3640 O   0  0  0  0  0  0  0  0  0  0  0  0
   57.6940   28.8720   44.5130 C   0  0  0  0  0  0  0  0  0  0  0  0
   58.1840   29.9980   45.3080 N   0  0  0  0  0  0  0  0  0  0  0  0
   57.7220   31.4930   44.5520 S   0  0  0  0  0  0  0  0  0  0  0  0
   58.2320   31.5220   43.1380 O   0  0  0  0  0  0  0  0  0  0  0  0
   56.2250   31.6260   44.5310 O   0  0  0  0  0  0  0  0  0  0  0  0
   58.4130   32.8350   45.4680 C   0  0  0  0  0  0  0  0  0  0  0  0
   58.7550   34.0360   44.8200 C   0  0  0  0  0  0  0  0  0  0  0  0
   59.3170   35.1040   45.5380 C   0  0  0  0  0  0  0  0  0  0  0  0
   59.5520   34.9940   46.9140 C   0  0  0  0  0  0  0  0  0  0  0  0
   59.2240   33.8080   47.5680 C   0  0  0  0  0  0  0  0  0  0  0  0
   59.4290   33.6240   48.8960 N   0  0  0  0  0  0  0  0  0  0  0  0
   58.8660   32.0780   49.0660 S   0  0  0  0  0  0  0  0  0  0  0  0
   58.3680   31.6030   47.5620 N   0  0  0  0  0  0  0  0  0  0  0  0
   58.6530   32.7210   46.8460 C   0  0  0  0  0  0  0  0  0  0  0  0
   60.0327   27.6726   48.2749 H   0  0  0  0  0  0  0  0  0  0  0  0
   60.6963   28.7358   46.9881 H   0  0  0  0  0  0  0  0  0  0  0  0
   58.9519   28.3072   46.9881 H   0  0  0  0  0  0  0  0  0  0  0  0
   60.0476   26.9519   45.3016 H   0  0  0  0  0  0  0  0  0  0  0  0
   61.3284   26.4560   46.4735 H   0  0  0  0  0  0  0  0  0  0  0  0
   59.8525   23.2607   45.4628 H   0  0  0  0  0  0  0  0  0  0  0  0
   58.1548   22.0852   44.0675 H   0  0  0  0  0  0  0  0  0  0  0  0
   55.8797   23.0576   43.7805 H   0  0  0  0  0  0  0  0  0  0  0  0
   55.2913   25.2113   44.8846 H   0  0  0  0  0  0  0  0  0  0  0  0
   56.3667   26.5299   47.4340 H   0  0  0  0  0  0  0  0  0  0  0  0
   57.7353   27.3784   46.6272 H   0  0  0  0  0  0  0  0  0  0  0  0
   58.2835   27.9734   44.7475 H   0  0  0  0  0  0  0  0  0  0  0  0
   57.7943   29.1071   43.4431 H   0  0  0  0  0  0  0  0  0  0  0  0
   57.7090   29.9710   46.2400 H   0  0  0  0  0  0  0  0  0  0  0  0
   58.5802   34.1396   43.7389 H   0  0  0  0  0  0  0  0  0  0  0  0
   59.5752   36.0362   45.0143 H   0  0  0  0  0  0  0  0  0  0  0  0
   59.9905   35.8342   47.4723 H   0  0  0  0  0  0  0  0  0  0  0  0
  1  2  1  0
  2  3  1  0
  3  4  1  0
  4  5  2  0
  5  6  1  0
  6  7  2  0
  7  8  1  0
  8  9  2  0
  9 10  1  0
 10 11  1  0
 11 12  1  0
 12 13  2  0
 12 14  1  0
 14 15  1  0
 15 16  1  0
 16 17  2  0
 16 18  2  0
 16 19  1  0
 19 20  2  0
 20 21  1  0
 21 22  2  0
 22 23  1  0
 23 24  2  0
 24 25  1  0
 25 26  1  0
 26 27  2  0
  9  4  1  0
 27 19  1  0
 27 23  1  0
  1 28  1  0
  1 29  1  0
  1 30  1  0
  2 31  1  0
  2 32  1  0
  5 33  1  0
  6 34  1  0
  7 35  1  0
  8 36  1  0
 10 37  1  0
 10 38  1  0
 14 39  1  0
 14 40  1  0
 15 41  1  0
 20 42  1  0
 21 43  1  0
 22 44  1  0
M  CHG  1  11  -1
M  END
>  <UniqueID>  (49) 
49

>  <SMILES>  (49) 
CCOc1ccccc1C[N-]C(=O)CNS(=O)(=O)c1cccc2nsnc12

>  <Energy>  (49) 
77.14943881820182

>  <Genealogy>  (49) 
CCOc1ccccc1C[N-]C(=O)CNS(=O)(=O)c1cccc2nsnc12 (protonated)
CCOc1ccccc1C[N-]C(=O)CNS(=O)(=O)c1cccc2nsnc12 (3D coordinates assigned)
CCOc1ccccc1C[N-]C(=O)CNS(=O)(=O)c1cccc2nsnc12 (optimized conformer: 77.14943881820182 kcal/mol)

>  <smiles>  (49) 
CCOc1ccccc1CNC(=O)CNS(=O)(=O)c1cccc2nsnc12

>  <score_type>  (49) 
oracle

>  <origin>  (49) 
adg

>  <m_score__min__energy>  (49) 
-10.539999999999999

>  <m_primary>  (49) 
energy

$$$$
49:0
     RDKit          3D

 47 49  0  0  0  0  0  0  0  0999 V2000
   55.5874   30.2171   44.0415 H   0  0  0  0  0  0  0  0  0  0  0  0
   56.4000   29.7400   44.6090 C   0  0  0  0  0  0  0  0  0  0  0  0
   56.1820   28.5560   45.2400 N   0  0  0  0  0  0  0  0  0  0  0  0
   57.1570   27.9220   45.9510 C   0  0  0  0  0  0  0  0  0  0  0  0
   56.9320   26.7880   46.5500 N   0  0  0  0  0  0  0  0  0  0  0  0
   55.8430   25.8800   46.3180 C   0  0  0  0  0  0  0  0  0  0  0  0
   54.7460   26.3420   45.9040 O   0  0  0  0  0  0  0  0  0  0  0  0
   55.9890   24.4710   46.5320 N   0  0  0  0  0  0  0  0  0  0  0  0
   56.1140   23.4940   45.4550 C   0  0  0  0  0  0  0  0  0  0  0  0
   55.1178   23.0985   45.2078 H   0  0  0  0  0  0  0  0  0  0  0  0
   56.7736   22.6794   45.7887 H   0  0  0  0  0  0  0  0  0  0  0  0
   56.7190   24.1410   44.2140 C   0  0  0  0  0  0  0  0  0  0  0  0
   57.4410   24.9131   44.5181 H   0  0  0  0  0  0  0  0  0  0  0  0
   57.2322   23.3749   43.6143 H   0  0  0  0  0  0  0  0  0  0  0  0
   55.9202   24.6018   43.6143 H   0  0  0  0  0  0  0  0  0  0  0  0
   58.4280   28.4990   46.0360 C   0  0  0  0  0  0  0  0  0  0  0  0
   59.2268   27.9981   46.6025 H   0  0  0  0  0  0  0  0  0  0  0  0
   58.6760   29.7150   45.3970 C   0  0  0  0  0  0  0  0  0  0  0  0
   59.6750   30.1713   45.4578 H   0  0  0  0  0  0  0  0  0  0  0  0
   57.6610   30.3560   44.6800 C   0  0  0  0  0  0  0  0  0  0  0  0
   57.9490   31.5830   44.0600 O   0  0  0  0  0  0  0  0  0  0  0  0
   57.4210   32.8490   44.4540 C   0  0  0  0  0  0  0  0  0  0  0  0
   57.3954   33.5171   43.5805 H   0  0  0  0  0  0  0  0  0  0  0  0
   56.4060   32.7006   44.8510 H   0  0  0  0  0  0  0  0  0  0  0  0
   58.2740   33.4710   45.5270 C   0  0  0  0  0  0  0  0  0  0  0  0
   59.1530   34.5150   45.2030 C   0  0  0  0  0  0  0  0  0  0  0  0
   59.2231   34.8698   44.1642 H   0  0  0  0  0  0  0  0  0  0  0  0
   59.9400   35.1060   46.1950 C   0  0  0  0  0  0  0  0  0  0  0  0
   60.6218   35.9298   45.9371 H   0  0  0  0  0  0  0  0  0  0  0  0
   59.8620   34.6520   47.5140 C   0  0  0  0  0  0  0  0  0  0  0  0
   60.4764   35.1274   48.2928 H   0  0  0  0  0  0  0  0  0  0  0  0
   59.0070   33.5960   47.8510 C   0  0  0  0  0  0  0  0  0  0  0  0
   58.9520   33.1630   49.2180 N   0  0  0  0  0  0  0  0  0  0  0  0
   58.6940   31.8300   49.6780 C   0  0  0  0  0  0  0  0  0  0  0  0
   58.5850   30.8780   48.8580 O   0  0  0  0  0  0  0  0  0  0  0  0
   58.5060   31.5740   51.1500 C   0  0  0  0  0  0  0  0  0  0  0  0
   59.2927   32.2459   51.5236 H   0  0  0  0  0  0  0  0  0  0  0  0
   57.0610   31.6370   51.6250 C   0  0  0  0  0  0  0  0  0  0  0  0
   56.9148   32.3009   52.4898 H   0  0  0  0  0  0  0  0  0  0  0  0
   56.2972   32.0316   50.9387 H   0  0  0  0  0  0  0  0  0  0  0  0
   57.0250   30.2160   51.9720 N   0  0  0  0  0  0  0  0  0  0  0  0
   56.4110   29.7210   51.2820 H   0  0  0  0  0  0  0  0  0  0  0  0
   58.4130   30.1010   51.5230 C   0  0  0  0  0  0  0  0  0  0  0  0
   59.1078   29.8094   52.3244 H   0  0  0  0  0  0  0  0  0  0  0  0
   58.6597   29.3475   50.7605 H   0  0  0  0  0  0  0  0  0  0  0  0
   58.1910   33.0260   46.8580 C   0  0  0  0  0  0  0  0  0  0  0  0
   57.4833   32.2270   47.1241 H   0  0  0  0  0  0  0  0  0  0  0  0
  1  2  1  0
  2  3  1  0
  3  4  1  0
  4  5  2  0
  5  6  1  0
  6  7  2  0
  6  8  1  0
  8  9  1  0
  9 10  1  0
  9 11  1  0
  9 12  1  0
 12 13  1  0
 12 14  1  0
 12 15  1  0
  4 16  1  0
 16 17  1  0
 16 18  2  0
 18 19  1  0
 18 20  1  0
 20 21  1  0
 21 22  1  0
 22 23  1  0
 22 24  1  0
 22 25  1  0
 25 26  2  0
 26 27  1  0
 26 28  1  0
 28 29  1  0
 28 30  2  0
 30 31  1  0
 30 32  1  0
 32 33  1  0
 33 34  1  0
 34 35  2  0
 34 36  1  0
 36 37  1  0
 36 38  1  0
 38 39  1  0
 38 40  1  0
 38 41  1  0
 41 42  1  0
 41 43  1  0
 43 44  1  0
 43 45  1  0
 32 46  2  0
 46 47  1  0
 20  2  2  0
 46 25  1  0
 43 36  1  0
M  CHG  3   3  -1   8  -1  33  -1
M  END
>  <UniqueID>  (50) 
50

>  <SMILES>  (50) 
CC[N-]C(=O)/N=c1/ccc(OCc2cccc([N-]C(=O)C3CNC3)c2)c[n-]1

>  <Energy>  (50) 
116.42354401665274

>  <Genealogy>  (50) 
CC[N-]C(=O)N=c1ccc(OCc2cccc([N-]C(=O)C3CNC3)c2)c[n-]1 (protonated)
CC[N-]C(=O)/N=c1/ccc(OCc2cccc([N-]C(=O)C3CNC3)c2)c[n-]1 (cis-trans isomerization)
CC[N-]C(=O)/N=c1/ccc(OCc2cccc([N-]C(=O)C3CNC3)c2)c[n-]1 (3D coordinates assigned)
CC[N-]C(=O)/N=c1/ccc(OCc2cccc([N-]C(=O)C3CNC3)c2)c[n-]1 (nonaromatic ring conformer: 116.42354401665274 kcal/mol)

>  <smiles>  (50) 
CCNC(=O)N=c1ccc(OCc2cccc(NC(=O)C3CNC3)c2)c[nH]1

>  <score_type>  (50) 
oracle

>  <origin>  (50) 
adg

>  <m_score__min__energy>  (50) 
-12

>  <m_primary>  (50) 
energy

$$$$
50:0
     RDKit          3D

 68 71  0  0  0  0  0  0  0  0999 V2000
   59.3090   35.5520   45.0260 C   0  0  0  0  0  0  0  0  0  0  0  0
   60.1810   34.6630   45.9140 C   0  0  0  0  0  0  0  0  0  0  0  0
   59.3470   33.7760   46.7440 N   0  0  0  0  0  0  0  0  0  0  0  0
   59.2480   34.0830   48.1830 C   0  0  0  0  0  0  0  0  0  0  0  0
   60.2550   33.2900   48.9620 C   0  0  0  0  0  0  0  0  0  0  0  0
   61.4130   33.7540   49.1420 O   0  0  0  0  0  0  0  0  0  0  0  0
   59.9110   31.9730   49.4240 N   0  0  0  0  0  0  0  0  0  0  0  0
   59.2030   31.6650   50.4720 C   0  0  0  0  0  0  0  0  0  0  0  0
   58.8070   32.6250   51.4330 C   0  0  0  0  0  0  0  0  0  0  0  0
   57.9710   32.2400   52.4810 C   0  0  0  0  0  0  0  0  0  0  0  0
   57.5270   30.9170   52.5770 C   0  0  0  0  0  0  0  0  0  0  0  0
   56.5260   30.5310   53.6350 C   0  0  0  0  0  0  0  0  0  0  0  0
   55.1670   30.3490   53.0100 C   0  0  0  0  0  0  0  0  0  0  0  0
   54.3290   29.3030   53.4400 C   0  0  0  0  0  0  0  0  0  0  0  0
   53.1050   29.0770   52.8050 C   0  0  0  0  0  0  0  0  0  0  0  0
   52.6980   29.9030   51.7540 C   0  0  0  0  0  0  0  0  0  0  0  0
   51.5110   29.6830   51.1400 F   0  0  0  0  0  0  0  0  0  0  0  0
   53.5220   30.9480   51.3230 C   0  0  0  0  0  0  0  0  0  0  0  0
   54.7520   31.1770   51.9500 C   0  0  0  0  0  0  0  0  0  0  0  0
   57.9510   29.9890   51.6160 C   0  0  0  0  0  0  0  0  0  0  0  0
   58.7660   30.3830   50.6000 N   0  0  0  0  0  0  0  0  0  0  0  0
   58.6060   32.6680   46.1600 C   0  0  0  0  0  0  0  0  0  0  0  0
   58.4770   31.4360   46.8460 C   0  0  0  0  0  0  0  0  0  0  0  0
   57.7760   30.3690   46.2820 C   0  0  0  0  0  0  0  0  0  0  0  0
   57.1960   30.4990   45.0160 C   0  0  0  0  0  0  0  0  0  0  0  0
   56.4560   29.3790   44.4230 C   0  0  0  0  0  0  0  0  0  0  0  0
   56.3100   29.3340   43.1680 O   0  0  0  0  0  0  0  0  0  0  0  0
   55.8820   28.3380   45.2340 N   0  0  0  0  0  0  0  0  0  0  0  0
   56.5680   27.1150   45.6390 C   0  0  0  0  0  0  0  0  0  0  0  0
   57.9990   27.3930   46.0260 C   0  0  0  0  0  0  0  0  0  0  0  0
   58.9820   27.5510   45.0350 C   0  0  0  0  0  0  0  0  0  0  0  0
   60.2990   27.8530   45.3920 C   0  0  0  0  0  0  0  0  0  0  0  0
   60.6460   27.9930   46.7380 C   0  0  0  0  0  0  0  0  0  0  0  0
   59.6810   27.8090   47.7410 C   0  0  0  0  0  0  0  0  0  0  0  0
   60.0440   28.0150   49.1870 C   0  0  0  0  0  0  0  0  0  0  0  0
   60.9220   29.1030   49.3100 O   0  0  0  0  0  0  0  0  0  0  0  0
   58.3600   27.5080   47.3800 C   0  0  0  0  0  0  0  0  0  0  0  0
   57.3030   31.7140   44.3280 C   0  0  0  0  0  0  0  0  0  0  0  0
   57.9940   32.7890   44.8940 C   0  0  0  0  0  0  0  0  0  0  0  0
   58.6783   36.1950   45.6575 H   0  0  0  0  0  0  0  0  0  0  0  0
   59.9520   36.1791   44.3909 H   0  0  0  0  0  0  0  0  0  0  0  0
   58.6696   34.9213   44.3909 H   0  0  0  0  0  0  0  0  0  0  0  0
   60.8371   34.0505   45.2781 H   0  0  0  0  0  0  0  0  0  0  0  0
   60.7809   35.3049   46.5759 H   0  0  0  0  0  0  0  0  0  0  0  0
   59.4348   35.1560   48.3375 H   0  0  0  0  0  0  0  0  0  0  0  0
   58.2396   33.8182   48.5338 H   0  0  0  0  0  0  0  0  0  0  0  0
   59.1553   33.6654   51.3543 H   0  0  0  0  0  0  0  0  0  0  0  0
   57.6599   32.9789   53.2342 H   0  0  0  0  0  0  0  0  0  0  0  0
   56.8396   29.5887   54.1079 H   0  0  0  0  0  0  0  0  0  0  0  0
   56.4736   31.3266   54.3928 H   0  0  0  0  0  0  0  0  0  0  0  0
   54.6386   28.6616   54.2783 H   0  0  0  0  0  0  0  0  0  0  0  0
   52.4610   28.2477   53.1329 H   0  0  0  0  0  0  0  0  0  0  0  0
   53.2025   31.5910   50.4896 H   0  0  0  0  0  0  0  0  0  0  0  0
   55.3947   32.0043   51.6144 H   0  0  0  0  0  0  0  0  0  0  0  0
   57.6245   28.9407   51.6832 H   0  0  0  0  0  0  0  0  0  0  0  0
   58.9363   31.3181   47.8386 H   0  0  0  0  0  0  0  0  0  0  0  0
   57.6794   29.4230   46.8349 H   0  0  0  0  0  0  0  0  0  0  0  0
   56.0422   26.6775   46.5004 H   0  0  0  0  0  0  0  0  0  0  0  0
   56.5672   26.4179   44.7881 H   0  0  0  0  0  0  0  0  0  0  0  0
   58.7142   27.4366   43.9742 H   0  0  0  0  0  0  0  0  0  0  0  0
   61.0638   27.9807   44.6117 H   0  0  0  0  0  0  0  0  0  0  0  0
   61.6799   28.2485   47.0132 H   0  0  0  0  0  0  0  0  0  0  0  0
   59.1311   28.2159   49.7669 H   0  0  0  0  0  0  0  0  0  0  0  0
   60.5360   27.1083   49.5690 H   0  0  0  0  0  0  0  0  0  0  0  0
   60.3610   29.8920   49.5330 H   0  0  0  0  0  0  0  0  0  0  0  0
   57.6004   27.3607   48.1619 H   0  0  0  0  0  0  0  0  0  0  0  0
   56.8404   31.8230   43.3360 H   0  0  0  0  0  0  0  0  0  0  0  0
   58.0616   33.7406   44.3463 H   0  0  0  0  0  0  0  0  0  0  0  0
  1  2  1  0
  2  3  1  0
  3  4  1  0
  4  5  1  0
  5  6  2  0
  5  7  1  0
  7  8  2  3
  8  9  1  0
  9 10  2  0
 10 11  1  0
 11 12  1  0
 12 13  1  0
 13 14  2  0
 14 15  1  0
 15 16  2  0
 16 17  1  0
 16 18  1  0
 18 19  2  0
 11 20  2  0
 20 21  1  0
  3 22  1  0
 22 23  2  0
 23 24  1  0
 24 25  2  0
 25 26  1  0
 26 27  2  0
 26 28  1  0
 28 29  1  0
 29 30  1  0
 30 31  2  0
 31 32  1  0
 32 33  2  0
 33 34  1  0
 34 35  1  0
 35 36  1  0
 34 37  2  0
 25 38  1  0
 38 39  2  0
 21  8  1  0
 39 22  1  0
 19 13  1  0
 37 30  1  0
  1 40  1  0
  1 41  1  0
  1 42  1  0
  2 43  1  0
  2 44  1  0
  4 45  1  0
  4 46  1  0
  9 47  1  0
 10 48  1  0
 12 49  1  0
 12 50  1  0
 14 51  1  0
 15 52  1  0
 18 53  1  0
 19 54  1  0
 20 55  1  0
 23 56  1  0
 24 57  1  0
 29 58  1  0
 29 59  1  0
 31 60  1  0
 32 61  1  0
 33 62  1  0
 35 63  1  0
 35 64  1  0
 36 65  1  0
 37 66  1  0
 38 67  1  0
 39 68  1  0
M  CHG  2  21  -1  28  -1
M  END
>  <UniqueID>  (51) 
51

>  <SMILES>  (51) 
CCN(CC(=O)N=c1ccc(Cc2ccc(F)cc2)c[n-]1)c1ccc(C(=O)[N-]Cc2cccc(CO)c2)cc1

>  <Energy>  (51) 
77.66945193181668

>  <Genealogy>  (51) 
CCN(CC(=O)N=c1ccc(Cc2ccc(F)cc2)c[n-]1)c1ccc(C(=O)[N-]Cc2cccc(CO)c2)cc1 (protonated)
CCN(CC(=O)N=c1ccc(Cc2ccc(F)cc2)c[n-]1)c1ccc(C(=O)[N-]Cc2cccc(CO)c2)cc1 (3D coordinates assigned)
CCN(CC(=O)N=c1ccc(Cc2ccc(F)cc2)c[n-]1)c1ccc(C(=O)[N-]Cc2cccc(CO)c2)cc1 (optimized conformer: 77.66945193181668 kcal/mol)

>  <smiles>  (51) 
CCN(CC(=O)N=c1ccc(Cc2ccc(F)cc2)c[nH]1)c1ccc(C(=O)NCc2cccc(CO)c2)cc1

>  <score_type>  (51) 
oracle

>  <origin>  (51) 
adg

>  <m_score__min__energy>  (51) 
-13.199999999999999

>  <m_primary>  (51) 
energy

$$$$
51:0
     RDKit          3D

 26 27  0  0  0  0  0  0  0  0999 V2000
   60.3170   30.9620   46.3340 N   0  0  0  0  0  0  0  0  0  0  0  0
   60.0360   29.7910   45.5680 C   0  0  0  0  0  0  0  0  0  0  0  0
   60.9380   29.2900   44.8460 O   0  0  0  0  0  0  0  0  0  0  0  0
   58.7360   29.1880   45.6210 N   0  0  0  0  0  0  0  0  0  0  0  0
   57.6210   29.6460   45.0080 C   0  0  0  0  0  0  0  0  0  0  0  0
   56.5710   28.8070   45.3040 C   0  0  0  0  0  0  0  0  0  0  0  0
   55.2590   28.9510   44.8690 O   0  0  0  0  0  0  0  0  0  0  0  0
   57.0560   27.8050   46.1110 C   0  0  0  0  0  0  0  0  0  0  0  0
   56.2690   26.7450   46.6700 N   0  0  0  0  0  0  0  0  0  0  0  0
   56.6290   25.3600   46.7530 C   0  0  0  0  0  0  0  0  0  0  0  0
   57.8120   25.0300   47.0300 O   0  0  0  0  0  0  0  0  0  0  0  0
   55.6130   24.3080   46.4790 C   0  0  0  0  0  0  0  0  0  0  0  0
   54.3530   24.6440   45.9270 C   0  0  0  0  0  0  0  0  0  0  0  0
   54.0190   25.9650   45.6480 O   0  0  0  0  0  0  0  0  0  0  0  0
   53.4070   23.6460   45.6690 C   0  0  0  0  0  0  0  0  0  0  0  0
   53.6920   22.3120   45.9600 C   0  0  0  0  0  0  0  0  0  0  0  0
   52.7440   21.3280   45.7030 O   0  0  0  0  0  0  0  0  0  0  0  0
   54.9250   21.9660   46.5100 C   0  0  0  0  0  0  0  0  0  0  0  0
   55.8850   22.9510   46.7680 C   0  0  0  0  0  0  0  0  0  0  0  0
   57.1120   22.5620   47.2970 O   0  0  0  0  0  0  0  0  0  0  0  0
   58.4040   28.0670   46.3000 C   0  0  0  0  0  0  0  0  0  0  0  0
   61.2820   31.3590   46.3720 H   0  0  0  0  0  0  0  0  0  0  0  0
   57.5627   30.5439   44.3752 H   0  0  0  0  0  0  0  0  0  0  0  0
   52.4330   23.9149   45.2342 H   0  0  0  0  0  0  0  0  0  0  0  0
   55.1446   20.9135   46.7424 H   0  0  0  0  0  0  0  0  0  0  0  0
   59.0932   27.4600   46.9055 H   0  0  0  0  0  0  0  0  0  0  0  0
  1  2  1  0
  2  3  2  0
  2  4  1  0
  4  5  1  0
  5  6  2  0
  6  7  1  0
  6  8  1  0
  8  9  1  0
  9 10  1  0
 10 11  2  0
 10 12  1  0
 12 13  2  0
 13 14  1  0
 13 15  1  0
 15 16  2  0
 16 17  1  0
 16 18  1  0
 18 19  2  0
 19 20  1  0
  8 21  2  0
 21  4  1  0
 19 12  1  0
  1 22  1  0
  5 23  1  0
 15 24  1  0
 18 25  1  0
 21 26  1  0
M  CHG  6   1  -1   7  -1   9  -1  14  -1  17  -1  20  -1
M  END
>  <UniqueID>  (52) 
52

>  <SMILES>  (52) 
[NH-]C(=O)n1cc([O-])c([N-]C(=O)c2c([O-])cc([O-])cc2[O-])c1

>  <Energy>  (52) 
61.54980605327876

>  <Genealogy>  (52) 
[NH-]C(=O)n1cc([O-])c([N-]C(=O)c2c([O-])cc([O-])cc2[O-])c1 (protonated)
[NH-]C(=O)n1cc([O-])c([N-]C(=O)c2c([O-])cc([O-])cc2[O-])c1 (3D coordinates assigned)
[NH-]C(=O)n1cc([O-])c([N-]C(=O)c2c([O-])cc([O-])cc2[O-])c1 (optimized conformer: 61.54980605327876 kcal/mol)

>  <smiles>  (52) 
NC(=O)n1cc(O)c(NC(=O)c2c(O)cc(O)cc2O)c1

>  <score_type>  (52) 
oracle

>  <origin>  (52) 
adg

>  <m_score__min__energy>  (52) 
-17.77

>  <m_primary>  (52) 
energy

$$$$
52:0
     RDKit          3D

 46 48  0  0  0  0  0  0  0  0999 V2000
   54.5827   28.1679   54.9215 H   0  0  0  0  0  0  0  0  0  0  0  0
   54.0500   28.8790   54.2730 C   0  0  0  0  0  0  0  0  0  0  0  0
   52.9575   28.8118   54.1638 H   0  0  0  0  0  0  0  0  0  0  0  0
   54.7340   29.8300   53.6140 C   0  0  0  0  0  0  0  0  0  0  0  0
   54.1380   30.7760   52.7680 C   0  0  0  0  0  0  0  0  0  0  0  0
   52.8600   31.1930   52.6670 C   0  0  0  0  0  0  0  0  0  0  0  0
   52.3609   31.5143   53.5931 H   0  0  0  0  0  0  0  0  0  0  0  0
   52.0750   31.2550   51.4220 C   0  0  0  0  0  0  0  0  0  0  0  0
   52.1530   30.3290   50.4500 N   0  0  0  0  0  0  0  0  0  0  0  0
   51.3670   30.8330   49.4730 C   0  0  0  0  0  0  0  0  0  0  0  0
   51.1720   30.2330   48.3840 O   0  0  0  0  0  0  0  0  0  0  0  0
   50.8160   32.0330   49.7510 N   0  0  0  0  0  0  0  0  0  0  0  0
   51.2840   32.2940   50.9820 C   0  0  0  0  0  0  0  0  0  0  0  0
   51.0210   33.4710   51.6730 O   0  0  0  0  0  0  0  0  0  0  0  0
   55.1370   31.2410   51.9510 C   0  0  0  0  0  0  0  0  0  0  0  0
   55.0229   31.9460   51.1143 H   0  0  0  0  0  0  0  0  0  0  0  0
   56.3080   30.6590   52.3760 C   0  0  0  0  0  0  0  0  0  0  0  0
   57.5430   30.7620   51.5810 C   0  0  0  0  0  0  0  0  0  0  0  0
   57.9080   29.7710   50.8940 O   0  0  0  0  0  0  0  0  0  0  0  0
   58.3150   31.9750   51.5550 N   0  0  0  0  0  0  0  0  0  0  0  0
   59.5630   32.0950   50.8240 C   0  0  0  0  0  0  0  0  0  0  0  0
   60.2274   31.2502   51.0580 H   0  0  0  0  0  0  0  0  0  0  0  0
   59.3993   32.0848   49.7363 H   0  0  0  0  0  0  0  0  0  0  0  0
   60.1870   33.4060   51.2870 C   0  0  0  0  0  0  0  0  0  0  0  0
   61.0052   33.2105   51.9958 H   0  0  0  0  0  0  0  0  0  0  0  0
   60.6135   33.9691   50.4438 H   0  0  0  0  0  0  0  0  0  0  0  0
   59.0680   34.1860   51.9710 C   0  0  0  0  0  0  0  0  0  0  0  0
   59.4472   34.6843   52.8754 H   0  0  0  0  0  0  0  0  0  0  0  0
   58.6622   34.9684   51.3129 H   0  0  0  0  0  0  0  0  0  0  0  0
   58.0040   33.1600   52.3390 C   0  0  0  0  0  0  0  0  0  0  0  0
   58.0469   32.9312   53.4141 H   0  0  0  0  0  0  0  0  0  0  0  0
   56.9903   33.5320   52.1294 H   0  0  0  0  0  0  0  0  0  0  0  0
   56.0980   29.8420   53.4530 N   0  0  0  0  0  0  0  0  0  0  0  0
   57.1380   29.1830   54.3210 C   0  0  0  0  0  0  0  0  0  0  0  0
   56.6750   29.1440   55.8080 C   0  0  0  0  0  0  0  0  0  0  0  0
   57.5524   29.2179   56.4673 H   0  0  0  0  0  0  0  0  0  0  0  0
   55.9974   29.9882   56.0033 H   0  0  0  0  0  0  0  0  0  0  0  0
   56.1482   28.1983   56.0033 H   0  0  0  0  0  0  0  0  0  0  0  0
   58.4780   29.9710   54.3280 C   0  0  0  0  0  0  0  0  0  0  0  0
   58.7900   30.1545   55.3667 H   0  0  0  0  0  0  0  0  0  0  0  0
   59.2514   29.3838   53.8111 H   0  0  0  0  0  0  0  0  0  0  0  0
   58.3408   30.9323   53.8111 H   0  0  0  0  0  0  0  0  0  0  0  0
   57.4220   27.7590   53.8090 C   0  0  0  0  0  0  0  0  0  0  0  0
   57.5571   27.0817   54.6651 H   0  0  0  0  0  0  0  0  0  0  0  0
   56.5751   27.4133   53.1980 H   0  0  0  0  0  0  0  0  0  0  0  0
   58.3367   27.7647   53.1980 H   0  0  0  0  0  0  0  0  0  0  0  0
  1  2  1  0
  2  3  1  0
  2  4  2  0
  4  5  1  0
  5  6  2  0
  6  7  1  0
  6  8  1  0
  8  9  1  0
  9 10  1  0
 10 11  2  0
 10 12  1  0
 12 13  1  0
 13 14  1  0
  5 15  1  0
 15 16  1  0
 15 17  2  0
 17 18  1  0
 18 19  2  0
 18 20  1  0
 20 21  1  0
 21 22  1  0
 21 23  1  0
 21 24  1  0
 24 25  1  0
 24 26  1  0
 24 27  1  0
 27 28  1  0
 27 29  1  0
 27 30  1  0
 30 31  1  0
 30 32  1  0
 17 33  1  0
 33 34  1  0
 34 35  1  0
 35 36  1  0
 35 37  1  0
 35 38  1  0
 34 39  1  0
 39 40  1  0
 39 41  1  0
 39 42  1  0
 34 43  1  0
 43 44  1  0
 43 45  1  0
 43 46  1  0
 33  4  1  0
 13  8  2  0
 30 20  1  0
M  CHG  3   9  -1  12  -1  14  -1
M  END
>  <UniqueID>  (53) 
53

>  <SMILES>  (53) 
C=c1/c(=C\c2[n-]c(=O)[n-]c2[O-])cc(C(=O)N2CCCC2)n1C(C)(C)C

>  <Energy>  (53) 
134.36777564248476

>  <Genealogy>  (53) 
C=c1c(=Cc2[n-]c(=O)[n-]c2[O-])cc(C(=O)N2CCCC2)n1C(C)(C)C (protonated)
C=c1/c(=C\c2[n-]c(=O)[n-]c2[O-])cc(C(=O)N2CCCC2)n1C(C)(C)C (cis-trans isomerization)
C=c1/c(=C\c2[n-]c(=O)[n-]c2[O-])cc(C(=O)N2CCCC2)n1C(C)(C)C (3D coordinates assigned)
C=c1/c(=C\c2[n-]c(=O)[n-]c2[O-])cc(C(=O)N2CCCC2)n1C(C)(C)C (nonaromatic ring conformer: 134.36777564248476 kcal/mol)

>  <smiles>  (53) 
C=c1c(=Cc2[nH]c(=O)[nH]c2O)cc(C(=O)N2CCCC2)n1C(C)(C)C

>  <score_type>  (53) 
oracle

>  <origin>  (53) 
adg

>  <m_score__min__energy>  (53) 
-16.469999999999999

>  <m_primary>  (53) 
energy

$$$$
53:0
     RDKit          3D

 50 52  0  0  0  0  0  0  0  0999 V2000
   61.1830   27.0500   50.8210 C   0  0  0  0  0  0  0  0  0  0  0  0
   60.7110   28.3860   49.7430 S   0  0  0  0  0  0  0  0  0  0  0  0
   59.4120   28.9920   50.1950 O   0  0  0  0  0  0  0  0  0  0  0  0
   61.7790   29.4410   49.7960 O   0  0  0  0  0  0  0  0  0  0  0  0
   60.5660   27.8170   48.1080 N   0  0  0  0  0  0  0  0  0  0  0  0
   59.3440   27.8240   47.3470 C   0  0  0  0  0  0  0  0  0  0  0  0
   58.4180   26.7900   47.5390 C   0  0  0  0  0  0  0  0  0  0  0  0
   57.2220   26.7350   46.8010 C   0  0  0  0  0  0  0  0  0  0  0  0
   56.2600   25.5770   47.0170 C   0  0  0  0  0  0  0  0  0  0  0  0
   55.5850   25.1060   45.7850 N   0  0  0  0  0  0  0  0  0  0  0  0
   56.4800   24.8230   44.6420 C   0  0  0  0  0  0  0  0  0  0  0  0
   56.4760   23.3300   44.2750 C   0  0  0  0  0  0  0  0  0  0  0  0
   55.1840   22.8380   43.9430 O   0  0  0  0  0  0  0  0  0  0  0  0
   54.1270   23.4510   44.6740 C   0  0  0  0  0  0  0  0  0  0  0  0
   54.5650   24.0630   46.0130 C   0  0  0  0  0  0  0  0  0  0  0  0
   56.9170   27.7920   45.9190 C   0  0  0  0  0  0  0  0  0  0  0  0
   55.6980   27.8250   45.2490 O   0  0  0  0  0  0  0  0  0  0  0  0
   57.8390   28.8310   45.7160 C   0  0  0  0  0  0  0  0  0  0  0  0
   57.5430   29.8960   44.8000 N   0  0  0  0  0  0  0  0  0  0  0  0
   56.9210   29.5730   43.5130 C   0  0  0  0  0  0  0  0  0  0  0  0
   56.6480   30.8480   42.7070 C   0  0  0  0  0  0  0  0  0  0  0  0
   57.7960   31.7570   42.7940 N   0  0  0  0  0  0  0  0  0  0  0  0
   58.0220   32.2520   44.1660 C   0  0  0  0  0  0  0  0  0  0  0  0
   57.5570   31.2830   45.2760 C   0  0  0  0  0  0  0  0  0  0  0  0
   59.0540   28.8310   46.4120 C   0  0  0  0  0  0  0  0  0  0  0  0
   61.0710   27.3669   51.8684 H   0  0  0  0  0  0  0  0  0  0  0  0
   60.5379   26.1796   50.6303 H   0  0  0  0  0  0  0  0  0  0  0  0
   62.2316   26.7780   50.6303 H   0  0  0  0  0  0  0  0  0  0  0  0
   61.4180   27.3820   47.6890 H   0  0  0  0  0  0  0  0  0  0  0  0
   58.6305   26.0063   48.2811 H   0  0  0  0  0  0  0  0  0  0  0  0
   56.8249   24.7350   47.4435 H   0  0  0  0  0  0  0  0  0  0  0  0
   55.4696   25.9455   47.6875 H   0  0  0  0  0  0  0  0  0  0  0  0
   56.1425   25.4052   43.7719 H   0  0  0  0  0  0  0  0  0  0  0  0
   57.5040   25.1034   44.9297 H   0  0  0  0  0  0  0  0  0  0  0  0
   57.1396   23.1808   43.4105 H   0  0  0  0  0  0  0  0  0  0  0  0
   56.8194   22.7750   45.1604 H   0  0  0  0  0  0  0  0  0  0  0  0
   53.6955   24.2501   44.0533 H   0  0  0  0  0  0  0  0  0  0  0  0
   53.4017   22.6581   44.9091 H   0  0  0  0  0  0  0  0  0  0  0  0
   53.6923   24.5104   46.5113 H   0  0  0  0  0  0  0  0  0  0  0  0
   54.9937   23.2728   46.6468 H   0  0  0  0  0  0  0  0  0  0  0  0
   57.5962   28.9210   42.9394 H   0  0  0  0  0  0  0  0  0  0  0  0
   55.9650   29.0624   43.7009 H   0  0  0  0  0  0  0  0  0  0  0  0
   56.4739   30.5820   41.6539 H   0  0  0  0  0  0  0  0  0  0  0  0
   55.7602   31.3501   43.1188 H   0  0  0  0  0  0  0  0  0  0  0  0
   58.6530   31.2440   42.4750 H   0  0  0  0  0  0  0  0  0  0  0  0
   59.0997   32.4313   44.2944 H   0  0  0  0  0  0  0  0  0  0  0  0
   57.4206   33.1667   44.2740 H   0  0  0  0  0  0  0  0  0  0  0  0
   58.2442   31.3615   46.1314 H   0  0  0  0  0  0  0  0  0  0  0  0
   56.5343   31.5591   45.5723 H   0  0  0  0  0  0  0  0  0  0  0  0
   59.7888   29.6278   46.2245 H   0  0  0  0  0  0  0  0  0  0  0  0
  1  2  1  0
  2  3  2  0
  2  4  2  0
  2  5  1  0
  5  6  1  0
  6  7  2  0
  7  8  1  0
  8  9  1  0
  9 10  1  0
 10 11  1  0
 11 12  1  0
 12 13  1  0
 13 14  1  0
 14 15  1  0
  8 16  2  0
 16 17  1  0
 16 18  1  0
 18 19  1  0
 19 20  1  0
 20 21  1  0
 21 22  1  0
 22 23  1  0
 23 24  1  0
 18 25  2  0
 25  6  1  0
 15 10  1  0
 24 19  1  0
  1 26  1  0
  1 27  1  0
  1 28  1  0
  5 29  1  0
  7 30  1  0
  9 31  1  0
  9 32  1  0
 11 33  1  0
 11 34  1  0
 12 35  1  0
 12 36  1  0
 14 37  1  0
 14 38  1  0
 15 39  1  0
 15 40  1  0
 20 41  1  0
 20 42  1  0
 21 43  1  0
 21 44  1  0
 22 45  1  0
 23 46  1  0
 23 47  1  0
 24 48  1  0
 24 49  1  0
 25 50  1  0
M  CHG  1  17  -1
M  END
>  <UniqueID>  (54) 
54

>  <SMILES>  (54) 
CS(=O)(=O)Nc1cc(CN2CCOCC2)c([O-])c(N2CCNCC2)c1

>  <Energy>  (54) 
76.21734819557946

>  <Genealogy>  (54) 
CS(=O)(=O)Nc1cc(CN2CCOCC2)c([O-])c(N2CCNCC2)c1 (protonated)
CS(=O)(=O)Nc1cc(CN2CCOCC2)c([O-])c(N2CCNCC2)c1 (3D coordinates assigned)
CS(=O)(=O)Nc1cc(CN2CCOCC2)c([O-])c(N2CCNCC2)c1 (nonaromatic ring conformer: 76.21734819557946 kcal/mol)

>  <smiles>  (54) 
CS(=O)(=O)Nc1cc(CN2CCOCC2)c(O)c(N2CCNCC2)c1

>  <score_type>  (54) 
oracle

>  <origin>  (54) 
adg

>  <m_score__min__energy>  (54) 
-9.4900000000000002

>  <m_primary>  (54) 
energy

$$$$
54:0
     RDKit          3D

 58 61  0  0  0  0  0  0  0  0999 V2000
   65.1080   32.5830   50.1070 C   0  0  0  0  0  0  0  0  0  0  0  0
   63.9050   32.9690   49.2970 C   0  0  0  0  0  0  0  0  0  0  0  0
   63.9960   33.0240   47.9600 C   0  0  0  0  0  0  0  0  0  0  0  0
   62.8220   33.3750   47.1500 C   0  0  0  0  0  0  0  0  0  0  0  0
   62.9540   33.5520   45.9090 O   0  0  0  0  0  0  0  0  0  0  0  0
   61.4510   33.4510   47.7780 C   0  0  1  0  0  0  0  0  0  0  0  0
   60.6580   32.2120   47.3950 C   0  0  0  0  0  0  0  0  0  0  0  0
   61.3010   30.9630   47.2730 C   0  0  0  0  0  0  0  0  0  0  0  0
   60.5800   29.8260   46.9030 C   0  0  0  0  0  0  0  0  0  0  0  0
   59.1990   29.9050   46.6600 C   0  0  0  0  0  0  0  0  0  0  0  0
   58.4310   28.7030   46.2410 C   0  0  0  0  0  0  0  0  0  0  0  0
   58.9690   27.4230   46.4540 C   0  0  0  0  0  0  0  0  0  0  0  0
   58.2570   26.2860   46.0740 C   0  0  0  0  0  0  0  0  0  0  0  0
   57.0140   26.4340   45.4580 C   0  0  0  0  0  0  0  0  0  0  0  0
   56.5040   27.6750   45.2440 N   0  0  0  0  0  0  0  0  0  0  0  0
   57.1680   28.8020   45.6150 C   0  0  0  0  0  0  0  0  0  0  0  0
   56.6460   29.9250   45.3850 O   0  0  0  0  0  0  0  0  0  0  0  0
   58.5540   31.1440   46.7950 C   0  0  0  0  0  0  0  0  0  0  0  0
   59.2720   32.2850   47.1660 C   0  0  0  0  0  0  0  0  0  0  0  0
   58.6120   33.4680   47.2700 F   0  0  0  0  0  0  0  0  0  0  0  0
   61.5140   33.6090   49.2910 C   0  0  0  0  0  0  0  0  0  0  0  0
   60.2680   33.9760   50.0020 C   0  0  0  0  0  0  0  0  0  0  0  0
   59.6040   34.9560   49.5750 O   0  0  0  0  0  0  0  0  0  0  0  0
   59.8580   33.3130   51.2190 N   0  0  0  0  0  0  0  0  0  0  0  0
   59.8330   31.8380   51.2540 C   0  0  0  0  0  0  0  0  0  0  0  0
   59.4560   31.2280   52.6170 C   0  0  0  0  0  0  0  0  0  0  0  0
   58.4870   32.0300   53.3820 N   0  0  0  0  0  0  0  0  0  0  0  0
   57.1440   31.9760   52.8200 C   0  0  0  0  0  0  0  0  0  0  0  0
   56.6030   32.9820   52.3800 O   0  0  0  0  0  0  0  0  0  0  0  0
   56.4180   30.6620   52.7160 C   0  0  0  0  0  0  0  0  0  0  0  0
   55.7100   30.5920   51.5080 O   0  0  0  0  0  0  0  0  0  0  0  0
   58.9800   33.4080   53.5690 C   0  0  0  0  0  0  0  0  0  0  0  0
   59.2130   34.1480   52.2470 C   0  0  0  0  0  0  0  0  0  0  0  0
   62.6260   33.2840   49.9780 C   0  0  0  0  0  0  0  0  0  0  0  0
   64.8689   32.6597   51.1780 H   0  0  0  0  0  0  0  0  0  0  0  0
   65.3940   31.5480   49.8684 H   0  0  0  0  0  0  0  0  0  0  0  0
   65.9428   33.2584   49.8684 H   0  0  0  0  0  0  0  0  0  0  0  0
   64.9549   32.8051   47.4674 H   0  0  0  0  0  0  0  0  0  0  0  0
   60.9464   34.3496   47.3935 H   0  0  0  0  0  0  0  0  0  0  0  0
   62.3801   30.8837   47.4711 H   0  0  0  0  0  0  0  0  0  0  0  0
   61.0977   28.8608   46.8010 H   0  0  0  0  0  0  0  0  0  0  0  0
   59.9581   27.3170   46.9235 H   0  0  0  0  0  0  0  0  0  0  0  0
   58.6707   25.2835   46.2579 H   0  0  0  0  0  0  0  0  0  0  0  0
   56.4464   25.5452   45.1453 H   0  0  0  0  0  0  0  0  0  0  0  0
   57.4727   31.2183   46.6071 H   0  0  0  0  0  0  0  0  0  0  0  0
   59.1008   31.4909   50.5100 H   0  0  0  0  0  0  0  0  0  0  0  0
   60.8602   31.5069   51.0414 H   0  0  0  0  0  0  0  0  0  0  0  0
   59.0209   30.2329   52.4426 H   0  0  0  0  0  0  0  0  0  0  0  0
   60.3787   31.1868   53.2145 H   0  0  0  0  0  0  0  0  0  0  0  0
   58.4530   31.6020   54.3390 H   0  0  0  0  0  0  0  0  0  0  0  0
   57.1477   29.8399   52.7572 H   0  0  0  0  0  0  0  0  0  0  0  0
   55.7083   30.5779   53.5523 H   0  0  0  0  0  0  0  0  0  0  0  0
   55.5630   31.5300   51.2110 H   0  0  0  0  0  0  0  0  0  0  0  0
   58.2386   33.9681   54.1578 H   0  0  0  0  0  0  0  0  0  0  0  0
   59.9501   33.3423   54.0834 H   0  0  0  0  0  0  0  0  0  0  0  0
   58.2408   34.4884   51.8611 H   0  0  0  0  0  0  0  0  0  0  0  0
   59.8914   34.9877   52.4582 H   0  0  0  0  0  0  0  0  0  0  0  0
   62.5841   33.2513   51.0767 H   0  0  0  0  0  0  0  0  0  0  0  0
  1  2  1  0
  2  3  2  0
  3  4  1  0
  4  5  2  0
  4  6  1  0
  6  7  1  0
  7  8  2  0
  8  9  1  0
  9 10  2  0
 10 11  1  0
 11 12  2  0
 12 13  1  0
 13 14  2  0
 14 15  1  0
 15 16  1  0
 16 17  2  0
 10 18  1  0
 18 19  2  0
 19 20  1  0
  6 21  1  0
 21 22  1  0
 22 23  2  0
 22 24  1  0
 24 25  1  0
 25 26  1  0
 26 27  1  0
 27 28  1  0
 28 29  2  0
 28 30  1  0
 30 31  1  0
 27 32  1  0
 32 33  1  0
 21 34  2  0
 34  2  1  0
 19  7  1  0
 33 24  1  0
 16 11  1  0
  1 35  1  0
  1 36  1  0
  1 37  1  0
  3 38  1  0
  6 39  1  6
  8 40  1  0
  9 41  1  0
 12 42  1  0
 13 43  1  0
 14 44  1  0
 18 45  1  0
 25 46  1  0
 25 47  1  0
 26 48  1  0
 26 49  1  0
 27 50  1  0
 30 51  1  0
 30 52  1  0
 31 53  1  0
 32 54  1  0
 32 55  1  0
 33 56  1  0
 33 57  1  0
 34 58  1  0
M  CHG  2  15  -1  27   1
M  END
>  <UniqueID>  (55) 
55

>  <SMILES>  (55) 
CC1=CC(=O)[C@@H](c2ccc(-c3ccc[n-]c3=O)cc2F)C(C(=O)N2CC[NH+](C(=O)CO)CC2)=C1

>  <Energy>  (55) 
85.16622021374124

>  <Genealogy>  (55) 
CC1=CC(=O)C(c2ccc(-c3ccc[n-]c3=O)cc2F)C(C(=O)N2CC[NH+](C(=O)CO)CC2)=C1 (protonated)
CC1=CC(=O)[C@@H](c2ccc(-c3ccc[n-]c3=O)cc2F)C(C(=O)N2CC[NH+](C(=O)CO)CC2)=C1 (chirality)
CC1=CC(=O)[C@@H](c2ccc(-c3ccc[n-]c3=O)cc2F)C(C(=O)N2CC[NH+](C(=O)CO)CC2)=C1 (3D coordinates assigned)
CC1=CC(=O)[C@@H](c2ccc(-c3ccc[n-]c3=O)cc2F)C(C(=O)N2CC[NH+](C(=O)CO)CC2)=C1 (nonaromatic ring conformer: 85.16622021374124 kcal/mol)

>  <smiles>  (55) 
CC1=CC(=O)C(c2ccc(-c3ccc[nH]c3=O)cc2F)C(C(=O)N2CCN(C(=O)CO)CC2)=C1

>  <score_type>  (55) 
oracle

>  <origin>  (55) 
adg

>  <m_score__min__energy>  (55) 
-9.8599999999999994

>  <m_primary>  (55) 
energy

$$$$
55:0
     RDKit          3D

 44 47  0  0  0  0  0  0  0  0999 V2000
   65.1290   32.0370   50.3150 C   0  0  0  0  0  0  0  0  0  0  0  0
   64.1950   32.8310   49.5940 O   0  0  0  0  0  0  0  0  0  0  0  0
   63.0240   32.3310   49.0010 C   0  0  0  0  0  0  0  0  0  0  0  0
   62.8370   32.3220   47.6130 C   0  0  0  0  0  0  0  0  0  0  0  0
   61.6530   31.8370   47.0640 C   0  0  0  0  0  0  0  0  0  0  0  0
   60.6170   31.3610   47.8850 C   0  0  0  0  0  0  0  0  0  0  0  0
   60.7950   31.3660   49.2950 C   0  0  0  0  0  0  0  0  0  0  0  0
   62.0170   31.8320   49.8340 C   0  0  0  0  0  0  0  0  0  0  0  0
   62.2280   31.8060   51.2080 O   0  0  0  0  0  0  0  0  0  0  0  0
   59.7340   30.9760   50.1950 N   0  0  0  0  0  0  0  0  0  0  0  0
   59.2870   31.9220   51.1850 C   0  0  0  0  0  0  0  0  0  0  0  0
   58.7150   31.4800   52.3890 C   0  0  0  0  0  0  0  0  0  0  0  0
   58.2690   32.4040   53.3380 C   0  0  0  0  0  0  0  0  0  0  0  0
   58.3900   33.7740   53.0880 C   0  0  0  0  0  0  0  0  0  0  0  0
   58.9670   34.2240   51.8960 C   0  0  0  0  0  0  0  0  0  0  0  0
   59.4160   33.3020   50.9490 C   0  0  0  0  0  0  0  0  0  0  0  0
   59.0010   29.7490   49.9940 C   0  0  0  0  0  0  0  0  0  0  0  0
   58.1240   29.3810   50.8250 O   0  0  0  0  0  0  0  0  0  0  0  0
   59.1790   28.9710   48.7320 C   0  0  0  0  0  0  0  0  0  0  0  0
   58.7400   29.8070   47.6250 N   0  0  0  0  0  0  0  0  0  0  0  0
   59.3590   30.8840   47.2320 C   0  0  0  0  0  0  0  0  0  0  0  0
   58.7910   31.6500   46.0980 C   0  0  0  0  0  0  0  0  0  0  0  0
   58.4660   30.9690   44.9100 C   0  0  0  0  0  0  0  0  0  0  0  0
   57.9710   31.6670   43.8050 C   0  0  0  0  0  0  0  0  0  0  0  0
   57.7870   33.0480   43.8770 C   0  0  0  0  0  0  0  0  0  0  0  0
   58.0910   33.7350   45.0580 C   0  0  0  0  0  0  0  0  0  0  0  0
   58.5930   33.0480   46.1700 C   0  0  0  0  0  0  0  0  0  0  0  0
   58.8970   33.9640   47.6420 Cl  0  0  0  0  0  0  0  0  0  0  0  0
   64.9692   32.1728   51.3948 H   0  0  0  0  0  0  0  0  0  0  0  0
   64.9884   30.9777   50.0539 H   0  0  0  0  0  0  0  0  0  0  0  0
   66.1518   32.3463   50.0539 H   0  0  0  0  0  0  0  0  0  0  0  0
   63.6308   32.7006   46.9523 H   0  0  0  0  0  0  0  0  0  0  0  0
   61.5268   31.8263   45.9713 H   0  0  0  0  0  0  0  0  0  0  0  0
   58.6176   30.4022   52.5860 H   0  0  0  0  0  0  0  0  0  0  0  0
   57.8233   32.0536   54.2806 H   0  0  0  0  0  0  0  0  0  0  0  0
   58.0302   34.5007   53.8313 H   0  0  0  0  0  0  0  0  0  0  0  0
   59.0668   35.3027   51.7051 H   0  0  0  0  0  0  0  0  0  0  0  0
   59.8730   33.6569   50.0135 H   0  0  0  0  0  0  0  0  0  0  0  0
   60.2387   28.7060   48.6027 H   0  0  0  0  0  0  0  0  0  0  0  0
   58.5898   28.0428   48.7680 H   0  0  0  0  0  0  0  0  0  0  0  0
   58.6026   29.8791   44.8507 H   0  0  0  0  0  0  0  0  0  0  0  0
   57.7264   31.1273   42.8782 H   0  0  0  0  0  0  0  0  0  0  0  0
   57.4027   33.5974   43.0050 H   0  0  0  0  0  0  0  0  0  0  0  0
   57.9344   34.8224   45.1129 H   0  0  0  0  0  0  0  0  0  0  0  0
  1  2  1  0
  2  3  1  0
  3  4  2  0
  4  5  1  0
  5  6  2  0
  6  7  1  0
  7  8  2  0
  8  9  1  0
  7 10  1  0
 10 11  1  0
 11 12  2  0
 12 13  1  0
 13 14  2  0
 14 15  1  0
 15 16  2  0
 10 17  1  0
 17 18  2  0
 17 19  1  0
 19 20  1  0
 20 21  2  0
 21 22  1  0
 22 23  2  0
 23 24  1  0
 24 25  2  0
 25 26  1  0
 26 27  2  0
 27 28  1  0
  8  3  1  0
 16 11  1  0
 27 22  1  0
 21  6  1  0
  1 29  1  0
  1 30  1  0
  1 31  1  0
  4 32  1  0
  5 33  1  0
 12 34  1  0
 13 35  1  0
 14 36  1  0
 15 37  1  0
 16 38  1  0
 19 39  1  0
 19 40  1  0
 23 41  1  0
 24 42  1  0
 25 43  1  0
 26 44  1  0
M  CHG  1   9  -1
M  END
>  <UniqueID>  (56) 
56

>  <SMILES>  (56) 
COc1ccc2c(c1[O-])N(c1ccccc1)C(=O)CN=C2c1ccccc1Cl

>  <Energy>  (56) 
73.7551238693032

>  <Genealogy>  (56) 
COc1ccc2c(c1[O-])N(c1ccccc1)C(=O)CN=C2c1ccccc1Cl (protonated)
COc1ccc2c(c1[O-])N(c1ccccc1)C(=O)CN=C2c1ccccc1Cl (3D coordinates assigned)
COc1ccc2c(c1[O-])N(c1ccccc1)C(=O)CN=C2c1ccccc1Cl (nonaromatic ring conformer: 73.7551238693032 kcal/mol)

>  <smiles>  (56) 
COc1ccc2c(c1O)N(c1ccccc1)C(=O)CN=C2c1ccccc1Cl

>  <score_type>  (56) 
oracle

>  <origin>  (56) 
adg

>  <m_score__min__energy>  (56) 
-7

>  <m_primary>  (56) 
energy

$$$$
56:0
     RDKit          3D

 53 55  0  0  0  0  0  0  0  0999 V2000
   54.4090   24.2810   45.0600 O   0  0  0  0  0  0  0  0  0  0  0  0
   55.0980   24.9840   45.8440 C   0  0  0  0  0  0  0  0  0  0  0  0
   54.8050   26.3360   45.9840 O   0  0  0  0  0  0  0  0  0  0  0  0
   56.2000   24.3760   46.6070 C   0  0  0  0  0  0  0  0  0  0  0  0
   56.1710   24.4020   47.8680 O   0  0  0  0  0  0  0  0  0  0  0  0
   57.3890   23.7740   45.9100 C   0  0  0  0  0  0  0  0  0  0  0  0
   58.4620   24.7990   45.6320 C   0  0  0  0  0  0  0  0  0  0  0  0
   59.6770   24.4630   45.7140 O   0  0  0  0  0  0  0  0  0  0  0  0
   58.1220   26.2100   45.3110 C   0  0  0  0  0  0  0  0  0  0  0  0
   58.0820   26.6710   43.9810 C   0  0  0  0  0  0  0  0  0  0  0  0
   57.7480   27.9980   43.6990 C   0  0  0  0  0  0  0  0  0  0  0  0
   57.4470   28.8880   44.7380 C   0  0  0  0  0  0  0  0  0  0  0  0
   57.0080   30.5590   44.3760 S   0  0  0  0  0  0  0  0  0  0  0  0
   55.5090   30.6800   44.3540 O   0  0  0  0  0  0  0  0  0  0  0  0
   57.5230   30.9220   43.0090 O   0  0  0  0  0  0  0  0  0  0  0  0
   57.6630   31.6680   45.5580 N   0  0  2  0  0  0  0  0  0  0  0  0
   57.6510   33.0500   45.0250 C   0  0  0  0  0  0  0  0  0  0  0  0
   58.5670   34.0150   45.8140 C   0  0  0  0  0  0  0  0  0  0  0  0
   58.8840   33.4860   47.2250 C   0  0  2  0  0  0  0  0  0  0  0  0
   59.7880   34.4570   48.0150 C   0  0  0  0  0  0  0  0  0  0  0  0
   61.2380   34.0440   47.9740 C   0  0  0  0  0  0  0  0  0  0  0  0
   61.9300   33.9870   46.7520 C   0  0  0  0  0  0  0  0  0  0  0  0
   63.2820   33.6300   46.7230 C   0  0  0  0  0  0  0  0  0  0  0  0
   63.9510   33.3280   47.9120 C   0  0  0  0  0  0  0  0  0  0  0  0
   63.2720   33.3860   49.1310 C   0  0  0  0  0  0  0  0  0  0  0  0
   61.9200   33.7450   49.1650 C   0  0  0  0  0  0  0  0  0  0  0  0
   59.5410   32.0890   47.1390 C   0  0  0  0  0  0  0  0  0  0  0  0
   59.0210   31.2520   45.9520 C   0  0  0  0  0  0  0  0  0  0  0  0
   57.4860   28.4380   46.0630 C   0  0  0  0  0  0  0  0  0  0  0  0
   57.8160   27.1100   46.3480 C   0  0  0  0  0  0  0  0  0  0  0  0
   57.8107   22.9826   46.5471 H   0  0  0  0  0  0  0  0  0  0  0  0
   57.0480   23.3698   44.9455 H   0  0  0  0  0  0  0  0  0  0  0  0
   58.3157   25.9805   43.1572 H   0  0  0  0  0  0  0  0  0  0  0  0
   57.7213   28.3457   42.6557 H   0  0  0  0  0  0  0  0  0  0  0  0
   57.0350   31.6160   46.3940 H   0  0  0  0  0  0  0  0  0  0  0  0
   57.9891   33.0241   43.9786 H   0  0  0  0  0  0  0  0  0  0  0  0
   56.6218   33.4272   45.1173 H   0  0  0  0  0  0  0  0  0  0  0  0
   59.5100   34.1405   45.2617 H   0  0  0  0  0  0  0  0  0  0  0  0
   58.0380   34.9734   45.9216 H   0  0  0  0  0  0  0  0  0  0  0  0
   57.9318   33.4045   47.7697 H   0  0  0  0  0  0  0  0  0  0  0  0
   59.6934   35.4628   47.5799 H   0  0  0  0  0  0  0  0  0  0  0  0
   59.4620   34.4438   49.0655 H   0  0  0  0  0  0  0  0  0  0  0  0
   61.4060   34.2242   45.8144 H   0  0  0  0  0  0  0  0  0  0  0  0
   63.8188   33.5870   45.7639 H   0  0  0  0  0  0  0  0  0  0  0  0
   65.0135   33.0443   47.8878 H   0  0  0  0  0  0  0  0  0  0  0  0
   63.8009   33.1491   50.0660 H   0  0  0  0  0  0  0  0  0  0  0  0
   61.3896   33.7932   50.1275 H   0  0  0  0  0  0  0  0  0  0  0  0
   60.6276   32.2186   47.0275 H   0  0  0  0  0  0  0  0  0  0  0  0
   59.2854   31.5471   48.0615 H   0  0  0  0  0  0  0  0  0  0  0  0
   59.6989   31.3844   45.0959 H   0  0  0  0  0  0  0  0  0  0  0  0
   58.9853   30.1967   46.2603 H   0  0  0  0  0  0  0  0  0  0  0  0
   57.2558   29.1330   46.8840 H   0  0  0  0  0  0  0  0  0  0  0  0
   57.8366   26.7656   47.3925 H   0  0  0  0  0  0  0  0  0  0  0  0
  1  2  2  0
  2  3  1  0
  2  4  1  0
  4  5  2  0
  4  6  1  0
  6  7  1  0
  7  8  2  0
  7  9  1  0
  9 10  2  0
 10 11  1  0
 11 12  2  0
 12 13  1  0
 13 14  2  0
 13 15  2  0
 13 16  1  0
 16 17  1  0
 17 18  1  0
 18 19  1  0
 19 20  1  0
 20 21  1  0
 21 22  2  0
 22 23  1  0
 23 24  2  0
 24 25  1  0
 25 26  2  0
 19 27  1  0
 27 28  1  0
 12 29  1  0
 29 30  2  0
 30  9  1  0
 28 16  1  0
 26 21  1  0
  6 31  1  0
  6 32  1  0
 10 33  1  0
 11 34  1  0
 16 35  1  1
 17 36  1  0
 17 37  1  0
 18 38  1  0
 18 39  1  0
 19 40  1  1
 20 41  1  0
 20 42  1  0
 22 43  1  0
 23 44  1  0
 24 45  1  0
 25 46  1  0
 26 47  1  0
 27 48  1  0
 27 49  1  0
 28 50  1  0
 28 51  1  0
 29 52  1  0
 30 53  1  0
M  CHG  2   3  -1  16   1
M  END
>  <UniqueID>  (57) 
57

>  <SMILES>  (57) 
O=C([O-])C(=O)CC(=O)c1ccc(S(=O)(=O)[NH+]2CCC(Cc3ccccc3)CC2)cc1

>  <Energy>  (57) 
56.8726425149831

>  <Genealogy>  (57) 
O=C([O-])C(=O)CC(=O)c1ccc(S(=O)(=O)[NH+]2CCC(Cc3ccccc3)CC2)cc1 (protonated)
O=C([O-])C(=O)CC(=O)c1ccc(S(=O)(=O)[NH+]2CCC(Cc3ccccc3)CC2)cc1 (3D coordinates assigned)
O=C([O-])C(=O)CC(=O)c1ccc(S(=O)(=O)[NH+]2CCC(Cc3ccccc3)CC2)cc1 (nonaromatic ring conformer: 56.8726425149831 kcal/mol)

>  <smiles>  (57) 
O=C(O)C(=O)CC(=O)c1ccc(S(=O)(=O)N2CCC(Cc3ccccc3)CC2)cc1

>  <score_type>  (57) 
oracle

>  <origin>  (57) 
adg

>  <m_score__min__energy>  (57) 
-11.949999999999999

>  <m_primary>  (57) 
energy

$$$$
57:0
     RDKit          3D

 44 46  0  0  0  0  0  0  0  0999 V2000
   57.1588   30.2344   52.1194 H   0  0  0  0  0  0  0  0  0  0  0  0
   57.5720   31.1460   51.6630 C   0  0  0  0  0  0  0  0  0  0  0  0
   57.1680   32.3330   52.1300 C   0  0  0  0  0  0  0  0  0  0  0  0
   56.0951   32.5187   52.2863 H   0  0  0  0  0  0  0  0  0  0  0  0
   58.1570   33.4100   52.4420 C   0  0  0  0  0  0  0  0  0  0  0  0
   58.2532   33.5147   53.5328 H   0  0  0  0  0  0  0  0  0  0  0  0
   59.1343   33.1463   52.0114 H   0  0  0  0  0  0  0  0  0  0  0  0
   57.8112   34.3613   52.0114 H   0  0  0  0  0  0  0  0  0  0  0  0
   58.5490   31.0030   50.5610 C   0  0  0  0  0  0  0  0  0  0  0  0
   58.5140   31.9510   49.5250 C   0  0  0  0  0  0  0  0  0  0  0  0
   57.7698   32.7606   49.5536 H   0  0  0  0  0  0  0  0  0  0  0  0
   59.4160   31.8770   48.4560 C   0  0  0  0  0  0  0  0  0  0  0  0
   59.3510   32.8520   47.3540 C   0  0  0  0  0  0  0  0  0  0  0  0
   60.0020   34.0360   47.5060 N   0  0  0  0  0  0  0  0  0  0  0  0
   59.9710   34.9910   46.5450 C   0  0  0  0  0  0  0  0  0  0  0  0
   60.5170   35.9349   46.6898 H   0  0  0  0  0  0  0  0  0  0  0  0
   59.2670   34.7830   45.4050 N   0  0  0  0  0  0  0  0  0  0  0  0
   58.5980   33.6190   45.1960 C   0  0  0  0  0  0  0  0  0  0  0  0
   58.6190   32.6070   46.1700 C   0  0  0  0  0  0  0  0  0  0  0  0
   57.7740   31.3590   45.9920 C   0  0  0  0  0  0  0  0  0  0  0  0
   58.3510   30.4944   46.3519 H   0  0  0  0  0  0  0  0  0  0  0  0
   56.8479   31.5128   46.5652 H   0  0  0  0  0  0  0  0  0  0  0  0
   57.3790   31.1060   44.5930 N   0  0  0  0  0  0  0  0  0  0  0  0
   56.6860   29.8760   44.2970 C   0  0  0  0  0  0  0  0  0  0  0  0
   55.6060   29.6070   44.8910 O   0  0  0  0  0  0  0  0  0  0  0  0
   57.2110   28.9360   43.3560 N   0  0  0  0  0  0  0  0  0  0  0  0
   58.1640   29.0430   42.9470 H   0  0  0  0  0  0  0  0  0  0  0  0
   56.6670   28.0750   43.1220 H   0  0  0  0  0  0  0  0  0  0  0  0
   57.7880   32.0020   43.5010 C   0  0  0  0  0  0  0  0  0  0  0  0
   58.8049   31.7350   43.1775 H   0  0  0  0  0  0  0  0  0  0  0  0
   57.0784   31.8886   42.6682 H   0  0  0  0  0  0  0  0  0  0  0  0
   57.7750   33.4580   43.9590 C   0  0  0  0  0  0  0  0  0  0  0  0
   58.1894   34.0930   43.1621 H   0  0  0  0  0  0  0  0  0  0  0  0
   56.7387   33.7557   44.1769 H   0  0  0  0  0  0  0  0  0  0  0  0
   60.3490   30.8360   48.4110 C   0  0  0  0  0  0  0  0  0  0  0  0
   61.0356   30.7530   47.5556 H   0  0  0  0  0  0  0  0  0  0  0  0
   60.4130   29.9030   49.4450 C   0  0  0  0  0  0  0  0  0  0  0  0
   61.1595   29.0961   49.4053 H   0  0  0  0  0  0  0  0  0  0  0  0
   59.5300   29.9840   50.5410 C   0  0  0  0  0  0  0  0  0  0  0  0
   59.6200   29.0930   51.6230 O   0  0  0  0  0  0  0  0  0  0  0  0
   60.7910   28.3640   51.9780 C   0  0  0  0  0  0  0  0  0  0  0  0
   60.8730   28.3129   53.0738 H   0  0  0  0  0  0  0  0  0  0  0  0
   60.7275   27.3456   51.5672 H   0  0  0  0  0  0  0  0  0  0  0  0
   61.6768   28.8705   51.5672 H   0  0  0  0  0  0  0  0  0  0  0  0
  1  2  1  0
  2  3  2  0
  3  4  1  0
  3  5  1  0
  5  6  1  0
  5  7  1  0
  5  8  1  0
  2  9  1  0
  9 10  2  0
 10 11  1  0
 10 12  1  0
 12 13  1  0
 13 14  2  0
 14 15  1  0
 15 16  1  0
 15 17  2  0
 17 18  1  0
 18 19  2  0
 19 20  1  0
 20 21  1  0
 20 22  1  0
 20 23  1  0
 23 24  1  0
 24 25  2  0
 24 26  1  0
 26 27  1  0
 26 28  1  0
 23 29  1  0
 29 30  1  0
 29 31  1  0
 29 32  1  0
 32 33  1  0
 32 34  1  0
 12 35  2  0
 35 36  1  0
 35 37  1  0
 37 38  1  0
 37 39  2  0
 39 40  1  0
 40 41  1  0
 41 42  1  0
 41 43  1  0
 41 44  1  0
 39  9  1  0
 19 13  1  0
 32 18  1  0
M  END
>  <UniqueID>  (58) 
58

>  <SMILES>  (58) 
C/C=C/c1cc(-c2ncnc3c2CN(C(N)=O)CC3)ccc1OC

>  <Energy>  (58) 
56.939570986987846

>  <Genealogy>  (58) 
C/C=C/c1cc(-c2ncnc3c2CN(C(N)=O)CC3)ccc1OC (cis-trans isomerization)
C/C=C/c1cc(-c2ncnc3c2CN(C(N)=O)CC3)ccc1OC (3D coordinates assigned)
C/C=C/c1cc(-c2ncnc3c2CN(C(N)=O)CC3)ccc1OC (nonaromatic ring conformer: 56.939570986987846 kcal/mol)

>  <smiles>  (58) 
CC=Cc1cc(-c2ncnc3c2CN(C(N)=O)CC3)ccc1OC

>  <score_type>  (58) 
oracle

>  <origin>  (58) 
adg

>  <m_score__min__energy>  (58) 
-7.4800000000000004

>  <m_primary>  (58) 
energy

$$$$
58:0
     RDKit          3D

 44 46  0  0  0  0  0  0  0  0999 V2000
   56.9710   32.0450   52.1860 C   0  0  0  0  0  0  0  0  0  0  0  0
   55.9310   31.2370   52.4060 C   0  0  0  0  0  0  0  0  0  0  0  0
   54.6680   31.5470   52.0510 N   0  0  0  0  0  0  0  0  0  0  0  0
   53.8970   30.4880   52.3740 C   0  0  0  0  0  0  0  0  0  0  0  0
   52.5680   30.4720   52.1930 C   0  0  0  0  0  0  0  0  0  0  0  0
   51.8920   30.9050   50.9570 C   0  0  0  0  0  0  0  0  0  0  0  0
   51.7730   30.1210   49.8710 N   0  0  0  0  0  0  0  0  0  0  0  0
   51.0420   30.8730   49.0190 C   0  0  0  0  0  0  0  0  0  0  0  0
   50.7280   30.4780   47.8660 O   0  0  0  0  0  0  0  0  0  0  0  0
   50.6660   32.0750   49.5030 N   0  0  0  0  0  0  0  0  0  0  0  0
   51.2000   32.0760   50.7350 C   0  0  0  0  0  0  0  0  0  0  0  0
   51.0160   33.1060   51.6500 O   0  0  0  0  0  0  0  0  0  0  0  0
   54.6710   29.4920   52.9540 C   0  0  0  0  0  0  0  0  0  0  0  0
   55.9660   29.9730   52.9800 C   0  0  0  0  0  0  0  0  0  0  0  0
   57.1110   29.2440   53.5660 C   0  0  0  0  0  0  0  0  0  0  0  0
   57.5100   28.2120   52.9570 O   0  0  0  0  0  0  0  0  0  0  0  0
   57.7710   29.6830   54.7920 N   0  0  0  0  0  0  0  0  0  0  0  0
   58.8830   28.7910   55.1980 C   0  0  0  0  0  0  0  0  0  0  0  0
   60.0640   28.8310   54.2000 C   0  0  0  0  0  0  0  0  0  0  0  0
   59.8860   29.8900   53.1870 N   0  0  0  0  0  0  0  0  0  0  0  0
   61.0760   29.9960   52.3160 C   0  0  0  0  0  0  0  0  0  0  0  0
   60.7140   29.6160   50.8800 C   0  0  0  0  0  0  0  0  0  0  0  0
   59.3510   29.3020   50.8100 O   0  0  0  0  0  0  0  0  0  0  0  0
   59.5720   31.1770   53.8410 C   0  0  0  0  0  0  0  0  0  0  0  0
   58.2860   31.0730   54.6970 C   0  0  0  0  0  0  0  0  0  0  0  0
   57.9806   31.7392   52.4977 H   0  0  0  0  0  0  0  0  0  0  0  0
   56.8181   33.0164   51.6931 H   0  0  0  0  0  0  0  0  0  0  0  0
   54.3490   32.4360   51.6010 H   0  0  0  0  0  0  0  0  0  0  0  0
   51.9411   30.1118   53.0220 H   0  0  0  0  0  0  0  0  0  0  0  0
   54.3227   28.5148   53.3199 H   0  0  0  0  0  0  0  0  0  0  0  0
   57.0540   29.6740   55.5530 H   0  0  0  0  0  0  0  0  0  0  0  0
   59.2456   29.1061   56.1875 H   0  0  0  0  0  0  0  0  0  0  0  0
   58.4966   27.7613   55.2200 H   0  0  0  0  0  0  0  0  0  0  0  0
   60.9941   29.0215   54.7555 H   0  0  0  0  0  0  0  0  0  0  0  0
   60.1072   27.8625   53.6802 H   0  0  0  0  0  0  0  0  0  0  0  0
   61.4494   31.0305   52.3351 H   0  0  0  0  0  0  0  0  0  0  0  0
   61.8529   29.3098   52.6842 H   0  0  0  0  0  0  0  0  0  0  0  0
   60.9302   30.4621   50.2111 H   0  0  0  0  0  0  0  0  0  0  0  0
   61.3078   28.7432   50.5707 H   0  0  0  0  0  0  0  0  0  0  0  0
   59.0680   29.0930   51.7370 H   0  0  0  0  0  0  0  0  0  0  0  0
   60.4125   31.4637   54.4901 H   0  0  0  0  0  0  0  0  0  0  0  0
   59.4089   31.9335   53.0592 H   0  0  0  0  0  0  0  0  0  0  0  0
   58.5082   31.4360   55.7113 H   0  0  0  0  0  0  0  0  0  0  0  0
   57.5112   31.6815   54.2076 H   0  0  0  0  0  0  0  0  0  0  0  0
  1  2  2  0
  2  3  1  0
  3  4  1  0
  4  5  2  3
  5  6  1  0
  6  7  1  0
  7  8  1  0
  8  9  2  0
  8 10  1  0
 10 11  1  0
 11 12  1  0
  4 13  1  0
 13 14  2  0
 14 15  1  0
 15 16  2  0
 15 17  1  0
 17 18  1  0
 18 19  1  0
 19 20  1  0
 20 21  1  0
 21 22  1  0
 22 23  1  0
 20 24  1  0
 24 25  1  0
 14  2  1  0
 25 17  1  0
 11  6  2  0
  1 26  1  0
  1 27  1  0
  3 28  1  0
  5 29  1  0
 13 30  1  0
 17 31  1  0
 18 32  1  0
 18 33  1  0
 19 34  1  0
 19 35  1  0
 21 36  1  0
 21 37  1  0
 22 38  1  0
 22 39  1  0
 23 40  1  0
 24 41  1  0
 24 42  1  0
 25 43  1  0
 25 44  1  0
M  CHG  4   7  -1  10  -1  12  -1  17   1
M  END
>  <UniqueID>  (59) 
59

>  <SMILES>  (59) 
C=c1[nH]c(=Cc2[n-]c(=O)[n-]c2[O-])cc1C(=O)[NH+]1CCN(CCO)CC1

>  <Energy>  (59) 
125.10079629348135

>  <Genealogy>  (59) 
C=c1[nH]c(=Cc2[n-]c(=O)[n-]c2[O-])cc1C(=O)[NH+]1CCN(CCO)CC1 (protonated)
C=c1[nH]c(=Cc2[n-]c(=O)[n-]c2[O-])cc1C(=O)[NH+]1CCN(CCO)CC1 (3D coordinates assigned)
C=c1[nH]c(=Cc2[n-]c(=O)[n-]c2[O-])cc1C(=O)[NH+]1CCN(CCO)CC1 (nonaromatic ring conformer: 125.10079629348135 kcal/mol)

>  <smiles>  (59) 
C=c1[nH]c(=Cc2[nH]c(=O)[nH]c2O)cc1C(=O)N1CCN(CCO)CC1

>  <score_type>  (59) 
oracle

>  <origin>  (59) 
adg

>  <m_score__min__energy>  (59) 
-14.24

>  <m_primary>  (59) 
energy

$$$$
59:0
     RDKit          3D

 45 47  0  0  0  0  0  0  0  0999 V2000
   56.4510   23.5370   45.2040 C   0  0  0  0  0  0  0  0  0  0  0  0
   55.9710   24.7870   45.8800 C   0  0  0  0  0  0  0  0  0  0  0  0
   54.7300   24.9870   45.9650 O   0  0  0  0  0  0  0  0  0  0  0  0
   56.8610   25.7700   46.4350 N   0  0  0  0  0  0  0  0  0  0  0  0
   56.9340   27.0380   46.1520 C   0  0  0  0  0  0  0  0  0  0  0  0
   56.1520   27.6750   45.2540 N   0  0  0  0  0  0  0  0  0  0  0  0
   56.4500   29.0000   45.1630 C   0  0  0  0  0  0  0  0  0  0  0  0
   55.6920   29.8820   44.2210 C   0  0  0  0  0  0  0  0  0  0  0  0
   57.4930   29.4300   46.0040 C   0  0  0  0  0  0  0  0  0  0  0  0
   58.0500   30.8010   46.1360 C   0  0  0  0  0  0  0  0  0  0  0  0
   59.1830   31.0490   46.9250 C   0  0  0  0  0  0  0  0  0  0  0  0
   59.6920   32.3520   47.0410 C   0  0  0  0  0  0  0  0  0  0  0  0
   60.8830   32.5800   47.8950 C   0  0  0  0  0  0  0  0  0  0  0  0
   62.1480   32.1370   47.4760 C   0  0  0  0  0  0  0  0  0  0  0  0
   63.2710   32.3370   48.2850 C   0  0  0  0  0  0  0  0  0  0  0  0
   63.1430   32.9820   49.5220 C   0  0  0  0  0  0  0  0  0  0  0  0
   64.5550   33.2180   50.5470 S   0  0  0  0  0  0  0  0  0  0  0  0
   65.9920   33.0840   49.5960 N   0  0  0  0  0  0  0  0  0  0  0  0
   64.5000   34.5780   51.1830 O   0  0  0  0  0  0  0  0  0  0  0  0
   64.5740   32.1800   51.6340 O   0  0  0  0  0  0  0  0  0  0  0  0
   61.8800   33.4080   49.9520 C   0  0  0  0  0  0  0  0  0  0  0  0
   60.7570   33.2090   49.1450 C   0  0  0  0  0  0  0  0  0  0  0  0
   59.0600   33.4030   46.3410 C   0  0  0  0  0  0  0  0  0  0  0  0
   59.5920   34.7490   46.3810 C   0  0  0  0  0  0  0  0  0  0  0  0
   60.0190   35.8250   46.4130 N   0  0  0  0  0  0  0  0  0  0  0  0
   57.9220   33.1160   45.5600 C   0  0  0  0  0  0  0  0  0  0  0  0
   57.2020   34.1840   44.7890 C   0  0  0  0  0  0  0  0  0  0  0  0
   57.4620   31.8380   45.4860 N   0  0  0  0  0  0  0  0  0  0  0  0
   58.0290   28.0810   46.8710 S   0  0  0  0  0  0  0  0  0  0  0  0
   56.7359   22.7951   45.9645 H   0  0  0  0  0  0  0  0  0  0  0  0
   55.6461   23.1276   44.5759 H   0  0  0  0  0  0  0  0  0  0  0  0
   57.3230   23.7716   44.5759 H   0  0  0  0  0  0  0  0  0  0  0  0
   55.0808   30.5931   44.7961 H   0  0  0  0  0  0  0  0  0  0  0  0
   56.4002   30.4360   43.5873 H   0  0  0  0  0  0  0  0  0  0  0  0
   55.0379   29.2652   43.5873 H   0  0  0  0  0  0  0  0  0  0  0  0
   59.6743   30.2195   47.4547 H   0  0  0  0  0  0  0  0  0  0  0  0
   62.2562   31.6298   46.5059 H   0  0  0  0  0  0  0  0  0  0  0  0
   64.2581   31.9867   47.9490 H   0  0  0  0  0  0  0  0  0  0  0  0
   66.5290   33.9700   49.7300 H   0  0  0  0  0  0  0  0  0  0  0  0
   65.6940   33.0620   48.5950 H   0  0  0  0  0  0  0  0  0  0  0  0
   61.7718   33.9013   50.9292 H   0  0  0  0  0  0  0  0  0  0  0  0
   59.7687   33.5467   49.4902 H   0  0  0  0  0  0  0  0  0  0  0  0
   56.7284   34.8865   45.4905 H   0  0  0  0  0  0  0  0  0  0  0  0
   57.9197   34.7261   44.1558 H   0  0  0  0  0  0  0  0  0  0  0  0
   56.4303   33.7220   44.1558 H   0  0  0  0  0  0  0  0  0  0  0  0
  1  2  1  0
  2  3  2  0
  2  4  1  0
  4  5  2  3
  5  6  1  0
  6  7  1  0
  7  8  1  0
  7  9  2  0
  9 10  1  0
 10 11  2  0
 11 12  1  0
 12 13  1  0
 13 14  2  0
 14 15  1  0
 15 16  2  0
 16 17  1  0
 17 18  1  0
 17 19  2  0
 17 20  2  0
 16 21  1  0
 21 22  2  0
 12 23  2  0
 23 24  1  0
 24 25  3  0
 23 26  1  0
 26 27  1  0
 26 28  2  0
  9 29  1  0
 29  5  1  0
 28 10  1  0
 22 13  1  0
  1 30  1  0
  1 31  1  0
  1 32  1  0
  8 33  1  0
  8 34  1  0
  8 35  1  0
 11 36  1  0
 14 37  1  0
 15 38  1  0
 18 39  1  0
 18 40  1  0
 21 41  1  0
 22 42  1  0
 27 43  1  0
 27 44  1  0
 27 45  1  0
M  CHG  1   6  -1
M  END
>  <UniqueID>  (60) 
60

>  <SMILES>  (60) 
CC(=O)N=c1[n-]c(C)c(-c2cc(-c3ccc(S(N)(=O)=O)cc3)c(C#N)c(C)n2)s1

>  <Energy>  (60) 
86.11143272952545

>  <Genealogy>  (60) 
CC(=O)N=c1[n-]c(C)c(-c2cc(-c3ccc(S(N)(=O)=O)cc3)c(C#N)c(C)n2)s1 (protonated)
CC(=O)N=c1[n-]c(C)c(-c2cc(-c3ccc(S(N)(=O)=O)cc3)c(C#N)c(C)n2)s1 (3D coordinates assigned)
CC(=O)N=c1[n-]c(C)c(-c2cc(-c3ccc(S(N)(=O)=O)cc3)c(C#N)c(C)n2)s1 (optimized conformer: 86.11143272952545 kcal/mol)

>  <smiles>  (60) 
CC(=O)N=c1[nH]c(C)c(-c2cc(-c3ccc(S(N)(=O)=O)cc3)c(C#N)c(C)n2)s1

>  <score_type>  (60) 
oracle

>  <origin>  (60) 
adg

>  <m_score__min__energy>  (60) 
-10.470000000000001

>  <m_primary>  (60) 
energy

$$$$
60:0
     RDKit          3D

 48 51  0  0  0  0  0  0  0  0999 V2000
   53.4285   27.9771   55.4648 H   0  0  0  0  0  0  0  0  0  0  0  0
   53.1290   28.7790   54.7740 C   0  0  0  0  0  0  0  0  0  0  0  0
   52.0729   29.0784   54.7037 H   0  0  0  0  0  0  0  0  0  0  0  0
   54.0520   29.3920   54.0170 C   0  0  0  0  0  0  0  0  0  0  0  0
   53.8330   30.4260   53.0930 C   0  0  0  0  0  0  0  0  0  0  0  0
   52.7480   31.1900   52.8600 C   0  0  0  0  0  0  0  0  0  0  0  0
   52.4082   31.8423   53.6780 H   0  0  0  0  0  0  0  0  0  0  0  0
   51.9780   31.2280   51.6070 C   0  0  0  0  0  0  0  0  0  0  0  0
   52.1990   30.3990   50.5730 N   0  0  0  0  0  0  0  0  0  0  0  0
   51.3700   30.8670   49.6140 C   0  0  0  0  0  0  0  0  0  0  0  0
   51.2760   30.3320   48.4790 O   0  0  0  0  0  0  0  0  0  0  0  0
   50.6580   31.9600   49.9640 N   0  0  0  0  0  0  0  0  0  0  0  0
   51.0660   32.1860   51.2230 C   0  0  0  0  0  0  0  0  0  0  0  0
   50.6340   33.2580   51.9930 O   0  0  0  0  0  0  0  0  0  0  0  0
   55.0100   30.5600   52.3770 C   0  0  0  0  0  0  0  0  0  0  0  0
   55.1895   31.2457   51.5358 H   0  0  0  0  0  0  0  0  0  0  0  0
   55.9150   29.6710   52.9180 C   0  0  0  0  0  0  0  0  0  0  0  0
   57.2790   29.4550   52.3920 C   0  0  0  0  0  0  0  0  0  0  0  0
   57.9250   28.4380   52.7630 O   0  0  0  0  0  0  0  0  0  0  0  0
   57.8670   30.3700   51.4470 N   0  0  0  0  0  0  0  0  0  0  0  0
   57.5970   31.8130   51.5740 C   0  0  0  0  0  0  0  0  0  0  0  0
   56.5746   32.0180   51.2237 H   0  0  0  0  0  0  0  0  0  0  0  0
   57.7113   32.0949   52.6311 H   0  0  0  0  0  0  0  0  0  0  0  0
   58.5820   32.6400   50.7460 C   0  0  0  0  0  0  0  0  0  0  0  0
   58.2336   33.6821   50.6942 H   0  0  0  0  0  0  0  0  0  0  0  0
   59.5751   32.6096   51.2180 H   0  0  0  0  0  0  0  0  0  0  0  0
   58.6660   32.0840   49.3910 N   0  0  0  0  0  0  0  0  0  0  0  0
   58.5980   32.9310   48.2290 C   0  0  0  0  0  0  0  0  0  0  0  0
   57.7500   32.6140   47.2120 N   0  0  0  0  0  0  0  0  0  0  0  0
   57.6520   33.3940   46.1070 C   0  0  0  0  0  0  0  0  0  0  0  0
   56.9636   33.1154   45.2955 H   0  0  0  0  0  0  0  0  0  0  0  0
   58.4240   34.5480   46.0010 C   0  0  0  0  0  0  0  0  0  0  0  0
   58.3622   35.1870   45.1077 H   0  0  0  0  0  0  0  0  0  0  0  0
   59.2770   34.8740   47.0540 C   0  0  0  0  0  0  0  0  0  0  0  0
   59.8943   35.7829   46.9998 H   0  0  0  0  0  0  0  0  0  0  0  0
   59.3470   34.0700   48.1480 N   0  0  0  0  0  0  0  0  0  0  0  0
   59.9620   34.3610   48.9400 H   0  0  0  0  0  0  0  0  0  0  0  0
   58.8890   30.6420   49.2110 C   0  0  0  0  0  0  0  0  0  0  0  0
   58.0707   30.2292   48.6027 H   0  0  0  0  0  0  0  0  0  0  0  0
   59.8609   30.5077   48.7137 H   0  0  0  0  0  0  0  0  0  0  0  0
   58.9350   29.8960   50.5520 C   0  0  0  0  0  0  0  0  0  0  0  0
   58.8032   28.8190   50.3710 H   0  0  0  0  0  0  0  0  0  0  0  0
   59.9075   30.0861   51.0296 H   0  0  0  0  0  0  0  0  0  0  0  0
   55.3430   28.9750   53.9300 N   0  0  0  0  0  0  0  0  0  0  0  0
   55.9830   27.9190   54.7220 C   0  0  0  0  0  0  0  0  0  0  0  0
   55.8528   28.1339   55.7929 H   0  0  0  0  0  0  0  0  0  0  0  0
   55.5200   26.9501   54.4835 H   0  0  0  0  0  0  0  0  0  0  0  0
   57.0562   27.8811   54.4835 H   0  0  0  0  0  0  0  0  0  0  0  0
  1  2  1  0
  2  3  1  0
  2  4  2  0
  4  5  1  0
  5  6  2  0
  6  7  1  0
  6  8  1  0
  8  9  1  0
  9 10  1  0
 10 11  2  0
 10 12  1  0
 12 13  1  0
 13 14  1  0
  5 15  1  0
 15 16  1  0
 15 17  2  0
 17 18  1  0
 18 19  2  0
 18 20  1  0
 20 21  1  0
 21 22  1  0
 21 23  1  0
 21 24  1  0
 24 25  1  0
 24 26  1  0
 24 27  1  0
 27 28  1  0
 28 29  2  0
 29 30  1  0
 30 31  1  0
 30 32  2  0
 32 33  1  0
 32 34  1  0
 34 35  1  0
 34 36  2  0
 36 37  1  0
 27 38  1  0
 38 39  1  0
 38 40  1  0
 38 41  1  0
 41 42  1  0
 41 43  1  0
 17 44  1  0
 44 45  1  0
 45 46  1  0
 45 47  1  0
 45 48  1  0
 44  4  1  0
 13  8  2  0
 41 20  1  0
 36 28  1  0
M  CHG  4   9  -1  12  -1  14  -1  36   1
M  END
>  <UniqueID>  (61) 
61

>  <SMILES>  (61) 
C=c1/c(=C\c2[n-]c(=O)[n-]c2[O-])cc(C(=O)N2CCN(c3nccc[nH+]3)CC2)n1C

>  <Energy>  (61) 
130.23733999748856

>  <Genealogy>  (61) 
C=c1c(=Cc2[n-]c(=O)[n-]c2[O-])cc(C(=O)N2CCN(c3nccc[nH+]3)CC2)n1C (protonated)
C=c1/c(=C\c2[n-]c(=O)[n-]c2[O-])cc(C(=O)N2CCN(c3nccc[nH+]3)CC2)n1C (cis-trans isomerization)
C=c1/c(=C\c2[n-]c(=O)[n-]c2[O-])cc(C(=O)N2CCN(c3nccc[nH+]3)CC2)n1C (3D coordinates assigned)
C=c1/c(=C\c2[n-]c(=O)[n-]c2[O-])cc(C(=O)N2CCN(c3nccc[nH+]3)CC2)n1C (nonaromatic ring conformer: 130.23733999748856 kcal/mol)

>  <smiles>  (61) 
C=c1c(=Cc2[nH]c(=O)[nH]c2O)cc(C(=O)N2CCN(c3ncccn3)CC2)n1C

>  <score_type>  (61) 
oracle

>  <origin>  (61) 
adg

>  <m_score__min__energy>  (61) 
-16.359999999999999

>  <m_primary>  (61) 
energy

$$$$
61:0
     RDKit          3D

 60 64  0  0  0  0  0  0  0  0999 V2000
   55.1240   27.4540   45.9970 H   0  0  0  0  0  0  0  0  0  0  0  0
   55.2970   26.4220   45.9960 N   0  0  0  0  0  0  0  0  0  0  0  0
   57.0090   26.1960   46.0630 S   0  0  0  0  0  0  0  0  0  0  0  0
   57.4080   25.0930   45.1230 O   0  0  0  0  0  0  0  0  0  0  0  0
   57.3980   25.8130   47.4640 O   0  0  0  0  0  0  0  0  0  0  0  0
   57.8140   27.6880   45.5870 C   0  0  0  0  0  0  0  0  0  0  0  0
   59.1540   27.9220   45.9260 C   0  0  0  0  0  0  0  0  0  0  0  0
   59.7146   27.1698   46.5005 H   0  0  0  0  0  0  0  0  0  0  0  0
   59.7790   29.1100   45.5350 C   0  0  0  0  0  0  0  0  0  0  0  0
   60.8324   29.2879   45.7969 H   0  0  0  0  0  0  0  0  0  0  0  0
   59.0680   30.0720   44.8120 C   0  0  0  0  0  0  0  0  0  0  0  0
   59.5666   31.0014   44.4995 H   0  0  0  0  0  0  0  0  0  0  0  0
   57.7200   29.8570   44.4830 C   0  0  0  0  0  0  0  0  0  0  0  0
   56.9550   30.8880   43.6910 C   0  0  0  0  0  0  0  0  0  0  0  0
   56.1367   31.2813   44.3120 H   0  0  0  0  0  0  0  0  0  0  0  0
   56.5603   30.4053   42.7848 H   0  0  0  0  0  0  0  0  0  0  0  0
   57.8270   32.0080   43.2790 N   0  0  0  0  0  0  0  0  0  0  0  0
   57.9140   32.0910   41.8120 C   0  0  0  0  0  0  0  0  0  0  0  0
   58.6836   32.8252   41.5313 H   0  0  0  0  0  0  0  0  0  0  0  0
   58.1817   31.1051   41.4042 H   0  0  0  0  0  0  0  0  0  0  0  0
   56.9418   32.4048   41.4042 H   0  0  0  0  0  0  0  0  0  0  0  0
   57.4730   33.3090   43.9010 C   0  0  0  0  0  0  0  0  0  0  0  0
   57.8005   34.1142   43.2269 H   0  0  0  0  0  0  0  0  0  0  0  0
   56.3840   33.2996   44.0558 H   0  0  0  0  0  0  0  0  0  0  0  0
   58.1040   33.5400   45.2590 C   0  0  0  0  0  0  0  0  0  0  0  0
   59.2460   34.3450   45.3880 C   0  0  0  0  0  0  0  0  0  0  0  0
   59.6903   34.8094   44.4953 H   0  0  0  0  0  0  0  0  0  0  0  0
   59.8230   34.5610   46.6420 C   0  0  0  0  0  0  0  0  0  0  0  0
   60.7032   35.2143   46.7336 H   0  0  0  0  0  0  0  0  0  0  0  0
   59.2850   33.9480   47.7880 C   0  0  0  0  0  0  0  0  0  0  0  0
   59.8530   34.1730   49.1370 C   0  0  0  0  0  0  0  0  0  0  0  0
   60.2856   35.1608   49.3540 H   0  0  0  0  0  0  0  0  0  0  0  0
   59.8750   33.2470   50.1170 C   0  0  0  0  0  0  0  0  0  0  0  0
   58.8020   33.1960   51.0560 N   0  0  0  0  0  0  0  0  0  0  0  0
   58.1970   32.1620   51.5610 C   0  0  0  0  0  0  0  0  0  0  0  0
   57.0330   32.4230   52.2980 C   0  0  0  0  0  0  0  0  0  0  0  0
   56.8186   33.4500   52.6285 H   0  0  0  0  0  0  0  0  0  0  0  0
   56.1450   31.3990   52.6170 C   0  0  0  0  0  0  0  0  0  0  0  0
   55.2322   31.6110   53.1931 H   0  0  0  0  0  0  0  0  0  0  0  0
   56.4290   30.1060   52.1970 C   0  0  0  0  0  0  0  0  0  0  0  0
   55.7080   29.2959   52.3810 H   0  0  0  0  0  0  0  0  0  0  0  0
   57.5980   29.8440   51.5590 N   0  0  0  0  0  0  0  0  0  0  0  0
   58.5160   30.8060   51.2610 C   0  0  0  0  0  0  0  0  0  0  0  0
   59.6770   30.3850   50.8470 N   0  0  0  0  0  0  0  0  0  0  0  0
   60.9340   31.0390   50.6340 C   0  0  0  0  0  0  0  0  0  0  0  0
   62.0870   30.2420   50.7290 C   0  0  0  0  0  0  0  0  0  0  0  0
   61.9873   29.1667   50.9381 H   0  0  0  0  0  0  0  0  0  0  0  0
   63.3560   30.7950   50.5620 C   0  0  0  0  0  0  0  0  0  0  0  0
   64.2491   30.1581   50.6443 H   0  0  0  0  0  0  0  0  0  0  0  0
   63.4920   32.1540   50.2910 C   0  0  0  0  0  0  0  0  0  0  0  0
   64.4928   32.5953   50.1741 H   0  0  0  0  0  0  0  0  0  0  0  0
   62.3560   32.9550   50.1680 C   0  0  0  0  0  0  0  0  0  0  0  0
   62.4680   34.0282   49.9542 H   0  0  0  0  0  0  0  0  0  0  0  0
   61.0630   32.4030   50.3150 C   0  0  0  0  0  0  0  0  0  0  0  0
   58.1400   33.1500   47.6590 C   0  0  0  0  0  0  0  0  0  0  0  0
   57.6923   32.6895   48.5520 H   0  0  0  0  0  0  0  0  0  0  0  0
   57.5630   32.9350   46.4050 C   0  0  0  0  0  0  0  0  0  0  0  0
   56.6786   32.2872   46.3146 H   0  0  0  0  0  0  0  0  0  0  0  0
   57.1050   28.6520   44.8580 C   0  0  0  0  0  0  0  0  0  0  0  0
   56.0583   28.4631   44.5773 H   0  0  0  0  0  0  0  0  0  0  0  0
  1  2  1  0
  2  3  1  0
  3  4  2  0
  3  5  2  0
  3  6  1  0
  6  7  2  0
  7  8  1  0
  7  9  1  0
  9 10  1  0
  9 11  2  0
 11 12  1  0
 11 13  1  0
 13 14  1  0
 14 15  1  0
 14 16  1  0
 14 17  1  0
 17 18  1  0
 18 19  1  0
 18 20  1  0
 18 21  1  0
 17 22  1  0
 22 23  1  0
 22 24  1  0
 22 25  1  0
 25 26  2  0
 26 27  1  0
 26 28  1  0
 28 29  1  0
 28 30  2  0
 30 31  1  0
 31 32  1  0
 31 33  2  0
 33 34  1  0
 34 35  2  0
 35 36  1  0
 36 37  1  0
 36 38  2  0
 38 39  1  0
 38 40  1  0
 40 41  1  0
 40 42  2  0
 42 43  1  0
 43 44  2  0
 44 45  1  0
 45 46  2  0
 46 47  1  0
 46 48  1  0
 48 49  1  0
 48 50  2  0
 50 51  1  0
 50 52  1  0
 52 53  1  0
 52 54  2  0
 30 55  1  0
 55 56  1  0
 55 57  2  0
 57 58  1  0
 13 59  2  0
 59 60  1  0
 59  6  1  0
 57 25  1  0
 54 33  1  0
 43 35  1  0
 54 45  1  0
M  CHG  1   2  -1
M  END
>  <UniqueID>  (62) 
62

>  <SMILES>  (62) 
CN(Cc1ccc(/C=C2\N=c3cccnc3=Nc3ccccc32)cc1)Cc1cccc(S([NH-])(=O)=O)c1

>  <Energy>  (62) 
105.43958595141362

>  <Genealogy>  (62) 
CN(Cc1ccc(C=C2N=c3cccnc3=Nc3ccccc32)cc1)Cc1cccc(S([NH-])(=O)=O)c1 (protonated)
CN(Cc1ccc(/C=C2\N=c3cccnc3=Nc3ccccc32)cc1)Cc1cccc(S([NH-])(=O)=O)c1 (cis-trans isomerization)
CN(Cc1ccc(/C=C2\N=c3cccnc3=Nc3ccccc32)cc1)Cc1cccc(S([NH-])(=O)=O)c1 (3D coordinates assigned)
CN(Cc1ccc(/C=C2\N=c3cccnc3=Nc3ccccc32)cc1)Cc1cccc(S([NH-])(=O)=O)c1 (nonaromatic ring conformer: 105.43958595141362 kcal/mol)

>  <smiles>  (62) 
CN(Cc1ccc(C=C2N=c3cccnc3=Nc3ccccc32)cc1)Cc1cccc(S(N)(=O)=O)c1

>  <score_type>  (62) 
oracle

>  <origin>  (62) 
adg

>  <m_score__min__energy>  (62) 
-14.199999999999999

>  <m_primary>  (62) 
energy

$$$$
62:0
     RDKit          3D

 56 59  0  0  0  0  0  0  0  0999 V2000
   63.7600   33.6760   47.3900 C   0  0  0  0  0  0  0  0  0  0  0  0
   62.5830   33.7110   48.3620 C   0  0  0  0  0  0  0  0  0  0  0  0
   61.5740   32.6920   48.0020 N   0  0  0  0  0  0  0  0  0  0  0  0
   60.8430   32.1860   49.2000 C   0  0  0  0  0  0  0  0  0  0  0  0
   60.7410   30.6510   49.2840 C   0  0  0  0  0  0  0  0  0  0  0  0
   60.4310   30.0880   47.9690 N   0  0  0  0  0  0  0  0  0  0  0  0
   59.6830   28.8640   47.8760 C   0  0  0  0  0  0  0  0  0  0  0  0
   59.8470   27.9650   48.7450 O   0  0  0  0  0  0  0  0  0  0  0  0
   58.7380   28.6260   46.7720 C   0  0  0  0  0  0  0  0  0  0  0  0
   58.3410   29.6620   45.9740 N   0  0  0  0  0  0  0  0  0  0  0  0
   57.4840   29.4780   44.9170 C   0  0  0  0  0  0  0  0  0  0  0  0
   57.1220   30.6390   44.0500 C   0  0  0  0  0  0  0  0  0  0  0  0
   56.7510   31.7370   44.8760 O   0  0  0  0  0  0  0  0  0  0  0  0
   57.6380   32.7190   45.3370 C   0  0  0  0  0  0  0  0  0  0  0  0
   57.7660   32.9040   46.7180 C   0  0  0  0  0  0  0  0  0  0  0  0
   58.6360   33.8720   47.2280 C   0  0  0  0  0  0  0  0  0  0  0  0
   59.3850   34.6670   46.3570 C   0  0  0  0  0  0  0  0  0  0  0  0
   59.2670   34.4920   44.9770 C   0  0  0  0  0  0  0  0  0  0  0  0
   58.3990   33.5230   44.4640 C   0  0  0  0  0  0  0  0  0  0  0  0
   57.0270   28.2220   44.6130 N   0  0  0  0  0  0  0  0  0  0  0  0
   57.4270   27.1870   45.3900 C   0  0  0  0  0  0  0  0  0  0  0  0
   57.1570   25.8850   45.1880 N   0  0  0  0  0  0  0  0  0  0  0  0
   57.8200   25.2280   46.1360 N   0  0  0  0  0  0  0  0  0  0  0  0
   57.8720   23.7710   46.2220 C   0  0  0  0  0  0  0  0  0  0  0  0
   58.8790   23.2210   45.2180 C   0  0  0  0  0  0  0  0  0  0  0  0
   58.5220   26.0860   46.9140 C   0  0  0  0  0  0  0  0  0  0  0  0
   58.2640   27.3570   46.4490 C   0  0  0  0  0  0  0  0  0  0  0  0
   61.1270   30.6000   46.7820 C   0  0  0  0  0  0  0  0  0  0  0  0
   62.1850   31.6310   47.1800 C   0  0  0  0  0  0  0  0  0  0  0  0
   64.7026   33.6480   47.9564 H   0  0  0  0  0  0  0  0  0  0  0  0
   63.6860   32.7797   46.7567 H   0  0  0  0  0  0  0  0  0  0  0  0
   63.7394   34.5752   46.7567 H   0  0  0  0  0  0  0  0  0  0  0  0
   62.9497   33.5115   49.3797 H   0  0  0  0  0  0  0  0  0  0  0  0
   62.1139   34.7047   48.3118 H   0  0  0  0  0  0  0  0  0  0  0  0
   61.3656   32.5455   50.0987 H   0  0  0  0  0  0  0  0  0  0  0  0
   59.8132   32.5645   49.1215 H   0  0  0  0  0  0  0  0  0  0  0  0
   61.6997   30.2427   49.6363 H   0  0  0  0  0  0  0  0  0  0  0  0
   59.9364   30.3845   49.9852 H   0  0  0  0  0  0  0  0  0  0  0  0
   57.9861   30.9196   43.4299 H   0  0  0  0  0  0  0  0  0  0  0  0
   56.2811   30.3658   43.3956 H   0  0  0  0  0  0  0  0  0  0  0  0
   57.1769   32.2823   47.4083 H   0  0  0  0  0  0  0  0  0  0  0  0
   58.7309   34.0078   48.3155 H   0  0  0  0  0  0  0  0  0  0  0  0
   60.0675   35.4306   46.7584 H   0  0  0  0  0  0  0  0  0  0  0  0
   59.8580   35.1176   44.2918 H   0  0  0  0  0  0  0  0  0  0  0  0
   58.3097   33.3877   43.3760 H   0  0  0  0  0  0  0  0  0  0  0  0
   56.4060   28.0570   43.7890 H   0  0  0  0  0  0  0  0  0  0  0  0
   58.1742   23.4773   47.2381 H   0  0  0  0  0  0  0  0  0  0  0  0
   56.8768   23.3618   45.9938 H   0  0  0  0  0  0  0  0  0  0  0  0
   59.7205   22.7614   45.7570 H   0  0  0  0  0  0  0  0  0  0  0  0
   58.3910   22.4642   44.5863 H   0  0  0  0  0  0  0  0  0  0  0  0
   59.2520   24.0406   44.5863 H   0  0  0  0  0  0  0  0  0  0  0  0
   59.1749   25.8186   47.7579 H   0  0  0  0  0  0  0  0  0  0  0  0
   61.6156   29.7636   46.2608 H   0  0  0  0  0  0  0  0  0  0  0  0
   60.3922   31.0834   46.1214 H   0  0  0  0  0  0  0  0  0  0  0  0
   62.9780   31.1341   47.7580 H   0  0  0  0  0  0  0  0  0  0  0  0
   62.6105   32.0800   46.2704 H   0  0  0  0  0  0  0  0  0  0  0  0
  1  2  1  0
  2  3  1  0
  3  4  1  0
  4  5  1  0
  5  6  1  0
  6  7  1  0
  7  8  2  0
  7  9  1  0
  9 10  2  0
 10 11  1  0
 11 12  1  0
 12 13  1  0
 13 14  1  0
 14 15  2  0
 15 16  1  0
 16 17  2  0
 17 18  1  0
 18 19  2  0
 11 20  2  0
 20 21  1  0
 21 22  2  0
 22 23  1  0
 23 24  1  0
 24 25  1  0
 23 26  1  0
 26 27  2  0
  6 28  1  0
 28 29  1  0
 29  3  1  0
 27  9  1  0
 19 14  1  0
 27 21  1  0
  1 30  1  0
  1 31  1  0
  1 32  1  0
  2 33  1  0
  2 34  1  0
  4 35  1  0
  4 36  1  0
  5 37  1  0
  5 38  1  0
 12 39  1  0
 12 40  1  0
 15 41  1  0
 16 42  1  0
 17 43  1  0
 18 44  1  0
 19 45  1  0
 20 46  1  0
 24 47  1  0
 24 48  1  0
 25 49  1  0
 25 50  1  0
 25 51  1  0
 26 52  1  0
 28 53  1  0
 28 54  1  0
 29 55  1  0
 29 56  1  0
M  CHG  1  20   1
M  END
>  <UniqueID>  (63) 
63

>  <SMILES>  (63) 
CCN1CCN(C(=O)c2nc(COc3ccccc3)[nH+]c3nn(CC)cc23)CC1

>  <Energy>  (63) 
102.84132063345936

>  <Genealogy>  (63) 
CCN1CCN(C(=O)c2nc(COc3ccccc3)[nH+]c3nn(CC)cc23)CC1 (protonated)
CCN1CCN(C(=O)c2nc(COc3ccccc3)[nH+]c3nn(CC)cc23)CC1 (3D coordinates assigned)
CCN1CCN(C(=O)c2nc(COc3ccccc3)[nH+]c3nn(CC)cc23)CC1 (nonaromatic ring conformer: 102.84132063345936 kcal/mol)

>  <smiles>  (63) 
CCN1CCN(C(=O)c2nc(COc3ccccc3)nc3nn(CC)cc23)CC1

>  <score_type>  (63) 
oracle

>  <origin>  (63) 
adg

>  <m_score__min__energy>  (63) 
-7.0199999999999996

>  <m_primary>  (63) 
energy

$$$$
63:0
     RDKit          3D

 43 46  0  0  0  0  0  0  0  0999 V2000
   57.1100   26.5070   46.7290 C   0  0  0  0  0  0  0  0  0  0  0  0
   58.0590   27.4510   46.5840 C   0  0  0  0  0  0  0  0  0  0  0  0
   59.3250   27.2100   47.1340 C   0  0  0  0  0  0  0  0  0  0  0  0
   60.3520   28.1310   46.9800 C   0  0  0  0  0  0  0  0  0  0  0  0
   60.1160   29.3540   46.3530 C   0  0  0  0  0  0  0  0  0  0  0  0
   61.1650   30.2660   46.2300 O   0  0  0  0  0  0  0  0  0  0  0  0
   58.8330   29.6710   45.8510 C   0  0  0  0  0  0  0  0  0  0  0  0
   57.8200   28.6530   45.8590 C   0  0  0  0  0  0  0  0  0  0  0  0
   56.6890   28.7560   45.2070 N   0  0  0  0  0  0  0  0  0  0  0  0
   56.2990   29.6920   44.1990 C   0  0  0  0  0  0  0  0  0  0  0  0
   55.0780   29.8390   43.9320 O   0  0  0  0  0  0  0  0  0  0  0  0
   57.3230   30.4510   43.4280 C   0  0  0  0  0  0  0  0  0  0  0  0
   57.8760   31.4900   44.3380 C   0  0  0  0  0  0  0  0  0  0  0  0
   57.6180   32.8460   44.0810 C   0  0  0  0  0  0  0  0  0  0  0  0
   58.0230   33.8280   44.9850 C   0  0  0  0  0  0  0  0  0  0  0  0
   58.6990   33.4710   46.1540 C   0  0  0  0  0  0  0  0  0  0  0  0
   59.0600   34.5220   47.1280 C   0  0  0  0  0  0  0  0  0  0  0  0
   59.9720   34.3850   48.1030 C   0  0  0  0  0  0  0  0  0  0  0  0
   61.2560   33.6630   47.9710 C   0  0  0  0  0  0  0  0  0  0  0  0
   62.1020   33.8640   46.8630 C   0  0  0  0  0  0  0  0  0  0  0  0
   63.3420   33.2200   46.7970 C   0  0  0  0  0  0  0  0  0  0  0  0
   63.7520   32.3820   47.8370 C   0  0  0  0  0  0  0  0  0  0  0  0
   62.9260   32.1900   48.9470 C   0  0  0  0  0  0  0  0  0  0  0  0
   61.6880   32.8370   49.0200 C   0  0  0  0  0  0  0  0  0  0  0  0
   58.9410   32.1150   46.4250 C   0  0  0  0  0  0  0  0  0  0  0  0
   58.5500   31.1080   45.5160 C   0  0  0  0  0  0  0  0  0  0  0  0
   56.1063   26.6670   46.3084 H   0  0  0  0  0  0  0  0  0  0  0  0
   57.3384   25.5758   47.2681 H   0  0  0  0  0  0  0  0  0  0  0  0
   59.5070   26.2808   47.6939 H   0  0  0  0  0  0  0  0  0  0  0  0
   61.3587   27.8946   47.3550 H   0  0  0  0  0  0  0  0  0  0  0  0
   61.9010   30.3270   46.9230 H   0  0  0  0  0  0  0  0  0  0  0  0
   58.1245   29.7740   43.0974 H   0  0  0  0  0  0  0  0  0  0  0  0
   56.8774   30.9113   42.5338 H   0  0  0  0  0  0  0  0  0  0  0  0
   57.0923   33.1362   43.1594 H   0  0  0  0  0  0  0  0  0  0  0  0
   57.8094   34.8868   44.7767 H   0  0  0  0  0  0  0  0  0  0  0  0
   58.5424   35.4893   47.0479 H   0  0  0  0  0  0  0  0  0  0  0  0
   59.7470   34.8456   49.0762 H   0  0  0  0  0  0  0  0  0  0  0  0
   61.7864   34.5300   46.0464 H   0  0  0  0  0  0  0  0  0  0  0  0
   63.9951   33.3735   45.9253 H   0  0  0  0  0  0  0  0  0  0  0  0
   64.7257   31.8732   47.7817 H   0  0  0  0  0  0  0  0  0  0  0  0
   63.2495   31.5292   49.7647 H   0  0  0  0  0  0  0  0  0  0  0  0
   61.0494   32.6975   49.9047 H   0  0  0  0  0  0  0  0  0  0  0  0
   59.4439   31.8322   47.3616 H   0  0  0  0  0  0  0  0  0  0  0  0
  1  2  2  0
  2  3  1  0
  3  4  2  0
  4  5  1  0
  5  6  1  0
  5  7  2  0
  7  8  1  0
  8  9  2  0
  9 10  1  0
 10 11  2  0
 10 12  1  0
 12 13  1  0
 13 14  2  0
 14 15  1  0
 15 16  2  0
 16 17  1  0
 17 18  2  3
 18 19  1  0
 19 20  2  0
 20 21  1  0
 21 22  2  0
 22 23  1  0
 23 24  2  0
 16 25  1  0
 25 26  2  0
  8  2  1  0
 26 13  1  0
 26  7  1  0
 24 19  1  0
  1 27  1  0
  1 28  1  0
  3 29  1  0
  4 30  1  0
  6 31  1  0
 12 32  1  0
 12 33  1  0
 14 34  1  0
 15 35  1  0
 17 36  1  0
 18 37  1  0
 20 38  1  0
 21 39  1  0
 22 40  1  0
 23 41  1  0
 24 42  1  0
 25 43  1  0
M  END
>  <UniqueID>  (64) 
64

>  <SMILES>  (64) 
C=c1ccc(O)c2c1=NC(=O)Cc1ccc(C=Cc3ccccc3)cc1-2

>  <Energy>  (64) 
81.83336532355298

>  <Genealogy>  (64) 
C=c1ccc(O)c2c1=NC(=O)Cc1ccc(C=Cc3ccccc3)cc1-2 (3D coordinates assigned)
C=c1ccc(O)c2c1=NC(=O)Cc1ccc(C=Cc3ccccc3)cc1-2 (nonaromatic ring conformer: 81.83336532355298 kcal/mol)

>  <smiles>  (64) 
C=c1ccc(O)c2c1=NC(=O)Cc1ccc(C=Cc3ccccc3)cc1-2

>  <score_type>  (64) 
oracle

>  <origin>  (64) 
adg

>  <m_score__min__energy>  (64) 
-9.0700000000000003

>  <m_primary>  (64) 
energy

$$$$
64:0
     RDKit          3D

 42 44  0  0  0  0  0  0  0  0999 V2000
   59.6050   33.7610   46.7170 C   0  0  0  0  0  0  0  0  0  0  0  0
   59.3600   32.5170   47.5880 C   0  0  2  0  0  0  0  0  0  0  0  0
   60.2290   32.5510   48.8560 C   0  0  0  0  0  0  0  0  0  0  0  0
   61.6500   32.3470   48.5380 N   0  0  0  0  0  0  0  0  0  0  0  0
   62.6700   32.8980   49.4030 C   0  0  0  0  0  0  0  0  0  0  0  0
   62.4170   34.0560   50.1620 C   0  0  0  0  0  0  0  0  0  0  0  0
   63.4030   34.5860   50.9990 C   0  0  0  0  0  0  0  0  0  0  0  0
   64.6530   33.9700   51.0870 C   0  0  0  0  0  0  0  0  0  0  0  0
   64.9200   32.8210   50.3370 C   0  0  0  0  0  0  0  0  0  0  0  0
   66.4930   32.0510   50.4440 Cl  0  0  0  0  0  0  0  0  0  0  0  0
   63.9340   32.2870   49.5000 C   0  0  0  0  0  0  0  0  0  0  0  0
   62.0370   31.5670   47.3540 C   0  0  0  0  0  0  0  0  0  0  0  0
   60.9200   30.6180   46.9050 C   0  0  0  0  0  0  0  0  0  0  0  0
   59.6020   31.2770   46.8220 N   0  0  0  0  0  0  0  0  0  0  0  0
   58.5100   30.6090   46.1270 C   0  0  0  0  0  0  0  0  0  0  0  0
   57.6840   31.3120   45.2220 C   0  0  0  0  0  0  0  0  0  0  0  0
   56.6700   30.6800   44.5740 N   0  0  0  0  0  0  0  0  0  0  0  0
   56.4040   29.3630   44.7660 C   0  0  0  0  0  0  0  0  0  0  0  0
   57.1840   28.6140   45.6480 C   0  0  0  0  0  0  0  0  0  0  0  0
   56.8660   26.9000   45.8950 S   0  0  0  0  0  0  0  0  0  0  0  0
   55.1620   26.6430   46.0260 N   0  0  0  0  0  0  0  0  0  0  0  0
   57.5380   26.4280   47.1530 O   0  0  0  0  0  0  0  0  0  0  0  0
   57.4070   26.1120   44.7350 O   0  0  0  0  0  0  0  0  0  0  0  0
   58.2390   29.2370   46.3210 C   0  0  0  0  0  0  0  0  0  0  0  0
   59.7769   34.6337   47.3642 H   0  0  0  0  0  0  0  0  0  0  0  0
   60.4879   33.5959   46.0820 H   0  0  0  0  0  0  0  0  0  0  0  0
   58.7254   33.9430   46.0820 H   0  0  0  0  0  0  0  0  0  0  0  0
   58.3043   32.5270   47.8970 H   0  0  0  0  0  0  0  0  0  0  0  0
   60.1087   33.5283   49.3463 H   0  0  0  0  0  0  0  0  0  0  0  0
   59.9029   31.7379   49.5212 H   0  0  0  0  0  0  0  0  0  0  0  0
   61.4353   34.5479   50.0959 H   0  0  0  0  0  0  0  0  0  0  0  0
   63.1938   35.4902   51.5895 H   0  0  0  0  0  0  0  0  0  0  0  0
   65.4275   34.3888   51.7464 H   0  0  0  0  0  0  0  0  0  0  0  0
   64.1487   31.3819   48.9128 H   0  0  0  0  0  0  0  0  0  0  0  0
   62.2672   32.2599   46.5312 H   0  0  0  0  0  0  0  0  0  0  0  0
   62.9152   30.9594   47.6179 H   0  0  0  0  0  0  0  0  0  0  0  0
   61.1761   30.2202   45.9120 H   0  0  0  0  0  0  0  0  0  0  0  0
   60.8424   29.8210   47.6592 H   0  0  0  0  0  0  0  0  0  0  0  0
   57.8633   32.3819   45.0398 H   0  0  0  0  0  0  0  0  0  0  0  0
   55.5730   28.8857   44.2260 H   0  0  0  0  0  0  0  0  0  0  0  0
   54.7670   26.7160   45.0620 H   0  0  0  0  0  0  0  0  0  0  0  0
   58.8655   28.6514   47.0099 H   0  0  0  0  0  0  0  0  0  0  0  0
  1  2  1  0
  2  3  1  0
  3  4  1  0
  4  5  1  0
  5  6  2  0
  6  7  1  0
  7  8  2  0
  8  9  1  0
  9 10  1  0
  9 11  2  0
  4 12  1  0
 12 13  1  0
 13 14  1  0
 14 15  1  0
 15 16  2  0
 16 17  1  0
 17 18  2  0
 18 19  1  0
 19 20  1  0
 20 21  1  0
 20 22  2  0
 20 23  2  0
 19 24  2  0
 14  2  1  0
 24 15  1  0
 11  5  1  0
  1 25  1  0
  1 26  1  0
  1 27  1  0
  2 28  1  1
  3 29  1  0
  3 30  1  0
  6 31  1  0
  7 32  1  0
  8 33  1  0
 11 34  1  0
 12 35  1  0
 12 36  1  0
 13 37  1  0
 13 38  1  0
 16 39  1  0
 18 40  1  0
 21 41  1  0
 24 42  1  0
M  CHG  1  21  -1
M  END
>  <UniqueID>  (65) 
65

>  <SMILES>  (65) 
C[C@@H]1CN(c2cccc(Cl)c2)CCN1c1cncc(S([NH-])(=O)=O)c1

>  <Energy>  (65) 
51.266807437829996

>  <Genealogy>  (65) 
CC1CN(c2cccc(Cl)c2)CCN1c1cncc(S([NH-])(=O)=O)c1 (protonated)
C[C@@H]1CN(c2cccc(Cl)c2)CCN1c1cncc(S([NH-])(=O)=O)c1 (chirality)
C[C@@H]1CN(c2cccc(Cl)c2)CCN1c1cncc(S([NH-])(=O)=O)c1 (3D coordinates assigned)
C[C@@H]1CN(c2cccc(Cl)c2)CCN1c1cncc(S([NH-])(=O)=O)c1 (nonaromatic ring conformer: 51.266807437829996 kcal/mol)

>  <smiles>  (65) 
CC1CN(c2cccc(Cl)c2)CCN1c1cncc(S(N)(=O)=O)c1

>  <score_type>  (65) 
oracle

>  <origin>  (65) 
adg

>  <m_score__min__energy>  (65) 
-10.76

>  <m_primary>  (65) 
energy

$$$$
65:0
     RDKit          3D

 52 55  0  0  0  0  0  0  0  0999 V2000
   66.5090   31.7151   49.9572 H   0  0  0  0  0  0  0  0  0  0  0  0
   65.6580   32.3960   50.1060 C   0  0  0  0  0  0  0  0  0  0  0  0
   64.4240   32.6860   49.0000 S   0  0  0  0  0  0  0  0  0  0  0  0
   63.5710   33.7710   49.9610 C   0  0  0  0  0  0  0  0  0  0  0  0
   62.3610   34.5350   49.5270 C   0  0  0  0  0  0  0  0  0  0  0  0
   62.6710   35.5039   49.1086 H   0  0  0  0  0  0  0  0  0  0  0  0
   61.7042   34.7000   50.3938 H   0  0  0  0  0  0  0  0  0  0  0  0
   61.6380   33.7760   48.5100 N   0  0  0  0  0  0  0  0  0  0  0  0
   62.1410   32.9950   48.0330 H   0  0  0  0  0  0  0  0  0  0  0  0
   60.3270   34.1540   48.0680 C   0  0  0  0  0  0  0  0  0  0  0  0
   59.6260   34.9330   48.7720 O   0  0  0  0  0  0  0  0  0  0  0  0
   59.7760   33.6530   46.7550 C   0  0  0  0  0  0  0  0  0  0  0  0
   60.4413   34.0074   45.9539 H   0  0  0  0  0  0  0  0  0  0  0  0
   59.7900   32.1040   46.6820 C   0  0  0  0  0  0  0  0  0  0  0  0
   60.4217   31.7188   47.4960 H   0  0  0  0  0  0  0  0  0  0  0  0
   60.1828   31.8210   45.6943 H   0  0  0  0  0  0  0  0  0  0  0  0
   58.3840   31.4910   46.8170 C   0  0  0  0  0  0  0  0  0  0  0  0
   58.0147   31.6871   47.8344 H   0  0  0  0  0  0  0  0  0  0  0  0
   58.4782   30.4151   46.6082 H   0  0  0  0  0  0  0  0  0  0  0  0
   57.4050   32.0400   45.8480 N   0  0  0  0  0  0  0  0  0  0  0  0
   57.1740   30.9710   44.4830 S   0  0  0  0  0  0  0  0  0  0  0  0
   57.8210   31.5660   43.2620 O   0  0  0  0  0  0  0  0  0  0  0  0
   55.7020   30.8300   44.2070 O   0  0  0  0  0  0  0  0  0  0  0  0
   57.8630   29.3760   44.7880 C   0  0  0  0  0  0  0  0  0  0  0  0
   59.2640   29.2090   44.8610 C   0  0  0  0  0  0  0  0  0  0  0  0
   59.9247   30.0720   44.6914 H   0  0  0  0  0  0  0  0  0  0  0  0
   59.8220   27.9520   45.1480 C   0  0  0  0  0  0  0  0  0  0  0  0
   60.9129   27.8247   45.2091 H   0  0  0  0  0  0  0  0  0  0  0  0
   58.9690   26.8690   45.3540 C   0  0  0  0  0  0  0  0  0  0  0  0
   59.3830   25.6090   45.6440 N   0  0  0  0  0  0  0  0  0  0  0  0
   58.3290   24.7700   45.7850 C   0  0  0  0  0  0  0  0  0  0  0  0
   58.4940   23.5090   46.0590 N   0  0  0  0  0  0  0  0  0  0  0  0
   59.1620   22.5180   45.2610 C   0  0  0  0  0  0  0  0  0  0  0  0
   60.3630   22.1980   45.4730 O   0  0  0  0  0  0  0  0  0  0  0  0
   58.4220   21.8600   44.1440 C   0  0  0  0  0  0  0  0  0  0  0  0
   57.6603   21.1827   44.5576 H   0  0  0  0  0  0  0  0  0  0  0  0
   57.9334   22.6274   43.5256 H   0  0  0  0  0  0  0  0  0  0  0  0
   59.1270   21.2850   43.5256 H   0  0  0  0  0  0  0  0  0  0  0  0
   56.8400   25.5650   45.5570 S   0  0  0  0  0  0  0  0  0  0  0  0
   57.5950   27.0350   45.2670 C   0  0  0  0  0  0  0  0  0  0  0  0
   57.0150   28.2680   44.9850 C   0  0  0  0  0  0  0  0  0  0  0  0
   55.9223   28.3750   44.9176 H   0  0  0  0  0  0  0  0  0  0  0  0
   57.6810   33.4200   45.3900 C   0  0  0  0  0  0  0  0  0  0  0  0
   56.7292   33.9068   45.1309 H   0  0  0  0  0  0  0  0  0  0  0  0
   58.3460   33.3650   44.5155 H   0  0  0  0  0  0  0  0  0  0  0  0
   58.3820   34.2450   46.4720 C   0  0  0  0  0  0  0  0  0  0  0  0
   57.7820   34.2243   47.3937 H   0  0  0  0  0  0  0  0  0  0  0  0
   58.4907   35.2832   46.1252 H   0  0  0  0  0  0  0  0  0  0  0  0
   64.2570   33.9400   51.1570 C   0  0  0  0  0  0  0  0  0  0  0  0
   63.9216   34.6153   51.9579 H   0  0  0  0  0  0  0  0  0  0  0  0
   65.4190   33.1630   51.2390 C   0  0  0  0  0  0  0  0  0  0  0  0
   66.0803   33.1603   52.1180 H   0  0  0  0  0  0  0  0  0  0  0  0
  1  2  1  0
  2  3  1  0
  3  4  1  0
  4  5  1  0
  5  6  1  0
  5  7  1  0
  5  8  1  0
  8  9  1  0
  8 10  1  0
 10 11  2  0
 10 12  1  0
 12 13  1  0
 12 14  1  0
 14 15  1  0
 14 16  1  0
 14 17  1  0
 17 18  1  0
 17 19  1  0
 17 20  1  0
 20 21  1  0
 21 22  2  0
 21 23  2  0
 21 24  1  0
 24 25  2  0
 25 26  1  0
 25 27  1  0
 27 28  1  0
 27 29  2  0
 29 30  1  0
 30 31  1  0
 31 32  2  0
 32 33  1  0
 33 34  2  0
 33 35  1  0
 35 36  1  0
 35 37  1  0
 35 38  1  0
 31 39  1  0
 39 40  1  0
 40 41  2  0
 41 42  1  0
 20 43  1  0
 43 44  1  0
 43 45  1  0
 43 46  1  0
 46 47  1  0
 46 48  1  0
  4 49  2  0
 49 50  1  0
 49 51  1  0
 51 52  1  0
 51  2  2  0
 46 12  1  0
 41 24  1  0
 40 29  1  0
M  CHG  1  30  -1
M  END
>  <UniqueID>  (66) 
66

>  <SMILES>  (66) 
CC(=O)/N=c1/[n-]c2ccc(S(=O)(=O)N3CCC(C(=O)NCc4cccs4)CC3)cc2s1

>  <Energy>  (66) 
119.19908035281654

>  <Genealogy>  (66) 
CC(=O)N=c1[n-]c2ccc(S(=O)(=O)N3CCC(C(=O)NCc4cccs4)CC3)cc2s1 (protonated)
CC(=O)/N=c1/[n-]c2ccc(S(=O)(=O)N3CCC(C(=O)NCc4cccs4)CC3)cc2s1 (cis-trans isomerization)
CC(=O)/N=c1/[n-]c2ccc(S(=O)(=O)N3CCC(C(=O)NCc4cccs4)CC3)cc2s1 (3D coordinates assigned)
CC(=O)/N=c1/[n-]c2ccc(S(=O)(=O)N3CCC(C(=O)NCc4cccs4)CC3)cc2s1 (nonaromatic ring conformer: 119.19908035281654 kcal/mol)

>  <smiles>  (66) 
CC(=O)N=c1[nH]c2ccc(S(=O)(=O)N3CCC(C(=O)NCc4cccs4)CC3)cc2s1

>  <score_type>  (66) 
oracle

>  <origin>  (66) 
adg

>  <m_score__min__energy>  (66) 
-11.23

>  <m_primary>  (66) 
energy

$$$$
66:0
     RDKit          3D

 48 50  0  0  0  0  0  0  0  0999 V2000
   58.0690   30.3020   42.9770 H   0  0  0  0  0  0  0  0  0  0  0  0
   57.9740   31.2420   42.6710 O   0  0  0  0  0  0  0  0  0  0  0  0
   58.1820   32.0440   43.8020 C   0  0  0  0  0  0  0  0  0  0  0  0
   57.9056   33.0823   43.5661 H   0  0  0  0  0  0  0  0  0  0  0  0
   59.2431   31.9913   44.0871 H   0  0  0  0  0  0  0  0  0  0  0  0
   57.3200   31.5430   44.9820 C   0  0  1  0  0  0  0  0  0  0  0  0
   56.6532   32.3759   45.2497 H   0  0  0  0  0  0  0  0  0  0  0  0
   56.5640   30.3330   44.5520 C   0  0  0  0  0  0  0  0  0  0  0  0
   55.4030   30.4280   44.0720 O   0  0  0  0  0  0  0  0  0  0  0  0
   57.2130   29.0730   44.6040 N   0  0  0  0  0  0  0  0  0  0  0  0
   58.4300   28.8740   45.3360 C   0  0  0  0  0  0  0  0  0  0  0  0
   59.0940   27.5470   45.1130 C   0  0  0  0  0  0  0  0  0  0  0  0
   59.3252   27.0849   46.0841 H   0  0  0  0  0  0  0  0  0  0  0  0
   58.4186   26.8897   44.5457 H   0  0  0  0  0  0  0  0  0  0  0  0
   60.0250   27.6936   44.5457 H   0  0  0  0  0  0  0  0  0  0  0  0
   58.8690   29.8270   46.2200 C   0  0  0  0  0  0  0  0  0  0  0  0
   59.8370   29.5260   47.3430 C   0  0  0  0  0  0  0  0  0  0  0  0
   61.0640   29.7590   47.1750 O   0  0  0  0  0  0  0  0  0  0  0  0
   59.4420   29.1220   48.7010 C   0  0  0  0  0  0  0  0  0  0  0  0
   59.3525   28.0456   48.9091 H   0  0  0  0  0  0  0  0  0  0  0  0
   59.1840   29.9730   49.7010 C   0  0  0  0  0  0  0  0  0  0  0  0
   58.2857   29.7858   50.3077 H   0  0  0  0  0  0  0  0  0  0  0  0
   60.0100   31.1410   50.0520 C   0  0  0  0  0  0  0  0  0  0  0  0
   59.5500   32.2280   50.7680 C   0  0  0  0  0  0  0  0  0  0  0  0
   58.5698   32.3292   51.2569 H   0  0  0  0  0  0  0  0  0  0  0  0
   60.5650   33.1620   50.7480 C   0  0  0  0  0  0  0  0  0  0  0  0
   60.5598   34.1495   51.2327 H   0  0  0  0  0  0  0  0  0  0  0  0
   61.5880   32.6150   50.0010 C   0  0  0  0  0  0  0  0  0  0  0  0
   62.5431   33.1143   49.7809 H   0  0  0  0  0  0  0  0  0  0  0  0
   61.2490   31.3840   49.5810 N   0  0  0  0  0  0  0  0  0  0  0  0
   61.8160   30.7830   48.9440 H   0  0  0  0  0  0  0  0  0  0  0  0
   58.1340   31.1890   46.2670 C   0  0  1  0  0  0  0  0  0  0  0  0
   57.4046   31.0307   47.0750 H   0  0  0  0  0  0  0  0  0  0  0  0
   59.0260   32.3640   46.6600 C   0  0  0  0  0  0  0  0  0  0  0  0
   58.4430   33.6060   46.9580 C   0  0  0  0  0  0  0  0  0  0  0  0
   57.3482   33.7122   46.9445 H   0  0  0  0  0  0  0  0  0  0  0  0
   59.2410   34.7060   47.2710 C   0  0  0  0  0  0  0  0  0  0  0  0
   58.7731   35.6667   47.5319 H   0  0  0  0  0  0  0  0  0  0  0  0
   60.6330   34.5910   47.2540 C   0  0  0  0  0  0  0  0  0  0  0  0
   61.2563   35.4636   47.4992 H   0  0  0  0  0  0  0  0  0  0  0  0
   61.2420   33.3690   46.9260 C   0  0  0  0  0  0  0  0  0  0  0  0
   62.7190   33.2770   46.8490 C   0  0  0  0  0  0  0  0  0  0  0  0
   63.3910   34.2950   46.5290 O   0  0  0  0  0  0  0  0  0  0  0  0
   63.4040   32.0500   47.1090 N   0  0  0  0  0  0  0  0  0  0  0  0
   64.4480   32.0260   47.1080 H   0  0  0  0  0  0  0  0  0  0  0  0
   62.8910   31.1490   47.2320 H   0  0  0  0  0  0  0  0  0  0  0  0
   60.4300   32.2510   46.6600 C   0  0  0  0  0  0  0  0  0  0  0  0
   60.8971   31.2776   46.4496 H   0  0  0  0  0  0  0  0  0  0  0  0
  1  2  1  0
  2  3  1  0
  3  4  1  0
  3  5  1  0
  3  6  1  0
  6  7  1  1
  6  8  1  0
  8  9  2  0
  8 10  1  0
 10 11  1  0
 11 12  1  0
 12 13  1  0
 12 14  1  0
 12 15  1  0
 11 16  2  0
 16 17  1  0
 17 18  2  0
 17 19  1  0
 19 20  1  0
 19 21  2  0
 21 22  1  0
 21 23  1  0
 23 24  2  0
 24 25  1  0
 24 26  1  0
 26 27  1  0
 26 28  2  0
 28 29  1  0
 28 30  1  0
 30 31  1  0
 16 32  1  0
 32 33  1  1
 32 34  1  0
 34 35  2  0
 35 36  1  0
 35 37  1  0
 37 38  1  0
 37 39  2  0
 39 40  1  0
 39 41  1  0
 41 42  1  0
 42 43  2  0
 42 44  1  0
 44 45  1  0
 44 46  1  0
 41 47  2  0
 47 48  1  0
 32  6  1  0
 47 34  1  0
 30 23  1  0
M  CHG  1  10  -1
M  END
>  <UniqueID>  (67) 
67

>  <SMILES>  (67) 
CC1=C(C(=O)/C=C\c2ccc[nH]2)[C@@H](c2cccc(C(N)=O)c2)[C@@H](CO)C(=O)[N-]1

>  <Energy>  (67) 
100.0766092080127

>  <Genealogy>  (67) 
CC1=C(C(=O)C=Cc2ccc[nH]2)C(c2cccc(C(N)=O)c2)C(CO)C(=O)[N-]1 (protonated)
CC1=C(C(=O)C=Cc2ccc[nH]2)[C@@H](c2cccc(C(N)=O)c2)[C@@H](CO)C(=O)[N-]1 (chirality)
CC1=C(C(=O)/C=C\c2ccc[nH]2)[C@@H](c2cccc(C(N)=O)c2)[C@@H](CO)C(=O)[N-]1 (cis-trans isomerization)
CC1=C(C(=O)/C=C\c2ccc[nH]2)[C@@H](c2cccc(C(N)=O)c2)[C@@H](CO)C(=O)[N-]1 (3D coordinates assigned)
CC1=C(C(=O)/C=C\c2ccc[nH]2)[C@@H](c2cccc(C(N)=O)c2)[C@@H](CO)C(=O)[N-]1 (nonaromatic ring conformer: 100.0766092080127 kcal/mol)

>  <smiles>  (67) 
CC1=C(C(=O)C=Cc2ccc[nH]2)C(c2cccc(C(N)=O)c2)C(CO)C(=O)N1

>  <score_type>  (67) 
oracle

>  <origin>  (67) 
adg

>  <m_score__min__energy>  (67) 
-10.6

>  <m_primary>  (67) 
energy

$$$$
67:0
     RDKit          3D

 61 64  0  0  0  0  0  0  0  0999 V2000
   59.0447   29.9646   49.2712 H   0  0  0  0  0  0  0  0  0  0  0  0
   58.8550   29.3570   48.3740 C   0  0  0  0  0  0  0  0  0  0  0  0
   58.7975   28.2614   48.4537 H   0  0  0  0  0  0  0  0  0  0  0  0
   58.6930   29.9550   47.1770 C   0  0  0  0  0  0  0  0  0  0  0  0
   58.4490   29.2850   45.9800 C   0  0  0  0  0  0  0  0  0  0  0  0
   58.4160   27.9480   45.7800 C   0  0  0  0  0  0  0  0  0  0  0  0
   59.3423   27.4647   45.4359 H   0  0  0  0  0  0  0  0  0  0  0  0
   57.2340   27.0840   45.9870 C   0  0  0  0  0  0  0  0  0  0  0  0
   57.2560   25.8220   46.4570 N   0  0  0  0  0  0  0  0  0  0  0  0
   55.9630   25.4390   46.3930 C   0  0  0  0  0  0  0  0  0  0  0  0
   55.5750   24.2990   46.7600 O   0  0  0  0  0  0  0  0  0  0  0  0
   55.1190   26.3710   45.8990 N   0  0  0  0  0  0  0  0  0  0  0  0
   55.9420   27.4010   45.6380 C   0  0  0  0  0  0  0  0  0  0  0  0
   55.5180   28.6070   45.0940 O   0  0  0  0  0  0  0  0  0  0  0  0
   58.2590   30.2660   45.0290 C   0  0  0  0  0  0  0  0  0  0  0  0
   58.0326   30.0978   43.9658 H   0  0  0  0  0  0  0  0  0  0  0  0
   58.4030   31.5050   45.6460 C   0  0  0  0  0  0  0  0  0  0  0  0
   58.1020   32.8370   44.9090 C   0  0  0  0  0  0  0  0  0  0  0  0
   57.7890   32.5680   43.4120 C   0  0  0  0  0  0  0  0  0  0  0  0
   56.9569   31.8528   43.3342 H   0  0  0  0  0  0  0  0  0  0  0  0
   57.5088   33.5115   42.9207 H   0  0  0  0  0  0  0  0  0  0  0  0
   58.6796   32.1492   42.9207 H   0  0  0  0  0  0  0  0  0  0  0  0
   56.8570   33.4920   45.5380 C   0  0  0  0  0  0  0  0  0  0  0  0
   56.9354   33.4508   46.6344 H   0  0  0  0  0  0  0  0  0  0  0  0
   56.7916   34.5413   45.2143 H   0  0  0  0  0  0  0  0  0  0  0  0
   55.9553   32.9515   45.2143 H   0  0  0  0  0  0  0  0  0  0  0  0
   59.2830   33.8360   44.9360 C   0  0  0  0  0  0  0  0  0  0  0  0
   59.5491   34.0611   45.9793 H   0  0  0  0  0  0  0  0  0  0  0  0
   60.1499   33.3929   44.4239 H   0  0  0  0  0  0  0  0  0  0  0  0
   58.9898   34.7643   44.4239 H   0  0  0  0  0  0  0  0  0  0  0  0
   58.6720   31.3070   46.9770 N   0  0  0  0  0  0  0  0  0  0  0  0
   58.8830   32.3260   48.0260 C   0  0  0  0  0  0  0  0  0  0  0  0
   58.5949   33.3096   47.6265 H   0  0  0  0  0  0  0  0  0  0  0  0
   58.2665   32.0479   48.8935 H   0  0  0  0  0  0  0  0  0  0  0  0
   60.3200   32.3900   48.4830 C   0  0  0  0  0  0  0  0  0  0  0  0
   61.3690   31.9680   47.6450 C   0  0  0  0  0  0  0  0  0  0  0  0
   61.1422   31.5636   46.6475 H   0  0  0  0  0  0  0  0  0  0  0  0
   62.6960   32.0590   48.0710 C   0  0  0  0  0  0  0  0  0  0  0  0
   63.5062   31.6906   47.4246 H   0  0  0  0  0  0  0  0  0  0  0  0
   62.9980   32.6190   49.3210 C   0  0  0  0  0  0  0  0  0  0  0  0
   64.3940   32.7130   49.7920 C   0  0  0  0  0  0  0  0  0  0  0  0
   65.2680   33.1000   48.9670 O   0  0  0  0  0  0  0  0  0  0  0  0
   64.7960   32.3500   51.1420 N   0  0  0  0  0  0  0  0  0  0  0  0
   64.0410   32.7120   51.7740 H   0  0  0  0  0  0  0  0  0  0  0  0
   66.0350   33.0410   51.5700 C   0  0  0  0  0  0  0  0  0  0  0  0
   66.0074   34.0740   51.1929 H   0  0  0  0  0  0  0  0  0  0  0  0
   66.0677   33.0032   52.6689 H   0  0  0  0  0  0  0  0  0  0  0  0
   67.3250   32.3600   51.0470 C   0  0  0  0  0  0  0  0  0  0  0  0
   67.7630   32.9990   50.2661 H   0  0  0  0  0  0  0  0  0  0  0  0
   67.9948   32.2339   51.9104 H   0  0  0  0  0  0  0  0  0  0  0  0
   67.1070   31.0730   50.5010 O   0  0  0  0  0  0  0  0  0  0  0  0
   66.2770   30.3210   51.3560 C   0  0  0  0  0  0  0  0  0  0  0  0
   66.2581   29.2758   51.0135 H   0  0  0  0  0  0  0  0  0  0  0  0
   66.6768   30.3802   52.3791 H   0  0  0  0  0  0  0  0  0  0  0  0
   64.8430   30.8800   51.3520 C   0  0  0  0  0  0  0  0  0  0  0  0
   64.2783   30.3918   50.5441 H   0  0  0  0  0  0  0  0  0  0  0  0
   64.4055   30.6736   52.3399 H   0  0  0  0  0  0  0  0  0  0  0  0
   61.9580   33.0500   50.1540 C   0  0  0  0  0  0  0  0  0  0  0  0
   62.1883   33.4709   51.1438 H   0  0  0  0  0  0  0  0  0  0  0  0
   60.6290   32.9480   49.7340 C   0  0  0  0  0  0  0  0  0  0  0  0
   59.8201   33.3070   50.3873 H   0  0  0  0  0  0  0  0  0  0  0  0
  1  2  1  0
  2  3  1  0
  2  4  2  0
  4  5  1  0
  5  6  2  0
  6  7  1  0
  6  8  1  0
  8  9  1  0
  9 10  1  0
 10 11  2  0
 10 12  1  0
 12 13  1  0
 13 14  1  0
  5 15  1  0
 15 16  1  0
 15 17  2  0
 17 18  1  0
 18 19  1  0
 19 20  1  0
 19 21  1  0
 19 22  1  0
 18 23  1  0
 23 24  1  0
 23 25  1  0
 23 26  1  0
 18 27  1  0
 27 28  1  0
 27 29  1  0
 27 30  1  0
 17 31  1  0
 31 32  1  0
 32 33  1  0
 32 34  1  0
 32 35  1  0
 35 36  2  0
 36 37  1  0
 36 38  1  0
 38 39  1  0
 38 40  2  0
 40 41  1  0
 41 42  2  0
 41 43  1  0
 43 44  1  0
 43 45  1  0
 45 46  1  0
 45 47  1  0
 45 48  1  0
 48 49  1  0
 48 50  1  0
 48 51  1  0
 51 52  1  0
 52 53  1  0
 52 54  1  0
 52 55  1  0
 55 56  1  0
 55 57  1  0
 40 58  1  0
 58 59  1  0
 58 60  2  0
 60 61  1  0
 31  4  1  0
 60 35  1  0
 13  8  2  0
 55 43  1  0
M  CHG  4   9  -1  12  -1  14  -1  43   1
M  END
>  <UniqueID>  (68) 
68

>  <SMILES>  (68) 
C=c1/c(=C/c2[n-]c(=O)[n-]c2[O-])cc(C(C)(C)C)n1Cc1ccc(C(=O)[NH+]2CCOCC2)cc1

>  <Energy>  (68) 
155.85110638547525

>  <Genealogy>  (68) 
C=c1c(=Cc2[n-]c(=O)[n-]c2[O-])cc(C(C)(C)C)n1Cc1ccc(C(=O)[NH+]2CCOCC2)cc1 (protonated)
C=c1/c(=C/c2[n-]c(=O)[n-]c2[O-])cc(C(C)(C)C)n1Cc1ccc(C(=O)[NH+]2CCOCC2)cc1 (cis-trans isomerization)
C=c1/c(=C/c2[n-]c(=O)[n-]c2[O-])cc(C(C)(C)C)n1Cc1ccc(C(=O)[NH+]2CCOCC2)cc1 (3D coordinates assigned)
C=c1/c(=C/c2[n-]c(=O)[n-]c2[O-])cc(C(C)(C)C)n1Cc1ccc(C(=O)[NH+]2CCOCC2)cc1 (nonaromatic ring conformer: 155.85110638547525 kcal/mol)

>  <smiles>  (68) 
C=c1c(=Cc2[nH]c(=O)[nH]c2O)cc(C(C)(C)C)n1Cc1ccc(C(=O)N2CCOCC2)cc1

>  <score_type>  (68) 
oracle

>  <origin>  (68) 
adg

>  <m_score__min__energy>  (68) 
-15.56

>  <m_primary>  (68) 
energy

$$$$
68:0
     RDKit          3D

 43 45  0  0  0  0  0  0  0  0999 V2000
   57.7260   31.8070   44.9430 N   0  0  0  0  0  0  0  0  0  0  0  0
   57.5540   31.2930   43.6220 C   0  0  0  0  0  0  0  0  0  0  0  0
   57.8440   32.0160   42.6320 O   0  0  0  0  0  0  0  0  0  0  0  0
   57.0720   29.8870   43.4060 C   0  0  0  0  0  0  0  0  0  0  0  0
   56.1730   29.4340   44.5260 C   0  0  0  0  0  0  0  0  0  0  0  0
   55.1300   30.0930   44.7780 O   0  0  0  0  0  0  0  0  0  0  0  0
   56.4120   28.2180   45.2470 N   0  0  0  0  0  0  0  0  0  0  0  0
   57.6070   27.8760   45.9600 C   0  0  0  0  0  0  0  0  0  0  0  0
   58.2080   26.6170   45.8150 C   0  0  0  0  0  0  0  0  0  0  0  0
   59.3920   26.3190   46.4960 C   0  0  0  0  0  0  0  0  0  0  0  0
   59.9920   27.2820   47.3130 C   0  0  0  0  0  0  0  0  0  0  0  0
   59.4110   28.5520   47.4510 C   0  0  0  0  0  0  0  0  0  0  0  0
   60.0870   29.6070   48.2910 C   0  0  0  0  0  0  0  0  0  0  0  0
   59.8120   31.0090   47.7880 C   0  0  0  0  0  0  0  0  0  0  0  0
   58.5260   31.4410   47.6890 N   0  0  0  0  0  0  0  0  0  0  0  0
   58.2180   32.6650   47.2680 N   0  0  0  0  0  0  0  0  0  0  0  0
   59.1740   33.5550   46.9100 C   0  0  0  0  0  0  0  0  0  0  0  0
   58.8340   34.7040   46.5210 O   0  0  0  0  0  0  0  0  0  0  0  0
   60.5290   33.1910   46.9830 C   0  0  0  0  0  0  0  0  0  0  0  0
   60.8620   31.9050   47.4730 C   0  0  0  0  0  0  0  0  0  0  0  0
   62.3100   31.4580   47.5650 C   0  0  0  0  0  0  0  0  0  0  0  0
   63.3030   32.6220   47.5450 C   0  0  0  0  0  0  0  0  0  0  0  0
   62.9690   33.5840   46.4100 C   0  0  0  0  0  0  0  0  0  0  0  0
   61.5950   34.2130   46.6430 C   0  0  0  0  0  0  0  0  0  0  0  0
   58.2280   28.8490   46.7540 C   0  0  0  0  0  0  0  0  0  0  0  0
   58.0690   32.7830   45.0870 H   0  0  0  0  0  0  0  0  0  0  0  0
   57.5120   31.2210   45.7790 H   0  0  0  0  0  0  0  0  0  0  0  0
   56.5140   29.8419   42.4591 H   0  0  0  0  0  0  0  0  0  0  0  0
   57.9480   29.2224   43.3761 H   0  0  0  0  0  0  0  0  0  0  0  0
   57.7459   25.8612   45.1629 H   0  0  0  0  0  0  0  0  0  0  0  0
   59.8521   25.3256   46.3889 H   0  0  0  0  0  0  0  0  0  0  0  0
   60.9223   27.0435   47.8493 H   0  0  0  0  0  0  0  0  0  0  0  0
   59.7201   29.5242   49.3247 H   0  0  0  0  0  0  0  0  0  0  0  0
   61.1723   29.4369   48.2338 H   0  0  0  0  0  0  0  0  0  0  0  0
   62.4446   30.8998   48.5033 H   0  0  0  0  0  0  0  0  0  0  0  0
   62.5169   30.8368   46.6811 H   0  0  0  0  0  0  0  0  0  0  0  0
   63.2511   33.1596   48.5033 H   0  0  0  0  0  0  0  0  0  0  0  0
   64.3169   32.2244   47.3900 H   0  0  0  0  0  0  0  0  0  0  0  0
   63.7302   34.3770   46.3691 H   0  0  0  0  0  0  0  0  0  0  0  0
   62.9553   33.0297   45.4599 H   0  0  0  0  0  0  0  0  0  0  0  0
   61.6730   34.9288   47.4746 H   0  0  0  0  0  0  0  0  0  0  0  0
   61.2940   34.7051   45.7064 H   0  0  0  0  0  0  0  0  0  0  0  0
   57.7859   29.8532   46.8322 H   0  0  0  0  0  0  0  0  0  0  0  0
  1  2  1  0
  2  3  2  0
  2  4  1  0
  4  5  1  0
  5  6  2  0
  5  7  1  0
  7  8  1  0
  8  9  2  0
  9 10  1  0
 10 11  2  0
 11 12  1  0
 12 13  1  0
 13 14  1  0
 14 15  2  0
 15 16  1  0
 16 17  1  0
 17 18  2  0
 17 19  1  0
 19 20  2  0
 20 21  1  0
 21 22  1  0
 22 23  1  0
 23 24  1  0
 12 25  2  0
 25  8  1  0
 20 14  1  0
 24 19  1  0
  1 26  1  0
  1 27  1  0
  4 28  1  0
  4 29  1  0
  9 30  1  0
 10 31  1  0
 11 32  1  0
 13 33  1  0
 13 34  1  0
 21 35  1  0
 21 36  1  0
 22 37  1  0
 22 38  1  0
 23 39  1  0
 23 40  1  0
 24 41  1  0
 24 42  1  0
 25 43  1  0
M  CHG  2   7  -1  16  -1
M  END
>  <UniqueID>  (69) 
69

>  <SMILES>  (69) 
NC(=O)CC(=O)[N-]c1cccc(Cc2n[n-]c(=O)c3c2CCCC3)c1

>  <Energy>  (69) 
49.62963874584314

>  <Genealogy>  (69) 
NC(=O)CC(=O)[N-]c1cccc(Cc2n[n-]c(=O)c3c2CCCC3)c1 (protonated)
NC(=O)CC(=O)[N-]c1cccc(Cc2n[n-]c(=O)c3c2CCCC3)c1 (3D coordinates assigned)
NC(=O)CC(=O)[N-]c1cccc(Cc2n[n-]c(=O)c3c2CCCC3)c1 (nonaromatic ring conformer: 49.62963874584314 kcal/mol)

>  <smiles>  (69) 
NC(=O)CC(=O)Nc1cccc(Cc2n[nH]c(=O)c3c2CCCC3)c1

>  <score_type>  (69) 
oracle

>  <origin>  (69) 
adg

>  <m_score__min__energy>  (69) 
-12.210000000000001

>  <m_primary>  (69) 
energy

$$$$
69:0
     RDKit          3D

 23 24  0  0  0  0  0  0  0  0999 V2000
   60.6090   30.8380   46.4370 C   0  0  0  0  0  0  0  0  0  0  0  0
   59.6690   29.9820   46.0290 C   0  0  0  0  0  0  0  0  0  0  0  0
   59.9640   28.3530   45.7290 S   0  0  0  0  0  0  0  0  0  0  0  0
   58.3690   28.0170   45.2910 C   0  0  0  0  0  0  0  0  0  0  0  0
   57.8850   26.8360   44.8790 C   0  0  0  0  0  0  0  0  0  0  0  0
   57.2880   25.8440   45.7880 C   0  0  0  0  0  0  0  0  0  0  0  0
   57.9450   24.7560   46.2250 N   0  0  0  0  0  0  0  0  0  0  0  0
   57.0300   24.1250   46.9920 C   0  0  0  0  0  0  0  0  0  0  0  0
   57.2790   23.0490   47.5960 O   0  0  0  0  0  0  0  0  0  0  0  0
   55.8270   24.7320   47.0540 N   0  0  0  0  0  0  0  0  0  0  0  0
   55.9970   25.8140   46.2770 C   0  0  0  0  0  0  0  0  0  0  0  0
   54.9750   26.7150   45.9910 O   0  0  0  0  0  0  0  0  0  0  0  0
   57.6450   29.2080   45.3820 C   0  0  0  0  0  0  0  0  0  0  0  0
   56.4170   29.2790   45.1040 O   0  0  0  0  0  0  0  0  0  0  0  0
   58.3640   30.2970   45.7960 N   0  0  0  0  0  0  0  0  0  0  0  0
   57.7930   31.6400   45.9610 C   0  0  0  0  0  0  0  0  0  0  0  0
   60.3522   31.8925   46.6162 H   0  0  0  0  0  0  0  0  0  0  0  0
   61.6402   30.4887   46.5940 H   0  0  0  0  0  0  0  0  0  0  0  0
   57.9368   26.5964   43.8067 H   0  0  0  0  0  0  0  0  0  0  0  0
   55.1440   27.5540   45.4510 H   0  0  0  0  0  0  0  0  0  0  0  0
   57.6960   31.8681   47.0327 H   0  0  0  0  0  0  0  0  0  0  0  0
   58.4542   32.3803   45.4869 H   0  0  0  0  0  0  0  0  0  0  0  0
   56.8011   31.6775   45.4869 H   0  0  0  0  0  0  0  0  0  0  0  0
  1  2  2  0
  2  3  1  0
  3  4  1  0
  4  5  2  3
  5  6  1  0
  6  7  1  0
  7  8  1  0
  8  9  2  0
  8 10  1  0
 10 11  1  0
 11 12  1  0
  4 13  1  0
 13 14  2  0
 13 15  1  0
 15 16  1  0
 15  2  1  0
 11  6  2  0
  1 17  1  0
  1 18  1  0
  5 19  1  0
 12 20  1  0
 16 21  1  0
 16 22  1  0
 16 23  1  0
M  CHG  2   7  -1  10  -1
M  END
>  <UniqueID>  (70) 
70

>  <SMILES>  (70) 
C=c1sc(=Cc2[n-]c(=O)[n-]c2O)c(=O)n1C

>  <Energy>  (70) 
90.93547579162252

>  <Genealogy>  (70) 
C=c1sc(=Cc2[n-]c(=O)[n-]c2O)c(=O)n1C (protonated)
C=c1sc(=Cc2[n-]c(=O)[n-]c2O)c(=O)n1C (3D coordinates assigned)
C=c1sc(=Cc2[n-]c(=O)[n-]c2O)c(=O)n1C (optimized conformer: 90.93547579162252 kcal/mol)

>  <smiles>  (70) 
C=c1sc(=Cc2[nH]c(=O)[nH]c2O)c(=O)n1C

>  <score_type>  (70) 
oracle

>  <origin>  (70) 
adg

>  <m_score__min__energy>  (70) 
-10.44

>  <m_primary>  (70) 
energy

$$$$
70:0
     RDKit          3D

 59 62  0  0  0  0  0  0  0  0999 V2000
   55.2240   29.0150   44.8320 N   0  0  0  0  0  0  0  0  0  0  0  0
   56.4210   29.7890   44.7670 C   0  0  0  0  0  0  0  0  0  0  0  0
   56.3430   31.0330   44.5410 O   0  0  0  0  0  0  0  0  0  0  0  0
   57.7480   29.1640   44.9400 C   0  0  0  0  0  0  0  0  0  0  0  0
   58.8680   29.8520   44.6110 N   0  0  0  0  0  0  0  0  0  0  0  0
   60.1410   28.8920   45.0710 S   0  0  0  0  0  0  0  0  0  0  0  0
   59.3260   27.5900   45.7060 C   0  0  0  0  0  0  0  0  0  0  0  0
   59.9050   26.5170   46.5360 C   0  0  0  0  0  0  0  0  0  0  0  0
   60.1480   25.3980   46.0120 O   0  0  0  0  0  0  0  0  0  0  0  0
   60.1400   26.7020   47.9400 N   0  0  0  0  0  0  0  0  0  0  0  0
   59.9900   28.0000   48.5960 C   0  0  0  0  0  0  0  0  0  0  0  0
   60.6310   28.0130   49.9500 C   0  0  0  0  0  0  0  0  0  0  0  0
   61.1820   26.9730   50.3960 O   0  0  0  0  0  0  0  0  0  0  0  0
   60.4760   29.1490   50.8090 N   0  0  0  0  0  0  0  0  0  0  0  0
   60.1600   30.4500   50.3010 C   0  0  0  0  0  0  0  0  0  0  0  0
   60.9370   30.9910   49.2700 C   0  0  0  0  0  0  0  0  0  0  0  0
   60.6480   32.2560   48.7470 C   0  0  0  0  0  0  0  0  0  0  0  0
   61.6410   32.9230   47.4500 S   0  0  0  0  0  0  0  0  0  0  0  0
   62.5750   31.8450   46.9720 O   0  0  0  0  0  0  0  0  0  0  0  0
   62.4440   34.0870   47.9700 O   0  0  0  0  0  0  0  0  0  0  0  0
   60.6160   33.4410   46.1370 N   0  0  0  0  0  0  0  0  0  0  0  0
   59.4270   32.5790   46.0420 C   0  0  0  0  0  0  0  0  0  0  0  0
   58.5070   33.0950   44.9270 C   0  0  0  0  0  0  0  0  0  0  0  0
   58.1210   34.4370   45.1700 O   0  0  0  0  0  0  0  0  0  0  0  0
   59.2650   35.2680   45.2090 C   0  0  0  0  0  0  0  0  0  0  0  0
   60.2090   34.8410   46.3390 C   0  0  0  0  0  0  0  0  0  0  0  0
   59.5960   33.0040   49.2900 C   0  0  0  0  0  0  0  0  0  0  0  0
   58.8280   32.4790   50.3360 C   0  0  0  0  0  0  0  0  0  0  0  0
   59.0930   31.1980   50.8400 C   0  0  0  0  0  0  0  0  0  0  0  0
   58.2570   30.6460   51.8670 N   0  0  0  0  0  0  0  0  0  0  0  0
   56.8220   30.4680   51.6540 C   0  0  0  0  0  0  0  0  0  0  0  0
   56.0650   31.0660   52.8450 C   0  0  0  0  0  0  0  0  0  0  0  0
   56.5510   30.5380   54.0650 O   0  0  0  0  0  0  0  0  0  0  0  0
   57.8990   30.9290   54.2590 C   0  0  0  0  0  0  0  0  0  0  0  0
   58.7980   30.3150   53.1850 C   0  0  0  0  0  0  0  0  0  0  0  0
   57.9740   27.8980   45.5570 C   0  0  0  0  0  0  0  0  0  0  0  0
   56.7150   26.8770   46.2520 Cl  0  0  0  0  0  0  0  0  0  0  0  0
   54.3970   29.3560   45.3770 H   0  0  0  0  0  0  0  0  0  0  0  0
   60.4618   28.7723   47.9707 H   0  0  0  0  0  0  0  0  0  0  0  0
   58.9155   28.1983   48.7230 H   0  0  0  0  0  0  0  0  0  0  0  0
   61.7835   30.4157   48.8669 H   0  0  0  0  0  0  0  0  0  0  0  0
   59.7384   31.5492   45.8129 H   0  0  0  0  0  0  0  0  0  0  0  0
   58.8860   32.5947   46.9996 H   0  0  0  0  0  0  0  0  0  0  0  0
   59.0406   33.0421   43.9665 H   0  0  0  0  0  0  0  0  0  0  0  0
   57.6030   32.4689   44.8995 H   0  0  0  0  0  0  0  0  0  0  0  0
   59.7962   35.1958   44.2485 H   0  0  0  0  0  0  0  0  0  0  0  0
   58.9426   36.3038   45.3910 H   0  0  0  0  0  0  0  0  0  0  0  0
   61.1001   35.4859   46.3354 H   0  0  0  0  0  0  0  0  0  0  0  0
   59.6908   34.9361   47.3046 H   0  0  0  0  0  0  0  0  0  0  0  0
   59.3728   34.0057   48.8940 H   0  0  0  0  0  0  0  0  0  0  0  0
   58.0103   33.0762   50.7658 H   0  0  0  0  0  0  0  0  0  0  0  0
   56.5196   30.9810   50.7291 H   0  0  0  0  0  0  0  0  0  0  0  0
   56.5888   29.3968   51.5642 H   0  0  0  0  0  0  0  0  0  0  0  0
   56.1984   32.1579   52.8458 H   0  0  0  0  0  0  0  0  0  0  0  0
   54.9992   30.8109   52.7498 H   0  0  0  0  0  0  0  0  0  0  0  0
   57.9686   32.0255   54.2050 H   0  0  0  0  0  0  0  0  0  0  0  0
   58.2324   30.5744   55.2454 H   0  0  0  0  0  0  0  0  0  0  0  0
   59.8158   30.7216   53.2789 H   0  0  0  0  0  0  0  0  0  0  0  0
   58.8336   29.2226   53.3092 H   0  0  0  0  0  0  0  0  0  0  0  0
  1  2  1  0
  2  3  2  0
  2  4  1  0
  4  5  2  0
  5  6  1  0
  6  7  1  0
  7  8  1  0
  8  9  2  0
  8 10  1  0
 10 11  1  0
 11 12  1  0
 12 13  2  0
 12 14  1  0
 14 15  1  0
 15 16  2  0
 16 17  1  0
 17 18  1  0
 18 19  2  0
 18 20  2  0
 18 21  1  0
 21 22  1  0
 22 23  1  0
 23 24  1  0
 24 25  1  0
 25 26  1  0
 17 27  2  0
 27 28  1  0
 28 29  2  0
 29 30  1  0
 30 31  1  0
 31 32  1  0
 32 33  1  0
 33 34  1  0
 34 35  1  0
  7 36  2  0
 36 37  1  0
 36  4  1  0
 29 15  1  0
 35 30  1  0
 26 21  1  0
  1 38  1  0
 11 39  1  0
 11 40  1  0
 16 41  1  0
 22 42  1  0
 22 43  1  0
 23 44  1  0
 23 45  1  0
 25 46  1  0
 25 47  1  0
 26 48  1  0
 26 49  1  0
 27 50  1  0
 28 51  1  0
 31 52  1  0
 31 53  1  0
 32 54  1  0
 32 55  1  0
 34 56  1  0
 34 57  1  0
 35 58  1  0
 35 59  1  0
M  CHG  3   1  -1  10  -1  14  -1
M  END
>  <UniqueID>  (71) 
71

>  <SMILES>  (71) 
[NH-]C(=O)c1nsc(C(=O)[N-]CC(=O)[N-]c2cc(S(=O)(=O)N3CCOCC3)ccc2N2CCOCC2)c1Cl

>  <Energy>  (71) 
112.73752519871893

>  <Genealogy>  (71) 
[NH-]C(=O)c1nsc(C(=O)[N-]CC(=O)[N-]c2cc(S(=O)(=O)N3CCOCC3)ccc2N2CCOCC2)c1Cl (protonated)
[NH-]C(=O)c1nsc(C(=O)[N-]CC(=O)[N-]c2cc(S(=O)(=O)N3CCOCC3)ccc2N2CCOCC2)c1Cl (3D coordinates assigned)
[NH-]C(=O)c1nsc(C(=O)[N-]CC(=O)[N-]c2cc(S(=O)(=O)N3CCOCC3)ccc2N2CCOCC2)c1Cl (nonaromatic ring conformer: 112.73752519871893 kcal/mol)

>  <smiles>  (71) 
NC(=O)c1nsc(C(=O)NCC(=O)Nc2cc(S(=O)(=O)N3CCOCC3)ccc2N2CCOCC2)c1Cl

>  <score_type>  (71) 
oracle

>  <origin>  (71) 
adg

>  <m_score__min__energy>  (71) 
-13.94

>  <m_primary>  (71) 
energy

$$$$
71:0
     RDKit          3D

 46 48  0  0  0  0  0  0  0  0999 V2000
   60.3870   28.3610   49.1840 C   0  0  0  0  0  0  0  0  0  0  0  0
   59.8870   29.1340   50.3990 C   0  0  0  0  0  0  0  0  0  0  0  0
   59.5380   30.5380   50.0210 C   0  0  0  0  0  0  0  0  0  0  0  0
   60.3960   31.3950   49.4340 N   0  0  0  0  0  0  0  0  0  0  0  0
   59.6150   32.4850   49.2840 C   0  0  0  0  0  0  0  0  0  0  0  0
   60.0800   33.7520   48.6190 C   0  0  1  0  0  0  0  0  0  0  0  0
   61.4030   34.2280   49.2190 C   0  0  0  0  0  0  0  0  0  0  0  0
   62.4830   33.7300   48.2630 C   0  0  0  0  0  0  0  0  0  0  0  0
   61.7910   33.5600   46.9160 C   0  0  0  0  0  0  0  0  0  0  0  0
   60.3650   33.5170   47.2090 N   0  0  0  0  0  0  0  0  0  0  0  0
   59.3510   33.1660   46.2450 C   0  0  0  0  0  0  0  0  0  0  0  0
   58.7340   34.0780   45.6290 O   0  0  0  0  0  0  0  0  0  0  0  0
   58.9950   31.7610   45.9710 C   0  0  0  0  0  0  0  0  0  0  0  0
   59.8380   30.7210   46.3720 C   0  0  0  0  0  0  0  0  0  0  0  0
   59.5010   29.3960   46.0980 C   0  0  0  0  0  0  0  0  0  0  0  0
   58.3230   29.0800   45.4010 C   0  0  0  0  0  0  0  0  0  0  0  0
   57.9130   27.3650   45.1890 S   0  0  0  0  0  0  0  0  0  0  0  0
   57.9910   26.9020   43.4700 C   0  0  0  0  0  0  0  0  0  0  0  0
   56.5060   27.1160   45.6570 O   0  0  0  0  0  0  0  0  0  0  0  0
   58.8390   26.5050   46.0020 O   0  0  0  0  0  0  0  0  0  0  0  0
   57.4850   30.1350   44.9500 C   0  0  0  0  0  0  0  0  0  0  0  0
   56.2540   29.9060   44.1610 C   0  0  0  0  0  0  0  0  0  0  0  0
   55.1060   29.3360   44.7840 N   0  0  0  0  0  0  0  0  0  0  0  0
   56.1910   30.2540   42.9520 O   0  0  0  0  0  0  0  0  0  0  0  0
   57.8330   31.4640   45.2500 C   0  0  0  0  0  0  0  0  0  0  0  0
   58.3580   32.2880   49.7300 N   0  0  0  0  0  0  0  0  0  0  0  0
   58.3530   31.0710   50.1810 O   0  0  0  0  0  0  0  0  0  0  0  0
   60.9562   27.4810   49.5181 H   0  0  0  0  0  0  0  0  0  0  0  0
   59.5287   28.0343   48.5786 H   0  0  0  0  0  0  0  0  0  0  0  0
   61.0369   29.0099   48.5786 H   0  0  0  0  0  0  0  0  0  0  0  0
   58.9934   28.6352   50.8024 H   0  0  0  0  0  0  0  0  0  0  0  0
   60.6836   29.1579   51.1572 H   0  0  0  0  0  0  0  0  0  0  0  0
   59.2773   34.4907   48.7608 H   0  0  0  0  0  0  0  0  0  0  0  0
   61.4232   35.3259   49.2844 H   0  0  0  0  0  0  0  0  0  0  0  0
   61.5511   33.8448   50.2394 H   0  0  0  0  0  0  0  0  0  0  0  0
   63.2970   34.4659   48.1864 H   0  0  0  0  0  0  0  0  0  0  0  0
   62.9325   32.7884   48.6115 H   0  0  0  0  0  0  0  0  0  0  0  0
   62.0217   34.4094   46.2562 H   0  0  0  0  0  0  0  0  0  0  0  0
   62.1271   32.6493   46.3986 H   0  0  0  0  0  0  0  0  0  0  0  0
   60.7721   30.9488   46.9065 H   0  0  0  0  0  0  0  0  0  0  0  0
   60.1669   28.5868   46.4323 H   0  0  0  0  0  0  0  0  0  0  0  0
   58.1733   25.8202   43.3896 H   0  0  0  0  0  0  0  0  0  0  0  0
   57.0383   27.1508   42.9797 H   0  0  0  0  0  0  0  0  0  0  0  0
   58.8096   27.4492   42.9797 H   0  0  0  0  0  0  0  0  0  0  0  0
   55.2020   28.7050   45.6100 H   0  0  0  0  0  0  0  0  0  0  0  0
   57.1813   32.2834   44.9125 H   0  0  0  0  0  0  0  0  0  0  0  0
  1  2  1  0
  2  3  1  0
  3  4  2  0
  4  5  1  0
  5  6  1  0
  6  7  1  0
  7  8  1  0
  8  9  1  0
  9 10  1  0
 10 11  1  0
 11 12  2  0
 11 13  1  0
 13 14  2  0
 14 15  1  0
 15 16  2  0
 16 17  1  0
 17 18  1  0
 17 19  2  0
 17 20  2  0
 16 21  1  0
 21 22  1  0
 22 23  1  0
 22 24  2  0
 21 25  2  0
  5 26  2  0
 26 27  1  0
 27  3  1  0
 10  6  1  0
 25 13  1  0
  1 28  1  0
  1 29  1  0
  1 30  1  0
  2 31  1  0
  2 32  1  0
  6 33  1  6
  7 34  1  0
  7 35  1  0
  8 36  1  0
  8 37  1  0
  9 38  1  0
  9 39  1  0
 14 40  1  0
 15 41  1  0
 18 42  1  0
 18 43  1  0
 18 44  1  0
 23 45  1  0
 25 46  1  0
M  CHG  1  23  -1
M  END
>  <UniqueID>  (72) 
72

>  <SMILES>  (72) 
CCc1nc([C@H]2CCCN2C(=O)c2ccc(S(C)(=O)=O)c(C([NH-])=O)c2)no1

>  <Energy>  (72) 
84.68962489500846

>  <Genealogy>  (72) 
CCc1nc(C2CCCN2C(=O)c2ccc(S(C)(=O)=O)c(C([NH-])=O)c2)no1 (protonated)
CCc1nc([C@H]2CCCN2C(=O)c2ccc(S(C)(=O)=O)c(C([NH-])=O)c2)no1 (chirality)
CCc1nc([C@H]2CCCN2C(=O)c2ccc(S(C)(=O)=O)c(C([NH-])=O)c2)no1 (3D coordinates assigned)
CCc1nc([C@H]2CCCN2C(=O)c2ccc(S(C)(=O)=O)c(C([NH-])=O)c2)no1 (nonaromatic ring conformer: 84.68962489500846 kcal/mol)

>  <smiles>  (72) 
CCc1nc(C2CCCN2C(=O)c2ccc(S(C)(=O)=O)c(C(N)=O)c2)no1

>  <score_type>  (72) 
oracle

>  <origin>  (72) 
adg

>  <m_score__min__energy>  (72) 
-11.85

>  <m_primary>  (72) 
energy

$$$$
72:0
     RDKit          3D

 46 48  0  0  0  0  0  0  0  0999 V2000
   56.6420   19.4920   43.4670 H   0  0  0  0  0  0  0  0  0  0  0  0
   56.1840   20.3860   43.1750 N   0  0  0  0  0  0  0  0  0  0  0  0
   56.4890   21.5140   43.7270 C   0  0  0  0  0  0  0  0  0  0  0  0
   55.5090   22.3500   44.1620 N   0  0  0  0  0  0  0  0  0  0  0  0
   55.7780   23.5490   44.7480 C   0  0  0  0  0  0  0  0  0  0  0  0
   54.6240   24.4110   45.1730 C   0  0  0  0  0  0  0  0  0  0  0  0
   54.5774   24.4458   46.2715 H   0  0  0  0  0  0  0  0  0  0  0  0
   54.7622   25.4288   44.7794 H   0  0  0  0  0  0  0  0  0  0  0  0
   53.6872   23.9897   44.7794 H   0  0  0  0  0  0  0  0  0  0  0  0
   57.1240   23.9450   44.9390 C   0  0  0  0  0  0  0  0  0  0  0  0
   57.4910   25.2200   45.5930 C   0  0  0  0  0  0  0  0  0  0  0  0
   57.9950   25.2320   46.9000 C   0  0  0  0  0  0  0  0  0  0  0  0
   58.0894   24.2936   47.4660 H   0  0  0  0  0  0  0  0  0  0  0  0
   58.3760   26.4420   47.4780 C   0  0  0  0  0  0  0  0  0  0  0  0
   58.7638   26.4610   48.5072 H   0  0  0  0  0  0  0  0  0  0  0  0
   58.2690   27.5980   46.7720 N   0  0  0  0  0  0  0  0  0  0  0  0
   57.7850   27.6330   45.5020 C   0  0  0  0  0  0  0  0  0  0  0  0
   57.7660   28.7770   44.8800 N   0  0  0  0  0  0  0  0  0  0  0  0
   56.6710   29.7010   44.7910 C   0  0  0  0  0  0  0  0  0  0  0  0
   55.5100   29.3350   45.1120 O   0  0  0  0  0  0  0  0  0  0  0  0
   56.8960   31.1120   44.4110 C   0  0  0  0  0  0  0  0  0  0  0  0
   56.0119   31.7601   44.3196 H   0  0  0  0  0  0  0  0  0  0  0  0
   58.0950   31.6630   44.1690 C   0  0  0  0  0  0  0  0  0  0  0  0
   58.6695   31.2938   43.3066 H   0  0  0  0  0  0  0  0  0  0  0  0
   58.6890   32.7350   44.9910 C   0  0  0  0  0  0  0  0  0  0  0  0
   58.6140   34.0550   44.5210 C   0  0  0  0  0  0  0  0  0  0  0  0
   58.1609   34.2612   43.5401 H   0  0  0  0  0  0  0  0  0  0  0  0
   59.1110   35.1080   45.2910 C   0  0  0  0  0  0  0  0  0  0  0  0
   59.0420   36.1412   44.9198 H   0  0  0  0  0  0  0  0  0  0  0  0
   59.6950   34.8500   46.5310 C   0  0  0  0  0  0  0  0  0  0  0  0
   60.0773   35.6820   47.1407 H   0  0  0  0  0  0  0  0  0  0  0  0
   59.7960   33.5390   47.0010 C   0  0  0  0  0  0  0  0  0  0  0  0
   60.2648   33.3438   47.9768 H   0  0  0  0  0  0  0  0  0  0  0  0
   59.3040   32.4680   46.2380 C   0  0  0  0  0  0  0  0  0  0  0  0
   59.4930   30.8120   46.8390 S   0  0  0  0  0  0  0  0  0  0  0  0
   58.1620   30.3100   47.3260 O   0  0  0  0  0  0  0  0  0  0  0  0
   60.4810   30.7860   47.9710 O   0  0  0  0  0  0  0  0  0  0  0  0
   60.0540   29.7620   45.5850 N   0  0  0  0  0  0  0  0  0  0  0  0
   59.7410   28.7960   45.8300 H   0  0  0  0  0  0  0  0  0  0  0  0
   59.5440   30.0270   44.7130 H   0  0  0  0  0  0  0  0  0  0  0  0
   57.3890   26.4270   44.8870 C   0  0  0  0  0  0  0  0  0  0  0  0
   57.0016   26.4334   43.8575 H   0  0  0  0  0  0  0  0  0  0  0  0
   58.1430   23.0970   44.4780 C   0  0  0  0  0  0  0  0  0  0  0  0
   59.1957   23.3942   44.5939 H   0  0  0  0  0  0  0  0  0  0  0  0
   57.8290   21.8800   43.8740 C   0  0  0  0  0  0  0  0  0  0  0  0
   58.6288   21.2146   43.5168 H   0  0  0  0  0  0  0  0  0  0  0  0
  1  2  1  0
  2  3  2  0
  3  4  1  0
  4  5  1  0
  5  6  1  0
  6  7  1  0
  6  8  1  0
  6  9  1  0
  5 10  2  0
 10 11  1  0
 11 12  1  0
 12 13  1  0
 12 14  2  0
 14 15  1  0
 14 16  1  0
 16 17  1  0
 17 18  2  3
 18 19  1  0
 19 20  2  0
 19 21  1  0
 21 22  1  0
 21 23  2  3
 23 24  1  0
 23 25  1  0
 25 26  2  0
 26 27  1  0
 26 28  1  0
 28 29  1  0
 28 30  2  0
 30 31  1  0
 30 32  1  0
 32 33  1  0
 32 34  2  0
 34 35  1  0
 35 36  2  0
 35 37  2  0
 35 38  1  0
 38 39  1  0
 38 40  1  0
 17 41  1  0
 41 42  1  0
 10 43  1  0
 43 44  1  0
 43 45  2  0
 45 46  1  0
 45  3  1  0
 41 11  2  0
 34 25  1  0
M  CHG  2   4  -1  16  -1
M  END
>  <UniqueID>  (73) 
73

>  <SMILES>  (73) 
[H]/N=c1/ccc(-c2cc[n-]c(=NC(=O)C=Cc3ccccc3S(N)(=O)=O)c2)c(C)[n-]1

>  <Energy>  (73) 
70.13524593807605

>  <Genealogy>  (73) 
Cc1[n-]c(=N)ccc1-c1cc[n-]c(=NC(=O)C=Cc2ccccc2S(N)(=O)=O)c1 (protonated)
[H]/N=c1/ccc(-c2cc[n-]c(=NC(=O)C=Cc3ccccc3S(N)(=O)=O)c2)c(C)[n-]1 (cis-trans isomerization)
[H]/N=c1/ccc(-c2cc[n-]c(=NC(=O)C=Cc3ccccc3S(N)(=O)=O)c2)c(C)[n-]1 (3D coordinates assigned)
[H]/N=c1/ccc(-c2cc[n-]c(=NC(=O)C=Cc3ccccc3S(N)(=O)=O)c2)c(C)[n-]1 (optimized conformer: 70.13524593807605 kcal/mol)

>  <smiles>  (73) 
Cc1[nH]c(=N)ccc1-c1cc[nH]c(=NC(=O)C=Cc2ccccc2S(N)(=O)=O)c1

>  <score_type>  (73) 
oracle

>  <origin>  (73) 
adg

>  <m_score__min__energy>  (73) 
-11.539999999999999

>  <m_primary>  (73) 
energy

$$$$
73:0
     RDKit          3D

 46 49  0  0  0  0  0  0  0  0999 V2000
   51.0200   32.3090   50.2730 N   0  0  0  0  0  0  0  0  0  0  0  0
   51.0470   32.2420   51.6980 C   0  0  0  0  0  0  0  0  0  0  0  0
   50.1780   32.8730   52.3580 O   0  0  0  0  0  0  0  0  0  0  0  0
   52.0820   31.4410   52.3960 C   0  0  0  0  0  0  0  0  0  0  0  0
   51.7540   30.7120   53.5520 C   0  0  0  0  0  0  0  0  0  0  0  0
   52.7260   29.9580   54.2110 C   0  0  0  0  0  0  0  0  0  0  0  0
   54.0350   29.9210   53.7280 C   0  0  0  0  0  0  0  0  0  0  0  0
   54.3880   30.6400   52.5760 C   0  0  0  0  0  0  0  0  0  0  0  0
   55.7850   30.5860   52.0830 C   0  0  0  0  0  0  0  0  0  0  0  0
   56.5660   31.6370   51.6380 C   0  0  0  0  0  0  0  0  0  0  0  0
   57.7680   31.0390   51.2990 C   0  0  0  0  0  0  0  0  0  0  0  0
   58.9810   31.7030   50.7620 C   0  0  0  0  0  0  0  0  0  0  0  0
   60.0490   32.0660   51.6030 C   0  0  0  0  0  0  0  0  0  0  0  0
   61.1820   32.6920   51.0790 C   0  0  0  0  0  0  0  0  0  0  0  0
   61.2680   32.9600   49.7120 C   0  0  0  0  0  0  0  0  0  0  0  0
   60.2190   32.5990   48.8530 C   0  0  0  0  0  0  0  0  0  0  0  0
   60.3140   32.8830   47.3680 C   0  0  0  0  0  0  0  0  0  0  0  0
   59.0090   32.8800   46.6710 N   0  0  0  0  0  0  0  0  0  0  0  0
   58.7950   34.0780   45.8370 C   0  0  0  0  0  0  0  0  0  0  0  0
   57.3100   34.1850   45.4860 C   0  0  0  0  0  0  0  0  0  0  0  0
   56.8210   32.9310   44.9230 N   0  0  0  0  0  0  0  0  0  0  0  0
   57.4220   31.6750   45.2490 C   0  0  0  0  0  0  0  0  0  0  0  0
   56.8610   30.6050   44.8970 O   0  0  0  0  0  0  0  0  0  0  0  0
   58.7720   31.6390   45.9040 C   0  0  0  0  0  0  0  0  0  0  0  0
   59.0760   31.9800   49.3860 C   0  0  0  0  0  0  0  0  0  0  0  0
   57.6830   29.7150   51.5370 N   0  0  0  0  0  0  0  0  0  0  0  0
   56.4910   29.4820   52.0020 O   0  0  0  0  0  0  0  0  0  0  0  0
   53.4040   31.4000   51.9150 C   0  0  0  0  0  0  0  0  0  0  0  0
   50.1150   32.3290   49.7530 H   0  0  0  0  0  0  0  0  0  0  0  0
   50.7249   30.7359   53.9397 H   0  0  0  0  0  0  0  0  0  0  0  0
   52.4594   29.3905   55.1148 H   0  0  0  0  0  0  0  0  0  0  0  0
   54.7948   29.3243   54.2539 H   0  0  0  0  0  0  0  0  0  0  0  0
   56.2952   32.7009   51.5693 H   0  0  0  0  0  0  0  0  0  0  0  0
   59.9911   31.8552   52.6811 H   0  0  0  0  0  0  0  0  0  0  0  0
   62.0097   32.9749   51.7460 H   0  0  0  0  0  0  0  0  0  0  0  0
   62.1619   33.4563   49.3064 H   0  0  0  0  0  0  0  0  0  0  0  0
   60.7758   33.8723   47.2337 H   0  0  0  0  0  0  0  0  0  0  0  0
   60.9130   32.0730   46.9263 H   0  0  0  0  0  0  0  0  0  0  0  0
   59.1076   34.9743   46.3928 H   0  0  0  0  0  0  0  0  0  0  0  0
   59.3889   33.9982   44.9146 H   0  0  0  0  0  0  0  0  0  0  0  0
   56.7396   34.4184   46.3971 H   0  0  0  0  0  0  0  0  0  0  0  0
   57.1799   34.9822   44.7393 H   0  0  0  0  0  0  0  0  0  0  0  0
   58.8205   30.7772   46.5859 H   0  0  0  0  0  0  0  0  0  0  0  0
   59.5431   31.5500   45.1246 H   0  0  0  0  0  0  0  0  0  0  0  0
   58.2446   31.7084   48.7188 H   0  0  0  0  0  0  0  0  0  0  0  0
   53.6717   31.9683   51.0121 H   0  0  0  0  0  0  0  0  0  0  0  0
  1  2  1  0
  2  3  2  0
  2  4  1  0
  4  5  2  0
  5  6  1  0
  6  7  2  0
  7  8  1  0
  8  9  1  0
  9 10  2  0
 10 11  1  0
 11 12  1  0
 12 13  2  0
 13 14  1  0
 14 15  2  0
 15 16  1  0
 16 17  1  0
 17 18  1  0
 18 19  1  0
 19 20  1  0
 20 21  1  0
 21 22  1  0
 22 23  2  0
 22 24  1  0
 16 25  2  0
 11 26  2  0
 26 27  1  0
  8 28  2  0
 28  4  1  0
 27  9  1  0
 25 12  1  0
 24 18  1  0
  1 29  1  0
  5 30  1  0
  6 31  1  0
  7 32  1  0
 10 33  1  0
 13 34  1  0
 14 35  1  0
 15 36  1  0
 17 37  1  0
 17 38  1  0
 19 39  1  0
 19 40  1  0
 20 41  1  0
 20 42  1  0
 24 43  1  0
 24 44  1  0
 25 45  1  0
 28 46  1  0
M  CHG  2   1  -1  21  -1
M  END
>  <UniqueID>  (74) 
74

>  <SMILES>  (74) 
[NH-]C(=O)c1cccc(-c2cc(-c3cccc(CN4CC[N-]C(=O)C4)c3)no2)c1

>  <Energy>  (74) 
86.40756033895404

>  <Genealogy>  (74) 
[NH-]C(=O)c1cccc(-c2cc(-c3cccc(CN4CC[N-]C(=O)C4)c3)no2)c1 (protonated)
[NH-]C(=O)c1cccc(-c2cc(-c3cccc(CN4CC[N-]C(=O)C4)c3)no2)c1 (3D coordinates assigned)
[NH-]C(=O)c1cccc(-c2cc(-c3cccc(CN4CC[N-]C(=O)C4)c3)no2)c1 (nonaromatic ring conformer: 86.40756033895404 kcal/mol)

>  <smiles>  (74) 
NC(=O)c1cccc(-c2cc(-c3cccc(CN4CCNC(=O)C4)c3)no2)c1

>  <score_type>  (74) 
oracle

>  <origin>  (74) 
adg

>  <m_score__min__energy>  (74) 
-14.82

>  <m_primary>  (74) 
energy

$$$$
74:0
     RDKit          3D

 56 59  0  0  0  0  0  0  0  0999 V2000
   58.7846   34.8647   49.0792 H   0  0  0  0  0  0  0  0  0  0  0  0
   59.4920   34.5520   48.2970 C   0  0  0  0  0  0  0  0  0  0  0  0
   60.7950   34.5130   48.6020 C   0  0  0  0  0  0  0  0  0  0  0  0
   61.4929   35.1767   48.0706 H   0  0  0  0  0  0  0  0  0  0  0  0
   61.3250   33.5780   49.6590 C   0  0  0  0  0  0  0  0  0  0  0  0
   60.6486   33.6031   50.5261 H   0  0  0  0  0  0  0  0  0  0  0  0
   62.3364   33.9137   49.9317 H   0  0  0  0  0  0  0  0  0  0  0  0
   61.4240   32.1810   49.1700 N   0  0  0  0  0  0  0  0  0  0  0  0
   62.2550   31.7360   49.6320 H   0  0  0  0  0  0  0  0  0  0  0  0
   61.7160   32.1890   47.7150 C   0  0  0  0  0  0  0  0  0  0  0  0
   62.7639   32.4876   47.5639 H   0  0  0  0  0  0  0  0  0  0  0  0
   61.0285   32.8994   47.2325 H   0  0  0  0  0  0  0  0  0  0  0  0
   61.4970   30.8100   47.0820 C   0  0  0  0  0  0  0  0  0  0  0  0
   62.1915   30.0879   47.5362 H   0  0  0  0  0  0  0  0  0  0  0  0
   61.6804   30.8802   45.9997 H   0  0  0  0  0  0  0  0  0  0  0  0
   60.1170   30.3600   47.3040 N   0  0  0  0  0  0  0  0  0  0  0  0
   59.5310   29.3600   46.4430 C   0  0  0  0  0  0  0  0  0  0  0  0
   58.5650   29.7210   45.4850 C   0  0  0  0  0  0  0  0  0  0  0  0
   58.2562   30.7726   45.3914 H   0  0  0  0  0  0  0  0  0  0  0  0
   57.9950   28.7550   44.6520 C   0  0  0  0  0  0  0  0  0  0  0  0
   57.2478   29.0523   43.9015 H   0  0  0  0  0  0  0  0  0  0  0  0
   58.3700   27.4080   44.7670 C   0  0  0  0  0  0  0  0  0  0  0  0
   57.7820   26.3700   43.8460 C   0  0  0  0  0  0  0  0  0  0  0  0
   58.5940   25.9168   43.2583 H   0  0  0  0  0  0  0  0  0  0  0  0
   57.0494   26.8707   43.1959 H   0  0  0  0  0  0  0  0  0  0  0  0
   57.0630   25.2810   44.6020 C   0  0  0  0  0  0  0  0  0  0  0  0
   56.4260   25.5570   45.6550 O   0  0  0  0  0  0  0  0  0  0  0  0
   57.1370   23.8760   44.1620 C   0  0  0  0  0  0  0  0  0  0  0  0
   58.2450   22.7450   44.7310 S   0  0  0  0  0  0  0  0  0  0  0  0
   57.7110   21.4620   43.7850 C   0  0  0  0  0  0  0  0  0  0  0  0
   58.1274   20.4438   43.7849 H   0  0  0  0  0  0  0  0  0  0  0  0
   56.6540   21.9090   43.0040 C   0  0  0  0  0  0  0  0  0  0  0  0
   56.1194   21.2652   42.2901 H   0  0  0  0  0  0  0  0  0  0  0  0
   56.3320   23.2560   43.2100 C   0  0  0  0  0  0  0  0  0  0  0  0
   55.5232   23.7732   42.6730 H   0  0  0  0  0  0  0  0  0  0  0  0
   59.3400   27.0430   45.7120 C   0  0  0  0  0  0  0  0  0  0  0  0
   59.6538   25.9921   45.7967 H   0  0  0  0  0  0  0  0  0  0  0  0
   59.9100   28.0090   46.5470 C   0  0  0  0  0  0  0  0  0  0  0  0
   60.6618   27.7099   47.2922 H   0  0  0  0  0  0  0  0  0  0  0  0
   59.3210   31.0140   48.3490 C   0  0  0  0  0  0  0  0  0  0  0  0
   58.5283   30.3293   48.6850 H   0  0  0  0  0  0  0  0  0  0  0  0
   58.8732   31.9318   47.9401 H   0  0  0  0  0  0  0  0  0  0  0  0
   60.2170   31.3790   49.5420 C   0  0  0  0  0  0  0  0  0  0  0  0
   60.5539   30.4474   50.0200 H   0  0  0  0  0  0  0  0  0  0  0  0
   59.6129   32.0045   50.2157 H   0  0  0  0  0  0  0  0  0  0  0  0
   58.9490   34.1970   46.9630 C   0  0  0  0  0  0  0  0  0  0  0  0
   57.7530   33.4610   46.8960 C   0  0  0  0  0  0  0  0  0  0  0  0
   57.2412   33.1661   47.8240 H   0  0  0  0  0  0  0  0  0  0  0  0
   57.2090   33.1010   45.6600 C   0  0  0  0  0  0  0  0  0  0  0  0
   56.2682   32.5325   45.6187 H   0  0  0  0  0  0  0  0  0  0  0  0
   57.8580   33.4620   44.4770 C   0  0  0  0  0  0  0  0  0  0  0  0
   57.4248   33.1840   43.5048 H   0  0  0  0  0  0  0  0  0  0  0  0
   59.0570   34.1760   44.5290 C   0  0  0  0  0  0  0  0  0  0  0  0
   59.5721   34.4514   43.5969 H   0  0  0  0  0  0  0  0  0  0  0  0
   59.6050   34.5420   45.7630 C   0  0  0  0  0  0  0  0  0  0  0  0
   60.5516   35.1013   45.7976 H   0  0  0  0  0  0  0  0  0  0  0  0
  1  2  1  0
  2  3  2  0
  3  4  1  0
  3  5  1  0
  5  6  1  0
  5  7  1  0
  5  8  1  0
  8  9  1  0
  8 10  1  0
 10 11  1  0
 10 12  1  0
 10 13  1  0
 13 14  1  0
 13 15  1  0
 13 16  1  0
 16 17  1  0
 17 18  2  0
 18 19  1  0
 18 20  1  0
 20 21  1  0
 20 22  2  0
 22 23  1  0
 23 24  1  0
 23 25  1  0
 23 26  1  0
 26 27  2  0
 26 28  1  0
 28 29  1  0
 29 30  1  0
 30 31  1  0
 30 32  2  0
 32 33  1  0
 32 34  1  0
 34 35  1  0
 22 36  1  0
 36 37  1  0
 36 38  2  0
 38 39  1  0
 16 40  1  0
 40 41  1  0
 40 42  1  0
 40 43  1  0
 43 44  1  0
 43 45  1  0
  2 46  1  0
 46 47  2  0
 47 48  1  0
 47 49  1  0
 49 50  1  0
 49 51  2  0
 51 52  1  0
 51 53  1  0
 53 54  1  0
 53 55  2  0
 55 56  1  0
 43  8  1  0
 55 46  1  0
 38 17  1  0
 34 28  2  0
M  CHG  1   8   1
M  END
>  <UniqueID>  (75) 
75

>  <SMILES>  (75) 
O=C(Cc1ccc(N2CC[NH+](C/C=C/c3ccccc3)CC2)cc1)c1cccs1

>  <Energy>  (75) 
96.65196028815267

>  <Genealogy>  (75) 
O=C(Cc1ccc(N2CC[NH+](CC=Cc3ccccc3)CC2)cc1)c1cccs1 (protonated)
O=C(Cc1ccc(N2CC[NH+](C/C=C/c3ccccc3)CC2)cc1)c1cccs1 (cis-trans isomerization)
O=C(Cc1ccc(N2CC[NH+](C/C=C/c3ccccc3)CC2)cc1)c1cccs1 (3D coordinates assigned)
O=C(Cc1ccc(N2CC[NH+](C/C=C/c3ccccc3)CC2)cc1)c1cccs1 (nonaromatic ring conformer: 96.65196028815267 kcal/mol)

>  <smiles>  (75) 
O=C(Cc1ccc(N2CCN(CC=Cc3ccccc3)CC2)cc1)c1cccs1

>  <score_type>  (75) 
oracle

>  <origin>  (75) 
adg

>  <m_score__min__energy>  (75) 
-7.2199999999999998

>  <m_primary>  (75) 
energy

$$$$
75:0
     RDKit          3D

 46 48  0  0  0  0  0  0  0  0999 V2000
   59.5500   34.6730   47.8380 C   0  0  0  0  0  0  0  0  0  0  0  0
   60.2930   33.4480   48.1150 N   0  0  0  0  0  0  0  0  0  0  0  0
   60.6470   32.5880   47.1730 N   0  0  0  0  0  0  0  0  0  0  0  0
   61.2430   31.5420   47.7760 C   0  0  0  0  0  0  0  0  0  0  0  0
   61.2550   31.7370   49.1440 C   0  0  0  0  0  0  0  0  0  0  0  0
   60.6440   32.9630   49.3260 C   0  0  0  0  0  0  0  0  0  0  0  0
   60.3900   33.6400   50.6550 C   0  0  0  0  0  0  0  0  0  0  0  0
   59.0440   33.3680   51.2070 N   0  0  0  0  0  0  0  0  0  0  0  0
   59.0720   32.8930   52.6080 C   0  0  0  0  0  0  0  0  0  0  0  0
   57.6870   32.4280   53.0660 C   0  0  0  0  0  0  0  0  0  0  0  0
   57.1920   31.3650   52.1830 N   0  0  0  0  0  0  0  0  0  0  0  0
   56.3830   30.2940   52.7050 C   0  0  0  0  0  0  0  0  0  0  0  0
   56.6460   29.1050   52.3810 O   0  0  0  0  0  0  0  0  0  0  0  0
   55.2580   30.5360   53.5600 N   0  0  0  0  0  0  0  0  0  0  0  0
   54.0010   29.8030   53.5280 C   0  0  0  0  0  0  0  0  0  0  0  0
   53.1090   30.3940   52.4740 C   0  0  0  0  0  0  0  0  0  0  0  0
   53.0140   29.7930   51.2090 C   0  0  0  0  0  0  0  0  0  0  0  0
   52.1590   30.3250   50.2390 C   0  0  0  0  0  0  0  0  0  0  0  0
   51.3810   31.4530   50.5250 C   0  0  0  0  0  0  0  0  0  0  0  0
   50.5370   31.9630   49.5390 O   0  0  0  0  0  0  0  0  0  0  0  0
   51.4600   32.0490   51.7940 C   0  0  0  0  0  0  0  0  0  0  0  0
   50.6900   33.1650   52.1000 O   0  0  0  0  0  0  0  0  0  0  0  0
   52.3170   31.5170   52.7650 C   0  0  0  0  0  0  0  0  0  0  0  0
   57.7560   31.2350   50.8350 C   0  0  0  0  0  0  0  0  0  0  0  0
   58.1510   32.6140   50.2910 C   0  0  0  0  0  0  0  0  0  0  0  0
   59.2612   35.1491   48.7866 H   0  0  0  0  0  0  0  0  0  0  0  0
   60.1823   35.3624   47.2593 H   0  0  0  0  0  0  0  0  0  0  0  0
   58.6464   34.4309   47.2593 H   0  0  0  0  0  0  0  0  0  0  0  0
   61.6577   30.6647   47.2579 H   0  0  0  0  0  0  0  0  0  0  0  0
   61.6604   31.0661   49.9157 H   0  0  0  0  0  0  0  0  0  0  0  0
   61.1407   33.2845   51.3762 H   0  0  0  0  0  0  0  0  0  0  0  0
   60.4572   34.7246   50.4843 H   0  0  0  0  0  0  0  0  0  0  0  0
   59.7766   32.0520   52.6871 H   0  0  0  0  0  0  0  0  0  0  0  0
   59.3881   33.7276   53.2511 H   0  0  0  0  0  0  0  0  0  0  0  0
   57.7543   32.0441   54.0946 H   0  0  0  0  0  0  0  0  0  0  0  0
   56.9915   33.2794   53.0279 H   0  0  0  0  0  0  0  0  0  0  0  0
   54.1975   28.7465   53.2930 H   0  0  0  0  0  0  0  0  0  0  0  0
   53.5086   29.8726   54.5092 H   0  0  0  0  0  0  0  0  0  0  0  0
   53.6144   28.9002   50.9800 H   0  0  0  0  0  0  0  0  0  0  0  0
   52.0974   29.8549   49.2464 H   0  0  0  0  0  0  0  0  0  0  0  0
   49.9000   32.7290   49.7220 H   0  0  0  0  0  0  0  0  0  0  0  0
   52.3704   31.9809   53.7610 H   0  0  0  0  0  0  0  0  0  0  0  0
   58.6469   30.5911   50.8744 H   0  0  0  0  0  0  0  0  0  0  0  0
   57.0003   30.7901   50.1710 H   0  0  0  0  0  0  0  0  0  0  0  0
   58.6701   32.4760   49.3311 H   0  0  0  0  0  0  0  0  0  0  0  0
   57.2264   33.1994   50.1790 H   0  0  0  0  0  0  0  0  0  0  0  0
  1  2  1  0
  2  3  1  0
  3  4  2  0
  4  5  1  0
  5  6  2  0
  6  7  1  0
  7  8  1  0
  8  9  1  0
  9 10  1  0
 10 11  1  0
 11 12  1  0
 12 13  2  0
 12 14  1  0
 14 15  1  0
 15 16  1  0
 16 17  2  0
 17 18  1  0
 18 19  2  0
 19 20  1  0
 19 21  1  0
 21 22  1  0
 21 23  2  0
 11 24  1  0
 24 25  1  0
  6  2  1  0
 25  8  1  0
 23 16  1  0
  1 26  1  0
  1 27  1  0
  1 28  1  0
  4 29  1  0
  5 30  1  0
  7 31  1  0
  7 32  1  0
  9 33  1  0
  9 34  1  0
 10 35  1  0
 10 36  1  0
 15 37  1  0
 15 38  1  0
 17 39  1  0
 18 40  1  0
 20 41  1  0
 23 42  1  0
 24 43  1  0
 24 44  1  0
 25 45  1  0
 25 46  1  0
M  CHG  2  14  -1  22  -1
M  END
>  <UniqueID>  (76) 
76

>  <SMILES>  (76) 
Cn1nccc1CN1CCN(C(=O)[N-]Cc2ccc(O)c([O-])c2)CC1

>  <Energy>  (76) 
86.02948278880078

>  <Genealogy>  (76) 
Cn1nccc1CN1CCN(C(=O)[N-]Cc2ccc(O)c([O-])c2)CC1 (protonated)
Cn1nccc1CN1CCN(C(=O)[N-]Cc2ccc(O)c([O-])c2)CC1 (3D coordinates assigned)
Cn1nccc1CN1CCN(C(=O)[N-]Cc2ccc(O)c([O-])c2)CC1 (nonaromatic ring conformer: 86.02948278880078 kcal/mol)

>  <smiles>  (76) 
Cn1nccc1CN1CCN(C(=O)NCc2ccc(O)c(O)c2)CC1

>  <score_type>  (76) 
oracle

>  <origin>  (76) 
adg

>  <m_score__min__energy>  (76) 
-12.66

>  <m_primary>  (76) 
energy

$$$$
76:0
     RDKit          3D

 24 25  0  0  0  0  0  0  0  0999 V2000
   50.5320   33.3690   54.7700 O   0  0  0  0  0  0  0  0  0  0  0  0
   50.0680   32.3640   54.1710 C   0  0  0  0  0  0  0  0  0  0  0  0
   50.8770   31.5980   53.1920 C   0  0  0  0  0  0  0  0  0  0  0  0
   51.3230   32.1680   51.9860 C   0  0  0  0  0  0  0  0  0  0  0  0
   51.0180   33.4860   51.6610 O   0  0  0  0  0  0  0  0  0  0  0  0
   52.0620   31.4310   51.1200 N   0  0  0  0  0  0  0  0  0  0  0  0
   52.3870   30.1390   51.3840 C   0  0  0  0  0  0  0  0  0  0  0  0
   53.0620   29.4890   50.5400 O   0  0  0  0  0  0  0  0  0  0  0  0
   51.9730   29.5470   52.5490 N   0  0  0  0  0  0  0  0  0  0  0  0
   52.3240   28.1750   52.8230 C   0  0  0  0  0  0  0  0  0  0  0  0
   53.6160   27.8480   53.2660 C   0  0  0  0  0  0  0  0  0  0  0  0
   53.9540   26.5170   53.5310 C   0  0  0  0  0  0  0  0  0  0  0  0
   53.0050   25.5050   53.3560 C   0  0  0  0  0  0  0  0  0  0  0  0
   53.3350   24.2150   53.6140 F   0  0  0  0  0  0  0  0  0  0  0  0
   51.7170   25.8230   52.9160 C   0  0  0  0  0  0  0  0  0  0  0  0
   51.3760   27.1530   52.6500 C   0  0  0  0  0  0  0  0  0  0  0  0
   51.2280   30.2590   53.4530 C   0  0  0  0  0  0  0  0  0  0  0  0
   50.8600   29.7170   54.5340 O   0  0  0  0  0  0  0  0  0  0  0  0
   49.0358   32.0456   54.3790 H   0  0  0  0  0  0  0  0  0  0  0  0
   52.3830   31.8700   50.2260 H   0  0  0  0  0  0  0  0  0  0  0  0
   54.3649   28.6417   53.4051 H   0  0  0  0  0  0  0  0  0  0  0  0
   54.9674   26.2660   53.8774 H   0  0  0  0  0  0  0  0  0  0  0  0
   50.9709   25.0264   52.7788 H   0  0  0  0  0  0  0  0  0  0  0  0
   50.3614   27.3997   52.3039 H   0  0  0  0  0  0  0  0  0  0  0  0
  1  2  2  0
  2  3  1  0
  3  4  2  0
  4  5  1  0
  4  6  1  0
  6  7  1  0
  7  8  2  0
  7  9  1  0
  9 10  1  0
 10 11  2  0
 11 12  1  0
 12 13  2  0
 13 14  1  0
 13 15  1  0
 15 16  2  0
  9 17  1  0
 17 18  2  0
 17  3  1  0
 16 10  1  0
  2 19  1  0
  6 20  1  0
 11 21  1  0
 12 22  1  0
 15 23  1  0
 16 24  1  0
M  CHG  1   5  -1
M  END
>  <UniqueID>  (77) 
77

>  <SMILES>  (77) 
O=Cc1c([O-])[nH]c(=O)n(-c2ccc(F)cc2)c1=O

>  <Energy>  (77) 
38.22439146781009

>  <Genealogy>  (77) 
O=Cc1c([O-])[nH]c(=O)n(-c2ccc(F)cc2)c1=O (protonated)
O=Cc1c([O-])[nH]c(=O)n(-c2ccc(F)cc2)c1=O (3D coordinates assigned)
O=Cc1c([O-])[nH]c(=O)n(-c2ccc(F)cc2)c1=O (optimized conformer: 38.22439146781009 kcal/mol)

>  <smiles>  (77) 
O=Cc1c(O)[nH]c(=O)n(-c2ccc(F)cc2)c1=O

>  <score_type>  (77) 
oracle

>  <origin>  (77) 
adg

>  <m_score__min__energy>  (77) 
-8.3900000000000006

>  <m_primary>  (77) 
energy

$$$$
77:0
     RDKit          3D

 46 48  0  0  0  0  0  0  0  0999 V2000
   64.8570   32.7330   49.3600 C   0  0  0  0  0  0  0  0  0  0  0  0
   63.6300   32.8090   48.5010 C   0  0  0  0  0  0  0  0  0  0  0  0
   62.5100   32.0150   48.7880 C   0  0  0  0  0  0  0  0  0  0  0  0
   61.3570   32.1120   48.0050 C   0  0  0  0  0  0  0  0  0  0  0  0
   61.3070   33.0060   46.9210 C   0  0  0  0  0  0  0  0  0  0  0  0
   60.1290   33.1370   46.1090 N   0  0  0  0  0  0  0  0  0  0  0  0
   59.3270   34.3290   46.0480 C   0  0  0  0  0  0  0  0  0  0  0  0
   59.6150   35.3340   46.7510 O   0  0  0  0  0  0  0  0  0  0  0  0
   58.1240   34.3820   45.1540 C   0  0  0  0  0  0  0  0  0  0  0  0
   58.0480   33.1910   44.3150 N   0  0  0  0  0  0  0  0  0  0  0  0
   57.7960   31.8520   44.7660 C   0  0  0  0  0  0  0  0  0  0  0  0
   57.7150   31.6430   46.0060 O   0  0  0  0  0  0  0  0  0  0  0  0
   57.6960   30.6860   43.8130 C   0  0  0  0  0  0  0  0  0  0  0  0
   57.5400   29.3720   44.5600 C   0  0  0  0  0  0  0  0  0  0  0  0
   58.6440   28.5370   44.8820 C   0  0  0  0  0  0  0  0  0  0  0  0
   60.0680   28.9530   44.5600 C   0  0  0  0  0  0  0  0  0  0  0  0
   58.3870   27.2820   45.4920 C   0  0  0  0  0  0  0  0  0  0  0  0
   59.3980   26.3270   45.7470 C   0  0  0  0  0  0  0  0  0  0  0  0
   59.0890   25.1150   46.3710 C   0  0  0  0  0  0  0  0  0  0  0  0
   57.7750   24.8300   46.7420 C   0  0  0  0  0  0  0  0  0  0  0  0
   57.4740   23.6240   47.3650 O   0  0  0  0  0  0  0  0  0  0  0  0
   56.7600   25.7530   46.4820 C   0  0  0  0  0  0  0  0  0  0  0  0
   57.0560   26.9670   45.8530 C   0  0  0  0  0  0  0  0  0  0  0  0
   56.0700   27.8140   45.5970 O   0  0  0  0  0  0  0  0  0  0  0  0
   56.2540   28.9720   44.9780 C   0  0  0  0  0  0  0  0  0  0  0  0
   55.2530   29.7080   44.7680 O   0  0  0  0  0  0  0  0  0  0  0  0
   62.4130   33.8280   46.6630 C   0  0  0  0  0  0  0  0  0  0  0  0
   63.5680   33.7300   47.4450 C   0  0  0  0  0  0  0  0  0  0  0  0
   64.5641   32.7511   50.4201 H   0  0  0  0  0  0  0  0  0  0  0  0
   65.3979   31.7996   49.1450 H   0  0  0  0  0  0  0  0  0  0  0  0
   65.5090   33.5925   49.1450 H   0  0  0  0  0  0  0  0  0  0  0  0
   62.5396   31.3124   49.6338 H   0  0  0  0  0  0  0  0  0  0  0  0
   60.4834   31.4854   48.2379 H   0  0  0  0  0  0  0  0  0  0  0  0
   59.7610   32.2770   45.6430 H   0  0  0  0  0  0  0  0  0  0  0  0
   57.2171   34.4451   45.7734 H   0  0  0  0  0  0  0  0  0  0  0  0
   58.2068   35.2658   44.5043 H   0  0  0  0  0  0  0  0  0  0  0  0
   56.8235   30.8319   43.1591 H   0  0  0  0  0  0  0  0  0  0  0  0
   58.6229   30.6408   43.2223 H   0  0  0  0  0  0  0  0  0  0  0  0
   60.6231   29.1152   45.4957 H   0  0  0  0  0  0  0  0  0  0  0  0
   60.5582   28.1605   43.9755 H   0  0  0  0  0  0  0  0  0  0  0  0
   60.0545   29.8847   43.9755 H   0  0  0  0  0  0  0  0  0  0  0  0
   60.4361   26.5396   45.4519 H   0  0  0  0  0  0  0  0  0  0  0  0
   59.8854   24.3829   46.5703 H   0  0  0  0  0  0  0  0  0  0  0  0
   55.7240   25.5247   46.7728 H   0  0  0  0  0  0  0  0  0  0  0  0
   62.3718   34.5556   45.8391 H   0  0  0  0  0  0  0  0  0  0  0  0
   64.4311   34.3776   47.2312 H   0  0  0  0  0  0  0  0  0  0  0  0
  1  2  1  0
  2  3  2  0
  3  4  1  0
  4  5  2  0
  5  6  1  0
  6  7  1  0
  7  8  2  0
  7  9  1  0
  9 10  1  0
 10 11  1  0
 11 12  2  0
 11 13  1  0
 13 14  1  0
 14 15  2  0
 15 16  1  0
 15 17  1  0
 17 18  2  0
 18 19  1  0
 19 20  2  0
 20 21  1  0
 20 22  1  0
 22 23  2  0
 23 24  1  0
 24 25  1  0
 25 26  2  0
  5 27  1  0
 27 28  2  0
 28  2  1  0
 25 14  1  0
 23 17  1  0
  1 29  1  0
  1 30  1  0
  1 31  1  0
  3 32  1  0
  4 33  1  0
  6 34  1  0
  9 35  1  0
  9 36  1  0
 13 37  1  0
 13 38  1  0
 16 39  1  0
 16 40  1  0
 16 41  1  0
 18 42  1  0
 19 43  1  0
 22 44  1  0
 27 45  1  0
 28 46  1  0
M  CHG  2  10  -1  21  -1
M  END
>  <UniqueID>  (78) 
78

>  <SMILES>  (78) 
Cc1ccc(NC(=O)C[N-]C(=O)Cc2c(C)c3ccc([O-])cc3oc2=O)cc1

>  <Energy>  (78) 
58.35612610099545

>  <Genealogy>  (78) 
Cc1ccc(NC(=O)C[N-]C(=O)Cc2c(C)c3ccc([O-])cc3oc2=O)cc1 (protonated)
Cc1ccc(NC(=O)C[N-]C(=O)Cc2c(C)c3ccc([O-])cc3oc2=O)cc1 (3D coordinates assigned)
Cc1ccc(NC(=O)C[N-]C(=O)Cc2c(C)c3ccc([O-])cc3oc2=O)cc1 (optimized conformer: 58.35612610099545 kcal/mol)

>  <smiles>  (78) 
Cc1ccc(NC(=O)CNC(=O)Cc2c(C)c3ccc(O)cc3oc2=O)cc1

>  <score_type>  (78) 
oracle

>  <origin>  (78) 
adg

>  <m_score__min__energy>  (78) 
-11.82

>  <m_primary>  (78) 
energy

$$$$
78:0
     RDKit          3D

 41 44  0  0  0  0  0  0  0  0999 V2000
   53.3930   28.4000   53.2880 C   0  0  0  0  0  0  0  0  0  0  0  0
   54.3740   29.2550   52.9820 C   0  0  0  0  0  0  0  0  0  0  0  0
   56.0000   28.8310   53.0510 S   0  0  0  0  0  0  0  0  0  0  0  0
   56.6020   30.3190   52.5790 C   0  0  0  0  0  0  0  0  0  0  0  0
   58.0280   30.5910   52.3240 C   0  0  0  0  0  0  0  0  0  0  0  0
   58.6530   30.4590   51.1320 C   0  0  0  0  0  0  0  0  0  0  0  0
   59.5980   29.3570   50.8170 C   0  0  0  0  0  0  0  0  0  0  0  0
   59.6570   28.3230   51.5350 O   0  0  0  0  0  0  0  0  0  0  0  0
   60.4020   29.4240   49.6390 N   0  0  0  0  0  0  0  0  0  0  0  0
   60.1770   30.4240   48.6430 C   0  0  0  0  0  0  0  0  0  0  0  0
   60.8770   30.4150   47.5940 O   0  0  0  0  0  0  0  0  0  0  0  0
   59.1390   31.4050   48.8210 N   0  0  0  0  0  0  0  0  0  0  0  0
   58.8700   32.3650   47.7810 C   0  0  0  0  0  0  0  0  0  0  0  0
   59.3280   33.6880   47.9020 C   0  0  0  0  0  0  0  0  0  0  0  0
   59.0640   34.6180   46.8920 C   0  0  0  0  0  0  0  0  0  0  0  0
   58.3430   34.2360   45.7580 C   0  0  0  0  0  0  0  0  0  0  0  0
   57.8840   32.9210   45.6310 C   0  0  0  0  0  0  0  0  0  0  0  0
   58.1450   31.9880   46.6380 C   0  0  0  0  0  0  0  0  0  0  0  0
   58.3760   31.4340   50.0440 C   0  0  0  0  0  0  0  0  0  0  0  0
   57.4870   32.3180   50.2030 O   0  0  0  0  0  0  0  0  0  0  0  0
   55.5350   31.1700   52.3070 C   0  0  0  0  0  0  0  0  0  0  0  0
   54.2650   30.5920   52.5420 C   0  0  0  0  0  0  0  0  0  0  0  0
   53.0890   31.2440   52.3880 C   0  0  0  0  0  0  0  0  0  0  0  0
   52.2820   31.2970   51.1500 C   0  0  0  0  0  0  0  0  0  0  0  0
   52.2710   30.3640   50.1790 N   0  0  0  0  0  0  0  0  0  0  0  0
   51.3260   30.8100   49.3230 C   0  0  0  0  0  0  0  0  0  0  0  0
   51.0290   30.2000   48.2640 O   0  0  0  0  0  0  0  0  0  0  0  0
   50.7210   31.9580   49.6970 N   0  0  0  0  0  0  0  0  0  0  0  0
   51.3310   32.2450   50.8580 C   0  0  0  0  0  0  0  0  0  0  0  0
   51.0220   33.3530   51.6380 O   0  0  0  0  0  0  0  0  0  0  0  0
   52.3432   28.7231   53.2280 H   0  0  0  0  0  0  0  0  0  0  0  0
   53.6355   27.3734   53.5998 H   0  0  0  0  0  0  0  0  0  0  0  0
   58.6357   30.9303   53.1759 H   0  0  0  0  0  0  0  0  0  0  0  0
   61.1220   28.6860   49.4690 H   0  0  0  0  0  0  0  0  0  0  0  0
   59.8956   33.9927   48.7936 H   0  0  0  0  0  0  0  0  0  0  0  0
   59.4247   35.6525   46.9904 H   0  0  0  0  0  0  0  0  0  0  0  0
   58.1363   34.9696   44.9649 H   0  0  0  0  0  0  0  0  0  0  0  0
   57.3169   32.6209   44.7375 H   0  0  0  0  0  0  0  0  0  0  0  0
   57.7816   30.9548   46.5355 H   0  0  0  0  0  0  0  0  0  0  0  0
   55.6670   32.1993   51.9422 H   0  0  0  0  0  0  0  0  0  0  0  0
   52.6980   31.7835   53.2633 H   0  0  0  0  0  0  0  0  0  0  0  0
  1  2  2  0
  2  3  1  0
  3  4  1  0
  4  5  1  0
  5  6  2  3
  6  7  1  0
  7  8  2  0
  7  9  1  0
  9 10  1  0
 10 11  2  0
 10 12  1  0
 12 13  1  0
 13 14  2  0
 14 15  1  0
 15 16  2  0
 16 17  1  0
 17 18  2  0
 12 19  1  0
 19 20  2  0
  4 21  2  0
 21 22  1  0
 22 23  2  3
 23 24  1  0
 24 25  1  0
 25 26  1  0
 26 27  2  0
 26 28  1  0
 28 29  1  0
 29 30  1  0
 22  2  1  0
 29 24  2  0
 19  6  1  0
 18 13  1  0
  1 31  1  0
  1 32  1  0
  5 33  1  0
  9 34  1  0
 14 35  1  0
 15 36  1  0
 16 37  1  0
 17 38  1  0
 18 39  1  0
 21 40  1  0
 23 41  1  0
M  CHG  3  25  -1  28  -1  30  -1
M  END
>  <UniqueID>  (79) 
79

>  <SMILES>  (79) 
C=c1sc(C=C2C(=O)NC(=O)N(c3ccccc3)C2=O)cc1=Cc1[n-]c(=O)[n-]c1[O-]

>  <Energy>  (79) 
123.27741276694029

>  <Genealogy>  (79) 
C=c1sc(C=C2C(=O)NC(=O)N(c3ccccc3)C2=O)cc1=Cc1[n-]c(=O)[n-]c1[O-] (protonated)
C=c1sc(C=C2C(=O)NC(=O)N(c3ccccc3)C2=O)cc1=Cc1[n-]c(=O)[n-]c1[O-] (3D coordinates assigned)
C=c1sc(C=C2C(=O)NC(=O)N(c3ccccc3)C2=O)cc1=Cc1[n-]c(=O)[n-]c1[O-] (nonaromatic ring conformer: 123.27741276694029 kcal/mol)

>  <smiles>  (79) 
C=c1sc(C=C2C(=O)NC(=O)N(c3ccccc3)C2=O)cc1=Cc1[nH]c(=O)[nH]c1O

>  <score_type>  (79) 
oracle

>  <origin>  (79) 
adg

>  <m_score__min__energy>  (79) 
-18.149999999999999

>  <m_primary>  (79) 
energy

$$$$
79:0
     RDKit          3D

 53 56  0  0  0  0  0  0  0  0999 V2000
   56.7840   29.8930   43.4020 C   0  0  0  0  0  0  0  0  0  0  0  0
   57.5430   30.6280   44.2180 C   0  0  0  0  0  0  0  0  0  0  0  0
   57.3030   32.2710   44.4820 S   0  0  0  0  0  0  0  0  0  0  0  0
   58.6280   32.4300   45.5170 C   0  0  0  0  0  0  0  0  0  0  0  0
   59.0640   33.5590   46.1010 C   0  0  0  0  0  0  0  0  0  0  0  0
   60.2300   33.6320   47.0070 C   0  0  0  0  0  0  0  0  0  0  0  0
   61.5360   33.8040   46.5150 C   0  0  0  0  0  0  0  0  0  0  0  0
   62.6140   33.8920   47.3990 C   0  0  0  0  0  0  0  0  0  0  0  0
   62.3990   33.8350   48.7780 C   0  0  0  0  0  0  0  0  0  0  0  0
   61.0930   33.7120   49.2850 C   0  0  0  0  0  0  0  0  0  0  0  0
   60.8360   33.6470   50.6620 O   0  0  0  0  0  0  0  0  0  0  0  0
   59.6640   33.1450   51.2480 C   0  0  0  0  0  0  0  0  0  0  0  0
   59.2170   31.8310   51.0150 C   0  0  0  0  0  0  0  0  0  0  0  0
   58.0530   31.3630   51.6330 C   0  0  0  0  0  0  0  0  0  0  0  0
   57.3330   32.1970   52.4930 C   0  0  0  0  0  0  0  0  0  0  0  0
   57.7840   33.4960   52.7440 C   0  0  0  0  0  0  0  0  0  0  0  0
   58.9480   33.9660   52.1290 C   0  0  0  0  0  0  0  0  0  0  0  0
   60.0180   33.6050   48.3940 C   0  0  0  0  0  0  0  0  0  0  0  0
   59.2340   31.1750   45.6180 C   0  0  0  0  0  0  0  0  0  0  0  0
   60.2640   30.9690   46.3180 O   0  0  0  0  0  0  0  0  0  0  0  0
   58.6260   30.1760   44.9120 N   0  0  0  0  0  0  0  0  0  0  0  0
   59.1080   28.8200   44.9090 C   0  0  0  0  0  0  0  0  0  0  0  0
   60.1450   28.5400   44.2480 O   0  0  0  0  0  0  0  0  0  0  0  0
   58.4270   27.7610   45.6940 C   0  0  0  0  0  0  0  0  0  0  0  0
   59.1310   27.0380   46.6720 C   0  0  0  0  0  0  0  0  0  0  0  0
   58.4900   26.0410   47.4100 C   0  0  0  0  0  0  0  0  0  0  0  0
   57.1410   25.7560   47.1870 C   0  0  0  0  0  0  0  0  0  0  0  0
   56.4180   26.4760   46.2210 C   0  0  0  0  0  0  0  0  0  0  0  0
   55.0310   26.2230   45.9620 N   0  0  0  0  0  0  0  0  0  0  0  0
   54.3440   24.6670   45.6260 S   0  0  0  0  0  0  0  0  0  0  0  0
   55.2180   23.9360   44.2620 C   0  0  0  0  0  0  0  0  0  0  0  0
   52.8950   24.8170   45.2570 O   0  0  0  0  0  0  0  0  0  0  0  0
   54.4790   23.7790   46.8290 O   0  0  0  0  0  0  0  0  0  0  0  0
   57.0650   27.4760   45.4830 C   0  0  0  0  0  0  0  0  0  0  0  0
   56.9938   28.8210   43.2726 H   0  0  0  0  0  0  0  0  0  0  0  0
   55.9488   30.3594   42.8590 H   0  0  0  0  0  0  0  0  0  0  0  0
   58.5173   34.4902   45.8911 H   0  0  0  0  0  0  0  0  0  0  0  0
   61.7093   33.8695   45.4307 H   0  0  0  0  0  0  0  0  0  0  0  0
   63.6357   34.0066   47.0078 H   0  0  0  0  0  0  0  0  0  0  0  0
   63.2533   33.8864   49.4691 H   0  0  0  0  0  0  0  0  0  0  0  0
   59.7852   31.1697   50.3444 H   0  0  0  0  0  0  0  0  0  0  0  0
   57.7038   30.3375   51.4421 H   0  0  0  0  0  0  0  0  0  0  0  0
   56.4125   31.8315   52.9717 H   0  0  0  0  0  0  0  0  0  0  0  0
   57.2217   34.1498   53.4269 H   0  0  0  0  0  0  0  0  0  0  0  0
   59.3037   34.9858   52.3378 H   0  0  0  0  0  0  0  0  0  0  0  0
   58.9957   33.4986   48.7858 H   0  0  0  0  0  0  0  0  0  0  0  0
   60.1926   27.2587   46.8571 H   0  0  0  0  0  0  0  0  0  0  0  0
   59.0501   25.4773   48.1706 H   0  0  0  0  0  0  0  0  0  0  0  0
   56.6435   24.9661   47.7689 H   0  0  0  0  0  0  0  0  0  0  0  0
   56.0088   23.2746   44.6455 H   0  0  0  0  0  0  0  0  0  0  0  0
   54.5168   23.3516   43.6482 H   0  0  0  0  0  0  0  0  0  0  0  0
   55.6693   24.7294   43.6482 H   0  0  0  0  0  0  0  0  0  0  0  0
   56.5014   28.0454   44.7293 H   0  0  0  0  0  0  0  0  0  0  0  0
  1  2  2  0
  2  3  1  0
  3  4  1  0
  4  5  2  3
  5  6  1  0
  6  7  2  0
  7  8  1  0
  8  9  2  0
  9 10  1  0
 10 11  1  0
 11 12  1  0
 12 13  2  0
 13 14  1  0
 14 15  2  0
 15 16  1  0
 16 17  2  0
 10 18  2  0
  4 19  1  0
 19 20  2  0
 19 21  1  0
 21 22  1  0
 22 23  2  0
 22 24  1  0
 24 25  2  0
 25 26  1  0
 26 27  2  0
 27 28  1  0
 28 29  1  0
 29 30  1  0
 30 31  1  0
 30 32  2  0
 30 33  2  0
 28 34  2  0
 21  2  1  0
 34 24  1  0
 18  6  1  0
 17 12  1  0
  1 35  1  0
  1 36  1  0
  5 37  1  0
  7 38  1  0
  8 39  1  0
  9 40  1  0
 13 41  1  0
 14 42  1  0
 15 43  1  0
 16 44  1  0
 17 45  1  0
 18 46  1  0
 25 47  1  0
 26 48  1  0
 27 49  1  0
 31 50  1  0
 31 51  1  0
 31 52  1  0
 34 53  1  0
M  CHG  1  29  -1
M  END
>  <UniqueID>  (80) 
80

>  <SMILES>  (80) 
C=c1sc(=Cc2cccc(Oc3ccccc3)c2)c(=O)n1C(=O)c1cccc([N-]S(C)(=O)=O)c1

>  <Energy>  (80) 
108.71104004062248

>  <Genealogy>  (80) 
C=c1sc(=Cc2cccc(Oc3ccccc3)c2)c(=O)n1C(=O)c1cccc([N-]S(C)(=O)=O)c1 (protonated)
C=c1sc(=Cc2cccc(Oc3ccccc3)c2)c(=O)n1C(=O)c1cccc([N-]S(C)(=O)=O)c1 (3D coordinates assigned)
C=c1sc(=Cc2cccc(Oc3ccccc3)c2)c(=O)n1C(=O)c1cccc([N-]S(C)(=O)=O)c1 (optimized conformer: 108.71104004062248 kcal/mol)

>  <smiles>  (80) 
C=c1sc(=Cc2cccc(Oc3ccccc3)c2)c(=O)n1C(=O)c1cccc(NS(C)(=O)=O)c1

>  <score_type>  (80) 
oracle

>  <origin>  (80) 
adg

>  <m_score__min__energy>  (80) 
-12.44

>  <m_primary>  (80) 
energy

$$$$
80:0
     RDKit          3D

 42 44  0  0  0  0  0  0  0  0999 V2000
   65.8880   31.9050   50.5150 C   0  0  0  0  0  0  0  0  0  0  0  0
   64.4720   31.5730   50.2920 N   0  0  0  0  0  0  0  0  0  0  0  0
   63.9000   30.6110   51.0810 C   0  0  0  0  0  0  0  0  0  0  0  0
   62.5640   30.2510   50.9240 C   0  0  0  0  0  0  0  0  0  0  0  0
   61.7930   30.8740   49.9510 C   0  0  0  0  0  0  0  0  0  0  0  0
   62.3630   31.8560   49.1350 C   0  0  0  0  0  0  0  0  0  0  0  0
   61.5910   32.4890   48.1500 C   0  0  0  0  0  0  0  0  0  0  0  0
   62.1610   33.4630   47.3180 C   0  0  0  0  0  0  0  0  0  0  0  0
   61.3870   34.1450   46.3210 N   0  0  0  0  0  0  0  0  0  0  0  0
   60.1470   34.8310   46.5320 C   0  0  0  0  0  0  0  0  0  0  0  0
   60.0080   35.9920   46.0610 O   0  0  0  0  0  0  0  0  0  0  0  0
   58.9910   34.1840   47.2470 C   0  0  0  0  0  0  0  0  0  0  0  0
   58.3910   33.0940   46.4010 C   0  0  0  0  0  0  0  0  0  0  0  0
   58.5540   31.7450   46.7560 C   0  0  0  0  0  0  0  0  0  0  0  0
   57.9700   30.7370   45.9820 C   0  0  0  0  0  0  0  0  0  0  0  0
   57.2070   31.0660   44.8530 C   0  0  0  0  0  0  0  0  0  0  0  0
   56.4870   29.7930   43.8730 S   0  0  0  0  0  0  0  0  0  0  0  0
   57.5760   28.4560   43.7760 N   0  0  0  0  0  0  0  0  0  0  0  0
   56.2060   30.3120   42.4900 O   0  0  0  0  0  0  0  0  0  0  0  0
   55.1910   29.3480   44.4920 O   0  0  0  0  0  0  0  0  0  0  0  0
   57.0410   32.4110   44.4980 C   0  0  0  0  0  0  0  0  0  0  0  0
   57.6230   33.4200   45.2710 C   0  0  0  0  0  0  0  0  0  0  0  0
   63.4920   33.8360   47.5120 C   0  0  0  0  0  0  0  0  0  0  0  0
   64.2730   33.2150   48.4900 C   0  0  0  0  0  0  0  0  0  0  0  0
   63.7260   32.2080   49.3170 C   0  0  0  0  0  0  0  0  0  0  0  0
   66.0878   31.9519   51.5957 H   0  0  0  0  0  0  0  0  0  0  0  0
   66.5224   31.1312   50.0580 H   0  0  0  0  0  0  0  0  0  0  0  0
   66.1124   32.8801   50.0580 H   0  0  0  0  0  0  0  0  0  0  0  0
   64.5065   30.1139   51.8524 H   0  0  0  0  0  0  0  0  0  0  0  0
   62.1212   29.4767   51.5677 H   0  0  0  0  0  0  0  0  0  0  0  0
   60.7366   30.5955   49.8227 H   0  0  0  0  0  0  0  0  0  0  0  0
   60.5314   32.2196   48.0294 H   0  0  0  0  0  0  0  0  0  0  0  0
   59.3470   33.7525   48.1941 H   0  0  0  0  0  0  0  0  0  0  0  0
   58.2223   34.9462   47.4425 H   0  0  0  0  0  0  0  0  0  0  0  0
   59.1433   31.4801   47.6463 H   0  0  0  0  0  0  0  0  0  0  0  0
   58.1100   29.6820   46.2603 H   0  0  0  0  0  0  0  0  0  0  0  0
   57.0110   27.6210   43.5000 H   0  0  0  0  0  0  0  0  0  0  0  0
   58.2310   28.6510   42.9850 H   0  0  0  0  0  0  0  0  0  0  0  0
   56.4506   32.6741   43.6079 H   0  0  0  0  0  0  0  0  0  0  0  0
   57.4788   34.4745   44.9929 H   0  0  0  0  0  0  0  0  0  0  0  0
   63.9311   34.6281   46.8877 H   0  0  0  0  0  0  0  0  0  0  0  0
   65.3242   33.5129   48.6176 H   0  0  0  0  0  0  0  0  0  0  0  0
  1  2  1  0
  2  3  2  0
  3  4  1  0
  4  5  2  0
  5  6  1  0
  6  7  2  0
  7  8  1  0
  8  9  1  0
  9 10  1  0
 10 11  2  0
 10 12  1  0
 12 13  1  0
 13 14  2  0
 14 15  1  0
 15 16  2  0
 16 17  1  0
 17 18  1  0
 17 19  2  0
 17 20  2  0
 16 21  1  0
 21 22  2  0
  8 23  2  0
 23 24  1  0
 24 25  2  0
 25  2  1  0
 25  6  1  0
 22 13  1  0
  1 26  1  0
  1 27  1  0
  1 28  1  0
  3 29  1  0
  4 30  1  0
  5 31  1  0
  7 32  1  0
 12 33  1  0
 12 34  1  0
 14 35  1  0
 15 36  1  0
 18 37  1  0
 18 38  1  0
 21 39  1  0
 22 40  1  0
 23 41  1  0
 24 42  1  0
M  CHG  2   2   1   9  -1
M  END
>  <UniqueID>  (81) 
81

>  <SMILES>  (81) 
C[n+]1cccc2cc([N-]C(=O)Cc3ccc(S(N)(=O)=O)cc3)ccc21

>  <Energy>  (81) 
53.77059717967623

>  <Genealogy>  (81) 
C[n+]1cccc2cc([N-]C(=O)Cc3ccc(S(N)(=O)=O)cc3)ccc21 (protonated)
C[n+]1cccc2cc([N-]C(=O)Cc3ccc(S(N)(=O)=O)cc3)ccc21 (3D coordinates assigned)
C[n+]1cccc2cc([N-]C(=O)Cc3ccc(S(N)(=O)=O)cc3)ccc21 (optimized conformer: 53.77059717967623 kcal/mol)

>  <smiles>  (81) 
C[n+]1cccc2cc(NC(=O)Cc3ccc(S(N)(=O)=O)cc3)ccc21

>  <score_type>  (81) 
oracle

>  <origin>  (81) 
adg

>  <m_score__min__energy>  (81) 
-8.9299999999999997

>  <m_primary>  (81) 
energy

$$$$
81:0
     RDKit          3D

 26 28  0  0  0  0  0  0  0  0999 V2000
   58.1044   25.8587   46.1612 H   0  0  0  0  0  0  0  0  0  0  0  0
   57.1260   26.3320   45.9920 C   0  0  0  0  0  0  0  0  0  0  0  0
   56.2022   25.7912   46.2454 H   0  0  0  0  0  0  0  0  0  0  0  0
   57.0600   27.5560   45.4820 C   0  0  0  0  0  0  0  0  0  0  0  0
   55.8970   28.2020   45.2460 N   0  0  0  0  0  0  0  0  0  0  0  0
   56.1060   29.4400   44.7250 C   0  0  0  0  0  0  0  0  0  0  0  0
   55.1400   30.2100   44.4800 O   0  0  0  0  0  0  0  0  0  0  0  0
   57.4510   29.7890   44.5290 C   0  0  0  0  0  0  0  0  0  0  0  0
   57.9720   30.9300   44.0520 C   0  0  0  0  0  0  0  0  0  0  0  0
   58.2085   30.9723   42.9786 H   0  0  0  0  0  0  0  0  0  0  0  0
   58.2510   32.1320   44.8610 C   0  0  0  0  0  0  0  0  0  0  0  0
   58.1520   33.4300   44.2950 C   0  0  0  0  0  0  0  0  0  0  0  0
   57.8240   33.5453   43.2514 H   0  0  0  0  0  0  0  0  0  0  0  0
   58.4690   34.5700   45.0550 C   0  0  0  0  0  0  0  0  0  0  0  0
   58.3787   35.5801   44.6288 H   0  0  0  0  0  0  0  0  0  0  0  0
   58.9010   34.3780   46.3650 C   0  0  0  0  0  0  0  0  0  0  0  0
   59.0250   33.1280   46.9070 C   0  0  0  0  0  0  0  0  0  0  0  0
   58.7200   31.9780   46.1830 C   0  0  0  0  0  0  0  0  0  0  0  0
   58.8411   30.9795   46.6284 H   0  0  0  0  0  0  0  0  0  0  0  0
   59.4820   33.2800   48.1980 C   0  0  0  0  0  0  0  0  0  0  0  0
   59.6956   32.4870   48.9298 H   0  0  0  0  0  0  0  0  0  0  0  0
   59.6150   34.6550   48.3760 C   0  0  0  0  0  0  0  0  0  0  0  0
   59.9622   35.1343   49.3032 H   0  0  0  0  0  0  0  0  0  0  0  0
   59.2590   35.3210   47.2530 N   0  0  0  0  0  0  0  0  0  0  0  0
   59.2660   36.3550   47.1100 H   0  0  0  0  0  0  0  0  0  0  0  0
   58.3900   28.4940   45.0600 S   0  0  0  0  0  0  0  0  0  0  0  0
  1  2  1  0
  2  3  1  0
  2  4  2  0
  4  5  1  0
  5  6  1  0
  6  7  2  0
  6  8  1  0
  8  9  2  0
  9 10  1  0
  9 11  1  0
 11 12  2  0
 12 13  1  0
 12 14  1  0
 14 15  1  0
 14 16  2  0
 16 17  1  0
 17 18  2  0
 18 19  1  0
 17 20  1  0
 20 21  1  0
 20 22  2  0
 22 23  1  0
 22 24  1  0
 24 25  1  0
  8 26  1  0
 26  4  1  0
 18 11  1  0
 24 16  1  0
M  CHG  1   5  -1
M  END
>  <UniqueID>  (82) 
82

>  <SMILES>  (82) 
C=c1[n-]c(=O)/c(=C\c2ccc3[nH]ccc3c2)s1

>  <Energy>  (82) 
98.96660101593594

>  <Genealogy>  (82) 
C=c1[n-]c(=O)c(=Cc2ccc3[nH]ccc3c2)s1 (protonated)
C=c1[n-]c(=O)/c(=C\c2ccc3[nH]ccc3c2)s1 (cis-trans isomerization)
C=c1[n-]c(=O)/c(=C\c2ccc3[nH]ccc3c2)s1 (3D coordinates assigned)
C=c1[n-]c(=O)/c(=C\c2ccc3[nH]ccc3c2)s1 (optimized conformer: 98.96660101593594 kcal/mol)

>  <smiles>  (82) 
C=c1[nH]c(=O)c(=Cc2ccc3[nH]ccc3c2)s1

>  <score_type>  (82) 
oracle

>  <origin>  (82) 
adg

>  <m_score__min__energy>  (82) 
-9.6099999999999994

>  <m_primary>  (82) 
energy

$$$$
82:0
     RDKit          3D

 62 65  0  0  0  0  0  0  0  0999 V2000
   56.2790   29.9120   42.6210 C   0  0  0  0  0  0  0  0  0  0  0  0
   56.3720   30.1340   44.1000 C   0  0  0  0  0  0  0  0  0  0  0  0
   55.3860   29.8050   44.8170 O   0  0  0  0  0  0  0  0  0  0  0  0
   57.5380   30.7300   44.7170 N   0  0  0  0  0  0  0  0  0  0  0  0
   57.7150   32.1920   44.7970 C   0  0  0  0  0  0  0  0  0  0  0  0
   58.4870   32.5660   46.0360 C   0  0  0  0  0  0  0  0  0  0  0  0
   59.8590   32.8510   45.9640 C   0  0  0  0  0  0  0  0  0  0  0  0
   60.5660   33.2110   47.1150 C   0  0  0  0  0  0  0  0  0  0  0  0
   59.9130   33.2880   48.3560 C   0  0  0  0  0  0  0  0  0  0  0  0
   60.6540   33.6770   49.5760 C   0  0  0  0  0  0  0  0  0  0  0  0
   60.0180   34.1940   50.5360 O   0  0  0  0  0  0  0  0  0  0  0  0
   62.0760   33.4770   49.6960 N   0  0  0  0  0  0  0  0  0  0  0  0
   62.7360   32.3270   49.0590 C   0  0  0  0  0  0  0  0  0  0  0  0
   63.7960   31.6750   49.9810 C   0  0  0  0  0  0  0  0  0  0  0  0
   64.2560   32.5560   51.0830 N   0  0  0  0  0  0  0  0  0  0  0  0
   65.5140   32.0120   51.6730 C   0  0  0  0  0  0  0  0  0  0  0  0
   66.4340   31.2220   50.7330 C   0  0  0  0  0  0  0  0  0  0  0  0
   67.5140   32.2830   50.9130 C   0  0  0  0  0  0  0  0  0  0  0  0
   66.6190   33.0520   51.8800 C   0  0  0  0  0  0  0  0  0  0  0  0
   64.3050   33.9710   50.6370 C   0  0  0  0  0  0  0  0  0  0  0  0
   62.8780   34.4800   50.4120 C   0  0  0  0  0  0  0  0  0  0  0  0
   58.5360   33.0260   48.4210 C   0  0  0  0  0  0  0  0  0  0  0  0
   57.8300   32.6580   47.2720 C   0  0  0  0  0  0  0  0  0  0  0  0
   58.5350   29.8710   45.3060 C   0  0  0  0  0  0  0  0  0  0  0  0
   59.4080   29.1270   44.4960 C   0  0  0  0  0  0  0  0  0  0  0  0
   60.3600   28.2850   45.0750 C   0  0  0  0  0  0  0  0  0  0  0  0
   60.4400   28.1660   46.4640 C   0  0  0  0  0  0  0  0  0  0  0  0
   59.5550   28.8790   47.2910 C   0  0  0  0  0  0  0  0  0  0  0  0
   59.6620   28.7890   48.7930 C   0  0  0  0  0  0  0  0  0  0  0  0
   60.6190   29.6650   49.2760 F   0  0  0  0  0  0  0  0  0  0  0  0
   58.4390   29.1030   49.3550 F   0  0  0  0  0  0  0  0  0  0  0  0
   60.0180   27.5070   49.1740 F   0  0  0  0  0  0  0  0  0  0  0  0
   58.6200   29.7470   46.7020 C   0  0  0  0  0  0  0  0  0  0  0  0
   55.8607   28.9136   42.4257 H   0  0  0  0  0  0  0  0  0  0  0  0
   55.6256   30.6768   42.1758 H   0  0  0  0  0  0  0  0  0  0  0  0
   57.2824   29.9827   42.1758 H   0  0  0  0  0  0  0  0  0  0  0  0
   58.2653   32.5386   43.9098 H   0  0  0  0  0  0  0  0  0  0  0  0
   56.7239   32.6673   44.8398 H   0  0  0  0  0  0  0  0  0  0  0  0
   60.3807   32.7909   44.9974 H   0  0  0  0  0  0  0  0  0  0  0  0
   61.6408   33.4354   47.0483 H   0  0  0  0  0  0  0  0  0  0  0  0
   61.9733   31.5748   48.8092 H   0  0  0  0  0  0  0  0  0  0  0  0
   63.2509   32.6905   48.1575 H   0  0  0  0  0  0  0  0  0  0  0  0
   63.3598   30.7668   50.4224 H   0  0  0  0  0  0  0  0  0  0  0  0
   64.6749   31.4596   49.3556 H   0  0  0  0  0  0  0  0  0  0  0  0
   63.5380   32.4880   51.8450 H   0  0  0  0  0  0  0  0  0  0  0  0
   65.0474   31.4959   52.5250 H   0  0  0  0  0  0  0  0  0  0  0  0
   66.7136   30.2265   51.1082 H   0  0  0  0  0  0  0  0  0  0  0  0
   66.0934   30.9350   49.7272 H   0  0  0  0  0  0  0  0  0  0  0  0
   68.4412   31.9041   51.3676 H   0  0  0  0  0  0  0  0  0  0  0  0
   67.9412   32.7898   50.0351 H   0  0  0  0  0  0  0  0  0  0  0  0
   67.0048   33.1001   52.9090 H   0  0  0  0  0  0  0  0  0  0  0  0
   66.4163   34.1218   51.7237 H   0  0  0  0  0  0  0  0  0  0  0  0
   64.7961   34.5826   51.4082 H   0  0  0  0  0  0  0  0  0  0  0  0
   64.8742   34.0422   49.6984 H   0  0  0  0  0  0  0  0  0  0  0  0
   62.4108   34.6878   51.3860 H   0  0  0  0  0  0  0  0  0  0  0  0
   62.9208   35.3971   49.8062 H   0  0  0  0  0  0  0  0  0  0  0  0
   58.0086   33.1108   49.3826 H   0  0  0  0  0  0  0  0  0  0  0  0
   56.7539   32.4395   47.3374 H   0  0  0  0  0  0  0  0  0  0  0  0
   59.3418   29.2077   43.4010 H   0  0  0  0  0  0  0  0  0  0  0  0
   61.0487   27.7140   44.4350 H   0  0  0  0  0  0  0  0  0  0  0  0
   61.2002   27.5103   46.9137 H   0  0  0  0  0  0  0  0  0  0  0  0
   57.9468   30.3362   47.3421 H   0  0  0  0  0  0  0  0  0  0  0  0
  1  2  1  0
  2  3  2  0
  2  4  1  0
  4  5  1  0
  5  6  1  0
  6  7  2  0
  7  8  1  0
  8  9  2  0
  9 10  1  0
 10 11  2  0
 10 12  1  0
 12 13  1  0
 13 14  1  0
 14 15  1  0
 15 16  1  0
 16 17  1  0
 17 18  1  0
 18 19  1  0
 15 20  1  0
 20 21  1  0
  9 22  1  0
 22 23  2  0
  4 24  1  0
 24 25  2  0
 25 26  1  0
 26 27  2  0
 27 28  1  0
 28 29  1  0
 29 30  1  0
 29 31  1  0
 29 32  1  0
 28 33  2  0
 23  6  1  0
 33 24  1  0
 21 12  1  0
 19 16  1  0
  1 34  1  0
  1 35  1  0
  1 36  1  0
  5 37  1  0
  5 38  1  0
  7 39  1  0
  8 40  1  0
 13 41  1  0
 13 42  1  0
 14 43  1  0
 14 44  1  0
 15 45  1  0
 16 46  1  0
 17 47  1  0
 17 48  1  0
 18 49  1  0
 18 50  1  0
 19 51  1  0
 19 52  1  0
 20 53  1  0
 20 54  1  0
 21 55  1  0
 21 56  1  0
 22 57  1  0
 23 58  1  0
 25 59  1  0
 26 60  1  0
 27 61  1  0
 33 62  1  0
M  CHG  1  15   1
M  END
>  <UniqueID>  (83) 
83

>  <SMILES>  (83) 
CC(=O)N(Cc1ccc(C(=O)N2CC[NH+](C3CCC3)CC2)cc1)c1cccc(C(F)(F)F)c1

>  <Energy>  (83) 
147.02207521982635

>  <Genealogy>  (83) 
CC(=O)N(Cc1ccc(C(=O)N2CC[NH+](C3CCC3)CC2)cc1)c1cccc(C(F)(F)F)c1 (protonated)
CC(=O)N(Cc1ccc(C(=O)N2CC[NH+](C3CCC3)CC2)cc1)c1cccc(C(F)(F)F)c1 (3D coordinates assigned)
CC(=O)N(Cc1ccc(C(=O)N2CC[NH+](C3CCC3)CC2)cc1)c1cccc(C(F)(F)F)c1 (nonaromatic ring conformer: 147.02207521982635 kcal/mol)

>  <smiles>  (83) 
CC(=O)N(Cc1ccc(C(=O)N2CCN(C3CCC3)CC2)cc1)c1cccc(C(F)(F)F)c1

>  <score_type>  (83) 
oracle

>  <origin>  (83) 
adg

>  <m_score__min__energy>  (83) 
-7

>  <m_primary>  (83) 
energy

$$$$
83:0
     RDKit          3D

 63 67  0  0  0  0  0  0  0  0999 V2000
   60.6670   30.1310   47.5400 C   0  0  0  0  0  0  0  0  0  0  0  0
   59.2400   30.6660   47.4790 C   0  0  0  0  0  0  0  0  0  0  0  0
   59.0170   31.4420   46.2090 C   0  0  0  0  0  0  0  0  0  0  0  0
   59.1120   32.8350   46.0450 C   0  0  0  0  0  0  0  0  0  0  0  0
   59.6610   33.8160   47.0020 C   0  0  0  0  0  0  0  0  0  0  0  0
   58.9110   34.7470   47.4030 O   0  0  0  0  0  0  0  0  0  0  0  0
   61.0340   33.7810   47.4310 N   0  0  0  0  0  0  0  0  0  0  0  0
   61.3370   34.0880   48.8380 C   0  0  0  0  0  0  0  0  0  0  0  0
   62.8140   34.4520   49.0380 C   0  0  0  0  0  0  0  0  0  0  0  0
   63.7610   33.4380   48.3650 C   0  0  0  0  0  0  0  0  0  0  0  0
   63.8780   32.1780   49.2030 C   0  0  0  0  0  0  0  0  0  0  0  0
   62.9660   31.3080   49.1360 O   0  0  0  0  0  0  0  0  0  0  0  0
   65.0160   31.9450   50.1290 C   0  0  0  0  0  0  0  0  0  0  0  0
   64.9860   30.9200   51.0930 C   0  0  0  0  0  0  0  0  0  0  0  0
   66.0800   30.7110   51.9380 C   0  0  0  0  0  0  0  0  0  0  0  0
   67.2140   31.5160   51.8310 C   0  0  0  0  0  0  0  0  0  0  0  0
   68.2660   31.3140   52.6630 F   0  0  0  0  0  0  0  0  0  0  0  0
   67.2580   32.5330   50.8760 C   0  0  0  0  0  0  0  0  0  0  0  0
   66.1690   32.7430   50.0240 C   0  0  0  0  0  0  0  0  0  0  0  0
   63.3680   33.1240   46.8920 C   0  0  0  0  0  0  0  0  0  0  0  0
   62.0940   33.8410   46.4160 C   0  0  0  0  0  0  0  0  0  0  0  0
   58.5450   33.2170   44.8740 N   0  0  0  0  0  0  0  0  0  0  0  0
   58.0930   32.0930   44.3040 C   0  0  0  0  0  0  0  0  0  0  0  0
   57.4080   32.0160   43.1350 N   0  0  0  0  0  0  0  0  0  0  0  0
   56.9710   30.7950   42.7120 C   0  0  0  0  0  0  0  0  0  0  0  0
   57.2350   29.6740   43.4490 N   0  0  0  0  0  0  0  0  0  0  0  0
   57.9230   29.7360   44.6260 C   0  0  0  0  0  0  0  0  0  0  0  0
   58.2780   28.5260   45.3030 N   0  0  0  0  0  0  0  0  0  0  0  0
   59.6350   28.0080   45.0810 C   0  0  0  0  0  0  0  0  0  0  0  0
   59.9490   26.8470   46.0450 C   0  0  0  0  0  0  0  0  0  0  0  0
   58.8910   25.9050   46.0790 O   0  0  0  0  0  0  0  0  0  0  0  0
   57.7340   26.5250   46.6090 C   0  0  0  0  0  0  0  0  0  0  0  0
   57.2140   27.5760   45.6270 C   0  0  0  0  0  0  0  0  0  0  0  0
   58.3600   30.9910   45.0680 C   0  0  0  0  0  0  0  0  0  0  0  0
   60.9712   30.0169   48.5909 H   0  0  0  0  0  0  0  0  0  0  0  0
   60.7142   29.1541   47.0365 H   0  0  0  0  0  0  0  0  0  0  0  0
   61.3448   30.8361   47.0365 H   0  0  0  0  0  0  0  0  0  0  0  0
   58.5359   29.8216   47.5146 H   0  0  0  0  0  0  0  0  0  0  0  0
   59.0763   31.3357   48.3362 H   0  0  0  0  0  0  0  0  0  0  0  0
   60.7149   34.9365   49.1590 H   0  0  0  0  0  0  0  0  0  0  0  0
   61.1225   33.1906   49.4369 H   0  0  0  0  0  0  0  0  0  0  0  0
   62.9952   35.4469   48.6053 H   0  0  0  0  0  0  0  0  0  0  0  0
   63.0208   34.4411   50.1183 H   0  0  0  0  0  0  0  0  0  0  0  0
   64.7538   33.9087   48.3119 H   0  0  0  0  0  0  0  0  0  0  0  0
   64.0963   30.2794   51.1821 H   0  0  0  0  0  0  0  0  0  0  0  0
   66.0463   29.9088   52.6899 H   0  0  0  0  0  0  0  0  0  0  0  0
   68.1507   33.1704   50.7934 H   0  0  0  0  0  0  0  0  0  0  0  0
   66.2148   33.5386   49.2658 H   0  0  0  0  0  0  0  0  0  0  0  0
   64.2000   33.4286   46.2400 H   0  0  0  0  0  0  0  0  0  0  0  0
   63.1622   32.0446   46.8417 H   0  0  0  0  0  0  0  0  0  0  0  0
   62.3324   34.8948   46.2094 H   0  0  0  0  0  0  0  0  0  0  0  0
   61.7322   33.3372   45.5076 H   0  0  0  0  0  0  0  0  0  0  0  0
   58.4480   34.1920   44.5040 H   0  0  0  0  0  0  0  0  0  0  0  0
   57.2130   32.8750   42.5700 H   0  0  0  0  0  0  0  0  0  0  0  0
   56.4034   30.7118   41.7734 H   0  0  0  0  0  0  0  0  0  0  0  0
   59.7171   27.6473   44.0451 H   0  0  0  0  0  0  0  0  0  0  0  0
   60.3539   28.8199   45.2652 H   0  0  0  0  0  0  0  0  0  0  0  0
   60.8674   26.3423   45.7108 H   0  0  0  0  0  0  0  0  0  0  0  0
   60.0779   27.2607   47.0561 H   0  0  0  0  0  0  0  0  0  0  0  0
   56.9565   25.7651   46.7763 H   0  0  0  0  0  0  0  0  0  0  0  0
   57.9871   27.0121   47.5623 H   0  0  0  0  0  0  0  0  0  0  0  0
   56.8764   27.0787   44.7057 H   0  0  0  0  0  0  0  0  0  0  0  0
   56.3741   28.1169   46.0875 H   0  0  0  0  0  0  0  0  0  0  0  0
  1  2  1  0
  2  3  1  0
  3  4  2  0
  4  5  1  0
  5  6  2  0
  5  7  1  0
  7  8  1  0
  8  9  1  0
  9 10  1  0
 10 11  1  0
 11 12  2  0
 11 13  1  0
 13 14  2  0
 14 15  1  0
 15 16  2  0
 16 17  1  0
 16 18  1  0
 18 19  2  0
 10 20  1  0
 20 21  1  0
  4 22  1  0
 22 23  1  0
 23 24  2  0
 24 25  1  0
 25 26  2  0
 26 27  1  0
 27 28  1  0
 28 29  1  0
 29 30  1  0
 30 31  1  0
 31 32  1  0
 32 33  1  0
 27 34  2  0
 34  3  1  0
 21  7  1  0
 34 23  1  0
 19 13  1  0
 33 28  1  0
  1 35  1  0
  1 36  1  0
  1 37  1  0
  2 38  1  0
  2 39  1  0
  8 40  1  0
  8 41  1  0
  9 42  1  0
  9 43  1  0
 10 44  1  0
 14 45  1  0
 15 46  1  0
 18 47  1  0
 19 48  1  0
 20 49  1  0
 20 50  1  0
 21 51  1  0
 21 52  1  0
 22 53  1  0
 24 54  1  0
 25 55  1  0
 29 56  1  0
 29 57  1  0
 30 58  1  0
 30 59  1  0
 32 60  1  0
 32 61  1  0
 33 62  1  0
 33 63  1  0
M  CHG  1  24   1
M  END
>  <UniqueID>  (84) 
84

>  <SMILES>  (84) 
CCc1c(C(=O)N2CCC(C(=O)c3ccc(F)cc3)CC2)[nH]c2[nH+]cnc(N3CCOCC3)c12

>  <Energy>  (84) 
116.8018651244838

>  <Genealogy>  (84) 
CCc1c(C(=O)N2CCC(C(=O)c3ccc(F)cc3)CC2)[nH]c2[nH+]cnc(N3CCOCC3)c12 (protonated)
CCc1c(C(=O)N2CCC(C(=O)c3ccc(F)cc3)CC2)[nH]c2[nH+]cnc(N3CCOCC3)c12 (3D coordinates assigned)
CCc1c(C(=O)N2CCC(C(=O)c3ccc(F)cc3)CC2)[nH]c2[nH+]cnc(N3CCOCC3)c12 (nonaromatic ring conformer: 116.8018651244838 kcal/mol)

>  <smiles>  (84) 
CCc1c(C(=O)N2CCC(C(=O)c3ccc(F)cc3)CC2)[nH]c2ncnc(N3CCOCC3)c12

>  <score_type>  (84) 
oracle

>  <origin>  (84) 
adg

>  <m_score__min__energy>  (84) 
-7.9199999999999999

>  <m_primary>  (84) 
energy

$$$$
84:0
     RDKit          3D

 38 40  0  0  0  0  0  0  0  0999 V2000
   54.5370   25.0510   45.6080 O   0  0  0  0  0  0  0  0  0  0  0  0
   55.6670   24.6360   45.9760 C   0  0  0  0  0  0  0  0  0  0  0  0
   56.2810   25.2540   47.1150 N   0  0  0  0  0  0  0  0  0  0  0  0
   57.4790   26.0830   47.1020 C   0  0  0  0  0  0  0  0  0  0  0  0
   57.5550   26.8160   45.8020 C   0  0  0  0  0  0  0  0  0  0  0  0
   58.1960   26.3050   44.6750 C   0  0  0  0  0  0  0  0  0  0  0  0
   58.1390   27.4680   43.4610 S   0  0  0  0  0  0  0  0  0  0  0  0
   57.3140   28.6230   44.3600 C   0  0  0  0  0  0  0  0  0  0  0  0
   56.8860   30.2290   43.7930 S   0  0  0  0  0  0  0  0  0  0  0  0
   55.6450   30.6850   44.5080 O   0  0  0  0  0  0  0  0  0  0  0  0
   56.5810   30.1600   42.3230 O   0  0  0  0  0  0  0  0  0  0  0  0
   58.1770   31.3810   44.0600 N   0  0  0  0  0  0  0  0  0  0  0  0
   58.4920   31.4970   45.4870 C   0  0  0  0  0  0  0  0  0  0  0  0
   57.7700   32.7160   46.0380 C   0  0  0  0  0  0  0  0  0  0  0  0
   57.4080   33.5550   44.8290 C   0  0  0  0  0  0  0  0  0  0  0  0
   57.7910   32.7250   43.6110 C   0  0  0  0  0  0  0  0  0  0  0  0
   57.0650   28.1190   45.6280 C   0  0  0  0  0  0  0  0  0  0  0  0
   56.2700   23.5030   45.2460 C   0  0  0  0  0  0  0  0  0  0  0  0
   57.6210   23.2860   45.0200 C   0  0  0  0  0  0  0  0  0  0  0  0
   57.7070   22.1500   44.2460 C   0  0  0  0  0  0  0  0  0  0  0  0
   56.4100   21.7460   44.0310 C   0  0  0  0  0  0  0  0  0  0  0  0
   56.0440   20.6330   43.2840 O   0  0  0  0  0  0  0  0  0  0  0  0
   55.5220   22.5650   44.6260 N   0  0  0  0  0  0  0  0  0  0  0  0
   57.4352   26.8059   47.9300 H   0  0  0  0  0  0  0  0  0  0  0  0
   58.3693   25.4479   47.2209 H   0  0  0  0  0  0  0  0  0  0  0  0
   58.6600   25.3110   44.5933 H   0  0  0  0  0  0  0  0  0  0  0  0
   58.1547   30.5940   46.0169 H   0  0  0  0  0  0  0  0  0  0  0  0
   59.5777   31.6040   45.6278 H   0  0  0  0  0  0  0  0  0  0  0  0
   56.8625   32.4124   46.5805 H   0  0  0  0  0  0  0  0  0  0  0  0
   58.3972   33.2744   46.7485 H   0  0  0  0  0  0  0  0  0  0  0  0
   56.3290   33.7689   44.8216 H   0  0  0  0  0  0  0  0  0  0  0  0
   57.9325   34.5219   44.8383 H   0  0  0  0  0  0  0  0  0  0  0  0
   56.9329   32.6544   42.9264 H   0  0  0  0  0  0  0  0  0  0  0  0
   58.6312   33.1996   43.0830 H   0  0  0  0  0  0  0  0  0  0  0  0
   56.5392   28.6812   46.4137 H   0  0  0  0  0  0  0  0  0  0  0  0
   58.4576   23.8993   45.3861 H   0  0  0  0  0  0  0  0  0  0  0  0
   58.6231   21.6661   43.8764 H   0  0  0  0  0  0  0  0  0  0  0  0
   56.6390   19.8140   43.2500 H   0  0  0  0  0  0  0  0  0  0  0  0
  1  2  2  0
  2  3  1  0
  3  4  1  0
  4  5  1  0
  5  6  2  0
  6  7  1  0
  7  8  1  0
  8  9  1  0
  9 10  2  0
  9 11  2  0
  9 12  1  0
 12 13  1  0
 13 14  1  0
 14 15  1  0
 15 16  1  0
  8 17  2  0
  2 18  1  0
 18 19  2  0
 19 20  1  0
 20 21  2  0
 21 22  1  0
 21 23  1  0
 17  5  1  0
 23 18  1  0
 16 12  1  0
  4 24  1  0
  4 25  1  0
  6 26  1  0
 13 27  1  0
 13 28  1  0
 14 29  1  0
 14 30  1  0
 15 31  1  0
 15 32  1  0
 16 33  1  0
 16 34  1  0
 17 35  1  0
 19 36  1  0
 20 37  1  0
 22 38  1  0
M  CHG  2   3  -1  23  -1
M  END
>  <UniqueID>  (85) 
85

>  <SMILES>  (85) 
O=C([N-]Cc1csc(S(=O)(=O)N2CCCC2)c1)c1ccc(O)[n-]1

>  <Energy>  (85) 
89.82488703454312

>  <Genealogy>  (85) 
O=C([N-]Cc1csc(S(=O)(=O)N2CCCC2)c1)c1ccc(O)[n-]1 (protonated)
O=C([N-]Cc1csc(S(=O)(=O)N2CCCC2)c1)c1ccc(O)[n-]1 (3D coordinates assigned)
O=C([N-]Cc1csc(S(=O)(=O)N2CCCC2)c1)c1ccc(O)[n-]1 (nonaromatic ring conformer: 89.82488703454312 kcal/mol)

>  <smiles>  (85) 
O=C(NCc1csc(S(=O)(=O)N2CCCC2)c1)c1ccc(O)[nH]1

>  <score_type>  (85) 
oracle

>  <origin>  (85) 
adg

>  <m_score__min__energy>  (85) 
-12.640000000000001

>  <m_primary>  (85) 
energy

$$$$
85:0
     RDKit          3D

 46 48  0  0  0  0  0  0  0  0999 V2000
   57.1440   24.0420   47.2160 C   0  0  0  0  0  0  0  0  0  0  0  0
   57.9620   25.2160   47.7470 C   0  0  0  0  0  0  0  0  0  0  0  0
   58.3030   26.1600   46.6610 N   0  0  0  0  0  0  0  0  0  0  0  0
   59.7440   26.3410   46.3620 C   0  0  0  0  0  0  0  0  0  0  0  0
   60.5980   26.7560   47.5650 C   0  0  0  0  0  0  0  0  0  0  0  0
   57.4050   26.1240   45.4830 C   0  0  0  0  0  0  0  0  0  0  0  0
   56.0890   26.8480   45.6700 C   0  0  0  0  0  0  0  0  0  0  0  0
   55.1840   26.3260   46.3720 O   0  0  0  0  0  0  0  0  0  0  0  0
   55.9120   28.2060   45.2410 N   0  0  0  0  0  0  0  0  0  0  0  0
   56.8380   29.2840   45.4140 C   0  0  0  0  0  0  0  0  0  0  0  0
   56.7660   30.4400   44.6230 C   0  0  0  0  0  0  0  0  0  0  0  0
   57.6520   31.4990   44.8320 C   0  0  0  0  0  0  0  0  0  0  0  0
   58.6050   31.4320   45.8620 C   0  0  0  0  0  0  0  0  0  0  0  0
   58.6890   30.2610   46.6500 C   0  0  0  0  0  0  0  0  0  0  0  0
   57.7810   29.2130   46.4430 C   0  0  0  0  0  0  0  0  0  0  0  0
   59.7000   30.1810   47.7800 C   0  0  0  0  0  0  0  0  0  0  0  0
   60.9950   30.9580   47.4720 C   0  0  0  0  0  0  0  0  0  0  0  0
   60.6590   32.2870   46.8680 C   0  0  0  0  0  0  0  0  0  0  0  0
   61.3920   33.4060   46.9650 N   0  0  0  0  0  0  0  0  0  0  0  0
   60.7610   34.3580   46.2960 N   0  0  0  0  0  0  0  0  0  0  0  0
   59.6440   33.7920   45.7840 C   0  0  0  0  0  0  0  0  0  0  0  0
   58.6300   34.5770   45.0160 C   0  0  0  0  0  0  0  0  0  0  0  0
   59.5670   32.4770   46.1110 N   0  0  0  0  0  0  0  0  0  0  0  0
   56.7412   23.4639   48.0607 H   0  0  0  0  0  0  0  0  0  0  0  0
   56.3137   24.4214   46.6023 H   0  0  0  0  0  0  0  0  0  0  0  0
   57.7875   23.3945   46.6023 H   0  0  0  0  0  0  0  0  0  0  0  0
   57.3759   25.7454   48.5127 H   0  0  0  0  0  0  0  0  0  0  0  0
   58.8960   24.8255   48.1774 H   0  0  0  0  0  0  0  0  0  0  0  0
   60.1363   25.3890   45.9748 H   0  0  0  0  0  0  0  0  0  0  0  0
   59.8105   27.1630   45.6341 H   0  0  0  0  0  0  0  0  0  0  0  0
   60.0701   26.4995   48.4953 H   0  0  0  0  0  0  0  0  0  0  0  0
   61.5610   26.2254   47.5316 H   0  0  0  0  0  0  0  0  0  0  0  0
   60.7759   27.8410   47.5316 H   0  0  0  0  0  0  0  0  0  0  0  0
   57.9328   26.5854   44.6353 H   0  0  0  0  0  0  0  0  0  0  0  0
   57.1567   25.0659   45.3132 H   0  0  0  0  0  0  0  0  0  0  0  0
   56.0055   30.5130   43.8316 H   0  0  0  0  0  0  0  0  0  0  0  0
   57.6035   32.3892   44.1876 H   0  0  0  0  0  0  0  0  0  0  0  0
   57.8111   28.3280   47.0956 H   0  0  0  0  0  0  0  0  0  0  0  0
   59.2455   30.6001   48.6898 H   0  0  0  0  0  0  0  0  0  0  0  0
   59.9695   29.1227   47.9120 H   0  0  0  0  0  0  0  0  0  0  0  0
   61.5583   31.1126   48.4041 H   0  0  0  0  0  0  0  0  0  0  0  0
   61.6044   30.3803   46.7615 H   0  0  0  0  0  0  0  0  0  0  0  0
   62.2920   33.5310   47.4790 H   0  0  0  0  0  0  0  0  0  0  0  0
   57.9599   35.0958   45.7173 H   0  0  0  0  0  0  0  0  0  0  0  0
   59.1417   35.3167   44.3827 H   0  0  0  0  0  0  0  0  0  0  0  0
   58.0421   33.8963   44.3827 H   0  0  0  0  0  0  0  0  0  0  0  0
  1  2  1  0
  2  3  1  0
  3  4  1  0
  4  5  1  0
  3  6  1  0
  6  7  1  0
  7  8  2  0
  7  9  1  0
  9 10  1  0
 10 11  2  0
 11 12  1  0
 12 13  2  0
 13 14  1  0
 14 15  2  0
 14 16  1  0
 16 17  1  0
 17 18  1  0
 18 19  2  0
 19 20  1  0
 20 21  2  0
 21 22  1  0
 21 23  1  0
 15 10  1  0
 23 18  1  0
 23 13  1  0
  1 24  1  0
  1 25  1  0
  1 26  1  0
  2 27  1  0
  2 28  1  0
  4 29  1  0
  4 30  1  0
  5 31  1  0
  5 32  1  0
  5 33  1  0
  6 34  1  0
  6 35  1  0
 11 36  1  0
 12 37  1  0
 15 38  1  0
 16 39  1  0
 16 40  1  0
 17 41  1  0
 17 42  1  0
 19 43  1  0
 22 44  1  0
 22 45  1  0
 22 46  1  0
M  CHG  2   9  -1  19   1
M  END
>  <UniqueID>  (86) 
86

>  <SMILES>  (86) 
CCN(CC)CC(=O)[N-]c1ccc2c(c1)CCc1[nH+]nc(C)n1-2

>  <Energy>  (86) 
101.21940832217666

>  <Genealogy>  (86) 
CCN(CC)CC(=O)[N-]c1ccc2c(c1)CCc1[nH+]nc(C)n1-2 (protonated)
CCN(CC)CC(=O)[N-]c1ccc2c(c1)CCc1[nH+]nc(C)n1-2 (3D coordinates assigned)
CCN(CC)CC(=O)[N-]c1ccc2c(c1)CCc1[nH+]nc(C)n1-2 (nonaromatic ring conformer: 101.21940832217666 kcal/mol)

>  <smiles>  (86) 
CCN(CC)CC(=O)Nc1ccc2c(c1)CCc1nnc(C)n1-2

>  <score_type>  (86) 
oracle

>  <origin>  (86) 
adg

>  <m_score__min__energy>  (86) 
-7.8099999999999996

>  <m_primary>  (86) 
energy

$$$$
86:0
     RDKit          3D

 47 50  0  0  0  0  0  0  0  0999 V2000
   56.0389   28.4653   43.2748 H   0  0  0  0  0  0  0  0  0  0  0  0
   56.2210   29.4140   43.8010 C   0  0  0  0  0  0  0  0  0  0  0  0
   55.7134   30.3323   43.4708 H   0  0  0  0  0  0  0  0  0  0  0  0
   57.0610   29.4510   44.8440 C   0  0  0  0  0  0  0  0  0  0  0  0
   57.2320   30.6610   45.4400 N   0  0  0  0  0  0  0  0  0  0  0  0
   58.1960   30.9020   46.3590 C   0  0  0  0  0  0  0  0  0  0  0  0
   58.2522   31.8852   46.8490 H   0  0  0  0  0  0  0  0  0  0  0  0
   59.1180   29.9090   46.6870 C   0  0  0  0  0  0  0  0  0  0  0  0
   60.2160   30.2210   47.6320 C   0  0  0  0  0  0  0  0  0  0  0  0
   60.3510   29.5100   48.6650 O   0  0  0  0  0  0  0  0  0  0  0  0
   61.1240   31.3170   47.4020 N   0  0  0  0  0  0  0  0  0  0  0  0
   62.4890   31.2410   47.9320 C   0  0  0  0  0  0  0  0  0  0  0  0
   62.4450   31.1901   49.0299 H   0  0  0  0  0  0  0  0  0  0  0  0
   62.9724   30.3427   47.5205 H   0  0  0  0  0  0  0  0  0  0  0  0
   63.3140   32.4670   47.5210 C   0  0  0  0  0  0  0  0  0  0  0  0
   64.2605   32.4590   48.0814 H   0  0  0  0  0  0  0  0  0  0  0  0
   63.4852   32.4057   46.4361 H   0  0  0  0  0  0  0  0  0  0  0  0
   62.6110   33.7430   47.7940 N   0  0  0  0  0  0  0  0  0  0  0  0
   63.0070   34.3450   49.0960 C   0  0  0  0  0  0  0  0  0  0  0  0
   63.2641   35.3439   48.7138 H   0  0  0  0  0  0  0  0  0  0  0  0
   64.0350   33.5580   49.9120 C   0  0  0  0  0  0  0  0  0  0  0  0
   64.3467   32.6098   49.4496 H   0  0  0  0  0  0  0  0  0  0  0  0
   65.0291   33.9814   50.1180 H   0  0  0  0  0  0  0  0  0  0  0  0
   63.0110   33.4000   51.0320 C   0  0  0  0  0  0  0  0  0  0  0  0
   62.7249   32.3569   51.2323 H   0  0  0  0  0  0  0  0  0  0  0  0
   63.2599   33.7149   52.0562 H   0  0  0  0  0  0  0  0  0  0  0  0
   61.9820   34.1800   50.2200 C   0  0  0  0  0  0  0  0  0  0  0  0
   61.0941   33.5953   49.9376 H   0  0  0  0  0  0  0  0  0  0  0  0
   61.4777   35.0576   50.6508 H   0  0  0  0  0  0  0  0  0  0  0  0
   61.1620   33.7680   47.4480 C   0  0  0  0  0  0  0  0  0  0  0  0
   60.5820   33.8414   48.3798 H   0  0  0  0  0  0  0  0  0  0  0  0
   60.9999   34.6335   46.7888 H   0  0  0  0  0  0  0  0  0  0  0  0
   60.6980   32.5220   46.6830 C   0  0  0  0  0  0  0  0  0  0  0  0
   59.6012   32.5305   46.6002 H   0  0  0  0  0  0  0  0  0  0  0  0
   61.1430   32.5239   45.6770 H   0  0  0  0  0  0  0  0  0  0  0  0
   58.9440   28.6190   46.1520 C   0  0  0  0  0  0  0  0  0  0  0  0
   59.7250   27.6960   46.5190 O   0  0  0  0  0  0  0  0  0  0  0  0
   57.8660   28.3410   45.2660 C   0  0  0  0  0  0  0  0  0  0  0  0
   57.6500   27.0480   44.8980 C   0  0  0  0  0  0  0  0  0  0  0  0
   57.8977   26.7785   43.8607 H   0  0  0  0  0  0  0  0  0  0  0  0
   57.1160   25.9740   45.7560 C   0  0  0  0  0  0  0  0  0  0  0  0
   57.8800   25.0100   46.2970 N   0  0  0  0  0  0  0  0  0  0  0  0
   57.0160   24.3240   47.0770 C   0  0  0  0  0  0  0  0  0  0  0  0
   57.3620   23.3180   47.7490 O   0  0  0  0  0  0  0  0  0  0  0  0
   55.7560   24.8080   47.0880 N   0  0  0  0  0  0  0  0  0  0  0  0
   55.8380   25.8610   46.2580 C   0  0  0  0  0  0  0  0  0  0  0  0
   54.7750   26.7160   45.9930 O   0  0  0  0  0  0  0  0  0  0  0  0
  1  2  1  0
  2  3  1  0
  2  4  2  0
  4  5  1  0
  5  6  1  0
  6  7  1  0
  6  8  2  0
  8  9  1  0
  9 10  2  0
  9 11  1  0
 11 12  1  0
 12 13  1  0
 12 14  1  0
 12 15  1  0
 15 16  1  0
 15 17  1  0
 15 18  1  0
 18 19  1  0
 19 20  1  0
 19 21  1  0
 21 22  1  0
 21 23  1  0
 21 24  1  0
 24 25  1  0
 24 26  1  0
 24 27  1  0
 27 28  1  0
 27 29  1  0
 18 30  1  0
 30 31  1  0
 30 32  1  0
 30 33  1  0
 33 34  1  0
 33 35  1  0
  8 36  1  0
 36 37  2  0
 36 38  1  0
 38 39  2  0
 39 40  1  0
 39 41  1  0
 41 42  1  0
 42 43  1  0
 43 44  2  0
 43 45  1  0
 45 46  1  0
 46 47  1  0
 38  4  1  0
 46 41  2  0
 33 11  1  0
 27 19  1  0
M  CHG  4   5  -1  42  -1  45  -1  47  -1
M  END
>  <UniqueID>  (87) 
87

>  <SMILES>  (87) 
C=c1[n-]cc(C(=O)N2CCN(C3CCC3)CC2)c(=O)/c1=C/c1[n-]c(=O)[n-]c1[O-]

>  <Energy>  (87) 
182.09628124329635

>  <Genealogy>  (87) 
C=c1[n-]cc(C(=O)N2CCN(C3CCC3)CC2)c(=O)c1=Cc1[n-]c(=O)[n-]c1[O-] (protonated)
C=c1[n-]cc(C(=O)N2CCN(C3CCC3)CC2)c(=O)/c1=C/c1[n-]c(=O)[n-]c1[O-] (cis-trans isomerization)
C=c1[n-]cc(C(=O)N2CCN(C3CCC3)CC2)c(=O)/c1=C/c1[n-]c(=O)[n-]c1[O-] (3D coordinates assigned)
C=c1[n-]cc(C(=O)N2CCN(C3CCC3)CC2)c(=O)/c1=C/c1[n-]c(=O)[n-]c1[O-] (nonaromatic ring conformer: 182.09628124329635 kcal/mol)

>  <smiles>  (87) 
C=c1[nH]cc(C(=O)N2CCN(C3CCC3)CC2)c(=O)c1=Cc1[nH]c(=O)[nH]c1O

>  <score_type>  (87) 
oracle

>  <origin>  (87) 
adg

>  <m_score__min__energy>  (87) 
-17.77

>  <m_primary>  (87) 
energy

$$$$
87:0
     RDKit          3D

 60 63  0  0  0  0  0  0  0  0999 V2000
   57.1520   22.1920   44.8060 O   0  0  0  0  0  0  0  0  0  0  0  0
   57.8090   22.7650   45.7160 C   0  0  0  0  0  0  0  0  0  0  0  0
   58.8700   23.7650   45.3720 C   0  0  0  0  0  0  0  0  0  0  0  0
   58.4150   25.1670   45.6710 C   0  0  0  0  0  0  0  0  0  0  0  0
   58.7020   25.7500   46.9130 C   0  0  0  0  0  0  0  0  0  0  0  0
   58.3380   27.0770   47.1680 C   0  0  0  0  0  0  0  0  0  0  0  0
   57.6970   27.8340   46.1830 C   0  0  0  0  0  0  0  0  0  0  0  0
   57.4860   29.2330   46.3680 N   0  0  0  0  0  0  0  0  0  0  0  0
   57.3840   30.2870   44.9850 S   0  0  0  0  0  0  0  0  0  0  0  0
   55.9450   30.4250   44.5470 O   0  0  0  0  0  0  0  0  0  0  0  0
   58.1960   29.7080   43.8520 O   0  0  0  0  0  0  0  0  0  0  0  0
   58.0430   31.8680   45.4100 C   0  0  0  0  0  0  0  0  0  0  0  0
   57.8230   32.9740   44.5740 C   0  0  0  0  0  0  0  0  0  0  0  0
   58.2700   34.2380   44.9540 C   0  0  0  0  0  0  0  0  0  0  0  0
   58.9410   34.4100   46.1670 C   0  0  0  0  0  0  0  0  0  0  0  0
   59.1730   33.3110   47.0050 C   0  0  0  0  0  0  0  0  0  0  0  0
   60.0740   33.5280   48.5050 S   0  0  0  0  0  0  0  0  0  0  0  0
   59.1980   33.2050   49.6850 O   0  0  0  0  0  0  0  0  0  0  0  0
   60.5000   34.9670   48.6050 O   0  0  0  0  0  0  0  0  0  0  0  0
   61.4850   32.4890   48.4940 N   0  0  0  0  0  0  0  0  0  0  0  0
   62.5790   33.0980   49.2610 C   0  0  0  0  0  0  0  0  0  0  0  0
   63.4650   33.8680   48.2930 C   0  0  0  0  0  0  0  0  0  0  0  0
   63.0990   33.3620   46.9090 C   0  0  0  0  0  0  0  0  0  0  0  0
   62.0030   32.3330   47.1260 C   0  0  0  0  0  0  0  0  0  0  0  0
   58.7140   32.0420   46.6280 C   0  0  0  0  0  0  0  0  0  0  0  0
   57.3870   27.2510   44.9500 C   0  0  0  0  0  0  0  0  0  0  0  0
   57.7530   25.9270   44.6910 C   0  0  0  0  0  0  0  0  0  0  0  0
   57.4930   22.5250   47.0930 N   0  0  0  0  0  0  0  0  0  0  0  0
   56.5110   23.2920   47.8480 C   0  0  0  0  0  0  0  0  0  0  0  0
   55.2400   23.4150   47.0510 C   0  0  0  0  0  0  0  0  0  0  0  0
   55.1310   24.3680   46.0230 C   0  0  0  0  0  0  0  0  0  0  0  0
   53.9480   24.4760   45.2840 C   0  0  0  0  0  0  0  0  0  0  0  0
   52.8770   23.6230   45.5500 C   0  0  0  0  0  0  0  0  0  0  0  0
   52.9860   22.6570   46.5530 C   0  0  0  0  0  0  0  0  0  0  0  0
   54.1630   22.5480   47.2990 C   0  0  0  0  0  0  0  0  0  0  0  0
   54.2520   21.5940   48.2560 F   0  0  0  0  0  0  0  0  0  0  0  0
   59.7726   23.5474   45.9619 H   0  0  0  0  0  0  0  0  0  0  0  0
   59.0823   23.6904   44.2953 H   0  0  0  0  0  0  0  0  0  0  0  0
   59.2147   25.1629   47.6892 H   0  0  0  0  0  0  0  0  0  0  0  0
   58.5572   27.5263   48.1478 H   0  0  0  0  0  0  0  0  0  0  0  0
   57.2967   32.8427   43.6170 H   0  0  0  0  0  0  0  0  0  0  0  0
   58.0940   35.1025   44.2970 H   0  0  0  0  0  0  0  0  0  0  0  0
   59.2881   35.4103   46.4651 H   0  0  0  0  0  0  0  0  0  0  0  0
   62.1678   33.7841   50.0161 H   0  0  0  0  0  0  0  0  0  0  0  0
   63.1628   32.3200   49.7747 H   0  0  0  0  0  0  0  0  0  0  0  0
   63.2698   34.9478   48.3705 H   0  0  0  0  0  0  0  0  0  0  0  0
   64.5324   33.7163   48.5114 H   0  0  0  0  0  0  0  0  0  0  0  0
   62.7312   34.1884   46.2831 H   0  0  0  0  0  0  0  0  0  0  0  0
   63.9675   32.9282   46.3918 H   0  0  0  0  0  0  0  0  0  0  0  0
   61.1920   32.4953   46.4008 H   0  0  0  0  0  0  0  0  0  0  0  0
   62.4039   31.3182   46.9867 H   0  0  0  0  0  0  0  0  0  0  0  0
   58.8808   31.1796   47.2901 H   0  0  0  0  0  0  0  0  0  0  0  0
   56.8551   27.8344   44.1840 H   0  0  0  0  0  0  0  0  0  0  0  0
   57.5216   25.4770   43.7143 H   0  0  0  0  0  0  0  0  0  0  0  0
   56.2986   22.7793   48.7978 H   0  0  0  0  0  0  0  0  0  0  0  0
   56.9117   24.2961   48.0511 H   0  0  0  0  0  0  0  0  0  0  0  0
   55.9793   25.0314   45.7989 H   0  0  0  0  0  0  0  0  0  0  0  0
   53.8624   25.2347   44.4921 H   0  0  0  0  0  0  0  0  0  0  0  0
   51.9465   23.7110   44.9699 H   0  0  0  0  0  0  0  0  0  0  0  0
   52.1431   21.9801   46.7564 H   0  0  0  0  0  0  0  0  0  0  0  0
  1  2  2  0
  2  3  1  0
  3  4  1  0
  4  5  2  0
  5  6  1  0
  6  7  2  0
  7  8  1  0
  8  9  1  0
  9 10  2  0
  9 11  2  0
  9 12  1  0
 12 13  2  0
 13 14  1  0
 14 15  2  0
 15 16  1  0
 16 17  1  0
 17 18  2  0
 17 19  2  0
 17 20  1  0
 20 21  1  0
 21 22  1  0
 22 23  1  0
 23 24  1  0
 16 25  2  0
  7 26  1  0
 26 27  2  0
  2 28  1  0
 28 29  1  0
 29 30  1  0
 30 31  2  0
 31 32  1  0
 32 33  2  0
 33 34  1  0
 34 35  2  0
 35 36  1  0
 27  4  1  0
 35 30  1  0
 25 12  1  0
 24 20  1  0
  3 37  1  0
  3 38  1  0
  5 39  1  0
  6 40  1  0
 13 41  1  0
 14 42  1  0
 15 43  1  0
 21 44  1  0
 21 45  1  0
 22 46  1  0
 22 47  1  0
 23 48  1  0
 23 49  1  0
 24 50  1  0
 24 51  1  0
 25 52  1  0
 26 53  1  0
 27 54  1  0
 29 55  1  0
 29 56  1  0
 31 57  1  0
 32 58  1  0
 33 59  1  0
 34 60  1  0
M  CHG  2   8  -1  28  -1
M  END
>  <UniqueID>  (88) 
88

>  <SMILES>  (88) 
O=C(Cc1ccc([N-]S(=O)(=O)c2cccc(S(=O)(=O)N3CCCC3)c2)cc1)[N-]Cc1ccccc1F

>  <Energy>  (88) 
67.6374493893724

>  <Genealogy>  (88) 
O=C(Cc1ccc([N-]S(=O)(=O)c2cccc(S(=O)(=O)N3CCCC3)c2)cc1)[N-]Cc1ccccc1F (protonated)
O=C(Cc1ccc([N-]S(=O)(=O)c2cccc(S(=O)(=O)N3CCCC3)c2)cc1)[N-]Cc1ccccc1F (3D coordinates assigned)
O=C(Cc1ccc([N-]S(=O)(=O)c2cccc(S(=O)(=O)N3CCCC3)c2)cc1)[N-]Cc1ccccc1F (nonaromatic ring conformer: 67.6374493893724 kcal/mol)

>  <smiles>  (88) 
O=C(Cc1ccc(NS(=O)(=O)c2cccc(S(=O)(=O)N3CCCC3)c2)cc1)NCc1ccccc1F

>  <score_type>  (88) 
oracle

>  <origin>  (88) 
adg

>  <m_score__min__energy>  (88) 
-13.619999999999999

>  <m_primary>  (88) 
energy

$$$$
88:0
     RDKit          3D

 53 56  0  0  1  0  0  0  0  0999 V2000
   64.6260   32.6690   50.4800 C   0  0  0  0  0  0  0  0  0  0  0  0
   63.6690   31.7570   50.3910 C   0  0  0  0  0  0  0  0  0  0  0  0
   63.4220   30.7480   51.2440 N   0  0  0  0  0  0  0  0  0  0  0  0
   62.3680   30.0380   50.8140 N   0  0  0  0  0  0  0  0  0  0  0  0
   61.9070   30.5740   49.6670 C   0  0  0  0  0  0  0  0  0  0  0  0
   60.9240   30.1640   48.9780 O   0  0  0  0  0  0  0  0  0  0  0  0
   62.7190   31.6500   49.3970 C   0  0  0  0  0  0  0  0  0  0  0  0
   62.6190   32.4720   48.3500 C   0  0  0  0  0  0  0  0  0  0  0  0
   61.3250   32.9760   47.8980 C   0  0  0  0  0  0  0  0  0  0  0  0
   60.6560   32.2560   46.9310 C   0  0  0  0  0  0  0  0  0  0  0  0
   61.1460   31.0880   46.3710 O   0  0  0  0  0  0  0  0  0  0  0  0
   59.4660   32.7390   46.5310 N   0  0  0  0  0  0  0  0  0  0  0  0
   58.6700   32.0910   45.5350 C   0  0  0  0  0  0  0  0  0  0  0  0
   58.4100   32.7020   44.3130 C   0  0  0  0  0  0  0  0  0  0  0  0
   57.6330   32.0070   43.4080 C   0  0  0  0  0  0  0  0  0  0  0  0
   57.1270   30.7470   43.6980 C   0  0  0  0  0  0  0  0  0  0  0  0
   56.3020   30.0970   42.6420 C   0  0  0  0  0  0  0  0  0  0  0  0
   57.3870   30.1420   44.9150 C   0  0  0  0  0  0  0  0  0  0  0  0
   56.8540   28.8390   45.1940 C   0  0  0  0  0  0  0  0  0  0  0  0
   55.5900   28.7140   45.2340 O   0  0  0  0  0  0  0  0  0  0  0  0
   57.6310   27.6950   45.4240 N   0  0  0  0  0  0  0  0  0  0  0  0
   56.9920   26.4210   45.6980 C   0  0  0  0  0  0  0  0  0  0  0  0
   57.6450   25.8200   46.9230 C   0  0  0  0  0  0  0  0  0  0  0  0
   59.0340   25.7570   46.6770 O   0  0  0  0  0  0  0  0  0  0  0  0
   59.5660   27.0290   46.6830 C   0  0  0  0  0  0  0  0  0  0  0  0
   59.0820   27.7220   45.4030 C   0  0  0  0  0  0  0  0  0  0  0  0
   58.1740   30.8340   45.8430 C   0  0  0  0  0  0  0  0  0  0  0  0
   58.9560   33.8810   47.0570 C   0  0  0  0  0  0  0  0  0  0  0  0
   57.8250   34.3230   46.6630 O   0  0  0  0  0  0  0  0  0  0  0  0
   59.5880   34.5960   47.9970 N   0  0  0  0  0  0  0  0  0  0  0  0
   60.7850   34.1350   48.4190 C   0  0  0  0  0  0  0  0  0  0  0  0
   61.4410   34.7580   49.3050 O   0  0  0  0  0  0  0  0  0  0  0  0
   64.7182   33.4467   49.7075 H   0  0  0  0  0  0  0  0  0  0  0  0
   65.3283   32.6485   51.3264 H   0  0  0  0  0  0  0  0  0  0  0  0
   63.9810   30.5740   52.0980 H   0  0  0  0  0  0  0  0  0  0  0  0
   62.0050   29.2090   51.3260 H   0  0  0  0  0  0  0  0  0  0  0  0
   63.5312   32.7764   47.8160 H   0  0  0  0  0  0  0  0  0  0  0  0
   61.3310   30.2360   46.8740 H   0  0  0  0  0  0  0  0  0  0  0  0
   58.8079   33.7000   44.0768 H   0  0  0  0  0  0  0  0  0  0  0  0
   57.4091   32.4630   42.4324 H   0  0  0  0  0  0  0  0  0  0  0  0
   55.5213   29.4819   43.1134 H   0  0  0  0  0  0  0  0  0  0  0  0
   55.8318   30.8700   42.0164 H   0  0  0  0  0  0  0  0  0  0  0  0
   56.9435   29.4590   42.0164 H   0  0  0  0  0  0  0  0  0  0  0  0
   55.9191   26.5750   45.8854 H   0  0  0  0  0  0  0  0  0  0  0  0
   57.1046   25.7459   44.8369 H   0  0  0  0  0  0  0  0  0  0  0  0
   57.4477   26.4517   47.8016 H   0  0  0  0  0  0  0  0  0  0  0  0
   57.2416   24.8165   47.1236 H   0  0  0  0  0  0  0  0  0  0  0  0
   59.2155   27.5812   47.5675 H   0  0  0  0  0  0  0  0  0  0  0  0
   60.6649   26.9954   46.7204 H   0  0  0  0  0  0  0  0  0  0  0  0
   59.4395   28.7620   45.3790 H   0  0  0  0  0  0  0  0  0  0  0  0
   59.4697   27.2093   44.5103 H   0  0  0  0  0  0  0  0  0  0  0  0
   58.3993   30.3791   46.8189 H   0  0  0  0  0  0  0  0  0  0  0  0
   59.1620   35.4550   48.3660 H   0  0  0  0  0  0  0  0  0  0  0  0
  1  2  2  0
  2  3  1  0
  3  4  1  0
  4  5  1  0
  5  6  2  0
  5  7  1  0
  7  8  2  0
  8  9  1  0
  9 10  2  0
 10 11  1  0
 10 12  1  0
 12 13  1  0
 13 14  2  0
 14 15  1  0
 15 16  2  0
 16 17  1  0
 16 18  1  0
 18 19  1  0
 19 20  2  0
 19 21  1  0
 21 22  1  0
 22 23  1  0
 23 24  1  0
 24 25  1  0
 25 26  1  0
 18 27  2  0
 12 28  1  0
 28 29  2  0
 28 30  1  0
 30 31  1  0
 31 32  2  0
  7  2  1  0
 31  9  1  0
 27 13  1  0
 26 21  1  0
  1 33  1  0
  1 34  1  0
  3 35  1  0
  4 36  1  0
  8 37  1  0
 11 38  1  0
 14 39  1  0
 15 40  1  0
 17 41  1  0
 17 42  1  0
 17 43  1  0
 22 44  1  0
 22 45  1  0
 23 46  1  0
 23 47  1  0
 25 48  1  0
 25 49  1  0
 26 50  1  0
 26 51  1  0
 27 52  1  0
 30 53  1  0
M  END
>  <smiles>  (89) 
C=c1[nH][nH]c(=O)c1=Cc1c(O)n(-c2ccc(C)c(C(=O)N3CCOCC3)c2)c(=O)[nH]c1=O

>  <score_type>  (89) 
oracle

>  <origin>  (89) 
adg

>  <m_score__min__energy>  (89) 
-9.8100000000000005

>  <m_primary>  (89) 
energy

$$$$
89:0
     RDKit          3D

 63 66  0  0  0  0  0  0  0  0999 V2000
   55.1520   29.4460   44.8710 O   0  0  0  0  0  0  0  0  0  0  0  0
   56.3980   29.5520   44.7250 C   0  0  0  0  0  0  0  0  0  0  0  0
   57.0260   29.1180   43.4220 C   0  0  0  0  0  0  0  0  0  0  0  0
   57.9820   27.9240   43.5790 C   0  0  0  0  0  0  0  0  0  0  0  0
   58.8220   28.0180   44.8280 C   0  0  0  0  0  0  0  0  0  0  0  0
   58.5530   27.1860   45.9290 C   0  0  0  0  0  0  0  0  0  0  0  0
   59.3200   27.2880   47.0940 C   0  0  0  0  0  0  0  0  0  0  0  0
   60.3790   28.1970   47.1590 C   0  0  0  0  0  0  0  0  0  0  0  0
   60.6620   29.0180   46.0650 C   0  0  0  0  0  0  0  0  0  0  0  0
   59.8830   28.9360   44.9060 C   0  0  0  0  0  0  0  0  0  0  0  0
   57.1420   30.2590   45.7260 N   0  0  0  0  0  0  0  0  0  0  0  0
   57.6980   31.5730   45.6150 C   0  0  0  0  0  0  0  0  0  0  0  0
   57.0330   32.5230   44.8310 C   0  0  0  0  0  0  0  0  0  0  0  0
   57.5130   33.8320   44.7500 C   0  0  0  0  0  0  0  0  0  0  0  0
   58.6480   34.2080   45.4730 C   0  0  0  0  0  0  0  0  0  0  0  0
   59.3070   33.2810   46.2910 C   0  0  0  0  0  0  0  0  0  0  0  0
   60.4220   33.7150   47.0230 O   0  0  0  0  0  0  0  0  0  0  0  0
   61.7010   33.9710   46.4550 C   0  0  0  0  0  0  0  0  0  0  0  0
   62.7500   33.2670   47.2630 C   0  0  0  0  0  0  0  0  0  0  0  0
   63.8790   33.0620   46.7370 O   0  0  0  0  0  0  0  0  0  0  0  0
   62.4610   32.7150   48.5610 N   0  0  0  0  0  0  0  0  0  0  0  0
   62.9670   31.3700   48.8790 C   0  0  0  0  0  0  0  0  0  0  0  0
   62.4580   30.8880   50.2440 C   0  0  0  0  0  0  0  0  0  0  0  0
   61.0290   31.2060   50.3840 N   0  0  0  0  0  0  0  0  0  0  0  0
   60.0630   30.1490   50.5470 C   0  0  0  0  0  0  0  0  0  0  0  0
   60.2700   29.0280   50.0080 O   0  0  0  0  0  0  0  0  0  0  0  0
   58.8120   30.3590   51.3050 C   0  0  0  0  0  0  0  0  0  0  0  0
   57.9200   31.3790   50.9280 C   0  0  0  0  0  0  0  0  0  0  0  0
   56.7360   31.5830   51.6450 C   0  0  0  0  0  0  0  0  0  0  0  0
   56.4260   30.7590   52.7300 C   0  0  0  0  0  0  0  0  0  0  0  0
   57.2950   29.7290   53.0990 C   0  0  0  0  0  0  0  0  0  0  0  0
   58.4820   29.5250   52.3870 C   0  0  0  0  0  0  0  0  0  0  0  0
   60.5620   32.5770   50.1120 C   0  0  0  0  0  0  0  0  0  0  0  0
   61.6950   33.4590   49.5720 C   0  0  0  0  0  0  0  0  0  0  0  0
   58.8220   31.9590   46.3640 C   0  0  0  0  0  0  0  0  0  0  0  0
   56.2240   28.8345   42.7246 H   0  0  0  0  0  0  0  0  0  0  0  0
   57.6193   29.9649   43.0468 H   0  0  0  0  0  0  0  0  0  0  0  0
   57.3877   26.9994   43.6222 H   0  0  0  0  0  0  0  0  0  0  0  0
   58.6642   27.9259   42.7161 H   0  0  0  0  0  0  0  0  0  0  0  0
   57.7358   26.4517   45.8738 H   0  0  0  0  0  0  0  0  0  0  0  0
   59.0891   26.6513   47.9608 H   0  0  0  0  0  0  0  0  0  0  0  0
   60.9896   28.2661   48.0713 H   0  0  0  0  0  0  0  0  0  0  0  0
   61.4988   29.7302   46.1149 H   0  0  0  0  0  0  0  0  0  0  0  0
   60.1021   29.5933   44.0516 H   0  0  0  0  0  0  0  0  0  0  0  0
   56.1275   32.2370   44.2757 H   0  0  0  0  0  0  0  0  0  0  0  0
   56.9968   34.5680   44.1161 H   0  0  0  0  0  0  0  0  0  0  0  0
   59.0264   35.2382   45.3995 H   0  0  0  0  0  0  0  0  0  0  0  0
   61.7243   33.6007   45.4195 H   0  0  0  0  0  0  0  0  0  0  0  0
   61.8967   35.0534   46.4587 H   0  0  0  0  0  0  0  0  0  0  0  0
   62.6289   30.6678   48.1027 H   0  0  0  0  0  0  0  0  0  0  0  0
   64.0656   31.4132   48.9150 H   0  0  0  0  0  0  0  0  0  0  0  0
   62.5993   29.8000   50.3229 H   0  0  0  0  0  0  0  0  0  0  0  0
   63.0223   31.3941   51.0412 H   0  0  0  0  0  0  0  0  0  0  0  0
   58.1544   32.0196   50.0651 H   0  0  0  0  0  0  0  0  0  0  0  0
   56.0494   32.3919   51.3546 H   0  0  0  0  0  0  0  0  0  0  0  0
   55.4961   30.9215   53.2947 H   0  0  0  0  0  0  0  0  0  0  0  0
   57.0457   29.0780   53.9499 H   0  0  0  0  0  0  0  0  0  0  0  0
   59.1600   28.7082   52.6754 H   0  0  0  0  0  0  0  0  0  0  0  0
   59.7532   32.5382   49.3675 H   0  0  0  0  0  0  0  0  0  0  0  0
   60.2040   33.0138   51.0560 H   0  0  0  0  0  0  0  0  0  0  0  0
   61.2682   34.3640   49.1150 H   0  0  0  0  0  0  0  0  0  0  0  0
   62.3621   33.7434   50.3991 H   0  0  0  0  0  0  0  0  0  0  0  0
   59.3264   31.2261   47.0108 H   0  0  0  0  0  0  0  0  0  0  0  0
  1  2  2  0
  2  3  1  0
  3  4  1  0
  4  5  1  0
  5  6  2  0
  6  7  1  0
  7  8  2  0
  8  9  1  0
  9 10  2  0
  2 11  1  0
 11 12  1  0
 12 13  2  0
 13 14  1  0
 14 15  2  0
 15 16  1  0
 16 17  1  0
 17 18  1  0
 18 19  1  0
 19 20  2  0
 19 21  1  0
 21 22  1  0
 22 23  1  0
 23 24  1  0
 24 25  1  0
 25 26  2  0
 25 27  1  0
 27 28  2  0
 28 29  1  0
 29 30  2  0
 30 31  1  0
 31 32  2  0
 24 33  1  0
 33 34  1  0
 16 35  2  0
 10  5  1  0
 35 12  1  0
 34 21  1  0
 32 27  1  0
  3 36  1  0
  3 37  1  0
  4 38  1  0
  4 39  1  0
  6 40  1  0
  7 41  1  0
  8 42  1  0
  9 43  1  0
 10 44  1  0
 13 45  1  0
 14 46  1  0
 15 47  1  0
 18 48  1  0
 18 49  1  0
 22 50  1  0
 22 51  1  0
 23 52  1  0
 23 53  1  0
 28 54  1  0
 29 55  1  0
 30 56  1  0
 31 57  1  0
 32 58  1  0
 33 59  1  0
 33 60  1  0
 34 61  1  0
 34 62  1  0
 35 63  1  0
M  CHG  1  11  -1
M  END
>  <UniqueID>  (90) 
89

>  <SMILES>  (90) 
O=C(CCc1ccccc1)[N-]c1cccc(OCC(=O)N2CCN(C(=O)c3ccccc3)CC2)c1

>  <Energy>  (90) 
74.45347241880704

>  <Genealogy>  (90) 
O=C(CCc1ccccc1)[N-]c1cccc(OCC(=O)N2CCN(C(=O)c3ccccc3)CC2)c1 (protonated)
O=C(CCc1ccccc1)[N-]c1cccc(OCC(=O)N2CCN(C(=O)c3ccccc3)CC2)c1 (3D coordinates assigned)
O=C(CCc1ccccc1)[N-]c1cccc(OCC(=O)N2CCN(C(=O)c3ccccc3)CC2)c1 (nonaromatic ring conformer: 74.45347241880704 kcal/mol)

>  <smiles>  (90) 
O=C(CCc1ccccc1)Nc1cccc(OCC(=O)N2CCN(C(=O)c3ccccc3)CC2)c1

>  <score_type>  (90) 
oracle

>  <origin>  (90) 
adg

>  <m_score__min__energy>  (90) 
-11.220000000000001

>  <m_primary>  (90) 
energy

$$$$
