0:0
     RDKit          3D

 40 42  0  0  0  0  0  0  0  0999 V2000
   58.1150   27.7680   43.7220 C   0  0  0  0  0  0  0  0  0  0  0  0
   58.6030   28.0450   45.1180 C   0  0  0  0  0  0  0  0  0  0  0  0
   59.6350   27.2760   45.6660 C   0  0  0  0  0  0  0  0  0  0  0  0
   60.0810   27.5300   46.9660 C   0  0  0  0  0  0  0  0  0  0  0  0
   61.0160   26.8290   47.4410 O   0  0  0  0  0  0  0  0  0  0  0  0
   59.5110   28.5300   47.7100 N   0  0  0  0  0  0  0  0  0  0  0  0
   60.0030   28.8110   49.0640 C   0  0  0  0  0  0  0  0  0  0  0  0
   58.5120   29.3010   47.1830 C   0  0  0  0  0  0  0  0  0  0  0  0
   58.0180   29.0610   45.8900 C   0  0  0  0  0  0  0  0  0  0  0  0
   56.9660   29.8660   45.3340 N   0  0  0  0  0  0  0  0  0  0  0  0
   57.1340   31.0020   44.4750 C   0  0  0  0  0  0  0  0  0  0  0  0
   56.6170   30.9750   43.3270 O   0  0  0  0  0  0  0  0  0  0  0  0
   57.8580   32.2140   44.9070 C   0  0  0  0  0  0  0  0  0  0  0  0
   58.9400   32.0860   45.7190 N   0  0  0  0  0  0  0  0  0  0  0  0
   59.6480   33.1670   46.1470 C   0  0  0  0  0  0  0  0  0  0  0  0
   60.8040   32.9670   47.0530 C   0  0  0  0  0  0  0  0  0  0  0  0
   61.2140   34.0210   47.8910 C   0  0  0  0  0  0  0  0  0  0  0  0
   62.3010   33.8590   48.7540 C   0  0  0  0  0  0  0  0  0  0  0  0
   62.9850   32.6430   48.7990 C   0  0  0  0  0  0  0  0  0  0  0  0
   62.5790   31.5830   47.9860 C   0  0  0  0  0  0  0  0  0  0  0  0
   61.4920   31.7360   47.1180 C   0  0  0  0  0  0  0  0  0  0  0  0
   61.0890   30.6690   46.3840 F   0  0  0  0  0  0  0  0  0  0  0  0
   59.2370   34.4470   45.7530 C   0  0  0  0  0  0  0  0  0  0  0  0
   58.1370   34.5650   44.9050 C   0  0  0  0  0  0  0  0  0  0  0  0
   57.4730   33.4550   44.4880 N   0  0  0  0  0  0  0  0  0  0  0  0
   57.1592   27.2255   43.7686 H   0  0  0  0  0  0  0  0  0  0  0  0
   57.9711   28.7191   43.1884 H   0  0  0  0  0  0  0  0  0  0  0  0
   58.8579   27.1569   43.1884 H   0  0  0  0  0  0  0  0  0  0  0  0
   60.0955   26.4714   45.0738 H   0  0  0  0  0  0  0  0  0  0  0  0
   59.2951   28.4067   49.8026 H   0  0  0  0  0  0  0  0  0  0  0  0
   60.9867   28.3385   49.2021 H   0  0  0  0  0  0  0  0  0  0  0  0
   60.0958   29.8983   49.2021 H   0  0  0  0  0  0  0  0  0  0  0  0
   58.0887   30.1217   47.7807 H   0  0  0  0  0  0  0  0  0  0  0  0
   60.6747   34.9794   47.8663 H   0  0  0  0  0  0  0  0  0  0  0  0
   62.6183   34.6914   49.3992 H   0  0  0  0  0  0  0  0  0  0  0  0
   63.8440   32.5199   49.4750 H   0  0  0  0  0  0  0  0  0  0  0  0
   63.1157   30.6237   48.0279 H   0  0  0  0  0  0  0  0  0  0  0  0
   59.7717   35.3412   46.1058 H   0  0  0  0  0  0  0  0  0  0  0  0
   57.8054   35.5597   44.5723 H   0  0  0  0  0  0  0  0  0  0  0  0
   56.6710   33.5730   43.8300 H   0  0  0  0  0  0  0  0  0  0  0  0
  1  2  1  0
  2  3  2  0
  3  4  1  0
  4  5  2  0
  4  6  1  0
  6  7  1  0
  6  8  1  0
  8  9  2  0
  9 10  1  0
 10 11  1  0
 11 12  2  0
 11 13  1  0
 13 14  2  0
 14 15  1  0
 15 16  1  0
 16 17  2  0
 17 18  1  0
 18 19  2  0
 19 20  1  0
 20 21  2  0
 21 22  1  0
 15 23  2  0
 23 24  1  0
 24 25  2  0
  9  2  1  0
 25 13  1  0
 21 16  1  0
  1 26  1  0
  1 27  1  0
  1 28  1  0
  3 29  1  0
  7 30  1  0
  7 31  1  0
  7 32  1  0
  8 33  1  0
 17 34  1  0
 18 35  1  0
 19 36  1  0
 20 37  1  0
 23 38  1  0
 24 39  1  0
 25 40  1  0
M  CHG  2  10  -1  25   1
M  END
>  <UniqueID>  (1) 
1

>  <SMILES>  (1) 
Cc1cc(=O)n(C)cc1[N-]C(=O)c1nc(-c2ccccc2F)cc[nH+]1

>  <Energy>  (1) 
55.84328151458324

>  <Genealogy>  (1) 
Cc1cc(=O)n(C)cc1[N-]C(=O)c1nc(-c2ccccc2F)cc[nH+]1 (protonated)
Cc1cc(=O)n(C)cc1[N-]C(=O)c1nc(-c2ccccc2F)cc[nH+]1 (3D coordinates assigned)
Cc1cc(=O)n(C)cc1[N-]C(=O)c1nc(-c2ccccc2F)cc[nH+]1 (optimized conformer: 55.84328151458324 kcal/mol)

>  <smiles>  (1) 
Cc1cc(=O)n(C)cc1NC(=O)c1nccc(-c2ccccc2F)n1

>  <score_type>  (1) 
oracle

>  <origin>  (1) 
adg

>  <m_score__min__energy>  (1) 
-9.1600000000000001

>  <m_primary>  (1) 
energy

$$$$
1:0
     RDKit          3D

 56 59  0  0  0  0  0  0  0  0999 V2000
   60.7260   34.5820   48.3270 C   0  0  0  0  0  0  0  0  0  0  0  0
   60.0080   34.8530   47.1270 O   0  0  0  0  0  0  0  0  0  0  0  0
   59.1280   33.9500   46.5110 C   0  0  0  0  0  0  0  0  0  0  0  0
   58.7000   34.2230   45.2080 C   0  0  0  0  0  0  0  0  0  0  0  0
   57.8210   33.3570   44.5510 C   0  0  0  0  0  0  0  0  0  0  0  0
   57.3450   32.2040   45.2020 C   0  0  0  0  0  0  0  0  0  0  0  0
   56.4600   31.2760   44.5570 N   0  0  0  0  0  0  0  0  0  0  0  0
   56.7330   29.9010   44.2590 C   0  0  0  0  0  0  0  0  0  0  0  0
   56.9060   29.5250   43.0690 O   0  0  0  0  0  0  0  0  0  0  0  0
   56.7580   28.9460   45.3280 N   0  0  0  0  0  0  0  0  0  0  0  0
   57.0100   27.5200   45.1020 C   0  0  1  0  0  0  0  0  0  0  0  0
   58.5220   27.2260   45.0840 C   0  0  0  0  0  0  0  0  0  0  0  0
   59.3170   28.3360   45.7110 C   0  0  0  0  0  0  0  0  0  0  0  0
   59.7550   29.4990   45.0860 C   0  0  0  0  0  0  0  0  0  0  0  0
   60.3910   30.3000   45.9710 N   0  0  0  0  0  0  0  0  0  0  0  0
   60.3520   29.6560   47.1500 C   0  0  0  0  0  0  0  0  0  0  0  0
   60.8700   30.0920   48.3690 C   0  0  0  0  0  0  0  0  0  0  0  0
   60.7070   29.2570   49.4890 C   0  0  0  0  0  0  0  0  0  0  0  0
   60.0360   28.0190   49.3680 C   0  0  0  0  0  0  0  0  0  0  0  0
   59.5230   27.6060   48.1250 C   0  0  0  0  0  0  0  0  0  0  0  0
   59.7020   28.4550   47.0320 C   0  0  0  0  0  0  0  0  0  0  0  0
   56.2660   26.6690   46.1130 C   0  0  0  0  0  0  0  0  0  0  0  0
   56.8980   26.2560   47.1210 O   0  0  0  0  0  0  0  0  0  0  0  0
   54.8970   26.2680   45.9610 N   0  0  0  0  0  0  0  0  0  0  0  0
   54.3870   24.9400   45.6290 C   0  0  0  0  0  0  0  0  0  0  0  0
   55.4770   24.0950   45.0370 C   0  0  0  0  0  0  0  0  0  0  0  0
   56.4930   23.5650   45.8460 C   0  0  0  0  0  0  0  0  0  0  0  0
   57.4750   22.7550   45.2730 C   0  0  0  0  0  0  0  0  0  0  0  0
   57.4250   22.4630   43.9090 C   0  0  0  0  0  0  0  0  0  0  0  0
   56.3850   22.9850   43.1370 C   0  0  0  0  0  0  0  0  0  0  0  0
   55.4410   23.7760   43.7130 N   0  0  0  0  0  0  0  0  0  0  0  0
   57.7920   31.9170   46.4970 C   0  0  0  0  0  0  0  0  0  0  0  0
   58.6700   32.7840   47.1540 C   0  0  0  0  0  0  0  0  0  0  0  0
   60.0934   34.8208   49.1947 H   0  0  0  0  0  0  0  0  0  0  0  0
   61.0024   33.5177   48.3565 H   0  0  0  0  0  0  0  0  0  0  0  0
   61.6367   35.1983   48.3565 H   0  0  0  0  0  0  0  0  0  0  0  0
   59.0584   35.1277   44.6952 H   0  0  0  0  0  0  0  0  0  0  0  0
   57.5005   33.5776   43.5221 H   0  0  0  0  0  0  0  0  0  0  0  0
   56.6570   29.3070   46.3050 H   0  0  0  0  0  0  0  0  0  0  0  0
   56.6190   27.2492   44.1102 H   0  0  0  0  0  0  0  0  0  0  0  0
   58.7099   26.2960   45.6405 H   0  0  0  0  0  0  0  0  0  0  0  0
   58.8380   27.1315   44.0346 H   0  0  0  0  0  0  0  0  0  0  0  0
   59.6052   29.7341   44.0219 H   0  0  0  0  0  0  0  0  0  0  0  0
   60.8180   31.2330   45.7750 H   0  0  0  0  0  0  0  0  0  0  0  0
   61.3895   31.0581   48.4520 H   0  0  0  0  0  0  0  0  0  0  0  0
   61.1045   29.5696   50.4659 H   0  0  0  0  0  0  0  0  0  0  0  0
   59.9142   27.3746   50.2511 H   0  0  0  0  0  0  0  0  0  0  0  0
   58.9980   26.6453   48.0180 H   0  0  0  0  0  0  0  0  0  0  0  0
   54.0099   24.4575   46.5428 H   0  0  0  0  0  0  0  0  0  0  0  0
   53.5753   25.0426   44.8938 H   0  0  0  0  0  0  0  0  0  0  0  0
   56.5158   23.7859   46.9234 H   0  0  0  0  0  0  0  0  0  0  0  0
   58.2860   22.3480   45.8947 H   0  0  0  0  0  0  0  0  0  0  0  0
   58.1962   21.8288   43.4474 H   0  0  0  0  0  0  0  0  0  0  0  0
   56.3295   22.7562   42.0625 H   0  0  0  0  0  0  0  0  0  0  0  0
   57.4496   31.0017   47.0019 H   0  0  0  0  0  0  0  0  0  0  0  0
   59.0042   32.5546   48.1766 H   0  0  0  0  0  0  0  0  0  0  0  0
  1  2  1  0
  2  3  1  0
  3  4  2  0
  4  5  1  0
  5  6  2  0
  6  7  1  0
  7  8  1  0
  8  9  2  0
  8 10  1  0
 10 11  1  0
 11 12  1  0
 12 13  1  0
 13 14  2  0
 14 15  1  0
 15 16  1  0
 16 17  2  0
 17 18  1  0
 18 19  2  0
 19 20  1  0
 20 21  2  0
 11 22  1  0
 22 23  2  0
 22 24  1  0
 24 25  1  0
 25 26  1  0
 26 27  2  0
 27 28  1  0
 28 29  2  0
 29 30  1  0
 30 31  2  0
  6 32  1  0
 32 33  2  0
 33  3  1  0
 21 13  1  0
 31 26  1  0
 21 16  1  0
  1 34  1  0
  1 35  1  0
  1 36  1  0
  4 37  1  0
  5 38  1  0
 10 39  1  0
 11 40  1  6
 12 41  1  0
 12 42  1  0
 14 43  1  0
 15 44  1  0
 17 45  1  0
 18 46  1  0
 19 47  1  0
 20 48  1  0
 25 49  1  0
 25 50  1  0
 27 51  1  0
 28 52  1  0
 29 53  1  0
 30 54  1  0
 32 55  1  0
 33 56  1  0
M  CHG  2   7  -1  24  -1
M  END
>  <UniqueID>  (2) 
2

>  <SMILES>  (2) 
COc1ccc([N-]C(=O)N[C@@H](Cc2c[nH]c3ccccc23)C(=O)[N-]Cc2ccccn2)cc1

>  <Energy>  (2) 
91.80748508207536

>  <Genealogy>  (2) 
COc1ccc([N-]C(=O)NC(Cc2c[nH]c3ccccc23)C(=O)[N-]Cc2ccccn2)cc1 (protonated)
COc1ccc([N-]C(=O)N[C@@H](Cc2c[nH]c3ccccc23)C(=O)[N-]Cc2ccccn2)cc1 (chirality)
COc1ccc([N-]C(=O)N[C@@H](Cc2c[nH]c3ccccc23)C(=O)[N-]Cc2ccccn2)cc1 (3D coordinates assigned)
COc1ccc([N-]C(=O)N[C@@H](Cc2c[nH]c3ccccc23)C(=O)[N-]Cc2ccccn2)cc1 (optimized conformer: 91.80748508207536 kcal/mol)

>  <smiles>  (2) 
COc1ccc(NC(=O)NC(Cc2c[nH]c3ccccc23)C(=O)NCc2ccccn2)cc1

>  <score_type>  (2) 
oracle

>  <origin>  (2) 
adg

>  <m_score__min__energy>  (2) 
-12.630000000000001

>  <m_primary>  (2) 
energy

$$$$
2:0
     RDKit          3D

 51 54  0  0  0  0  0  0  0  0999 V2000
   59.1450   36.0392   45.3645 H   0  0  0  0  0  0  0  0  0  0  0  0
   58.9060   34.9660   45.3990 C   0  0  0  0  0  0  0  0  0  0  0  0
   59.7930   34.0900   45.9380 N   0  0  0  0  0  0  0  0  0  0  0  0
   59.5360   32.7530   46.0210 C   0  0  0  0  0  0  0  0  0  0  0  0
   60.5060   31.8770   46.5270 O   0  0  0  0  0  0  0  0  0  0  0  0
   61.5540   32.2280   47.3880 C   0  0  0  0  0  0  0  0  0  0  0  0
   61.3520   33.2800   48.2890 C   0  0  0  0  0  0  0  0  0  0  0  0
   60.3832   33.8004   48.3124 H   0  0  0  0  0  0  0  0  0  0  0  0
   62.3720   33.6740   49.1590 C   0  0  0  0  0  0  0  0  0  0  0  0
   62.1953   34.4876   49.8779 H   0  0  0  0  0  0  0  0  0  0  0  0
   63.6220   33.0350   49.1190 C   0  0  0  0  0  0  0  0  0  0  0  0
   64.7060   33.4320   50.0770 C   0  0  0  0  0  0  0  0  0  0  0  0
   64.3491   33.3013   51.1092 H   0  0  0  0  0  0  0  0  0  0  0  0
   65.5908   32.7996   49.9121 H   0  0  0  0  0  0  0  0  0  0  0  0
   64.9730   34.4863   49.9121 H   0  0  0  0  0  0  0  0  0  0  0  0
   63.8280   31.9840   48.2150 C   0  0  0  0  0  0  0  0  0  0  0  0
   64.7986   31.4671   48.1892 H   0  0  0  0  0  0  0  0  0  0  0  0
   62.8070   31.5890   47.3460 C   0  0  0  0  0  0  0  0  0  0  0  0
   62.9836   30.7757   46.6267 H   0  0  0  0  0  0  0  0  0  0  0  0
   58.3130   32.2470   45.5290 C   0  0  0  0  0  0  0  0  0  0  0  0
   57.9870   30.8030   45.5870 C   0  0  0  0  0  0  0  0  0  0  0  0
   56.8570   30.4080   45.1870 O   0  0  0  0  0  0  0  0  0  0  0  0
   58.9240   29.8550   46.1230 N   0  0  0  0  0  0  0  0  0  0  0  0
   59.6130   30.1900   46.8320 H   0  0  0  0  0  0  0  0  0  0  0  0
   58.7610   28.4370   45.9570 C   0  0  0  0  0  0  0  0  0  0  0  0
   58.0410   27.9690   44.8470 C   0  0  0  0  0  0  0  0  0  0  0  0
   57.5651   28.6872   44.1631 H   0  0  0  0  0  0  0  0  0  0  0  0
   57.9240   26.6000   44.6040 C   0  0  0  0  0  0  0  0  0  0  0  0
   57.3612   26.2435   43.7287 H   0  0  0  0  0  0  0  0  0  0  0  0
   58.5200   25.6830   45.4700 C   0  0  0  0  0  0  0  0  0  0  0  0
   58.4430   24.6048   45.2662 H   0  0  0  0  0  0  0  0  0  0  0  0
   59.2140   26.1320   46.5950 C   0  0  0  0  0  0  0  0  0  0  0  0
   59.6785   25.4030   47.2753 H   0  0  0  0  0  0  0  0  0  0  0  0
   59.3250   27.5070   46.8670 C   0  0  0  0  0  0  0  0  0  0  0  0
   59.9810   27.9430   48.1190 C   0  0  0  0  0  0  0  0  0  0  0  0
   60.2350   27.0960   49.0170 O   0  0  0  0  0  0  0  0  0  0  0  0
   60.4140   29.3060   48.2600 N   0  0  0  0  0  0  0  0  0  0  0  0
   60.0140   30.1890   49.1310 C   0  0  0  0  0  0  0  0  0  0  0  0
   59.0000   31.0270   48.7790 N   0  0  0  0  0  0  0  0  0  0  0  0
   58.5070   31.9710   49.6230 C   0  0  0  0  0  0  0  0  0  0  0  0
   57.6914   32.6314   49.2932 H   0  0  0  0  0  0  0  0  0  0  0  0
   59.0350   32.1030   50.9080 C   0  0  0  0  0  0  0  0  0  0  0  0
   58.4030   33.3160   52.0070 Cl  0  0  0  0  0  0  0  0  0  0  0  0
   60.0610   31.2490   51.3120 C   0  0  0  0  0  0  0  0  0  0  0  0
   60.4806   31.3352   52.3252 H   0  0  0  0  0  0  0  0  0  0  0  0
   60.5560   30.2850   50.4320 C   0  0  0  0  0  0  0  0  0  0  0  0
   61.3612   29.6059   50.7489 H   0  0  0  0  0  0  0  0  0  0  0  0
   57.4010   33.1440   44.9500 C   0  0  0  0  0  0  0  0  0  0  0  0
   56.4504   32.7704   44.5416 H   0  0  0  0  0  0  0  0  0  0  0  0
   57.6940   34.5060   44.8900 C   0  0  0  0  0  0  0  0  0  0  0  0
   56.9752   35.2099   44.4452 H   0  0  0  0  0  0  0  0  0  0  0  0
  1  2  1  0
  2  3  2  0
  3  4  1  0
  4  5  1  0
  5  6  1  0
  6  7  2  0
  7  8  1  0
  7  9  1  0
  9 10  1  0
  9 11  2  0
 11 12  1  0
 12 13  1  0
 12 14  1  0
 12 15  1  0
 11 16  1  0
 16 17  1  0
 16 18  2  0
 18 19  1  0
  4 20  2  0
 20 21  1  0
 21 22  2  0
 21 23  1  0
 23 24  1  0
 23 25  1  0
 25 26  2  0
 26 27  1  0
 26 28  1  0
 28 29  1  0
 28 30  2  0
 30 31  1  0
 30 32  1  0
 32 33  1  0
 32 34  2  0
 34 35  1  0
 35 36  2  0
 35 37  1  0
 37 38  2  0
 38 39  1  0
 39 40  1  0
 40 41  1  0
 40 42  2  0
 42 43  1  0
 42 44  1  0
 44 45  1  0
 44 46  2  0
 46 47  1  0
 20 48  1  0
 48 49  1  0
 48 50  2  0
 50 51  1  0
 50  2  1  0
 18  6  1  0
 34 25  1  0
 46 38  1  0
M  CHG  1  39  -1
M  END
>  <UniqueID>  (3) 
3

>  <SMILES>  (3) 
Cc1ccc(Oc2ncccc2C(=O)Nc2ccccc2C(=O)/N=c2\ccc(Cl)c[n-]2)cc1

>  <Energy>  (3) 
79.90336010905965

>  <Genealogy>  (3) 
Cc1ccc(Oc2ncccc2C(=O)Nc2ccccc2C(=O)N=c2ccc(Cl)c[n-]2)cc1 (protonated)
Cc1ccc(Oc2ncccc2C(=O)Nc2ccccc2C(=O)/N=c2\ccc(Cl)c[n-]2)cc1 (cis-trans isomerization)
Cc1ccc(Oc2ncccc2C(=O)Nc2ccccc2C(=O)/N=c2\ccc(Cl)c[n-]2)cc1 (3D coordinates assigned)
Cc1ccc(Oc2ncccc2C(=O)Nc2ccccc2C(=O)/N=c2\ccc(Cl)c[n-]2)cc1 (optimized conformer: 79.90336010905965 kcal/mol)

>  <smiles>  (3) 
Cc1ccc(Oc2ncccc2C(=O)Nc2ccccc2C(=O)N=c2ccc(Cl)c[nH]2)cc1

>  <score_type>  (3) 
oracle

>  <origin>  (3) 
adg

>  <m_score__min__energy>  (3) 
-11.460000000000001

>  <m_primary>  (3) 
energy

$$$$
3:0
     RDKit          3D

 29 31  0  0  0  0  0  0  0  0999 V2000
   57.8690   33.1757   43.3585 H   0  0  0  0  0  0  0  0  0  0  0  0
   57.6210   32.1200   43.5430 C   0  0  0  0  0  0  0  0  0  0  0  0
   57.8330   31.2960   44.9920 S   0  0  0  0  0  0  0  0  0  0  0  0
   57.2140   29.8210   44.4700 C   0  0  0  0  0  0  0  0  0  0  0  0
   57.1780   28.5900   45.2910 C   0  0  0  0  0  0  0  0  0  0  0  0
   56.0340   27.8530   45.2780 N   0  0  0  0  0  0  0  0  0  0  0  0
   55.9050   26.7120   46.0010 C   0  0  0  0  0  0  0  0  0  0  0  0
   54.7750   26.0690   45.9710 N   0  0  0  0  0  0  0  0  0  0  0  0
   54.5930   24.6420   45.9350 C   0  0  0  0  0  0  0  0  0  0  0  0
   53.3390   24.0550   45.6820 C   0  0  0  0  0  0  0  0  0  0  0  0
   52.4670   24.6927   45.4749 H   0  0  0  0  0  0  0  0  0  0  0  0
   53.1980   22.6630   45.6930 C   0  0  0  0  0  0  0  0  0  0  0  0
   52.2189   22.2083   45.4817 H   0  0  0  0  0  0  0  0  0  0  0  0
   54.2990   21.8500   45.9720 C   0  0  0  0  0  0  0  0  0  0  0  0
   54.1895   20.7555   45.9698 H   0  0  0  0  0  0  0  0  0  0  0  0
   55.5400   22.4280   46.2540 C   0  0  0  0  0  0  0  0  0  0  0  0
   56.4050   21.7880   46.4825 H   0  0  0  0  0  0  0  0  0  0  0  0
   55.6830   23.8180   46.2460 C   0  0  0  0  0  0  0  0  0  0  0  0
   56.6576   24.2684   46.4854 H   0  0  0  0  0  0  0  0  0  0  0  0
   56.9410   26.2900   46.7740 N   0  0  0  0  0  0  0  0  0  0  0  0
   58.1140   26.9690   46.8170 C   0  0  0  0  0  0  0  0  0  0  0  0
   59.0530   26.5300   47.5320 O   0  0  0  0  0  0  0  0  0  0  0  0
   58.2720   28.1430   46.0640 C   0  0  0  0  0  0  0  0  0  0  0  0
   59.5530   28.8130   46.0460 C   0  0  0  0  0  0  0  0  0  0  0  0
   60.5810   29.3470   46.0300 N   0  0  0  0  0  0  0  0  0  0  0  0
   56.8590   29.9520   43.1290 C   0  0  0  0  0  0  0  0  0  0  0  0
   56.4468   29.1270   42.5295 H   0  0  0  0  0  0  0  0  0  0  0  0
   57.0790   31.2380   42.6200 C   0  0  0  0  0  0  0  0  0  0  0  0
   56.8436   31.5223   41.5838 H   0  0  0  0  0  0  0  0  0  0  0  0
  1  2  1  0
  2  3  1  0
  3  4  1  0
  4  5  1  0
  5  6  1  0
  6  7  1  0
  7  8  2  0
  8  9  1  0
  9 10  2  0
 10 11  1  0
 10 12  1  0
 12 13  1  0
 12 14  2  0
 14 15  1  0
 14 16  1  0
 16 17  1  0
 16 18  2  0
 18 19  1  0
  7 20  1  0
 20 21  1  0
 21 22  2  0
 21 23  1  0
 23 24  1  0
 24 25  3  0
  4 26  2  0
 26 27  1  0
 26 28  1  0
 28 29  1  0
 28  2  2  0
 23  5  2  0
 18  9  1  0
M  CHG  2   6  -1  20  -1
M  END
>  <UniqueID>  (4) 
4

>  <SMILES>  (4) 
N#Cc1c(-c2cccs2)[n-]/c(=N/c2ccccc2)[n-]c1=O

>  <Energy>  (4) 
70.57942807054485

>  <Genealogy>  (4) 
N#Cc1c(-c2cccs2)[n-]c(=Nc2ccccc2)[n-]c1=O (protonated)
N#Cc1c(-c2cccs2)[n-]/c(=N/c2ccccc2)[n-]c1=O (cis-trans isomerization)
N#Cc1c(-c2cccs2)[n-]/c(=N/c2ccccc2)[n-]c1=O (3D coordinates assigned)
N#Cc1c(-c2cccs2)[n-]/c(=N/c2ccccc2)[n-]c1=O (optimized conformer: 70.57942807054485 kcal/mol)

>  <smiles>  (4) 
N#Cc1c(-c2cccs2)[nH]c(=Nc2ccccc2)[nH]c1=O

>  <score_type>  (4) 
oracle

>  <origin>  (4) 
adg

>  <m_score__min__energy>  (4) 
-9.9700000000000006

>  <m_primary>  (4) 
energy

$$$$
4:0
     RDKit          3D

 49 51  0  0  0  0  0  0  0  0999 V2000
   55.1400   26.6940   45.9710 O   0  0  0  0  0  0  0  0  0  0  0  0
   56.0130   25.7960   46.1250 C   0  0  0  0  0  0  0  0  0  0  0  0
   55.7000   24.6070   46.8570 N   0  0  0  0  0  0  0  0  0  0  0  0
   55.0040   23.4650   46.2770 C   0  0  0  0  0  0  0  0  0  0  0  0
   55.8120   22.8860   45.1480 C   0  0  0  0  0  0  0  0  0  0  0  0
   55.4930   23.1850   43.8130 C   0  0  0  0  0  0  0  0  0  0  0  0
   56.2330   22.6220   42.7690 C   0  0  0  0  0  0  0  0  0  0  0  0
   57.2930   21.7550   43.0480 C   0  0  0  0  0  0  0  0  0  0  0  0
   57.6110   21.4480   44.3730 C   0  0  0  0  0  0  0  0  0  0  0  0
   56.8710   22.0050   45.4210 C   0  0  0  0  0  0  0  0  0  0  0  0
   57.3700   25.9800   45.5840 C   0  0  0  0  0  0  0  0  0  0  0  0
   57.7130   25.3440   44.5520 O   0  0  0  0  0  0  0  0  0  0  0  0
   58.3520   26.8650   46.2470 C   0  0  0  0  0  0  0  0  0  0  0  0
   59.4910   26.3020   46.8500 C   0  0  0  0  0  0  0  0  0  0  0  0
   60.3900   27.1060   47.5540 C   0  0  0  0  0  0  0  0  0  0  0  0
   60.1570   28.4770   47.6750 C   0  0  0  0  0  0  0  0  0  0  0  0
   59.0330   29.0510   47.0770 C   0  0  0  0  0  0  0  0  0  0  0  0
   58.1370   28.2620   46.3420 C   0  0  0  0  0  0  0  0  0  0  0  0
   57.0160   28.8980   45.7060 N   0  0  0  0  0  0  0  0  0  0  0  0
   57.1400   29.9430   44.7240 C   0  0  0  0  0  0  0  0  0  0  0  0
   56.6180   29.7980   43.4250 C   0  0  0  0  0  0  0  0  0  0  0  0
   56.7600   30.8260   42.4900 C   0  0  0  0  0  0  0  0  0  0  0  0
   57.4270   32.0030   42.8370 C   0  0  0  0  0  0  0  0  0  0  0  0
   57.9450   32.1610   44.1260 C   0  0  0  0  0  0  0  0  0  0  0  0
   58.8370   33.6560   44.5690 S   0  0  0  0  0  0  0  0  0  0  0  0
   58.3130   33.7400   46.3270 C   0  0  0  0  0  0  0  0  0  0  0  0
   58.4330   35.0570   46.7330 F   0  0  0  0  0  0  0  0  0  0  0  0
   56.9840   33.3770   46.4420 F   0  0  0  0  0  0  0  0  0  0  0  0
   59.1710   32.8640   47.2490 C   0  0  0  0  0  0  0  0  0  0  0  0
   60.1170   32.1910   46.4960 F   0  0  0  0  0  0  0  0  0  0  0  0
   58.3810   31.9350   47.9040 F   0  0  0  0  0  0  0  0  0  0  0  0
   59.8350   33.6400   48.1820 F   0  0  0  0  0  0  0  0  0  0  0  0
   57.8210   31.1230   45.0590 C   0  0  0  0  0  0  0  0  0  0  0  0
   54.8575   22.6970   47.0507 H   0  0  0  0  0  0  0  0  0  0  0  0
   54.0294   23.7964   45.8892 H   0  0  0  0  0  0  0  0  0  0  0  0
   54.6578   23.8647   43.5882 H   0  0  0  0  0  0  0  0  0  0  0  0
   55.9804   22.8620   41.7256 H   0  0  0  0  0  0  0  0  0  0  0  0
   57.8760   21.3151   42.2254 H   0  0  0  0  0  0  0  0  0  0  0  0
   58.4458   20.7662   44.5929 H   0  0  0  0  0  0  0  0  0  0  0  0
   57.1193   21.7522   46.4624 H   0  0  0  0  0  0  0  0  0  0  0  0
   59.6750   25.2207   46.7665 H   0  0  0  0  0  0  0  0  0  0  0  0
   61.2832   26.6582   48.0140 H   0  0  0  0  0  0  0  0  0  0  0  0
   60.8593   29.1058   48.2419 H   0  0  0  0  0  0  0  0  0  0  0  0
   58.8493   30.1303   47.1835 H   0  0  0  0  0  0  0  0  0  0  0  0
   56.0590   28.6430   46.0410 H   0  0  0  0  0  0  0  0  0  0  0  0
   56.0960   28.8712   43.1449 H   0  0  0  0  0  0  0  0  0  0  0  0
   56.3455   30.7082   41.4779 H   0  0  0  0  0  0  0  0  0  0  0  0
   57.5449   32.8067   42.0953 H   0  0  0  0  0  0  0  0  0  0  0  0
   58.2607   31.2341   46.0612 H   0  0  0  0  0  0  0  0  0  0  0  0
  1  2  2  0
  2  3  1  0
  3  4  1  0
  4  5  1  0
  5  6  2  0
  6  7  1  0
  7  8  2  0
  8  9  1  0
  9 10  2  0
  2 11  1  0
 11 12  2  0
 11 13  1  0
 13 14  2  0
 14 15  1  0
 15 16  2  0
 16 17  1  0
 17 18  2  0
 18 19  1  0
 19 20  1  0
 20 21  2  0
 21 22  1  0
 22 23  2  0
 23 24  1  0
 24 25  1  0
 25 26  1  0
 26 27  1  0
 26 28  1  0
 26 29  1  0
 29 30  1  0
 29 31  1  0
 29 32  1  0
 24 33  2  0
 10  5  1  0
 18 13  1  0
 33 20  1  0
  4 34  1  0
  4 35  1  0
  6 36  1  0
  7 37  1  0
  8 38  1  0
  9 39  1  0
 10 40  1  0
 14 41  1  0
 15 42  1  0
 16 43  1  0
 17 44  1  0
 19 45  1  0
 21 46  1  0
 22 47  1  0
 23 48  1  0
 33 49  1  0
M  CHG  1   3  -1
M  END
>  <UniqueID>  (5) 
5

>  <SMILES>  (5) 
O=C([N-]Cc1ccccc1)C(=O)c1ccccc1Nc1cccc(SC(F)(F)C(F)(F)F)c1

>  <Energy>  (5) 
51.998891080427455

>  <Genealogy>  (5) 
O=C([N-]Cc1ccccc1)C(=O)c1ccccc1Nc1cccc(SC(F)(F)C(F)(F)F)c1 (protonated)
O=C([N-]Cc1ccccc1)C(=O)c1ccccc1Nc1cccc(SC(F)(F)C(F)(F)F)c1 (3D coordinates assigned)
O=C([N-]Cc1ccccc1)C(=O)c1ccccc1Nc1cccc(SC(F)(F)C(F)(F)F)c1 (optimized conformer: 51.998891080427455 kcal/mol)

>  <smiles>  (5) 
O=C(NCc1ccccc1)C(=O)c1ccccc1Nc1cccc(SC(F)(F)C(F)(F)F)c1

>  <score_type>  (5) 
oracle

>  <origin>  (5) 
adg

>  <m_score__min__energy>  (5) 
-10.24

>  <m_primary>  (5) 
energy

$$$$
5:0
     RDKit          3D

 52 55  0  0  0  0  0  0  0  0999 V2000
   58.3040   32.2690   42.3440 N   0  0  0  0  0  0  0  0  0  0  0  0
   57.7540   32.4640   43.3440 C   0  0  0  0  0  0  0  0  0  0  0  0
   57.0570   32.7130   44.6120 C   0  0  2  0  0  0  0  0  0  0  0  0
   57.7740   33.8190   45.3980 C   0  0  0  0  0  0  0  0  0  0  0  0
   58.7150   33.2240   46.4140 C   0  0  0  0  0  0  0  0  0  0  0  0
   59.9460   32.6810   46.0130 C   0  0  0  0  0  0  0  0  0  0  0  0
   60.7790   32.0570   46.9460 C   0  0  0  0  0  0  0  0  0  0  0  0
   60.3820   31.9540   48.2870 C   0  0  0  0  0  0  0  0  0  0  0  0
   61.2350   31.2470   49.2580 C   0  0  0  0  0  0  0  0  0  0  0  0
   60.7130   30.1250   49.9190 C   0  0  0  0  0  0  0  0  0  0  0  0
   61.4960   29.4140   50.8300 C   0  0  0  0  0  0  0  0  0  0  0  0
   62.8050   29.8190   51.0910 C   0  0  0  0  0  0  0  0  0  0  0  0
   63.3340   30.9410   50.4480 C   0  0  0  0  0  0  0  0  0  0  0  0
   62.5570   31.6710   49.5340 C   0  0  0  0  0  0  0  0  0  0  0  0
   63.2510   33.1120   48.7710 S   0  0  0  0  0  0  0  0  0  0  0  0
   63.6170   32.7730   47.1170 N   0  0  0  0  0  0  0  0  0  0  0  0
   64.5120   33.5170   49.4800 O   0  0  0  0  0  0  0  0  0  0  0  0
   62.2720   34.2490   48.8520 O   0  0  0  0  0  0  0  0  0  0  0  0
   59.1620   32.5090   48.6930 C   0  0  0  0  0  0  0  0  0  0  0  0
   58.3300   33.1360   47.7620 C   0  0  0  0  0  0  0  0  0  0  0  0
   57.0300   31.4810   45.3990 N   0  0  0  0  0  0  0  0  0  0  0  0
   56.8310   30.1620   44.8740 C   0  0  0  0  0  0  0  0  0  0  0  0
   55.6550   29.7150   44.8220 O   0  0  0  0  0  0  0  0  0  0  0  0
   58.0030   29.2850   44.4720 C   0  0  2  0  0  0  0  0  0  0  0  0
   57.6170   27.8980   44.1460 N   0  0  0  0  0  0  0  0  0  0  0  0
   58.6100   27.0870   44.8780 C   0  0  2  0  0  0  0  0  0  0  0  0
   58.2420   27.0540   46.3700 C   0  0  0  0  0  0  0  0  0  0  0  0
   58.5950   28.4780   46.8130 C   0  0  0  0  0  0  0  0  0  0  0  0
   59.1330   29.1200   45.5140 C   0  0  1  0  0  0  0  0  0  0  0  0
   59.8530   27.9480   44.8940 C   0  0  0  0  0  0  0  0  0  0  0  0
   56.0270   33.0381   44.4037 H   0  0  0  0  0  0  0  0  0  0  0  0
   58.3466   34.4461   44.6988 H   0  0  0  0  0  0  0  0  0  0  0  0
   57.0214   34.4247   45.9241 H   0  0  0  0  0  0  0  0  0  0  0  0
   60.2564   32.7469   44.9598 H   0  0  0  0  0  0  0  0  0  0  0  0
   61.7483   31.6457   46.6276 H   0  0  0  0  0  0  0  0  0  0  0  0
   59.6804   29.8036   49.7181 H   0  0  0  0  0  0  0  0  0  0  0  0
   61.0805   28.5338   51.3424 H   0  0  0  0  0  0  0  0  0  0  0  0
   63.4223   29.2537   51.8047 H   0  0  0  0  0  0  0  0  0  0  0  0
   64.3669   31.2549   50.6593 H   0  0  0  0  0  0  0  0  0  0  0  0
   64.5550   32.3120   47.0990 H   0  0  0  0  0  0  0  0  0  0  0  0
   58.8577   32.4511   49.7485 H   0  0  0  0  0  0  0  0  0  0  0  0
   57.3693   33.5626   48.0861 H   0  0  0  0  0  0  0  0  0  0  0  0
   58.3691   29.8519   43.6033 H   0  0  0  0  0  0  0  0  0  0  0  0
   56.6500   27.6740   44.4820 H   0  0  0  0  0  0  0  0  0  0  0  0
   58.6923   26.0839   44.4342 H   0  0  0  0  0  0  0  0  0  0  0  0
   57.1719   26.8438   46.5138 H   0  0  0  0  0  0  0  0  0  0  0  0
   58.7618   26.2692   46.9392 H   0  0  0  0  0  0  0  0  0  0  0  0
   57.7049   29.0109   47.1786 H   0  0  0  0  0  0  0  0  0  0  0  0
   59.3155   28.5086   47.6436 H   0  0  0  0  0  0  0  0  0  0  0  0
   59.6563   30.0639   45.7266 H   0  0  0  0  0  0  0  0  0  0  0  0
   60.2499   28.1606   43.8904 H   0  0  0  0  0  0  0  0  0  0  0  0
   60.7572   27.5619   45.3874 H   0  0  0  0  0  0  0  0  0  0  0  0
  1  2  3  0
  2  3  1  0
  3  4  1  0
  4  5  1  0
  5  6  2  0
  6  7  1  0
  7  8  2  0
  8  9  1  0
  9 10  2  0
 10 11  1  0
 11 12  2  0
 12 13  1  0
 13 14  2  0
 14 15  1  0
 15 16  1  0
 15 17  2  0
 15 18  2  0
  8 19  1  0
 19 20  2  0
  3 21  1  0
 21 22  1  0
 22 23  2  0
 22 24  1  0
 24 25  1  0
 25 26  1  0
 26 27  1  0
 27 28  1  0
 28 29  1  0
 29 30  1  0
 20  5  1  0
 29 24  1  0
 14  9  1  0
 30 26  1  0
  3 31  1  6
  4 32  1  0
  4 33  1  0
  6 34  1  0
  7 35  1  0
 10 36  1  0
 11 37  1  0
 12 38  1  0
 13 39  1  0
 16 40  1  0
 19 41  1  0
 20 42  1  0
 24 43  1  6
 25 44  1  0
 26 45  1  6
 27 46  1  0
 27 47  1  0
 28 48  1  0
 28 49  1  0
 29 50  1  1
 30 51  1  0
 30 52  1  0
M  CHG  2  16  -1  21  -1
M  END
>  <UniqueID>  (6) 
6

>  <SMILES>  (6) 
N#C[C@H](Cc1ccc(-c2ccccc2S([NH-])(=O)=O)cc1)[N-]C(=O)[C@@H]1NC2CCC1C2

>  <Energy>  (6) 
87.18556567070385

>  <Genealogy>  (6) 
N#CC(Cc1ccc(-c2ccccc2S([NH-])(=O)=O)cc1)[N-]C(=O)C1NC2CCC1C2 (protonated)
N#C[C@H](Cc1ccc(-c2ccccc2S([NH-])(=O)=O)cc1)[N-]C(=O)[C@@H]1NC2CCC1C2 (chirality)
N#C[C@H](Cc1ccc(-c2ccccc2S([NH-])(=O)=O)cc1)[N-]C(=O)[C@@H]1NC2CCC1C2 (3D coordinates assigned)
N#C[C@H](Cc1ccc(-c2ccccc2S([NH-])(=O)=O)cc1)[N-]C(=O)[C@@H]1NC2CCC1C2 (nonaromatic ring conformer: 87.18556567070385 kcal/mol)

>  <smiles>  (6) 
N#CC(Cc1ccc(-c2ccccc2S(N)(=O)=O)cc1)NC(=O)C1NC2CCC1C2

>  <score_type>  (6) 
oracle

>  <origin>  (6) 
adg

>  <m_score__min__energy>  (6) 
-13.26

>  <m_primary>  (6) 
energy

$$$$
6:0
     RDKit          3D

 33 35  0  0  0  0  0  0  0  0999 V2000
   57.4600   32.1620   41.5210 C   0  0  0  0  0  0  0  0  0  0  0  0
   57.3240   31.6610   42.9360 C   0  0  0  0  0  0  0  0  0  0  0  0
   56.5610   30.5120   43.1860 C   0  0  0  0  0  0  0  0  0  0  0  0
   56.4340   30.0430   44.4960 C   0  0  0  0  0  0  0  0  0  0  0  0
   55.7520   29.0110   44.7300 O   0  0  0  0  0  0  0  0  0  0  0  0
   57.0290   30.6780   45.4990 O   0  0  0  0  0  0  0  0  0  0  0  0
   57.7620   31.7730   45.3210 C   0  0  0  0  0  0  0  0  0  0  0  0
   58.3570   32.3860   46.4290 C   0  0  0  0  0  0  0  0  0  0  0  0
   59.1290   33.5500   46.2680 C   0  0  0  0  0  0  0  0  0  0  0  0
   59.7520   34.1820   47.3550 O   0  0  0  0  0  0  0  0  0  0  0  0
   61.0610   33.9380   47.7960 C   0  0  0  0  0  0  0  0  0  0  0  0
   62.0320   33.3630   46.9590 C   0  0  0  0  0  0  0  0  0  0  0  0
   63.3200   33.1220   47.4400 C   0  0  0  0  0  0  0  0  0  0  0  0
   63.6480   33.4400   48.7610 C   0  0  0  0  0  0  0  0  0  0  0  0
   62.6820   33.9970   49.6200 C   0  0  0  0  0  0  0  0  0  0  0  0
   63.0120   34.3180   50.9830 N   0  0  0  0  0  0  0  0  0  0  0  0
   63.7680   35.2750   51.2490 O   0  0  0  0  0  0  0  0  0  0  0  0
   62.4990   33.5730   52.0200 O   0  0  0  0  0  0  0  0  0  0  0  0
   61.3880   34.2350   49.1250 C   0  0  0  0  0  0  0  0  0  0  0  0
   59.3270   34.0710   44.9870 C   0  0  0  0  0  0  0  0  0  0  0  0
   58.7360   33.4670   43.8720 C   0  0  0  0  0  0  0  0  0  0  0  0
   57.9440   32.3130   44.0250 C   0  0  0  0  0  0  0  0  0  0  0  0
   57.7481   33.2235   41.5340 H   0  0  0  0  0  0  0  0  0  0  0  0
   58.2323   31.5788   40.9982 H   0  0  0  0  0  0  0  0  0  0  0  0
   56.4988   32.0494   40.9982 H   0  0  0  0  0  0  0  0  0  0  0  0
   56.0663   29.9839   42.3576 H   0  0  0  0  0  0  0  0  0  0  0  0
   58.2200   31.9549   47.4317 H   0  0  0  0  0  0  0  0  0  0  0  0
   61.7764   33.1019   45.9214 H   0  0  0  0  0  0  0  0  0  0  0  0
   64.0791   32.6805   46.7775 H   0  0  0  0  0  0  0  0  0  0  0  0
   64.6669   33.2539   49.1314 H   0  0  0  0  0  0  0  0  0  0  0  0
   60.6221   34.6602   49.7903 H   0  0  0  0  0  0  0  0  0  0  0  0
   59.9538   34.9650   44.8537 H   0  0  0  0  0  0  0  0  0  0  0  0
   58.8908   33.8958   42.8709 H   0  0  0  0  0  0  0  0  0  0  0  0
  1  2  1  0
  2  3  2  0
  3  4  1  0
  4  5  2  0
  4  6  1  0
  6  7  1  0
  7  8  2  0
  8  9  1  0
  9 10  1  0
 10 11  1  0
 11 12  2  0
 12 13  1  0
 13 14  2  0
 14 15  1  0
 15 16  1  0
 16 17  2  0
 16 18  1  0
 15 19  2  0
  9 20  2  0
 20 21  1  0
 21 22  2  0
 22  2  1  0
 22  7  1  0
 19 11  1  0
  1 23  1  0
  1 24  1  0
  1 25  1  0
  3 26  1  0
  8 27  1  0
 12 28  1  0
 13 29  1  0
 14 30  1  0
 19 31  1  0
 20 32  1  0
 21 33  1  0
M  CHG  2  16   1  18  -1
M  END
>  <UniqueID>  (7) 
7

>  <SMILES>  (7) 
Cc1cc(=O)oc2cc(Oc3cccc([N+](=O)[O-])c3)ccc12

>  <Energy>  (7) 
48.82148234822931

>  <Genealogy>  (7) 
Cc1cc(=O)oc2cc(Oc3cccc([N+](=O)[O-])c3)ccc12 (3D coordinates assigned)
Cc1cc(=O)oc2cc(Oc3cccc([N+](=O)[O-])c3)ccc12 (optimized conformer: 48.82148234822931 kcal/mol)

>  <smiles>  (7) 
Cc1cc(=O)oc2cc(Oc3cccc([N+](=O)[O-])c3)ccc12

>  <score_type>  (7) 
oracle

>  <origin>  (7) 
adg

>  <m_score__min__energy>  (7) 
-8.4700000000000006

>  <m_primary>  (7) 
energy

$$$$
7:0
     RDKit          3D

 52 55  0  0  0  0  0  0  0  0999 V2000
   57.2580   31.4900   43.7730 C   0  0  0  0  0  0  0  0  0  0  0  0
   56.5570   30.4570   44.4570 O   0  0  0  0  0  0  0  0  0  0  0  0
   57.0690   29.1720   44.6890 C   0  0  0  0  0  0  0  0  0  0  0  0
   57.0190   28.6610   45.9910 C   0  0  0  0  0  0  0  0  0  0  0  0
   57.5150   27.3850   46.2740 C   0  0  0  0  0  0  0  0  0  0  0  0
   58.0600   26.5950   45.2500 C   0  0  0  0  0  0  0  0  0  0  0  0
   58.6260   25.2400   45.5570 C   0  0  0  0  0  0  0  0  0  0  0  0
   59.5930   25.3540   46.6420 N   0  0  0  0  0  0  0  0  0  0  0  0
   60.6280   26.3410   46.6860 C   0  0  0  0  0  0  0  0  0  0  0  0
   61.7830   26.0390   46.2880 O   0  0  0  0  0  0  0  0  0  0  0  0
   60.3660   27.7070   47.1540 C   0  0  0  0  0  0  0  0  0  0  0  0
   60.0960   28.0090   48.4380 N   0  0  0  0  0  0  0  0  0  0  0  0
   59.9200   29.3200   48.5160 N   0  0  0  0  0  0  0  0  0  0  0  0
   59.5560   29.9880   49.7350 C   0  0  0  0  0  0  0  0  0  0  0  0
   58.2350   29.9100   50.2090 C   0  0  0  0  0  0  0  0  0  0  0  0
   57.8700   30.5490   51.3960 C   0  0  0  0  0  0  0  0  0  0  0  0
   58.8200   31.2710   52.1240 C   0  0  0  0  0  0  0  0  0  0  0  0
   58.3590   32.0740   53.6130 Cl  0  0  0  0  0  0  0  0  0  0  0  0
   60.1370   31.3520   51.6640 C   0  0  0  0  0  0  0  0  0  0  0  0
   60.5110   30.7130   50.4750 C   0  0  0  0  0  0  0  0  0  0  0  0
   62.1680   30.8870   49.9090 Cl  0  0  0  0  0  0  0  0  0  0  0  0
   60.0480   29.8720   47.2860 C   0  0  0  0  0  0  0  0  0  0  0  0
   59.9570   31.3170   46.9860 C   0  0  0  0  0  0  0  0  0  0  0  0
   58.7020   31.9270   46.8270 C   0  0  0  0  0  0  0  0  0  0  0  0
   58.6120   33.2900   46.5310 C   0  0  0  0  0  0  0  0  0  0  0  0
   59.7730   34.0550   46.3900 C   0  0  0  0  0  0  0  0  0  0  0  0
   59.6590   35.7640   46.0150 Cl  0  0  0  0  0  0  0  0  0  0  0  0
   61.0270   33.4550   46.5450 C   0  0  0  0  0  0  0  0  0  0  0  0
   61.1200   32.0910   46.8410 C   0  0  0  0  0  0  0  0  0  0  0  0
   60.3430   28.8610   46.3840 C   0  0  0  0  0  0  0  0  0  0  0  0
   60.4970   28.9750   44.8980 C   0  0  0  0  0  0  0  0  0  0  0  0
   58.1260   27.1090   43.9460 C   0  0  0  0  0  0  0  0  0  0  0  0
   57.6300   28.3850   43.6640 C   0  0  0  0  0  0  0  0  0  0  0  0
   57.7184   32.1684   44.5063 H   0  0  0  0  0  0  0  0  0  0  0  0
   58.0418   31.0456   43.1421 H   0  0  0  0  0  0  0  0  0  0  0  0
   56.5555   32.0542   43.1421 H   0  0  0  0  0  0  0  0  0  0  0  0
   56.5855   29.2689   46.7989 H   0  0  0  0  0  0  0  0  0  0  0  0
   57.4780   26.9987   47.3033 H   0  0  0  0  0  0  0  0  0  0  0  0
   57.8136   24.5627   45.8590 H   0  0  0  0  0  0  0  0  0  0  0  0
   59.1234   24.8380   44.6620 H   0  0  0  0  0  0  0  0  0  0  0  0
   57.4836   29.3418   49.6411 H   0  0  0  0  0  0  0  0  0  0  0  0
   56.8335   30.4840   51.7585 H   0  0  0  0  0  0  0  0  0  0  0  0
   60.8835   31.9202   52.2383 H   0  0  0  0  0  0  0  0  0  0  0  0
   57.7852   31.3290   46.9360 H   0  0  0  0  0  0  0  0  0  0  0  0
   57.6257   33.7614   46.4088 H   0  0  0  0  0  0  0  0  0  0  0  0
   61.9412   34.0566   46.4340 H   0  0  0  0  0  0  0  0  0  0  0  0
   62.1081   31.6226   46.9607 H   0  0  0  0  0  0  0  0  0  0  0  0
   61.3614   29.6149   44.6670 H   0  0  0  0  0  0  0  0  0  0  0  0
   60.6557   27.9750   44.4680 H   0  0  0  0  0  0  0  0  0  0  0  0
   59.5870   29.4188   44.4680 H   0  0  0  0  0  0  0  0  0  0  0  0
   58.5704   26.5046   43.1415 H   0  0  0  0  0  0  0  0  0  0  0  0
   57.6779   28.7765   42.6371 H   0  0  0  0  0  0  0  0  0  0  0  0
  1  2  1  0
  2  3  1  0
  3  4  2  0
  4  5  1  0
  5  6  2  0
  6  7  1  0
  7  8  1  0
  8  9  1  0
  9 10  2  0
  9 11  1  0
 11 12  2  0
 12 13  1  0
 13 14  1  0
 14 15  2  0
 15 16  1  0
 16 17  2  0
 17 18  1  0
 17 19  1  0
 19 20  2  0
 20 21  1  0
 13 22  1  0
 22 23  1  0
 23 24  2  0
 24 25  1  0
 25 26  2  0
 26 27  1  0
 26 28  1  0
 28 29  2  0
 22 30  2  0
 30 31  1  0
  6 32  1  0
 32 33  2  0
 33  3  1  0
 30 11  1  0
 20 14  1  0
 29 23  1  0
  1 34  1  0
  1 35  1  0
  1 36  1  0
  4 37  1  0
  5 38  1  0
  7 39  1  0
  7 40  1  0
 15 41  1  0
 16 42  1  0
 19 43  1  0
 24 44  1  0
 25 45  1  0
 28 46  1  0
 29 47  1  0
 31 48  1  0
 31 49  1  0
 31 50  1  0
 32 51  1  0
 33 52  1  0
M  CHG  1   8  -1
M  END
>  <UniqueID>  (8) 
8

>  <SMILES>  (8) 
COc1ccc(C[N-]C(=O)c2nn(-c3ccc(Cl)cc3Cl)c(-c3ccc(Cl)cc3)c2C)cc1

>  <Energy>  (8) 
99.71259995941696

>  <Genealogy>  (8) 
COc1ccc(C[N-]C(=O)c2nn(-c3ccc(Cl)cc3Cl)c(-c3ccc(Cl)cc3)c2C)cc1 (protonated)
COc1ccc(C[N-]C(=O)c2nn(-c3ccc(Cl)cc3Cl)c(-c3ccc(Cl)cc3)c2C)cc1 (3D coordinates assigned)
COc1ccc(C[N-]C(=O)c2nn(-c3ccc(Cl)cc3Cl)c(-c3ccc(Cl)cc3)c2C)cc1 (optimized conformer: 99.71259995941696 kcal/mol)

>  <smiles>  (8) 
COc1ccc(CNC(=O)c2nn(-c3ccc(Cl)cc3Cl)c(-c3ccc(Cl)cc3)c2C)cc1

>  <score_type>  (8) 
oracle

>  <origin>  (8) 
adg

>  <m_score__min__energy>  (8) 
-10.199999999999999

>  <m_primary>  (8) 
energy

$$$$
8:0
     RDKit          3D

 23 24  0  0  0  0  0  0  0  0999 V2000
   56.2090   29.8660   42.6580 N   0  0  0  0  0  0  0  0  0  0  0  0
   57.3450   30.6190   43.7600 S   0  0  0  0  0  0  0  0  0  0  0  0
   58.1330   31.5000   42.8300 O   0  0  0  0  0  0  0  0  0  0  0  0
   56.4340   31.4160   44.6800 O   0  0  0  0  0  0  0  0  0  0  0  0
   58.2610   29.4110   44.5670 C   0  0  0  0  0  0  0  0  0  0  0  0
   59.6610   29.4790   44.5570 C   0  0  0  0  0  0  0  0  0  0  0  0
   60.4400   28.5340   45.1860 C   0  0  0  0  0  0  0  0  0  0  0  0
   59.8900   27.4740   45.8600 C   0  0  0  0  0  0  0  0  0  0  0  0
   58.5150   27.3860   45.8840 C   0  0  0  0  0  0  0  0  0  0  0  0
   57.8970   26.3470   46.5430 C   0  0  0  0  0  0  0  0  0  0  0  0
   58.6040   25.4930   47.1120 O   0  0  0  0  0  0  0  0  0  0  0  0
   56.5530   26.2650   46.5630 N   0  0  0  0  0  0  0  0  0  0  0  0
   55.8090   27.1660   45.9630 N   0  0  0  0  0  0  0  0  0  0  0  0
   56.3890   28.2000   45.3060 C   0  0  0  0  0  0  0  0  0  0  0  0
   55.6550   29.0200   44.7580 O   0  0  0  0  0  0  0  0  0  0  0  0
   57.7330   28.3340   45.2520 C   0  0  0  0  0  0  0  0  0  0  0  0
   56.3000   28.8380   42.6310 H   0  0  0  0  0  0  0  0  0  0  0  0
   55.2390   30.2050   42.8440 H   0  0  0  0  0  0  0  0  0  0  0  0
   60.1515   30.3115   44.0314 H   0  0  0  0  0  0  0  0  0  0  0  0
   61.5349   28.6321   45.1468 H   0  0  0  0  0  0  0  0  0  0  0  0
   60.5205   26.7247   46.3610 H   0  0  0  0  0  0  0  0  0  0  0  0
   56.1200   25.4770   47.0640 H   0  0  0  0  0  0  0  0  0  0  0  0
   54.7700   27.0800   45.9930 H   0  0  0  0  0  0  0  0  0  0  0  0
  1  2  1  0
  2  3  2  0
  2  4  2  0
  2  5  1  0
  5  6  2  0
  6  7  1  0
  7  8  2  0
  8  9  1  0
  9 10  1  0
 10 11  2  0
 10 12  1  0
 12 13  1  0
 13 14  1  0
 14 15  2  0
 14 16  1  0
 16  5  1  0
 16  9  2  0
  1 17  1  0
  1 18  1  0
  6 19  1  0
  7 20  1  0
  8 21  1  0
 12 22  1  0
 13 23  1  0
M  END
>  <smiles>  (9) 
NS(=O)(=O)c1cccc2c(=O)[nH][nH]c(=O)c12

>  <score_type>  (9) 
oracle

>  <origin>  (9) 
adg

>  <m_score__min__energy>  (9) 
-6.6299999999999999

>  <m_primary>  (9) 
energy

$$$$
9:0
     RDKit          3D

 46 49  0  0  0  0  0  0  0  0999 V2000
   59.6030   35.0090   46.3190 C   0  0  0  0  0  0  0  0  0  0  0  0
   58.4480   34.3670   45.5560 C   0  0  0  0  0  0  0  0  0  0  0  0
   58.9030   33.2490   44.6010 C   0  0  0  0  0  0  0  0  0  0  0  0
   58.4870   31.9090   45.0830 N   0  0  0  0  0  0  0  0  0  0  0  0
   57.3640   31.3460   44.5020 C   0  0  0  0  0  0  0  0  0  0  0  0
   56.7080   31.9540   43.6110 O   0  0  0  0  0  0  0  0  0  0  0  0
   56.9530   30.0850   44.9060 C   0  0  0  0  0  0  0  0  0  0  0  0
   55.9080   29.2780   44.5230 C   0  0  0  0  0  0  0  0  0  0  0  0
   55.9750   28.1370   45.2470 N   0  0  0  0  0  0  0  0  0  0  0  0
   57.0210   28.2030   46.0650 N   0  0  0  0  0  0  0  0  0  0  0  0
   57.6180   29.3910   45.8570 C   0  0  0  0  0  0  0  0  0  0  0  0
   58.7420   29.9150   46.4830 C   0  0  0  0  0  0  0  0  0  0  0  0
   59.4200   29.1980   47.4760 C   0  0  0  0  0  0  0  0  0  0  0  0
   60.5330   29.7510   48.1010 C   0  0  0  0  0  0  0  0  0  0  0  0
   60.9860   31.0310   47.7500 C   0  0  0  0  0  0  0  0  0  0  0  0
   62.1660   31.6190   48.4340 C   0  0  0  0  0  0  0  0  0  0  0  0
   62.9350   32.6150   47.8140 C   0  0  0  0  0  0  0  0  0  0  0  0
   64.0430   33.1590   48.4650 C   0  0  0  0  0  0  0  0  0  0  0  0
   64.3900   32.7060   49.7520 C   0  0  0  0  0  0  0  0  0  0  0  0
   65.5300   33.2380   50.4680 N   0  0  0  0  0  0  0  0  0  0  0  0
   66.9000   32.8260   50.1370 C   0  0  0  0  0  0  0  0  0  0  0  0
   65.3040   34.2090   51.5450 C   0  0  0  0  0  0  0  0  0  0  0  0
   63.6240   31.7380   50.3320 N   0  0  0  0  0  0  0  0  0  0  0  0
   62.5420   31.1930   49.7170 C   0  0  0  0  0  0  0  0  0  0  0  0
   60.3070   31.7540   46.7510 C   0  0  0  0  0  0  0  0  0  0  0  0
   59.1780   31.2170   46.0840 C   0  0  0  0  0  0  0  0  0  0  0  0
   59.4273   34.9113   47.4005 H   0  0  0  0  0  0  0  0  0  0  0  0
   60.5435   34.5042   46.0533 H   0  0  0  0  0  0  0  0  0  0  0  0
   59.6708   36.0743   46.0533 H   0  0  0  0  0  0  0  0  0  0  0  0
   57.7420   33.9402   46.2836 H   0  0  0  0  0  0  0  0  0  0  0  0
   57.9826   35.1529   44.9430 H   0  0  0  0  0  0  0  0  0  0  0  0
   58.4588   33.4246   43.6101 H   0  0  0  0  0  0  0  0  0  0  0  0
   60.0017   33.2683   44.5511 H   0  0  0  0  0  0  0  0  0  0  0  0
   55.1508   29.5177   43.7620 H   0  0  0  0  0  0  0  0  0  0  0  0
   59.0718   28.1948   47.7628 H   0  0  0  0  0  0  0  0  0  0  0  0
   61.0625   29.1792   48.8774 H   0  0  0  0  0  0  0  0  0  0  0  0
   62.6630   32.9693   46.8088 H   0  0  0  0  0  0  0  0  0  0  0  0
   64.6433   33.9392   47.9742 H   0  0  0  0  0  0  0  0  0  0  0  0
   67.4660   32.6558   51.0648 H   0  0  0  0  0  0  0  0  0  0  0  0
   66.8715   31.8967   49.5491 H   0  0  0  0  0  0  0  0  0  0  0  0
   67.3888   33.6169   49.5491 H   0  0  0  0  0  0  0  0  0  0  0  0
   65.4201   33.7103   52.5186 H   0  0  0  0  0  0  0  0  0  0  0  0
   66.0360   35.0258   51.4618 H   0  0  0  0  0  0  0  0  0  0  0  0
   64.2865   34.6186   51.4618 H   0  0  0  0  0  0  0  0  0  0  0  0
   61.9575   30.4135   50.2277 H   0  0  0  0  0  0  0  0  0  0  0  0
   60.6614   32.7599   46.4817 H   0  0  0  0  0  0  0  0  0  0  0  0
  1  2  1  0
  2  3  1  0
  3  4  1  0
  4  5  1  0
  5  6  2  0
  5  7  1  0
  7  8  2  0
  8  9  1  0
  9 10  1  0
 10 11  2  0
 11 12  1  0
 12 13  2  0
 13 14  1  0
 14 15  2  0
 15 16  1  0
 16 17  2  0
 17 18  1  0
 18 19  2  0
 19 20  1  0
 20 21  1  0
 20 22  1  0
 19 23  1  0
 23 24  2  0
 15 25  1  0
 25 26  2  0
 26  4  1  0
 11  7  1  0
 26 12  1  0
 24 16  1  0
  1 27  1  0
  1 28  1  0
  1 29  1  0
  2 30  1  0
  2 31  1  0
  3 32  1  0
  3 33  1  0
  8 34  1  0
 13 35  1  0
 14 36  1  0
 17 37  1  0
 18 38  1  0
 21 39  1  0
 21 40  1  0
 21 41  1  0
 22 42  1  0
 22 43  1  0
 22 44  1  0
 24 45  1  0
 25 46  1  0
M  CHG  1   9  -1
M  END
>  <UniqueID>  (10) 
9

>  <SMILES>  (10) 
CCCn1c(=O)c2c[n-]nc2c2ccc(-c3ccc(N(C)C)nc3)cc21

>  <Energy>  (10) 
100.87802088368

>  <Genealogy>  (10) 
CCCn1c(=O)c2c[n-]nc2c2ccc(-c3ccc(N(C)C)nc3)cc21 (protonated)
CCCn1c(=O)c2c[n-]nc2c2ccc(-c3ccc(N(C)C)nc3)cc21 (3D coordinates assigned)
CCCn1c(=O)c2c[n-]nc2c2ccc(-c3ccc(N(C)C)nc3)cc21 (optimized conformer: 100.87802088368 kcal/mol)

>  <smiles>  (10) 
CCCn1c(=O)c2c[nH]nc2c2ccc(-c3ccc(N(C)C)nc3)cc21

>  <score_type>  (10) 
oracle

>  <origin>  (10) 
adg

>  <m_score__min__energy>  (10) 
-9.0199999999999996

>  <m_primary>  (10) 
energy

$$$$
10:0
     RDKit          3D

 31 32  0  0  0  0  0  0  0  0999 V2000
   57.7320   33.5960   45.1900 C   0  0  0  0  0  0  0  0  0  0  0  0
   57.4860   32.4890   44.3300 O   0  0  0  0  0  0  0  0  0  0  0  0
   57.3980   31.1560   44.7600 C   0  0  0  0  0  0  0  0  0  0  0  0
   58.2370   30.6280   45.7610 C   0  0  0  0  0  0  0  0  0  0  0  0
   58.1080   29.2930   46.1570 C   0  0  0  0  0  0  0  0  0  0  0  0
   57.1420   28.4710   45.5620 C   0  0  0  0  0  0  0  0  0  0  0  0
   56.9610   26.7940   46.0660 S   0  0  0  0  0  0  0  0  0  0  0  0
   55.5210   26.3690   45.9950 O   0  0  0  0  0  0  0  0  0  0  0  0
   57.4430   26.6570   47.4820 O   0  0  0  0  0  0  0  0  0  0  0  0
   57.9080   25.7630   45.0430 N   0  0  0  0  0  0  0  0  0  0  0  0
   57.5140   24.4610   44.5890 C   0  0  0  0  0  0  0  0  0  0  0  0
   58.0300   23.2810   45.1580 C   0  0  0  0  0  0  0  0  0  0  0  0
   57.6160   22.0320   44.6840 C   0  0  0  0  0  0  0  0  0  0  0  0
   56.6870   21.9480   43.6380 C   0  0  0  0  0  0  0  0  0  0  0  0
   56.2710   20.7090   43.1550 O   0  0  0  0  0  0  0  0  0  0  0  0
   56.1740   23.1180   43.0700 C   0  0  0  0  0  0  0  0  0  0  0  0
   56.5870   24.3680   43.5430 C   0  0  0  0  0  0  0  0  0  0  0  0
   56.3110   28.9930   44.5610 C   0  0  0  0  0  0  0  0  0  0  0  0
   56.4390   30.3270   44.1650 C   0  0  0  0  0  0  0  0  0  0  0  0
   57.6594   33.2694   46.2379 H   0  0  0  0  0  0  0  0  0  0  0  0
   58.7401   33.9922   44.9984 H   0  0  0  0  0  0  0  0  0  0  0  0
   56.9866   34.3819   44.9984 H   0  0  0  0  0  0  0  0  0  0  0  0
   58.9966   31.2684   46.2330 H   0  0  0  0  0  0  0  0  0  0  0  0
   58.7672   28.8869   46.9383 H   0  0  0  0  0  0  0  0  0  0  0  0
   58.7609   23.3416   45.9778 H   0  0  0  0  0  0  0  0  0  0  0  0
   58.0206   21.1131   45.1334 H   0  0  0  0  0  0  0  0  0  0  0  0
   56.8070   19.8660   43.3270 H   0  0  0  0  0  0  0  0  0  0  0  0
   55.4441   23.0555   42.2494 H   0  0  0  0  0  0  0  0  0  0  0  0
   56.1809   25.2846   43.0902 H   0  0  0  0  0  0  0  0  0  0  0  0
   55.5555   28.3503   44.0855 H   0  0  0  0  0  0  0  0  0  0  0  0
   55.7815   30.7289   43.3800 H   0  0  0  0  0  0  0  0  0  0  0  0
  1  2  1  0
  2  3  1  0
  3  4  2  0
  4  5  1  0
  5  6  2  0
  6  7  1  0
  7  8  2  0
  7  9  2  0
  7 10  1  0
 10 11  1  0
 11 12  2  0
 12 13  1  0
 13 14  2  0
 14 15  1  0
 14 16  1  0
 16 17  2  0
  6 18  1  0
 18 19  2  0
 19  3  1  0
 17 11  1  0
  1 20  1  0
  1 21  1  0
  1 22  1  0
  4 23  1  0
  5 24  1  0
 12 25  1  0
 13 26  1  0
 15 27  1  0
 16 28  1  0
 17 29  1  0
 18 30  1  0
 19 31  1  0
M  CHG  1  10  -1
M  END
>  <UniqueID>  (11) 
10

>  <SMILES>  (11) 
COc1ccc(S(=O)(=O)[N-]c2ccc(O)cc2)cc1

>  <Energy>  (11) 
33.55196563390745

>  <Genealogy>  (11) 
COc1ccc(S(=O)(=O)[N-]c2ccc(O)cc2)cc1 (protonated)
COc1ccc(S(=O)(=O)[N-]c2ccc(O)cc2)cc1 (3D coordinates assigned)
COc1ccc(S(=O)(=O)[N-]c2ccc(O)cc2)cc1 (optimized conformer: 33.55196563390745 kcal/mol)

>  <smiles>  (11) 
COc1ccc(S(=O)(=O)Nc2ccc(O)cc2)cc1

>  <score_type>  (11) 
oracle

>  <origin>  (11) 
adg

>  <m_score__min__energy>  (11) 
-7.9299999999999997

>  <m_primary>  (11) 
energy

$$$$
11:0
     RDKit          3D

 47 51  0  0  0  0  0  0  0  0999 V2000
   58.0059   29.6476   44.3999 H   0  0  0  0  0  0  0  0  0  0  0  0
   58.5300   29.5310   45.3600 C   0  0  0  0  0  0  0  0  0  0  0  0
   58.7670   32.7430   48.0870 N   0  0  0  0  0  0  0  0  0  0  0  0
   58.2970   32.9440   46.7440 C   0  0  0  0  0  0  0  0  0  0  0  0
   57.7770   34.1970   46.3960 C   0  0  0  0  0  0  0  0  0  0  0  0
   57.7037   34.9885   47.1563 H   0  0  0  0  0  0  0  0  0  0  0  0
   57.3510   34.4480   45.0900 C   0  0  0  0  0  0  0  0  0  0  0  0
   56.9498   35.4369   44.8232 H   0  0  0  0  0  0  0  0  0  0  0  0
   57.4340   33.4450   44.1230 C   0  0  0  0  0  0  0  0  0  0  0  0
   57.1168   33.6510   43.0901 H   0  0  0  0  0  0  0  0  0  0  0  0
   57.9190   32.1800   44.4640 C   0  0  0  0  0  0  0  0  0  0  0  0
   57.9888   31.3962   43.6953 H   0  0  0  0  0  0  0  0  0  0  0  0
   58.3170   31.9030   45.7780 C   0  0  0  0  0  0  0  0  0  0  0  0
   58.7820   30.5790   46.0840 N   0  0  0  0  0  0  0  0  0  0  0  0
   59.7870   32.0200   48.4650 C   0  0  0  0  0  0  0  0  0  0  0  0
   59.6290   30.8830   49.2860 C   0  0  0  0  0  0  0  0  0  0  0  0
   58.6235   30.5703   49.6042 H   0  0  0  0  0  0  0  0  0  0  0  0
   60.7460   30.1560   49.6940 C   0  0  0  0  0  0  0  0  0  0  0  0
   60.6193   29.2745   50.3396 H   0  0  0  0  0  0  0  0  0  0  0  0
   61.9880   30.5300   49.2990 N   0  0  0  0  0  0  0  0  0  0  0  0
   62.1910   31.6070   48.4960 C   0  0  0  0  0  0  0  0  0  0  0  0
   63.4940   31.9550   48.1210 C   0  0  0  0  0  0  0  0  0  0  0  0
   64.3453   31.3526   48.4708 H   0  0  0  0  0  0  0  0  0  0  0  0
   63.7150   33.0650   47.3040 C   0  0  0  0  0  0  0  0  0  0  0  0
   64.7403   33.3343   47.0104 H   0  0  0  0  0  0  0  0  0  0  0  0
   62.6380   33.8350   46.8580 C   0  0  0  0  0  0  0  0  0  0  0  0
   62.8184   34.7096   46.2157 H   0  0  0  0  0  0  0  0  0  0  0  0
   61.3320   33.4980   47.2250 C   0  0  0  0  0  0  0  0  0  0  0  0
   60.4889   34.1090   46.8704 H   0  0  0  0  0  0  0  0  0  0  0  0
   61.0900   32.3780   48.0480 C   0  0  0  0  0  0  0  0  0  0  0  0
   58.9380   28.1840   45.8090 C   0  0  0  0  0  0  0  0  0  0  0  0
   60.3120   27.9750   46.0180 C   0  0  0  0  0  0  0  0  0  0  0  0
   61.0103   28.8194   45.9212 H   0  0  0  0  0  0  0  0  0  0  0  0
   60.8010   26.7130   46.3460 C   0  0  0  0  0  0  0  0  0  0  0  0
   61.8807   26.5672   46.4977 H   0  0  0  0  0  0  0  0  0  0  0  0
   59.9310   25.6350   46.4830 C   0  0  0  0  0  0  0  0  0  0  0  0
   60.3278   24.6376   46.7232 H   0  0  0  0  0  0  0  0  0  0  0  0
   58.5510   25.8160   46.3160 C   0  0  0  0  0  0  0  0  0  0  0  0
   57.6780   24.7290   46.4830 C   0  0  0  0  0  0  0  0  0  0  0  0
   58.0831   23.7329   46.7146 H   0  0  0  0  0  0  0  0  0  0  0  0
   56.3010   24.9050   46.3570 C   0  0  0  0  0  0  0  0  0  0  0  0
   55.6250   24.0457   46.4780 H   0  0  0  0  0  0  0  0  0  0  0  0
   55.7780   26.1670   46.0780 C   0  0  0  0  0  0  0  0  0  0  0  0
   54.4030   26.3400   45.9800 O   0  0  0  0  0  0  0  0  0  0  0  0
   56.6320   27.2600   45.9040 C   0  0  0  0  0  0  0  0  0  0  0  0
   56.2086   28.2536   45.6956 H   0  0  0  0  0  0  0  0  0  0  0  0
   58.0330   27.1020   45.9930 C   0  0  0  0  0  0  0  0  0  0  0  0
  1  2  1  0
  2  3  2  0
  3  4  1  0
  4  5  2  0
  5  6  1  0
  5  7  1  0
  7  8  1  0
  7  9  2  0
  9 10  1  0
  9 11  1  0
 11 12  1  0
 11 13  2  0
 13 14  1  0
 14 15  2  0
 15 16  1  0
 16 17  1  0
 16 18  2  0
 18 19  1  0
 18 20  1  0
 20 21  1  0
 21 22  2  0
 22 23  1  0
 22 24  1  0
 24 25  1  0
 24 26  2  0
 26 27  1  0
 26 28  1  0
 28 29  1  0
 28 30  2  0
  2 31  1  0
 31 32  2  0
 32 33  1  0
 32 34  1  0
 34 35  1  0
 34 36  2  0
 36 37  1  0
 36 38  1  0
 38 39  2  0
 39 40  1  0
 39 41  1  0
 41 42  1  0
 41 43  2  0
 43 44  1  0
 43 45  1  0
 45 46  1  0
 45 47  2  0
 13  4  1  0
 30 15  1  0
 47 31  1  0
 30 21  1  0
 47 38  1  0
M  CHG  2  20  -1  44  -1
M  END
>  <UniqueID>  (12) 
11

>  <SMILES>  (12) 
[O-]c1ccc2cccc(/C=N/c3ccccc3/N=c3\cc[n-]c4ccccc34)c2c1

>  <Energy>  (12) 
81.9215422840753

>  <Genealogy>  (12) 
[O-]c1ccc2cccc(C=Nc3ccccc3N=c3cc[n-]c4ccccc34)c2c1 (protonated)
[O-]c1ccc2cccc(/C=N/c3ccccc3/N=c3\cc[n-]c4ccccc34)c2c1 (cis-trans isomerization)
[O-]c1ccc2cccc(/C=N/c3ccccc3/N=c3\cc[n-]c4ccccc34)c2c1 (3D coordinates assigned)
[O-]c1ccc2cccc(/C=N/c3ccccc3/N=c3\cc[n-]c4ccccc34)c2c1 (optimized conformer: 81.9215422840753 kcal/mol)

>  <smiles>  (12) 
Oc1ccc2cccc(C=Nc3ccccc3N=c3cc[nH]c4ccccc34)c2c1

>  <score_type>  (12) 
oracle

>  <origin>  (12) 
adg

>  <m_score__min__energy>  (12) 
-14.59

>  <m_primary>  (12) 
energy

$$$$
12:0
     RDKit          3D

 46 48  0  0  0  0  0  0  0  0999 V2000
   56.5884   25.2045   47.1874 H   0  0  0  0  0  0  0  0  0  0  0  0
   57.2780   25.9680   46.7980 C   0  0  0  0  0  0  0  0  0  0  0  0
   58.4600   26.2590   47.4850 C   0  0  0  0  0  0  0  0  0  0  0  0
   58.6980   25.7263   48.4175 H   0  0  0  0  0  0  0  0  0  0  0  0
   59.3400   27.2250   46.9900 C   0  0  0  0  0  0  0  0  0  0  0  0
   60.2719   27.4443   47.5317 H   0  0  0  0  0  0  0  0  0  0  0  0
   59.0410   27.9200   45.8010 C   0  0  0  0  0  0  0  0  0  0  0  0
   59.9220   28.8680   45.2580 O   0  0  0  0  0  0  0  0  0  0  0  0
   60.7740   29.7140   46.0250 C   0  0  0  0  0  0  0  0  0  0  0  0
   60.5971   29.5383   47.0964 H   0  0  0  0  0  0  0  0  0  0  0  0
   61.8242   29.4911   45.7854 H   0  0  0  0  0  0  0  0  0  0  0  0
   60.5585   30.7657   45.7854 H   0  0  0  0  0  0  0  0  0  0  0  0
   57.8340   27.6380   45.1270 C   0  0  0  0  0  0  0  0  0  0  0  0
   57.4580   28.3410   43.9370 N   0  0  0  0  0  0  0  0  0  0  0  0
   56.4900   29.7760   43.9650 S   0  0  0  0  0  0  0  0  0  0  0  0
   55.3400   29.5750   44.9110 O   0  0  0  0  0  0  0  0  0  0  0  0
   55.9450   30.0600   42.5940 O   0  0  0  0  0  0  0  0  0  0  0  0
   57.4680   31.1250   44.5410 C   0  0  0  0  0  0  0  0  0  0  0  0
   57.8860   31.1870   45.8760 C   0  0  0  0  0  0  0  0  0  0  0  0
   57.6621   30.3546   46.5593 H   0  0  0  0  0  0  0  0  0  0  0  0
   58.5870   32.3030   46.3440 C   0  0  0  0  0  0  0  0  0  0  0  0
   58.8986   32.3490   47.3979 H   0  0  0  0  0  0  0  0  0  0  0  0
   58.8970   33.3680   45.4770 C   0  0  0  0  0  0  0  0  0  0  0  0
   59.6170   34.5700   45.9690 C   0  0  0  0  0  0  0  0  0  0  0  0
   59.5090   35.6610   45.3480 O   0  0  0  0  0  0  0  0  0  0  0  0
   60.3760   34.5480   47.1880 N   0  0  0  0  0  0  0  0  0  0  0  0
   61.4580   33.8560   47.4140 C   0  0  0  0  0  0  0  0  0  0  0  0
   61.5500   33.1360   48.6120 C   0  0  0  0  0  0  0  0  0  0  0  0
   60.7269   33.1706   49.3409 H   0  0  0  0  0  0  0  0  0  0  0  0
   62.6930   32.3720   48.8790 C   0  0  0  0  0  0  0  0  0  0  0  0
   62.8130   31.6190   50.1700 C   0  0  0  0  0  0  0  0  0  0  0  0
   62.7018   32.3167   51.0131 H   0  0  0  0  0  0  0  0  0  0  0  0
   62.0257   30.8526   50.2220 H   0  0  0  0  0  0  0  0  0  0  0  0
   63.7996   31.1353   50.2220 H   0  0  0  0  0  0  0  0  0  0  0  0
   63.7510   32.3780   47.9610 C   0  0  0  0  0  0  0  0  0  0  0  0
   64.6672   31.8050   48.1669 H   0  0  0  0  0  0  0  0  0  0  0  0
   63.6330   33.1170   46.7830 C   0  0  0  0  0  0  0  0  0  0  0  0
   64.4583   33.1210   46.0558 H   0  0  0  0  0  0  0  0  0  0  0  0
   62.5050   33.8320   46.5280 N   0  0  0  0  0  0  0  0  0  0  0  0
   62.4790   34.3890   45.6460 H   0  0  0  0  0  0  0  0  0  0  0  0
   58.4780   33.2930   44.1350 C   0  0  0  0  0  0  0  0  0  0  0  0
   58.7123   34.1159   43.4436 H   0  0  0  0  0  0  0  0  0  0  0  0
   57.7670   32.1820   43.6740 C   0  0  0  0  0  0  0  0  0  0  0  0
   57.4407   32.1380   42.6244 H   0  0  0  0  0  0  0  0  0  0  0  0
   56.9740   26.6470   45.6180 C   0  0  0  0  0  0  0  0  0  0  0  0
   56.0526   26.4026   45.0692 H   0  0  0  0  0  0  0  0  0  0  0  0
  1  2  1  0
  2  3  2  0
  3  4  1  0
  3  5  1  0
  5  6  1  0
  5  7  2  0
  7  8  1  0
  8  9  1  0
  9 10  1  0
  9 11  1  0
  9 12  1  0
  7 13  1  0
 13 14  1  0
 14 15  1  0
 15 16  2  0
 15 17  2  0
 15 18  1  0
 18 19  2  0
 19 20  1  0
 19 21  1  0
 21 22  1  0
 21 23  2  0
 23 24  1  0
 24 25  2  0
 24 26  1  0
 26 27  2  0
 27 28  1  0
 28 29  1  0
 28 30  2  0
 30 31  1  0
 31 32  1  0
 31 33  1  0
 31 34  1  0
 30 35  1  0
 35 36  1  0
 35 37  2  0
 37 38  1  0
 37 39  1  0
 39 40  1  0
 23 41  1  0
 41 42  1  0
 41 43  2  0
 43 44  1  0
 13 45  2  0
 45 46  1  0
 45  2  1  0
 43 18  1  0
 39 27  1  0
M  CHG  1  14  -1
M  END
>  <UniqueID>  (13) 
12

>  <SMILES>  (13) 
COc1ccccc1[N-]S(=O)(=O)c1ccc(C(=O)/N=c2/cc(C)cc[nH]2)cc1

>  <Energy>  (13) 
64.41858088384937

>  <Genealogy>  (13) 
COc1ccccc1[N-]S(=O)(=O)c1ccc(C(=O)N=c2cc(C)cc[nH]2)cc1 (protonated)
COc1ccccc1[N-]S(=O)(=O)c1ccc(C(=O)/N=c2/cc(C)cc[nH]2)cc1 (cis-trans isomerization)
COc1ccccc1[N-]S(=O)(=O)c1ccc(C(=O)/N=c2/cc(C)cc[nH]2)cc1 (3D coordinates assigned)
COc1ccccc1[N-]S(=O)(=O)c1ccc(C(=O)/N=c2/cc(C)cc[nH]2)cc1 (optimized conformer: 64.41858088384937 kcal/mol)

>  <smiles>  (13) 
COc1ccccc1NS(=O)(=O)c1ccc(C(=O)N=c2cc(C)cc[nH]2)cc1

>  <score_type>  (13) 
oracle

>  <origin>  (13) 
adg

>  <m_score__min__energy>  (13) 
-11.93

>  <m_primary>  (13) 
energy

$$$$
13:0
     RDKit          3D

 35 37  0  0  1  0  0  0  0  0999 V2000
   57.5720   28.6870   43.6700 N   0  0  0  0  0  0  0  0  0  0  0  0
   56.7710   30.2050   43.7440 S   0  0  0  0  0  0  0  0  0  0  0  0
   56.5200   30.7540   42.3490 O   0  0  0  0  0  0  0  0  0  0  0  0
   55.4730   30.1300   44.4890 O   0  0  0  0  0  0  0  0  0  0  0  0
   57.8400   31.3420   44.5460 C   0  0  0  0  0  0  0  0  0  0  0  0
   58.5540   30.9970   45.6860 C   0  0  0  0  0  0  0  0  0  0  0  0
   59.3990   31.9040   46.3140 C   0  0  0  0  0  0  0  0  0  0  0  0
   59.5300   33.1710   45.7940 C   0  0  0  0  0  0  0  0  0  0  0  0
   60.3690   34.1710   46.3630 N   0  0  0  0  0  0  0  0  0  0  0  0
   60.7210   34.0450   47.5980 C   0  0  0  0  0  0  0  0  0  0  0  0
   61.9830   33.7840   47.9860 N   0  0  0  0  0  0  0  0  0  0  0  0
   62.2290   33.6740   49.3040 C   0  0  0  0  0  0  0  0  0  0  0  0
   63.5910   33.3920   49.7460 C   0  0  0  0  0  0  0  0  0  0  0  0
   64.1340   33.6390   50.9900 C   0  0  0  0  0  0  0  0  0  0  0  0
   65.4290   33.2300   50.9910 C   0  0  0  0  0  0  0  0  0  0  0  0
   65.6810   32.7260   49.7340 C   0  0  0  0  0  0  0  0  0  0  0  0
   64.5630   32.8250   48.9770 N   0  0  0  0  0  0  0  0  0  0  0  0
   61.2410   33.8190   50.2550 C   0  0  0  0  0  0  0  0  0  0  0  0
   59.9530   34.0860   49.8380 C   0  0  0  0  0  0  0  0  0  0  0  0
   59.7230   34.1940   48.5150 N   0  0  0  0  0  0  0  0  0  0  0  0
   58.8260   33.5510   44.6470 C   0  0  0  0  0  0  0  0  0  0  0  0
   57.9890   32.6080   44.0490 C   0  0  0  0  0  0  0  0  0  0  0  0
   58.3150   28.7520   42.9390 H   0  0  0  0  0  0  0  0  0  0  0  0
   56.8780   27.9810   43.3420 H   0  0  0  0  0  0  0  0  0  0  0  0
   58.4484   29.9837   46.1009 H   0  0  0  0  0  0  0  0  0  0  0  0
   59.9566   31.6124   47.2163 H   0  0  0  0  0  0  0  0  0  0  0  0
   63.6050   34.0926   51.8411 H   0  0  0  0  0  0  0  0  0  0  0  0
   66.1374   33.2895   51.8305 H   0  0  0  0  0  0  0  0  0  0  0  0
   66.6413   32.3081   49.3976 H   0  0  0  0  0  0  0  0  0  0  0  0
   64.4470   32.5250   47.9770 H   0  0  0  0  0  0  0  0  0  0  0  0
   61.4751   33.7236   51.3256 H   0  0  0  0  0  0  0  0  0  0  0  0
   59.1369   34.2073   50.5655 H   0  0  0  0  0  0  0  0  0  0  0  0
   58.7400   34.3970   48.1970 H   0  0  0  0  0  0  0  0  0  0  0  0
   58.9289   34.5631   44.2286 H   0  0  0  0  0  0  0  0  0  0  0  0
   57.4291   32.8926   43.1459 H   0  0  0  0  0  0  0  0  0  0  0  0
  1  2  1  0
  2  3  2  0
  2  4  2  0
  2  5  1  0
  5  6  2  0
  6  7  1  0
  7  8  2  0
  8  9  1  0
  9 10  2  0
 10 11  1  0
 11 12  2  0
 12 13  1  0
 13 14  2  0
 14 15  1  0
 15 16  2  0
 16 17  1  0
 12 18  1  0
 18 19  2  0
 19 20  1  0
  8 21  1  0
 21 22  2  0
 22  5  1  0
 20 10  1  0
 17 13  1  0
  1 23  1  0
  1 24  1  0
  6 25  1  0
  7 26  1  0
 14 27  1  0
 15 28  1  0
 16 29  1  0
 17 30  1  0
 18 31  1  0
 19 32  1  0
 20 33  1  0
 21 34  1  0
 22 35  1  0
M  END
>  <smiles>  (14) 
NS(=O)(=O)c1ccc(N=c2nc(-c3ccc[nH]3)cc[nH]2)cc1

>  <score_type>  (14) 
oracle

>  <origin>  (14) 
adg

>  <m_score__min__energy>  (14) 
-8.3000000000000007

>  <m_primary>  (14) 
energy

$$$$
14:0
     RDKit          3D

 42 44  0  0  0  0  0  0  0  0999 V2000
   60.0030   34.2420   49.1220 C   0  0  0  0  0  0  0  0  0  0  0  0
   59.9570   34.4630   47.7160 O   0  0  0  0  0  0  0  0  0  0  0  0
   59.1340   33.7550   46.8260 C   0  0  0  0  0  0  0  0  0  0  0  0
   57.8070   34.1440   46.5670 C   0  0  0  0  0  0  0  0  0  0  0  0
   57.0200   33.4240   45.6660 C   0  0  0  0  0  0  0  0  0  0  0  0
   57.5460   32.3090   44.9920 C   0  0  0  0  0  0  0  0  0  0  0  0
   56.7330   31.5550   44.0750 N   0  0  0  0  0  0  0  0  0  0  0  0
   57.0250   31.5000   42.8620 O   0  0  0  0  0  0  0  0  0  0  0  0
   55.6060   30.9000   44.5150 O   0  0  0  0  0  0  0  0  0  0  0  0
   58.8790   31.9350   45.2340 C   0  0  0  0  0  0  0  0  0  0  0  0
   59.6580   32.6250   46.1710 C   0  0  0  0  0  0  0  0  0  0  0  0
   61.0200   32.2210   46.3720 N   0  0  0  0  0  0  0  0  0  0  0  0
   61.6340   31.9160   47.4850 C   0  0  0  0  0  0  0  0  0  0  0  0
   62.8210   32.5370   47.7310 N   0  0  0  0  0  0  0  0  0  0  0  0
   63.5120   32.3710   48.8880 C   0  0  0  0  0  0  0  0  0  0  0  0
   63.0060   31.5470   49.8900 C   0  0  0  0  0  0  0  0  0  0  0  0
   61.8140   30.8620   49.6690 C   0  0  0  0  0  0  0  0  0  0  0  0
   61.1290   31.0010   48.4550 C   0  0  0  0  0  0  0  0  0  0  0  0
   60.0140   30.1320   48.2090 N   0  0  0  0  0  0  0  0  0  0  0  0
   59.9920   29.2400   47.0810 C   0  0  0  0  0  0  0  0  0  0  0  0
   61.0450   29.0840   46.4000 O   0  0  0  0  0  0  0  0  0  0  0  0
   58.7530   28.5190   46.6820 C   0  0  0  0  0  0  0  0  0  0  0  0
   58.3800   27.3030   47.2890 C   0  0  0  0  0  0  0  0  0  0  0  0
   57.1850   26.6700   46.9340 C   0  0  0  0  0  0  0  0  0  0  0  0
   56.3470   27.2380   45.9740 C   0  0  0  0  0  0  0  0  0  0  0  0
   55.1580   26.6070   45.6260 O   0  0  0  0  0  0  0  0  0  0  0  0
   56.7030   28.4420   45.3630 C   0  0  0  0  0  0  0  0  0  0  0  0
   57.8960   29.0800   45.7140 C   0  0  0  0  0  0  0  0  0  0  0  0
   59.8062   35.1876   49.6484 H   0  0  0  0  0  0  0  0  0  0  0  0
   59.2399   33.5008   49.4018 H   0  0  0  0  0  0  0  0  0  0  0  0
   60.9985   33.8669   49.4018 H   0  0  0  0  0  0  0  0  0  0  0  0
   57.3861   35.0223   47.0784 H   0  0  0  0  0  0  0  0  0  0  0  0
   55.9801   33.7321   45.4824 H   0  0  0  0  0  0  0  0  0  0  0  0
   59.3155   31.0903   44.6808 H   0  0  0  0  0  0  0  0  0  0  0  0
   64.4721   32.8877   49.0339 H   0  0  0  0  0  0  0  0  0  0  0  0
   63.5415   31.4385   50.8447 H   0  0  0  0  0  0  0  0  0  0  0  0
   61.4073   30.2069   50.4535 H   0  0  0  0  0  0  0  0  0  0  0  0
   59.3720   29.9440   49.0100 H   0  0  0  0  0  0  0  0  0  0  0  0
   59.0340   26.8485   48.0478 H   0  0  0  0  0  0  0  0  0  0  0  0
   56.9045   25.7205   47.4134 H   0  0  0  0  0  0  0  0  0  0  0  0
   56.0437   28.8890   44.6044 H   0  0  0  0  0  0  0  0  0  0  0  0
   58.1687   30.0294   45.2299 H   0  0  0  0  0  0  0  0  0  0  0  0
  1  2  1  0
  2  3  1  0
  3  4  2  0
  4  5  1  0
  5  6  2  0
  6  7  1  0
  7  8  2  0
  7  9  1  0
  6 10  1  0
 10 11  2  0
 11 12  1  0
 12 13  2  3
 13 14  1  0
 14 15  1  0
 15 16  2  0
 16 17  1  0
 17 18  2  0
 18 19  1  0
 19 20  1  0
 20 21  2  0
 20 22  1  0
 22 23  2  0
 23 24  1  0
 24 25  2  0
 25 26  1  0
 25 27  1  0
 27 28  2  0
 11  3  1  0
 18 13  1  0
 28 22  1  0
  1 29  1  0
  1 30  1  0
  1 31  1  0
  4 32  1  0
  5 33  1  0
 10 34  1  0
 15 35  1  0
 16 36  1  0
 17 37  1  0
 19 38  1  0
 23 39  1  0
 24 40  1  0
 27 41  1  0
 28 42  1  0
M  CHG  4   7   1   9  -1  14  -1  26  -1
M  END
>  <UniqueID>  (15) 
13

>  <SMILES>  (15) 
COc1ccc([N+](=O)[O-])cc1N=c1[n-]cccc1NC(=O)c1ccc([O-])cc1

>  <Energy>  (15) 
64.59409083477155

>  <Genealogy>  (15) 
COc1ccc([N+](=O)[O-])cc1N=c1[n-]cccc1NC(=O)c1ccc([O-])cc1 (protonated)
COc1ccc([N+](=O)[O-])cc1N=c1[n-]cccc1NC(=O)c1ccc([O-])cc1 (3D coordinates assigned)
COc1ccc([N+](=O)[O-])cc1N=c1[n-]cccc1NC(=O)c1ccc([O-])cc1 (optimized conformer: 64.59409083477155 kcal/mol)

>  <smiles>  (15) 
COc1ccc([N+](=O)[O-])cc1N=c1[nH]cccc1NC(=O)c1ccc(O)cc1

>  <score_type>  (15) 
oracle

>  <origin>  (15) 
adg

>  <m_score__min__energy>  (15) 
-11.710000000000001

>  <m_primary>  (15) 
energy

$$$$
15:0
     RDKit          3D

 46 49  0  0  0  0  0  0  0  0999 V2000
   57.5060   30.6950   44.9270 C   0  0  0  0  0  0  0  0  0  0  0  0
   57.7540   31.2900   46.1980 O   0  0  0  0  0  0  0  0  0  0  0  0
   58.3950   32.5250   46.3900 C   0  0  0  0  0  0  0  0  0  0  0  0
   58.6180   33.4150   45.3200 C   0  0  0  0  0  0  0  0  0  0  0  0
   59.2540   34.6370   45.5360 C   0  0  0  0  0  0  0  0  0  0  0  0
   59.6780   34.9860   46.8170 C   0  0  0  0  0  0  0  0  0  0  0  0
   59.4650   34.1170   47.8870 C   0  0  0  0  0  0  0  0  0  0  0  0
   58.8200   32.8790   47.6890 C   0  0  0  0  0  0  0  0  0  0  0  0
   58.5980   31.9690   48.7850 N   0  0  0  0  0  0  0  0  0  0  0  0
   58.7330   32.4120   50.4570 S   0  0  0  0  0  0  0  0  0  0  0  0
   59.2760   33.8110   50.5390 O   0  0  0  0  0  0  0  0  0  0  0  0
   57.3710   32.3660   51.0920 O   0  0  0  0  0  0  0  0  0  0  0  0
   59.8170   31.3140   51.2490 N   0  0  0  0  0  0  0  0  0  0  0  0
   59.8450   29.7870   50.4190 S   0  0  0  0  0  0  0  0  0  0  0  0
   60.3850   28.7190   51.3290 O   0  0  0  0  0  0  0  0  0  0  0  0
   58.4320   29.4120   50.0740 O   0  0  0  0  0  0  0  0  0  0  0  0
   60.7670   29.9000   48.9320 N   0  0  0  0  0  0  0  0  0  0  0  0
   61.7010   30.9970   48.7760 C   0  0  0  0  0  0  0  0  0  0  0  0
   62.3540   31.5840   49.8790 C   0  0  0  0  0  0  0  0  0  0  0  0
   63.2130   32.6720   49.6960 C   0  0  0  0  0  0  0  0  0  0  0  0
   63.4330   33.1850   48.4160 C   0  0  0  0  0  0  0  0  0  0  0  0
   62.8090   32.6000   47.3130 C   0  0  0  0  0  0  0  0  0  0  0  0
   61.9580   31.5040   47.4870 C   0  0  0  0  0  0  0  0  0  0  0  0
   61.3750   30.9030   46.3710 O   0  0  0  0  0  0  0  0  0  0  0  0
   60.6610   29.7080   46.4760 C   0  0  0  0  0  0  0  0  0  0  0  0
   60.2500   29.0490   45.3120 C   0  0  0  0  0  0  0  0  0  0  0  0
   59.6090   27.8120   45.3970 C   0  0  0  0  0  0  0  0  0  0  0  0
   59.3920   27.2240   46.6430 C   0  0  0  0  0  0  0  0  0  0  0  0
   59.7850   27.8850   47.8110 C   0  0  0  0  0  0  0  0  0  0  0  0
   60.3850   29.1570   47.7460 C   0  0  0  0  0  0  0  0  0  0  0  0
   57.0863   29.6882   45.0691 H   0  0  0  0  0  0  0  0  0  0  0  0
   56.7911   31.3143   44.3654 H   0  0  0  0  0  0  0  0  0  0  0  0
   58.4491   30.6232   44.3654 H   0  0  0  0  0  0  0  0  0  0  0  0
   58.2877   33.1434   44.3065 H   0  0  0  0  0  0  0  0  0  0  0  0
   59.4212   35.3259   44.6949 H   0  0  0  0  0  0  0  0  0  0  0  0
   60.1819   35.9493   46.9846 H   0  0  0  0  0  0  0  0  0  0  0  0
   59.8034   34.4001   48.8946 H   0  0  0  0  0  0  0  0  0  0  0  0
   58.2920   30.9900   48.5900 H   0  0  0  0  0  0  0  0  0  0  0  0
   62.1867   31.1836   50.8898 H   0  0  0  0  0  0  0  0  0  0  0  0
   63.7168   33.1250   50.5626 H   0  0  0  0  0  0  0  0  0  0  0  0
   64.0980   34.0501   48.2770 H   0  0  0  0  0  0  0  0  0  0  0  0
   62.9870   33.0019   46.3047 H   0  0  0  0  0  0  0  0  0  0  0  0
   60.4324   29.5065   44.3284 H   0  0  0  0  0  0  0  0  0  0  0  0
   59.2752   27.3012   44.4818 H   0  0  0  0  0  0  0  0  0  0  0  0
   58.9102   26.2372   46.7071 H   0  0  0  0  0  0  0  0  0  0  0  0
   59.6240   27.4072   48.7886 H   0  0  0  0  0  0  0  0  0  0  0  0
  1  2  1  0
  2  3  1  0
  3  4  2  0
  4  5  1  0
  5  6  2  0
  6  7  1  0
  7  8  2  0
  8  9  1  0
  9 10  1  0
 10 11  2  0
 10 12  2  0
 10 13  1  0
 13 14  1  0
 14 15  2  0
 14 16  2  0
 14 17  1  0
 17 18  1  0
 18 19  2  0
 19 20  1  0
 20 21  2  0
 21 22  1  0
 22 23  2  0
 23 24  1  0
 24 25  1  0
 25 26  2  0
 26 27  1  0
 27 28  2  0
 28 29  1  0
 29 30  2  0
  8  3  1  0
 30 17  1  0
 23 18  1  0
 30 25  1  0
  1 31  1  0
  1 32  1  0
  1 33  1  0
  4 34  1  0
  5 35  1  0
  6 36  1  0
  7 37  1  0
  9 38  1  0
 19 39  1  0
 20 40  1  0
 21 41  1  0
 22 42  1  0
 26 43  1  0
 27 44  1  0
 28 45  1  0
 29 46  1  0
M  CHG  1  13  -1
M  END
>  <UniqueID>  (16) 
14

>  <SMILES>  (16) 
COc1ccccc1NS(=O)(=O)[N-]S(=O)(=O)N1c2ccccc2Oc2ccccc21

>  <Energy>  (16) 
61.19444378318698

>  <Genealogy>  (16) 
COc1ccccc1NS(=O)(=O)[N-]S(=O)(=O)N1c2ccccc2Oc2ccccc21 (protonated)
COc1ccccc1NS(=O)(=O)[N-]S(=O)(=O)N1c2ccccc2Oc2ccccc21 (3D coordinates assigned)
COc1ccccc1NS(=O)(=O)[N-]S(=O)(=O)N1c2ccccc2Oc2ccccc21 (nonaromatic ring conformer: 61.19444378318698 kcal/mol)

>  <smiles>  (16) 
COc1ccccc1NS(=O)(=O)NS(=O)(=O)N1c2ccccc2Oc2ccccc21

>  <score_type>  (16) 
oracle

>  <origin>  (16) 
adg

>  <m_score__min__energy>  (16) 
-11.16

>  <m_primary>  (16) 
energy

$$$$
16:0
     RDKit          3D

 53 56  0  0  0  0  0  0  0  0999 V2000
   58.4360   34.1190   46.2540 O   0  0  0  0  0  0  0  0  0  0  0  0
   58.8310   32.9830   45.8700 C   0  0  0  0  0  0  0  0  0  0  0  0
   59.8780   32.3090   46.5960 N   0  0  0  0  0  0  0  0  0  0  0  0
   60.6340   32.9290   47.6490 C   0  0  0  0  0  0  0  0  0  0  0  0
   61.8660   33.5330   47.3530 C   0  0  0  0  0  0  0  0  0  0  0  0
   62.6090   34.1530   48.3600 C   0  0  0  0  0  0  0  0  0  0  0  0
   62.1240   34.1860   49.6720 C   0  0  0  0  0  0  0  0  0  0  0  0
   60.8830   33.6080   49.9810 C   0  0  0  0  0  0  0  0  0  0  0  0
   60.3630   33.6790   51.3210 N   0  0  0  0  0  0  0  0  0  0  0  0
   61.2790   33.4230   52.4450 C   0  0  0  0  0  0  0  0  0  0  0  0
   60.5840   33.6100   53.7920 C   0  0  0  0  0  0  0  0  0  0  0  0
   59.3090   33.0100   53.7550 O   0  0  0  0  0  0  0  0  0  0  0  0
   58.4560   33.7990   52.9590 C   0  0  0  0  0  0  0  0  0  0  0  0
   58.9080   33.8330   51.4880 C   0  0  0  0  0  0  0  0  0  0  0  0
   60.1370   32.9930   48.9640 C   0  0  0  0  0  0  0  0  0  0  0  0
   58.1920   32.3710   44.6780 C   0  0  0  0  0  0  0  0  0  0  0  0
   58.5130   32.8590   43.3970 C   0  0  0  0  0  0  0  0  0  0  0  0
   57.9010   32.3320   42.2610 C   0  0  0  0  0  0  0  0  0  0  0  0
   56.9630   31.3090   42.3820 C   0  0  0  0  0  0  0  0  0  0  0  0
   56.6320   30.7980   43.6450 C   0  0  0  0  0  0  0  0  0  0  0  0
   55.6010   29.7070   43.7580 C   0  0  0  0  0  0  0  0  0  0  0  0
   55.7970   28.9610   44.9590 O   0  0  0  0  0  0  0  0  0  0  0  0
   56.8820   28.1080   45.2160 C   0  0  0  0  0  0  0  0  0  0  0  0
   58.1710   28.3430   44.7010 C   0  0  0  0  0  0  0  0  0  0  0  0
   59.2220   27.4760   45.0160 C   0  0  0  0  0  0  0  0  0  0  0  0
   58.9950   26.3630   45.8320 C   0  0  0  0  0  0  0  0  0  0  0  0
   57.7150   26.1150   46.3330 C   0  0  0  0  0  0  0  0  0  0  0  0
   57.4920   25.0280   47.1140 F   0  0  0  0  0  0  0  0  0  0  0  0
   56.6650   26.9860   46.0290 C   0  0  0  0  0  0  0  0  0  0  0  0
   57.2400   31.3390   44.7910 C   0  0  0  0  0  0  0  0  0  0  0  0
   60.0720   31.3010   46.4040 H   0  0  0  0  0  0  0  0  0  0  0  0
   62.2485   33.5179   46.3218 H   0  0  0  0  0  0  0  0  0  0  0  0
   63.5776   34.6164   48.1211 H   0  0  0  0  0  0  0  0  0  0  0  0
   62.7173   34.6665   50.4639 H   0  0  0  0  0  0  0  0  0  0  0  0
   61.6494   32.3896   52.3751 H   0  0  0  0  0  0  0  0  0  0  0  0
   62.1082   34.1432   52.3833 H   0  0  0  0  0  0  0  0  0  0  0  0
   61.1867   33.1399   54.5830 H   0  0  0  0  0  0  0  0  0  0  0  0
   60.4755   34.6846   54.0003 H   0  0  0  0  0  0  0  0  0  0  0  0
   57.4388   33.3832   53.0084 H   0  0  0  0  0  0  0  0  0  0  0  0
   58.4846   34.8279   53.3471 H   0  0  0  0  0  0  0  0  0  0  0  0
   58.4065   33.0151   50.9499 H   0  0  0  0  0  0  0  0  0  0  0  0
   58.6373   34.8210   51.0872 H   0  0  0  0  0  0  0  0  0  0  0  0
   59.1544   32.5568   49.1969 H   0  0  0  0  0  0  0  0  0  0  0  0
   59.2545   33.6646   43.2916 H   0  0  0  0  0  0  0  0  0  0  0  0
   58.1592   32.7248   41.2665 H   0  0  0  0  0  0  0  0  0  0  0  0
   56.4798   30.9002   41.4823 H   0  0  0  0  0  0  0  0  0  0  0  0
   54.5971   30.1566   43.7701 H   0  0  0  0  0  0  0  0  0  0  0  0
   55.7012   29.0302   42.8967 H   0  0  0  0  0  0  0  0  0  0  0  0
   58.3518   29.2106   44.0494 H   0  0  0  0  0  0  0  0  0  0  0  0
   60.2301   27.6699   44.6209 H   0  0  0  0  0  0  0  0  0  0  0  0
   59.8239   25.6834   46.0790 H   0  0  0  0  0  0  0  0  0  0  0  0
   55.6600   26.7898   46.4308 H   0  0  0  0  0  0  0  0  0  0  0  0
   56.9700   30.9530   45.7850 H   0  0  0  0  0  0  0  0  0  0  0  0
  1  2  2  0
  2  3  1  0
  3  4  1  0
  4  5  2  0
  5  6  1  0
  6  7  2  0
  7  8  1  0
  8  9  1  0
  9 10  1  0
 10 11  1  0
 11 12  1  0
 12 13  1  0
 13 14  1  0
  8 15  2  0
  2 16  1  0
 16 17  2  0
 17 18  1  0
 18 19  2  0
 19 20  1  0
 20 21  1  0
 21 22  1  0
 22 23  1  0
 23 24  2  0
 24 25  1  0
 25 26  2  0
 26 27  1  0
 27 28  1  0
 27 29  2  0
 20 30  2  0
 15  4  1  0
 30 16  1  0
 14  9  1  0
 29 23  1  0
  3 31  1  0
  5 32  1  0
  6 33  1  0
  7 34  1  0
 10 35  1  0
 10 36  1  0
 11 37  1  0
 11 38  1  0
 13 39  1  0
 13 40  1  0
 14 41  1  0
 14 42  1  0
 15 43  1  0
 17 44  1  0
 18 45  1  0
 19 46  1  0
 21 47  1  0
 21 48  1  0
 24 49  1  0
 25 50  1  0
 26 51  1  0
 29 52  1  0
 30 53  1  0
M  END
>  <UniqueID>  (17) 
15

>  <SMILES>  (17) 
O=C(Nc1cccc(N2CCOCC2)c1)c1cccc(COc2cccc(F)c2)c1

>  <Energy>  (17) 
71.6135392029713

>  <Genealogy>  (17) 
O=C(Nc1cccc(N2CCOCC2)c1)c1cccc(COc2cccc(F)c2)c1 (3D coordinates assigned)
O=C(Nc1cccc(N2CCOCC2)c1)c1cccc(COc2cccc(F)c2)c1 (nonaromatic ring conformer: 71.6135392029713 kcal/mol)

>  <smiles>  (17) 
O=C(Nc1cccc(N2CCOCC2)c1)c1cccc(COc2cccc(F)c2)c1

>  <score_type>  (17) 
oracle

>  <origin>  (17) 
adg

>  <m_score__min__energy>  (17) 
-9.3699999999999992

>  <m_primary>  (17) 
energy

$$$$
17:0
     RDKit          3D

 27 29  0  0  0  0  0  0  0  0999 V2000
   59.6220   33.7780   48.3110 C   0  0  0  0  0  0  0  0  0  0  0  0
   58.4810   33.0380   48.1030 C   0  0  0  0  0  0  0  0  0  0  0  0
   57.8840   33.1120   46.8650 C   0  0  0  0  0  0  0  0  0  0  0  0
   58.4130   33.9120   45.8420 C   0  0  0  0  0  0  0  0  0  0  0  0
   57.6390   33.8540   44.5570 C   0  0  0  0  0  0  0  0  0  0  0  0
   58.3400   32.4560   43.6510 S   0  0  0  0  0  0  0  0  0  0  0  0
   58.2910   30.9240   44.5220 C   0  0  0  0  0  0  0  0  0  0  0  0
   59.2440   30.4000   45.2960 N   0  0  0  0  0  0  0  0  0  0  0  0
   59.0430   29.2460   45.9700 C   0  0  0  0  0  0  0  0  0  0  0  0
   57.8920   28.5680   45.9040 N   0  0  0  0  0  0  0  0  0  0  0  0
   56.8900   29.0370   45.1490 C   0  0  0  0  0  0  0  0  0  0  0  0
   55.6300   28.6230   44.8800 N   0  0  0  0  0  0  0  0  0  0  0  0
   55.0370   29.4920   44.0520 N   0  0  0  0  0  0  0  0  0  0  0  0
   55.8950   30.4840   43.7660 C   0  0  0  0  0  0  0  0  0  0  0  0
   57.0850   30.2080   44.4590 C   0  0  0  0  0  0  0  0  0  0  0  0
   59.5470   34.6530   46.0320 C   0  0  0  0  0  0  0  0  0  0  0  0
   60.1430   34.5710   47.2830 C   0  0  0  0  0  0  0  0  0  0  0  0
   60.1260   33.7460   49.2882 H   0  0  0  0  0  0  0  0  0  0  0  0
   58.0596   32.4078   48.9000 H   0  0  0  0  0  0  0  0  0  0  0  0
   56.9705   32.5299   46.6736 H   0  0  0  0  0  0  0  0  0  0  0  0
   56.5700   33.6883   44.7567 H   0  0  0  0  0  0  0  0  0  0  0  0
   57.7115   34.7929   43.9884 H   0  0  0  0  0  0  0  0  0  0  0  0
   59.8561   28.8497   46.5960 H   0  0  0  0  0  0  0  0  0  0  0  0
   55.1480   27.7750   45.2410 H   0  0  0  0  0  0  0  0  0  0  0  0
   55.7027   31.3483   43.1133 H   0  0  0  0  0  0  0  0  0  0  0  0
   59.9658   35.2826   45.2331 H   0  0  0  0  0  0  0  0  0  0  0  0
   61.0583   35.1507   47.4729 H   0  0  0  0  0  0  0  0  0  0  0  0
  1  2  2  0
  2  3  1  0
  3  4  2  0
  4  5  1  0
  5  6  1  0
  6  7  1  0
  7  8  2  0
  8  9  1  0
  9 10  2  0
 10 11  1  0
 11 12  1  0
 12 13  1  0
 13 14  2  0
 14 15  1  0
  4 16  1  0
 16 17  2  0
 17  1  1  0
 15  7  1  0
 15 11  2  0
  1 18  1  0
  2 19  1  0
  3 20  1  0
  5 21  1  0
  5 22  1  0
  9 23  1  0
 12 24  1  0
 14 25  1  0
 16 26  1  0
 17 27  1  0
M  END
>  <smiles>  (18) 
c1ccc(CSc2ncnc3[nH]ncc23)cc1

>  <score_type>  (18) 
oracle

>  <origin>  (18) 
adg

>  <m_score__min__energy>  (18) 
-6.7400000000000002

>  <m_primary>  (18) 
energy

$$$$
18:0
     RDKit          3D

 45 48  0  0  0  0  0  0  0  0999 V2000
   58.5270   30.2000   48.4150 O   0  0  0  0  0  0  0  0  0  0  0  0
   58.9150   29.9630   47.2400 C   0  0  0  0  0  0  0  0  0  0  0  0
   59.6030   30.9970   46.5230 N   0  0  0  0  0  0  0  0  0  0  0  0
   59.0360   32.2120   46.0010 C   0  0  0  0  0  0  0  0  0  0  0  0
   57.9430   32.1740   45.1130 C   0  0  0  0  0  0  0  0  0  0  0  0
   57.4280   33.3520   44.5720 C   0  0  0  0  0  0  0  0  0  0  0  0
   58.0090   34.5790   44.8880 C   0  0  0  0  0  0  0  0  0  0  0  0
   59.1120   34.6320   45.7420 C   0  0  0  0  0  0  0  0  0  0  0  0
   59.6380   33.4540   46.3040 C   0  0  0  0  0  0  0  0  0  0  0  0
   60.8170   33.5470   47.2000 C   0  0  0  0  0  0  0  0  0  0  0  0
   60.6400   33.7140   48.5850 C   0  0  0  0  0  0  0  0  0  0  0  0
   61.7480   33.7950   49.4350 C   0  0  0  0  0  0  0  0  0  0  0  0
   63.0410   33.7020   48.9120 C   0  0  0  0  0  0  0  0  0  0  0  0
   63.2270   33.5260   47.5390 C   0  0  0  0  0  0  0  0  0  0  0  0
   62.1220   33.4450   46.6860 C   0  0  0  0  0  0  0  0  0  0  0  0
   58.6170   28.6400   46.6370 C   0  0  0  0  0  0  0  0  0  0  0  0
   59.4600   27.5550   46.9090 C   0  0  0  0  0  0  0  0  0  0  0  0
   59.2090   26.3090   46.3410 C   0  0  0  0  0  0  0  0  0  0  0  0
   58.0990   26.1370   45.5010 C   0  0  0  0  0  0  0  0  0  0  0  0
   57.8170   24.8150   44.8890 C   0  0  0  0  0  0  0  0  0  0  0  0
   56.8710   24.6970   43.8540 C   0  0  0  0  0  0  0  0  0  0  0  0
   56.6060   23.4510   43.2760 C   0  0  0  0  0  0  0  0  0  0  0  0
   57.2800   22.3120   43.7230 C   0  0  0  0  0  0  0  0  0  0  0  0
   58.2210   22.4170   44.7500 C   0  0  0  0  0  0  0  0  0  0  0  0
   58.4910   23.6600   45.3320 C   0  0  0  0  0  0  0  0  0  0  0  0
   57.2720   27.1990   45.2610 N   0  0  0  0  0  0  0  0  0  0  0  0
   57.4970   28.4270   45.8090 C   0  0  0  0  0  0  0  0  0  0  0  0
   56.6830   29.3630   45.5800 O   0  0  0  0  0  0  0  0  0  0  0  0
   57.4920   31.2074   44.8441 H   0  0  0  0  0  0  0  0  0  0  0  0
   56.5620   33.3126   43.8949 H   0  0  0  0  0  0  0  0  0  0  0  0
   57.5978   35.5069   44.4638 H   0  0  0  0  0  0  0  0  0  0  0  0
   59.5736   35.6023   45.9775 H   0  0  0  0  0  0  0  0  0  0  0  0
   59.6245   33.7813   49.0024 H   0  0  0  0  0  0  0  0  0  0  0  0
   61.6016   33.9321   50.5166 H   0  0  0  0  0  0  0  0  0  0  0  0
   63.9114   33.7674   49.5814 H   0  0  0  0  0  0  0  0  0  0  0  0
   64.2446   33.4510   47.1280 H   0  0  0  0  0  0  0  0  0  0  0  0
   62.2744   33.3006   45.6062 H   0  0  0  0  0  0  0  0  0  0  0  0
   60.3252   27.6882   47.5751 H   0  0  0  0  0  0  0  0  0  0  0  0
   59.8790   25.4621   46.5503 H   0  0  0  0  0  0  0  0  0  0  0  0
   56.3367   25.5899   43.4973 H   0  0  0  0  0  0  0  0  0  0  0  0
   55.8649   23.3679   42.4674 H   0  0  0  0  0  0  0  0  0  0  0  0
   57.0699   21.3334   43.2667 H   0  0  0  0  0  0  0  0  0  0  0  0
   58.7511   21.5198   45.1020 H   0  0  0  0  0  0  0  0  0  0  0  0
   59.2336   23.7360   46.1399 H   0  0  0  0  0  0  0  0  0  0  0  0
   56.4480   27.0820   44.6290 H   0  0  0  0  0  0  0  0  0  0  0  0
  1  2  2  0
  2  3  1  0
  3  4  1  0
  4  5  2  0
  5  6  1  0
  6  7  2  0
  7  8  1  0
  8  9  2  0
  9 10  1  0
 10 11  2  0
 11 12  1  0
 12 13  2  0
 13 14  1  0
 14 15  2  0
  2 16  1  0
 16 17  2  0
 17 18  1  0
 18 19  2  0
 19 20  1  0
 20 21  2  0
 21 22  1  0
 22 23  2  0
 23 24  1  0
 24 25  2  0
 19 26  1  0
 26 27  1  0
 27 28  2  0
  9  4  1  0
 15 10  1  0
 27 16  1  0
 25 20  1  0
  5 29  1  0
  6 30  1  0
  7 31  1  0
  8 32  1  0
 11 33  1  0
 12 34  1  0
 13 35  1  0
 14 36  1  0
 15 37  1  0
 17 38  1  0
 18 39  1  0
 21 40  1  0
 22 41  1  0
 23 42  1  0
 24 43  1  0
 25 44  1  0
 26 45  1  0
M  CHG  1   3  -1
M  END
>  <UniqueID>  (19) 
16

>  <SMILES>  (19) 
O=C([N-]c1ccccc1-c1ccccc1)c1ccc(-c2ccccc2)[nH]c1=O

>  <Energy>  (19) 
70.96972520990215

>  <Genealogy>  (19) 
O=C([N-]c1ccccc1-c1ccccc1)c1ccc(-c2ccccc2)[nH]c1=O (protonated)
O=C([N-]c1ccccc1-c1ccccc1)c1ccc(-c2ccccc2)[nH]c1=O (3D coordinates assigned)
O=C([N-]c1ccccc1-c1ccccc1)c1ccc(-c2ccccc2)[nH]c1=O (optimized conformer: 70.96972520990215 kcal/mol)

>  <smiles>  (19) 
O=C(Nc1ccccc1-c1ccccc1)c1ccc(-c2ccccc2)[nH]c1=O

>  <score_type>  (19) 
oracle

>  <origin>  (19) 
adg

>  <m_score__min__energy>  (19) 
-10.109999999999999

>  <m_primary>  (19) 
energy

$$$$
19:0
     RDKit          3D

 32 34  0  0  0  0  0  0  0  0999 V2000
   55.5300   30.0630   43.7780 C   0  0  0  0  0  0  0  0  0  0  0  0
   55.5270   29.1840   44.8990 O   0  0  0  0  0  0  0  0  0  0  0  0
   56.6200   28.3960   45.2930 C   0  0  0  0  0  0  0  0  0  0  0  0
   57.9490   28.8330   45.1450 C   0  0  0  0  0  0  0  0  0  0  0  0
   59.0060   28.0190   45.5520 C   0  0  0  0  0  0  0  0  0  0  0  0
   58.7530   26.7640   46.1060 C   0  0  0  0  0  0  0  0  0  0  0  0
   57.4340   26.3030   46.2600 C   0  0  0  0  0  0  0  0  0  0  0  0
   57.1790   24.9400   46.8730 C   0  0  1  0  0  0  0  0  0  0  0  0
   55.8030   24.5200   46.6060 N   0  0  0  0  0  0  0  0  0  0  0  0
   55.4580   23.5860   45.5820 C   0  0  0  0  0  0  0  0  0  0  0  0
   54.2450   23.3820   45.3100 O   0  0  0  0  0  0  0  0  0  0  0  0
   56.5260   22.8620   44.8760 C   0  0  0  0  0  0  0  0  0  0  0  0
   56.2440   21.9710   43.8270 C   0  0  0  0  0  0  0  0  0  0  0  0
   57.2830   21.2820   43.1940 C   0  0  0  0  0  0  0  0  0  0  0  0
   58.6040   21.4740   43.6080 C   0  0  0  0  0  0  0  0  0  0  0  0
   58.8890   22.3570   44.6520 C   0  0  0  0  0  0  0  0  0  0  0  0
   57.8550   23.0600   45.2870 C   0  0  0  0  0  0  0  0  0  0  0  0
   58.1520   23.9700   46.3580 N   0  0  0  0  0  0  0  0  0  0  0  0
   56.3670   27.1330   45.8510 C   0  0  0  0  0  0  0  0  0  0  0  0
   55.0480   26.7130   45.9950 O   0  0  0  0  0  0  0  0  0  0  0  0
   55.5336   31.1054   44.1294 H   0  0  0  0  0  0  0  0  0  0  0  0
   56.4275   29.8781   43.1695 H   0  0  0  0  0  0  0  0  0  0  0  0
   54.6312   29.8843   43.1695 H   0  0  0  0  0  0  0  0  0  0  0  0
   58.1554   29.8205   44.7066 H   0  0  0  0  0  0  0  0  0  0  0  0
   60.0427   28.3679   45.4357 H   0  0  0  0  0  0  0  0  0  0  0  0
   59.5930   26.1296   46.4251 H   0  0  0  0  0  0  0  0  0  0  0  0
   57.3059   24.9971   47.9642 H   0  0  0  0  0  0  0  0  0  0  0  0
   55.2043   21.8152   43.5032 H   0  0  0  0  0  0  0  0  0  0  0  0
   57.0606   20.5884   42.3697 H   0  0  0  0  0  0  0  0  0  0  0  0
   59.4202   20.9291   43.1111 H   0  0  0  0  0  0  0  0  0  0  0  0
   59.9297   22.5017   44.9777 H   0  0  0  0  0  0  0  0  0  0  0  0
   59.1380   24.0520   46.6930 H   0  0  0  0  0  0  0  0  0  0  0  0
  1  2  1  0
  2  3  1  0
  3  4  2  0
  4  5  1  0
  5  6  2  0
  6  7  1  0
  7  8  1  0
  8  9  1  0
  9 10  1  0
 10 11  2  0
 10 12  1  0
 12 13  2  0
 13 14  1  0
 14 15  2  0
 15 16  1  0
 16 17  2  0
 17 18  1  0
  7 19  2  0
 19 20  1  0
 19  3  1  0
 18  8  1  0
 17 12  1  0
  1 21  1  0
  1 22  1  0
  1 23  1  0
  4 24  1  0
  5 25  1  0
  6 26  1  0
  8 27  1  1
 13 28  1  0
 14 29  1  0
 15 30  1  0
 16 31  1  0
 18 32  1  0
M  CHG  2   9  -1  20  -1
M  END
>  <UniqueID>  (20) 
17

>  <SMILES>  (20) 
COc1cccc([C@H]2[N-]C(=O)c3ccccc3N2)c1[O-]

>  <Energy>  (20) 
37.23189729950748

>  <Genealogy>  (20) 
COc1cccc(C2[N-]C(=O)c3ccccc3N2)c1[O-] (protonated)
COc1cccc([C@H]2[N-]C(=O)c3ccccc3N2)c1[O-] (chirality)
COc1cccc([C@H]2[N-]C(=O)c3ccccc3N2)c1[O-] (3D coordinates assigned)
COc1cccc([C@H]2[N-]C(=O)c3ccccc3N2)c1[O-] (nonaromatic ring conformer: 37.23189729950748 kcal/mol)

>  <smiles>  (20) 
COc1cccc(C2NC(=O)c3ccccc3N2)c1O

>  <score_type>  (20) 
oracle

>  <origin>  (20) 
adg

>  <m_score__min__energy>  (20) 
-12.74

>  <m_primary>  (20) 
energy

$$$$
20:0
     RDKit          3D

 57 60  0  0  0  0  0  0  0  0999 V2000
   54.8980   26.3440   45.9930 N   0  0  0  0  0  0  0  0  0  0  0  0
   56.1860   25.9520   46.4620 C   0  0  0  0  0  0  0  0  0  0  0  0
   56.2880   24.9310   47.1960 O   0  0  0  0  0  0  0  0  0  0  0  0
   57.3930   26.7300   46.0940 C   0  0  0  0  0  0  0  0  0  0  0  0
   58.6540   26.3670   46.5960 C   0  0  0  0  0  0  0  0  0  0  0  0
   59.7900   27.0990   46.2470 C   0  0  0  0  0  0  0  0  0  0  0  0
   59.6870   28.1960   45.3910 C   0  0  0  0  0  0  0  0  0  0  0  0
   58.4370   28.5780   44.8710 C   0  0  0  0  0  0  0  0  0  0  0  0
   58.2910   29.7020   43.9830 N   0  0  0  0  0  0  0  0  0  0  0  0
   57.4620   31.1700   44.3930 S   0  0  0  0  0  0  0  0  0  0  0  0
   56.0480   30.8460   44.7840 O   0  0  0  0  0  0  0  0  0  0  0  0
   57.4280   32.0760   43.1940 O   0  0  0  0  0  0  0  0  0  0  0  0
   58.2620   31.9500   45.7530 C   0  0  0  0  0  0  0  0  0  0  0  0
   59.3860   31.3690   46.3580 C   0  0  0  0  0  0  0  0  0  0  0  0
   59.9990   31.9930   47.4500 C   0  0  0  0  0  0  0  0  0  0  0  0
   59.5060   33.2140   47.9360 C   0  0  0  0  0  0  0  0  0  0  0  0
   60.1430   33.8520   49.1040 C   0  0  0  0  0  0  0  0  0  0  0  0
   61.1510   34.5840   48.9260 O   0  0  0  0  0  0  0  0  0  0  0  0
   59.6520   33.6690   50.4360 N   0  0  0  0  0  0  0  0  0  0  0  0
   58.7610   32.2840   50.9840 S   0  0  0  0  0  0  0  0  0  0  0  0
   58.8320   32.2030   52.4830 O   0  0  0  0  0  0  0  0  0  0  0  0
   57.3240   32.3860   50.5570 O   0  0  0  0  0  0  0  0  0  0  0  0
   59.4760   30.8370   50.2720 C   0  0  0  0  0  0  0  0  0  0  0  0
   58.6740   29.9170   49.5770 C   0  0  0  0  0  0  0  0  0  0  0  0
   59.2420   28.7700   49.0180 C   0  0  0  0  0  0  0  0  0  0  0  0
   60.6120   28.5350   49.1430 C   0  0  0  0  0  0  0  0  0  0  0  0
   61.4180   29.4430   49.8330 C   0  0  0  0  0  0  0  0  0  0  0  0
   60.8560   30.5950   50.4120 C   0  0  0  0  0  0  0  0  0  0  0  0
   61.6540   31.5330   51.0850 O   0  0  0  0  0  0  0  0  0  0  0  0
   62.9040   31.9970   50.6490 C   0  0  0  0  0  0  0  0  0  0  0  0
   63.0600   32.3400   49.3010 C   0  0  0  0  0  0  0  0  0  0  0  0
   64.2860   32.8220   48.8320 C   0  0  0  0  0  0  0  0  0  0  0  0
   65.3610   32.9780   49.7120 C   0  0  0  0  0  0  0  0  0  0  0  0
   65.2070   32.6560   51.0640 C   0  0  0  0  0  0  0  0  0  0  0  0
   63.9850   32.1710   51.5350 C   0  0  0  0  0  0  0  0  0  0  0  0
   58.3740   33.7880   47.3370 C   0  0  0  0  0  0  0  0  0  0  0  0
   57.7590   33.1610   46.2490 C   0  0  0  0  0  0  0  0  0  0  0  0
   57.2960   27.8410   45.2320 C   0  0  0  0  0  0  0  0  0  0  0  0
   54.7690   26.7180   45.0270 H   0  0  0  0  0  0  0  0  0  0  0  0
   58.7465   25.5010   47.2679 H   0  0  0  0  0  0  0  0  0  0  0  0
   60.7721   26.8094   46.6491 H   0  0  0  0  0  0  0  0  0  0  0  0
   60.5886   28.7655   45.1212 H   0  0  0  0  0  0  0  0  0  0  0  0
   58.7290   29.6590   43.0350 H   0  0  0  0  0  0  0  0  0  0  0  0
   59.7869   30.4198   45.9728 H   0  0  0  0  0  0  0  0  0  0  0  0
   60.8711   31.5247   47.9297 H   0  0  0  0  0  0  0  0  0  0  0  0
   57.5945   30.1005   49.4725 H   0  0  0  0  0  0  0  0  0  0  0  0
   58.6085   28.0507   48.4783 H   0  0  0  0  0  0  0  0  0  0  0  0
   61.0575   27.6334   48.6974 H   0  0  0  0  0  0  0  0  0  0  0  0
   62.4982   29.2562   49.9242 H   0  0  0  0  0  0  0  0  0  0  0  0
   62.2138   32.2298   48.6069 H   0  0  0  0  0  0  0  0  0  0  0  0
   64.4048   33.0788   47.7690 H   0  0  0  0  0  0  0  0  0  0  0  0
   66.3263   33.3534   49.3415 H   0  0  0  0  0  0  0  0  0  0  0  0
   66.0504   32.7850   51.7583 H   0  0  0  0  0  0  0  0  0  0  0  0
   63.8664   31.9243   52.6004 H   0  0  0  0  0  0  0  0  0  0  0  0
   57.9692   34.7344   47.7248 H   0  0  0  0  0  0  0  0  0  0  0  0
   56.8763   33.6201   45.7800 H   0  0  0  0  0  0  0  0  0  0  0  0
   56.3129   28.1355   44.8360 H   0  0  0  0  0  0  0  0  0  0  0  0
  1  2  1  0
  2  3  2  0
  2  4  1  0
  4  5  2  0
  5  6  1  0
  6  7  2  0
  7  8  1  0
  8  9  1  0
  9 10  1  0
 10 11  2  0
 10 12  2  0
 10 13  1  0
 13 14  2  0
 14 15  1  0
 15 16  2  0
 16 17  1  0
 17 18  2  0
 17 19  1  0
 19 20  1  0
 20 21  2  0
 20 22  2  0
 20 23  1  0
 23 24  2  0
 24 25  1  0
 25 26  2  0
 26 27  1  0
 27 28  2  0
 28 29  1  0
 29 30  1  0
 30 31  2  0
 31 32  1  0
 32 33  2  0
 33 34  1  0
 34 35  2  0
 16 36  1  0
 36 37  2  0
  8 38  2  0
 38  4  1  0
 37 13  1  0
 28 23  1  0
 35 30  1  0
  1 39  1  0
  5 40  1  0
  6 41  1  0
  7 42  1  0
  9 43  1  0
 14 44  1  0
 15 45  1  0
 24 46  1  0
 25 47  1  0
 26 48  1  0
 27 49  1  0
 31 50  1  0
 32 51  1  0
 33 52  1  0
 34 53  1  0
 35 54  1  0
 36 55  1  0
 37 56  1  0
 38 57  1  0
M  CHG  2   1  -1  19  -1
M  END
>  <UniqueID>  (21) 
18

>  <SMILES>  (21) 
[NH-]C(=O)c1cccc(NS(=O)(=O)c2ccc(C(=O)[N-]S(=O)(=O)c3ccccc3Oc3ccccc3)cc2)c1

>  <Energy>  (21) 
80.59232266311938

>  <Genealogy>  (21) 
[NH-]C(=O)c1cccc(NS(=O)(=O)c2ccc(C(=O)[N-]S(=O)(=O)c3ccccc3Oc3ccccc3)cc2)c1 (protonated)
[NH-]C(=O)c1cccc(NS(=O)(=O)c2ccc(C(=O)[N-]S(=O)(=O)c3ccccc3Oc3ccccc3)cc2)c1 (3D coordinates assigned)
[NH-]C(=O)c1cccc(NS(=O)(=O)c2ccc(C(=O)[N-]S(=O)(=O)c3ccccc3Oc3ccccc3)cc2)c1 (optimized conformer: 80.59232266311938 kcal/mol)

>  <smiles>  (21) 
NC(=O)c1cccc(NS(=O)(=O)c2ccc(C(=O)NS(=O)(=O)c3ccccc3Oc3ccccc3)cc2)c1

>  <score_type>  (21) 
oracle

>  <origin>  (21) 
adg

>  <m_score__min__energy>  (21) 
-15.68

>  <m_primary>  (21) 
energy

$$$$
21:0
     RDKit          3D

 46 49  0  0  0  0  0  0  0  0999 V2000
   58.2859   30.3388   48.0744 H   0  0  0  0  0  0  0  0  0  0  0  0
   59.3460   30.3930   48.3630 C   0  0  0  0  0  0  0  0  0  0  0  0
   60.2790   31.0180   47.5970 N   0  0  0  0  0  0  0  0  0  0  0  0
   57.4040   31.1690   45.0260 C   0  0  0  0  0  0  0  0  0  0  0  0
   56.8050   32.3160   44.8700 N   0  0  0  0  0  0  0  0  0  0  0  0
   63.5350   32.2970   48.3620 C   0  0  0  0  0  0  0  0  0  0  0  0
   64.5553   32.0183   48.0599 H   0  0  0  0  0  0  0  0  0  0  0  0
   63.3949   32.1358   49.4411 H   0  0  0  0  0  0  0  0  0  0  0  0
   63.3100   33.7820   48.0570 C   0  0  0  0  0  0  0  0  0  0  0  0
   63.4615   33.9551   46.9813 H   0  0  0  0  0  0  0  0  0  0  0  0
   64.0257   34.3730   48.6474 H   0  0  0  0  0  0  0  0  0  0  0  0
   61.9850   34.1840   48.4130 O   0  0  0  0  0  0  0  0  0  0  0  0
   60.8410   34.0480   47.6080 C   0  0  0  0  0  0  0  0  0  0  0  0
   60.9120   33.9550   46.2060 C   0  0  0  0  0  0  0  0  0  0  0  0
   61.8908   33.9889   45.7052 H   0  0  0  0  0  0  0  0  0  0  0  0
   59.7490   33.8200   45.4460 C   0  0  0  0  0  0  0  0  0  0  0  0
   59.8189   33.7522   44.3503 H   0  0  0  0  0  0  0  0  0  0  0  0
   58.4910   33.7700   46.0670 C   0  0  0  0  0  0  0  0  0  0  0  0
   57.2550   33.6270   45.2580 C   0  0  0  0  0  0  0  0  0  0  0  0
   56.5890   34.6520   44.9520 O   0  0  0  0  0  0  0  0  0  0  0  0
   62.5770   31.4620   47.6380 N   0  0  0  0  0  0  0  0  0  0  0  0
   61.5050   30.9500   48.1630 C   0  0  0  0  0  0  0  0  0  0  0  0
   56.6970   30.0300   45.2440 N   0  0  0  0  0  0  0  0  0  0  0  0
   57.6610   29.1010   45.3680 C   0  0  0  0  0  0  0  0  0  0  0  0
   57.5050   27.7380   45.6100 C   0  0  0  0  0  0  0  0  0  0  0  0
   56.5066   27.2892   45.7183 H   0  0  0  0  0  0  0  0  0  0  0  0
   58.6720   26.9550   45.7110 C   0  0  0  0  0  0  0  0  0  0  0  0
   58.5902   25.8745   45.9000 H   0  0  0  0  0  0  0  0  0  0  0  0
   59.9480   27.5490   45.5710 C   0  0  0  0  0  0  0  0  0  0  0  0
   60.8521   26.9275   45.6510 H   0  0  0  0  0  0  0  0  0  0  0  0
   60.0680   28.9300   45.3300 C   0  0  0  0  0  0  0  0  0  0  0  0
   61.0534   29.4067   45.2221 H   0  0  0  0  0  0  0  0  0  0  0  0
   58.8910   29.6720   45.2330 C   0  0  0  0  0  0  0  0  0  0  0  0
   58.7530   30.9860   45.0170 N   0  0  0  0  0  0  0  0  0  0  0  0
   59.5290   31.6750   44.9070 H   0  0  0  0  0  0  0  0  0  0  0  0
   58.4210   33.8580   47.4690 C   0  0  0  0  0  0  0  0  0  0  0  0
   57.4416   33.8178   47.9682 H   0  0  0  0  0  0  0  0  0  0  0  0
   59.5910   33.9970   48.2410 C   0  0  0  0  0  0  0  0  0  0  0  0
   59.5520   34.0890   49.6430 O   0  0  0  0  0  0  0  0  0  0  0  0
   60.1220   33.1330   50.5320 C   0  0  0  0  0  0  0  0  0  0  0  0
   59.9373   33.4428   51.5712 H   0  0  0  0  0  0  0  0  0  0  0  0
   59.6630   32.1490   50.3557 H   0  0  0  0  0  0  0  0  0  0  0  0
   61.2059   33.0689   50.3557 H   0  0  0  0  0  0  0  0  0  0  0  0
   61.4860   30.1170   49.6180 S   0  0  0  0  0  0  0  0  0  0  0  0
   59.8290   29.8270   49.5380 C   0  0  0  0  0  0  0  0  0  0  0  0
   59.2321   29.2840   50.2856 H   0  0  0  0  0  0  0  0  0  0  0  0
  1  2  1  0
  2  3  1  0
  3  4  1  0
  4  5  2  0
  5  6  1  0
  6  7  1  0
  6  8  1  0
  6  9  1  0
  9 10  1  0
  9 11  1  0
  9 12  1  0
 12 13  1  0
 13 14  2  0
 14 15  1  0
 14 16  1  0
 16 17  1  0
 16 18  2  0
 18 19  1  0
 19 20  2  0
 19 21  1  0
 21 22  2  0
 22 23  1  0
 23 24  1  0
 24 25  2  0
 25 26  1  0
 25 27  1  0
 27 28  1  0
 27 29  2  0
 29 30  1  0
 29 31  1  0
 31 32  1  0
 31 33  2  0
 33 34  1  0
 34 35  1  0
 18 36  1  0
 36 37  1  0
 36 38  2  0
 38 39  1  0
 39 40  1  0
 40 41  1  0
 40 42  1  0
 40 43  1  0
  4 44  1  0
 44 45  1  0
 45 46  1  0
 45  2  2  0
 38 13  1  0
 34 22  1  0
 33 24  1  0
M  CHG  2   3  -1  23  -1
M  END
>  <UniqueID>  (22) 
19

>  <SMILES>  (22) 
COc1cc(C(=O)/N=c2/[n-]c3ccccc3[nH]2)ccc1OCC/N=c1\[n-]ccs1

>  <Energy>  (22) 
120.78497847887736

>  <Genealogy>  (22) 
COc1cc(C(=O)N=c2[n-]c3ccccc3[nH]2)ccc1OCCN=c1[n-]ccs1 (protonated)
COc1cc(C(=O)/N=c2/[n-]c3ccccc3[nH]2)ccc1OCC/N=c1\[n-]ccs1 (cis-trans isomerization)
COc1cc(C(=O)/N=c2/[n-]c3ccccc3[nH]2)ccc1OCC/N=c1\[n-]ccs1 (3D coordinates assigned)
COc1cc(C(=O)/N=c2/[n-]c3ccccc3[nH]2)ccc1OCC/N=c1\[n-]ccs1 (optimized conformer: 120.78497847887736 kcal/mol)

>  <smiles>  (22) 
COc1cc(C(=O)N=c2[nH]c3ccccc3[nH]2)ccc1OCCN=c1[nH]ccs1

>  <score_type>  (22) 
oracle

>  <origin>  (22) 
adg

>  <m_score__min__energy>  (22) 
-10.99

>  <m_primary>  (22) 
energy

$$$$
22:0
     RDKit          3D

 51 55  0  0  0  0  0  0  0  0999 V2000
   63.7620   33.6000   46.3860 C   0  0  0  0  0  0  0  0  0  0  0  0
   63.0460   33.1230   47.5730 N   0  0  0  0  0  0  0  0  0  0  0  0
   63.5760   32.7690   48.7680 C   0  0  0  0  0  0  0  0  0  0  0  0
   64.8960   32.8050   49.1030 N   0  0  0  0  0  0  0  0  0  0  0  0
   65.2760   32.5180   50.3820 C   0  0  0  0  0  0  0  0  0  0  0  0
   64.3130   32.2300   51.3640 C   0  0  0  0  0  0  0  0  0  0  0  0
   62.9530   32.2160   51.0290 C   0  0  0  0  0  0  0  0  0  0  0  0
   62.5960   32.4450   49.6920 C   0  0  0  0  0  0  0  0  0  0  0  0
   61.3800   32.5860   49.0120 C   0  0  0  0  0  0  0  0  0  0  0  0
   61.7020   33.0450   47.7530 C   0  0  0  0  0  0  0  0  0  0  0  0
   60.6900   33.4230   46.8730 C   0  0  0  0  0  0  0  0  0  0  0  0
   60.9750   33.9060   45.7430 O   0  0  0  0  0  0  0  0  0  0  0  0
   59.3820   33.2780   47.2660 N   0  0  0  0  0  0  0  0  0  0  0  0
   58.2890   33.7410   46.3840 C   0  0  0  0  0  0  0  0  0  0  0  0
   58.0480   32.7380   45.2860 C   0  0  0  0  0  0  0  0  0  0  0  0
   58.0470   33.1460   43.9420 C   0  0  0  0  0  0  0  0  0  0  0  0
   57.7820   32.2240   42.9240 C   0  0  0  0  0  0  0  0  0  0  0  0
   57.5080   30.8910   43.2400 C   0  0  0  0  0  0  0  0  0  0  0  0
   57.5020   30.4760   44.5750 C   0  0  0  0  0  0  0  0  0  0  0  0
   57.7690   31.3950   45.5960 C   0  0  0  0  0  0  0  0  0  0  0  0
   59.0810   32.7370   48.5010 C   0  0  0  0  0  0  0  0  0  0  0  0
   57.8700   32.5560   48.8190 O   0  0  0  0  0  0  0  0  0  0  0  0
   60.0750   32.3790   49.3890 N   0  0  0  0  0  0  0  0  0  0  0  0
   59.6980   31.6270   50.6030 C   0  0  0  0  0  0  0  0  0  0  0  0
   59.5680   32.5100   51.8360 C   0  0  0  0  0  0  0  0  0  0  0  0
   58.8970   33.7420   51.6970 C   0  0  0  0  0  0  0  0  0  0  0  0
   58.7320   34.5950   52.7900 C   0  0  0  0  0  0  0  0  0  0  0  0
   59.2220   34.2310   54.0410 C   0  0  0  0  0  0  0  0  0  0  0  0
   59.8760   33.0100   54.2050 C   0  0  0  0  0  0  0  0  0  0  0  0
   60.0490   32.1420   53.1180 C   0  0  0  0  0  0  0  0  0  0  0  0
   60.8790   30.6270   53.4370 Cl  0  0  0  0  0  0  0  0  0  0  0  0
   64.6399   34.1849   46.6977 H   0  0  0  0  0  0  0  0  0  0  0  0
   64.0896   32.7391   45.7848 H   0  0  0  0  0  0  0  0  0  0  0  0
   63.0937   34.2340   45.7848 H   0  0  0  0  0  0  0  0  0  0  0  0
   65.6310   33.0630   48.4110 H   0  0  0  0  0  0  0  0  0  0  0  0
   66.3438   32.5121   50.6461 H   0  0  0  0  0  0  0  0  0  0  0  0
   64.6273   32.0155   52.3961 H   0  0  0  0  0  0  0  0  0  0  0  0
   62.1851   32.0303   51.7944 H   0  0  0  0  0  0  0  0  0  0  0  0
   57.3696   33.8599   46.9761 H   0  0  0  0  0  0  0  0  0  0  0  0
   58.5729   34.7042   45.9350 H   0  0  0  0  0  0  0  0  0  0  0  0
   58.2557   34.1959   43.6887 H   0  0  0  0  0  0  0  0  0  0  0  0
   57.7894   32.5490   41.8731 H   0  0  0  0  0  0  0  0  0  0  0  0
   57.2970   30.1679   42.4383 H   0  0  0  0  0  0  0  0  0  0  0  0
   57.2872   29.4261   44.8231 H   0  0  0  0  0  0  0  0  0  0  0  0
   57.7606   31.0655   46.6455 H   0  0  0  0  0  0  0  0  0  0  0  0
   58.7319   31.1329   50.4228 H   0  0  0  0  0  0  0  0  0  0  0  0
   60.5007   30.9018   50.8021 H   0  0  0  0  0  0  0  0  0  0  0  0
   58.4982   34.0351   50.7146 H   0  0  0  0  0  0  0  0  0  0  0  0
   58.2137   35.5568   52.6622 H   0  0  0  0  0  0  0  0  0  0  0  0
   59.0935   34.9060   54.9000 H   0  0  0  0  0  0  0  0  0  0  0  0
   60.2594   32.7257   55.1961 H   0  0  0  0  0  0  0  0  0  0  0  0
  1  2  1  0
  2  3  1  0
  3  4  2  0
  4  5  1  0
  5  6  2  0
  6  7  1  0
  7  8  2  0
  8  9  1  0
  9 10  2  0
 10 11  1  0
 11 12  2  0
 11 13  1  0
 13 14  1  0
 14 15  1  0
 15 16  2  0
 16 17  1  0
 17 18  2  0
 18 19  1  0
 19 20  2  0
 13 21  1  0
 21 22  2  0
 21 23  1  0
 23 24  1  0
 24 25  1  0
 25 26  2  0
 26 27  1  0
 27 28  2  0
 28 29  1  0
 29 30  2  0
 30 31  1  0
 10  2  1  0
 20 15  1  0
 30 25  1  0
  8  3  1  0
 23  9  1  0
  1 32  1  0
  1 33  1  0
  1 34  1  0
  4 35  1  0
  5 36  1  0
  6 37  1  0
  7 38  1  0
 14 39  1  0
 14 40  1  0
 16 41  1  0
 17 42  1  0
 18 43  1  0
 19 44  1  0
 20 45  1  0
 24 46  1  0
 24 47  1  0
 26 48  1  0
 27 49  1  0
 28 50  1  0
 29 51  1  0
M  CHG  1   4   1
M  END
>  <UniqueID>  (23) 
20

>  <SMILES>  (23) 
Cn1c2[nH+]cccc2c2c1c(=O)n(Cc1ccccc1)c(=O)n2Cc1ccccc1Cl

>  <Energy>  (23) 
120.81896294165367

>  <Genealogy>  (23) 
Cn1c2[nH+]cccc2c2c1c(=O)n(Cc1ccccc1)c(=O)n2Cc1ccccc1Cl (protonated)
Cn1c2[nH+]cccc2c2c1c(=O)n(Cc1ccccc1)c(=O)n2Cc1ccccc1Cl (3D coordinates assigned)
Cn1c2[nH+]cccc2c2c1c(=O)n(Cc1ccccc1)c(=O)n2Cc1ccccc1Cl (optimized conformer: 120.81896294165367 kcal/mol)

>  <smiles>  (23) 
Cn1c2ncccc2c2c1c(=O)n(Cc1ccccc1)c(=O)n2Cc1ccccc1Cl

>  <score_type>  (23) 
oracle

>  <origin>  (23) 
adg

>  <m_score__min__energy>  (23) 
-7.0499999999999998

>  <m_primary>  (23) 
energy

$$$$
23:0
     RDKit          3D

 67 70  0  0  0  0  0  0  0  0999 V2000
   58.0190   32.3370   42.3110 C   0  0  0  0  0  0  0  0  0  0  0  0
   57.4530   32.3810   43.6630 N   0  0  0  0  0  0  0  0  0  0  0  0
   56.6690   31.2360   44.1570 C   0  0  0  0  0  0  0  0  0  0  0  0
   57.4400   29.9200   43.9870 C   0  0  0  0  0  0  0  0  0  0  0  0
   58.4610   29.7320   45.0780 C   0  0  0  0  0  0  0  0  0  0  0  0
   59.7320   29.2110   44.7790 C   0  0  0  0  0  0  0  0  0  0  0  0
   60.6920   29.0740   45.7860 C   0  0  0  0  0  0  0  0  0  0  0  0
   60.3930   29.4570   47.0960 C   0  0  0  0  0  0  0  0  0  0  0  0
   59.1340   29.9840   47.4000 C   0  0  0  0  0  0  0  0  0  0  0  0
   58.1720   30.1260   46.3950 C   0  0  0  0  0  0  0  0  0  0  0  0
   57.6790   33.5570   44.4740 C   0  0  0  0  0  0  0  0  0  0  0  0
   56.6870   34.1920   44.9290 O   0  0  0  0  0  0  0  0  0  0  0  0
   59.0770   34.0660   44.7480 C   0  0  0  0  0  0  0  0  0  0  0  0
   59.5400   33.7580   46.1490 C   0  0  0  0  0  0  0  0  0  0  0  0
   60.9000   33.8580   46.4840 C   0  0  0  0  0  0  0  0  0  0  0  0
   61.3270   33.6030   47.7910 C   0  0  0  0  0  0  0  0  0  0  0  0
   60.3950   33.2530   48.7860 C   0  0  0  0  0  0  0  0  0  0  0  0
   60.7680   32.9860   50.1140 O   0  0  0  0  0  0  0  0  0  0  0  0
   60.0730   33.4430   51.2750 C   0  0  0  0  0  0  0  0  0  0  0  0
   58.8520   32.6030   51.5320 C   0  0  0  0  0  0  0  0  0  0  0  0
   58.7730   31.2870   51.0500 C   0  0  0  0  0  0  0  0  0  0  0  0
   57.6290   30.5180   51.2800 C   0  0  0  0  0  0  0  0  0  0  0  0
   56.5440   31.0560   51.9890 C   0  0  0  0  0  0  0  0  0  0  0  0
   55.2980   30.2400   52.1990 C   0  0  0  0  0  0  0  0  0  0  0  0
   53.9010   30.9060   51.2270 S   0  0  0  0  0  0  0  0  0  0  0  0
   52.6540   30.5530   52.4780 C   0  0  0  0  0  0  0  0  0  0  0  0
   52.9240   29.5560   53.3630 N   0  0  0  0  0  0  0  0  0  0  0  0
   52.0370   29.1670   54.3130 C   0  0  0  0  0  0  0  0  0  0  0  0
   50.7960   29.7900   54.4020 C   0  0  0  0  0  0  0  0  0  0  0  0
   50.4830   30.8200   53.5170 C   0  0  0  0  0  0  0  0  0  0  0  0
   51.4090   31.2320   52.5420 C   0  0  0  0  0  0  0  0  0  0  0  0
   51.0390   32.3460   51.6320 C   0  0  0  0  0  0  0  0  0  0  0  0
   51.0900   32.2130   50.3820 O   0  0  0  0  0  0  0  0  0  0  0  0
   50.6560   33.5750   52.1570 O   0  0  0  0  0  0  0  0  0  0  0  0
   56.6170   32.3760   52.4610 C   0  0  0  0  0  0  0  0  0  0  0  0
   57.7620   33.1440   52.2310 C   0  0  0  0  0  0  0  0  0  0  0  0
   59.0390   33.1640   48.4510 C   0  0  0  0  0  0  0  0  0  0  0  0
   58.6110   33.4210   47.1450 C   0  0  0  0  0  0  0  0  0  0  0  0
   59.1139   32.2519   42.3745 H   0  0  0  0  0  0  0  0  0  0  0  0
   57.6143   31.4676   41.7722 H   0  0  0  0  0  0  0  0  0  0  0  0
   57.7535   33.2585   41.7722 H   0  0  0  0  0  0  0  0  0  0  0  0
   56.4473   31.3866   45.2239 H   0  0  0  0  0  0  0  0  0  0  0  0
   55.7393   31.1727   43.5726 H   0  0  0  0  0  0  0  0  0  0  0  0
   56.7276   29.0823   44.0163 H   0  0  0  0  0  0  0  0  0  0  0  0
   57.9682   29.9523   43.0227 H   0  0  0  0  0  0  0  0  0  0  0  0
   59.9721   28.9099   43.7486 H   0  0  0  0  0  0  0  0  0  0  0  0
   61.6843   28.6640   45.5466 H   0  0  0  0  0  0  0  0  0  0  0  0
   61.1479   29.3440   47.8881 H   0  0  0  0  0  0  0  0  0  0  0  0
   58.8999   30.2873   48.4311 H   0  0  0  0  0  0  0  0  0  0  0  0
   57.1853   30.5478   46.6367 H   0  0  0  0  0  0  0  0  0  0  0  0
   59.7700   33.5941   44.0359 H   0  0  0  0  0  0  0  0  0  0  0  0
   59.0623   35.1600   44.6341 H   0  0  0  0  0  0  0  0  0  0  0  0
   61.6337   34.1385   45.7139 H   0  0  0  0  0  0  0  0  0  0  0  0
   62.3954   33.6762   48.0425 H   0  0  0  0  0  0  0  0  0  0  0  0
   60.7435   33.3801   52.1447 H   0  0  0  0  0  0  0  0  0  0  0  0
   59.7567   34.4835   51.1097 H   0  0  0  0  0  0  0  0  0  0  0  0
   59.6162   30.8587   50.4882 H   0  0  0  0  0  0  0  0  0  0  0  0
   57.5788   29.4857   50.9034 H   0  0  0  0  0  0  0  0  0  0  0  0
   55.4910   29.2032   51.8861 H   0  0  0  0  0  0  0  0  0  0  0  0
   55.0310   30.2797   53.2654 H   0  0  0  0  0  0  0  0  0  0  0  0
   52.2988   28.3595   55.0126 H   0  0  0  0  0  0  0  0  0  0  0  0
   50.0688   29.4725   55.1638 H   0  0  0  0  0  0  0  0  0  0  0  0
   49.5029   31.3152   53.5816 H   0  0  0  0  0  0  0  0  0  0  0  0
   55.7698   32.8077   53.0141 H   0  0  0  0  0  0  0  0  0  0  0  0
   57.8090   34.1791   52.6003 H   0  0  0  0  0  0  0  0  0  0  0  0
   58.3037   32.8895   49.2218 H   0  0  0  0  0  0  0  0  0  0  0  0
   57.5411   33.3587   46.8972 H   0  0  0  0  0  0  0  0  0  0  0  0
  1  2  1  0
  2  3  1  0
  3  4  1  0
  4  5  1  0
  5  6  2  0
  6  7  1  0
  7  8  2  0
  8  9  1  0
  9 10  2  0
  2 11  1  0
 11 12  2  0
 11 13  1  0
 13 14  1  0
 14 15  2  0
 15 16  1  0
 16 17  2  0
 17 18  1  0
 18 19  1  0
 19 20  1  0
 20 21  2  0
 21 22  1  0
 22 23  2  0
 23 24  1  0
 24 25  1  0
 25 26  1  0
 26 27  2  0
 27 28  1  0
 28 29  2  0
 29 30  1  0
 30 31  2  0
 31 32  1  0
 32 33  2  0
 32 34  1  0
 23 35  1  0
 35 36  2  0
 17 37  1  0
 37 38  2  0
 10  5  1  0
 38 14  1  0
 36 20  1  0
 31 26  1  0
  1 39  1  0
  1 40  1  0
  1 41  1  0
  3 42  1  0
  3 43  1  0
  4 44  1  0
  4 45  1  0
  6 46  1  0
  7 47  1  0
  8 48  1  0
  9 49  1  0
 10 50  1  0
 13 51  1  0
 13 52  1  0
 15 53  1  0
 16 54  1  0
 19 55  1  0
 19 56  1  0
 21 57  1  0
 22 58  1  0
 24 59  1  0
 24 60  1  0
 28 61  1  0
 29 62  1  0
 30 63  1  0
 35 64  1  0
 36 65  1  0
 37 66  1  0
 38 67  1  0
M  CHG  1  34  -1
M  END
>  <UniqueID>  (24) 
21

>  <SMILES>  (24) 
CN(CCc1ccccc1)C(=O)Cc1ccc(OCc2ccc(CSc3ncccc3C(=O)[O-])cc2)cc1

>  <Energy>  (24) 
66.1928059906475

>  <Genealogy>  (24) 
CN(CCc1ccccc1)C(=O)Cc1ccc(OCc2ccc(CSc3ncccc3C(=O)[O-])cc2)cc1 (protonated)
CN(CCc1ccccc1)C(=O)Cc1ccc(OCc2ccc(CSc3ncccc3C(=O)[O-])cc2)cc1 (3D coordinates assigned)
CN(CCc1ccccc1)C(=O)Cc1ccc(OCc2ccc(CSc3ncccc3C(=O)[O-])cc2)cc1 (optimized conformer: 66.1928059906475 kcal/mol)

>  <smiles>  (24) 
CN(CCc1ccccc1)C(=O)Cc1ccc(OCc2ccc(CSc3ncccc3C(=O)O)cc2)cc1

>  <score_type>  (24) 
oracle

>  <origin>  (24) 
adg

>  <m_score__min__energy>  (24) 
-13.960000000000001

>  <m_primary>  (24) 
energy

$$$$
24:0
     RDKit          3D

 51 54  0  0  0  0  0  0  0  0999 V2000
   60.8040   28.2650   51.5190 C   0  0  0  0  0  0  0  0  0  0  0  0
   60.1020   29.1730   50.6720 O   0  0  0  0  0  0  0  0  0  0  0  0
   60.6400   29.7630   49.5160 C   0  0  0  0  0  0  0  0  0  0  0  0
   61.7380   30.6490   49.5760 C   0  0  0  0  0  0  0  0  0  0  0  0
   62.2520   31.2210   48.4100 C   0  0  0  0  0  0  0  0  0  0  0  0
   61.6880   30.9120   47.1740 C   0  0  0  0  0  0  0  0  0  0  0  0
   60.6010   30.0370   47.0980 C   0  0  0  0  0  0  0  0  0  0  0  0
   60.0590   29.4620   48.2650 C   0  0  0  0  0  0  0  0  0  0  0  0
   58.9430   28.5540   48.1980 N   0  0  0  0  0  0  0  0  0  0  0  0
   58.4200   27.7820   46.7330 S   0  0  0  0  0  0  0  0  0  0  0  0
   59.6270   27.2870   45.9840 O   0  0  0  0  0  0  0  0  0  0  0  0
   57.5610   26.5900   47.0660 O   0  0  0  0  0  0  0  0  0  0  0  0
   57.5720   28.9540   45.7180 C   0  0  0  0  0  0  0  0  0  0  0  0
   58.2520   30.1200   45.3420 C   0  0  0  0  0  0  0  0  0  0  0  0
   57.6500   31.0660   44.5030 C   0  0  0  0  0  0  0  0  0  0  0  0
   58.4130   32.2140   44.1110 N   0  0  0  0  0  0  0  0  0  0  0  0
   58.3700   33.7640   44.8890 S   0  0  0  0  0  0  0  0  0  0  0  0
   59.2600   34.7190   44.1380 O   0  0  0  0  0  0  0  0  0  0  0  0
   56.9560   34.2810   44.8700 O   0  0  0  0  0  0  0  0  0  0  0  0
   58.8870   33.6110   46.5690 C   0  0  0  0  0  0  0  0  0  0  0  0
   60.0810   34.2100   47.0020 C   0  0  0  0  0  0  0  0  0  0  0  0
   60.4910   34.0800   48.3350 C   0  0  0  0  0  0  0  0  0  0  0  0
   59.7100   33.3520   49.2380 C   0  0  0  0  0  0  0  0  0  0  0  0
   58.5260   32.7370   48.8040 C   0  0  0  0  0  0  0  0  0  0  0  0
   58.1030   32.8850   47.4800 C   0  0  0  0  0  0  0  0  0  0  0  0
   57.7840   31.9740   49.7120 O   0  0  0  0  0  0  0  0  0  0  0  0
   58.3470   31.5700   50.9640 C   0  0  0  0  0  0  0  0  0  0  0  0
   59.1900   32.7090   51.5610 C   0  0  0  0  0  0  0  0  0  0  0  0
   60.0940   33.2230   50.5780 O   0  0  0  0  0  0  0  0  0  0  0  0
   56.3340   30.8550   44.0580 C   0  0  0  0  0  0  0  0  0  0  0  0
   55.6430   29.7010   44.4380 C   0  0  0  0  0  0  0  0  0  0  0  0
   56.2540   28.7470   45.2610 C   0  0  0  0  0  0  0  0  0  0  0  0
   55.5370   27.6050   45.6120 O   0  0  0  0  0  0  0  0  0  0  0  0
   60.6078   28.5188   52.5712 H   0  0  0  0  0  0  0  0  0  0  0  0
   60.4622   27.2387   51.3195 H   0  0  0  0  0  0  0  0  0  0  0  0
   61.8833   28.3373   51.3195 H   0  0  0  0  0  0  0  0  0  0  0  0
   62.1919   30.8905   50.5484 H   0  0  0  0  0  0  0  0  0  0  0  0
   63.1027   31.9160   48.4676 H   0  0  0  0  0  0  0  0  0  0  0  0
   62.0991   31.3577   46.2562 H   0  0  0  0  0  0  0  0  0  0  0  0
   60.1642   29.7947   46.1179 H   0  0  0  0  0  0  0  0  0  0  0  0
   58.3390   28.4200   49.0360 H   0  0  0  0  0  0  0  0  0  0  0  0
   59.2734   30.2948   45.7111 H   0  0  0  0  0  0  0  0  0  0  0  0
   60.6960   34.7829   46.2924 H   0  0  0  0  0  0  0  0  0  0  0  0
   61.4268   34.5503   48.6713 H   0  0  0  0  0  0  0  0  0  0  0  0
   57.1556   32.4326   47.1516 H   0  0  0  0  0  0  0  0  0  0  0  0
   57.5356   31.3148   51.6615 H   0  0  0  0  0  0  0  0  0  0  0  0
   58.9923   30.6942   50.8008 H   0  0  0  0  0  0  0  0  0  0  0  0
   58.5231   33.5161   51.8985 H   0  0  0  0  0  0  0  0  0  0  0  0
   59.7686   32.3192   52.4115 H   0  0  0  0  0  0  0  0  0  0  0  0
   55.8472   31.5987   43.4100 H   0  0  0  0  0  0  0  0  0  0  0  0
   54.6124   29.5412   44.0882 H   0  0  0  0  0  0  0  0  0  0  0  0
  1  2  1  0
  2  3  1  0
  3  4  2  0
  4  5  1  0
  5  6  2  0
  6  7  1  0
  7  8  2  0
  8  9  1  0
  9 10  1  0
 10 11  2  0
 10 12  2  0
 10 13  1  0
 13 14  2  0
 14 15  1  0
 15 16  1  0
 16 17  1  0
 17 18  2  0
 17 19  2  0
 17 20  1  0
 20 21  2  0
 21 22  1  0
 22 23  2  0
 23 24  1  0
 24 25  2  0
 24 26  1  0
 26 27  1  0
 27 28  1  0
 28 29  1  0
 15 30  2  0
 30 31  1  0
 31 32  2  0
 32 33  1  0
  8  3  1  0
 32 13  1  0
 25 20  1  0
 29 23  1  0
  1 34  1  0
  1 35  1  0
  1 36  1  0
  4 37  1  0
  5 38  1  0
  6 39  1  0
  7 40  1  0
  9 41  1  0
 14 42  1  0
 21 43  1  0
 22 44  1  0
 25 45  1  0
 27 46  1  0
 27 47  1  0
 28 48  1  0
 28 49  1  0
 30 50  1  0
 31 51  1  0
M  CHG  2  16  -1  33  -1
M  END
>  <UniqueID>  (25) 
22

>  <SMILES>  (25) 
COc1ccccc1NS(=O)(=O)c1cc([N-]S(=O)(=O)c2ccc3c(c2)OCCO3)ccc1[O-]

>  <Energy>  (25) 
64.47798245438538

>  <Genealogy>  (25) 
COc1ccccc1NS(=O)(=O)c1cc([N-]S(=O)(=O)c2ccc3c(c2)OCCO3)ccc1[O-] (protonated)
COc1ccccc1NS(=O)(=O)c1cc([N-]S(=O)(=O)c2ccc3c(c2)OCCO3)ccc1[O-] (3D coordinates assigned)
COc1ccccc1NS(=O)(=O)c1cc([N-]S(=O)(=O)c2ccc3c(c2)OCCO3)ccc1[O-] (nonaromatic ring conformer: 64.47798245438538 kcal/mol)

>  <smiles>  (25) 
COc1ccccc1NS(=O)(=O)c1cc(NS(=O)(=O)c2ccc3c(c2)OCCO3)ccc1O

>  <score_type>  (25) 
oracle

>  <origin>  (25) 
adg

>  <m_score__min__energy>  (25) 
-13.01

>  <m_primary>  (25) 
energy

$$$$
25:0
     RDKit          3D

 71 75  0  0  0  0  0  0  0  0999 V2000
   62.3010   34.9730   50.2280 O   0  0  0  0  0  0  0  0  0  0  0  0
   62.5170   34.1880   49.2680 C   0  0  0  0  0  0  0  0  0  0  0  0
   61.5170   33.2420   48.8610 N   0  0  0  0  0  0  0  0  0  0  0  0
   60.1010   33.3280   49.2450 C   0  0  1  0  0  0  0  0  0  0  0  0
   59.4380   34.5650   48.5970 C   0  0  0  0  0  0  0  0  0  0  0  0
   59.0400   34.3140   47.1620 C   0  0  0  0  0  0  0  0  0  0  0  0
   59.9500   34.5460   46.1160 C   0  0  0  0  0  0  0  0  0  0  0  0
   59.5930   34.2650   44.7940 C   0  0  0  0  0  0  0  0  0  0  0  0
   58.3210   33.7610   44.5070 C   0  0  0  0  0  0  0  0  0  0  0  0
   57.4040   33.5400   45.5390 C   0  0  0  0  0  0  0  0  0  0  0  0
   57.7600   33.8160   46.8620 C   0  0  0  0  0  0  0  0  0  0  0  0
   59.3660   32.0440   48.9220 C   0  0  0  0  0  0  0  0  0  0  0  0
   58.1350   31.9260   49.1750 O   0  0  0  0  0  0  0  0  0  0  0  0
   60.0470   30.9950   48.2220 N   0  0  0  0  0  0  0  0  0  0  0  0
   59.4110   29.8890   47.5690 C   0  0  0  0  0  0  0  0  0  0  0  0
   58.4900   30.0870   46.5270 C   0  0  0  0  0  0  0  0  0  0  0  0
   57.8640   28.9950   45.9220 C   0  0  0  0  0  0  0  0  0  0  0  0
   58.1420   27.6860   46.3510 C   0  0  0  0  0  0  0  0  0  0  0  0
   57.4880   26.5280   45.6950 C   0  0  0  0  0  0  0  0  0  0  0  0
   56.3580   25.9220   46.2720 C   0  0  0  0  0  0  0  0  0  0  0  0
   55.7630   24.8100   45.6690 C   0  0  0  0  0  0  0  0  0  0  0  0
   56.2900   24.2850   44.4780 C   0  0  0  0  0  0  0  0  0  0  0  0
   55.6990   23.1460   43.8330 N   0  0  0  0  0  0  0  0  0  0  0  0
   56.1530   21.7930   43.9520 C   0  0  0  0  0  0  0  0  0  0  0  0
   56.3480   21.1280   42.9000 O   0  0  0  0  0  0  0  0  0  0  0  0
   56.4580   21.1830   45.2720 C   0  0  0  0  0  0  0  0  0  0  0  0
   56.0820   19.8600   45.5660 C   0  0  0  0  0  0  0  0  0  0  0  0
   56.3710   19.3110   46.8170 C   0  0  0  0  0  0  0  0  0  0  0  0
   57.0210   20.0920   47.7740 C   0  0  0  0  0  0  0  0  0  0  0  0
   57.3640   21.3760   47.4880 N   0  0  0  0  0  0  0  0  0  0  0  0
   57.0970   21.9340   46.2760 C   0  0  0  0  0  0  0  0  0  0  0  0
   57.3940   24.9040   43.8830 C   0  0  0  0  0  0  0  0  0  0  0  0
   57.9970   26.0110   44.4900 C   0  0  0  0  0  0  0  0  0  0  0  0
   59.0470   27.4940   47.4090 C   0  0  0  0  0  0  0  0  0  0  0  0
   59.6680   28.5870   48.0210 C   0  0  0  0  0  0  0  0  0  0  0  0
   60.5480   28.3750   49.0770 O   0  0  0  0  0  0  0  0  0  0  0  0
   63.7220   34.2520   48.5620 O   0  0  0  0  0  0  0  0  0  0  0  0
   64.5230   33.1040   48.2890 C   0  0  0  0  0  0  0  0  0  0  0  0
   64.9200   32.4390   49.5780 C   0  0  0  0  0  0  0  0  0  0  0  0
   64.0500   31.5220   50.1910 C   0  0  0  0  0  0  0  0  0  0  0  0
   64.4390   30.8470   51.3520 C   0  0  0  0  0  0  0  0  0  0  0  0
   65.7030   31.0740   51.9040 C   0  0  0  0  0  0  0  0  0  0  0  0
   66.5760   31.9810   51.2970 C   0  0  0  0  0  0  0  0  0  0  0  0
   66.1900   32.6600   50.1360 C   0  0  0  0  0  0  0  0  0  0  0  0
   61.7860   32.5340   48.1410 H   0  0  0  0  0  0  0  0  0  0  0  0
   60.0409   33.4576   50.3357 H   0  0  0  0  0  0  0  0  0  0  0  0
   58.5385   34.8272   49.1732 H   0  0  0  0  0  0  0  0  0  0  0  0
   60.1721   35.3842   48.6051 H   0  0  0  0  0  0  0  0  0  0  0  0
   60.9482   34.9508   46.3389 H   0  0  0  0  0  0  0  0  0  0  0  0
   60.3122   34.4403   43.9804 H   0  0  0  0  0  0  0  0  0  0  0  0
   58.0410   33.5378   43.4669 H   0  0  0  0  0  0  0  0  0  0  0  0
   56.4019   33.1487   45.3095 H   0  0  0  0  0  0  0  0  0  0  0  0
   57.0358   33.6429   47.6717 H   0  0  0  0  0  0  0  0  0  0  0  0
   58.2607   31.1073   46.1858 H   0  0  0  0  0  0  0  0  0  0  0  0
   57.1480   29.1608   45.1036 H   0  0  0  0  0  0  0  0  0  0  0  0
   55.9389   26.3261   47.2053 H   0  0  0  0  0  0  0  0  0  0  0  0
   54.8789   24.3446   46.1291 H   0  0  0  0  0  0  0  0  0  0  0  0
   55.5594   19.2567   44.8091 H   0  0  0  0  0  0  0  0  0  0  0  0
   56.0890   18.2727   47.0461 H   0  0  0  0  0  0  0  0  0  0  0  0
   57.2561   19.6678   48.7613 H   0  0  0  0  0  0  0  0  0  0  0  0
   57.3823   22.9781   46.0799 H   0  0  0  0  0  0  0  0  0  0  0  0
   57.7905   24.5183   42.9322 H   0  0  0  0  0  0  0  0  0  0  0  0
   58.8749   26.4801   44.0218 H   0  0  0  0  0  0  0  0  0  0  0  0
   59.2687   26.4749   47.7586 H   0  0  0  0  0  0  0  0  0  0  0  0
   63.9477   32.3954   47.6750 H   0  0  0  0  0  0  0  0  0  0  0  0
   65.4288   33.4147   47.7477 H   0  0  0  0  0  0  0  0  0  0  0  0
   63.0576   31.3341   49.7553 H   0  0  0  0  0  0  0  0  0  0  0  0
   63.7496   30.1365   51.8316 H   0  0  0  0  0  0  0  0  0  0  0  0
   66.0102   30.5394   52.8150 H   0  0  0  0  0  0  0  0  0  0  0  0
   67.5695   32.1616   51.7332 H   0  0  0  0  0  0  0  0  0  0  0  0
   66.8829   33.3687   49.6590 H   0  0  0  0  0  0  0  0  0  0  0  0
  1  2  2  0
  2  3  1  0
  3  4  1  0
  4  5  1  0
  5  6  1  0
  6  7  2  0
  7  8  1  0
  8  9  2  0
  9 10  1  0
 10 11  2  0
  4 12  1  0
 12 13  2  0
 12 14  1  0
 14 15  1  0
 15 16  2  0
 16 17  1  0
 17 18  2  0
 18 19  1  0
 19 20  2  0
 20 21  1  0
 21 22  2  0
 22 23  1  0
 23 24  1  0
 24 25  2  0
 24 26  1  0
 26 27  2  0
 27 28  1  0
 28 29  2  0
 29 30  1  0
 30 31  2  0
 22 32  1  0
 32 33  2  0
 18 34  1  0
 34 35  2  0
 35 36  1  0
  2 37  1  0
 37 38  1  0
 38 39  1  0
 39 40  2  0
 40 41  1  0
 41 42  2  0
 42 43  1  0
 43 44  2  0
 11  6  1  0
 35 15  1  0
 44 39  1  0
 33 19  1  0
 31 26  1  0
  3 45  1  0
  4 46  1  1
  5 47  1  0
  5 48  1  0
  7 49  1  0
  8 50  1  0
  9 51  1  0
 10 52  1  0
 11 53  1  0
 16 54  1  0
 17 55  1  0
 20 56  1  0
 21 57  1  0
 27 58  1  0
 28 59  1  0
 29 60  1  0
 31 61  1  0
 32 62  1  0
 33 63  1  0
 34 64  1  0
 38 65  1  0
 38 66  1  0
 40 67  1  0
 41 68  1  0
 42 69  1  0
 43 70  1  0
 44 71  1  0
M  CHG  3  14  -1  23  -1  36  -1
M  END
>  <UniqueID>  (26) 
23

>  <SMILES>  (26) 
O=C(N[C@@H](Cc1ccccc1)C(=O)[N-]c1ccc(-c2ccc([N-]C(=O)c3cccnc3)cc2)cc1[O-])OCc1ccccc1

>  <Energy>  (26) 
91.23780573095338

>  <Genealogy>  (26) 
O=C(NC(Cc1ccccc1)C(=O)[N-]c1ccc(-c2ccc([N-]C(=O)c3cccnc3)cc2)cc1[O-])OCc1ccccc1 (protonated)
O=C(N[C@@H](Cc1ccccc1)C(=O)[N-]c1ccc(-c2ccc([N-]C(=O)c3cccnc3)cc2)cc1[O-])OCc1ccccc1 (chirality)
O=C(N[C@@H](Cc1ccccc1)C(=O)[N-]c1ccc(-c2ccc([N-]C(=O)c3cccnc3)cc2)cc1[O-])OCc1ccccc1 (3D coordinates assigned)
O=C(N[C@@H](Cc1ccccc1)C(=O)[N-]c1ccc(-c2ccc([N-]C(=O)c3cccnc3)cc2)cc1[O-])OCc1ccccc1 (optimized conformer: 91.23780573095338 kcal/mol)

>  <smiles>  (26) 
O=C(NC(Cc1ccccc1)C(=O)Nc1ccc(-c2ccc(NC(=O)c3cccnc3)cc2)cc1O)OCc1ccccc1

>  <score_type>  (26) 
oracle

>  <origin>  (26) 
adg

>  <m_score__min__energy>  (26) 
-13.869999999999999

>  <m_primary>  (26) 
energy

$$$$
26:0
     RDKit          3D

 42 43  0  0  0  0  0  0  0  0999 V2000
   55.1500   27.8980   45.1130 H   0  0  0  0  0  0  0  0  0  0  0  0
   55.5320   27.0930   45.5920 O   0  0  0  0  0  0  0  0  0  0  0  0
   56.8930   26.9670   45.8840 C   0  0  0  0  0  0  0  0  0  0  0  0
   57.8470   27.7820   45.2430 C   0  0  0  0  0  0  0  0  0  0  0  0
   57.4140   28.7760   44.3010 N   0  0  0  0  0  0  0  0  0  0  0  0
   56.5420   29.8810   44.5720 C   0  0  0  0  0  0  0  0  0  0  0  0
   55.3860   29.6430   45.0120 O   0  0  0  0  0  0  0  0  0  0  0  0
   56.9360   31.2790   44.2770 C   0  0  0  0  0  0  0  0  0  0  0  0
   56.8790   32.1590   45.2370 N   0  0  0  0  0  0  0  0  0  0  0  0
   57.1230   33.5970   45.1260 C   0  0  0  0  0  0  0  0  0  0  0  0
   57.3301   33.8474   44.0751 H   0  0  0  0  0  0  0  0  0  0  0  0
   56.2304   34.1340   45.4793 H   0  0  0  0  0  0  0  0  0  0  0  0
   58.2920   34.0050   45.9670 C   0  0  0  0  0  0  0  0  0  0  0  0
   58.2220   34.2540   47.2530 O   0  0  0  0  0  0  0  0  0  0  0  0
   59.4180   34.5930   47.6790 C   0  0  0  0  0  0  0  0  0  0  0  0
   59.6698   34.8585   48.7163 H   0  0  0  0  0  0  0  0  0  0  0  0
   60.3100   34.5650   46.6260 C   0  0  0  0  0  0  0  0  0  0  0  0
   61.3840   34.7997   46.6638 H   0  0  0  0  0  0  0  0  0  0  0  0
   59.5850   34.1840   45.5180 C   0  0  0  0  0  0  0  0  0  0  0  0
   59.9580   34.0506   44.4918 H   0  0  0  0  0  0  0  0  0  0  0  0
   57.4980   31.6200   42.9190 C   0  0  0  0  0  0  0  0  0  0  0  0
   58.4326   32.1871   43.0408 H   0  0  0  0  0  0  0  0  0  0  0  0
   57.7015   30.6929   42.3630 H   0  0  0  0  0  0  0  0  0  0  0  0
   56.7697   32.2286   42.3630 H   0  0  0  0  0  0  0  0  0  0  0  0
   59.2040   27.6520   45.5820 C   0  0  0  0  0  0  0  0  0  0  0  0
   59.9514   28.3063   45.1095 H   0  0  0  0  0  0  0  0  0  0  0  0
   59.6080   26.6970   46.5150 C   0  0  0  0  0  0  0  0  0  0  0  0
   60.6740   26.5918   46.7651 H   0  0  0  0  0  0  0  0  0  0  0  0
   58.6650   25.8750   47.1320 C   0  0  0  0  0  0  0  0  0  0  0  0
   58.9911   25.1195   47.8620 H   0  0  0  0  0  0  0  0  0  0  0  0
   57.3000   26.0080   46.8250 C   0  0  0  0  0  0  0  0  0  0  0  0
   56.3020   25.1860   47.4480 N   0  0  0  0  0  0  0  0  0  0  0  0
   55.2970   24.0350   46.6290 S   0  0  0  0  0  0  0  0  0  0  0  0
   54.7630   23.0340   47.6150 O   0  0  0  0  0  0  0  0  0  0  0  0
   54.1560   24.7420   45.9510 O   0  0  0  0  0  0  0  0  0  0  0  0
   56.2690   23.1740   45.4040 C   0  0  0  0  0  0  0  0  0  0  0  0
   55.9997   22.1075   45.4152 H   0  0  0  0  0  0  0  0  0  0  0  0
   57.3341   23.3042   45.6459 H   0  0  0  0  0  0  0  0  0  0  0  0
   56.0140   23.7380   44.0120 C   0  0  0  0  0  0  0  0  0  0  0  0
   55.5622   24.7372   44.0983 H   0  0  0  0  0  0  0  0  0  0  0  0
   56.9662   23.8120   43.4663 H   0  0  0  0  0  0  0  0  0  0  0  0
   55.3294   23.0720   43.4663 H   0  0  0  0  0  0  0  0  0  0  0  0
  1  2  1  0
  2  3  1  0
  3  4  2  0
  4  5  1  0
  5  6  1  0
  6  7  2  0
  6  8  1  0
  8  9  2  0
  9 10  1  0
 10 11  1  0
 10 12  1  0
 10 13  1  0
 13 14  1  0
 14 15  1  0
 15 16  1  0
 15 17  2  0
 17 18  1  0
 17 19  1  0
 19 20  1  0
  8 21  1  0
 21 22  1  0
 21 23  1  0
 21 24  1  0
  4 25  1  0
 25 26  1  0
 25 27  2  0
 27 28  1  0
 27 29  1  0
 29 30  1  0
 29 31  2  0
 31 32  1  0
 32 33  1  0
 33 34  2  0
 33 35  2  0
 33 36  1  0
 36 37  1  0
 36 38  1  0
 36 39  1  0
 39 40  1  0
 39 41  1  0
 39 42  1  0
 31  3  1  0
 19 13  2  0
M  CHG  2   5  -1  32  -1
M  END
>  <UniqueID>  (27) 
24

>  <SMILES>  (27) 
CCS(=O)(=O)[N-]c1cccc([N-]C(=O)/C(C)=N/Cc2ccco2)c1O

>  <Energy>  (27) 
68.12527601339244

>  <Genealogy>  (27) 
CCS(=O)(=O)[N-]c1cccc([N-]C(=O)C(C)=NCc2ccco2)c1O (protonated)
CCS(=O)(=O)[N-]c1cccc([N-]C(=O)/C(C)=N/Cc2ccco2)c1O (cis-trans isomerization)
CCS(=O)(=O)[N-]c1cccc([N-]C(=O)/C(C)=N/Cc2ccco2)c1O (3D coordinates assigned)
CCS(=O)(=O)[N-]c1cccc([N-]C(=O)/C(C)=N/Cc2ccco2)c1O (optimized conformer: 68.12527601339244 kcal/mol)

>  <smiles>  (27) 
CCS(=O)(=O)Nc1cccc(NC(=O)C(C)=NCc2ccco2)c1O

>  <score_type>  (27) 
oracle

>  <origin>  (27) 
adg

>  <m_score__min__energy>  (27) 
-12.449999999999999

>  <m_primary>  (27) 
energy

$$$$
27:0
     RDKit          3D

 43 44  0  0  0  0  0  0  0  0999 V2000
   59.1940   34.9410   44.8590 C   0  0  0  0  0  0  0  0  0  0  0  0
   58.2900   34.0540   45.5980 N   0  0  0  0  0  0  0  0  0  0  0  0
   57.2140   33.3720   44.8670 C   0  0  0  0  0  0  0  0  0  0  0  0
   57.6080   31.9540   44.5830 C   0  0  0  0  0  0  0  0  0  0  0  0
   57.8630   31.6150   43.3950 O   0  0  0  0  0  0  0  0  0  0  0  0
   57.6220   30.9820   45.6420 N   0  0  0  0  0  0  0  0  0  0  0  0
   58.1600   29.6540   45.5170 C   0  0  0  0  0  0  0  0  0  0  0  0
   59.5350   29.4300   45.3180 C   0  0  0  0  0  0  0  0  0  0  0  0
   60.0330   28.1270   45.2270 C   0  0  0  0  0  0  0  0  0  0  0  0
   59.1710   27.0370   45.3480 C   0  0  0  0  0  0  0  0  0  0  0  0
   57.8030   27.2430   45.5700 C   0  0  0  0  0  0  0  0  0  0  0  0
   56.7270   25.8640   45.7800 S   0  0  0  0  0  0  0  0  0  0  0  0
   55.1070   26.4260   46.0050 N   0  0  0  0  0  0  0  0  0  0  0  0
   57.1530   25.0630   46.9800 O   0  0  0  0  0  0  0  0  0  0  0  0
   56.7840   24.9780   44.5660 O   0  0  0  0  0  0  0  0  0  0  0  0
   57.3050   28.5500   45.6650 C   0  0  0  0  0  0  0  0  0  0  0  0
   58.5110   33.7670   46.9990 C   0  0  0  0  0  0  0  0  0  0  0  0
   57.7440   32.9700   47.6050 O   0  0  0  0  0  0  0  0  0  0  0  0
   59.6680   34.3570   47.7660 C   0  0  0  0  0  0  0  0  0  0  0  0
   60.9020   33.5000   47.6370 C   0  0  0  0  0  0  0  0  0  0  0  0
   60.9950   32.2780   48.3300 C   0  0  0  0  0  0  0  0  0  0  0  0
   62.1510   31.4970   48.2310 C   0  0  0  0  0  0  0  0  0  0  0  0
   63.2260   31.9310   47.4520 C   0  0  0  0  0  0  0  0  0  0  0  0
   63.1470   33.1480   46.7680 C   0  0  0  0  0  0  0  0  0  0  0  0
   61.9920   33.9310   46.8620 C   0  0  0  0  0  0  0  0  0  0  0  0
   59.7931   35.5289   45.5700 H   0  0  0  0  0  0  0  0  0  0  0  0
   59.8625   34.3387   44.2263 H   0  0  0  0  0  0  0  0  0  0  0  0
   58.6045   35.6209   44.2263 H   0  0  0  0  0  0  0  0  0  0  0  0
   56.2975   33.3809   45.4753 H   0  0  0  0  0  0  0  0  0  0  0  0
   57.0348   33.8950   43.9160 H   0  0  0  0  0  0  0  0  0  0  0  0
   57.1440   31.2320   46.5390 H   0  0  0  0  0  0  0  0  0  0  0  0
   60.2218   30.2851   45.2336 H   0  0  0  0  0  0  0  0  0  0  0  0
   61.1074   27.9608   45.0595 H   0  0  0  0  0  0  0  0  0  0  0  0
   59.5661   26.0135   45.2690 H   0  0  0  0  0  0  0  0  0  0  0  0
   55.1470   27.4700   46.0250 H   0  0  0  0  0  0  0  0  0  0  0  0
   56.2342   28.7123   45.8573 H   0  0  0  0  0  0  0  0  0  0  0  0
   59.8854   35.3606   47.3715 H   0  0  0  0  0  0  0  0  0  0  0  0
   59.3903   34.4096   48.8291 H   0  0  0  0  0  0  0  0  0  0  0  0
   60.1547   31.9360   48.9521 H   0  0  0  0  0  0  0  0  0  0  0  0
   62.2137   30.5389   48.7678 H   0  0  0  0  0  0  0  0  0  0  0  0
   64.1346   31.3155   47.3766 H   0  0  0  0  0  0  0  0  0  0  0  0
   63.9942   33.4899   46.1553 H   0  0  0  0  0  0  0  0  0  0  0  0
   61.9365   34.8900   46.3260 H   0  0  0  0  0  0  0  0  0  0  0  0
  1  2  1  0
  2  3  1  0
  3  4  1  0
  4  5  2  0
  4  6  1  0
  6  7  1  0
  7  8  2  0
  8  9  1  0
  9 10  2  0
 10 11  1  0
 11 12  1  0
 12 13  1  0
 12 14  2  0
 12 15  2  0
 11 16  2  0
  2 17  1  0
 17 18  2  0
 17 19  1  0
 19 20  1  0
 20 21  2  0
 21 22  1  0
 22 23  2  0
 23 24  1  0
 24 25  2  0
 16  7  1  0
 25 20  1  0
  1 26  1  0
  1 27  1  0
  1 28  1  0
  3 29  1  0
  3 30  1  0
  6 31  1  0
  8 32  1  0
  9 33  1  0
 10 34  1  0
 13 35  1  0
 16 36  1  0
 19 37  1  0
 19 38  1  0
 21 39  1  0
 22 40  1  0
 23 41  1  0
 24 42  1  0
 25 43  1  0
M  CHG  1  13  -1
M  END
>  <UniqueID>  (28) 
25

>  <SMILES>  (28) 
CN(CC(=O)Nc1cccc(S([NH-])(=O)=O)c1)C(=O)Cc1ccccc1

>  <Energy>  (28) 
42.49115435745724

>  <Genealogy>  (28) 
CN(CC(=O)Nc1cccc(S([NH-])(=O)=O)c1)C(=O)Cc1ccccc1 (protonated)
CN(CC(=O)Nc1cccc(S([NH-])(=O)=O)c1)C(=O)Cc1ccccc1 (3D coordinates assigned)
CN(CC(=O)Nc1cccc(S([NH-])(=O)=O)c1)C(=O)Cc1ccccc1 (optimized conformer: 42.49115435745724 kcal/mol)

>  <smiles>  (28) 
CN(CC(=O)Nc1cccc(S(N)(=O)=O)c1)C(=O)Cc1ccccc1

>  <score_type>  (28) 
oracle

>  <origin>  (28) 
adg

>  <m_score__min__energy>  (28) 
-11.1

>  <m_primary>  (28) 
energy

$$$$
28:0
     RDKit          3D

 45 47  0  0  0  0  0  0  0  0999 V2000
   55.8890   22.2200   42.5430 N   0  0  0  0  0  0  0  0  0  0  0  0
   56.6140   22.8480   43.4100 C   0  0  0  0  0  0  0  0  0  0  0  0
   56.5850   24.1860   43.5820 N   0  0  0  0  0  0  0  0  0  0  0  0
   57.4420   24.5900   44.5600 C   0  0  0  0  0  0  0  0  0  0  0  0
   57.6200   26.0350   44.9230 C   0  0  0  0  0  0  0  0  0  0  0  0
   56.6180   26.4840   45.9930 C   0  0  0  0  0  0  0  0  0  0  0  0
   55.9130   27.7110   45.6150 N   0  0  0  0  0  0  0  0  0  0  0  0
   56.4960   28.9750   45.2620 C   0  0  0  0  0  0  0  0  0  0  0  0
   55.7820   29.8160   44.6560 O   0  0  0  0  0  0  0  0  0  0  0  0
   57.8800   29.3430   45.6220 C   0  0  0  0  0  0  0  0  0  0  0  0
   58.9590   28.9900   44.8100 C   0  0  0  0  0  0  0  0  0  0  0  0
   60.2560   29.3220   45.1940 C   0  0  0  0  0  0  0  0  0  0  0  0
   60.4660   30.0280   46.3820 C   0  0  0  0  0  0  0  0  0  0  0  0
   61.6490   30.3040   46.7220 O   0  0  0  0  0  0  0  0  0  0  0  0
   59.4000   30.4120   47.1590 N   0  0  0  0  0  0  0  0  0  0  0  0
   59.5980   31.1510   48.4200 C   0  0  0  0  0  0  0  0  0  0  0  0
   58.6190   32.3270   48.5440 C   0  0  0  0  0  0  0  0  0  0  0  0
   58.5640   33.1460   47.2810 C   0  0  0  0  0  0  0  0  0  0  0  0
   59.6890   33.8720   46.8560 C   0  0  0  0  0  0  0  0  0  0  0  0
   59.6550   34.5880   45.6570 C   0  0  0  0  0  0  0  0  0  0  0  0
   58.4970   34.5880   44.8740 C   0  0  0  0  0  0  0  0  0  0  0  0
   57.3720   33.8700   45.2900 C   0  0  0  0  0  0  0  0  0  0  0  0
   57.4040   33.1490   46.4880 C   0  0  0  0  0  0  0  0  0  0  0  0
   58.1240   30.0850   46.7860 C   0  0  0  0  0  0  0  0  0  0  0  0
   58.1660   23.5600   45.1630 C   0  0  0  0  0  0  0  0  0  0  0  0
   57.7020   22.1040   44.4490 S   0  0  0  0  0  0  0  0  0  0  0  0
   56.1200   22.2400   41.5250 H   0  0  0  0  0  0  0  0  0  0  0  0
   55.9800   24.8330   43.0310 H   0  0  0  0  0  0  0  0  0  0  0  0
   58.6402   26.1819   45.3073 H   0  0  0  0  0  0  0  0  0  0  0  0
   57.4458   26.6372   44.0191 H   0  0  0  0  0  0  0  0  0  0  0  0
   55.8788   25.6834   46.1434 H   0  0  0  0  0  0  0  0  0  0  0  0
   57.1807   26.6900   46.9154 H   0  0  0  0  0  0  0  0  0  0  0  0
   58.7851   28.4500   43.8676 H   0  0  0  0  0  0  0  0  0  0  0  0
   61.1105   29.0302   44.5658 H   0  0  0  0  0  0  0  0  0  0  0  0
   59.4405   30.4645   49.2649 H   0  0  0  0  0  0  0  0  0  0  0  0
   60.6220   31.5528   48.4268 H   0  0  0  0  0  0  0  0  0  0  0  0
   57.6143   31.9328   48.7565 H   0  0  0  0  0  0  0  0  0  0  0  0
   58.9691   32.9783   49.3583 H   0  0  0  0  0  0  0  0  0  0  0  0
   60.6014   33.8767   47.4705 H   0  0  0  0  0  0  0  0  0  0  0  0
   60.5403   35.1523   45.3287 H   0  0  0  0  0  0  0  0  0  0  0  0
   58.4710   35.1530   43.9305 H   0  0  0  0  0  0  0  0  0  0  0  0
   56.4604   33.8721   44.6743 H   0  0  0  0  0  0  0  0  0  0  0  0
   56.5181   32.5823   46.8105 H   0  0  0  0  0  0  0  0  0  0  0  0
   57.2775   30.4094   47.4091 H   0  0  0  0  0  0  0  0  0  0  0  0
   58.9100   23.6775   45.9647 H   0  0  0  0  0  0  0  0  0  0  0  0
  1  2  2  3
  2  3  1  0
  3  4  1  0
  4  5  1  0
  5  6  1  0
  6  7  1  0
  7  8  1  0
  8  9  2  0
  8 10  1  0
 10 11  1  0
 11 12  2  0
 12 13  1  0
 13 14  2  0
 13 15  1  0
 15 16  1  0
 16 17  1  0
 17 18  1  0
 18 19  2  0
 19 20  1  0
 20 21  2  0
 21 22  1  0
 22 23  2  0
 15 24  1  0
  4 25  2  0
 25 26  1  0
 26  2  1  0
 24 10  2  0
 23 18  1  0
  1 27  1  0
  3 28  1  0
  5 29  1  0
  5 30  1  0
  6 31  1  0
  6 32  1  0
 11 33  1  0
 12 34  1  0
 16 35  1  0
 16 36  1  0
 17 37  1  0
 17 38  1  0
 19 39  1  0
 20 40  1  0
 21 41  1  0
 22 42  1  0
 23 43  1  0
 24 44  1  0
 25 45  1  0
M  CHG  1   7  -1
M  END
>  <UniqueID>  (29) 
26

>  <SMILES>  (29) 
N=c1[nH]c(CC[N-]C(=O)c2ccc(=O)n(CCc3ccccc3)c2)cs1

>  <Energy>  (29) 
74.50295811572528

>  <Genealogy>  (29) 
N=c1[nH]c(CC[N-]C(=O)c2ccc(=O)n(CCc3ccccc3)c2)cs1 (protonated)
N=c1[nH]c(CC[N-]C(=O)c2ccc(=O)n(CCc3ccccc3)c2)cs1 (3D coordinates assigned)
N=c1[nH]c(CC[N-]C(=O)c2ccc(=O)n(CCc3ccccc3)c2)cs1 (optimized conformer: 74.50295811572528 kcal/mol)

>  <smiles>  (29) 
N=c1[nH]c(CCNC(=O)c2ccc(=O)n(CCc3ccccc3)c2)cs1

>  <score_type>  (29) 
oracle

>  <origin>  (29) 
adg

>  <m_score__min__energy>  (29) 
-10.4

>  <m_primary>  (29) 
energy

$$$$
29:0
     RDKit          3D

 35 37  0  0  0  0  0  0  0  0999 V2000
   54.7340   24.9140   45.5970 C   0  0  0  0  0  0  0  0  0  0  0  0
   55.1400   26.2190   45.9980 O   0  0  0  0  0  0  0  0  0  0  0  0
   56.4770   26.6360   46.1010 C   0  0  0  0  0  0  0  0  0  0  0  0
   57.3030   25.9920   47.0280 C   0  0  0  0  0  0  0  0  0  0  0  0
   58.6430   26.3660   47.1640 C   0  0  0  0  0  0  0  0  0  0  0  0
   59.1680   27.3900   46.3720 C   0  0  0  0  0  0  0  0  0  0  0  0
   58.3540   28.0520   45.4390 C   0  0  0  0  0  0  0  0  0  0  0  0
   58.9250   29.1330   44.5620 C   0  0  0  0  0  0  0  0  0  0  0  0
   58.2200   30.4400   44.8080 C   0  0  0  0  0  0  0  0  0  0  0  0
   56.9660   30.8150   44.3360 C   0  0  0  0  0  0  0  0  0  0  0  0
   56.0640   30.0010   43.4650 C   0  0  0  0  0  0  0  0  0  0  0  0
   56.6110   32.0140   44.8540 N   0  0  0  0  0  0  0  0  0  0  0  0
   57.6640   32.3460   45.6260 C   0  0  0  0  0  0  0  0  0  0  0  0
   57.7750   33.5080   46.3880 C   0  0  0  0  0  0  0  0  0  0  0  0
   58.9390   33.6810   47.1520 C   0  0  0  0  0  0  0  0  0  0  0  0
   59.9510   32.7020   47.1370 C   0  0  0  0  0  0  0  0  0  0  0  0
   61.5310   32.9350   48.1820 Br  0  0  0  0  0  0  0  0  0  0  0  0
   59.7870   31.5520   46.3490 C   0  0  0  0  0  0  0  0  0  0  0  0
   58.6440   31.4240   45.6250 N   0  0  0  0  0  0  0  0  0  0  0  0
   57.0090   27.6700   45.3070 C   0  0  0  0  0  0  0  0  0  0  0  0
   54.5427   24.2992   46.4889 H   0  0  0  0  0  0  0  0  0  0  0  0
   53.8153   24.9843   44.9962 H   0  0  0  0  0  0  0  0  0  0  0  0
   55.5305   24.4506   44.9962 H   0  0  0  0  0  0  0  0  0  0  0  0
   56.8951   25.1852   47.6547 H   0  0  0  0  0  0  0  0  0  0  0  0
   59.2849   25.8533   47.8956 H   0  0  0  0  0  0  0  0  0  0  0  0
   60.2239   27.6790   46.4798 H   0  0  0  0  0  0  0  0  0  0  0  0
   59.9956   29.2519   44.7848 H   0  0  0  0  0  0  0  0  0  0  0  0
   58.7858   28.8469   43.5090 H   0  0  0  0  0  0  0  0  0  0  0  0
   55.3942   29.3965   44.0943 H   0  0  0  0  0  0  0  0  0  0  0  0
   55.4653   30.6705   42.8299 H   0  0  0  0  0  0  0  0  0  0  0  0
   56.6688   29.3370   42.8299 H   0  0  0  0  0  0  0  0  0  0  0  0
   56.9763   34.2644   46.3902 H   0  0  0  0  0  0  0  0  0  0  0  0
   59.0616   34.5857   47.7656 H   0  0  0  0  0  0  0  0  0  0  0  0
   60.5640   30.7740   46.3183 H   0  0  0  0  0  0  0  0  0  0  0  0
   56.3656   28.1830   44.5770 H   0  0  0  0  0  0  0  0  0  0  0  0
  1  2  1  0
  2  3  1  0
  3  4  2  0
  4  5  1  0
  5  6  2  0
  6  7  1  0
  7  8  1  0
  8  9  1  0
  9 10  2  0
 10 11  1  0
 10 12  1  0
 12 13  2  0
 13 14  1  0
 14 15  2  0
 15 16  1  0
 16 17  1  0
 16 18  2  0
 18 19  1  0
  7 20  2  0
 20  3  1  0
 19  9  1  0
 19 13  1  0
  1 21  1  0
  1 22  1  0
  1 23  1  0
  4 24  1  0
  5 25  1  0
  6 26  1  0
  8 27  1  0
  8 28  1  0
 11 29  1  0
 11 30  1  0
 11 31  1  0
 14 32  1  0
 15 33  1  0
 18 34  1  0
 20 35  1  0
M  END
>  <UniqueID>  (30) 
27

>  <SMILES>  (30) 
COc1cccc(Cc2c(C)nc3ccc(Br)cn23)c1

>  <Energy>  (30) 
68.03424632007271

>  <Genealogy>  (30) 
COc1cccc(Cc2c(C)nc3ccc(Br)cn23)c1 (3D coordinates assigned)
COc1cccc(Cc2c(C)nc3ccc(Br)cn23)c1 (optimized conformer: 68.03424632007271 kcal/mol)

>  <smiles>  (30) 
COc1cccc(Cc2c(C)nc3ccc(Br)cn23)c1

>  <score_type>  (30) 
oracle

>  <origin>  (30) 
adg

>  <m_score__min__energy>  (30) 
-8.0899999999999999

>  <m_primary>  (30) 
energy

$$$$
30:0
     RDKit          3D

 55 58  0  0  0  0  0  0  0  0999 V2000
   59.1900   34.6210   45.3440 C   0  0  0  0  0  0  0  0  0  0  0  0
   57.9270   34.0360   44.8650 N   0  0  0  0  0  0  0  0  0  0  0  0
   58.1730   33.0260   43.8250 C   0  0  0  0  0  0  0  0  0  0  0  0
   57.0650   33.5360   45.9620 C   0  0  0  0  0  0  0  0  0  0  0  0
   57.8360   32.8930   47.1360 C   0  0  0  0  0  0  0  0  0  0  0  0
   58.7700   31.9290   46.6460 O   0  0  0  0  0  0  0  0  0  0  0  0
   58.5560   30.5410   46.5990 C   0  0  0  0  0  0  0  0  0  0  0  0
   57.9720   30.0010   45.4470 C   0  0  0  0  0  0  0  0  0  0  0  0
   57.7530   28.6240   45.3370 C   0  0  0  0  0  0  0  0  0  0  0  0
   58.1060   27.7630   46.3880 C   0  0  0  0  0  0  0  0  0  0  0  0
   57.9140   26.3440   46.2540 N   0  0  0  0  0  0  0  0  0  0  0  0
   58.9170   25.3450   46.0380 C   0  0  0  0  0  0  0  0  0  0  0  0
   60.1490   25.5400   46.2120 O   0  0  0  0  0  0  0  0  0  0  0  0
   58.2970   24.0810   45.6260 C   0  0  0  0  0  0  0  0  0  0  0  0
   58.8530   22.8460   45.2570 C   0  0  0  0  0  0  0  0  0  0  0  0
   60.2250   22.6030   45.2880 O   0  0  0  0  0  0  0  0  0  0  0  0
   57.9790   21.8310   44.8350 C   0  0  0  0  0  0  0  0  0  0  0  0
   56.5880   22.0480   44.7920 C   0  0  0  0  0  0  0  0  0  0  0  0
   56.0440   23.2890   45.1850 C   0  0  0  0  0  0  0  0  0  0  0  0
   54.6370   23.5600   45.1220 N   0  0  0  0  0  0  0  0  0  0  0  0
   53.6130   22.8740   45.8570 C   0  0  0  0  0  0  0  0  0  0  0  0
   52.5440   22.5770   45.2640 O   0  0  0  0  0  0  0  0  0  0  0  0
   53.7590   22.5490   47.2930 C   0  0  0  0  0  0  0  0  0  0  0  0
   55.0320   22.5590   47.8940 C   0  0  0  0  0  0  0  0  0  0  0  0
   55.1740   22.2460   49.2500 C   0  0  0  0  0  0  0  0  0  0  0  0
   54.0530   21.9110   50.0150 C   0  0  0  0  0  0  0  0  0  0  0  0
   52.7880   21.8790   49.4230 C   0  0  0  0  0  0  0  0  0  0  0  0
   52.6380   22.1950   48.0680 C   0  0  0  0  0  0  0  0  0  0  0  0
   56.9320   24.2920   45.5830 C   0  0  0  0  0  0  0  0  0  0  0  0
   56.6800   25.6790   45.9650 C   0  0  0  0  0  0  0  0  0  0  0  0
   55.5500   26.2380   45.9860 O   0  0  0  0  0  0  0  0  0  0  0  0
   58.6770   28.3040   47.5530 C   0  0  0  0  0  0  0  0  0  0  0  0
   58.9020   29.6790   47.6610 C   0  0  0  0  0  0  0  0  0  0  0  0
   59.1984   34.6249   46.4440 H   0  0  0  0  0  0  0  0  0  0  0  0
   60.0352   34.0227   44.9730 H   0  0  0  0  0  0  0  0  0  0  0  0
   59.2802   35.6526   44.9730 H   0  0  0  0  0  0  0  0  0  0  0  0
   58.4079   32.0615   44.2988 H   0  0  0  0  0  0  0  0  0  0  0  0
   57.2749   32.9179   43.1991 H   0  0  0  0  0  0  0  0  0  0  0  0
   59.0202   33.3430   43.1991 H   0  0  0  0  0  0  0  0  0  0  0  0
   56.4827   34.3824   46.3551 H   0  0  0  0  0  0  0  0  0  0  0  0
   56.4338   32.7454   45.5301 H   0  0  0  0  0  0  0  0  0  0  0  0
   58.3777   33.6760   47.6868 H   0  0  0  0  0  0  0  0  0  0  0  0
   57.1196   32.3909   47.8028 H   0  0  0  0  0  0  0  0  0  0  0  0
   57.6825   30.6662   44.6202 H   0  0  0  0  0  0  0  0  0  0  0  0
   57.3016   28.2134   44.4218 H   0  0  0  0  0  0  0  0  0  0  0  0
   60.7270   22.2000   44.5090 H   0  0  0  0  0  0  0  0  0  0  0  0
   58.3859   20.8543   44.5343 H   0  0  0  0  0  0  0  0  0  0  0  0
   55.9206   21.2436   44.4493 H   0  0  0  0  0  0  0  0  0  0  0  0
   55.9186   22.8140   47.2949 H   0  0  0  0  0  0  0  0  0  0  0  0
   56.1705   22.2635   49.7156 H   0  0  0  0  0  0  0  0  0  0  0  0
   54.1669   21.6726   51.0828 H   0  0  0  0  0  0  0  0  0  0  0  0
   51.9079   21.6048   50.0233 H   0  0  0  0  0  0  0  0  0  0  0  0
   51.6400   22.1667   47.6063 H   0  0  0  0  0  0  0  0  0  0  0  0
   58.9489   27.6396   48.3865 H   0  0  0  0  0  0  0  0  0  0  0  0
   59.3504   30.0907   48.5772 H   0  0  0  0  0  0  0  0  0  0  0  0
  1  2  1  0
  2  3  1  0
  2  4  1  0
  4  5  1  0
  5  6  1  0
  6  7  1  0
  7  8  2  0
  8  9  1  0
  9 10  2  0
 10 11  1  0
 11 12  1  0
 12 13  2  0
 12 14  1  0
 14 15  2  0
 15 16  1  0
 15 17  1  0
 17 18  2  0
 18 19  1  0
 19 20  1  0
 20 21  1  0
 21 22  2  0
 21 23  1  0
 23 24  2  0
 24 25  1  0
 25 26  2  0
 26 27  1  0
 27 28  2  0
 19 29  2  0
 29 30  1  0
 30 31  2  0
 10 32  1  0
 32 33  2  0
 33  7  1  0
 30 11  1  0
 29 14  1  0
 28 23  1  0
  1 34  1  0
  1 35  1  0
  1 36  1  0
  3 37  1  0
  3 38  1  0
  3 39  1  0
  4 40  1  0
  4 41  1  0
  5 42  1  0
  5 43  1  0
  8 44  1  0
  9 45  1  0
 16 46  1  0
 17 47  1  0
 18 48  1  0
 24 49  1  0
 25 50  1  0
 26 51  1  0
 27 52  1  0
 28 53  1  0
 32 54  1  0
 33 55  1  0
M  CHG  1  20  -1
M  END
>  <UniqueID>  (31) 
28

>  <SMILES>  (31) 
CN(C)CCOc1ccc(N2C(=O)c3c(O)ccc([N-]C(=O)c4ccccc4)c3C2=O)cc1

>  <Energy>  (31) 
105.96637660746063

>  <Genealogy>  (31) 
CN(C)CCOc1ccc(N2C(=O)c3c(O)ccc([N-]C(=O)c4ccccc4)c3C2=O)cc1 (protonated)
CN(C)CCOc1ccc(N2C(=O)c3c(O)ccc([N-]C(=O)c4ccccc4)c3C2=O)cc1 (3D coordinates assigned)
CN(C)CCOc1ccc(N2C(=O)c3c(O)ccc([N-]C(=O)c4ccccc4)c3C2=O)cc1 (nonaromatic ring conformer: 105.96637660746063 kcal/mol)

>  <smiles>  (31) 
CN(C)CCOc1ccc(N2C(=O)c3c(O)ccc(NC(=O)c4ccccc4)c3C2=O)cc1

>  <score_type>  (31) 
oracle

>  <origin>  (31) 
adg

>  <m_score__min__energy>  (31) 
-9.5299999999999994

>  <m_primary>  (31) 
energy

$$$$
31:0
     RDKit          3D

 48 50  0  0  0  0  0  0  0  0999 V2000
   58.5420   31.7460   48.8540 C   0  0  0  0  0  0  0  0  0  0  0  0
   57.8880   32.4180   47.7810 O   0  0  0  0  0  0  0  0  0  0  0  0
   58.4760   33.4220   46.9940 C   0  0  0  0  0  0  0  0  0  0  0  0
   59.4480   34.3000   47.5200 C   0  0  0  0  0  0  0  0  0  0  0  0
   60.0200   35.2890   46.7150 C   0  0  0  0  0  0  0  0  0  0  0  0
   59.6390   35.4130   45.3800 C   0  0  0  0  0  0  0  0  0  0  0  0
   58.6840   34.5480   44.8440 C   0  0  0  0  0  0  0  0  0  0  0  0
   58.0850   33.5580   45.6440 C   0  0  0  0  0  0  0  0  0  0  0  0
   57.0560   32.6460   45.0260 C   0  0  0  0  0  0  0  0  0  0  0  0
   57.1780   31.3010   45.5820 N   0  0  0  0  0  0  0  0  0  0  0  0
   58.0980   30.2970   45.1300 C   0  0  0  0  0  0  0  0  0  0  0  0
   58.8970   30.5840   44.2000 O   0  0  0  0  0  0  0  0  0  0  0  0
   58.1150   28.9350   45.7000 C   0  0  0  0  0  0  0  0  0  0  0  0
   57.5700   27.8550   44.9890 C   0  0  0  0  0  0  0  0  0  0  0  0
   57.5970   26.5670   45.5280 C   0  0  0  0  0  0  0  0  0  0  0  0
   58.1920   26.3340   46.7810 C   0  0  0  0  0  0  0  0  0  0  0  0
   58.2260   25.0290   47.3800 N   0  0  0  0  0  0  0  0  0  0  0  0
   56.9540   23.8470   47.2930 S   0  0  0  0  0  0  0  0  0  0  0  0
   55.7440   24.4240   47.9710 O   0  0  0  0  0  0  0  0  0  0  0  0
   57.3880   22.6150   48.0370 O   0  0  0  0  0  0  0  0  0  0  0  0
   56.5420   23.4510   45.6110 C   0  0  0  0  0  0  0  0  0  0  0  0
   57.4080   22.6040   44.8940 C   0  0  0  0  0  0  0  0  0  0  0  0
   57.1700   22.3020   43.5530 C   0  0  0  0  0  0  0  0  0  0  0  0
   56.0710   22.8510   42.8990 C   0  0  0  0  0  0  0  0  0  0  0  0
   55.2050   23.7030   43.5850 C   0  0  0  0  0  0  0  0  0  0  0  0
   55.4150   24.0130   44.9440 C   0  0  0  0  0  0  0  0  0  0  0  0
   54.4500   24.9320   45.6000 C   0  0  0  0  0  0  0  0  0  0  0  0
   53.3290   24.5000   45.9830 O   0  0  0  0  0  0  0  0  0  0  0  0
   54.7710   26.2590   45.8480 O   0  0  0  0  0  0  0  0  0  0  0  0
   58.7570   27.4070   47.4780 C   0  0  0  0  0  0  0  0  0  0  0  0
   58.7310   28.6980   46.9380 C   0  0  0  0  0  0  0  0  0  0  0  0
   58.1656   32.1327   49.8125 H   0  0  0  0  0  0  0  0  0  0  0  0
   58.3390   30.6669   48.7889 H   0  0  0  0  0  0  0  0  0  0  0  0
   59.6262   31.9197   48.7889 H   0  0  0  0  0  0  0  0  0  0  0  0
   59.7576   34.2051   48.5713 H   0  0  0  0  0  0  0  0  0  0  0  0
   60.7730   35.9714   47.1362 H   0  0  0  0  0  0  0  0  0  0  0  0
   60.0910   36.1925   44.7491 H   0  0  0  0  0  0  0  0  0  0  0  0
   58.3970   34.6412   43.7862 H   0  0  0  0  0  0  0  0  0  0  0  0
   56.0498   33.0370   45.2372 H   0  0  0  0  0  0  0  0  0  0  0  0
   57.2204   32.6023   43.9392 H   0  0  0  0  0  0  0  0  0  0  0  0
   57.1184   28.0241   44.0003 H   0  0  0  0  0  0  0  0  0  0  0  0
   57.1508   25.7307   44.9699 H   0  0  0  0  0  0  0  0  0  0  0  0
   58.2856   22.1738   45.3987 H   0  0  0  0  0  0  0  0  0  0  0  0
   57.8517   21.6292   43.0120 H   0  0  0  0  0  0  0  0  0  0  0  0
   55.8852   22.6132   41.8412 H   0  0  0  0  0  0  0  0  0  0  0  0
   54.3446   24.1398   43.0569 H   0  0  0  0  0  0  0  0  0  0  0  0
   59.2255   27.2349   48.4583 H   0  0  0  0  0  0  0  0  0  0  0  0
   59.1956   29.5305   47.4867 H   0  0  0  0  0  0  0  0  0  0  0  0
  1  2  1  0
  2  3  1  0
  3  4  2  0
  4  5  1  0
  5  6  2  0
  6  7  1  0
  7  8  2  0
  8  9  1  0
  9 10  1  0
 10 11  1  0
 11 12  2  0
 11 13  1  0
 13 14  2  0
 14 15  1  0
 15 16  2  0
 16 17  1  0
 17 18  1  0
 18 19  2  0
 18 20  2  0
 18 21  1  0
 21 22  2  0
 22 23  1  0
 23 24  2  0
 24 25  1  0
 25 26  2  0
 26 27  1  0
 27 28  2  0
 27 29  1  0
 16 30  1  0
 30 31  2  0
  8  3  1  0
 31 13  1  0
 26 21  1  0
  1 32  1  0
  1 33  1  0
  1 34  1  0
  4 35  1  0
  5 36  1  0
  6 37  1  0
  7 38  1  0
  9 39  1  0
  9 40  1  0
 14 41  1  0
 15 42  1  0
 22 43  1  0
 23 44  1  0
 24 45  1  0
 25 46  1  0
 30 47  1  0
 31 48  1  0
M  CHG  3  10  -1  17  -1  29  -1
M  END
>  <UniqueID>  (32) 
29

>  <SMILES>  (32) 
COc1ccccc1C[N-]C(=O)c1ccc([N-]S(=O)(=O)c2ccccc2C(=O)[O-])cc1

>  <Energy>  (32) 
63.61020219506459

>  <Genealogy>  (32) 
COc1ccccc1C[N-]C(=O)c1ccc([N-]S(=O)(=O)c2ccccc2C(=O)[O-])cc1 (protonated)
COc1ccccc1C[N-]C(=O)c1ccc([N-]S(=O)(=O)c2ccccc2C(=O)[O-])cc1 (3D coordinates assigned)
COc1ccccc1C[N-]C(=O)c1ccc([N-]S(=O)(=O)c2ccccc2C(=O)[O-])cc1 (optimized conformer: 63.61020219506459 kcal/mol)

>  <smiles>  (32) 
COc1ccccc1CNC(=O)c1ccc(NS(=O)(=O)c2ccccc2C(=O)O)cc1

>  <score_type>  (32) 
oracle

>  <origin>  (32) 
adg

>  <m_score__min__energy>  (32) 
-14.01

>  <m_primary>  (32) 
energy

$$$$
32:0
     RDKit          3D

 59 62  0  0  0  0  0  0  0  0999 V2000
   58.8570   24.9070   46.2060 O   0  0  0  0  0  0  0  0  0  0  0  0
   58.0620   25.8850   46.1500 C   0  0  0  0  0  0  0  0  0  0  0  0
   56.7100   25.7260   46.6120 N   0  0  0  0  0  0  0  0  0  0  0  0
   56.1310   24.4120   46.8830 C   0  0  0  0  0  0  0  0  0  0  0  0
   56.3080   23.5120   45.6910 C   0  0  0  0  0  0  0  0  0  0  0  0
   55.8680   23.9310   44.4230 C   0  0  0  0  0  0  0  0  0  0  0  0
   56.0560   23.1100   43.3060 C   0  0  0  0  0  0  0  0  0  0  0  0
   56.6900   21.8720   43.4450 C   0  0  0  0  0  0  0  0  0  0  0  0
   56.8730   21.0790   42.3600 F   0  0  0  0  0  0  0  0  0  0  0  0
   57.1360   21.4520   44.7020 C   0  0  0  0  0  0  0  0  0  0  0  0
   56.9490   22.2690   45.8210 C   0  0  0  0  0  0  0  0  0  0  0  0
   58.5420   27.1830   45.6190 C   0  0  0  0  0  0  0  0  0  0  0  0
   59.9160   27.4800   45.5590 C   0  0  0  0  0  0  0  0  0  0  0  0
   60.3520   28.7150   45.0730 C   0  0  0  0  0  0  0  0  0  0  0  0
   59.4260   29.6740   44.6570 C   0  0  0  0  0  0  0  0  0  0  0  0
   58.0540   29.4030   44.7290 C   0  0  0  0  0  0  0  0  0  0  0  0
   56.8800   30.6310   44.2460 S   0  0  0  0  0  0  0  0  0  0  0  0
   55.4920   30.1230   44.5200 O   0  0  0  0  0  0  0  0  0  0  0  0
   57.0010   30.8780   42.7670 O   0  0  0  0  0  0  0  0  0  0  0  0
   57.1280   32.1310   45.1090 N   0  0  0  0  0  0  0  0  0  0  0  0
   57.8700   31.9200   46.3750 C   0  0  0  0  0  0  0  0  0  0  0  0
   59.3530   32.3190   46.2680 C   0  0  0  0  0  0  0  0  0  0  0  0
   59.5220   33.7230   45.8240 N   0  0  0  0  0  0  0  0  0  0  0  0
   60.0170   34.6490   46.8670 C   0  0  0  0  0  0  0  0  0  0  0  0
   61.3080   34.2010   47.5240 C   0  0  0  0  0  0  0  0  0  0  0  0
   62.4130   33.8140   46.7450 C   0  0  0  0  0  0  0  0  0  0  0  0
   63.6010   33.4030   47.3580 C   0  0  0  0  0  0  0  0  0  0  0  0
   63.7030   33.3910   48.7510 C   0  0  0  0  0  0  0  0  0  0  0  0
   62.6200   33.7980   49.5340 C   0  0  0  0  0  0  0  0  0  0  0  0
   61.4300   34.2080   48.9250 C   0  0  0  0  0  0  0  0  0  0  0  0
   58.3940   34.2610   45.0320 C   0  0  0  0  0  0  0  0  0  0  0  0
   57.7260   33.1490   44.2190 C   0  0  0  0  0  0  0  0  0  0  0  0
   57.6170   28.1580   45.2030 C   0  0  0  0  0  0  0  0  0  0  0  0
   56.1210   26.5680   46.7990 H   0  0  0  0  0  0  0  0  0  0  0  0
   56.6339   23.9656   47.7535 H   0  0  0  0  0  0  0  0  0  0  0  0
   55.0568   24.5281   47.0894 H   0  0  0  0  0  0  0  0  0  0  0  0
   55.3744   24.9074   44.3089 H   0  0  0  0  0  0  0  0  0  0  0  0
   55.7044   23.4391   42.3170 H   0  0  0  0  0  0  0  0  0  0  0  0
   57.6346   20.4775   44.8105 H   0  0  0  0  0  0  0  0  0  0  0  0
   57.3053   21.9370   46.8073 H   0  0  0  0  0  0  0  0  0  0  0  0
   60.6515   26.7351   45.8969 H   0  0  0  0  0  0  0  0  0  0  0  0
   61.4288   28.9329   45.0178 H   0  0  0  0  0  0  0  0  0  0  0  0
   59.7748   30.6437   44.2722 H   0  0  0  0  0  0  0  0  0  0  0  0
   57.3989   32.5247   47.1640 H   0  0  0  0  0  0  0  0  0  0  0  0
   57.8309   30.8457   46.6079 H   0  0  0  0  0  0  0  0  0  0  0  0
   59.8244   32.1998   47.2547 H   0  0  0  0  0  0  0  0  0  0  0  0
   59.8259   31.6674   45.5184 H   0  0  0  0  0  0  0  0  0  0  0  0
   60.1869   35.6325   46.4046 H   0  0  0  0  0  0  0  0  0  0  0  0
   59.2512   34.6798   47.6561 H   0  0  0  0  0  0  0  0  0  0  0  0
   62.3426   33.8347   45.6475 H   0  0  0  0  0  0  0  0  0  0  0  0
   64.4565   33.0887   46.7421 H   0  0  0  0  0  0  0  0  0  0  0  0
   64.6359   33.0611   49.2314 H   0  0  0  0  0  0  0  0  0  0  0  0
   62.7035   33.7959   50.6308 H   0  0  0  0  0  0  0  0  0  0  0  0
   60.5839   34.5381   49.5456 H   0  0  0  0  0  0  0  0  0  0  0  0
   57.6534   34.7050   45.7135 H   0  0  0  0  0  0  0  0  0  0  0  0
   58.7797   35.0234   44.3391 H   0  0  0  0  0  0  0  0  0  0  0  0
   56.9362   33.5869   43.5909 H   0  0  0  0  0  0  0  0  0  0  0  0
   58.4897   32.6638   43.5934 H   0  0  0  0  0  0  0  0  0  0  0  0
   56.5396   27.9412   45.2501 H   0  0  0  0  0  0  0  0  0  0  0  0
  1  2  2  0
  2  3  1  0
  3  4  1  0
  4  5  1  0
  5  6  2  0
  6  7  1  0
  7  8  2  0
  8  9  1  0
  8 10  1  0
 10 11  2  0
  2 12  1  0
 12 13  2  0
 13 14  1  0
 14 15  2  0
 15 16  1  0
 16 17  1  0
 17 18  2  0
 17 19  2  0
 17 20  1  0
 20 21  1  0
 21 22  1  0
 22 23  1  0
 23 24  1  0
 24 25  1  0
 25 26  2  0
 26 27  1  0
 27 28  2  0
 28 29  1  0
 29 30  2  0
 23 31  1  0
 31 32  1  0
 16 33  2  0
 11  5  1  0
 33 12  1  0
 32 20  1  0
 30 25  1  0
  3 34  1  0
  4 35  1  0
  4 36  1  0
  6 37  1  0
  7 38  1  0
 10 39  1  0
 11 40  1  0
 13 41  1  0
 14 42  1  0
 15 43  1  0
 21 44  1  0
 21 45  1  0
 22 46  1  0
 22 47  1  0
 24 48  1  0
 24 49  1  0
 26 50  1  0
 27 51  1  0
 28 52  1  0
 29 53  1  0
 30 54  1  0
 31 55  1  0
 31 56  1  0
 32 57  1  0
 32 58  1  0
 33 59  1  0
M  END
>  <UniqueID>  (33) 
30

>  <SMILES>  (33) 
O=C(NCc1ccc(F)cc1)c1cccc(S(=O)(=O)N2CCN(Cc3ccccc3)CC2)c1

>  <Energy>  (33) 
75.07207288395013

>  <Genealogy>  (33) 
O=C(NCc1ccc(F)cc1)c1cccc(S(=O)(=O)N2CCN(Cc3ccccc3)CC2)c1 (3D coordinates assigned)
O=C(NCc1ccc(F)cc1)c1cccc(S(=O)(=O)N2CCN(Cc3ccccc3)CC2)c1 (nonaromatic ring conformer: 75.07207288395013 kcal/mol)

>  <smiles>  (33) 
O=C(NCc1ccc(F)cc1)c1cccc(S(=O)(=O)N2CCN(Cc3ccccc3)CC2)c1

>  <score_type>  (33) 
oracle

>  <origin>  (33) 
adg

>  <m_score__min__energy>  (33) 
-10.69

>  <m_primary>  (33) 
energy

$$$$
33:0
     RDKit          3D

 57 61  0  0  0  0  0  0  0  0999 V2000
   59.7790   33.0490   49.0260 O   0  0  0  0  0  0  0  0  0  0  0  0
   60.1810   33.1330   47.8330 C   0  0  0  0  0  0  0  0  0  0  0  0
   61.5930   33.2120   47.5570 N   0  0  0  0  0  0  0  0  0  0  0  0
   62.5960   33.3830   48.5710 C   0  0  0  0  0  0  0  0  0  0  0  0
   63.7560   32.5900   48.5990 C   0  0  0  0  0  0  0  0  0  0  0  0
   64.6970   32.7490   49.6210 C   0  0  0  0  0  0  0  0  0  0  0  0
   64.4810   33.6780   50.6470 C   0  0  0  0  0  0  0  0  0  0  0  0
   65.4690   33.8320   51.6810 N   0  0  0  0  0  0  0  0  0  0  0  0
   66.8030   34.3250   51.4640 C   0  0  0  0  0  0  0  0  0  0  0  0
   67.1640   35.5830   51.9720 C   0  0  0  0  0  0  0  0  0  0  0  0
   68.4460   36.0940   51.7480 C   0  0  0  0  0  0  0  0  0  0  0  0
   69.3720   35.3610   51.0020 C   0  0  0  0  0  0  0  0  0  0  0  0
   69.0140   34.1180   50.4720 C   0  0  0  0  0  0  0  0  0  0  0  0
   67.7330   33.6040   50.6940 C   0  0  0  0  0  0  0  0  0  0  0  0
   63.3250   34.4770   50.6160 C   0  0  0  0  0  0  0  0  0  0  0  0
   62.3850   34.3180   49.5960 C   0  0  0  0  0  0  0  0  0  0  0  0
   59.1760   33.1480   46.7390 C   0  0  0  0  0  0  0  0  0  0  0  0
   58.6330   34.3730   46.3110 C   0  0  0  0  0  0  0  0  0  0  0  0
   57.6840   34.4100   45.2870 C   0  0  0  0  0  0  0  0  0  0  0  0
   57.2600   33.2270   44.6800 C   0  0  0  0  0  0  0  0  0  0  0  0
   57.7860   31.9970   45.0940 C   0  0  0  0  0  0  0  0  0  0  0  0
   57.2290   30.4990   44.3530 S   0  0  0  0  0  0  0  0  0  0  0  0
   57.1870   30.6700   42.8600 O   0  0  0  0  0  0  0  0  0  0  0  0
   55.8480   30.1780   44.8500 O   0  0  0  0  0  0  0  0  0  0  0  0
   58.3090   29.2060   44.7600 N   0  0  0  0  0  0  0  0  0  0  0  0
   59.7590   29.2420   44.5870 C   0  0  0  0  0  0  0  0  0  0  0  0
   60.2750   27.8680   45.0820 C   0  0  0  0  0  0  0  0  0  0  0  0
   59.0340   27.1680   45.5220 C   0  0  0  0  0  0  0  0  0  0  0  0
   58.9130   25.8930   46.0750 C   0  0  0  0  0  0  0  0  0  0  0  0
   57.6310   25.4310   46.4210 C   0  0  0  0  0  0  0  0  0  0  0  0
   56.5030   26.2460   46.2090 C   0  0  0  0  0  0  0  0  0  0  0  0
   56.6510   27.5280   45.6500 C   0  0  0  0  0  0  0  0  0  0  0  0
   57.9380   27.9600   45.3170 C   0  0  0  0  0  0  0  0  0  0  0  0
   58.7300   31.9580   46.1300 C   0  0  0  0  0  0  0  0  0  0  0  0
   61.9310   33.1010   46.5770 H   0  0  0  0  0  0  0  0  0  0  0  0
   63.9246   31.8399   47.8123 H   0  0  0  0  0  0  0  0  0  0  0  0
   65.6133   32.1403   49.6193 H   0  0  0  0  0  0  0  0  0  0  0  0
   65.1940   33.5790   52.6580 H   0  0  0  0  0  0  0  0  0  0  0  0
   66.4344   36.1698   52.5493 H   0  0  0  0  0  0  0  0  0  0  0  0
   68.7259   37.0748   52.1599 H   0  0  0  0  0  0  0  0  0  0  0  0
   70.3822   35.7616   50.8317 H   0  0  0  0  0  0  0  0  0  0  0  0
   69.7412   33.5435   49.8794 H   0  0  0  0  0  0  0  0  0  0  0  0
   67.4513   32.6313   50.2645 H   0  0  0  0  0  0  0  0  0  0  0  0
   63.1601   35.2314   51.3994 H   0  0  0  0  0  0  0  0  0  0  0  0
   61.4714   34.9307   49.5958 H   0  0  0  0  0  0  0  0  0  0  0  0
   58.9586   35.3098   46.7869 H   0  0  0  0  0  0  0  0  0  0  0  0
   57.2695   35.3743   44.9580 H   0  0  0  0  0  0  0  0  0  0  0  0
   56.5112   33.2608   43.8749 H   0  0  0  0  0  0  0  0  0  0  0  0
   60.0152   29.3887   43.5274 H   0  0  0  0  0  0  0  0  0  0  0  0
   60.2140   30.0721   45.1473 H   0  0  0  0  0  0  0  0  0  0  0  0
   60.7695   27.3173   44.2682 H   0  0  0  0  0  0  0  0  0  0  0  0
   61.0246   27.9549   45.8824 H   0  0  0  0  0  0  0  0  0  0  0  0
   59.8004   25.2634   46.2367 H   0  0  0  0  0  0  0  0  0  0  0  0
   57.5090   24.4293   46.8588 H   0  0  0  0  0  0  0  0  0  0  0  0
   55.5025   25.8789   46.4815 H   0  0  0  0  0  0  0  0  0  0  0  0
   55.7770   28.1737   45.4793 H   0  0  0  0  0  0  0  0  0  0  0  0
   59.1260   30.9899   46.4704 H   0  0  0  0  0  0  0  0  0  0  0  0
  1  2  2  0
  2  3  1  0
  3  4  1  0
  4  5  2  0
  5  6  1  0
  6  7  2  0
  7  8  1  0
  8  9  1  0
  9 10  2  0
 10 11  1  0
 11 12  2  0
 12 13  1  0
 13 14  2  0
  7 15  1  0
 15 16  2  0
  2 17  1  0
 17 18  2  0
 18 19  1  0
 19 20  2  0
 20 21  1  0
 21 22  1  0
 22 23  2  0
 22 24  2  0
 22 25  1  0
 25 26  1  0
 26 27  1  0
 27 28  1  0
 28 29  2  0
 29 30  1  0
 30 31  2  0
 31 32  1  0
 32 33  2  0
 21 34  2  0
 16  4  1  0
 34 17  1  0
 14  9  1  0
 33 25  1  0
 33 28  1  0
  3 35  1  0
  5 36  1  0
  6 37  1  0
  8 38  1  0
 10 39  1  0
 11 40  1  0
 12 41  1  0
 13 42  1  0
 14 43  1  0
 15 44  1  0
 16 45  1  0
 18 46  1  0
 19 47  1  0
 20 48  1  0
 26 49  1  0
 26 50  1  0
 27 51  1  0
 27 52  1  0
 29 53  1  0
 30 54  1  0
 31 55  1  0
 32 56  1  0
 34 57  1  0
M  END
>  <UniqueID>  (34) 
31

>  <SMILES>  (34) 
O=C(Nc1ccc(Nc2ccccc2)cc1)c1cccc(S(=O)(=O)N2CCc3ccccc32)c1

>  <Energy>  (34) 
91.62350456180243

>  <Genealogy>  (34) 
O=C(Nc1ccc(Nc2ccccc2)cc1)c1cccc(S(=O)(=O)N2CCc3ccccc32)c1 (3D coordinates assigned)
O=C(Nc1ccc(Nc2ccccc2)cc1)c1cccc(S(=O)(=O)N2CCc3ccccc32)c1 (nonaromatic ring conformer: 91.62350456180243 kcal/mol)

>  <smiles>  (34) 
O=C(Nc1ccc(Nc2ccccc2)cc1)c1cccc(S(=O)(=O)N2CCc3ccccc32)c1

>  <score_type>  (34) 
oracle

>  <origin>  (34) 
adg

>  <m_score__min__energy>  (34) 
-10.25

>  <m_primary>  (34) 
energy

$$$$
34:0
     RDKit          3D

 49 51  0  0  0  0  0  0  0  0999 V2000
   59.7440   35.7180   46.0830 C   0  0  0  0  0  0  0  0  0  0  0  0
   58.9010   34.5180   45.7670 C   0  0  0  0  0  0  0  0  0  0  0  0
   58.1690   33.8820   46.7790 C   0  0  0  0  0  0  0  0  0  0  0  0
   57.4000   32.7500   46.4890 C   0  0  0  0  0  0  0  0  0  0  0  0
   57.3520   32.2370   45.1780 C   0  0  0  0  0  0  0  0  0  0  0  0
   56.5360   31.1110   44.8120 N   0  0  0  0  0  0  0  0  0  0  0  0
   56.6440   29.7380   45.2160 C   0  0  0  0  0  0  0  0  0  0  0  0
   55.6420   28.9760   45.2110 O   0  0  0  0  0  0  0  0  0  0  0  0
   58.0130   29.1890   45.5410 C   0  0  2  0  0  0  0  0  0  0  0  0
   58.8920   30.2240   46.1200 N   0  0  0  0  0  0  0  0  0  0  0  0
   59.5300   29.8660   47.7080 S   0  0  0  0  0  0  0  0  0  0  0  0
   60.7400   28.9810   47.6110 O   0  0  0  0  0  0  0  0  0  0  0  0
   58.4790   29.1320   48.4900 O   0  0  0  0  0  0  0  0  0  0  0  0
   59.8880   31.3790   48.5610 C   0  0  0  0  0  0  0  0  0  0  0  0
   58.9450   31.8510   49.4860 C   0  0  0  0  0  0  0  0  0  0  0  0
   59.1530   33.0480   50.1760 C   0  0  0  0  0  0  0  0  0  0  0  0
   60.3050   33.8000   49.9450 C   0  0  0  0  0  0  0  0  0  0  0  0
   61.2580   33.3550   49.0190 C   0  0  0  0  0  0  0  0  0  0  0  0
   62.4050   34.1110   48.7510 C   0  0  0  0  0  0  0  0  0  0  0  0
   63.3320   33.6580   47.8100 C   0  0  0  0  0  0  0  0  0  0  0  0
   63.1080   32.4480   47.1550 C   0  0  0  0  0  0  0  0  0  0  0  0
   61.9930   31.7200   47.4290 N   0  0  0  0  0  0  0  0  0  0  0  0
   61.0590   32.1350   48.3280 C   0  0  0  0  0  0  0  0  0  0  0  0
   58.6840   28.4200   44.3630 C   0  0  0  0  0  0  0  0  0  0  0  0
   60.2120   28.3690   44.5220 C   0  0  0  0  0  0  0  0  0  0  0  0
   58.1360   26.9850   44.2630 C   0  0  0  0  0  0  0  0  0  0  0  0
   58.1280   32.8510   44.1790 C   0  0  0  0  0  0  0  0  0  0  0  0
   58.1300   32.2310   42.5360 Cl  0  0  0  0  0  0  0  0  0  0  0  0
   58.8980   33.9810   44.4740 C   0  0  0  0  0  0  0  0  0  0  0  0
   59.8245   35.8325   47.1741 H   0  0  0  0  0  0  0  0  0  0  0  0
   60.7478   35.5844   45.6533 H   0  0  0  0  0  0  0  0  0  0  0  0
   59.2779   36.6170   45.6533 H   0  0  0  0  0  0  0  0  0  0  0  0
   58.1993   34.2748   47.8060 H   0  0  0  0  0  0  0  0  0  0  0  0
   56.8291   32.2573   47.2899 H   0  0  0  0  0  0  0  0  0  0  0  0
   57.8530   28.4245   46.3156 H   0  0  0  0  0  0  0  0  0  0  0  0
   58.0290   31.2707   49.6707 H   0  0  0  0  0  0  0  0  0  0  0  0
   58.4061   33.3985   50.9036 H   0  0  0  0  0  0  0  0  0  0  0  0
   60.4653   34.7422   50.4897 H   0  0  0  0  0  0  0  0  0  0  0  0
   62.5759   35.0599   49.2805 H   0  0  0  0  0  0  0  0  0  0  0  0
   64.2314   34.2510   47.5875 H   0  0  0  0  0  0  0  0  0  0  0  0
   63.8348   32.0816   46.4151 H   0  0  0  0  0  0  0  0  0  0  0  0
   58.4429   28.9683   43.4404 H   0  0  0  0  0  0  0  0  0  0  0  0
   60.4693   28.3604   45.5915 H   0  0  0  0  0  0  0  0  0  0  0  0
   60.6001   27.4574   44.0442 H   0  0  0  0  0  0  0  0  0  0  0  0
   60.6601   29.2527   44.0442 H   0  0  0  0  0  0  0  0  0  0  0  0
   57.9814   26.5802   45.2741 H   0  0  0  0  0  0  0  0  0  0  0  0
   57.1784   26.9951   43.7217 H   0  0  0  0  0  0  0  0  0  0  0  0
   58.8565   26.3542   43.7217 H   0  0  0  0  0  0  0  0  0  0  0  0
   59.5046   34.4504   43.6855 H   0  0  0  0  0  0  0  0  0  0  0  0
  1  2  1  0
  2  3  2  0
  3  4  1  0
  4  5  2  0
  5  6  1  0
  6  7  1  0
  7  8  2  0
  7  9  1  0
  9 10  1  0
 10 11  1  0
 11 12  2  0
 11 13  2  0
 11 14  1  0
 14 15  2  0
 15 16  1  0
 16 17  2  0
 17 18  1  0
 18 19  2  0
 19 20  1  0
 20 21  2  0
 21 22  1  0
 22 23  2  0
  9 24  1  0
 24 25  1  0
 24 26  1  0
  5 27  1  0
 27 28  1  0
 27 29  2  0
 29  2  1  0
 23 14  1  0
 23 18  1  0
  1 30  1  0
  1 31  1  0
  1 32  1  0
  3 33  1  0
  4 34  1  0
  9 35  1  1
 15 36  1  0
 16 37  1  0
 17 38  1  0
 19 39  1  0
 20 40  1  0
 21 41  1  0
 24 42  1  0
 25 43  1  0
 25 44  1  0
 25 45  1  0
 26 46  1  0
 26 47  1  0
 26 48  1  0
 29 49  1  0
M  CHG  2   6  -1  10  -1
M  END
>  <UniqueID>  (35) 
32

>  <SMILES>  (35) 
Cc1ccc([N-]C(=O)[C@H]([N-]S(=O)(=O)c2cccc3cccnc23)C(C)C)c(Cl)c1

>  <Energy>  (35) 
54.06151066551626

>  <Genealogy>  (35) 
Cc1ccc([N-]C(=O)C([N-]S(=O)(=O)c2cccc3cccnc23)C(C)C)c(Cl)c1 (protonated)
Cc1ccc([N-]C(=O)[C@H]([N-]S(=O)(=O)c2cccc3cccnc23)C(C)C)c(Cl)c1 (chirality)
Cc1ccc([N-]C(=O)[C@H]([N-]S(=O)(=O)c2cccc3cccnc23)C(C)C)c(Cl)c1 (3D coordinates assigned)
Cc1ccc([N-]C(=O)[C@H]([N-]S(=O)(=O)c2cccc3cccnc23)C(C)C)c(Cl)c1 (optimized conformer: 54.06151066551626 kcal/mol)

>  <smiles>  (35) 
Cc1ccc(NC(=O)C(NS(=O)(=O)c2cccc3cccnc23)C(C)C)c(Cl)c1

>  <score_type>  (35) 
oracle

>  <origin>  (35) 
adg

>  <m_score__min__energy>  (35) 
-13.09

>  <m_primary>  (35) 
energy

$$$$
35:0
     RDKit          3D

 25 26  0  0  0  0  0  0  0  0999 V2000
   54.6680   26.3160   45.7390 O   0  0  0  0  0  0  0  0  0  0  0  0
   56.0070   26.6210   45.9600 C   0  0  0  0  0  0  0  0  0  0  0  0
   56.8550   25.6460   46.4730 C   0  0  0  0  0  0  0  0  0  0  0  0
   58.2060   25.9210   46.6590 C   0  0  0  0  0  0  0  0  0  0  0  0
   58.7350   27.1890   46.3650 C   0  0  0  0  0  0  0  0  0  0  0  0
   57.8530   28.2190   45.9210 C   0  0  0  0  0  0  0  0  0  0  0  0
   56.4940   27.8970   45.6540 C   0  0  0  0  0  0  0  0  0  0  0  0
   55.6020   28.8020   45.0680 O   0  0  0  0  0  0  0  0  0  0  0  0
   58.3720   29.6270   45.7310 C   0  0  0  0  0  0  0  0  0  0  0  0
   59.4810   29.6660   44.6710 C   0  0  0  0  0  0  0  0  0  0  0  0
   60.8590   29.3480   45.2710 C   0  0  0  0  0  0  0  0  0  0  0  0
   61.0050   27.8950   45.4310 N   0  0  0  0  0  0  0  0  0  0  0  0
   60.2420   27.3540   46.5730 C   0  0  0  0  0  0  0  0  0  0  0  0
   56.4565   24.6541   46.7326 H   0  0  0  0  0  0  0  0  0  0  0  0
   58.8708   25.1330   47.0424 H   0  0  0  0  0  0  0  0  0  0  0  0
   54.7820   28.5310   44.5450 H   0  0  0  0  0  0  0  0  0  0  0  0
   57.5437   30.2753   45.4090 H   0  0  0  0  0  0  0  0  0  0  0  0
   58.7880   29.9791   46.6865 H   0  0  0  0  0  0  0  0  0  0  0  0
   59.2533   28.9248   43.8908 H   0  0  0  0  0  0  0  0  0  0  0  0
   59.5177   30.6830   44.2535 H   0  0  0  0  0  0  0  0  0  0  0  0
   61.6456   29.7230   44.5997 H   0  0  0  0  0  0  0  0  0  0  0  0
   60.9499   29.8340   46.2536 H   0  0  0  0  0  0  0  0  0  0  0  0
   60.6520   27.4270   44.5630 H   0  0  0  0  0  0  0  0  0  0  0  0
   60.6572   26.3644   46.8147 H   0  0  0  0  0  0  0  0  0  0  0  0
   60.3472   28.0993   47.3752 H   0  0  0  0  0  0  0  0  0  0  0  0
  1  2  1  0
  2  3  2  0
  3  4  1  0
  4  5  2  0
  5  6  1  0
  6  7  2  0
  7  8  1  0
  6  9  1  0
  9 10  1  0
 10 11  1  0
 11 12  1  0
 12 13  1  0
  7  2  1  0
 13  5  1  0
  3 14  1  0
  4 15  1  0
  8 16  1  0
  9 17  1  0
  9 18  1  0
 10 19  1  0
 10 20  1  0
 11 21  1  0
 11 22  1  0
 12 23  1  0
 13 24  1  0
 13 25  1  0
M  CHG  1   1  -1
M  END
>  <UniqueID>  (36) 
33

>  <SMILES>  (36) 
[O-]c1ccc2c(c1O)CCCNC2

>  <Energy>  (36) 
38.473615606376995

>  <Genealogy>  (36) 
[O-]c1ccc2c(c1O)CCCNC2 (protonated)
[O-]c1ccc2c(c1O)CCCNC2 (3D coordinates assigned)
[O-]c1ccc2c(c1O)CCCNC2 (nonaromatic ring conformer: 38.473615606376995 kcal/mol)

>  <smiles>  (36) 
Oc1ccc2c(c1O)CCCNC2

>  <score_type>  (36) 
oracle

>  <origin>  (36) 
adg

>  <m_score__min__energy>  (36) 
-7.8799999999999999

>  <m_primary>  (36) 
energy

$$$$
36:0
     RDKit          3D

 21 21  0  0  0  0  0  0  0  0999 V2000
   57.0090   28.8380   42.9860 O   0  0  0  0  0  0  0  0  0  0  0  0
   57.1030   29.1810   44.4450 S   0  0  0  0  0  0  0  0  0  0  0  0
   55.9060   30.0080   44.8280 O   0  0  0  0  0  0  0  0  0  0  0  0
   58.5990   30.1240   44.7170 C   0  0  0  0  0  0  0  0  0  0  0  0
   58.2890   31.5520   45.0940 C   0  0  0  0  0  0  0  0  0  0  0  0
   58.3830   31.9310   46.4450 C   0  0  0  0  0  0  0  0  0  0  0  0
   58.1250   33.2480   46.8340 C   0  0  0  0  0  0  0  0  0  0  0  0
   57.7710   34.2020   45.8800 C   0  0  0  0  0  0  0  0  0  0  0  0
   57.6720   33.8420   44.5350 C   0  0  0  0  0  0  0  0  0  0  0  0
   57.9290   32.5250   44.1320 C   0  0  0  0  0  0  0  0  0  0  0  0
   57.7790   32.1450   42.4190 Cl  0  0  0  0  0  0  0  0  0  0  0  0
   57.0960   27.6710   45.3920 C   0  0  0  0  0  0  0  0  0  0  0  0
   55.7940   27.2710   45.6200 F   0  0  0  0  0  0  0  0  0  0  0  0
   57.7230   27.8870   46.6040 F   0  0  0  0  0  0  0  0  0  0  0  0
   57.7700   26.6810   44.7030 F   0  0  0  0  0  0  0  0  0  0  0  0
   59.1742   29.6561   45.5296 H   0  0  0  0  0  0  0  0  0  0  0  0
   59.1786   30.1308   43.7821 H   0  0  0  0  0  0  0  0  0  0  0  0
   58.6622   31.1838   47.2025 H   0  0  0  0  0  0  0  0  0  0  0  0
   58.2011   33.5328   47.8938 H   0  0  0  0  0  0  0  0  0  0  0  0
   57.5697   35.2387   46.1878 H   0  0  0  0  0  0  0  0  0  0  0  0
   57.3903   34.5973   43.7865 H   0  0  0  0  0  0  0  0  0  0  0  0
  1  2  2  0
  2  3  2  0
  2  4  1  0
  4  5  1  0
  5  6  2  0
  6  7  1  0
  7  8  2  0
  8  9  1  0
  9 10  2  0
 10 11  1  0
  2 12  1  0
 12 13  1  0
 12 14  1  0
 12 15  1  0
 10  5  1  0
  4 16  1  0
  4 17  1  0
  6 18  1  0
  7 19  1  0
  8 20  1  0
  9 21  1  0
M  END
>  <UniqueID>  (37) 
34

>  <SMILES>  (37) 
O=S(=O)(Cc1ccccc1Cl)C(F)(F)F

>  <Energy>  (37) 
12.971113739645762

>  <Genealogy>  (37) 
O=S(=O)(Cc1ccccc1Cl)C(F)(F)F (3D coordinates assigned)
O=S(=O)(Cc1ccccc1Cl)C(F)(F)F (optimized conformer: 12.971113739645762 kcal/mol)

>  <smiles>  (37) 
O=S(=O)(Cc1ccccc1Cl)C(F)(F)F

>  <score_type>  (37) 
oracle

>  <origin>  (37) 
adg

>  <m_score__min__energy>  (37) 
-5.6799999999999997

>  <m_primary>  (37) 
energy

$$$$
37:0
     RDKit          3D

 40 41  0  0  0  0  0  0  0  0999 V2000
   57.7620   25.8350   44.5700 C   0  0  0  0  0  0  0  0  0  0  0  0
   56.7440   26.3560   45.9350 S   0  0  0  0  0  0  0  0  0  0  0  0
   57.6280   26.6330   47.1170 O   0  0  0  0  0  0  0  0  0  0  0  0
   55.7690   25.2740   46.3040 O   0  0  0  0  0  0  0  0  0  0  0  0
   55.8910   27.8090   45.5240 N   0  0  0  0  0  0  0  0  0  0  0  0
   56.4800   29.0120   45.0130 C   0  0  0  0  0  0  0  0  0  0  0  0
   55.9510   29.5700   43.8420 C   0  0  0  0  0  0  0  0  0  0  0  0
   56.4900   30.7430   43.3080 C   0  0  0  0  0  0  0  0  0  0  0  0
   57.5740   31.3750   43.9370 C   0  0  0  0  0  0  0  0  0  0  0  0
   58.1330   32.6510   43.3700 C   0  0  0  0  0  0  0  0  0  0  0  0
   58.8410   33.3970   44.4080 N   0  0  0  0  0  0  0  0  0  0  0  0
   58.1530   34.0280   45.5020 C   0  0  0  0  0  0  0  0  0  0  0  0
   56.9020   33.9260   45.6000 O   0  0  0  0  0  0  0  0  0  0  0  0
   58.8610   34.7740   46.4970 N   0  0  0  0  0  0  0  0  0  0  0  0
   60.2520   34.2000   47.3570 S   0  0  0  0  0  0  0  0  0  0  0  0
   60.3560   34.9280   48.6660 O   0  0  0  0  0  0  0  0  0  0  0  0
   61.4830   34.4830   46.5400 O   0  0  0  0  0  0  0  0  0  0  0  0
   60.0980   32.4750   47.6730 C   0  0  0  0  0  0  0  0  0  0  0  0
   59.0220   31.9950   48.4310 C   0  0  0  0  0  0  0  0  0  0  0  0
   58.8910   30.6240   48.6760 C   0  0  0  0  0  0  0  0  0  0  0  0
   59.8370   29.7290   48.1680 C   0  0  0  0  0  0  0  0  0  0  0  0
   60.9170   30.2040   47.4170 C   0  0  0  0  0  0  0  0  0  0  0  0
   61.0490   31.5740   47.1700 C   0  0  0  0  0  0  0  0  0  0  0  0
   58.1050   30.8200   45.1110 C   0  0  0  0  0  0  0  0  0  0  0  0
   57.5650   29.6460   45.6450 C   0  0  0  0  0  0  0  0  0  0  0  0
   58.6793   25.3655   44.9550 H   0  0  0  0  0  0  0  0  0  0  0  0
   57.2086   25.1093   43.9559 H   0  0  0  0  0  0  0  0  0  0  0  0
   58.0270   26.7083   43.9559 H   0  0  0  0  0  0  0  0  0  0  0  0
   55.1042   29.0805   43.3388 H   0  0  0  0  0  0  0  0  0  0  0  0
   56.0629   31.1734   42.3902 H   0  0  0  0  0  0  0  0  0  0  0  0
   58.8313   32.4110   42.5547 H   0  0  0  0  0  0  0  0  0  0  0  0
   57.3056   33.2663   42.9870 H   0  0  0  0  0  0  0  0  0  0  0  0
   59.8780   33.4630   44.3290 H   0  0  0  0  0  0  0  0  0  0  0  0
   58.2783   32.6980   48.8345 H   0  0  0  0  0  0  0  0  0  0  0  0
   58.0431   30.2500   49.2687 H   0  0  0  0  0  0  0  0  0  0  0  0
   59.7320   28.6508   48.3590 H   0  0  0  0  0  0  0  0  0  0  0  0
   61.6630   29.4995   47.0204 H   0  0  0  0  0  0  0  0  0  0  0  0
   61.8998   31.9461   46.5804 H   0  0  0  0  0  0  0  0  0  0  0  0
   58.9509   31.3112   45.6142 H   0  0  0  0  0  0  0  0  0  0  0  0
   57.9907   29.2162   46.5637 H   0  0  0  0  0  0  0  0  0  0  0  0
  1  2  1  0
  2  3  2  0
  2  4  2  0
  2  5  1  0
  5  6  1  0
  6  7  2  0
  7  8  1  0
  8  9  2  0
  9 10  1  0
 10 11  1  0
 11 12  1  0
 12 13  2  0
 12 14  1  0
 14 15  1  0
 15 16  2  0
 15 17  2  0
 15 18  1  0
 18 19  2  0
 19 20  1  0
 20 21  2  0
 21 22  1  0
 22 23  2  0
  9 24  1  0
 24 25  2  0
 25  6  1  0
 23 18  1  0
  1 26  1  0
  1 27  1  0
  1 28  1  0
  7 29  1  0
  8 30  1  0
 10 31  1  0
 10 32  1  0
 11 33  1  0
 19 34  1  0
 20 35  1  0
 21 36  1  0
 22 37  1  0
 23 38  1  0
 24 39  1  0
 25 40  1  0
M  CHG  2   5  -1  14  -1
M  END
>  <UniqueID>  (38) 
35

>  <SMILES>  (38) 
CS(=O)(=O)[N-]c1ccc(CNC(=O)[N-]S(=O)(=O)c2ccccc2)cc1

>  <Energy>  (38) 
38.776302567113504

>  <Genealogy>  (38) 
CS(=O)(=O)[N-]c1ccc(CNC(=O)[N-]S(=O)(=O)c2ccccc2)cc1 (protonated)
CS(=O)(=O)[N-]c1ccc(CNC(=O)[N-]S(=O)(=O)c2ccccc2)cc1 (3D coordinates assigned)
CS(=O)(=O)[N-]c1ccc(CNC(=O)[N-]S(=O)(=O)c2ccccc2)cc1 (optimized conformer: 38.776302567113504 kcal/mol)

>  <smiles>  (38) 
CS(=O)(=O)Nc1ccc(CNC(=O)NS(=O)(=O)c2ccccc2)cc1

>  <score_type>  (38) 
oracle

>  <origin>  (38) 
adg

>  <m_score__min__energy>  (38) 
-11.65

>  <m_primary>  (38) 
energy

$$$$
38:0
     RDKit          3D

 45 47  0  0  0  0  0  0  0  0999 V2000
   63.2170   32.5220   47.4530 C   0  0  0  0  0  0  0  0  0  0  0  0
   62.6670   33.8220   47.6210 O   0  0  0  0  0  0  0  0  0  0  0  0
   61.4200   34.0460   48.2170 C   0  0  0  0  0  0  0  0  0  0  0  0
   61.3550   34.2910   49.4540 O   0  0  0  0  0  0  0  0  0  0  0  0
   60.1880   33.9920   47.3900 C   0  0  0  0  0  0  0  0  0  0  0  0
   60.0300   34.9130   46.3370 C   0  0  0  0  0  0  0  0  0  0  0  0
   58.8870   34.8920   45.5340 C   0  0  0  0  0  0  0  0  0  0  0  0
   57.8820   33.9570   45.7730 C   0  0  0  0  0  0  0  0  0  0  0  0
   58.0180   33.0370   46.8120 C   0  0  0  0  0  0  0  0  0  0  0  0
   59.1720   33.0310   47.6170 C   0  0  0  0  0  0  0  0  0  0  0  0
   59.2970   32.1070   48.6670 O   0  0  0  0  0  0  0  0  0  0  0  0
   59.6110   30.7480   48.5210 C   0  0  0  0  0  0  0  0  0  0  0  0
   60.2660   30.0950   49.5700 C   0  0  0  0  0  0  0  0  0  0  0  0
   60.6160   28.7470   49.4540 C   0  0  0  0  0  0  0  0  0  0  0  0
   60.3260   28.0440   48.2820 C   0  0  0  0  0  0  0  0  0  0  0  0
   59.6850   28.6880   47.2080 C   0  0  0  0  0  0  0  0  0  0  0  0
   59.4220   27.9720   45.9820 N   0  0  0  0  0  0  0  0  0  0  0  0
   58.3900   28.6470   45.2240 C   0  0  0  0  0  0  0  0  0  0  0  0
   58.7390   29.7820   44.4640 C   0  0  0  0  0  0  0  0  0  0  0  0
   57.7630   30.5300   43.8030 C   0  0  0  0  0  0  0  0  0  0  0  0
   56.4210   30.1690   43.9000 C   0  0  0  0  0  0  0  0  0  0  0  0
   56.0510   29.0510   44.6470 C   0  0  0  0  0  0  0  0  0  0  0  0
   57.0180   28.2680   45.3020 C   0  0  0  0  0  0  0  0  0  0  0  0
   56.5530   27.0810   46.0450 C   0  0  0  0  0  0  0  0  0  0  0  0
   55.1740   26.7160   46.0100 N   0  0  0  0  0  0  0  0  0  0  0  0
   57.3680   26.3560   46.6750 O   0  0  0  0  0  0  0  0  0  0  0  0
   59.3300   30.0430   47.3370 C   0  0  0  0  0  0  0  0  0  0  0  0
   63.4066   32.0738   48.4395 H   0  0  0  0  0  0  0  0  0  0  0  0
   62.5078   31.8932   46.8948 H   0  0  0  0  0  0  0  0  0  0  0  0
   64.1622   32.5931   46.8948 H   0  0  0  0  0  0  0  0  0  0  0  0
   60.8159   35.6581   46.1442 H   0  0  0  0  0  0  0  0  0  0  0  0
   58.7803   35.6148   44.7117 H   0  0  0  0  0  0  0  0  0  0  0  0
   56.9811   33.9446   45.1419 H   0  0  0  0  0  0  0  0  0  0  0  0
   57.2158   32.3093   47.0040 H   0  0  0  0  0  0  0  0  0  0  0  0
   60.5070   30.6454   50.4914 H   0  0  0  0  0  0  0  0  0  0  0  0
   61.1213   28.2380   50.2880 H   0  0  0  0  0  0  0  0  0  0  0  0
   60.6002   26.9820   48.1986 H   0  0  0  0  0  0  0  0  0  0  0  0
   60.3070   27.9230   45.4250 H   0  0  0  0  0  0  0  0  0  0  0  0
   59.1640   26.9790   46.1730 H   0  0  0  0  0  0  0  0  0  0  0  0
   59.7947   30.0823   44.3908 H   0  0  0  0  0  0  0  0  0  0  0  0
   58.0541   31.4059   43.2046 H   0  0  0  0  0  0  0  0  0  0  0  0
   55.6527   30.7662   43.3871 H   0  0  0  0  0  0  0  0  0  0  0  0
   54.9883   28.7780   44.7249 H   0  0  0  0  0  0  0  0  0  0  0  0
   54.4990   27.1020   46.7060 H   0  0  0  0  0  0  0  0  0  0  0  0
   58.8277   30.5562   46.5037 H   0  0  0  0  0  0  0  0  0  0  0  0
  1  2  1  0
  2  3  1  0
  3  4  2  0
  3  5  1  0
  5  6  2  0
  6  7  1  0
  7  8  2  0
  8  9  1  0
  9 10  2  0
 10 11  1  0
 11 12  1  0
 12 13  2  0
 13 14  1  0
 14 15  2  0
 15 16  1  0
 16 17  1  0
 17 18  1  0
 18 19  2  0
 19 20  1  0
 20 21  2  0
 21 22  1  0
 22 23  2  0
 23 24  1  0
 24 25  1  0
 24 26  2  0
 16 27  2  0
 10  5  1  0
 27 12  1  0
 23 18  1  0
  1 28  1  0
  1 29  1  0
  1 30  1  0
  6 31  1  0
  7 32  1  0
  8 33  1  0
  9 34  1  0
 13 35  1  0
 14 36  1  0
 15 37  1  0
 17 38  1  0
 17 39  1  0
 19 40  1  0
 20 41  1  0
 21 42  1  0
 22 43  1  0
 25 44  1  0
 27 45  1  0
M  CHG  2  17   1  25  -1
M  END
>  <UniqueID>  (39) 
36

>  <SMILES>  (39) 
COC(=O)c1ccccc1Oc1cccc([NH2+]c2ccccc2C([NH-])=O)c1

>  <Energy>  (39) 
61.97837478141522

>  <Genealogy>  (39) 
COC(=O)c1ccccc1Oc1cccc([NH2+]c2ccccc2C([NH-])=O)c1 (protonated)
COC(=O)c1ccccc1Oc1cccc([NH2+]c2ccccc2C([NH-])=O)c1 (3D coordinates assigned)
COC(=O)c1ccccc1Oc1cccc([NH2+]c2ccccc2C([NH-])=O)c1 (optimized conformer: 61.97837478141522 kcal/mol)

>  <smiles>  (39) 
COC(=O)c1ccccc1Oc1cccc(Nc2ccccc2C(N)=O)c1

>  <score_type>  (39) 
oracle

>  <origin>  (39) 
adg

>  <m_score__min__energy>  (39) 
-9.9600000000000009

>  <m_primary>  (39) 
energy

$$$$
39:0
     RDKit          3D

 40 43  0  0  0  0  0  0  0  0999 V2000
   58.1748   33.0077   41.3825 H   0  0  0  0  0  0  0  0  0  0  0  0
   57.7700   32.3420   42.1590 C   0  0  0  0  0  0  0  0  0  0  0  0
   57.0470   31.2460   41.8050 N   0  0  0  0  0  0  0  0  0  0  0  0
   56.5430   30.3930   42.7350 C   0  0  0  0  0  0  0  0  0  0  0  0
   55.9508   29.5219   42.4179 H   0  0  0  0  0  0  0  0  0  0  0  0
   56.7770   30.6220   44.0990 C   0  0  0  0  0  0  0  0  0  0  0  0
   56.2130   29.7620   45.0990 N   0  0  0  0  0  0  0  0  0  0  0  0
   56.7090   28.6640   45.6050 C   0  0  0  0  0  0  0  0  0  0  0  0
   55.9290   27.5490   45.5680 N   0  0  0  0  0  0  0  0  0  0  0  0
   56.3440   26.3560   46.0660 C   0  0  0  0  0  0  0  0  0  0  0  0
   55.5190   25.2280   46.0020 C   0  0  0  0  0  0  0  0  0  0  0  0
   54.5201   25.3003   45.5472 H   0  0  0  0  0  0  0  0  0  0  0  0
   55.9680   24.0080   46.5180 C   0  0  0  0  0  0  0  0  0  0  0  0
   55.3209   23.1199   46.4680 H   0  0  0  0  0  0  0  0  0  0  0  0
   57.2390   23.9140   47.0980 C   0  0  0  0  0  0  0  0  0  0  0  0
   57.5880   22.9527   47.5032 H   0  0  0  0  0  0  0  0  0  0  0  0
   58.0660   25.0410   47.1630 C   0  0  0  0  0  0  0  0  0  0  0  0
   59.0641   24.9670   47.6194 H   0  0  0  0  0  0  0  0  0  0  0  0
   57.6200   26.2620   46.6460 C   0  0  0  0  0  0  0  0  0  0  0  0
   58.4010   27.3670   46.7100 N   0  0  0  0  0  0  0  0  0  0  0  0
   57.9920   28.5710   46.2200 C   0  0  0  0  0  0  0  0  0  0  0  0
   58.7550   29.6170   46.3590 N   0  0  0  0  0  0  0  0  0  0  0  0
   58.8840   30.4110   47.5790 C   0  0  0  0  0  0  0  0  0  0  0  0
   59.6962   29.9986   48.1956 H   0  0  0  0  0  0  0  0  0  0  0  0
   57.9335   30.3733   48.1313 H   0  0  0  0  0  0  0  0  0  0  0  0
   59.1960   31.8440   47.2420 C   0  0  0  0  0  0  0  0  0  0  0  0
   58.2110   32.8330   47.4000 C   0  0  0  0  0  0  0  0  0  0  0  0
   57.2061   32.5544   47.7501 H   0  0  0  0  0  0  0  0  0  0  0  0
   58.5030   34.1700   47.1140 C   0  0  0  0  0  0  0  0  0  0  0  0
   57.7267   34.9397   47.2357 H   0  0  0  0  0  0  0  0  0  0  0  0
   59.7790   34.5300   46.6740 C   0  0  0  0  0  0  0  0  0  0  0  0
   60.0065   35.5825   46.4494 H   0  0  0  0  0  0  0  0  0  0  0  0
   60.7670   33.5530   46.5190 C   0  0  0  0  0  0  0  0  0  0  0  0
   61.7720   33.8378   46.1741 H   0  0  0  0  0  0  0  0  0  0  0  0
   60.4790   32.2140   46.8020 C   0  0  0  0  0  0  0  0  0  0  0  0
   61.2588   31.4479   46.6799 H   0  0  0  0  0  0  0  0  0  0  0  0
   57.4880   31.7630   44.4820 C   0  0  0  0  0  0  0  0  0  0  0  0
   57.6445   31.9828   45.5484 H   0  0  0  0  0  0  0  0  0  0  0  0
   57.9990   32.6230   43.5080 C   0  0  0  0  0  0  0  0  0  0  0  0
   58.5761   33.5128   43.8000 H   0  0  0  0  0  0  0  0  0  0  0  0
  1  2  1  0
  2  3  2  0
  3  4  1  0
  4  5  1  0
  4  6  2  0
  6  7  1  0
  7  8  2  0
  8  9  1  0
  9 10  1  0
 10 11  2  0
 11 12  1  0
 11 13  1  0
 13 14  1  0
 13 15  2  0
 15 16  1  0
 15 17  1  0
 17 18  1  0
 17 19  2  0
 19 20  1  0
 20 21  1  0
 21 22  2  0
 22 23  1  0
 23 24  1  0
 23 25  1  0
 23 26  1  0
 26 27  2  0
 27 28  1  0
 27 29  1  0
 29 30  1  0
 29 31  2  0
 31 32  1  0
 31 33  1  0
 33 34  1  0
 33 35  2  0
 35 36  1  0
  6 37  1  0
 37 38  1  0
 37 39  2  0
 39 40  1  0
 39  2  1  0
 21  8  1  0
 35 26  1  0
 19 10  1  0
M  CHG  2   9  -1  20  -1
M  END
>  <UniqueID>  (40) 
37

>  <SMILES>  (40) 
c1ccc(C/N=c2\[n-]c3ccccc3[n-]\c2=N\c2cccnc2)cc1

>  <Energy>  (40) 
61.867536022832304

>  <Genealogy>  (40) 
c1ccc(CN=c2[n-]c3ccccc3[n-]c2=Nc2cccnc2)cc1 (protonated)
c1ccc(C/N=c2\[n-]c3ccccc3[n-]\c2=N\c2cccnc2)cc1 (cis-trans isomerization)
c1ccc(C/N=c2\[n-]c3ccccc3[n-]\c2=N\c2cccnc2)cc1 (3D coordinates assigned)
c1ccc(C/N=c2\[n-]c3ccccc3[n-]\c2=N\c2cccnc2)cc1 (optimized conformer: 61.867536022832304 kcal/mol)

>  <smiles>  (40) 
c1ccc(CN=c2[nH]c3ccccc3[nH]c2=Nc2cccnc2)cc1

>  <score_type>  (40) 
oracle

>  <origin>  (40) 
adg

>  <m_score__min__energy>  (40) 
-10.720000000000001

>  <m_primary>  (40) 
energy

$$$$
40:0
     RDKit          3D

 41 43  0  0  0  0  0  0  0  0999 V2000
   56.9060   30.1880   43.0570 O   0  0  0  0  0  0  0  0  0  0  0  0
   56.7730   30.0680   44.5500 S   0  0  0  0  0  0  0  0  0  0  0  0
   55.5300   29.2880   44.8740 O   0  0  0  0  0  0  0  0  0  0  0  0
   56.6460   31.6530   45.2390 N   0  0  0  0  0  0  0  0  0  0  0  0
   57.7480   32.5520   45.4110 C   0  0  0  0  0  0  0  0  0  0  0  0
   57.8190   33.7830   44.7340 C   0  0  0  0  0  0  0  0  0  0  0  0
   58.9370   34.6080   44.8930 C   0  0  0  0  0  0  0  0  0  0  0  0
   59.9950   34.2060   45.7120 C   0  0  0  0  0  0  0  0  0  0  0  0
   59.9350   32.9800   46.3860 C   0  0  0  0  0  0  0  0  0  0  0  0
   61.3080   32.4060   47.3260 S   0  0  0  0  0  0  0  0  0  0  0  0
   61.4590   30.9160   47.1920 O   0  0  0  0  0  0  0  0  0  0  0  0
   62.5550   33.0760   46.8220 O   0  0  0  0  0  0  0  0  0  0  0  0
   61.0780   32.8020   49.0020 N   0  0  0  0  0  0  0  0  0  0  0  0
   59.9840   32.2960   49.7850 C   0  0  0  0  0  0  0  0  0  0  0  0
   59.3630   33.1360   50.7230 C   0  0  0  0  0  0  0  0  0  0  0  0
   58.2710   32.6820   51.4690 C   0  0  0  0  0  0  0  0  0  0  0  0
   57.7950   31.3790   51.2910 C   0  0  0  0  0  0  0  0  0  0  0  0
   56.2990   30.7630   52.3070 Br  0  0  0  0  0  0  0  0  0  0  0  0
   58.4170   30.5280   50.3740 C   0  0  0  0  0  0  0  0  0  0  0  0
   59.5100   30.9790   49.6280 C   0  0  0  0  0  0  0  0  0  0  0  0
   58.7970   32.1720   46.2540 C   0  0  0  0  0  0  0  0  0  0  0  0
   58.1640   29.2330   45.2350 C   0  0  0  0  0  0  0  0  0  0  0  0
   58.0480   28.5650   46.4640 C   0  0  0  0  0  0  0  0  0  0  0  0
   59.1560   27.9190   47.0190 C   0  0  0  0  0  0  0  0  0  0  0  0
   60.3830   27.9320   46.3500 C   0  0  0  0  0  0  0  0  0  0  0  0
   60.5020   28.5900   45.1220 C   0  0  0  0  0  0  0  0  0  0  0  0
   59.3960   29.2390   44.5640 C   0  0  0  0  0  0  0  0  0  0  0  0
   56.9936   34.0973   44.0783 H   0  0  0  0  0  0  0  0  0  0  0  0
   58.9834   35.5757   44.3720 H   0  0  0  0  0  0  0  0  0  0  0  0
   60.8766   34.8536   45.8276 H   0  0  0  0  0  0  0  0  0  0  0  0
   61.6700   33.5680   49.3930 H   0  0  0  0  0  0  0  0  0  0  0  0
   59.7384   34.1591   50.8722 H   0  0  0  0  0  0  0  0  0  0  0  0
   57.7861   33.3499   52.1962 H   0  0  0  0  0  0  0  0  0  0  0  0
   58.0461   29.5013   50.2387 H   0  0  0  0  0  0  0  0  0  0  0  0
   60.0024   30.3017   48.9147 H   0  0  0  0  0  0  0  0  0  0  0  0
   58.7286   31.2305   46.8187 H   0  0  0  0  0  0  0  0  0  0  0  0
   57.0828   28.5499   46.9915 H   0  0  0  0  0  0  0  0  0  0  0  0
   59.0622   27.3994   47.9840 H   0  0  0  0  0  0  0  0  0  0  0  0
   61.2547   27.4248   46.7893 H   0  0  0  0  0  0  0  0  0  0  0  0
   61.4670   28.5972   44.5940 H   0  0  0  0  0  0  0  0  0  0  0  0
   59.4922   29.7551   43.5973 H   0  0  0  0  0  0  0  0  0  0  0  0
  1  2  2  0
  2  3  2  0
  2  4  1  0
  4  5  1  0
  5  6  2  0
  6  7  1  0
  7  8  2  0
  8  9  1  0
  9 10  1  0
 10 11  2  0
 10 12  2  0
 10 13  1  0
 13 14  1  0
 14 15  2  0
 15 16  1  0
 16 17  2  0
 17 18  1  0
 17 19  1  0
 19 20  2  0
  9 21  2  0
  2 22  1  0
 22 23  2  0
 23 24  1  0
 24 25  2  0
 25 26  1  0
 26 27  2  0
 21  5  1  0
 27 22  1  0
 20 14  1  0
  6 28  1  0
  7 29  1  0
  8 30  1  0
 13 31  1  0
 15 32  1  0
 16 33  1  0
 19 34  1  0
 20 35  1  0
 21 36  1  0
 23 37  1  0
 24 38  1  0
 25 39  1  0
 26 40  1  0
 27 41  1  0
M  CHG  1   4  -1
M  END
>  <UniqueID>  (41) 
38

>  <SMILES>  (41) 
O=S(=O)([N-]c1cccc(S(=O)(=O)Nc2ccc(Br)cc2)c1)c1ccccc1

>  <Energy>  (41) 
47.73022185930394

>  <Genealogy>  (41) 
O=S(=O)([N-]c1cccc(S(=O)(=O)Nc2ccc(Br)cc2)c1)c1ccccc1 (protonated)
O=S(=O)([N-]c1cccc(S(=O)(=O)Nc2ccc(Br)cc2)c1)c1ccccc1 (3D coordinates assigned)
O=S(=O)([N-]c1cccc(S(=O)(=O)Nc2ccc(Br)cc2)c1)c1ccccc1 (optimized conformer: 47.73022185930394 kcal/mol)

>  <smiles>  (41) 
O=S(=O)(Nc1cccc(S(=O)(=O)Nc2ccc(Br)cc2)c1)c1ccccc1

>  <score_type>  (41) 
oracle

>  <origin>  (41) 
adg

>  <m_score__min__energy>  (41) 
-12.18

>  <m_primary>  (41) 
energy

$$$$
41:0
     RDKit          3D

 38 40  0  0  0  0  0  0  0  0999 V2000
   57.7940   32.6020   42.2870 O   0  0  0  0  0  0  0  0  0  0  0  0
   57.7960   32.5390   43.5460 C   0  0  0  0  0  0  0  0  0  0  0  0
   58.0040   33.7460   44.2940 N   0  0  0  0  0  0  0  0  0  0  0  0
   58.6720   33.9000   45.4040 C   0  0  0  0  0  0  0  0  0  0  0  0
   60.0070   34.1500   45.3080 N   0  0  0  0  0  0  0  0  0  0  0  0
   60.7980   34.3400   46.3970 C   0  0  0  0  0  0  0  0  0  0  0  0
   60.2500   34.2810   47.6750 C   0  0  0  0  0  0  0  0  0  0  0  0
   58.8920   34.0080   47.8220 C   0  0  0  0  0  0  0  0  0  0  0  0
   58.0860   33.8010   46.6950 C   0  0  0  0  0  0  0  0  0  0  0  0
   56.7410   33.4740   46.8710 O   0  0  0  0  0  0  0  0  0  0  0  0
   57.5060   31.2500   44.2240 C   0  0  0  0  0  0  0  0  0  0  0  0
   58.4580   30.6690   45.0800 C   0  0  0  0  0  0  0  0  0  0  0  0
   58.1880   29.4590   45.7250 C   0  0  0  0  0  0  0  0  0  0  0  0
   56.9760   28.7970   45.5110 C   0  0  0  0  0  0  0  0  0  0  0  0
   56.7300   27.5610   46.1980 N   0  0  0  0  0  0  0  0  0  0  0  0
   57.3030   26.2840   45.8820 C   0  0  0  0  0  0  0  0  0  0  0  0
   58.5560   26.1650   45.8940 O   0  0  0  0  0  0  0  0  0  0  0  0
   56.4690   25.1170   45.5090 C   0  0  0  0  0  0  0  0  0  0  0  0
   57.0930   23.9430   45.0530 C   0  0  0  0  0  0  0  0  0  0  0  0
   56.3300   22.8230   44.7110 C   0  0  0  0  0  0  0  0  0  0  0  0
   54.9390   22.8670   44.8110 C   0  0  0  0  0  0  0  0  0  0  0  0
   54.3050   24.0340   45.2420 C   0  0  0  0  0  0  0  0  0  0  0  0
   55.0600   25.1630   45.5810 C   0  0  0  0  0  0  0  0  0  0  0  0
   54.4020   26.3260   45.9650 O   0  0  0  0  0  0  0  0  0  0  0  0
   56.0120   29.3810   44.6720 C   0  0  0  0  0  0  0  0  0  0  0  0
   56.2790   30.5910   44.0250 C   0  0  0  0  0  0  0  0  0  0  0  0
   61.8719   34.5405   46.2681 H   0  0  0  0  0  0  0  0  0  0  0  0
   60.8824   34.4481   48.5594 H   0  0  0  0  0  0  0  0  0  0  0  0
   58.4503   33.9547   48.8280 H   0  0  0  0  0  0  0  0  0  0  0  0
   56.0080   33.9310   46.3430 H   0  0  0  0  0  0  0  0  0  0  0  0
   59.4231   31.1709   45.2434 H   0  0  0  0  0  0  0  0  0  0  0  0
   58.9347   29.0246   46.4059 H   0  0  0  0  0  0  0  0  0  0  0  0
   58.1888   23.9054   44.9647 H   0  0  0  0  0  0  0  0  0  0  0  0
   56.8268   21.9056   44.3625 H   0  0  0  0  0  0  0  0  0  0  0  0
   54.3412   21.9813   44.5500 H   0  0  0  0  0  0  0  0  0  0  0  0
   53.2079   24.0663   45.3154 H   0  0  0  0  0  0  0  0  0  0  0  0
   55.0422   28.8835   44.5236 H   0  0  0  0  0  0  0  0  0  0  0  0
   55.5248   31.0308   43.3559 H   0  0  0  0  0  0  0  0  0  0  0  0
  1  2  2  0
  2  3  1  0
  3  4  2  3
  4  5  1  0
  5  6  1  0
  6  7  2  0
  7  8  1  0
  8  9  2  0
  9 10  1  0
  2 11  1  0
 11 12  2  0
 12 13  1  0
 13 14  2  0
 14 15  1  0
 15 16  1  0
 16 17  2  0
 16 18  1  0
 18 19  2  0
 19 20  1  0
 20 21  2  0
 21 22  1  0
 22 23  2  0
 23 24  1  0
 14 25  1  0
 25 26  2  0
  9  4  1  0
 26 11  1  0
 23 18  1  0
  6 27  1  0
  7 28  1  0
  8 29  1  0
 10 30  1  0
 12 31  1  0
 13 32  1  0
 19 33  1  0
 20 34  1  0
 21 35  1  0
 22 36  1  0
 25 37  1  0
 26 38  1  0
M  CHG  3   5  -1  15  -1  24  -1
M  END
>  <UniqueID>  (42) 
39

>  <SMILES>  (42) 
O=C(N=c1[n-]cccc1O)c1ccc([N-]C(=O)c2ccccc2[O-])cc1

>  <Energy>  (42) 
63.754042662873374

>  <Genealogy>  (42) 
O=C(N=c1[n-]cccc1O)c1ccc([N-]C(=O)c2ccccc2[O-])cc1 (protonated)
O=C(N=c1[n-]cccc1O)c1ccc([N-]C(=O)c2ccccc2[O-])cc1 (3D coordinates assigned)
O=C(N=c1[n-]cccc1O)c1ccc([N-]C(=O)c2ccccc2[O-])cc1 (optimized conformer: 63.754042662873374 kcal/mol)

>  <smiles>  (42) 
O=C(N=c1[nH]cccc1O)c1ccc(NC(=O)c2ccccc2O)cc1

>  <score_type>  (42) 
oracle

>  <origin>  (42) 
adg

>  <m_score__min__energy>  (42) 
-14.210000000000001

>  <m_primary>  (42) 
energy

$$$$
42:0
     RDKit          3D

 33 35  0  0  1  0  0  0  0  0999 V2000
   59.9800   35.0010   47.2180 C   0  0  0  0  0  0  0  0  0  0  0  0
   59.5280   34.8180   45.8970 O   0  0  0  0  0  0  0  0  0  0  0  0
   58.8000   33.7100   45.4900 C   0  0  0  0  0  0  0  0  0  0  0  0
   58.4850   32.7730   46.4570 C   0  0  0  0  0  0  0  0  0  0  0  0
   57.7650   31.6360   46.1530 C   0  0  0  0  0  0  0  0  0  0  0  0
   57.3490   31.4280   44.8540 C   0  0  0  0  0  0  0  0  0  0  0  0
   56.6040   30.2690   44.4980 N   0  0  0  0  0  0  0  0  0  0  0  0
   57.0130   29.1340   44.9670 C   0  0  0  0  0  0  0  0  0  0  0  0
   58.3590   29.0270   45.1390 N   0  0  0  0  0  0  0  0  0  0  0  0
   58.9270   27.9040   45.6190 C   0  0  0  0  0  0  0  0  0  0  0  0
   60.2930   27.8140   45.7870 C   0  0  0  0  0  0  0  0  0  0  0  0
   60.8250   26.6420   46.2820 C   0  0  0  0  0  0  0  0  0  0  0  0
   59.9990   25.5930   46.5970 C   0  0  0  0  0  0  0  0  0  0  0  0
   58.6240   25.7010   46.4200 C   0  0  0  0  0  0  0  0  0  0  0  0
   58.0780   26.8640   45.9270 C   0  0  0  0  0  0  0  0  0  0  0  0
   56.6930   26.9660   45.7540 C   0  0  0  0  0  0  0  0  0  0  0  0
   55.8500   25.8620   46.0880 N   0  0  0  0  0  0  0  0  0  0  0  0
   54.6120   25.9620   45.9660 O   0  0  0  0  0  0  0  0  0  0  0  0
   56.1790   28.1250   45.2660 N   0  0  0  0  0  0  0  0  0  0  0  0
   57.6640   32.3630   43.8960 C   0  0  0  0  0  0  0  0  0  0  0  0
   58.3860   33.5050   44.1930 C   0  0  0  0  0  0  0  0  0  0  0  0
   59.1959   34.6835   47.9211 H   0  0  0  0  0  0  0  0  0  0  0  0
   60.8857   34.3987   47.3824 H   0  0  0  0  0  0  0  0  0  0  0  0
   60.2116   36.0637   47.3824 H   0  0  0  0  0  0  0  0  0  0  0  0
   58.8162   32.9380   47.4929 H   0  0  0  0  0  0  0  0  0  0  0  0
   57.5252   30.9033   46.9377 H   0  0  0  0  0  0  0  0  0  0  0  0
   60.9460   28.6614   45.5309 H   0  0  0  0  0  0  0  0  0  0  0  0
   61.9117   26.5483   46.4243 H   0  0  0  0  0  0  0  0  0  0  0  0
   60.4273   24.6601   46.9923 H   0  0  0  0  0  0  0  0  0  0  0  0
   57.9704   24.8538   46.6750 H   0  0  0  0  0  0  0  0  0  0  0  0
   55.1430   28.2340   45.1230 H   0  0  0  0  0  0  0  0  0  0  0  0
   57.3313   32.1975   42.8607 H   0  0  0  0  0  0  0  0  0  0  0  0
   58.6251   34.2363   43.4069 H   0  0  0  0  0  0  0  0  0  0  0  0
  1  2  1  0
  2  3  1  0
  3  4  2  0
  4  5  1  0
  5  6  2  0
  6  7  1  0
  7  8  2  0
  8  9  1  0
  9 10  2  0
 10 11  1  0
 11 12  2  0
 12 13  1  0
 13 14  2  0
 14 15  1  0
 15 16  2  0
 16 17  1  0
 17 18  2  0
 16 19  1  0
  6 20  1  0
 20 21  2  0
 21  3  1  0
 19  8  1  0
 15 10  1  0
  1 22  1  0
  1 23  1  0
  1 24  1  0
  4 25  1  0
  5 26  1  0
 11 27  1  0
 12 28  1  0
 13 29  1  0
 14 30  1  0
 19 31  1  0
 20 32  1  0
 21 33  1  0
M  END
>  <smiles>  (43) 
COc1ccc(N=c2nc3ccccc3c(N=O)[nH]2)cc1

>  <score_type>  (43) 
oracle

>  <origin>  (43) 
adg

>  <m_score__min__energy>  (43) 
-8.0299999999999994

>  <m_primary>  (43) 
energy

$$$$
43:0
     RDKit          3D

 69 72  0  0  0  0  0  0  0  0999 V2000
   58.2670   33.1670   44.6410 C   0  0  0  0  0  0  0  0  0  0  0  0
   57.8780   31.7210   44.7020 C   0  0  0  0  0  0  0  0  0  0  0  0
   57.0080   31.1730   43.7260 C   0  0  0  0  0  0  0  0  0  0  0  0
   56.6410   29.8170   43.7710 C   0  0  0  0  0  0  0  0  0  0  0  0
   57.1690   29.0320   44.7930 C   0  0  0  0  0  0  0  0  0  0  0  0
   56.9030   27.7360   45.0390 N   0  0  0  0  0  0  0  0  0  0  0  0
   57.6130   27.4160   46.1460 C   0  0  0  0  0  0  0  0  0  0  0  0
   57.5730   26.0620   46.7860 C   0  0  0  0  0  0  0  0  0  0  0  0
   58.3330   28.5210   46.6060 C   0  0  0  0  0  0  0  0  0  0  0  0
   59.1930   28.5780   47.8010 C   0  0  0  0  0  0  0  0  0  0  0  0
   60.1790   27.7990   47.8840 O   0  0  0  0  0  0  0  0  0  0  0  0
   58.9430   29.5370   48.8360 N   0  0  0  0  0  0  0  0  0  0  0  0
   59.8590   29.7280   49.9620 C   0  0  0  0  0  0  0  0  0  0  0  0
   59.3060   30.7640   50.9110 C   0  0  0  0  0  0  0  0  0  0  0  0
   59.5440   30.6190   52.2900 C   0  0  0  0  0  0  0  0  0  0  0  0
   58.9880   31.5140   53.2060 C   0  0  0  0  0  0  0  0  0  0  0  0
   58.1910   32.5660   52.7540 C   0  0  0  0  0  0  0  0  0  0  0  0
   57.9420   32.7210   51.3880 C   0  0  0  0  0  0  0  0  0  0  0  0
   58.5000   31.8280   50.4500 C   0  0  0  0  0  0  0  0  0  0  0  0
   58.2950   31.9770   49.0670 O   0  0  0  0  0  0  0  0  0  0  0  0
   59.1660   32.6640   48.1620 C   0  0  0  0  0  0  0  0  0  0  0  0
   59.3080   34.1340   48.5620 C   0  0  0  0  0  0  0  0  0  0  0  0
   60.7720   34.5890   48.5830 C   0  0  0  0  0  0  0  0  0  0  0  0
   61.5280   34.0080   49.7840 C   0  0  0  0  0  0  0  0  0  0  0  0
   62.9260   33.6860   49.4130 N   0  0  0  0  0  0  0  0  0  0  0  0
   63.3320   32.3420   49.8610 C   0  0  0  0  0  0  0  0  0  0  0  0
   62.6020   31.2230   49.0880 C   0  0  0  0  0  0  0  0  0  0  0  0
   61.9570   31.7310   47.8600 N   0  0  0  0  0  0  0  0  0  0  0  0
   61.5360   30.6100   47.0060 C   0  0  0  0  0  0  0  0  0  0  0  0
   62.8630   32.6250   47.1250 C   0  0  0  0  0  0  0  0  0  0  0  0
   63.1990   33.8730   47.9710 C   0  0  0  0  0  0  0  0  0  0  0  0
   58.0360   29.5470   45.7270 C   0  0  0  0  0  0  0  0  0  0  0  0
   58.4110   30.8920   45.7140 C   0  0  0  0  0  0  0  0  0  0  0  0
   58.3731   33.5615   45.6623 H   0  0  0  0  0  0  0  0  0  0  0  0
   59.2240   33.2671   44.1080 H   0  0  0  0  0  0  0  0  0  0  0  0
   57.4894   33.7337   44.1080 H   0  0  0  0  0  0  0  0  0  0  0  0
   56.6158   31.8163   42.9245 H   0  0  0  0  0  0  0  0  0  0  0  0
   55.9580   29.3891   43.0223 H   0  0  0  0  0  0  0  0  0  0  0  0
   56.2650   27.1120   44.4960 H   0  0  0  0  0  0  0  0  0  0  0  0
   57.5763   26.1735   47.8803 H   0  0  0  0  0  0  0  0  0  0  0  0
   56.6589   25.5357   46.4738 H   0  0  0  0  0  0  0  0  0  0  0  0
   58.4544   25.4827   46.4738 H   0  0  0  0  0  0  0  0  0  0  0  0
   58.1390   30.1980   48.7370 H   0  0  0  0  0  0  0  0  0  0  0  0
   59.9826   28.7744   50.4962 H   0  0  0  0  0  0  0  0  0  0  0  0
   60.8316   30.0721   49.5804 H   0  0  0  0  0  0  0  0  0  0  0  0
   60.1743   29.7925   52.6500 H   0  0  0  0  0  0  0  0  0  0  0  0
   59.1780   31.3899   54.2823 H   0  0  0  0  0  0  0  0  0  0  0  0
   57.7576   33.2751   53.4747 H   0  0  0  0  0  0  0  0  0  0  0  0
   57.3046   33.5475   51.0408 H   0  0  0  0  0  0  0  0  0  0  0  0
   60.1569   32.1868   48.1816 H   0  0  0  0  0  0  0  0  0  0  0  0
   58.7382   32.6118   47.1499 H   0  0  0  0  0  0  0  0  0  0  0  0
   58.7549   34.7527   47.8400 H   0  0  0  0  0  0  0  0  0  0  0  0
   58.9040   34.2481   49.5787 H   0  0  0  0  0  0  0  0  0  0  0  0
   61.2627   34.2548   47.6570 H   0  0  0  0  0  0  0  0  0  0  0  0
   60.7896   35.6859   48.6640 H   0  0  0  0  0  0  0  0  0  0  0  0
   61.5311   34.7452   50.6005 H   0  0  0  0  0  0  0  0  0  0  0  0
   61.0249   33.0848   50.1074 H   0  0  0  0  0  0  0  0  0  0  0  0
   64.4154   32.2298   49.7071 H   0  0  0  0  0  0  0  0  0  0  0  0
   63.0659   32.2463   50.9240 H   0  0  0  0  0  0  0  0  0  0  0  0
   63.3317   30.4476   48.8116 H   0  0  0  0  0  0  0  0  0  0  0  0
   61.8167   30.8145   49.7410 H   0  0  0  0  0  0  0  0  0  0  0  0
   61.2193   29.7668   47.6375 H   0  0  0  0  0  0  0  0  0  0  0  0
   60.6961   30.9282   46.3709 H   0  0  0  0  0  0  0  0  0  0  0  0
   62.3777   30.2966   46.3709 H   0  0  0  0  0  0  0  0  0  0  0  0
   63.7927   32.0854   46.8915 H   0  0  0  0  0  0  0  0  0  0  0  0
   62.3676   32.9479   46.1975 H   0  0  0  0  0  0  0  0  0  0  0  0
   64.2666   34.1053   47.8439 H   0  0  0  0  0  0  0  0  0  0  0  0
   62.5550   34.6921   47.6183 H   0  0  0  0  0  0  0  0  0  0  0  0
   59.1015   31.2943   46.4699 H   0  0  0  0  0  0  0  0  0  0  0  0
  1  2  1  0
  2  3  2  0
  3  4  1  0
  4  5  2  0
  5  6  1  0
  6  7  1  0
  7  8  1  0
  7  9  2  0
  9 10  1  0
 10 11  2  0
 10 12  1  0
 12 13  1  0
 13 14  1  0
 14 15  2  0
 15 16  1  0
 16 17  2  0
 17 18  1  0
 18 19  2  0
 19 20  1  0
 20 21  1  0
 21 22  1  0
 22 23  1  0
 23 24  1  0
 24 25  1  0
 25 26  1  0
 26 27  1  0
 27 28  1  0
 28 29  1  0
 28 30  1  0
 30 31  1  0
  9 32  1  0
 32 33  2  0
 33  2  1  0
 32  5  1  0
 19 14  1  0
 31 25  1  0
  1 34  1  0
  1 35  1  0
  1 36  1  0
  3 37  1  0
  4 38  1  0
  6 39  1  0
  8 40  1  0
  8 41  1  0
  8 42  1  0
 12 43  1  0
 13 44  1  0
 13 45  1  0
 15 46  1  0
 16 47  1  0
 17 48  1  0
 18 49  1  0
 21 50  1  0
 21 51  1  0
 22 52  1  0
 22 53  1  0
 23 54  1  0
 23 55  1  0
 24 56  1  0
 24 57  1  0
 26 58  1  0
 26 59  1  0
 27 60  1  0
 27 61  1  0
 29 62  1  0
 29 63  1  0
 29 64  1  0
 30 65  1  0
 30 66  1  0
 31 67  1  0
 31 68  1  0
 33 69  1  0
M  END
>  <UniqueID>  (44) 
40

>  <SMILES>  (44) 
Cc1ccc2[nH]c(C)c(C(=O)NCc3ccccc3OCCCCN3CCN(C)CC3)c2c1

>  <Energy>  (44) 
113.02594733178049

>  <Genealogy>  (44) 
Cc1ccc2[nH]c(C)c(C(=O)NCc3ccccc3OCCCCN3CCN(C)CC3)c2c1 (3D coordinates assigned)
Cc1ccc2[nH]c(C)c(C(=O)NCc3ccccc3OCCCCN3CCN(C)CC3)c2c1 (nonaromatic ring conformer: 113.02594733178049 kcal/mol)

>  <smiles>  (44) 
Cc1ccc2[nH]c(C)c(C(=O)NCc3ccccc3OCCCCN3CCN(C)CC3)c2c1

>  <score_type>  (44) 
oracle

>  <origin>  (44) 
adg

>  <m_score__min__energy>  (44) 
-8.9800000000000004

>  <m_primary>  (44) 
energy

$$$$
44:0
     RDKit          3D

 41 42  0  0  0  0  0  0  0  0999 V2000
   58.0000   32.2910   41.4120 C   0  0  0  0  0  0  0  0  0  0  0  0
   57.5350   31.7670   42.7330 C   0  0  0  0  0  0  0  0  0  0  0  0
   56.6190   30.7120   42.7960 C   0  0  0  0  0  0  0  0  0  0  0  0
   56.1910   30.2750   44.0500 C   0  0  0  0  0  0  0  0  0  0  0  0
   55.3740   29.3230   44.1450 O   0  0  0  0  0  0  0  0  0  0  0  0
   56.6580   30.8800   45.1730 N   0  0  0  0  0  0  0  0  0  0  0  0
   57.5430   31.9090   45.0950 C   0  0  0  0  0  0  0  0  0  0  0  0
   58.1510   32.6780   46.5940 S   0  0  0  0  0  0  0  0  0  0  0  0
   58.4820   34.2970   45.8130 C   0  0  0  0  0  0  0  0  0  0  0  0
   59.6530   34.9710   46.4520 C   0  0  0  0  0  0  0  0  0  0  0  0
   60.0000   36.1190   46.0670 O   0  0  0  0  0  0  0  0  0  0  0  0
   60.3850   34.2980   47.4820 N   0  0  0  0  0  0  0  0  0  0  0  0
   61.3650   33.2490   47.2190 C   0  0  0  0  0  0  0  0  0  0  0  0
   61.2350   32.1250   48.2520 C   0  0  0  0  0  0  0  0  0  0  0  0
   60.4950   30.9520   47.6710 C   0  0  0  0  0  0  0  0  0  0  0  0
   59.5380   30.2650   48.4360 C   0  0  0  0  0  0  0  0  0  0  0  0
   58.8650   29.1640   47.9000 C   0  0  0  0  0  0  0  0  0  0  0  0
   59.1490   28.7280   46.5990 C   0  0  0  0  0  0  0  0  0  0  0  0
   58.2910   27.3360   45.9400 S   0  0  0  0  0  0  0  0  0  0  0  0
   56.6250   27.7340   45.7050 N   0  0  0  0  0  0  0  0  0  0  0  0
   58.9100   26.9470   44.6260 O   0  0  0  0  0  0  0  0  0  0  0  0
   58.3860   26.1710   46.8850 O   0  0  0  0  0  0  0  0  0  0  0  0
   60.1150   29.4010   45.8380 C   0  0  0  0  0  0  0  0  0  0  0  0
   60.7840   30.5070   46.3710 C   0  0  0  0  0  0  0  0  0  0  0  0
   57.9690   32.3490   43.8830 N   0  0  0  0  0  0  0  0  0  0  0  0
   58.7222   33.1048   41.5740 H   0  0  0  0  0  0  0  0  0  0  0  0
   58.4817   31.4807   40.8451 H   0  0  0  0  0  0  0  0  0  0  0  0
   57.1382   32.6730   40.8451 H   0  0  0  0  0  0  0  0  0  0  0  0
   56.2443   30.2373   41.8772 H   0  0  0  0  0  0  0  0  0  0  0  0
   58.6940   34.1442   44.7445 H   0  0  0  0  0  0  0  0  0  0  0  0
   57.5962   34.9362   45.9428 H   0  0  0  0  0  0  0  0  0  0  0  0
   61.1948   32.8380   46.2129 H   0  0  0  0  0  0  0  0  0  0  0  0
   62.3750   33.6796   47.2857 H   0  0  0  0  0  0  0  0  0  0  0  0
   62.2396   31.8009   48.5613 H   0  0  0  0  0  0  0  0  0  0  0  0
   60.6727   32.5040   49.1181 H   0  0  0  0  0  0  0  0  0  0  0  0
   59.3173   30.5953   49.4618 H   0  0  0  0  0  0  0  0  0  0  0  0
   58.1094   28.6376   48.5016 H   0  0  0  0  0  0  0  0  0  0  0  0
   56.5440   28.7720   45.7920 H   0  0  0  0  0  0  0  0  0  0  0  0
   56.3880   27.4940   44.7160 H   0  0  0  0  0  0  0  0  0  0  0  0
   60.3473   29.0581   44.8190 H   0  0  0  0  0  0  0  0  0  0  0  0
   61.5406   31.0312   45.7688 H   0  0  0  0  0  0  0  0  0  0  0  0
  1  2  1  0
  2  3  2  0
  3  4  1  0
  4  5  2  0
  4  6  1  0
  6  7  1  0
  7  8  1  0
  8  9  1  0
  9 10  1  0
 10 11  2  0
 10 12  1  0
 12 13  1  0
 13 14  1  0
 14 15  1  0
 15 16  2  0
 16 17  1  0
 17 18  2  0
 18 19  1  0
 19 20  1  0
 19 21  2  0
 19 22  2  0
 18 23  1  0
 23 24  2  0
  7 25  2  0
 25  2  1  0
 24 15  1  0
  1 26  1  0
  1 27  1  0
  1 28  1  0
  3 29  1  0
  9 30  1  0
  9 31  1  0
 13 32  1  0
 13 33  1  0
 14 34  1  0
 14 35  1  0
 16 36  1  0
 17 37  1  0
 20 38  1  0
 20 39  1  0
 23 40  1  0
 24 41  1  0
M  CHG  2   6  -1  12  -1
M  END
>  <UniqueID>  (45) 
41

>  <SMILES>  (45) 
Cc1cc(=O)[n-]c(SCC(=O)[N-]CCc2ccc(S(N)(=O)=O)cc2)n1

>  <Energy>  (45) 
29.20655184219489

>  <Genealogy>  (45) 
Cc1cc(=O)[n-]c(SCC(=O)[N-]CCc2ccc(S(N)(=O)=O)cc2)n1 (protonated)
Cc1cc(=O)[n-]c(SCC(=O)[N-]CCc2ccc(S(N)(=O)=O)cc2)n1 (3D coordinates assigned)
Cc1cc(=O)[n-]c(SCC(=O)[N-]CCc2ccc(S(N)(=O)=O)cc2)n1 (optimized conformer: 29.20655184219489 kcal/mol)

>  <smiles>  (45) 
Cc1cc(=O)[nH]c(SCC(=O)NCCc2ccc(S(N)(=O)=O)cc2)n1

>  <score_type>  (45) 
oracle

>  <origin>  (45) 
adg

>  <m_score__min__energy>  (45) 
-12.08

>  <m_primary>  (45) 
energy

$$$$
45:0
     RDKit          3D

 36 39  0  0  0  0  0  0  0  0999 V2000
   57.3260   31.2880   42.9480 C   0  0  0  0  0  0  0  0  0  0  0  0
   56.2130   30.3130   43.3170 C   0  0  0  0  0  0  0  0  0  0  0  0
   56.2040   30.0700   44.7220 O   0  0  0  0  0  0  0  0  0  0  0  0
   57.0440   29.1470   45.3530 C   0  0  0  0  0  0  0  0  0  0  0  0
   56.6290   27.9820   45.6000 O   0  0  0  0  0  0  0  0  0  0  0  0
   58.4290   29.5080   45.7170 C   0  0  0  0  0  0  0  0  0  0  0  0
   59.4800   28.6970   45.4790 N   0  0  0  0  0  0  0  0  0  0  0  0
   60.5680   29.3660   45.8970 C   0  0  0  0  0  0  0  0  0  0  0  0
   60.2560   30.5800   46.3980 N   0  0  0  0  0  0  0  0  0  0  0  0
   58.9110   30.6770   46.3020 C   0  0  0  0  0  0  0  0  0  0  0  0
   58.1480   31.8690   46.7890 C   0  0  0  0  0  0  0  0  0  0  0  0
   58.6110   33.0420   46.0670 N   0  0  0  0  0  0  0  0  0  0  0  0
   57.8320   33.8470   45.3680 N   0  0  0  0  0  0  0  0  0  0  0  0
   58.6380   34.8270   44.9150 C   0  0  0  0  0  0  0  0  0  0  0  0
   59.9200   34.6720   45.3180 N   0  0  0  0  0  0  0  0  0  0  0  0
   59.8640   33.5300   46.0340 C   0  0  0  0  0  0  0  0  0  0  0  0
   61.0270   32.9470   46.7450 C   0  0  0  0  0  0  0  0  0  0  0  0
   62.0180   33.8240   47.2210 C   0  0  0  0  0  0  0  0  0  0  0  0
   63.1360   33.3390   47.9000 C   0  0  0  0  0  0  0  0  0  0  0  0
   64.0760   34.2010   48.3610 F   0  0  0  0  0  0  0  0  0  0  0  0
   63.2860   31.9710   48.1070 C   0  0  0  0  0  0  0  0  0  0  0  0
   62.3240   31.0810   47.6280 C   0  0  0  0  0  0  0  0  0  0  0  0
   61.1880   31.5450   46.9380 C   0  0  0  0  0  0  0  0  0  0  0  0
   57.7824   31.6878   43.8656 H   0  0  0  0  0  0  0  0  0  0  0  0
   58.0911   30.7642   42.3561 H   0  0  0  0  0  0  0  0  0  0  0  0
   56.9074   32.1153   42.3561 H   0  0  0  0  0  0  0  0  0  0  0  0
   55.2444   30.7400   43.0178 H   0  0  0  0  0  0  0  0  0  0  0  0
   56.3873   29.3613   42.7936 H   0  0  0  0  0  0  0  0  0  0  0  0
   59.4650   27.7500   45.0390 H   0  0  0  0  0  0  0  0  0  0  0  0
   61.5928   28.9706   45.8378 H   0  0  0  0  0  0  0  0  0  0  0  0
   57.0734   31.7213   46.6060 H   0  0  0  0  0  0  0  0  0  0  0  0
   58.3101   32.0038   47.8686 H   0  0  0  0  0  0  0  0  0  0  0  0
   58.2918   35.6610   44.2868 H   0  0  0  0  0  0  0  0  0  0  0  0
   61.9102   34.9062   47.0558 H   0  0  0  0  0  0  0  0  0  0  0  0
   64.1644   31.5907   48.6491 H   0  0  0  0  0  0  0  0  0  0  0  0
   62.4551   30.0012   47.7919 H   0  0  0  0  0  0  0  0  0  0  0  0
  1  2  1  0
  2  3  1  0
  3  4  1  0
  4  5  2  0
  4  6  1  0
  6  7  1  0
  7  8  2  0
  8  9  1  0
  9 10  1  0
 10 11  1  0
 11 12  1  0
 12 13  1  0
 13 14  2  0
 14 15  1  0
 15 16  2  0
 16 17  1  0
 17 18  2  0
 18 19  1  0
 19 20  1  0
 19 21  2  0
 21 22  1  0
 22 23  2  0
 10  6  2  0
 16 12  1  0
 23 17  1  0
 23  9  1  0
  1 24  1  0
  1 25  1  0
  1 26  1  0
  2 27  1  0
  2 28  1  0
  7 29  1  0
  8 30  1  0
 11 31  1  0
 11 32  1  0
 14 33  1  0
 18 34  1  0
 21 35  1  0
 22 36  1  0
M  CHG  1   7   1
M  END
>  <UniqueID>  (46) 
42

>  <SMILES>  (46) 
CCOC(=O)c1[nH+]cn2c1Cn1ncnc1-c1cc(F)ccc1-2

>  <Energy>  (46) 
112.29182862766454

>  <Genealogy>  (46) 
CCOC(=O)c1[nH+]cn2c1Cn1ncnc1-c1cc(F)ccc1-2 (protonated)
CCOC(=O)c1[nH+]cn2c1Cn1ncnc1-c1cc(F)ccc1-2 (3D coordinates assigned)
CCOC(=O)c1[nH+]cn2c1Cn1ncnc1-c1cc(F)ccc1-2 (nonaromatic ring conformer: 112.29182862766454 kcal/mol)

>  <smiles>  (46) 
CCOC(=O)c1ncn2c1Cn1ncnc1-c1cc(F)ccc1-2

>  <score_type>  (46) 
oracle

>  <origin>  (46) 
adg

>  <m_score__min__energy>  (46) 
-5.5099999999999998

>  <m_primary>  (46) 
energy

$$$$
46:0
     RDKit          3D

 56 60  0  0  0  0  0  0  0  0999 V2000
   60.3980   29.2760   46.8780 C   0  0  0  0  0  0  0  0  0  0  0  0
   59.3320   28.2680   46.5320 C   0  0  0  0  0  0  0  0  0  0  0  0
   59.4230   26.9650   47.0420 C   0  0  0  0  0  0  0  0  0  0  0  0
   58.4530   26.0130   46.7230 C   0  0  0  0  0  0  0  0  0  0  0  0
   57.3760   26.3730   45.9000 C   0  0  0  0  0  0  0  0  0  0  0  0
   56.3280   25.4020   45.5340 C   0  0  0  0  0  0  0  0  0  0  0  0
   55.1730   25.5400   46.0220 O   0  0  0  0  0  0  0  0  0  0  0  0
   56.6040   24.2800   44.6690 N   0  0  0  0  0  0  0  0  0  0  0  0
   57.9200   23.6770   44.5350 C   0  0  0  0  0  0  0  0  0  0  0  0
   57.6740   22.2530   44.0550 C   0  0  0  0  0  0  0  0  0  0  0  0
   56.2640   22.2600   43.4730 C   0  0  0  0  0  0  0  0  0  0  0  0
   55.5490   23.4180   44.1560 C   0  0  0  0  0  0  0  0  0  0  0  0
   57.3060   27.6380   45.4070 N   0  0  0  0  0  0  0  0  0  0  0  0
   58.2280   28.5940   45.7080 C   0  0  0  0  0  0  0  0  0  0  0  0
   58.0390   29.9480   45.1530 C   0  0  0  0  0  0  0  0  0  0  0  0
   57.7700   30.1060   43.7870 C   0  0  0  0  0  0  0  0  0  0  0  0
   57.5930   31.3830   43.2490 C   0  0  0  0  0  0  0  0  0  0  0  0
   57.6660   32.5080   44.0780 C   0  0  0  0  0  0  0  0  0  0  0  0
   57.8940   32.3640   45.4520 C   0  0  0  0  0  0  0  0  0  0  0  0
   57.9230   33.5440   46.2660 N   0  0  0  0  0  0  0  0  0  0  0  0
   59.2800   34.6050   46.4650 S   0  0  0  0  0  0  0  0  0  0  0  0
   59.6420   35.2490   45.1540 O   0  0  0  0  0  0  0  0  0  0  0  0
   58.9390   35.6700   47.4740 O   0  0  0  0  0  0  0  0  0  0  0  0
   60.6610   33.6470   47.0060 C   0  0  0  0  0  0  0  0  0  0  0  0
   61.9300   33.8360   46.4290 C   0  0  0  0  0  0  0  0  0  0  0  0
   63.0220   33.0590   46.8410 C   0  0  0  0  0  0  0  0  0  0  0  0
   62.8600   32.0850   47.8320 C   0  0  0  0  0  0  0  0  0  0  0  0
   61.6090   31.8920   48.4220 C   0  0  0  0  0  0  0  0  0  0  0  0
   61.4380   30.9470   49.3870 N   0  0  0  0  0  0  0  0  0  0  0  0
   60.2180   30.7410   49.9630 C   0  0  0  0  0  0  0  0  0  0  0  0
   59.1280   31.5210   49.5680 C   0  0  0  0  0  0  0  0  0  0  0  0
   59.2940   32.4660   48.6050 N   0  0  0  0  0  0  0  0  0  0  0  0
   60.5030   32.6750   48.0130 C   0  0  0  0  0  0  0  0  0  0  0  0
   58.0920   31.0780   45.9860 C   0  0  0  0  0  0  0  0  0  0  0  0
   60.4843   29.3576   47.9716 H   0  0  0  0  0  0  0  0  0  0  0  0
   61.3609   28.9504   46.4575 H   0  0  0  0  0  0  0  0  0  0  0  0
   60.1267   30.2556   46.4575 H   0  0  0  0  0  0  0  0  0  0  0  0
   60.2633   26.6914   47.6970 H   0  0  0  0  0  0  0  0  0  0  0  0
   58.5329   24.9881   47.1143 H   0  0  0  0  0  0  0  0  0  0  0  0
   58.5225   24.2308   43.8000 H   0  0  0  0  0  0  0  0  0  0  0  0
   58.4735   23.6951   45.4854 H   0  0  0  0  0  0  0  0  0  0  0  0
   58.4074   21.9746   43.2838 H   0  0  0  0  0  0  0  0  0  0  0  0
   57.7762   21.5226   44.8712 H   0  0  0  0  0  0  0  0  0  0  0  0
   56.2978   22.4170   42.3848 H   0  0  0  0  0  0  0  0  0  0  0  0
   55.7473   21.3038   43.6424 H   0  0  0  0  0  0  0  0  0  0  0  0
   54.9244   23.9637   43.4335 H   0  0  0  0  0  0  0  0  0  0  0  0
   54.8819   23.0690   44.9580 H   0  0  0  0  0  0  0  0  0  0  0  0
   57.6980   29.2220   43.1364 H   0  0  0  0  0  0  0  0  0  0  0  0
   57.3962   31.5042   42.1736 H   0  0  0  0  0  0  0  0  0  0  0  0
   57.5434   33.5127   43.6472 H   0  0  0  0  0  0  0  0  0  0  0  0
   62.0666   34.5992   45.6487 H   0  0  0  0  0  0  0  0  0  0  0  0
   64.0098   33.2159   46.3832 H   0  0  0  0  0  0  0  0  0  0  0  0
   63.7173   31.4716   48.1463 H   0  0  0  0  0  0  0  0  0  0  0  0
   60.0935   29.9658   50.7334 H   0  0  0  0  0  0  0  0  0  0  0  0
   58.1424   31.3714   50.0331 H   0  0  0  0  0  0  0  0  0  0  0  0
   58.2893   30.9564   47.0613 H   0  0  0  0  0  0  0  0  0  0  0  0
  1  2  1  0
  2  3  2  0
  3  4  1  0
  4  5  2  0
  5  6  1  0
  6  7  2  0
  6  8  1  0
  8  9  1  0
  9 10  1  0
 10 11  1  0
 11 12  1  0
  5 13  1  0
 13 14  2  0
 14 15  1  0
 15 16  2  0
 16 17  1  0
 17 18  2  0
 18 19  1  0
 19 20  1  0
 20 21  1  0
 21 22  2  0
 21 23  2  0
 21 24  1  0
 24 25  2  0
 25 26  1  0
 26 27  2  0
 27 28  1  0
 28 29  2  0
 29 30  1  0
 30 31  2  0
 31 32  1  0
 32 33  2  0
 19 34  2  0
 14  2  1  0
 34 15  1  0
 12  8  1  0
 33 24  1  0
 33 28  1  0
  1 35  1  0
  1 36  1  0
  1 37  1  0
  3 38  1  0
  4 39  1  0
  9 40  1  0
  9 41  1  0
 10 42  1  0
 10 43  1  0
 11 44  1  0
 11 45  1  0
 12 46  1  0
 12 47  1  0
 16 48  1  0
 17 49  1  0
 18 50  1  0
 25 51  1  0
 26 52  1  0
 27 53  1  0
 30 54  1  0
 31 55  1  0
 34 56  1  0
M  CHG  1  20  -1
M  END
>  <UniqueID>  (47) 
43

>  <SMILES>  (47) 
Cc1ccc(C(=O)N2CCCC2)nc1-c1cccc([N-]S(=O)(=O)c2cccc3nccnc23)c1

>  <Energy>  (47) 
81.8757245180663

>  <Genealogy>  (47) 
Cc1ccc(C(=O)N2CCCC2)nc1-c1cccc([N-]S(=O)(=O)c2cccc3nccnc23)c1 (protonated)
Cc1ccc(C(=O)N2CCCC2)nc1-c1cccc([N-]S(=O)(=O)c2cccc3nccnc23)c1 (3D coordinates assigned)
Cc1ccc(C(=O)N2CCCC2)nc1-c1cccc([N-]S(=O)(=O)c2cccc3nccnc23)c1 (nonaromatic ring conformer: 81.8757245180663 kcal/mol)

>  <smiles>  (47) 
Cc1ccc(C(=O)N2CCCC2)nc1-c1cccc(NS(=O)(=O)c2cccc3nccnc23)c1

>  <score_type>  (47) 
oracle

>  <origin>  (47) 
adg

>  <m_score__min__energy>  (47) 
-12.4

>  <m_primary>  (47) 
energy

$$$$
47:0
     RDKit          3D

 58 62  0  0  0  0  0  0  0  0999 V2000
   60.0300   27.7140   49.2760 N   0  0  0  0  0  0  0  0  0  0  0  0
   59.3880   28.1380   47.7260 S   0  0  0  0  0  0  0  0  0  0  0  0
   58.6200   29.4180   47.8670 O   0  0  0  0  0  0  0  0  0  0  0  0
   60.5260   28.3440   46.7650 O   0  0  0  0  0  0  0  0  0  0  0  0
   58.3230   26.8610   47.1080 C   0  0  0  0  0  0  0  0  0  0  0  0
   58.3170   25.6050   47.7370 C   0  0  0  0  0  0  0  0  0  0  0  0
   57.4700   24.5910   47.2850 C   0  0  0  0  0  0  0  0  0  0  0  0
   56.6160   24.8190   46.2040 C   0  0  0  0  0  0  0  0  0  0  0  0
   56.6170   26.0580   45.5630 C   0  0  0  0  0  0  0  0  0  0  0  0
   57.4730   27.0800   45.9970 C   0  0  0  0  0  0  0  0  0  0  0  0
   57.4700   28.3610   45.2680 C   0  0  0  0  0  0  0  0  0  0  0  0
   56.2570   28.9810   44.9330 C   0  0  0  0  0  0  0  0  0  0  0  0
   56.2530   30.1620   44.1870 C   0  0  0  0  0  0  0  0  0  0  0  0
   57.4640   30.7340   43.7590 C   0  0  0  0  0  0  0  0  0  0  0  0
   57.4530   31.9330   42.8900 C   0  0  0  0  0  0  0  0  0  0  0  0
   57.1440   31.8150   41.6750 O   0  0  0  0  0  0  0  0  0  0  0  0
   57.7650   33.2380   43.4000 N   0  0  0  0  0  0  0  0  0  0  0  0
   58.2500   33.5140   44.7210 C   0  0  0  0  0  0  0  0  0  0  0  0
   57.4720   33.1490   45.8240 C   0  0  0  0  0  0  0  0  0  0  0  0
   57.9600   33.3280   47.1220 C   0  0  0  0  0  0  0  0  0  0  0  0
   59.2320   33.8740   47.3300 C   0  0  0  0  0  0  0  0  0  0  0  0
   59.7240   33.9670   48.6410 O   0  0  0  0  0  0  0  0  0  0  0  0
   60.4030   32.9320   49.3020 C   0  0  0  0  0  0  0  0  0  0  0  0
   61.7860   32.8390   49.1470 C   0  0  0  0  0  0  0  0  0  0  0  0
   62.4730   31.7980   49.7700 C   0  0  0  0  0  0  0  0  0  0  0  0
   63.7200   31.6950   49.6230 O   0  0  0  0  0  0  0  0  0  0  0  0
   61.8230   30.9140   50.5170 O   0  0  0  0  0  0  0  0  0  0  0  0
   60.5080   30.9650   50.7260 C   0  0  0  0  0  0  0  0  0  0  0  0
   59.8790   30.0010   51.5520 C   0  0  0  0  0  0  0  0  0  0  0  0
   60.6340   28.9480   52.1930 N   0  0  0  0  0  0  0  0  0  0  0  0
   60.9350   29.0300   53.4050 O   0  0  0  0  0  0  0  0  0  0  0  0
   61.0260   27.8230   51.5030 O   0  0  0  0  0  0  0  0  0  0  0  0
   58.4880   30.0810   51.7500 C   0  0  0  0  0  0  0  0  0  0  0  0
   57.7390   31.1040   51.1680 C   0  0  0  0  0  0  0  0  0  0  0  0
   58.3570   32.0620   50.3680 C   0  0  0  0  0  0  0  0  0  0  0  0
   59.7380   31.9930   50.1200 C   0  0  0  0  0  0  0  0  0  0  0  0
   59.9830   34.3120   46.2240 C   0  0  0  0  0  0  0  0  0  0  0  0
   59.4900   34.1410   44.9310 C   0  0  0  0  0  0  0  0  0  0  0  0
   58.6780   30.1350   44.1440 C   0  0  0  0  0  0  0  0  0  0  0  0
   58.6810   28.9550   44.8930 C   0  0  0  0  0  0  0  0  0  0  0  0
   60.9650   28.1730   49.3530 H   0  0  0  0  0  0  0  0  0  0  0  0
   59.4190   28.1620   49.9930 H   0  0  0  0  0  0  0  0  0  0  0  0
   58.9842   25.4189   48.5916 H   0  0  0  0  0  0  0  0  0  0  0  0
   57.4755   23.6097   47.7820 H   0  0  0  0  0  0  0  0  0  0  0  0
   55.9423   24.0214   45.8578 H   0  0  0  0  0  0  0  0  0  0  0  0
   55.9424   26.2341   44.7122 H   0  0  0  0  0  0  0  0  0  0  0  0
   55.3055   28.5355   45.2590 H   0  0  0  0  0  0  0  0  0  0  0  0
   55.2985   30.6465   43.9334 H   0  0  0  0  0  0  0  0  0  0  0  0
   56.4713   32.7190   45.6698 H   0  0  0  0  0  0  0  0  0  0  0  0
   57.3412   33.0383   47.9841 H   0  0  0  0  0  0  0  0  0  0  0  0
   62.3286   33.5787   48.5400 H   0  0  0  0  0  0  0  0  0  0  0  0
   57.9844   29.3265   52.3722 H   0  0  0  0  0  0  0  0  0  0  0  0
   56.6540   31.1543   51.3420 H   0  0  0  0  0  0  0  0  0  0  0  0
   57.7614   32.8758   49.9286 H   0  0  0  0  0  0  0  0  0  0  0  0
   60.9612   34.7904   46.3796 H   0  0  0  0  0  0  0  0  0  0  0  0
   60.0748   34.4988   44.0708 H   0  0  0  0  0  0  0  0  0  0  0  0
   59.6319   30.5992   43.8531 H   0  0  0  0  0  0  0  0  0  0  0  0
   59.6348   28.4931   45.1878 H   0  0  0  0  0  0  0  0  0  0  0  0
  1  2  1  0
  2  3  2  0
  2  4  2  0
  2  5  1  0
  5  6  2  0
  6  7  1  0
  7  8  2  0
  8  9  1  0
  9 10  2  0
 10 11  1  0
 11 12  2  0
 12 13  1  0
 13 14  2  0
 14 15  1  0
 15 16  2  0
 15 17  1  0
 17 18  1  0
 18 19  2  0
 19 20  1  0
 20 21  2  0
 21 22  1  0
 22 23  1  0
 23 24  2  0
 24 25  1  0
 25 26  2  0
 25 27  1  0
 27 28  1  0
 28 29  2  0
 29 30  1  0
 30 31  2  0
 30 32  1  0
 29 33  1  0
 33 34  2  0
 34 35  1  0
 35 36  2  0
 21 37  1  0
 37 38  2  0
 14 39  1  0
 39 40  2  0
 10  5  1  0
 40 11  1  0
 38 18  1  0
 36 23  1  0
 36 28  1  0
  1 41  1  0
  1 42  1  0
  6 43  1  0
  7 44  1  0
  8 45  1  0
  9 46  1  0
 12 47  1  0
 13 48  1  0
 19 49  1  0
 20 50  1  0
 24 51  1  0
 33 52  1  0
 34 53  1  0
 35 54  1  0
 37 55  1  0
 38 56  1  0
 39 57  1  0
 40 58  1  0
M  CHG  3  17  -1  30   1  32  -1
M  END
>  <UniqueID>  (48) 
44

>  <SMILES>  (48) 
NS(=O)(=O)c1ccccc1-c1ccc(C(=O)[N-]c2ccc(Oc3cc(=O)oc4c([N+](=O)[O-])cccc34)cc2)cc1

>  <Energy>  (48) 
90.70674316868742

>  <Genealogy>  (48) 
NS(=O)(=O)c1ccccc1-c1ccc(C(=O)[N-]c2ccc(Oc3cc(=O)oc4c([N+](=O)[O-])cccc34)cc2)cc1 (protonated)
NS(=O)(=O)c1ccccc1-c1ccc(C(=O)[N-]c2ccc(Oc3cc(=O)oc4c([N+](=O)[O-])cccc34)cc2)cc1 (3D coordinates assigned)
NS(=O)(=O)c1ccccc1-c1ccc(C(=O)[N-]c2ccc(Oc3cc(=O)oc4c([N+](=O)[O-])cccc34)cc2)cc1 (optimized conformer: 90.70674316868742 kcal/mol)

>  <smiles>  (48) 
NS(=O)(=O)c1ccccc1-c1ccc(C(=O)Nc2ccc(Oc3cc(=O)oc4c([N+](=O)[O-])cccc34)cc2)cc1

>  <score_type>  (48) 
oracle

>  <origin>  (48) 
adg

>  <m_score__min__energy>  (48) 
-11.08

>  <m_primary>  (48) 
energy

$$$$
48:0
     RDKit          3D

 41 43  0  0  0  0  0  0  0  0999 V2000
   64.6070   32.8490   48.6250 N   0  0  0  0  0  0  0  0  0  0  0  0
   63.2600   33.7600   48.0360 S   0  0  0  0  0  0  0  0  0  0  0  0
   62.7580   34.6760   49.1170 O   0  0  0  0  0  0  0  0  0  0  0  0
   63.6940   34.5920   46.8620 O   0  0  0  0  0  0  0  0  0  0  0  0
   61.9780   32.6570   47.5470 C   0  0  0  0  0  0  0  0  0  0  0  0
   60.8850   33.1310   46.8130 C   0  0  0  0  0  0  0  0  0  0  0  0
   59.8600   32.2610   46.4320 C   0  0  0  0  0  0  0  0  0  0  0  0
   59.9100   30.8990   46.7880 C   0  0  0  0  0  0  0  0  0  0  0  0
   58.8720   29.9730   46.4130 N   0  0  0  0  0  0  0  0  0  0  0  0
   58.9080   29.1600   45.1930 C   0  0  2  0  0  0  0  0  0  0  0  0
   58.5510   29.9550   44.0930 O   0  0  0  0  0  0  0  0  0  0  0  0
   57.9580   28.0010   45.3150 C   0  0  0  0  0  0  0  0  0  0  0  0
   56.6660   28.0520   45.8040 C   0  0  0  0  0  0  0  0  0  0  0  0
   56.1620   26.7780   45.6490 C   0  0  0  0  0  0  0  0  0  0  0  0
   54.8680   26.3990   45.9840 O   0  0  0  0  0  0  0  0  0  0  0  0
   57.0780   25.9570   45.0900 N   0  0  0  0  0  0  0  0  0  0  0  0
   56.9200   24.5640   44.7580 C   0  0  0  0  0  0  0  0  0  0  0  0
   56.6480   24.1680   43.4360 C   0  0  0  0  0  0  0  0  0  0  0  0
   56.4880   22.8150   43.1230 C   0  0  0  0  0  0  0  0  0  0  0  0
   56.5920   21.8450   44.1240 C   0  0  0  0  0  0  0  0  0  0  0  0
   56.8540   22.2280   45.4430 C   0  0  0  0  0  0  0  0  0  0  0  0
   56.9830   21.0100   46.6990 Cl  0  0  0  0  0  0  0  0  0  0  0  0
   57.0140   23.5820   45.7600 C   0  0  0  0  0  0  0  0  0  0  0  0
   58.1780   26.7080   44.8700 C   0  0  0  0  0  0  0  0  0  0  0  0
   61.0080   30.4340   47.5310 C   0  0  0  0  0  0  0  0  0  0  0  0
   62.0330   31.3050   47.9100 C   0  0  0  0  0  0  0  0  0  0  0  0
   64.5380   31.8950   48.2040 H   0  0  0  0  0  0  0  0  0  0  0  0
   65.4680   33.2900   48.2340 H   0  0  0  0  0  0  0  0  0  0  0  0
   60.8324   34.1939   46.5345 H   0  0  0  0  0  0  0  0  0  0  0  0
   59.0081   32.6424   45.8500 H   0  0  0  0  0  0  0  0  0  0  0  0
   58.0470   29.8820   47.0510 H   0  0  0  0  0  0  0  0  0  0  0  0
   59.9259   28.7688   45.0486 H   0  0  0  0  0  0  0  0  0  0  0  0
   58.5070   29.3510   43.3060 H   0  0  0  0  0  0  0  0  0  0  0  0
   56.1487   28.9254   46.2277 H   0  0  0  0  0  0  0  0  0  0  0  0
   56.5607   24.9268   42.6444 H   0  0  0  0  0  0  0  0  0  0  0  0
   56.2797   22.5129   42.0860 H   0  0  0  0  0  0  0  0  0  0  0  0
   56.4678   20.7809   43.8743 H   0  0  0  0  0  0  0  0  0  0  0  0
   57.2146   23.8798   46.7998 H   0  0  0  0  0  0  0  0  0  0  0  0
   59.1085   26.3475   44.4072 H   0  0  0  0  0  0  0  0  0  0  0  0
   61.0614   29.3733   47.8174 H   0  0  0  0  0  0  0  0  0  0  0  0
   62.8851   30.9281   48.4948 H   0  0  0  0  0  0  0  0  0  0  0  0
  1  2  1  0
  2  3  2  0
  2  4  2  0
  2  5  1  0
  5  6  2  0
  6  7  1  0
  7  8  2  0
  8  9  1  0
  9 10  1  0
 10 11  1  0
 10 12  1  0
 12 13  1  0
 13 14  2  0
 14 15  1  0
 14 16  1  0
 16 17  1  0
 17 18  2  0
 18 19  1  0
 19 20  2  0
 20 21  1  0
 21 22  1  0
 21 23  2  0
 16 24  1  0
  8 25  1  0
 25 26  2  0
 26  5  1  0
 24 12  2  0
 23 17  1  0
  1 27  1  0
  1 28  1  0
  6 29  1  0
  7 30  1  0
  9 31  1  0
 10 32  1  6
 11 33  1  0
 13 34  1  0
 18 35  1  0
 19 36  1  0
 20 37  1  0
 23 38  1  0
 24 39  1  0
 25 40  1  0
 26 41  1  0
M  CHG  1  15  -1
M  END
>  <UniqueID>  (49) 
45

>  <SMILES>  (49) 
NS(=O)(=O)c1ccc(N[C@H](O)c2cc([O-])n(-c3cccc(Cl)c3)c2)cc1

>  <Energy>  (49) 
73.78218957805628

>  <Genealogy>  (49) 
NS(=O)(=O)c1ccc(NC(O)c2cc([O-])n(-c3cccc(Cl)c3)c2)cc1 (protonated)
NS(=O)(=O)c1ccc(N[C@H](O)c2cc([O-])n(-c3cccc(Cl)c3)c2)cc1 (chirality)
NS(=O)(=O)c1ccc(N[C@H](O)c2cc([O-])n(-c3cccc(Cl)c3)c2)cc1 (3D coordinates assigned)
NS(=O)(=O)c1ccc(N[C@H](O)c2cc([O-])n(-c3cccc(Cl)c3)c2)cc1 (optimized conformer: 73.78218957805628 kcal/mol)

>  <smiles>  (49) 
NS(=O)(=O)c1ccc(NC(O)c2cc(O)n(-c3cccc(Cl)c3)c2)cc1

>  <score_type>  (49) 
oracle

>  <origin>  (49) 
adg

>  <m_score__min__energy>  (49) 
-11.09

>  <m_primary>  (49) 
energy

$$$$
49:0
     RDKit          3D

 46 48  0  0  0  0  0  0  0  0999 V2000
   55.7200   24.1800   47.7330 O   0  0  0  0  0  0  0  0  0  0  0  0
   55.1500   24.4540   46.3700 S   0  0  0  0  0  0  0  0  0  0  0  0
   53.6900   24.0930   46.3700 O   0  0  0  0  0  0  0  0  0  0  0  0
   55.3310   26.1450   46.0030 N   0  0  0  0  0  0  0  0  0  0  0  0
   56.7210   26.4700   45.6700 C   0  0  0  0  0  0  0  0  0  0  0  0
   57.0250   27.9330   46.0050 C   0  0  0  0  0  0  0  0  0  0  0  0
   56.1790   28.8410   45.2250 N   0  0  0  0  0  0  0  0  0  0  0  0
   56.5640   29.8260   44.4630 C   0  0  0  0  0  0  0  0  0  0  0  0
   56.5660   29.7510   43.0550 C   0  0  0  0  0  0  0  0  0  0  0  0
   56.9800   30.8210   42.3300 N   0  0  0  0  0  0  0  0  0  0  0  0
   57.3940   31.9670   42.9290 C   0  0  0  0  0  0  0  0  0  0  0  0
   57.3930   32.0530   44.3250 C   0  0  0  0  0  0  0  0  0  0  0  0
   57.8220   33.2540   44.9800 N   0  0  0  0  0  0  0  0  0  0  0  0
   58.1090   33.2820   46.4140 C   0  0  0  0  0  0  0  0  0  0  0  0
   59.5710   33.0340   46.6670 C   0  0  0  0  0  0  0  0  0  0  0  0
   60.5030   34.0740   46.5140 C   0  0  0  0  0  0  0  0  0  0  0  0
   61.8570   33.8500   46.7840 C   0  0  0  0  0  0  0  0  0  0  0  0
   62.2870   32.5930   47.2150 C   0  0  0  0  0  0  0  0  0  0  0  0
   61.3640   31.5590   47.3850 C   0  0  0  0  0  0  0  0  0  0  0  0
   60.0090   31.7780   47.1180 C   0  0  0  0  0  0  0  0  0  0  0  0
   56.9780   30.9790   45.0510 N   0  0  0  0  0  0  0  0  0  0  0  0
   56.0180   23.4860   45.1820 C   0  0  0  0  0  0  0  0  0  0  0  0
   57.1760   22.7780   45.5420 C   0  0  0  0  0  0  0  0  0  0  0  0
   57.8520   22.0090   44.5900 C   0  0  0  0  0  0  0  0  0  0  0  0
   57.3770   21.9430   43.2760 C   0  0  0  0  0  0  0  0  0  0  0  0
   56.2270   22.6490   42.9130 C   0  0  0  0  0  0  0  0  0  0  0  0
   55.5480   23.4210   43.8620 C   0  0  0  0  0  0  0  0  0  0  0  0
   57.3934   25.8191   46.2481 H   0  0  0  0  0  0  0  0  0  0  0  0
   56.8747   26.3126   44.5922 H   0  0  0  0  0  0  0  0  0  0  0  0
   56.8406   28.1018   47.0762 H   0  0  0  0  0  0  0  0  0  0  0  0
   58.0770   28.1365   45.7564 H   0  0  0  0  0  0  0  0  0  0  0  0
   56.2347   28.8326   42.5482 H   0  0  0  0  0  0  0  0  0  0  0  0
   57.7275   32.8210   42.3212 H   0  0  0  0  0  0  0  0  0  0  0  0
   57.9360   34.1250   44.4110 H   0  0  0  0  0  0  0  0  0  0  0  0
   57.8344   34.2674   46.8183 H   0  0  0  0  0  0  0  0  0  0  0  0
   57.5249   32.4914   46.9078 H   0  0  0  0  0  0  0  0  0  0  0  0
   60.1670   35.0671   46.1810 H   0  0  0  0  0  0  0  0  0  0  0  0
   62.5844   34.6652   46.6567 H   0  0  0  0  0  0  0  0  0  0  0  0
   63.3532   32.4174   47.4206 H   0  0  0  0  0  0  0  0  0  0  0  0
   61.7033   30.5709   47.7294 H   0  0  0  0  0  0  0  0  0  0  0  0
   59.2835   30.9637   47.2617 H   0  0  0  0  0  0  0  0  0  0  0  0
   57.5518   22.8285   46.5746 H   0  0  0  0  0  0  0  0  0  0  0  0
   58.7587   21.4551   44.8747 H   0  0  0  0  0  0  0  0  0  0  0  0
   57.9085   21.3356   42.5287 H   0  0  0  0  0  0  0  0  0  0  0  0
   55.8548   22.5977   41.8791 H   0  0  0  0  0  0  0  0  0  0  0  0
   54.6445   23.9777   43.5726 H   0  0  0  0  0  0  0  0  0  0  0  0
  1  2  2  0
  2  3  2  0
  2  4  1  0
  4  5  1  0
  5  6  1  0
  6  7  1  0
  7  8  2  3
  8  9  1  0
  9 10  2  0
 10 11  1  0
 11 12  2  0
 12 13  1  0
 13 14  1  0
 14 15  1  0
 15 16  2  0
 16 17  1  0
 17 18  2  0
 18 19  1  0
 19 20  2  0
 12 21  1  0
  2 22  1  0
 22 23  2  0
 23 24  1  0
 24 25  2  0
 25 26  1  0
 26 27  2  0
 21  8  1  0
 27 22  1  0
 20 15  1  0
  5 28  1  0
  5 29  1  0
  6 30  1  0
  6 31  1  0
  9 32  1  0
 11 33  1  0
 13 34  1  0
 14 35  1  0
 14 36  1  0
 16 37  1  0
 17 38  1  0
 18 39  1  0
 19 40  1  0
 20 41  1  0
 23 42  1  0
 24 43  1  0
 25 44  1  0
 26 45  1  0
 27 46  1  0
M  CHG  2   4  -1  21  -1
M  END
>  <UniqueID>  (50) 
46

>  <SMILES>  (50) 
O=S(=O)([N-]CCN=c1cncc(NCc2ccccc2)[n-]1)c1ccccc1

>  <Energy>  (50) 
48.76511296002773

>  <Genealogy>  (50) 
O=S(=O)([N-]CCN=c1cncc(NCc2ccccc2)[n-]1)c1ccccc1 (protonated)
O=S(=O)([N-]CCN=c1cncc(NCc2ccccc2)[n-]1)c1ccccc1 (3D coordinates assigned)
O=S(=O)([N-]CCN=c1cncc(NCc2ccccc2)[n-]1)c1ccccc1 (optimized conformer: 48.76511296002773 kcal/mol)

>  <smiles>  (50) 
O=S(=O)(NCCN=c1cncc(NCc2ccccc2)[nH]1)c1ccccc1

>  <score_type>  (50) 
oracle

>  <origin>  (50) 
adg

>  <m_score__min__energy>  (50) 
-12.039999999999999

>  <m_primary>  (50) 
energy

$$$$
50:0
     RDKit          3D

 43 45  0  0  0  0  0  0  0  0999 V2000
   60.1490   30.5790   47.6580 C   0  0  0  0  0  0  0  0  0  0  0  0
   60.3030   29.3520   46.9540 O   0  0  0  0  0  0  0  0  0  0  0  0
   59.2390   28.5340   46.5450 C   0  0  0  0  0  0  0  0  0  0  0  0
   59.2980   27.1300   46.6070 C   0  0  0  0  0  0  0  0  0  0  0  0
   58.2100   26.3610   46.1890 C   0  0  0  0  0  0  0  0  0  0  0  0
   57.0560   26.9810   45.7050 C   0  0  0  0  0  0  0  0  0  0  0  0
   56.9830   28.3850   45.6330 C   0  0  0  0  0  0  0  0  0  0  0  0
   55.8500   29.0620   45.1500 O   0  0  0  0  0  0  0  0  0  0  0  0
   55.7600   29.7160   43.8850 C   0  0  0  0  0  0  0  0  0  0  0  0
   56.6840   30.8930   43.8360 C   0  0  0  0  0  0  0  0  0  0  0  0
   57.3400   31.3570   42.7130 C   0  0  0  0  0  0  0  0  0  0  0  0
   58.0600   32.4570   43.1300 C   0  0  0  0  0  0  0  0  0  0  0  0
   57.7930   32.5950   44.4820 C   0  0  0  0  0  0  0  0  0  0  0  0
   58.3220   33.6270   45.3900 C   0  0  0  0  0  0  0  0  0  0  0  0
   58.5580   34.7760   44.9300 O   0  0  0  0  0  0  0  0  0  0  0  0
   58.5670   33.3460   46.7780 N   0  0  0  0  0  0  0  0  0  0  0  0
   59.1630   34.3300   47.6790 C   0  0  0  0  0  0  0  0  0  0  0  0
   60.6460   34.1220   47.7620 C   0  0  0  0  0  0  0  0  0  0  0  0
   61.4000   33.8290   46.6150 C   0  0  0  0  0  0  0  0  0  0  0  0
   62.7750   33.6180   46.7350 C   0  0  0  0  0  0  0  0  0  0  0  0
   63.3840   33.6970   47.9890 C   0  0  0  0  0  0  0  0  0  0  0  0
   62.6020   33.9850   49.1110 C   0  0  0  0  0  0  0  0  0  0  0  0
   61.2640   34.1860   48.9750 N   0  0  0  0  0  0  0  0  0  0  0  0
   56.9660   31.6500   44.8700 O   0  0  0  0  0  0  0  0  0  0  0  0
   58.0780   29.1480   46.0580 C   0  0  0  0  0  0  0  0  0  0  0  0
   60.1732   30.3861   48.7407 H   0  0  0  0  0  0  0  0  0  0  0  0
   60.9685   31.2616   47.3888 H   0  0  0  0  0  0  0  0  0  0  0  0
   59.1862   31.0379   47.3888 H   0  0  0  0  0  0  0  0  0  0  0  0
   60.2047   26.6359   46.9862 H   0  0  0  0  0  0  0  0  0  0  0  0
   58.2620   25.2635   46.2411 H   0  0  0  0  0  0  0  0  0  0  0  0
   56.2012   26.3702   45.3790 H   0  0  0  0  0  0  0  0  0  0  0  0
   56.0349   29.0067   43.0905 H   0  0  0  0  0  0  0  0  0  0  0  0
   54.7280   30.0677   43.7391 H   0  0  0  0  0  0  0  0  0  0  0  0
   57.2972   30.9368   41.6973 H   0  0  0  0  0  0  0  0  0  0  0  0
   58.7125   33.0941   42.5149 H   0  0  0  0  0  0  0  0  0  0  0  0
   58.3040   32.4180   47.1780 H   0  0  0  0  0  0  0  0  0  0  0  0
   58.9583   35.3419   47.2992 H   0  0  0  0  0  0  0  0  0  0  0  0
   58.7263   34.2108   48.6815 H   0  0  0  0  0  0  0  0  0  0  0  0
   60.9124   33.7662   45.6310 H   0  0  0  0  0  0  0  0  0  0  0  0
   63.3774   33.3900   45.8433 H   0  0  0  0  0  0  0  0  0  0  0  0
   64.4670   33.5344   48.0927 H   0  0  0  0  0  0  0  0  0  0  0  0
   63.0692   34.0491   50.1048 H   0  0  0  0  0  0  0  0  0  0  0  0
   58.0255   30.2456   46.0086 H   0  0  0  0  0  0  0  0  0  0  0  0
  1  2  1  0
  2  3  1  0
  3  4  2  0
  4  5  1  0
  5  6  2  0
  6  7  1  0
  7  8  1  0
  8  9  1  0
  9 10  1  0
 10 11  2  0
 11 12  1  0
 12 13  2  0
 13 14  1  0
 14 15  2  0
 14 16  1  0
 16 17  1  0
 17 18  1  0
 18 19  2  0
 19 20  1  0
 20 21  2  0
 21 22  1  0
 22 23  2  0
 13 24  1  0
  7 25  2  0
 25  3  1  0
 24 10  1  0
 23 18  1  0
  1 26  1  0
  1 27  1  0
  1 28  1  0
  4 29  1  0
  5 30  1  0
  6 31  1  0
  9 32  1  0
  9 33  1  0
 11 34  1  0
 12 35  1  0
 16 36  1  0
 17 37  1  0
 17 38  1  0
 19 39  1  0
 20 40  1  0
 21 41  1  0
 22 42  1  0
 25 43  1  0
M  END
>  <UniqueID>  (51) 
47

>  <SMILES>  (51) 
COc1cccc(OCc2ccc(C(=O)NCc3ccccn3)o2)c1

>  <Energy>  (51) 
67.28281814502809

>  <Genealogy>  (51) 
COc1cccc(OCc2ccc(C(=O)NCc3ccccn3)o2)c1 (3D coordinates assigned)
COc1cccc(OCc2ccc(C(=O)NCc3ccccn3)o2)c1 (optimized conformer: 67.28281814502809 kcal/mol)

>  <smiles>  (51) 
COc1cccc(OCc2ccc(C(=O)NCc3ccccn3)o2)c1

>  <score_type>  (51) 
oracle

>  <origin>  (51) 
adg

>  <m_score__min__energy>  (51) 
-7.6900000000000004

>  <m_primary>  (51) 
energy

$$$$
51:0
     RDKit          3D

 57 61  0  0  0  0  0  0  0  0999 V2000
   52.6620   25.6100   45.1780 H   0  0  0  0  0  0  0  0  0  0  0  0
   53.3340   24.8180   45.2890 N   0  0  0  0  0  0  0  0  0  0  0  0
   54.5690   24.9980   45.6320 C   0  0  0  0  0  0  0  0  0  0  0  0
   54.9870   26.2400   45.9930 N   0  0  0  0  0  0  0  0  0  0  0  0
   56.2730   26.4910   46.3590 C   0  0  0  0  0  0  0  0  0  0  0  0
   56.5730   27.5096   46.6462 H   0  0  0  0  0  0  0  0  0  0  0  0
   57.2170   25.4540   46.3710 C   0  0  0  0  0  0  0  0  0  0  0  0
   58.6600   25.7270   46.7130 C   0  0  0  0  0  0  0  0  0  0  0  0
   58.8463   25.4206   47.7529 H   0  0  0  0  0  0  0  0  0  0  0  0
   59.2958   25.1562   46.0202 H   0  0  0  0  0  0  0  0  0  0  0  0
   58.9830   27.1670   46.5680 N   0  0  0  0  0  0  0  0  0  0  0  0
   58.9790   27.5480   45.1400 C   0  0  0  0  0  0  0  0  0  0  0  0
   59.9555   27.3049   44.6959 H   0  0  0  0  0  0  0  0  0  0  0  0
   58.1834   26.9929   44.6215 H   0  0  0  0  0  0  0  0  0  0  0  0
   58.7230   29.0170   45.0000 C   0  0  0  0  0  0  0  0  0  0  0  0
   58.1580   29.5630   43.8900 N   0  0  0  0  0  0  0  0  0  0  0  0
   58.1420   30.8700   44.1890 C   0  0  0  0  0  0  0  0  0  0  0  0
   57.6690   31.9190   43.4030 C   0  0  0  0  0  0  0  0  0  0  0  0
   57.2391   31.7359   42.4072 H   0  0  0  0  0  0  0  0  0  0  0  0
   57.7610   33.2210   43.9290 C   0  0  0  0  0  0  0  0  0  0  0  0
   57.3991   34.0759   43.3389 H   0  0  0  0  0  0  0  0  0  0  0  0
   58.3160   33.4370   45.2120 C   0  0  0  0  0  0  0  0  0  0  0  0
   58.3823   34.4587   45.6142 H   0  0  0  0  0  0  0  0  0  0  0  0
   58.7840   32.3520   45.9770 C   0  0  0  0  0  0  0  0  0  0  0  0
   59.2193   32.5046   46.9756 H   0  0  0  0  0  0  0  0  0  0  0  0
   58.6760   31.0780   45.4240 C   0  0  0  0  0  0  0  0  0  0  0  0
   59.0570   29.9130   45.9660 N   0  0  0  0  0  0  0  0  0  0  0  0
   60.2840   27.5050   47.1980 C   0  0  0  0  0  0  0  0  0  0  0  0
   60.8625   26.5828   47.3556 H   0  0  0  0  0  0  0  0  0  0  0  0
   60.8386   28.1861   46.5358 H   0  0  0  0  0  0  0  0  0  0  0  0
   60.0580   28.1780   48.5140 C   0  0  0  0  0  0  0  0  0  0  0  0
   59.2140   29.2170   48.6790 N   0  0  0  0  0  0  0  0  0  0  0  0
   59.2850   29.4550   50.0010 C   0  0  0  0  0  0  0  0  0  0  0  0
   58.4800   30.4640   50.6950 C   0  0  0  0  0  0  0  0  0  0  0  0
   57.5640   30.0980   51.4790 O   0  0  0  0  0  0  0  0  0  0  0  0
   58.7470   31.8560   50.4950 N   0  0  0  0  0  0  0  0  0  0  0  0
   58.9430   32.4550   49.1800 C   0  0  0  0  0  0  0  0  0  0  0  0
   58.5239   31.7895   48.4110 H   0  0  0  0  0  0  0  0  0  0  0  0
   58.4344   33.4298   49.1491 H   0  0  0  0  0  0  0  0  0  0  0  0
   60.4110   32.6570   48.9170 C   0  0  0  0  0  0  0  0  0  0  0  0
   61.1200   33.6790   49.5710 C   0  0  0  0  0  0  0  0  0  0  0  0
   60.5932   34.3607   50.2549 H   0  0  0  0  0  0  0  0  0  0  0  0
   62.4930   33.8320   49.3550 C   0  0  0  0  0  0  0  0  0  0  0  0
   63.0434   34.6346   49.8677 H   0  0  0  0  0  0  0  0  0  0  0  0
   63.1670   32.9670   48.4890 C   0  0  0  0  0  0  0  0  0  0  0  0
   64.4990   33.1160   48.2810 F   0  0  0  0  0  0  0  0  0  0  0  0
   62.4690   31.9470   47.8370 C   0  0  0  0  0  0  0  0  0  0  0  0
   62.9998   31.2683   47.1531 H   0  0  0  0  0  0  0  0  0  0  0  0
   61.0960   31.7880   48.0530 C   0  0  0  0  0  0  0  0  0  0  0  0
   60.5512   30.9792   47.5441 H   0  0  0  0  0  0  0  0  0  0  0  0
   60.1660   28.5710   50.5850 C   0  0  0  0  0  0  0  0  0  0  0  0
   60.4308   28.5238   51.6516 H   0  0  0  0  0  0  0  0  0  0  0  0
   60.6300   27.7970   49.6350 O   0  0  0  0  0  0  0  0  0  0  0  0
   56.8040   24.1630   46.0120 C   0  0  0  0  0  0  0  0  0  0  0  0
   57.5247   23.3321   46.0265 H   0  0  0  0  0  0  0  0  0  0  0  0
   55.4790   23.9300   45.6360 C   0  0  0  0  0  0  0  0  0  0  0  0
   55.1526   22.9203   45.3462 H   0  0  0  0  0  0  0  0  0  0  0  0
  1  2  1  0
  2  3  2  0
  3  4  1  0
  4  5  1  0
  5  6  1  0
  5  7  2  0
  7  8  1  0
  8  9  1  0
  8 10  1  0
  8 11  1  0
 11 12  1  0
 12 13  1  0
 12 14  1  0
 12 15  1  0
 15 16  2  0
 16 17  1  0
 17 18  2  0
 18 19  1  0
 18 20  1  0
 20 21  1  0
 20 22  2  0
 22 23  1  0
 22 24  1  0
 24 25  1  0
 24 26  2  0
 26 27  1  0
 11 28  1  0
 28 29  1  0
 28 30  1  0
 28 31  1  0
 31 32  2  0
 32 33  1  0
 33 34  1  0
 34 35  2  0
 34 36  1  0
 36 37  1  0
 37 38  1  0
 37 39  1  0
 37 40  1  0
 40 41  2  0
 41 42  1  0
 41 43  1  0
 43 44  1  0
 43 45  2  0
 45 46  1  0
 45 47  1  0
 47 48  1  0
 47 49  2  0
 49 50  1  0
 33 51  2  0
 51 52  1  0
 51 53  1  0
  7 54  1  0
 54 55  1  0
 54 56  2  0
 56 57  1  0
 56  3  1  0
 27 15  1  0
 53 31  1  0
 26 17  1  0
 49 40  1  0
M  CHG  3   4  -1  27  -1  36  -1
M  END
>  <UniqueID>  (52) 
48

>  <SMILES>  (52) 
[H]/N=c1\ccc(CN(Cc2nc3ccccc3[n-]2)Cc2nc(C(=O)[N-]Cc3ccc(F)cc3)co2)c[n-]1

>  <Energy>  (52) 
122.06718398197789

>  <Genealogy>  (52) 
N=c1ccc(CN(Cc2nc3ccccc3[n-]2)Cc2nc(C(=O)[N-]Cc3ccc(F)cc3)co2)c[n-]1 (protonated)
[H]/N=c1\ccc(CN(Cc2nc3ccccc3[n-]2)Cc2nc(C(=O)[N-]Cc3ccc(F)cc3)co2)c[n-]1 (cis-trans isomerization)
[H]/N=c1\ccc(CN(Cc2nc3ccccc3[n-]2)Cc2nc(C(=O)[N-]Cc3ccc(F)cc3)co2)c[n-]1 (3D coordinates assigned)
[H]/N=c1\ccc(CN(Cc2nc3ccccc3[n-]2)Cc2nc(C(=O)[N-]Cc3ccc(F)cc3)co2)c[n-]1 (optimized conformer: 122.06718398197789 kcal/mol)

>  <smiles>  (52) 
N=c1ccc(CN(Cc2nc3ccccc3[nH]2)Cc2nc(C(=O)NCc3ccc(F)cc3)co2)c[nH]1

>  <score_type>  (52) 
oracle

>  <origin>  (52) 
adg

>  <m_score__min__energy>  (52) 
-12.92

>  <m_primary>  (52) 
energy

$$$$
52:0
     RDKit          3D

 44 46  0  0  0  0  0  0  0  0999 V2000
   56.4780   24.4320   43.9410 C   0  0  0  0  0  0  0  0  0  0  0  0
   57.3160   25.3060   44.8480 C   0  0  0  0  0  0  0  0  0  0  0  0
   58.1060   26.3680   44.3340 C   0  0  0  0  0  0  0  0  0  0  0  0
   58.1480   26.6780   42.8500 C   0  0  0  0  0  0  0  0  0  0  0  0
   58.8700   27.1470   45.2390 C   0  0  0  0  0  0  0  0  0  0  0  0
   59.6900   28.2180   44.8260 C   0  0  0  0  0  0  0  0  0  0  0  0
   60.4210   28.9540   45.7620 C   0  0  0  0  0  0  0  0  0  0  0  0
   60.3530   28.6490   47.1240 C   0  0  0  0  0  0  0  0  0  0  0  0
   61.1050   29.4310   48.0160 O   0  0  0  0  0  0  0  0  0  0  0  0
   60.5790   30.1410   49.1380 C   0  0  0  0  0  0  0  0  0  0  0  0
   59.4050   30.9740   48.7270 C   0  0  0  0  0  0  0  0  0  0  0  0
   58.3070   30.8350   49.3290 O   0  0  0  0  0  0  0  0  0  0  0  0
   59.5620   31.9630   47.7020 N   0  0  0  0  0  0  0  0  0  0  0  0
   58.8290   32.0450   46.4730 C   0  0  0  0  0  0  0  0  0  0  0  0
   58.9880   33.1850   45.6740 C   0  0  0  0  0  0  0  0  0  0  0  0
   58.3070   33.2970   44.4580 C   0  0  0  0  0  0  0  0  0  0  0  0
   57.4720   32.2650   44.0240 C   0  0  0  0  0  0  0  0  0  0  0  0
   57.3160   31.1120   44.8050 C   0  0  0  0  0  0  0  0  0  0  0  0
   56.2950   29.7930   44.2400 S   0  0  0  0  0  0  0  0  0  0  0  0
   56.2970   28.5200   45.4080 N   0  0  0  0  0  0  0  0  0  0  0  0
   56.8100   29.2720   42.9280 O   0  0  0  0  0  0  0  0  0  0  0  0
   54.8890   30.2880   44.0430 O   0  0  0  0  0  0  0  0  0  0  0  0
   58.0060   30.9970   46.0200 C   0  0  0  0  0  0  0  0  0  0  0  0
   59.5450   27.5770   47.5450 C   0  0  0  0  0  0  0  0  0  0  0  0
   58.8090   26.8350   46.6160 C   0  0  0  0  0  0  0  0  0  0  0  0
   58.0530   25.8340   47.0470 O   0  0  0  0  0  0  0  0  0  0  0  0
   57.3240   25.0780   46.2390 C   0  0  0  0  0  0  0  0  0  0  0  0
   56.6370   24.1490   46.7430 O   0  0  0  0  0  0  0  0  0  0  0  0
   55.8446   23.7714   44.5512 H   0  0  0  0  0  0  0  0  0  0  0  0
   55.8418   25.0662   43.3062 H   0  0  0  0  0  0  0  0  0  0  0  0
   57.1383   23.8230   43.3062 H   0  0  0  0  0  0  0  0  0  0  0  0
   58.2944   27.7585   42.7051 H   0  0  0  0  0  0  0  0  0  0  0  0
   58.9800   26.1296   42.3843 H   0  0  0  0  0  0  0  0  0  0  0  0
   57.2000   26.3707   42.3843 H   0  0  0  0  0  0  0  0  0  0  0  0
   59.7544   28.4757   43.7586 H   0  0  0  0  0  0  0  0  0  0  0  0
   61.0581   29.7840   45.4225 H   0  0  0  0  0  0  0  0  0  0  0  0
   60.2607   29.4204   49.9057 H   0  0  0  0  0  0  0  0  0  0  0  0
   61.3612   30.8018   49.5398 H   0  0  0  0  0  0  0  0  0  0  0  0
   59.6525   33.9966   46.0053 H   0  0  0  0  0  0  0  0  0  0  0  0
   58.4292   34.2000   43.8418 H   0  0  0  0  0  0  0  0  0  0  0  0
   56.9361   32.3574   43.0678 H   0  0  0  0  0  0  0  0  0  0  0  0
   55.5230   27.8670   45.1490 H   0  0  0  0  0  0  0  0  0  0  0  0
   57.9036   30.0825   46.6227 H   0  0  0  0  0  0  0  0  0  0  0  0
   59.4918   27.3205   48.6134 H   0  0  0  0  0  0  0  0  0  0  0  0
  1  2  1  0
  2  3  2  0
  3  4  1  0
  3  5  1  0
  5  6  2  0
  6  7  1  0
  7  8  2  0
  8  9  1  0
  9 10  1  0
 10 11  1  0
 11 12  2  0
 11 13  1  0
 13 14  1  0
 14 15  2  0
 15 16  1  0
 16 17  2  0
 17 18  1  0
 18 19  1  0
 19 20  1  0
 19 21  2  0
 19 22  2  0
 18 23  2  0
  8 24  1  0
 24 25  2  0
 25 26  1  0
 26 27  1  0
 27 28  2  0
 27  2  1  0
 25  5  1  0
 23 14  1  0
  1 29  1  0
  1 30  1  0
  1 31  1  0
  4 32  1  0
  4 33  1  0
  4 34  1  0
  6 35  1  0
  7 36  1  0
 10 37  1  0
 10 38  1  0
 15 39  1  0
 16 40  1  0
 17 41  1  0
 20 42  1  0
 23 43  1  0
 24 44  1  0
M  CHG  2  13  -1  20  -1
M  END
>  <UniqueID>  (53) 
49

>  <SMILES>  (53) 
Cc1c(C)c2ccc(OCC(=O)[N-]c3cccc(S([NH-])(=O)=O)c3)cc2oc1=O

>  <Energy>  (53) 
57.918110707106386

>  <Genealogy>  (53) 
Cc1c(C)c2ccc(OCC(=O)[N-]c3cccc(S([NH-])(=O)=O)c3)cc2oc1=O (protonated)
Cc1c(C)c2ccc(OCC(=O)[N-]c3cccc(S([NH-])(=O)=O)c3)cc2oc1=O (3D coordinates assigned)
Cc1c(C)c2ccc(OCC(=O)[N-]c3cccc(S([NH-])(=O)=O)c3)cc2oc1=O (optimized conformer: 57.918110707106386 kcal/mol)

>  <smiles>  (53) 
Cc1c(C)c2ccc(OCC(=O)Nc3cccc(S(N)(=O)=O)c3)cc2oc1=O

>  <score_type>  (53) 
oracle

>  <origin>  (53) 
adg

>  <m_score__min__energy>  (53) 
-12.970000000000001

>  <m_primary>  (53) 
energy

$$$$
53:0
     RDKit          3D

 44 47  0  0  0  0  0  0  0  0999 V2000
   53.6580   26.7140   45.9610 H   0  0  0  0  0  0  0  0  0  0  0  0
   54.0530   25.7810   45.9110 O   0  0  0  0  0  0  0  0  0  0  0  0
   55.4010   25.5420   46.0930 N   0  0  0  0  0  0  0  0  0  0  0  0
   56.3120   26.4600   45.9830 C   0  0  0  0  0  0  0  0  0  0  0  0
   57.5920   26.1760   46.3290 N   0  0  0  0  0  0  0  0  0  0  0  0
   58.5550   27.1250   46.2170 C   0  0  0  0  0  0  0  0  0  0  0  0
   60.2390   26.7550   46.6870 S   0  0  0  0  0  0  0  0  0  0  0  0
   60.3660   28.2280   47.6970 C   0  0  0  0  0  0  0  0  0  0  0  0
   60.0430   28.1770   49.0580 C   0  0  0  0  0  0  0  0  0  0  0  0
   59.7311   27.2259   49.5142 H   0  0  0  0  0  0  0  0  0  0  0  0
   60.1170   29.3350   49.8370 C   0  0  0  0  0  0  0  0  0  0  0  0
   59.8889   29.2861   50.9120 H   0  0  0  0  0  0  0  0  0  0  0  0
   60.4800   30.5580   49.2570 C   0  0  0  0  0  0  0  0  0  0  0  0
   60.5500   31.7250   50.0830 N   0  0  0  0  0  0  0  0  0  0  0  0
   60.8650   33.0460   49.6240 C   0  0  0  0  0  0  0  0  0  0  0  0
   60.2330   34.0420   50.0710 O   0  0  0  0  0  0  0  0  0  0  0  0
   61.9610   33.2420   48.6680 C   0  0  0  0  0  0  0  0  0  0  0  0
   63.5440   32.7100   48.8740 S   0  0  0  0  0  0  0  0  0  0  0  0
   64.1280   33.2910   47.4080 C   0  0  0  0  0  0  0  0  0  0  0  0
   65.1598   33.1918   47.0399 H   0  0  0  0  0  0  0  0  0  0  0  0
   63.0820   33.9180   46.7420 C   0  0  0  0  0  0  0  0  0  0  0  0
   63.1975   34.3952   45.7576 H   0  0  0  0  0  0  0  0  0  0  0  0
   61.8680   33.8870   47.4380 C   0  0  0  0  0  0  0  0  0  0  0  0
   60.9364   34.3270   47.0527 H   0  0  0  0  0  0  0  0  0  0  0  0
   60.8200   30.6010   47.8920 C   0  0  0  0  0  0  0  0  0  0  0  0
   61.1279   31.5518   47.4325 H   0  0  0  0  0  0  0  0  0  0  0  0
   60.7670   29.4370   47.1190 C   0  0  0  0  0  0  0  0  0  0  0  0
   61.0412   29.4721   46.0543 H   0  0  0  0  0  0  0  0  0  0  0  0
   58.2360   28.3650   45.7670 N   0  0  0  0  0  0  0  0  0  0  0  0
   56.9520   28.6630   45.4320 C   0  0  0  0  0  0  0  0  0  0  0  0
   56.6260   29.8420   44.9900 N   0  0  0  0  0  0  0  0  0  0  0  0
   57.3750   31.0570   45.1660 C   0  0  0  0  0  0  0  0  0  0  0  0
   57.9910   31.3740   46.3920 C   0  0  0  0  0  0  0  0  0  0  0  0
   57.9443   30.6619   47.2291 H   0  0  0  0  0  0  0  0  0  0  0  0
   58.6620   32.5910   46.5490 C   0  0  0  0  0  0  0  0  0  0  0  0
   59.1543   32.8276   47.5038 H   0  0  0  0  0  0  0  0  0  0  0  0
   58.7080   33.5090   45.4920 C   0  0  0  0  0  0  0  0  0  0  0  0
   59.3850   34.7700   45.6590 C   0  0  0  0  0  0  0  0  0  0  0  0
   59.9290   35.7830   45.7970 N   0  0  0  0  0  0  0  0  0  0  0  0
   58.0740   33.2080   44.2800 C   0  0  0  0  0  0  0  0  0  0  0  0
   58.1057   33.9288   43.4496 H   0  0  0  0  0  0  0  0  0  0  0  0
   57.4000   31.9910   44.1240 C   0  0  0  0  0  0  0  0  0  0  0  0
   56.8871   31.7675   43.1769 H   0  0  0  0  0  0  0  0  0  0  0  0
   55.9970   27.7040   45.5290 N   0  0  0  0  0  0  0  0  0  0  0  0
  1  2  1  0
  2  3  1  0
  3  4  2  3
  4  5  1  0
  5  6  2  0
  6  7  1  0
  7  8  1  0
  8  9  2  0
  9 10  1  0
  9 11  1  0
 11 12  1  0
 11 13  2  0
 13 14  1  0
 14 15  1  0
 15 16  2  0
 15 17  1  0
 17 18  1  0
 18 19  1  0
 19 20  1  0
 19 21  2  0
 21 22  1  0
 21 23  1  0
 23 24  1  0
 13 25  1  0
 25 26  1  0
 25 27  2  0
 27 28  1  0
  6 29  1  0
 29 30  1  0
 30 31  2  0
 31 32  1  0
 32 33  2  0
 33 34  1  0
 33 35  1  0
 35 36  1  0
 35 37  2  0
 37 38  1  0
 38 39  3  0
 37 40  1  0
 40 41  1  0
 40 42  2  0
 42 43  1  0
 30 44  1  0
 44  4  1  0
 27  8  1  0
 42 32  1  0
 23 17  2  0
M  CHG  3  14  -1  29  -1  44  -1
M  END
>  <UniqueID>  (54) 
50

>  <SMILES>  (54) 
N#Cc1ccc(/N=c2\[n-]c(Sc3ccc([N-]C(=O)c4cccs4)cc3)nc(=NO)[n-]2)cc1

>  <Energy>  (54) 
79.91349573700046

>  <Genealogy>  (54) 
N#Cc1ccc(N=c2[n-]c(Sc3ccc([N-]C(=O)c4cccs4)cc3)nc(=NO)[n-]2)cc1 (protonated)
N#Cc1ccc(/N=c2\[n-]c(Sc3ccc([N-]C(=O)c4cccs4)cc3)nc(=NO)[n-]2)cc1 (cis-trans isomerization)
N#Cc1ccc(/N=c2\[n-]c(Sc3ccc([N-]C(=O)c4cccs4)cc3)nc(=NO)[n-]2)cc1 (3D coordinates assigned)
N#Cc1ccc(/N=c2\[n-]c(Sc3ccc([N-]C(=O)c4cccs4)cc3)nc(=NO)[n-]2)cc1 (optimized conformer: 79.91349573700046 kcal/mol)

>  <smiles>  (54) 
N#Cc1ccc(N=c2[nH]c(Sc3ccc(NC(=O)c4cccs4)cc3)nc(=NO)[nH]2)cc1

>  <score_type>  (54) 
oracle

>  <origin>  (54) 
adg

>  <m_score__min__energy>  (54) 
-14.25

>  <m_primary>  (54) 
energy

$$$$
54:0
     RDKit          3D

 33 34  0  0  0  0  0  0  0  0999 V2000
   55.1440   29.3330   44.8710 N   0  0  0  0  0  0  0  0  0  0  0  0
   56.7640   29.5710   44.3190 S   0  0  0  0  0  0  0  0  0  0  0  0
   57.2320   28.3360   43.6000 O   0  0  0  0  0  0  0  0  0  0  0  0
   56.8050   30.7290   43.3620 O   0  0  0  0  0  0  0  0  0  0  0  0
   57.8240   29.8820   45.6880 C   0  0  0  0  0  0  0  0  0  0  0  0
   58.4420   31.4140   46.0620 S   0  0  0  0  0  0  0  0  0  0  0  0
   59.1790   30.9170   47.4850 C   0  0  0  0  0  0  0  0  0  0  0  0
   59.8940   31.6830   48.3430 N   0  0  0  0  0  0  0  0  0  0  0  0
   60.4270   31.1230   49.4670 C   0  0  0  0  0  0  0  0  0  0  0  0
   61.3490   32.1420   50.5610 Cl  0  0  0  0  0  0  0  0  0  0  0  0
   60.2350   29.7460   49.7360 C   0  0  0  0  0  0  0  0  0  0  0  0
   60.9110   28.9920   51.1720 Cl  0  0  0  0  0  0  0  0  0  0  0  0
   59.4910   28.9620   48.8390 C   0  0  0  0  0  0  0  0  0  0  0  0
   58.9580   29.5710   47.7010 C   0  0  0  0  0  0  0  0  0  0  0  0
   58.2030   28.9710   46.6850 C   0  0  0  0  0  0  0  0  0  0  0  0
   57.8270   27.5890   46.7050 N   0  0  0  0  0  0  0  0  0  0  0  0
   58.7820   26.5320   46.5330 C   0  0  0  0  0  0  0  0  0  0  0  0
   60.0000   26.7980   46.3530 O   0  0  0  0  0  0  0  0  0  0  0  0
   58.3470   25.0990   46.6250 C   0  0  0  0  0  0  0  0  0  0  0  0
   57.9300   24.5410   45.2540 C   0  0  0  0  0  0  0  0  0  0  0  0
   56.6060   25.1220   44.7290 C   0  0  0  0  0  0  0  0  0  0  0  0
   55.6440   25.4160   45.8380 C   0  0  0  0  0  0  0  0  0  0  0  0
   55.2740   24.4980   46.6150 O   0  0  0  0  0  0  0  0  0  0  0  0
   55.1450   26.7020   46.0060 O   0  0  0  0  0  0  0  0  0  0  0  0
   55.1880   28.6460   45.6570 H   0  0  0  0  0  0  0  0  0  0  0  0
   59.3315   27.8903   49.0290 H   0  0  0  0  0  0  0  0  0  0  0  0
   56.8680   27.3470   47.0410 H   0  0  0  0  0  0  0  0  0  0  0  0
   59.1812   24.4978   47.0156 H   0  0  0  0  0  0  0  0  0  0  0  0
   57.4760   25.0478   47.2949 H   0  0  0  0  0  0  0  0  0  0  0  0
   58.7235   24.7729   44.5283 H   0  0  0  0  0  0  0  0  0  0  0  0
   57.7801   23.4584   45.3786 H   0  0  0  0  0  0  0  0  0  0  0  0
   56.8180   26.0549   44.1860 H   0  0  0  0  0  0  0  0  0  0  0  0
   56.1445   24.3733   44.0683 H   0  0  0  0  0  0  0  0  0  0  0  0
  1  2  1  0
  2  3  2  0
  2  4  2  0
  2  5  1  0
  5  6  1  0
  6  7  1  0
  7  8  2  0
  8  9  1  0
  9 10  1  0
  9 11  2  0
 11 12  1  0
 11 13  1  0
 13 14  2  0
 14 15  1  0
 15 16  1  0
 16 17  1  0
 17 18  2  0
 17 19  1  0
 19 20  1  0
 20 21  1  0
 21 22  1  0
 22 23  2  0
 22 24  1  0
 15  5  2  0
 14  7  1  0
  1 25  1  0
 13 26  1  0
 16 27  1  0
 19 28  1  0
 19 29  1  0
 20 30  1  0
 20 31  1  0
 21 32  1  0
 21 33  1  0
M  CHG  2   1  -1  24  -1
M  END
>  <UniqueID>  (55) 
51

>  <SMILES>  (55) 
[NH-]S(=O)(=O)c1sc2nc(Cl)c(Cl)cc2c1NC(=O)CCCC(=O)[O-]

>  <Energy>  (55) 
65.50762802469178

>  <Genealogy>  (55) 
[NH-]S(=O)(=O)c1sc2nc(Cl)c(Cl)cc2c1NC(=O)CCCC(=O)[O-] (protonated)
[NH-]S(=O)(=O)c1sc2nc(Cl)c(Cl)cc2c1NC(=O)CCCC(=O)[O-] (3D coordinates assigned)
[NH-]S(=O)(=O)c1sc2nc(Cl)c(Cl)cc2c1NC(=O)CCCC(=O)[O-] (optimized conformer: 65.50762802469178 kcal/mol)

>  <smiles>  (55) 
NS(=O)(=O)c1sc2nc(Cl)c(Cl)cc2c1NC(=O)CCCC(=O)O

>  <score_type>  (55) 
oracle

>  <origin>  (55) 
adg

>  <m_score__min__energy>  (55) 
-13.369999999999999

>  <m_primary>  (55) 
energy

$$$$
55:0
     RDKit          3D

 25 26  0  0  0  0  0  0  0  0999 V2000
   57.1880   27.7840   45.6530 O   0  0  0  0  0  0  0  0  0  0  0  0
   56.7860   28.7760   44.9930 C   0  0  0  0  0  0  0  0  0  0  0  0
   57.5470   29.4940   44.1220 C   0  0  0  0  0  0  0  0  0  0  0  0
   56.7320   30.5210   43.5870 C   0  0  0  0  0  0  0  0  0  0  0  0
   57.2940   31.4520   42.6010 C   0  0  0  0  0  0  0  0  0  0  0  0
   58.0290   32.6300   43.0350 C   0  0  0  0  0  0  0  0  0  0  0  0
   58.0020   33.0740   44.4110 C   0  0  0  0  0  0  0  0  0  0  0  0
   59.1970   33.6020   44.9400 C   0  0  0  0  0  0  0  0  0  0  0  0
   59.2500   34.0100   46.2520 C   0  0  0  0  0  0  0  0  0  0  0  0
   58.1640   33.9220   47.0860 C   0  0  0  0  0  0  0  0  0  0  0  0
   57.0280   33.4180   46.5770 N   0  0  0  0  0  0  0  0  0  0  0  0
   56.9570   33.0150   45.3000 C   0  0  0  0  0  0  0  0  0  0  0  0
   55.5650   30.3530   44.1630 N   0  0  0  0  0  0  0  0  0  0  0  0
   55.5610   29.3150   45.0120 N   0  0  0  0  0  0  0  0  0  0  0  0
   58.6037   29.3097   43.8780 H   0  0  0  0  0  0  0  0  0  0  0  0
   57.9795   30.8673   41.9700 H   0  0  0  0  0  0  0  0  0  0  0  0
   56.3990   31.8794   42.1252 H   0  0  0  0  0  0  0  0  0  0  0  0
   59.0851   32.4444   42.7897 H   0  0  0  0  0  0  0  0  0  0  0  0
   57.5011   33.4426   42.5144 H   0  0  0  0  0  0  0  0  0  0  0  0
   60.0890   33.6878   44.3020 H   0  0  0  0  0  0  0  0  0  0  0  0
   60.1922   34.4196   46.6452 H   0  0  0  0  0  0  0  0  0  0  0  0
   58.2218   34.2523   48.1336 H   0  0  0  0  0  0  0  0  0  0  0  0
   55.9990   32.6107   44.9411 H   0  0  0  0  0  0  0  0  0  0  0  0
   54.7250   30.9220   44.0220 H   0  0  0  0  0  0  0  0  0  0  0  0
   54.7680   28.9680   45.5940 H   0  0  0  0  0  0  0  0  0  0  0  0
  1  2  2  0
  2  3  1  0
  3  4  2  0
  4  5  1  0
  5  6  1  0
  6  7  1  0
  7  8  2  0
  8  9  1  0
  9 10  2  0
 10 11  1  0
 11 12  2  0
  4 13  1  0
 13 14  1  0
 14  2  1  0
 12  7  1  0
  3 15  1  0
  5 16  1  0
  5 17  1  0
  6 18  1  0
  6 19  1  0
  8 20  1  0
  9 21  1  0
 10 22  1  0
 12 23  1  0
 13 24  1  0
 14 25  1  0
M  END
>  <smiles>  (56) 
O=c1cc(CCc2cccnc2)[nH][nH]1

>  <score_type>  (56) 
oracle

>  <origin>  (56) 
adg

>  <m_score__min__energy>  (56) 
-6.25

>  <m_primary>  (56) 
energy

$$$$
56:0
     RDKit          3D

 60 64  0  0  0  0  0  0  0  0999 V2000
   57.7590   33.0690   43.8530 O   0  0  0  0  0  0  0  0  0  0  0  0
   57.7330   32.2490   44.8090 C   0  0  0  0  0  0  0  0  0  0  0  0
   56.8570   31.1200   44.7300 N   0  0  0  0  0  0  0  0  0  0  0  0
   57.2580   29.7590   44.9340 C   0  0  0  0  0  0  0  0  0  0  0  0
   58.5940   29.3590   44.7930 C   0  0  0  0  0  0  0  0  0  0  0  0
   58.9520   28.0220   44.9830 C   0  0  0  0  0  0  0  0  0  0  0  0
   57.9850   27.0600   45.3210 C   0  0  0  0  0  0  0  0  0  0  0  0
   58.4060   25.6410   45.5060 C   0  0  0  0  0  0  0  0  0  0  0  0
   59.4400   25.4170   46.1960 O   0  0  0  0  0  0  0  0  0  0  0  0
   57.6780   24.5070   44.9570 N   0  0  2  0  0  0  0  0  0  0  0  0
   58.3370   23.2100   45.2850 C   0  0  0  0  0  0  0  0  0  0  0  0
   58.3770   22.2210   44.1040 C   0  0  0  0  0  0  0  0  0  0  0  0
   57.0230   22.1480   43.3810 C   0  0  1  0  0  0  0  0  0  0  0  0
   56.0920   21.4470   44.2170 O   0  0  0  0  0  0  0  0  0  0  0  0
   55.5700   21.9210   45.4250 C   0  0  0  0  0  0  0  0  0  0  0  0
   56.0540   21.3640   46.6170 C   0  0  0  0  0  0  0  0  0  0  0  0
   55.5600   21.7910   47.8530 C   0  0  0  0  0  0  0  0  0  0  0  0
   54.5840   22.7910   47.9110 C   0  0  0  0  0  0  0  0  0  0  0  0
   54.1010   23.3590   46.7280 C   0  0  0  0  0  0  0  0  0  0  0  0
   54.5840   22.9250   45.4880 C   0  0  0  0  0  0  0  0  0  0  0  0
   56.4820   23.5540   43.0070 C   0  0  0  0  0  0  0  0  0  0  0  0
   57.3680   24.6960   43.5230 C   0  0  0  0  0  0  0  0  0  0  0  0
   56.6460   27.4690   45.4410 C   0  0  0  0  0  0  0  0  0  0  0  0
   56.2870   28.8030   45.2420 C   0  0  0  0  0  0  0  0  0  0  0  0
   58.5370   32.4890   45.9750 N   0  0  0  0  0  0  0  0  0  0  0  0
   59.6100   33.4910   46.0100 C   0  0  0  0  0  0  0  0  0  0  0  0
   59.9420   33.5700   47.4550 C   0  0  0  0  0  0  0  0  0  0  0  0
   60.9120   34.3620   48.0700 C   0  0  0  0  0  0  0  0  0  0  0  0
   61.0560   34.2810   49.4660 C   0  0  0  0  0  0  0  0  0  0  0  0
   60.2340   33.4190   50.2180 C   0  0  0  0  0  0  0  0  0  0  0  0
   59.2590   32.6340   49.5790 C   0  0  0  0  0  0  0  0  0  0  0  0
   59.1330   32.7300   48.1910 C   0  0  0  0  0  0  0  0  0  0  0  0
   58.1930   31.9960   47.3130 C   0  0  0  0  0  0  0  0  0  0  0  0
   59.3634   30.1005   44.5318 H   0  0  0  0  0  0  0  0  0  0  0  0
   60.0030   27.7188   44.8667 H   0  0  0  0  0  0  0  0  0  0  0  0
   56.7470   24.4960   45.4390 H   0  0  0  0  0  0  0  0  0  0  0  0
   59.3703   23.4154   45.6014 H   0  0  0  0  0  0  0  0  0  0  0  0
   57.7413   22.7381   46.0802 H   0  0  0  0  0  0  0  0  0  0  0  0
   59.1460   22.5494   43.3893 H   0  0  0  0  0  0  0  0  0  0  0  0
   58.6098   21.2215   44.5000 H   0  0  0  0  0  0  0  0  0  0  0  0
   57.1589   21.6062   42.4334 H   0  0  0  0  0  0  0  0  0  0  0  0
   56.8291   20.5843   46.5794 H   0  0  0  0  0  0  0  0  0  0  0  0
   55.9396   21.3397   48.7816 H   0  0  0  0  0  0  0  0  0  0  0  0
   54.1977   23.1295   48.8837 H   0  0  0  0  0  0  0  0  0  0  0  0
   53.3382   24.1503   46.7721 H   0  0  0  0  0  0  0  0  0  0  0  0
   54.1927   23.3689   44.5607 H   0  0  0  0  0  0  0  0  0  0  0  0
   56.4212   23.6257   41.9110 H   0  0  0  0  0  0  0  0  0  0  0  0
   55.4958   23.6633   43.4819 H   0  0  0  0  0  0  0  0  0  0  0  0
   58.3065   24.7130   42.9494 H   0  0  0  0  0  0  0  0  0  0  0  0
   56.8291   25.6469   43.3989 H   0  0  0  0  0  0  0  0  0  0  0  0
   55.8721   26.7295   45.6946 H   0  0  0  0  0  0  0  0  0  0  0  0
   55.2324   29.1036   45.3283 H   0  0  0  0  0  0  0  0  0  0  0  0
   60.4789   33.1612   45.4216 H   0  0  0  0  0  0  0  0  0  0  0  0
   59.3153   34.4588   45.5781 H   0  0  0  0  0  0  0  0  0  0  0  0
   61.5492   35.0341   47.4764 H   0  0  0  0  0  0  0  0  0  0  0  0
   61.8149   34.8942   49.9740 H   0  0  0  0  0  0  0  0  0  0  0  0
   60.3557   33.3600   51.3097 H   0  0  0  0  0  0  0  0  0  0  0  0
   58.6105   31.9600   50.1580 H   0  0  0  0  0  0  0  0  0  0  0  0
   58.3499   30.9097   47.3864 H   0  0  0  0  0  0  0  0  0  0  0  0
   57.1375   32.1585   47.5765 H   0  0  0  0  0  0  0  0  0  0  0  0
  1  2  2  0
  2  3  1  0
  3  4  1  0
  4  5  2  0
  5  6  1  0
  6  7  2  0
  7  8  1  0
  8  9  2  0
  8 10  1  0
 10 11  1  0
 11 12  1  0
 12 13  1  0
 13 14  1  0
 14 15  1  0
 15 16  2  0
 16 17  1  0
 17 18  2  0
 18 19  1  0
 19 20  2  0
 13 21  1  0
 21 22  1  0
  7 23  1  0
 23 24  2  0
  2 25  1  0
 25 26  1  0
 26 27  1  0
 27 28  2  0
 28 29  1  0
 29 30  2  0
 30 31  1  0
 31 32  2  0
 32 33  1  0
 24  4  1  0
 33 25  1  0
 22 10  1  0
 32 27  1  0
 20 15  1  0
  5 34  1  0
  6 35  1  0
 10 36  1  1
 11 37  1  0
 11 38  1  0
 12 39  1  0
 12 40  1  0
 13 41  1  6
 16 42  1  0
 17 43  1  0
 18 44  1  0
 19 45  1  0
 20 46  1  0
 21 47  1  0
 21 48  1  0
 22 49  1  0
 22 50  1  0
 23 51  1  0
 24 52  1  0
 26 53  1  0
 26 54  1  0
 28 55  1  0
 29 56  1  0
 30 57  1  0
 31 58  1  0
 33 59  1  0
 33 60  1  0
M  CHG  2   3  -1  10   1
M  END
>  <UniqueID>  (57) 
52

>  <SMILES>  (57) 
O=C([N-]c1ccc(C(=O)[NH+]2CCC(Oc3ccccc3)CC2)cc1)N1Cc2ccccc2C1

>  <Energy>  (57) 
96.59047421746082

>  <Genealogy>  (57) 
O=C([N-]c1ccc(C(=O)[NH+]2CCC(Oc3ccccc3)CC2)cc1)N1Cc2ccccc2C1 (protonated)
O=C([N-]c1ccc(C(=O)[NH+]2CCC(Oc3ccccc3)CC2)cc1)N1Cc2ccccc2C1 (3D coordinates assigned)
O=C([N-]c1ccc(C(=O)[NH+]2CCC(Oc3ccccc3)CC2)cc1)N1Cc2ccccc2C1 (nonaromatic ring conformer: 96.59047421746082 kcal/mol)

>  <smiles>  (57) 
O=C(Nc1ccc(C(=O)N2CCC(Oc3ccccc3)CC2)cc1)N1Cc2ccccc2C1

>  <score_type>  (57) 
oracle

>  <origin>  (57) 
adg

>  <m_score__min__energy>  (57) 
-9.3300000000000001

>  <m_primary>  (57) 
energy

$$$$
57:0
     RDKit          3D

 53 56  0  0  0  0  0  0  0  0999 V2000
   57.7800   32.3480   47.8050 C   0  0  0  0  0  0  0  0  0  0  0  0
   58.3500   33.0480   46.6010 C   0  0  0  0  0  0  0  0  0  0  0  0
   59.3860   33.9800   46.7880 C   0  0  0  0  0  0  0  0  0  0  0  0
   59.9790   34.6100   45.6910 C   0  0  0  0  0  0  0  0  0  0  0  0
   59.5480   34.3150   44.3980 C   0  0  0  0  0  0  0  0  0  0  0  0
   58.5090   33.4060   44.1980 C   0  0  0  0  0  0  0  0  0  0  0  0
   57.8780   32.7960   45.2890 C   0  0  0  0  0  0  0  0  0  0  0  0
   56.7910   31.9010   45.0280 N   0  0  0  0  0  0  0  0  0  0  0  0
   56.9340   30.4850   44.8780 C   0  0  0  0  0  0  0  0  0  0  0  0
   55.9230   29.7340   44.9030 O   0  0  0  0  0  0  0  0  0  0  0  0
   58.2810   29.9010   44.5810 C   0  0  0  0  0  0  0  0  0  0  0  0
   58.7450   29.0890   45.7300 N   0  0  0  0  0  0  0  0  0  0  0  0
   59.7090   29.6280   46.5520 C   0  0  0  0  0  0  0  0  0  0  0  0
   60.1670   30.7820   46.3030 O   0  0  0  0  0  0  0  0  0  0  0  0
   60.1700   28.9450   47.6500 N   0  0  0  0  0  0  0  0  0  0  0  0
   61.1150   29.5940   48.5870 C   0  0  0  0  0  0  0  0  0  0  0  0
   60.6430   31.0080   48.9640 C   0  0  0  0  0  0  0  0  0  0  0  0
   61.6720   32.0570   48.6210 C   0  0  0  0  0  0  0  0  0  0  0  0
   61.7150   33.2670   49.3360 C   0  0  0  0  0  0  0  0  0  0  0  0
   62.6250   34.2640   48.9770 C   0  0  0  0  0  0  0  0  0  0  0  0
   63.4930   34.0680   47.9000 C   0  0  0  0  0  0  0  0  0  0  0  0
   63.4520   32.8700   47.1810 C   0  0  0  0  0  0  0  0  0  0  0  0
   62.5450   31.8670   47.5370 C   0  0  0  0  0  0  0  0  0  0  0  0
   59.6920   27.6960   47.9340 C   0  0  0  0  0  0  0  0  0  0  0  0
   60.1390   27.0600   48.9310 O   0  0  0  0  0  0  0  0  0  0  0  0
   58.6910   27.1260   47.1380 C   0  0  0  0  0  0  0  0  0  0  0  0
   58.1620   25.8550   47.4430 C   0  0  0  0  0  0  0  0  0  0  0  0
   57.1300   25.3180   46.6770 C   0  0  0  0  0  0  0  0  0  0  0  0
   56.6090   26.0390   45.6100 C   0  0  0  0  0  0  0  0  0  0  0  0
   57.1260   27.2950   45.2880 C   0  0  0  0  0  0  0  0  0  0  0  0
   58.1940   27.8590   46.0340 C   0  0  0  0  0  0  0  0  0  0  0  0
   58.1650   32.8209   48.7205 H   0  0  0  0  0  0  0  0  0  0  0  0
   56.6827   32.4228   47.7873 H   0  0  0  0  0  0  0  0  0  0  0  0
   58.0756   31.2886   47.7873 H   0  0  0  0  0  0  0  0  0  0  0  0
   59.7321   34.2148   47.8054 H   0  0  0  0  0  0  0  0  0  0  0  0
   60.7870   35.3398   45.8475 H   0  0  0  0  0  0  0  0  0  0  0  0
   60.0278   34.7996   43.5349 H   0  0  0  0  0  0  0  0  0  0  0  0
   58.1828   33.1665   43.1751 H   0  0  0  0  0  0  0  0  0  0  0  0
   58.2125   29.2627   43.6877 H   0  0  0  0  0  0  0  0  0  0  0  0
   58.9971   30.7167   44.4023 H   0  0  0  0  0  0  0  0  0  0  0  0
   61.1893   28.9854   49.5003 H   0  0  0  0  0  0  0  0  0  0  0  0
   62.0946   29.6744   48.0930 H   0  0  0  0  0  0  0  0  0  0  0  0
   59.7141   31.2297   48.4182 H   0  0  0  0  0  0  0  0  0  0  0  0
   60.4808   31.0336   50.0517 H   0  0  0  0  0  0  0  0  0  0  0  0
   61.0296   33.4290   50.1810 H   0  0  0  0  0  0  0  0  0  0  0  0
   62.6583   35.2061   49.5439 H   0  0  0  0  0  0  0  0  0  0  0  0
   64.2077   34.8553   47.6182 H   0  0  0  0  0  0  0  0  0  0  0  0
   64.1351   32.7158   46.3327 H   0  0  0  0  0  0  0  0  0  0  0  0
   62.5151   30.9268   46.9667 H   0  0  0  0  0  0  0  0  0  0  0  0
   58.5670   25.2838   48.2914 H   0  0  0  0  0  0  0  0  0  0  0  0
   56.7275   24.3228   46.9170 H   0  0  0  0  0  0  0  0  0  0  0  0
   55.7847   25.6179   45.0157 H   0  0  0  0  0  0  0  0  0  0  0  0
   56.6994   27.8562   44.4435 H   0  0  0  0  0  0  0  0  0  0  0  0
  1  2  1  0
  2  3  2  0
  3  4  1  0
  4  5  2  0
  5  6  1  0
  6  7  2  0
  7  8  1  0
  8  9  1  0
  9 10  2  0
  9 11  1  0
 11 12  1  0
 12 13  1  0
 13 14  2  0
 13 15  1  0
 15 16  1  0
 16 17  1  0
 17 18  1  0
 18 19  2  0
 19 20  1  0
 20 21  2  0
 21 22  1  0
 22 23  2  0
 15 24  1  0
 24 25  2  0
 24 26  1  0
 26 27  2  0
 27 28  1  0
 28 29  2  0
 29 30  1  0
 30 31  2  0
  7  2  1  0
 31 12  1  0
 23 18  1  0
 31 26  1  0
  1 32  1  0
  1 33  1  0
  1 34  1  0
  3 35  1  0
  4 36  1  0
  5 37  1  0
  6 38  1  0
 11 39  1  0
 11 40  1  0
 16 41  1  0
 16 42  1  0
 17 43  1  0
 17 44  1  0
 19 45  1  0
 20 46  1  0
 21 47  1  0
 22 48  1  0
 23 49  1  0
 27 50  1  0
 28 51  1  0
 29 52  1  0
 30 53  1  0
M  CHG  1   8  -1
M  END
>  <UniqueID>  (58) 
53

>  <SMILES>  (58) 
Cc1ccccc1[N-]C(=O)Cn1c(=O)n(CCc2ccccc2)c(=O)c2ccccc21

>  <Energy>  (58) 
72.64368471425436

>  <Genealogy>  (58) 
Cc1ccccc1[N-]C(=O)Cn1c(=O)n(CCc2ccccc2)c(=O)c2ccccc21 (protonated)
Cc1ccccc1[N-]C(=O)Cn1c(=O)n(CCc2ccccc2)c(=O)c2ccccc21 (3D coordinates assigned)
Cc1ccccc1[N-]C(=O)Cn1c(=O)n(CCc2ccccc2)c(=O)c2ccccc21 (optimized conformer: 72.64368471425436 kcal/mol)

>  <smiles>  (58) 
Cc1ccccc1NC(=O)Cn1c(=O)n(CCc2ccccc2)c(=O)c2ccccc21

>  <score_type>  (58) 
oracle

>  <origin>  (58) 
adg

>  <m_score__min__energy>  (58) 
-10.76

>  <m_primary>  (58) 
energy

$$$$
58:0
     RDKit          3D

 52 55  0  0  1  0  0  0  0  0999 V2000
   64.3460   32.6320   48.1810 N   0  0  0  0  0  0  0  0  0  0  0  0
   62.6540   32.8650   47.8300 S   0  0  0  0  0  0  0  0  0  0  0  0
   62.1500   33.9640   48.7050 O   0  0  0  0  0  0  0  0  0  0  0  0
   62.5540   33.2000   46.3610 O   0  0  0  0  0  0  0  0  0  0  0  0
   61.7880   31.3660   48.0650 C   0  0  0  0  0  0  0  0  0  0  0  0
   61.7010   30.8630   49.3540 C   0  0  0  0  0  0  0  0  0  0  0  0
   61.0390   29.6880   49.6300 C   0  0  0  0  0  0  0  0  0  0  0  0
   60.4550   29.0190   48.5610 C   0  0  0  0  0  0  0  0  0  0  0  0
   60.5390   29.5200   47.2630 C   0  0  0  0  0  0  0  0  0  0  0  0
   59.9060   28.7540   46.2500 N   0  0  0  0  0  0  0  0  0  0  0  0
   58.8990   29.2460   45.5760 C   0  0  0  0  0  0  0  0  0  0  0  0
   58.4710   30.5510   45.7970 C   0  0  0  0  0  0  0  0  0  0  0  0
   57.4010   31.0450   45.0700 C   0  0  0  0  0  0  0  0  0  0  0  0
   56.9230   32.3490   45.2460 O   0  0  0  0  0  0  0  0  0  0  0  0
   57.8020   33.3100   45.7280 C   0  0  0  0  0  0  0  0  0  0  0  0
   58.4160   34.1220   44.7950 C   0  0  0  0  0  0  0  0  0  0  0  0
   59.3000   35.1010   45.1570 C   0  0  0  0  0  0  0  0  0  0  0  0
   59.5790   35.2730   46.5060 C   0  0  0  0  0  0  0  0  0  0  0  0
   58.9650   34.4610   47.4310 C   0  0  0  0  0  0  0  0  0  0  0  0
   59.2800   34.6700   48.8100 N   0  0  0  0  0  0  0  0  0  0  0  0
   59.3590   33.5170   49.6390 C   0  0  0  0  0  0  0  0  0  0  0  0
   59.1520   32.3900   49.1280 O   0  0  0  0  0  0  0  0  0  0  0  0
   59.6690   33.5730   51.0600 C   0  0  0  0  0  0  0  0  0  0  0  0
   60.9840   33.3980   51.4330 C   0  0  0  0  0  0  0  0  0  0  0  0
   61.3900   33.4330   52.7690 C   0  0  0  0  0  0  0  0  0  0  0  0
   60.4310   33.6520   53.7520 C   0  0  0  0  0  0  0  0  0  0  0  0
   59.1110   33.8270   53.3570 C   0  0  0  0  0  0  0  0  0  0  0  0
   58.7220   33.7890   52.0350 C   0  0  0  0  0  0  0  0  0  0  0  0
   58.0700   33.4690   47.0720 C   0  0  0  0  0  0  0  0  0  0  0  0
   56.8150   30.2300   44.1700 N   0  0  0  0  0  0  0  0  0  0  0  0
   57.2590   28.9700   43.9840 C   0  0  0  0  0  0  0  0  0  0  0  0
   58.2940   28.4470   44.6680 N   0  0  0  0  0  0  0  0  0  0  0  0
   61.2110   30.7030   47.0090 C   0  0  0  0  0  0  0  0  0  0  0  0
   64.9230   33.1190   47.4740 H   0  0  0  0  0  0  0  0  0  0  0  0
   64.5200   31.5970   48.0110 H   0  0  0  0  0  0  0  0  0  0  0  0
   62.1735   31.4176   50.1781 H   0  0  0  0  0  0  0  0  0  0  0  0
   60.9749   29.2945   50.6552 H   0  0  0  0  0  0  0  0  0  0  0  0
   59.9167   28.0770   48.7425 H   0  0  0  0  0  0  0  0  0  0  0  0
   58.9770   31.1836   46.5411 H   0  0  0  0  0  0  0  0  0  0  0  0
   58.1874   33.9772   43.7288 H   0  0  0  0  0  0  0  0  0  0  0  0
   59.7784   35.7368   44.3974 H   0  0  0  0  0  0  0  0  0  0  0  0
   60.2845   36.0514   46.8321 H   0  0  0  0  0  0  0  0  0  0  0  0
   59.4500   35.6150   49.2190 H   0  0  0  0  0  0  0  0  0  0  0  0
   61.7394   33.2249   50.6523 H   0  0  0  0  0  0  0  0  0  0  0  0
   62.4470   33.2902   53.0382 H   0  0  0  0  0  0  0  0  0  0  0  0
   60.7107   33.6858   54.8153 H   0  0  0  0  0  0  0  0  0  0  0  0
   58.3468   34.0026   54.1285 H   0  0  0  0  0  0  0  0  0  0  0  0
   57.6657   33.9299   51.7623 H   0  0  0  0  0  0  0  0  0  0  0  0
   57.5904   32.8314   47.8292 H   0  0  0  0  0  0  0  0  0  0  0  0
   56.7516   28.3402   43.2384 H   0  0  0  0  0  0  0  0  0  0  0  0
   58.6280   27.4770   44.5170 H   0  0  0  0  0  0  0  0  0  0  0  0
   61.2814   31.1026   45.9866 H   0  0  0  0  0  0  0  0  0  0  0  0
  1  2  1  0
  2  3  2  0
  2  4  2  0
  2  5  1  0
  5  6  2  0
  6  7  1  0
  7  8  2  0
  8  9  1  0
  9 10  1  0
 10 11  2  0
 11 12  1  0
 12 13  2  0
 13 14  1  0
 14 15  1  0
 15 16  2  0
 16 17  1  0
 17 18  2  0
 18 19  1  0
 19 20  1  0
 20 21  1  0
 21 22  2  0
 21 23  1  0
 23 24  2  0
 24 25  1  0
 25 26  2  0
 26 27  1  0
 27 28  2  0
 19 29  2  0
 13 30  1  0
 30 31  2  0
 31 32  1  0
  9 33  2  0
 33  5  1  0
 32 11  1  0
 29 15  1  0
 28 23  1  0
  1 34  1  0
  1 35  1  0
  6 36  1  0
  7 37  1  0
  8 38  1  0
 12 39  1  0
 16 40  1  0
 17 41  1  0
 18 42  1  0
 20 43  1  0
 24 44  1  0
 25 45  1  0
 26 46  1  0
 27 47  1  0
 28 48  1  0
 29 49  1  0
 31 50  1  0
 32 51  1  0
 33 52  1  0
M  END
>  <smiles>  (59) 
NS(=O)(=O)c1cccc(N=c2cc(Oc3cccc(NC(=O)c4ccccc4)c3)nc[nH]2)c1

>  <score_type>  (59) 
oracle

>  <origin>  (59) 
adg

>  <m_score__min__energy>  (59) 
-10.109999999999999

>  <m_primary>  (59) 
energy

$$$$
59:0
     RDKit          3D

 48 51  0  0  0  0  0  0  0  0999 V2000
   56.4140   30.2040   43.8900 C   0  0  0  0  0  0  0  0  0  0  0  0
   57.4510   31.0030   44.6420 C   0  0  0  0  0  0  0  0  0  0  0  0
   57.4550   32.3620   44.5200 N   0  0  0  0  0  0  0  0  0  0  0  0
   58.3630   33.1300   45.1790 C   0  0  0  0  0  0  0  0  0  0  0  0
   58.3450   34.5280   45.0450 C   0  0  0  0  0  0  0  0  0  0  0  0
   59.2800   35.3120   45.7260 C   0  0  0  0  0  0  0  0  0  0  0  0
   60.2380   34.7100   46.5450 C   0  0  0  0  0  0  0  0  0  0  0  0
   60.2660   33.3190   46.6860 C   0  0  0  0  0  0  0  0  0  0  0  0
   59.3290   32.5200   46.0040 C   0  0  0  0  0  0  0  0  0  0  0  0
   59.3210   31.1210   46.1140 C   0  0  0  0  0  0  0  0  0  0  0  0
   60.1790   30.5420   46.8400 O   0  0  0  0  0  0  0  0  0  0  0  0
   58.3910   30.3830   45.4300 N   0  0  0  0  0  0  0  0  0  0  0  0
   58.4060   28.9490   45.5490 C   0  0  0  0  0  0  0  0  0  0  0  0
   58.2100   28.3420   46.7970 C   0  0  0  0  0  0  0  0  0  0  0  0
   58.2740   26.9520   46.9210 C   0  0  0  0  0  0  0  0  0  0  0  0
   58.5580   26.1590   45.8010 C   0  0  0  0  0  0  0  0  0  0  0  0
   58.6490   24.6990   45.9270 C   0  0  0  0  0  0  0  0  0  0  0  0
   59.7900   24.1740   45.9910 O   0  0  0  0  0  0  0  0  0  0  0  0
   57.4930   23.8500   46.0190 N   0  0  0  0  0  0  0  0  0  0  0  0
   56.8330   23.0430   44.9850 C   0  0  0  0  0  0  0  0  0  0  0  0
   56.5330   23.8290   43.7010 C   0  0  0  0  0  0  0  0  0  0  0  0
   55.7800   22.9300   42.6910 C   0  0  0  0  0  0  0  0  0  0  0  0
   55.9080   21.5380   42.9550 O   0  0  0  0  0  0  0  0  0  0  0  0
   57.2460   21.2110   43.2780 C   0  0  0  0  0  0  0  0  0  0  0  0
   57.6120   21.7510   44.6740 C   0  0  0  0  0  0  0  0  0  0  0  0
   58.6930   26.7610   44.5410 C   0  0  0  0  0  0  0  0  0  0  0  0
   58.6280   28.1520   44.4170 C   0  0  0  0  0  0  0  0  0  0  0  0
   55.7529   29.6947   44.6066 H   0  0  0  0  0  0  0  0  0  0  0  0
   55.8186   30.8790   43.2577 H   0  0  0  0  0  0  0  0  0  0  0  0
   56.9149   29.4561   43.2577 H   0  0  0  0  0  0  0  0  0  0  0  0
   56.7420   32.8250   43.9100 H   0  0  0  0  0  0  0  0  0  0  0  0
   57.5923   35.0074   44.4018 H   0  0  0  0  0  0  0  0  0  0  0  0
   59.2615   36.4064   45.6168 H   0  0  0  0  0  0  0  0  0  0  0  0
   60.9716   35.3310   47.0799 H   0  0  0  0  0  0  0  0  0  0  0  0
   61.0221   32.8481   47.3314 H   0  0  0  0  0  0  0  0  0  0  0  0
   58.0050   28.9623   47.6820 H   0  0  0  0  0  0  0  0  0  0  0  0
   58.1012   26.4793   47.8991 H   0  0  0  0  0  0  0  0  0  0  0  0
   55.8605   22.7577   45.4127 H   0  0  0  0  0  0  0  0  0  0  0  0
   55.9101   24.7020   43.9459 H   0  0  0  0  0  0  0  0  0  0  0  0
   57.4809   24.1599   43.2516 H   0  0  0  0  0  0  0  0  0  0  0  0
   54.7122   23.1922   42.7223 H   0  0  0  0  0  0  0  0  0  0  0  0
   56.2293   23.1115   41.7035 H   0  0  0  0  0  0  0  0  0  0  0  0
   57.3631   20.1173   43.2709 H   0  0  0  0  0  0  0  0  0  0  0  0
   57.9137   21.6689   42.5333 H   0  0  0  0  0  0  0  0  0  0  0  0
   57.3656   20.9910   45.4301 H   0  0  0  0  0  0  0  0  0  0  0  0
   58.6885   21.9765   44.6926 H   0  0  0  0  0  0  0  0  0  0  0  0
   58.8503   26.1372   43.6487 H   0  0  0  0  0  0  0  0  0  0  0  0
   58.7512   28.6218   43.4300 H   0  0  0  0  0  0  0  0  0  0  0  0
  1  2  1  0
  2  3  2  0
  3  4  1  0
  4  5  2  0
  5  6  1  0
  6  7  2  0
  7  8  1  0
  8  9  2  0
  9 10  1  0
 10 11  2  0
 10 12  1  0
 12 13  1  0
 13 14  2  0
 14 15  1  0
 15 16  2  0
 16 17  1  0
 17 18  2  0
 17 19  1  0
 19 20  1  0
 20 21  1  0
 21 22  1  0
 22 23  1  0
 23 24  1  0
 24 25  1  0
 16 26  1  0
 26 27  2  0
 12  2  1  0
 27 13  1  0
  9  4  1  0
 25 20  1  0
  1 28  1  0
  1 29  1  0
  1 30  1  0
  3 31  1  0
  5 32  1  0
  6 33  1  0
  7 34  1  0
  8 35  1  0
 14 36  1  0
 15 37  1  0
 20 38  1  0
 21 39  1  0
 21 40  1  0
 22 41  1  0
 22 42  1  0
 24 43  1  0
 24 44  1  0
 25 45  1  0
 25 46  1  0
 26 47  1  0
 27 48  1  0
M  CHG  2   3   1  19  -1
M  END
>  <UniqueID>  (60) 
54

>  <SMILES>  (60) 
Cc1[nH+]c2ccccc2c(=O)n1-c1ccc(C(=O)[N-]C2CCOCC2)cc1

>  <Energy>  (60) 
81.19332984180645

>  <Genealogy>  (60) 
Cc1[nH+]c2ccccc2c(=O)n1-c1ccc(C(=O)[N-]C2CCOCC2)cc1 (protonated)
Cc1[nH+]c2ccccc2c(=O)n1-c1ccc(C(=O)[N-]C2CCOCC2)cc1 (3D coordinates assigned)
Cc1[nH+]c2ccccc2c(=O)n1-c1ccc(C(=O)[N-]C2CCOCC2)cc1 (nonaromatic ring conformer: 81.19332984180645 kcal/mol)

>  <smiles>  (60) 
Cc1nc2ccccc2c(=O)n1-c1ccc(C(=O)NC2CCOCC2)cc1

>  <score_type>  (60) 
oracle

>  <origin>  (60) 
adg

>  <m_score__min__energy>  (60) 
-8.7799999999999994

>  <m_primary>  (60) 
energy

$$$$
60:0
     RDKit          3D

 53 55  0  0  0  0  0  0  0  0999 V2000
   63.3210   33.7650   46.7430 C   0  0  0  0  0  0  0  0  0  0  0  0
   62.5810   32.9510   47.8070 C   0  0  0  0  0  0  0  0  0  0  0  0
   61.1620   33.4190   48.0360 C   0  0  0  0  0  0  0  0  0  0  0  0
   60.9270   34.2720   48.9370 O   0  0  0  0  0  0  0  0  0  0  0  0
   60.0350   32.9090   47.2080 C   0  0  0  0  0  0  0  0  0  0  0  0
   59.9520   31.5540   46.8340 C   0  0  0  0  0  0  0  0  0  0  0  0
   58.8880   31.0970   46.0520 C   0  0  0  0  0  0  0  0  0  0  0  0
   57.8860   31.9740   45.6280 C   0  0  0  0  0  0  0  0  0  0  0  0
   56.8370   31.4610   44.8490 O   0  0  0  0  0  0  0  0  0  0  0  0
   57.0030   30.8460   43.5750 C   0  0  0  0  0  0  0  0  0  0  0  0
   56.9860   29.3610   43.7420 C   0  0  0  0  0  0  0  0  0  0  0  0
   57.0080   28.6220   42.7220 O   0  0  0  0  0  0  0  0  0  0  0  0
   56.9340   28.7940   45.0610 N   0  0  0  0  0  0  0  0  0  0  0  0
   57.1030   27.3960   45.3490 C   0  0  0  0  0  0  0  0  0  0  0  0
   58.1070   26.6750   44.6860 C   0  0  0  0  0  0  0  0  0  0  0  0
   58.2650   25.3060   44.9130 C   0  0  0  0  0  0  0  0  0  0  0  0
   57.4050   24.6330   45.7910 C   0  0  0  0  0  0  0  0  0  0  0  0
   57.5730   22.8930   46.0370 S   0  0  0  0  0  0  0  0  0  0  0  0
   57.3870   22.5810   47.4960 O   0  0  0  0  0  0  0  0  0  0  0  0
   58.9630   22.4700   45.6480 O   0  0  0  0  0  0  0  0  0  0  0  0
   56.4130   21.9800   45.0940 N   0  0  0  0  0  0  0  0  0  0  0  0
   57.0640   20.8810   44.3770 C   0  0  0  0  0  0  0  0  0  0  0  0
   57.3510   21.3450   42.9600 C   0  0  0  0  0  0  0  0  0  0  0  0
   56.4180   22.5140   42.7230 C   0  0  0  0  0  0  0  0  0  0  0  0
   55.7790   22.8210   44.0720 C   0  0  0  0  0  0  0  0  0  0  0  0
   56.3950   25.3450   46.4490 C   0  0  0  0  0  0  0  0  0  0  0  0
   56.2360   26.7160   46.2230 C   0  0  0  0  0  0  0  0  0  0  0  0
   57.9590   33.3270   45.9980 C   0  0  0  0  0  0  0  0  0  0  0  0
   59.0230   33.7870   46.7790 C   0  0  0  0  0  0  0  0  0  0  0  0
   63.9833   34.4935   47.2335 H   0  0  0  0  0  0  0  0  0  0  0  0
   63.9204   33.0891   46.1154 H   0  0  0  0  0  0  0  0  0  0  0  0
   62.5912   34.2974   46.1154 H   0  0  0  0  0  0  0  0  0  0  0  0
   62.5546   31.8991   47.4865 H   0  0  0  0  0  0  0  0  0  0  0  0
   63.1246   33.0813   48.7544 H   0  0  0  0  0  0  0  0  0  0  0  0
   60.7312   30.8494   47.1602 H   0  0  0  0  0  0  0  0  0  0  0  0
   58.8386   30.0357   45.7671 H   0  0  0  0  0  0  0  0  0  0  0  0
   56.1823   31.1511   42.9091 H   0  0  0  0  0  0  0  0  0  0  0  0
   57.9618   31.1582   43.1353 H   0  0  0  0  0  0  0  0  0  0  0  0
   56.6860   29.4300   45.8530 H   0  0  0  0  0  0  0  0  0  0  0  0
   58.7753   27.1919   43.9816 H   0  0  0  0  0  0  0  0  0  0  0  0
   59.0671   24.7543   44.4009 H   0  0  0  0  0  0  0  0  0  0  0  0
   58.0054   20.6141   44.8796 H   0  0  0  0  0  0  0  0  0  0  0  0
   56.4107   19.9961   44.3627 H   0  0  0  0  0  0  0  0  0  0  0  0
   58.3994   21.6638   42.8643 H   0  0  0  0  0  0  0  0  0  0  0  0
   57.1936   20.5407   42.2263 H   0  0  0  0  0  0  0  0  0  0  0  0
   56.9820   23.3858   42.3599 H   0  0  0  0  0  0  0  0  0  0  0  0
   55.6596   22.2767   41.9624 H   0  0  0  0  0  0  0  0  0  0  0  0
   55.9293   23.8821   44.3201 H   0  0  0  0  0  0  0  0  0  0  0  0
   54.6995   22.6133   44.0319 H   0  0  0  0  0  0  0  0  0  0  0  0
   55.7234   24.8237   47.1470 H   0  0  0  0  0  0  0  0  0  0  0  0
   55.4293   27.2648   46.7310 H   0  0  0  0  0  0  0  0  0  0  0  0
   57.1759   34.0272   45.6719 H   0  0  0  0  0  0  0  0  0  0  0  0
   59.0696   34.8490   47.0618 H   0  0  0  0  0  0  0  0  0  0  0  0
  1  2  1  0
  2  3  1  0
  3  4  2  0
  3  5  1  0
  5  6  2  0
  6  7  1  0
  7  8  2  0
  8  9  1  0
  9 10  1  0
 10 11  1  0
 11 12  2  0
 11 13  1  0
 13 14  1  0
 14 15  2  0
 15 16  1  0
 16 17  2  0
 17 18  1  0
 18 19  2  0
 18 20  2  0
 18 21  1  0
 21 22  1  0
 22 23  1  0
 23 24  1  0
 24 25  1  0
 17 26  1  0
 26 27  2  0
  8 28  1  0
 28 29  2  0
 29  5  1  0
 27 14  1  0
 25 21  1  0
  1 30  1  0
  1 31  1  0
  1 32  1  0
  2 33  1  0
  2 34  1  0
  6 35  1  0
  7 36  1  0
 10 37  1  0
 10 38  1  0
 13 39  1  0
 15 40  1  0
 16 41  1  0
 22 42  1  0
 22 43  1  0
 23 44  1  0
 23 45  1  0
 24 46  1  0
 24 47  1  0
 25 48  1  0
 25 49  1  0
 26 50  1  0
 27 51  1  0
 28 52  1  0
 29 53  1  0
M  END
>  <UniqueID>  (61) 
55

>  <SMILES>  (61) 
CCC(=O)c1ccc(OCC(=O)Nc2ccc(S(=O)(=O)N3CCCC3)cc2)cc1

>  <Energy>  (61) 
55.42951011441113

>  <Genealogy>  (61) 
CCC(=O)c1ccc(OCC(=O)Nc2ccc(S(=O)(=O)N3CCCC3)cc2)cc1 (3D coordinates assigned)
CCC(=O)c1ccc(OCC(=O)Nc2ccc(S(=O)(=O)N3CCCC3)cc2)cc1 (nonaromatic ring conformer: 55.42951011441113 kcal/mol)

>  <smiles>  (61) 
CCC(=O)c1ccc(OCC(=O)Nc2ccc(S(=O)(=O)N3CCCC3)cc2)cc1

>  <score_type>  (61) 
oracle

>  <origin>  (61) 
adg

>  <m_score__min__energy>  (61) 
-9.3699999999999992

>  <m_primary>  (61) 
energy

$$$$
61:0
     RDKit          3D

 17 18  0  0  0  0  0  0  0  0999 V2000
   55.1310   29.3360   44.8800 N   0  0  0  0  0  0  0  0  0  0  0  0
   56.7290   29.8290   44.4430 S   0  0  0  0  0  0  0  0  0  0  0  0
   56.9150   31.2740   44.8130 O   0  0  0  0  0  0  0  0  0  0  0  0
   56.8950   29.6660   42.9590 O   0  0  0  0  0  0  0  0  0  0  0  0
   57.9340   28.8520   45.2850 C   0  0  0  0  0  0  0  0  0  0  0  0
   59.2440   29.3330   45.4620 C   0  0  0  0  0  0  0  0  0  0  0  0
   60.2100   28.5600   46.1260 C   0  0  0  0  0  0  0  0  0  0  0  0
   59.8910   27.2900   46.6210 C   0  0  0  0  0  0  0  0  0  0  0  0
   58.5980   26.7970   46.4460 C   0  0  0  0  0  0  0  0  0  0  0  0
   58.2150   25.5740   46.8910 N   0  0  0  0  0  0  0  0  0  0  0  0
   56.6380   25.5630   46.3950 S   0  0  0  0  0  0  0  0  0  0  0  0
   56.3840   27.0150   45.6420 N   0  0  0  0  0  0  0  0  0  0  0  0
   57.6130   27.5760   45.7740 C   0  0  0  0  0  0  0  0  0  0  0  0
   55.2260   28.6450   45.6580 H   0  0  0  0  0  0  0  0  0  0  0  0
   59.5149   30.3266   45.0756 H   0  0  0  0  0  0  0  0  0  0  0  0
   61.2275   28.9563   46.2585 H   0  0  0  0  0  0  0  0  0  0  0  0
   60.6506   26.6883   47.1415 H   0  0  0  0  0  0  0  0  0  0  0  0
  1  2  1  0
  2  3  2  0
  2  4  2  0
  2  5  1  0
  5  6  2  0
  6  7  1  0
  7  8  2  0
  8  9  1  0
  9 10  2  0
 10 11  1  0
 11 12  1  0
 12 13  2  0
 13  5  1  0
 13  9  1  0
  1 14  1  0
  6 15  1  0
  7 16  1  0
  8 17  1  0
M  CHG  1   1  -1
M  END
>  <UniqueID>  (62) 
56

>  <SMILES>  (62) 
[NH-]S(=O)(=O)c1cccc2nsnc12

>  <Energy>  (62) 
55.79184095124788

>  <Genealogy>  (62) 
[NH-]S(=O)(=O)c1cccc2nsnc12 (protonated)
[NH-]S(=O)(=O)c1cccc2nsnc12 (3D coordinates assigned)
[NH-]S(=O)(=O)c1cccc2nsnc12 (optimized conformer: 55.79184095124788 kcal/mol)

>  <smiles>  (62) 
NS(=O)(=O)c1cccc2nsnc12

>  <score_type>  (62) 
oracle

>  <origin>  (62) 
adg

>  <m_score__min__energy>  (62) 
-8.9199999999999999

>  <m_primary>  (62) 
energy

$$$$
62:0
     RDKit          3D

 57 59  0  0  0  0  0  0  0  0999 V2000
   59.5000   34.9120   46.1740 C   0  0  0  0  0  0  0  0  0  0  0  0
   59.2720   33.5890   45.4430 C   0  0  0  0  0  0  0  0  0  0  0  0
   58.2310   32.7640   46.1090 N   0  0  0  0  0  0  0  0  0  0  0  0
   58.0420   33.2030   47.5140 C   0  0  0  0  0  0  0  0  0  0  0  0
   58.7490   32.2480   48.4850 C   0  0  0  0  0  0  0  0  0  0  0  0
   60.0030   32.8640   49.0330 C   0  0  0  0  0  0  0  0  0  0  0  0
   60.0830   33.7630   50.0940 C   0  0  0  0  0  0  0  0  0  0  0  0
   61.3510   34.2110   50.2400 N   0  0  0  0  0  0  0  0  0  0  0  0
   62.0700   33.6120   49.2740 C   0  0  0  0  0  0  0  0  0  0  0  0
   63.4230   33.7940   48.9950 C   0  0  0  0  0  0  0  0  0  0  0  0
   63.9690   33.0940   47.9040 C   0  0  0  0  0  0  0  0  0  0  0  0
   63.1600   32.2360   47.1260 C   0  0  0  0  0  0  0  0  0  0  0  0
   61.7970   32.0730   47.4310 C   0  0  0  0  0  0  0  0  0  0  0  0
   61.2820   32.7820   48.5170 C   0  0  0  0  0  0  0  0  0  0  0  0
   58.5450   31.3120   46.0450 C   0  0  0  0  0  0  0  0  0  0  0  0
   57.8910   30.6470   44.8540 C   0  0  0  0  0  0  0  0  0  0  0  0
   57.2510   31.4410   43.8830 C   0  0  0  0  0  0  0  0  0  0  0  0
   56.6420   30.8540   42.7730 C   0  0  0  0  0  0  0  0  0  0  0  0
   56.6310   29.4670   42.6340 C   0  0  0  0  0  0  0  0  0  0  0  0
   57.2150   28.6620   43.6140 C   0  0  0  0  0  0  0  0  0  0  0  0
   57.8370   29.2360   44.7330 C   0  0  0  0  0  0  0  0  0  0  0  0
   58.3420   28.3770   45.7720 N   0  0  0  0  0  0  0  0  0  0  0  0
   59.7360   27.9160   45.7110 C   0  0  0  0  0  0  0  0  0  0  0  0
   60.5850   28.8820   44.8940 C   0  0  0  0  0  0  0  0  0  0  0  0
   57.3820   27.6970   46.6530 C   0  0  0  0  0  0  0  0  0  0  0  0
   56.6640   26.6020   45.9250 C   0  0  0  0  0  0  0  0  0  0  0  0
   55.2420   26.5190   45.9830 N   0  0  0  0  0  0  0  0  0  0  0  0
   57.3140   25.7450   45.2690 O   0  0  0  0  0  0  0  0  0  0  0  0
   59.4705   34.7406   47.2602 H   0  0  0  0  0  0  0  0  0  0  0  0
   60.4819   35.3212   45.8939 H   0  0  0  0  0  0  0  0  0  0  0  0
   58.7117   35.6263   45.8939 H   0  0  0  0  0  0  0  0  0  0  0  0
   58.9523   33.8020   44.4123 H   0  0  0  0  0  0  0  0  0  0  0  0
   60.2159   33.0242   45.4549 H   0  0  0  0  0  0  0  0  0  0  0  0
   58.4591   34.2136   47.6349 H   0  0  0  0  0  0  0  0  0  0  0  0
   56.9657   33.2023   47.7410 H   0  0  0  0  0  0  0  0  0  0  0  0
   58.0696   32.0151   49.3181 H   0  0  0  0  0  0  0  0  0  0  0  0
   59.0198   31.3324   47.9388 H   0  0  0  0  0  0  0  0  0  0  0  0
   59.2342   34.0661   50.7246 H   0  0  0  0  0  0  0  0  0  0  0  0
   61.6900   34.9060   50.9400 H   0  0  0  0  0  0  0  0  0  0  0  0
   64.0441   34.4635   49.6082 H   0  0  0  0  0  0  0  0  0  0  0  0
   65.0335   33.2155   47.6548 H   0  0  0  0  0  0  0  0  0  0  0  0
   63.5990   31.6922   46.2765 H   0  0  0  0  0  0  0  0  0  0  0  0
   61.1571   31.4078   46.8326 H   0  0  0  0  0  0  0  0  0  0  0  0
   59.6351   31.1866   45.9684 H   0  0  0  0  0  0  0  0  0  0  0  0
   58.1552   30.8377   46.9577 H   0  0  0  0  0  0  0  0  0  0  0  0
   57.2309   32.5345   44.0005 H   0  0  0  0  0  0  0  0  0  0  0  0
   56.1701   31.4866   42.0068 H   0  0  0  0  0  0  0  0  0  0  0  0
   56.1621   29.0065   41.7519 H   0  0  0  0  0  0  0  0  0  0  0  0
   57.1872   27.5675   43.5078 H   0  0  0  0  0  0  0  0  0  0  0  0
   60.1410   27.8532   46.7318 H   0  0  0  0  0  0  0  0  0  0  0  0
   59.7618   26.9271   45.2299 H   0  0  0  0  0  0  0  0  0  0  0  0
   61.1564   29.5322   45.5728 H   0  0  0  0  0  0  0  0  0  0  0  0
   61.2804   28.3127   44.2597 H   0  0  0  0  0  0  0  0  0  0  0  0
   59.9311   29.4985   44.2597 H   0  0  0  0  0  0  0  0  0  0  0  0
   57.9226   27.2655   47.5083 H   0  0  0  0  0  0  0  0  0  0  0  0
   56.6403   28.4333   46.9961 H   0  0  0  0  0  0  0  0  0  0  0  0
   54.7000   27.0980   46.6630 H   0  0  0  0  0  0  0  0  0  0  0  0
  1  2  1  0
  2  3  1  0
  3  4  1  0
  4  5  1  0
  5  6  1  0
  6  7  2  0
  7  8  1  0
  8  9  1  0
  9 10  2  0
 10 11  1  0
 11 12  2  0
 12 13  1  0
 13 14  2  0
  3 15  1  0
 15 16  1  0
 16 17  2  0
 17 18  1  0
 18 19  2  0
 19 20  1  0
 20 21  2  0
 21 22  1  0
 22 23  1  0
 23 24  1  0
 22 25  1  0
 25 26  1  0
 26 27  1  0
 26 28  2  0
 14  6  1  0
 21 16  1  0
 14  9  1  0
  1 29  1  0
  1 30  1  0
  1 31  1  0
  2 32  1  0
  2 33  1  0
  4 34  1  0
  4 35  1  0
  5 36  1  0
  5 37  1  0
  7 38  1  0
  8 39  1  0
 10 40  1  0
 11 41  1  0
 12 42  1  0
 13 43  1  0
 15 44  1  0
 15 45  1  0
 17 46  1  0
 18 47  1  0
 19 48  1  0
 20 49  1  0
 23 50  1  0
 23 51  1  0
 24 52  1  0
 24 53  1  0
 24 54  1  0
 25 55  1  0
 25 56  1  0
 27 57  1  0
M  CHG  1  27  -1
M  END
>  <UniqueID>  (63) 
57

>  <SMILES>  (63) 
CCN(CCc1c[nH]c2ccccc12)Cc1ccccc1N(CC)CC([NH-])=O

>  <Energy>  (63) 
88.30409161827653

>  <Genealogy>  (63) 
CCN(CCc1c[nH]c2ccccc12)Cc1ccccc1N(CC)CC([NH-])=O (protonated)
CCN(CCc1c[nH]c2ccccc12)Cc1ccccc1N(CC)CC([NH-])=O (3D coordinates assigned)
CCN(CCc1c[nH]c2ccccc12)Cc1ccccc1N(CC)CC([NH-])=O (optimized conformer: 88.30409161827653 kcal/mol)

>  <smiles>  (63) 
CCN(CCc1c[nH]c2ccccc12)Cc1ccccc1N(CC)CC(N)=O

>  <score_type>  (63) 
oracle

>  <origin>  (63) 
adg

>  <m_score__min__energy>  (63) 
-11.74

>  <m_primary>  (63) 
energy

$$$$
63:0
     RDKit          3D

 30 31  0  0  0  0  0  0  0  0999 V2000
   57.3010   26.4730   46.6790 O   0  0  0  0  0  0  0  0  0  0  0  0
   56.4650   27.1400   46.0140 C   0  0  0  0  0  0  0  0  0  0  0  0
   55.1410   26.7180   45.9810 O   0  0  0  0  0  0  0  0  0  0  0  0
   56.8840   28.3530   45.2780 C   0  0  0  0  0  0  0  0  0  0  0  0
   55.9250   29.2790   44.8320 C   0  0  0  0  0  0  0  0  0  0  0  0
   56.3170   30.4260   44.1360 C   0  0  0  0  0  0  0  0  0  0  0  0
   57.6730   30.6630   43.8640 C   0  0  0  0  0  0  0  0  0  0  0  0
   58.1010   31.9000   43.1180 C   0  0  0  0  0  0  0  0  0  0  0  0
   57.6490   33.1060   43.8120 N   0  0  0  0  0  0  0  0  0  0  0  0
   58.1530   33.5520   45.0870 C   0  0  0  0  0  0  0  0  0  0  0  0
   57.7120   32.9870   46.3000 C   0  0  0  0  0  0  0  0  0  0  0  0
   58.2190   33.4480   47.5200 C   0  0  0  0  0  0  0  0  0  0  0  0
   59.1720   34.4690   47.5450 C   0  0  0  0  0  0  0  0  0  0  0  0
   59.6680   34.9170   48.7690 O   0  0  0  0  0  0  0  0  0  0  0  0
   59.6210   35.0310   46.3440 C   0  0  0  0  0  0  0  0  0  0  0  0
   59.1150   34.5730   45.1240 C   0  0  0  0  0  0  0  0  0  0  0  0
   58.6340   29.7470   44.3190 C   0  0  0  0  0  0  0  0  0  0  0  0
   58.2440   28.6000   45.0160 C   0  0  0  0  0  0  0  0  0  0  0  0
   54.8583   29.0996   45.0322 H   0  0  0  0  0  0  0  0  0  0  0  0
   55.5578   31.1473   43.7994 H   0  0  0  0  0  0  0  0  0  0  0  0
   59.1984   31.9157   43.0448 H   0  0  0  0  0  0  0  0  0  0  0  0
   57.6512   31.8805   42.1143 H   0  0  0  0  0  0  0  0  0  0  0  0
   56.8790   33.6520   43.3630 H   0  0  0  0  0  0  0  0  0  0  0  0
   56.9653   32.1793   46.2879 H   0  0  0  0  0  0  0  0  0  0  0  0
   57.8658   33.0048   48.4628 H   0  0  0  0  0  0  0  0  0  0  0  0
   59.2550   35.7090   49.2490 H   0  0  0  0  0  0  0  0  0  0  0  0
   60.3728   35.8338   46.3603 H   0  0  0  0  0  0  0  0  0  0  0  0
   59.4744   35.0172   44.1840 H   0  0  0  0  0  0  0  0  0  0  0  0
   59.7008   29.9329   44.1259 H   0  0  0  0  0  0  0  0  0  0  0  0
   59.0055   27.8856   45.3620 H   0  0  0  0  0  0  0  0  0  0  0  0
  1  2  2  0
  2  3  1  0
  2  4  1  0
  4  5  2  0
  5  6  1  0
  6  7  2  0
  7  8  1  0
  8  9  1  0
  9 10  1  0
 10 11  2  0
 11 12  1  0
 12 13  2  0
 13 14  1  0
 13 15  1  0
 15 16  2  0
  7 17  1  0
 17 18  2  0
 18  4  1  0
 16 10  1  0
  5 19  1  0
  6 20  1  0
  8 21  1  0
  8 22  1  0
  9 23  1  0
 11 24  1  0
 12 25  1  0
 14 26  1  0
 15 27  1  0
 16 28  1  0
 17 29  1  0
 18 30  1  0
M  CHG  1   3  -1
M  END
>  <UniqueID>  (64) 
58

>  <SMILES>  (64) 
O=C([O-])c1ccc(CNc2ccc(O)cc2)cc1

>  <Energy>  (64) 
30.12607690151325

>  <Genealogy>  (64) 
O=C([O-])c1ccc(CNc2ccc(O)cc2)cc1 (protonated)
O=C([O-])c1ccc(CNc2ccc(O)cc2)cc1 (3D coordinates assigned)
O=C([O-])c1ccc(CNc2ccc(O)cc2)cc1 (optimized conformer: 30.12607690151325 kcal/mol)

>  <smiles>  (64) 
O=C(O)c1ccc(CNc2ccc(O)cc2)cc1

>  <score_type>  (64) 
oracle

>  <origin>  (64) 
adg

>  <m_score__min__energy>  (64) 
-9.2400000000000002

>  <m_primary>  (64) 
energy

$$$$
64:0
     RDKit          3D

 52 55  0  0  1  0  0  0  0  0999 V2000
   58.4390   32.2590   49.4330 C   0  0  0  0  0  0  0  0  0  0  0  0
   58.9060   33.4620   48.8540 O   0  0  0  0  0  0  0  0  0  0  0  0
   58.5870   33.7290   47.5220 C   0  0  0  0  0  0  0  0  0  0  0  0
   57.3740   33.3210   46.9830 C   0  0  0  0  0  0  0  0  0  0  0  0
   57.0440   33.5760   45.6720 C   0  0  0  0  0  0  0  0  0  0  0  0
   57.9640   34.2570   44.9020 C   0  0  0  0  0  0  0  0  0  0  0  0
   59.1910   34.6810   45.4100 C   0  0  0  0  0  0  0  0  0  0  0  0
   59.4910   34.4100   46.7270 C   0  0  0  0  0  0  0  0  0  0  0  0
   62.6730   31.0750   49.2820 N   0  0  0  0  0  0  0  0  0  0  0  0
   62.6380   32.0560   48.4430 C   0  0  0  0  0  0  0  0  0  0  0  0
   62.7510   34.0520   46.6140 C   0  0  0  0  0  0  0  0  0  0  0  0
   63.8020   33.1470   46.6900 C   0  0  0  0  0  0  0  0  0  0  0  0
   63.6950   32.1760   47.6160 N   0  0  0  0  0  0  0  0  0  0  0  0
   61.6720   33.9260   47.4620 C   0  0  0  0  0  0  0  0  0  0  0  0
   60.7260   34.8070   47.3360 N   0  0  0  0  0  0  0  0  0  0  0  0
   61.5330   30.2250   49.3250 C   0  0  0  0  0  0  0  0  0  0  0  0
   61.1950   29.4660   50.4250 C   0  0  0  0  0  0  0  0  0  0  0  0
   60.0690   28.6590   50.4000 C   0  0  0  0  0  0  0  0  0  0  0  0
   59.2570   28.5850   49.2860 C   0  0  0  0  0  0  0  0  0  0  0  0
   59.5960   29.3430   48.1850 C   0  0  0  0  0  0  0  0  0  0  0  0
   58.7380   29.2530   47.0340 N   0  0  0  0  0  0  0  0  0  0  0  0
   58.6760   30.2560   46.0530 C   0  0  0  0  0  0  0  0  0  0  0  0
   59.4390   31.2680   46.2480 O   0  0  0  0  0  0  0  0  0  0  0  0
   57.8460   30.2470   44.8710 C   0  0  0  0  0  0  0  0  0  0  0  0
   58.1220   31.1740   43.8570 C   0  0  0  0  0  0  0  0  0  0  0  0
   57.3720   31.2220   42.7030 C   0  0  0  0  0  0  0  0  0  0  0  0
   56.3180   30.3700   42.4800 C   0  0  0  0  0  0  0  0  0  0  0  0
   56.0310   29.4510   43.4650 C   0  0  0  0  0  0  0  0  0  0  0  0
   56.7920   29.4050   44.6320 C   0  0  0  0  0  0  0  0  0  0  0  0
   56.4380   28.4740   45.5370 F   0  0  0  0  0  0  0  0  0  0  0  0
   60.7180   30.1570   48.1920 C   0  0  0  0  0  0  0  0  0  0  0  0
   61.6190   32.9320   48.3700 N   0  0  0  0  0  0  0  0  0  0  0  0
   58.4716   32.3429   50.5293 H   0  0  0  0  0  0  0  0  0  0  0  0
   57.4038   32.0743   49.1100 H   0  0  0  0  0  0  0  0  0  0  0  0
   59.0784   31.4242   49.1100 H   0  0  0  0  0  0  0  0  0  0  0  0
   56.6589   32.7803   47.6204 H   0  0  0  0  0  0  0  0  0  0  0  0
   56.0811   33.2486   45.2528 H   0  0  0  0  0  0  0  0  0  0  0  0
   57.7211   34.4729   43.8511 H   0  0  0  0  0  0  0  0  0  0  0  0
   59.9056   35.2214   44.7718 H   0  0  0  0  0  0  0  0  0  0  0  0
   62.7799   34.8686   45.8776 H   0  0  0  0  0  0  0  0  0  0  0  0
   64.6770   33.2201   46.0274 H   0  0  0  0  0  0  0  0  0  0  0  0
   64.5050   31.4990   47.6560 H   0  0  0  0  0  0  0  0  0  0  0  0
   61.8227   29.5012   51.3276 H   0  0  0  0  0  0  0  0  0  0  0  0
   59.8160   28.0629   51.2892 H   0  0  0  0  0  0  0  0  0  0  0  0
   58.3658   27.9403   49.2769 H   0  0  0  0  0  0  0  0  0  0  0  0
   58.1620   28.3980   46.9700 H   0  0  0  0  0  0  0  0  0  0  0  0
   58.9564   31.8791   43.9857 H   0  0  0  0  0  0  0  0  0  0  0  0
   57.6254   31.9672   41.9346 H   0  0  0  0  0  0  0  0  0  0  0  0
   55.7276   30.4195   41.5532 H   0  0  0  0  0  0  0  0  0  0  0  0
   55.1954   28.7485   43.3298 H   0  0  0  0  0  0  0  0  0  0  0  0
   60.9680   30.7523   47.3014 H   0  0  0  0  0  0  0  0  0  0  0  0
   60.8100   32.8390   49.0050 H   0  0  0  0  0  0  0  0  0  0  0  0
  1  2  1  0
  2  3  1  0
  3  4  2  0
  4  5  1  0
  5  6  2  0
  6  7  1  0
  7  8  2  0
  8  9  1  0
  9 10  2  0
 10 11  1  0
 11 12  2  0
 12 13  1  0
 13 14  1  0
 14 15  2  0
 15 16  1  0
 16 17  2  0
 17 18  1  0
 18 19  2  0
 19 20  1  0
 20 21  1  0
 21 22  1  0
 22 23  2  0
 22 24  1  0
 24 25  2  0
 25 26  1  0
 26 27  2  0
 27 28  1  0
 28 29  2  0
 29 30  1  0
 20 31  2  0
 14 32  1  0
  8  3  1  0
 32 10  1  0
 31 16  1  0
 29 24  1  0
  1 33  1  0
  1 34  1  0
  1 35  1  0
  4 36  1  0
  5 37  1  0
  6 38  1  0
  7 39  1  0
 11 40  1  0
 12 41  1  0
 13 42  1  0
 17 43  1  0
 18 44  1  0
 19 45  1  0
 21 46  1  0
 25 47  1  0
 26 48  1  0
 27 49  1  0
 28 50  1  0
 31 51  1  0
 32 52  1  0
M  END
>  <smiles>  (65) 
COc1ccccc1N=c1cc[nH]c(=Nc2cccc(NC(=O)c3ccccc3F)c2)[nH]1

>  <score_type>  (65) 
oracle

>  <origin>  (65) 
adg

>  <m_score__min__energy>  (65) 
-9.4000000000000004

>  <m_primary>  (65) 
energy

$$$$
65:0
     RDKit          3D

 40 42  0  0  1  0  0  0  0  0999 V2000
   56.0890   29.3660   42.3080 N   0  0  0  0  0  0  0  0  0  0  0  0
   56.8770   29.3480   43.8680 S   0  0  0  0  0  0  0  0  0  0  0  0
   55.9320   28.9640   44.9400 O   0  0  0  0  0  0  0  0  0  0  0  0
   57.9780   28.3210   43.7520 O   0  0  0  0  0  0  0  0  0  0  0  0
   57.5740   30.9380   44.0650 C   0  0  0  0  0  0  0  0  0  0  0  0
   57.7260   31.7910   42.9640 C   0  0  0  0  0  0  0  0  0  0  0  0
   58.2830   33.0480   43.1550 C   0  0  0  0  0  0  0  0  0  0  0  0
   58.6950   33.4800   44.4180 C   0  0  0  0  0  0  0  0  0  0  0  0
   58.5410   32.6250   45.5160 C   0  0  0  0  0  0  0  0  0  0  0  0
   57.9780   31.3480   45.3420 C   0  0  0  0  0  0  0  0  0  0  0  0
   59.4320   26.3360   46.0910 N   0  0  0  0  0  0  0  0  0  0  0  0
   59.4220   27.4760   46.6990 C   0  0  0  0  0  0  0  0  0  0  0  0
   58.6110   28.4770   46.3030 N   0  0  0  0  0  0  0  0  0  0  0  0
   58.5760   29.6770   46.9160 C   0  0  0  0  0  0  0  0  0  0  0  0
   57.7960   30.5590   46.4920 N   0  0  0  0  0  0  0  0  0  0  0  0
   58.2520   25.5280   46.0010 C   0  0  0  0  0  0  0  0  0  0  0  0
   58.2690   24.1620   46.0540 C   0  0  0  0  0  0  0  0  0  0  0  0
   57.0460   23.5090   45.9550 C   0  0  0  0  0  0  0  0  0  0  0  0
   55.8540   24.1840   45.8110 C   0  0  0  0  0  0  0  0  0  0  0  0
   54.6570   23.5710   45.7130 F   0  0  0  0  0  0  0  0  0  0  0  0
   55.8620   25.5660   45.7610 C   0  0  0  0  0  0  0  0  0  0  0  0
   54.6690   26.2970   45.6140 O   0  0  0  0  0  0  0  0  0  0  0  0
   57.0580   26.2390   45.8560 C   0  0  0  0  0  0  0  0  0  0  0  0
   60.2440   27.6560   47.7500 N   0  0  0  0  0  0  0  0  0  0  0  0
   60.2210   28.8490   48.3730 C   0  0  0  0  0  0  0  0  0  0  0  0
   59.4030   29.8840   47.9870 C   0  0  0  0  0  0  0  0  0  0  0  0
   59.4550   31.5230   48.9370 Br  0  0  0  0  0  0  0  0  0  0  0  0
   55.5160   28.4840   42.1760 H   0  0  0  0  0  0  0  0  0  0  0  0
   55.4080   30.1480   42.2690 H   0  0  0  0  0  0  0  0  0  0  0  0
   57.4081   31.4688   41.9614 H   0  0  0  0  0  0  0  0  0  0  0  0
   58.4027   33.7194   42.2920 H   0  0  0  0  0  0  0  0  0  0  0  0
   59.1350   34.4797   44.5483 H   0  0  0  0  0  0  0  0  0  0  0  0
   58.8608   32.9525   46.5162 H   0  0  0  0  0  0  0  0  0  0  0  0
   57.9680   28.3220   45.4730 H   0  0  0  0  0  0  0  0  0  0  0  0
   59.2098   23.6039   46.1700 H   0  0  0  0  0  0  0  0  0  0  0  0
   57.0294   22.4098   45.9932 H   0  0  0  0  0  0  0  0  0  0  0  0
   54.7710   27.1100   44.9990 H   0  0  0  0  0  0  0  0  0  0  0  0
   57.0744   27.3382   45.8178 H   0  0  0  0  0  0  0  0  0  0  0  0
   60.8750   26.8730   48.0560 H   0  0  0  0  0  0  0  0  0  0  0  0
   60.8894   29.0031   49.2329 H   0  0  0  0  0  0  0  0  0  0  0  0
  1  2  1  0
  2  3  2  0
  2  4  2  0
  2  5  1  0
  5  6  2  0
  6  7  1  0
  7  8  2  0
  8  9  1  0
  9 10  2  0
 10 11  1  0
 11 12  2  0
 12 13  1  0
 13 14  1  0
 14 15  2  0
 15 16  1  0
 16 17  2  0
 17 18  1  0
 18 19  2  0
 19 20  1  0
 19 21  1  0
 21 22  1  0
 21 23  2  0
 14 24  1  0
 24 25  1  0
 25 26  2  0
 26 27  1  0
 10  5  1  0
 26 12  1  0
 23 16  1  0
  1 28  1  0
  1 29  1  0
  6 30  1  0
  7 31  1  0
  8 32  1  0
  9 33  1  0
 13 34  1  0
 17 35  1  0
 18 36  1  0
 22 37  1  0
 23 38  1  0
 24 39  1  0
 25 40  1  0
M  END
>  <smiles>  (66) 
NS(=O)(=O)c1ccccc1N=c1[nH]c(=Nc2ccc(F)c(O)c2)[nH]cc1Br

>  <score_type>  (66) 
oracle

>  <origin>  (66) 
adg

>  <m_score__min__energy>  (66) 
-9.6799999999999997

>  <m_primary>  (66) 
energy

$$$$
66:0
     RDKit          3D

 47 48  0  0  0  0  0  0  0  0999 V2000
   57.0420   24.9350   43.3380 N   0  0  0  0  0  0  0  0  0  0  0  0
   56.3600   23.5200   44.0600 S   0  0  0  0  0  0  0  0  0  0  0  0
   57.4360   22.7750   44.7970 O   0  0  0  0  0  0  0  0  0  0  0  0
   55.7920   22.6340   42.9860 O   0  0  0  0  0  0  0  0  0  0  0  0
   55.0730   23.9690   45.2150 C   0  0  0  0  0  0  0  0  0  0  0  0
   55.6050   24.9200   46.2920 C   0  0  0  0  0  0  0  0  0  0  0  0
   55.7040   26.2960   45.7940 N   0  0  0  0  0  0  0  0  0  0  0  0
   57.2950   26.9660   46.0190 S   0  0  0  0  0  0  0  0  0  0  0  0
   58.2960   26.1650   45.2340 O   0  0  0  0  0  0  0  0  0  0  0  0
   57.6590   26.8670   47.4730 O   0  0  0  0  0  0  0  0  0  0  0  0
   57.3650   28.6600   45.5370 C   0  0  0  0  0  0  0  0  0  0  0  0
   56.5500   29.1200   44.4980 C   0  0  0  0  0  0  0  0  0  0  0  0
   56.5870   30.4660   44.1190 C   0  0  0  0  0  0  0  0  0  0  0  0
   57.4400   31.3640   44.7690 C   0  0  0  0  0  0  0  0  0  0  0  0
   57.4150   32.7090   44.3690 O   0  0  0  0  0  0  0  0  0  0  0  0
   57.3180   33.8330   45.2480 C   0  0  0  0  0  0  0  0  0  0  0  0
   58.6590   34.4480   45.5020 C   0  0  0  0  0  0  0  0  0  0  0  0
   59.5000   34.5500   44.5670 O   0  0  0  0  0  0  0  0  0  0  0  0
   58.9950   34.8760   46.8260 N   0  0  0  0  0  0  0  0  0  0  0  0
   59.4230   33.9690   47.8860 C   0  0  0  0  0  0  0  0  0  0  0  0
   60.9210   33.8460   47.9030 C   0  0  0  0  0  0  0  0  0  0  0  0
   61.6330   33.6140   46.7150 C   0  0  0  0  0  0  0  0  0  0  0  0
   63.0250   33.4660   46.7420 C   0  0  0  0  0  0  0  0  0  0  0  0
   63.7110   33.5460   47.9560 C   0  0  0  0  0  0  0  0  0  0  0  0
   63.0100   33.7780   49.1440 C   0  0  0  0  0  0  0  0  0  0  0  0
   61.6190   33.9260   49.1200 C   0  0  0  0  0  0  0  0  0  0  0  0
   58.2780   30.8920   45.7980 C   0  0  0  0  0  0  0  0  0  0  0  0
   58.2380   29.5500   46.1780 C   0  0  0  0  0  0  0  0  0  0  0  0
   58.0730   24.9020   43.5070 H   0  0  0  0  0  0  0  0  0  0  0  0
   56.6740   25.7600   43.8630 H   0  0  0  0  0  0  0  0  0  0  0  0
   54.2573   24.4653   44.6688 H   0  0  0  0  0  0  0  0  0  0  0  0
   54.7095   23.0541   45.7057 H   0  0  0  0  0  0  0  0  0  0  0  0
   54.9226   24.9005   47.1546 H   0  0  0  0  0  0  0  0  0  0  0  0
   56.6120   24.5847   46.5810 H   0  0  0  0  0  0  0  0  0  0  0  0
   55.8781   28.4217   43.9774 H   0  0  0  0  0  0  0  0  0  0  0  0
   55.9401   30.8211   43.3033 H   0  0  0  0  0  0  0  0  0  0  0  0
   56.6594   34.5872   44.7926 H   0  0  0  0  0  0  0  0  0  0  0  0
   56.9100   33.4857   46.2087 H   0  0  0  0  0  0  0  0  0  0  0  0
   59.0811   34.3593   48.8559 H   0  0  0  0  0  0  0  0  0  0  0  0
   58.9873   32.9760   47.7010 H   0  0  0  0  0  0  0  0  0  0  0  0
   61.0943   33.5482   45.7582 H   0  0  0  0  0  0  0  0  0  0  0  0
   63.5778   33.2869   45.8080 H   0  0  0  0  0  0  0  0  0  0  0  0
   64.8043   33.4264   47.9779 H   0  0  0  0  0  0  0  0  0  0  0  0
   63.5531   33.8442   50.0983 H   0  0  0  0  0  0  0  0  0  0  0  0
   61.0702   34.1055   50.0563 H   0  0  0  0  0  0  0  0  0  0  0  0
   58.9669   31.5842   46.3042 H   0  0  0  0  0  0  0  0  0  0  0  0
   58.8941   29.1890   46.9837 H   0  0  0  0  0  0  0  0  0  0  0  0
  1  2  1  0
  2  3  2  0
  2  4  2  0
  2  5  1  0
  5  6  1  0
  6  7  1  0
  7  8  1  0
  8  9  2  0
  8 10  2  0
  8 11  1  0
 11 12  2  0
 12 13  1  0
 13 14  2  0
 14 15  1  0
 15 16  1  0
 16 17  1  0
 17 18  2  0
 17 19  1  0
 19 20  1  0
 20 21  1  0
 21 22  2  0
 22 23  1  0
 23 24  2  0
 24 25  1  0
 25 26  2  0
 14 27  1  0
 27 28  2  0
 28 11  1  0
 26 21  1  0
  1 29  1  0
  1 30  1  0
  5 31  1  0
  5 32  1  0
  6 33  1  0
  6 34  1  0
 12 35  1  0
 13 36  1  0
 16 37  1  0
 16 38  1  0
 20 39  1  0
 20 40  1  0
 22 41  1  0
 23 42  1  0
 24 43  1  0
 25 44  1  0
 26 45  1  0
 27 46  1  0
 28 47  1  0
M  CHG  2   7  -1  19  -1
M  END
>  <UniqueID>  (67) 
59

>  <SMILES>  (67) 
NS(=O)(=O)CC[N-]S(=O)(=O)c1ccc(OCC(=O)[N-]Cc2ccccc2)cc1

>  <Energy>  (67) 
35.836794153191605

>  <Genealogy>  (67) 
NS(=O)(=O)CC[N-]S(=O)(=O)c1ccc(OCC(=O)[N-]Cc2ccccc2)cc1 (protonated)
NS(=O)(=O)CC[N-]S(=O)(=O)c1ccc(OCC(=O)[N-]Cc2ccccc2)cc1 (3D coordinates assigned)
NS(=O)(=O)CC[N-]S(=O)(=O)c1ccc(OCC(=O)[N-]Cc2ccccc2)cc1 (optimized conformer: 35.836794153191605 kcal/mol)

>  <smiles>  (67) 
NS(=O)(=O)CCNS(=O)(=O)c1ccc(OCC(=O)NCc2ccccc2)cc1

>  <score_type>  (67) 
oracle

>  <origin>  (67) 
adg

>  <m_score__min__energy>  (67) 
-11.199999999999999

>  <m_primary>  (67) 
energy

$$$$
67:0
     RDKit          3D

 37 39  0  0  0  0  0  0  0  0999 V2000
   59.1330   30.2950   48.4910 N   0  0  0  0  0  0  0  0  0  0  0  0
   59.9360   31.0510   48.1420 C   0  0  0  0  0  0  0  0  0  0  0  0
   60.9380   31.9940   47.7090 C   0  0  0  0  0  0  0  0  0  0  0  0
   62.2430   31.8630   48.2060 C   0  0  0  0  0  0  0  0  0  0  0  0
   63.2360   32.7690   47.8300 C   0  0  0  0  0  0  0  0  0  0  0  0
   62.9330   33.8160   46.9590 C   0  0  0  0  0  0  0  0  0  0  0  0
   61.6370   33.9570   46.4570 C   0  0  0  0  0  0  0  0  0  0  0  0
   60.6310   33.0440   46.8140 C   0  0  0  0  0  0  0  0  0  0  0  0
   59.0000   33.2510   46.1510 S   0  0  0  0  0  0  0  0  0  0  0  0
   58.8170   34.6880   45.7550 O   0  0  0  0  0  0  0  0  0  0  0  0
   57.9610   32.8880   47.1760 O   0  0  0  0  0  0  0  0  0  0  0  0
   58.7690   32.2530   44.7510 N   0  0  0  0  0  0  0  0  0  0  0  0
   58.2910   30.9010   44.7660 C   0  0  0  0  0  0  0  0  0  0  0  0
   59.2250   29.8600   44.7160 C   0  0  0  0  0  0  0  0  0  0  0  0
   58.8030   28.5280   44.7440 C   0  0  0  0  0  0  0  0  0  0  0  0
   57.4410   28.2150   44.8380 C   0  0  0  0  0  0  0  0  0  0  0  0
   57.0380   26.8380   44.8600 N   0  0  0  0  0  0  0  0  0  0  0  0
   56.9240   26.0710   46.0690 C   0  0  0  0  0  0  0  0  0  0  0  0
   57.3450   26.5400   47.1610 O   0  0  0  0  0  0  0  0  0  0  0  0
   56.3450   24.7180   46.0380 C   0  0  0  0  0  0  0  0  0  0  0  0
   56.9980   23.5630   45.6620 C   0  0  0  0  0  0  0  0  0  0  0  0
   56.0470   22.5780   45.8070 C   0  0  0  0  0  0  0  0  0  0  0  0
   54.8980   23.1240   46.2470 N   0  0  0  0  0  0  0  0  0  0  0  0
   55.0780   24.4280   46.3880 N   0  0  0  0  0  0  0  0  0  0  0  0
   56.4960   29.2600   44.8560 C   0  0  0  0  0  0  0  0  0  0  0  0
   55.1330   28.9840   44.8690 O   0  0  0  0  0  0  0  0  0  0  0  0
   56.9210   30.5920   44.8330 C   0  0  0  0  0  0  0  0  0  0  0  0
   62.4853   31.0414   48.8962 H   0  0  0  0  0  0  0  0  0  0  0  0
   64.2582   32.6575   48.2207 H   0  0  0  0  0  0  0  0  0  0  0  0
   63.7158   34.5315   46.6671 H   0  0  0  0  0  0  0  0  0  0  0  0
   61.4025   34.7893   45.7770 H   0  0  0  0  0  0  0  0  0  0  0  0
   60.2985   30.0918   44.6542 H   0  0  0  0  0  0  0  0  0  0  0  0
   59.5464   27.7189   44.6918 H   0  0  0  0  0  0  0  0  0  0  0  0
   56.9740   26.3340   43.9460 H   0  0  0  0  0  0  0  0  0  0  0  0
   58.0391   23.4538   45.3240 H   0  0  0  0  0  0  0  0  0  0  0  0
   56.2022   21.5097   45.5959 H   0  0  0  0  0  0  0  0  0  0  0  0
   56.1788   31.4032   44.8675 H   0  0  0  0  0  0  0  0  0  0  0  0
  1  2  3  0
  2  3  1  0
  3  4  2  0
  4  5  1  0
  5  6  2  0
  6  7  1  0
  7  8  2  0
  8  9  1  0
  9 10  2  0
  9 11  2  0
  9 12  1  0
 12 13  1  0
 13 14  2  0
 14 15  1  0
 15 16  2  0
 16 17  1  0
 17 18  1  0
 18 19  2  0
 18 20  1  0
 20 21  1  0
 21 22  2  0
 22 23  1  0
 23 24  1  0
 16 25  1  0
 25 26  1  0
 25 27  2  0
  8  3  1  0
 27 13  1  0
 24 20  2  0
  4 28  1  0
  5 29  1  0
  6 30  1  0
  7 31  1  0
 14 32  1  0
 15 33  1  0
 17 34  1  0
 21 35  1  0
 22 36  1  0
 27 37  1  0
M  CHG  3  12  -1  23  -1  26  -1
M  END
>  <UniqueID>  (68) 
60

>  <SMILES>  (68) 
N#Cc1ccccc1S(=O)(=O)[N-]c1ccc(NC(=O)c2cc[n-]n2)c([O-])c1

>  <Energy>  (68) 
77.53847169660573

>  <Genealogy>  (68) 
N#Cc1ccccc1S(=O)(=O)[N-]c1ccc(NC(=O)c2cc[n-]n2)c([O-])c1 (protonated)
N#Cc1ccccc1S(=O)(=O)[N-]c1ccc(NC(=O)c2cc[n-]n2)c([O-])c1 (3D coordinates assigned)
N#Cc1ccccc1S(=O)(=O)[N-]c1ccc(NC(=O)c2cc[n-]n2)c([O-])c1 (optimized conformer: 77.53847169660573 kcal/mol)

>  <smiles>  (68) 
N#Cc1ccccc1S(=O)(=O)Nc1ccc(NC(=O)c2cc[nH]n2)c(O)c1

>  <score_type>  (68) 
oracle

>  <origin>  (68) 
adg

>  <m_score__min__energy>  (68) 
-14.1

>  <m_primary>  (68) 
energy

$$$$
68:0
     RDKit          3D

 35 36  0  0  0  0  0  0  0  0999 V2000
   55.1860   29.3090   45.0570 O   0  0  0  0  0  0  0  0  0  0  0  0
   55.2320   29.7110   43.7090 C   0  0  0  0  0  0  0  0  0  0  0  0
   56.5750   30.3960   43.4180 C   0  0  0  0  0  0  0  0  0  0  0  0
   56.9630   31.2980   44.5290 N   0  0  0  0  0  0  0  0  0  0  0  0
   57.6980   32.4690   44.0060 C   0  0  0  0  0  0  0  0  0  0  0  0
   58.0420   33.4260   45.1500 C   0  0  0  0  0  0  0  0  0  0  0  0
   58.7170   32.7210   46.2530 N   0  0  0  0  0  0  0  0  0  0  0  0
   59.1810   33.4570   47.4160 C   0  0  0  0  0  0  0  0  0  0  0  0
   59.1340   35.0970   47.4560 S   0  0  0  0  0  0  0  0  0  0  0  0
   59.8300   32.6310   48.8760 S   0  0  0  0  0  0  0  0  0  0  0  0
   61.5330   32.9140   48.3990 C   0  0  0  0  0  0  0  0  0  0  0  0
   62.5800   32.5500   49.2560 C   0  0  0  0  0  0  0  0  0  0  0  0
   63.9020   32.7700   48.8510 C   0  0  0  0  0  0  0  0  0  0  0  0
   64.1640   33.3390   47.6000 C   0  0  0  0  0  0  0  0  0  0  0  0
   63.0920   33.6850   46.7710 C   0  0  0  0  0  0  0  0  0  0  0  0
   61.8110   33.4660   47.1840 N   0  0  0  0  0  0  0  0  0  0  0  0
   58.9710   31.2830   46.0940 C   0  0  0  0  0  0  0  0  0  0  0  0
   57.6960   30.5710   45.6050 C   0  0  0  0  0  0  0  0  0  0  0  0
   55.4390   30.1050   45.6020 H   0  0  0  0  0  0  0  0  0  0  0  0
   55.1235   28.8290   43.0607 H   0  0  0  0  0  0  0  0  0  0  0  0
   54.4126   30.4179   43.5118 H   0  0  0  0  0  0  0  0  0  0  0  0
   57.3511   29.6269   43.2913 H   0  0  0  0  0  0  0  0  0  0  0  0
   56.4719   30.9941   42.5006 H   0  0  0  0  0  0  0  0  0  0  0  0
   58.6264   32.1302   43.5231 H   0  0  0  0  0  0  0  0  0  0  0  0
   57.0664   32.9939   43.2742 H   0  0  0  0  0  0  0  0  0  0  0  0
   58.7068   34.2153   44.7692 H   0  0  0  0  0  0  0  0  0  0  0  0
   57.1062   33.8574   45.5349 H   0  0  0  0  0  0  0  0  0  0  0  0
   62.3659   32.0969   50.2352 H   0  0  0  0  0  0  0  0  0  0  0  0
   64.7342   32.4957   49.5160 H   0  0  0  0  0  0  0  0  0  0  0  0
   65.1998   33.5120   47.2726 H   0  0  0  0  0  0  0  0  0  0  0  0
   63.2824   34.1341   45.7851 H   0  0  0  0  0  0  0  0  0  0  0  0
   59.7753   31.1348   45.3584 H   0  0  0  0  0  0  0  0  0  0  0  0
   59.2692   30.8607   47.0649 H   0  0  0  0  0  0  0  0  0  0  0  0
   57.9804   29.5806   45.2199 H   0  0  0  0  0  0  0  0  0  0  0  0
   57.0157   30.5144   46.4675 H   0  0  0  0  0  0  0  0  0  0  0  0
  1  2  1  0
  2  3  1  0
  3  4  1  0
  4  5  1  0
  5  6  1  0
  6  7  1  0
  7  8  1  0
  8  9  2  0
  8 10  1  0
 10 11  1  0
 11 12  2  0
 12 13  1  0
 13 14  2  0
 14 15  1  0
 15 16  2  0
  7 17  1  0
 17 18  1  0
 18  4  1  0
 16 11  1  0
  1 19  1  0
  2 20  1  0
  2 21  1  0
  3 22  1  0
  3 23  1  0
  5 24  1  0
  5 25  1  0
  6 26  1  0
  6 27  1  0
 12 28  1  0
 13 29  1  0
 14 30  1  0
 15 31  1  0
 17 32  1  0
 17 33  1  0
 18 34  1  0
 18 35  1  0
M  END
>  <UniqueID>  (69) 
61

>  <SMILES>  (69) 
OCCN1CCN(C(=S)Sc2ccccn2)CC1

>  <Energy>  (69) 
37.43515110783027

>  <Genealogy>  (69) 
OCCN1CCN(C(=S)Sc2ccccn2)CC1 (3D coordinates assigned)
OCCN1CCN(C(=S)Sc2ccccn2)CC1 (nonaromatic ring conformer: 37.43515110783027 kcal/mol)

>  <smiles>  (69) 
OCCN1CCN(C(=S)Sc2ccccn2)CC1

>  <score_type>  (69) 
oracle

>  <origin>  (69) 
adg

>  <m_score__min__energy>  (69) 
-7.3300000000000001

>  <m_primary>  (69) 
energy

$$$$
69:0
     RDKit          3D

 66 68  0  0  0  0  0  0  0  0999 V2000
   56.5558   27.3436   46.5837 H   0  0  0  0  0  0  0  0  0  0  0  0
   56.4550   26.4270   45.9840 C   0  0  0  0  0  0  0  0  0  0  0  0
   55.3760   25.6190   46.1600 N   0  0  0  0  0  0  0  0  0  0  0  0
   55.2070   24.4720   45.4460 C   0  0  0  0  0  0  0  0  0  0  0  0
   54.0170   23.6380   45.6820 C   0  0  0  0  0  0  0  0  0  0  0  0
   53.6570   23.3710   46.8590 O   0  0  0  0  0  0  0  0  0  0  0  0
   53.2790   23.1360   44.6160 O   0  0  0  0  0  0  0  0  0  0  0  0
   56.1740   24.1000   44.5000 C   0  0  0  0  0  0  0  0  0  0  0  0
   56.0513   23.1763   43.9154 H   0  0  0  0  0  0  0  0  0  0  0  0
   57.2920   24.9110   44.3070 C   0  0  0  0  0  0  0  0  0  0  0  0
   58.0615   24.6209   43.5764 H   0  0  0  0  0  0  0  0  0  0  0  0
   57.4370   26.0990   45.0450 C   0  0  0  0  0  0  0  0  0  0  0  0
   58.5490   26.9420   44.8980 O   0  0  0  0  0  0  0  0  0  0  0  0
   58.9380   27.9400   45.8060 C   0  0  0  0  0  0  0  0  0  0  0  0
   59.5760   27.5430   46.9770 C   0  0  0  0  0  0  0  0  0  0  0  0
   59.8042   26.4694   47.0495 H   0  0  0  0  0  0  0  0  0  0  0  0
   59.9640   28.3070   48.0630 C   0  0  0  0  0  0  0  0  0  0  0  0
   60.6351   27.8071   48.7770 H   0  0  0  0  0  0  0  0  0  0  0  0
   59.6250   29.6180   48.3790 C   0  0  0  0  0  0  0  0  0  0  0  0
   59.9650   29.9640   49.7050 O   0  0  0  0  0  0  0  0  0  0  0  0
   59.5600   31.1080   50.4620 C   0  0  1  0  0  0  0  0  0  0  0  0
   59.3609   31.9274   49.7556 H   0  0  0  0  0  0  0  0  0  0  0  0
   58.2810   30.8570   51.2370 C   0  0  0  0  0  0  0  0  0  0  0  0
   57.8250   29.6800   51.2370 O   0  0  0  0  0  0  0  0  0  0  0  0
   57.5260   31.9050   51.8940 N   0  0  0  0  0  0  0  0  0  0  0  0
   58.0860   33.2380   52.1450 C   0  0  0  0  0  0  0  0  0  0  0  0
   58.1572   33.4075   53.2295 H   0  0  0  0  0  0  0  0  0  0  0  0
   59.0883   33.3050   51.6968 H   0  0  0  0  0  0  0  0  0  0  0  0
   57.4322   34.0007   51.6968 H   0  0  0  0  0  0  0  0  0  0  0  0
   56.1650   31.6000   52.3510 C   0  0  0  0  0  0  0  0  0  0  0  0
   56.1401   31.5944   53.4507 H   0  0  0  0  0  0  0  0  0  0  0  0
   55.4710   32.3649   51.9724 H   0  0  0  0  0  0  0  0  0  0  0  0
   55.8638   30.6121   51.9724 H   0  0  0  0  0  0  0  0  0  0  0  0
   60.6790   31.4970   51.4250 C   0  0  0  0  0  0  0  0  0  0  0  0
   60.3299   31.3756   52.4610 H   0  0  0  0  0  0  0  0  0  0  0  0
   61.5516   30.8495   51.2539 H   0  0  0  0  0  0  0  0  0  0  0  0
   60.9618   32.5462   51.2539 H   0  0  0  0  0  0  0  0  0  0  0  0
   59.0140   30.5410   47.5060 C   0  0  0  0  0  0  0  0  0  0  0  0
   58.4880   31.6520   48.0690 F   0  0  0  0  0  0  0  0  0  0  0  0
   58.9060   30.4470   46.1000 C   0  0  0  0  0  0  0  0  0  0  0  0
   58.8760   31.5290   45.3630 N   0  0  0  0  0  0  0  0  0  0  0  0
   57.7510   32.2370   44.7400 C   0  0  2  0  0  0  0  0  0  0  0  0
   56.8234   31.6577   44.8584 H   0  0  0  0  0  0  0  0  0  0  0  0
   58.0360   32.4220   43.2460 C   0  0  0  0  0  0  0  0  0  0  0  0
   58.9524   33.0169   43.1185 H   0  0  0  0  0  0  0  0  0  0  0  0
   58.1691   31.4376   42.7735 H   0  0  0  0  0  0  0  0  0  0  0  0
   57.1911   32.9443   42.7735 H   0  0  0  0  0  0  0  0  0  0  0  0
   57.5880   33.6130   45.4240 C   0  0  0  0  0  0  0  0  0  0  0  0
   56.7734   34.1573   44.9238 H   0  0  0  0  0  0  0  0  0  0  0  0
   57.3701   33.4255   46.4858 H   0  0  0  0  0  0  0  0  0  0  0  0
   58.8620   34.4770   45.3650 C   0  0  0  0  0  0  0  0  0  0  0  0
   59.4156   34.2224   44.4492 H   0  0  0  0  0  0  0  0  0  0  0  0
   58.5449   35.5303   45.3751 H   0  0  0  0  0  0  0  0  0  0  0  0
   59.7720   34.2700   46.5490 C   0  0  0  0  0  0  0  0  0  0  0  0
   59.3050   34.4960   47.8560 C   0  0  0  0  0  0  0  0  0  0  0  0
   58.2825   34.8689   48.0153 H   0  0  0  0  0  0  0  0  0  0  0  0
   60.1340   34.2490   48.9530 C   0  0  0  0  0  0  0  0  0  0  0  0
   59.7626   34.4272   49.9729 H   0  0  0  0  0  0  0  0  0  0  0  0
   61.4340   33.7760   48.7570 C   0  0  0  0  0  0  0  0  0  0  0  0
   62.0834   33.5781   49.6226 H   0  0  0  0  0  0  0  0  0  0  0  0
   61.9100   33.5540   47.4610 C   0  0  0  0  0  0  0  0  0  0  0  0
   62.9348   33.1851   47.3072 H   0  0  0  0  0  0  0  0  0  0  0  0
   61.0830   33.8010   46.3600 C   0  0  0  0  0  0  0  0  0  0  0  0
   61.4608   33.6273   45.3416 H   0  0  0  0  0  0  0  0  0  0  0  0
   58.7630   29.2540   45.3770 C   0  0  0  0  0  0  0  0  0  0  0  0
   58.3980   29.3830   44.0700 F   0  0  0  0  0  0  0  0  0  0  0  0
  1  2  1  0
  2  3  2  0
  3  4  1  0
  4  5  1  0
  5  6  2  0
  5  7  1  0
  4  8  2  0
  8  9  1  0
  8 10  1  0
 10 11  1  0
 10 12  2  0
 12 13  1  0
 13 14  1  0
 14 15  1  0
 15 16  1  0
 15 17  2  0
 17 18  1  0
 17 19  1  0
 19 20  1  0
 20 21  1  0
 21 22  1  6
 21 23  1  0
 23 24  2  0
 23 25  1  0
 25 26  1  0
 26 27  1  0
 26 28  1  0
 26 29  1  0
 25 30  1  0
 30 31  1  0
 30 32  1  0
 30 33  1  0
 21 34  1  0
 34 35  1  0
 34 36  1  0
 34 37  1  0
 19 38  2  0
 38 39  1  0
 38 40  1  0
 40 41  2  0
 41 42  1  0
 42 43  1  6
 42 44  1  0
 44 45  1  0
 44 46  1  0
 44 47  1  0
 42 48  1  0
 48 49  1  0
 48 50  1  0
 48 51  1  0
 51 52  1  0
 51 53  1  0
 51 54  1  0
 54 55  2  0
 55 56  1  0
 55 57  1  0
 57 58  1  0
 57 59  2  0
 59 60  1  0
 59 61  1  0
 61 62  1  0
 61 63  2  0
 63 64  1  0
 40 65  1  0
 65 66  1  0
 12  2  1  0
 65 14  2  0
 63 54  1  0
M  CHG  1   7  -1
M  END
>  <UniqueID>  (70) 
62

>  <SMILES>  (70) 
C[C@H](CCc1ccccc1)/N=c1/c(F)c(Oc2ccc(C(=O)[O-])nc2)ccc(O[C@H](C)C(=O)N(C)C)c1F

>  <Energy>  (70) 
103.45593603653538

>  <Genealogy>  (70) 
CC(CCc1ccccc1)N=c1c(F)c(Oc2ccc(C(=O)[O-])nc2)ccc(OC(C)C(=O)N(C)C)c1F (protonated)
C[C@H](CCc1ccccc1)N=c1c(F)c(Oc2ccc(C(=O)[O-])nc2)ccc(O[C@H](C)C(=O)N(C)C)c1F (chirality)
C[C@H](CCc1ccccc1)/N=c1/c(F)c(Oc2ccc(C(=O)[O-])nc2)ccc(O[C@H](C)C(=O)N(C)C)c1F (cis-trans isomerization)
C[C@H](CCc1ccccc1)/N=c1/c(F)c(Oc2ccc(C(=O)[O-])nc2)ccc(O[C@H](C)C(=O)N(C)C)c1F (3D coordinates assigned)
C[C@H](CCc1ccccc1)/N=c1/c(F)c(Oc2ccc(C(=O)[O-])nc2)ccc(O[C@H](C)C(=O)N(C)C)c1F (optimized conformer: 103.45593603653538 kcal/mol)

>  <smiles>  (70) 
CC(CCc1ccccc1)N=c1c(F)c(Oc2ccc(C(=O)O)nc2)ccc(OC(C)C(=O)N(C)C)c1F

>  <score_type>  (70) 
oracle

>  <origin>  (70) 
adg

>  <m_score__min__energy>  (70) 
-10.949999999999999

>  <m_primary>  (70) 
energy

$$$$
70:0
     RDKit          3D

 50 51  0  0  0  0  0  0  0  0999 V2000
   56.2030   29.6220   45.6070 O   0  0  0  0  0  0  0  0  0  0  0  0
   56.0470   29.8330   44.3760 C   0  0  0  0  0  0  0  0  0  0  0  0
   54.8150   29.5840   43.7860 O   0  0  0  0  0  0  0  0  0  0  0  0
   57.1690   30.3880   43.5590 C   0  0  0  0  0  0  0  0  0  0  0  0
   58.4480   29.9570   44.1080 N   0  0  0  0  0  0  0  0  0  0  0  0
   58.8600   28.5890   44.1940 C   0  0  0  0  0  0  0  0  0  0  0  0
   58.1300   27.6760   43.7230 O   0  0  0  0  0  0  0  0  0  0  0  0
   60.1360   28.2300   44.8950 C   0  0  0  0  0  0  0  0  0  0  0  0
   60.0550   28.5210   46.3350 N   0  0  0  0  0  0  0  0  0  0  0  0
   59.5080   27.5010   47.2440 C   0  0  0  0  0  0  0  0  0  0  0  0
   58.4450   26.6810   46.5580 C   0  0  0  0  0  0  0  0  0  0  0  0
   58.7800   25.4740   45.9220 C   0  0  0  0  0  0  0  0  0  0  0  0
   57.7860   24.6820   45.3420 C   0  0  0  0  0  0  0  0  0  0  0  0
   56.4450   25.0880   45.3860 C   0  0  0  0  0  0  0  0  0  0  0  0
   55.4480   24.3000   44.8150 O   0  0  0  0  0  0  0  0  0  0  0  0
   56.1070   26.2950   46.0100 C   0  0  0  0  0  0  0  0  0  0  0  0
   54.7800   26.7080   46.0570 O   0  0  0  0  0  0  0  0  0  0  0  0
   57.1010   27.0880   46.5910 C   0  0  0  0  0  0  0  0  0  0  0  0
   60.3500   29.8370   46.8550 C   0  0  0  0  0  0  0  0  0  0  0  0
   61.4430   30.3840   46.5490 O   0  0  0  0  0  0  0  0  0  0  0  0
   59.3840   30.6160   47.7290 C   0  0  2  0  0  0  0  0  0  0  0  0
   58.8810   29.7620   48.9090 C   0  0  0  0  0  0  0  0  0  0  0  0
   58.5660   30.7670   50.3490 S   0  0  0  0  0  0  0  0  0  0  0  0
   58.2210   31.2450   46.9260 C   0  0  0  0  0  0  0  0  0  0  0  0
   58.5890   32.5900   46.3500 C   0  0  0  0  0  0  0  0  0  0  0  0
   59.7580   33.2490   46.7680 C   0  0  0  0  0  0  0  0  0  0  0  0
   60.0800   34.5070   46.2530 C   0  0  0  0  0  0  0  0  0  0  0  0
   59.2440   35.1150   45.3130 C   0  0  0  0  0  0  0  0  0  0  0  0
   58.0830   34.4640   44.8860 C   0  0  0  0  0  0  0  0  0  0  0  0
   57.7560   33.2060   45.4010 C   0  0  0  0  0  0  0  0  0  0  0  0
   57.0777   30.0284   42.5234 H   0  0  0  0  0  0  0  0  0  0  0  0
   57.1201   31.4867   43.5790 H   0  0  0  0  0  0  0  0  0  0  0  0
   60.3309   27.1563   44.7568 H   0  0  0  0  0  0  0  0  0  0  0  0
   60.9499   28.8318   44.4644 H   0  0  0  0  0  0  0  0  0  0  0  0
   60.3213   26.8358   47.5696 H   0  0  0  0  0  0  0  0  0  0  0  0
   59.0558   28.0083   48.1090 H   0  0  0  0  0  0  0  0  0  0  0  0
   59.8306   25.1508   45.8805 H   0  0  0  0  0  0  0  0  0  0  0  0
   58.0566   23.7366   44.8491 H   0  0  0  0  0  0  0  0  0  0  0  0
   54.4940   24.6280   44.7370 H   0  0  0  0  0  0  0  0  0  0  0  0
   56.8289   28.0366   47.0770 H   0  0  0  0  0  0  0  0  0  0  0  0
   59.9489   31.4609   48.1499 H   0  0  0  0  0  0  0  0  0  0  0  0
   57.9495   29.2566   48.6141 H   0  0  0  0  0  0  0  0  0  0  0  0
   59.6593   29.0271   49.1622 H   0  0  0  0  0  0  0  0  0  0  0  0
   57.9526   30.5679   46.1017 H   0  0  0  0  0  0  0  0  0  0  0  0
   57.3756   31.3919   47.6143 H   0  0  0  0  0  0  0  0  0  0  0  0
   60.4222   32.7721   47.5038 H   0  0  0  0  0  0  0  0  0  0  0  0
   60.9935   35.0199   46.5882 H   0  0  0  0  0  0  0  0  0  0  0  0
   59.4994   36.1058   44.9090 H   0  0  0  0  0  0  0  0  0  0  0  0
   57.4262   34.9419   44.1442 H   0  0  0  0  0  0  0  0  0  0  0  0
   56.8423   32.6962   45.0616 H   0  0  0  0  0  0  0  0  0  0  0  0
  1  2  2  0
  2  3  1  0
  2  4  1  0
  4  5  1  0
  5  6  1  0
  6  7  2  0
  6  8  1  0
  8  9  1  0
  9 10  1  0
 10 11  1  0
 11 12  2  0
 12 13  1  0
 13 14  2  0
 14 15  1  0
 14 16  1  0
 16 17  1  0
 16 18  2  0
  9 19  1  0
 19 20  2  0
 19 21  1  0
 21 22  1  0
 22 23  1  0
 21 24  1  0
 24 25  1  0
 25 26  2  0
 26 27  1  0
 27 28  2  0
 28 29  1  0
 29 30  2  0
 18 11  1  0
 30 25  1  0
  4 31  1  0
  4 32  1  0
  8 33  1  0
  8 34  1  0
 10 35  1  0
 10 36  1  0
 12 37  1  0
 13 38  1  0
 15 39  1  0
 18 40  1  0
 21 41  1  1
 22 42  1  0
 22 43  1  0
 24 44  1  0
 24 45  1  0
 26 46  1  0
 27 47  1  0
 28 48  1  0
 29 49  1  0
 30 50  1  0
M  CHG  4   3  -1   5  -1  17  -1  23  -1
M  END
>  <UniqueID>  (71) 
63

>  <SMILES>  (71) 
O=C([O-])C[N-]C(=O)CN(Cc1ccc(O)c([O-])c1)C(=O)[C@H](C[S-])Cc1ccccc1

>  <Energy>  (71) 
42.395900589278675

>  <Genealogy>  (71) 
O=C([O-])C[N-]C(=O)CN(Cc1ccc(O)c([O-])c1)C(=O)C(C[S-])Cc1ccccc1 (protonated)
O=C([O-])C[N-]C(=O)CN(Cc1ccc(O)c([O-])c1)C(=O)[C@H](C[S-])Cc1ccccc1 (chirality)
O=C([O-])C[N-]C(=O)CN(Cc1ccc(O)c([O-])c1)C(=O)[C@H](C[S-])Cc1ccccc1 (3D coordinates assigned)
O=C([O-])C[N-]C(=O)CN(Cc1ccc(O)c([O-])c1)C(=O)[C@H](C[S-])Cc1ccccc1 (optimized conformer: 42.395900589278675 kcal/mol)

>  <smiles>  (71) 
O=C(O)CNC(=O)CN(Cc1ccc(O)c(O)c1)C(=O)C(CS)Cc1ccccc1

>  <score_type>  (71) 
oracle

>  <origin>  (71) 
adg

>  <m_score__min__energy>  (71) 
-15.6

>  <m_primary>  (71) 
energy

$$$$
71:0
     RDKit          3D

 53 55  0  0  0  0  0  0  0  0999 V2000
   56.8510   28.3740   53.1380 C   0  0  0  0  0  0  0  0  0  0  0  0
   56.1920   29.6500   52.8020 N   0  0  0  0  0  0  0  0  0  0  0  0
   57.1930   30.7340   52.7020 C   0  0  0  0  0  0  0  0  0  0  0  0
   57.3790   31.1490   51.2370 C   0  0  0  0  0  0  0  0  0  0  0  0
   57.9430   30.0780   50.4790 O   0  0  0  0  0  0  0  0  0  0  0  0
   59.2190   29.5160   50.6680 C   0  0  0  0  0  0  0  0  0  0  0  0
   59.5330   28.7360   51.8000 C   0  0  0  0  0  0  0  0  0  0  0  0
   60.8140   28.2040   51.9620 C   0  0  0  0  0  0  0  0  0  0  0  0
   61.7940   28.4350   50.9980 C   0  0  0  0  0  0  0  0  0  0  0  0
   61.4980   29.1980   49.8690 C   0  0  0  0  0  0  0  0  0  0  0  0
   60.2150   29.7480   49.6940 C   0  0  0  0  0  0  0  0  0  0  0  0
   59.9160   30.5410   48.4760 C   0  0  0  0  0  0  0  0  0  0  0  0
   60.5200   31.6330   48.2960 O   0  0  0  0  0  0  0  0  0  0  0  0
   58.9190   30.0940   47.4710 C   0  0  0  0  0  0  0  0  0  0  0  0
   58.3890   31.0130   46.5500 C   0  0  0  0  0  0  0  0  0  0  0  0
   57.4600   30.6000   45.5930 C   0  0  0  0  0  0  0  0  0  0  0  0
   57.0520   29.2640   45.5360 C   0  0  0  0  0  0  0  0  0  0  0  0
   56.1260   28.8740   44.5750 O   0  0  0  0  0  0  0  0  0  0  0  0
   57.5810   28.3290   46.4410 C   0  0  0  0  0  0  0  0  0  0  0  0
   57.0820   26.6380   46.3660 S   0  0  0  0  0  0  0  0  0  0  0  0
   55.3690   26.5530   46.1480 N   0  0  0  0  0  0  0  0  0  0  0  0
   57.7570   25.9410   45.2170 O   0  0  0  0  0  0  0  0  0  0  0  0
   57.4620   25.9470   47.6450 O   0  0  0  0  0  0  0  0  0  0  0  0
   58.5170   28.7470   47.3990 C   0  0  0  0  0  0  0  0  0  0  0  0
   55.1520   29.9710   53.8060 C   0  0  0  0  0  0  0  0  0  0  0  0
   53.9630   30.6080   53.1400 C   0  0  0  0  0  0  0  0  0  0  0  0
   54.0280   30.9660   51.7830 C   0  0  0  0  0  0  0  0  0  0  0  0
   52.9230   31.5450   51.1520 C   0  0  0  0  0  0  0  0  0  0  0  0
   51.7450   31.7680   51.8710 C   0  0  0  0  0  0  0  0  0  0  0  0
   50.6470   32.3440   51.2430 O   0  0  0  0  0  0  0  0  0  0  0  0
   51.6710   31.4110   53.2210 C   0  0  0  0  0  0  0  0  0  0  0  0
   52.7750   30.8310   53.8540 C   0  0  0  0  0  0  0  0  0  0  0  0
   56.9064   28.2667   54.2314 H   0  0  0  0  0  0  0  0  0  0  0  0
   56.2710   27.5397   52.7166 H   0  0  0  0  0  0  0  0  0  0  0  0
   57.8670   28.3640   52.7166 H   0  0  0  0  0  0  0  0  0  0  0  0
   56.8489   31.6013   53.2846 H   0  0  0  0  0  0  0  0  0  0  0  0
   58.1538   30.3733   53.0979 H   0  0  0  0  0  0  0  0  0  0  0  0
   56.4014   31.4181   50.8106 H   0  0  0  0  0  0  0  0  0  0  0  0
   58.0619   32.0104   51.1963 H   0  0  0  0  0  0  0  0  0  0  0  0
   58.7627   28.5450   52.5616 H   0  0  0  0  0  0  0  0  0  0  0  0
   61.0500   27.6017   52.8517 H   0  0  0  0  0  0  0  0  0  0  0  0
   62.8022   28.0148   51.1281 H   0  0  0  0  0  0  0  0  0  0  0  0
   62.2741   29.3713   49.1089 H   0  0  0  0  0  0  0  0  0  0  0  0
   58.7081   32.0652   46.5831 H   0  0  0  0  0  0  0  0  0  0  0  0
   57.0471   31.3293   44.8805 H   0  0  0  0  0  0  0  0  0  0  0  0
   55.1500   27.0500   45.2550 H   0  0  0  0  0  0  0  0  0  0  0  0
   58.9412   28.0143   48.1013 H   0  0  0  0  0  0  0  0  0  0  0  0
   54.8341   29.0453   54.3080 H   0  0  0  0  0  0  0  0  0  0  0  0
   55.5695   30.6741   54.5418 H   0  0  0  0  0  0  0  0  0  0  0  0
   54.9529   30.7899   51.2142 H   0  0  0  0  0  0  0  0  0  0  0  0
   52.9805   31.8251   50.0898 H   0  0  0  0  0  0  0  0  0  0  0  0
   50.7435   31.5865   53.7857 H   0  0  0  0  0  0  0  0  0  0  0  0
   52.7123   30.5485   54.9153 H   0  0  0  0  0  0  0  0  0  0  0  0
  1  2  1  0
  2  3  1  0
  3  4  1  0
  4  5  1  0
  5  6  1  0
  6  7  2  0
  7  8  1  0
  8  9  2  0
  9 10  1  0
 10 11  2  0
 11 12  1  0
 12 13  2  0
 12 14  1  0
 14 15  2  0
 15 16  1  0
 16 17  2  0
 17 18  1  0
 17 19  1  0
 19 20  1  0
 20 21  1  0
 20 22  2  0
 20 23  2  0
 19 24  2  0
  2 25  1  0
 25 26  1  0
 26 27  2  0
 27 28  1  0
 28 29  2  0
 29 30  1  0
 29 31  1  0
 31 32  2  0
 11  6  1  0
 24 14  1  0
 32 26  1  0
  1 33  1  0
  1 34  1  0
  1 35  1  0
  3 36  1  0
  3 37  1  0
  4 38  1  0
  4 39  1  0
  7 40  1  0
  8 41  1  0
  9 42  1  0
 10 43  1  0
 15 44  1  0
 16 45  1  0
 21 46  1  0
 24 47  1  0
 25 48  1  0
 25 49  1  0
 27 50  1  0
 28 51  1  0
 31 52  1  0
 32 53  1  0
M  CHG  3  18  -1  21  -1  30  -1
M  END
>  <UniqueID>  (72) 
64

>  <SMILES>  (72) 
CN(CCOc1ccccc1C(=O)c1ccc([O-])c(S([NH-])(=O)=O)c1)Cc1ccc([O-])cc1

>  <Energy>  (72) 
63.592040439625166

>  <Genealogy>  (72) 
CN(CCOc1ccccc1C(=O)c1ccc([O-])c(S([NH-])(=O)=O)c1)Cc1ccc([O-])cc1 (protonated)
CN(CCOc1ccccc1C(=O)c1ccc([O-])c(S([NH-])(=O)=O)c1)Cc1ccc([O-])cc1 (3D coordinates assigned)
CN(CCOc1ccccc1C(=O)c1ccc([O-])c(S([NH-])(=O)=O)c1)Cc1ccc([O-])cc1 (optimized conformer: 63.592040439625166 kcal/mol)

>  <smiles>  (72) 
CN(CCOc1ccccc1C(=O)c1ccc(O)c(S(N)(=O)=O)c1)Cc1ccc(O)cc1

>  <score_type>  (72) 
oracle

>  <origin>  (72) 
adg

>  <m_score__min__energy>  (72) 
-17.199999999999999

>  <m_primary>  (72) 
energy

$$$$
72:0
     RDKit          3D

 48 50  0  0  0  0  0  0  0  0999 V2000
   61.5470   31.0740   48.3630 C   0  0  0  0  0  0  0  0  0  0  0  0
   61.3450   29.9240   49.3460 C   0  0  0  0  0  0  0  0  0  0  0  0
   60.3330   28.9470   48.8140 C   0  0  0  0  0  0  0  0  0  0  0  0
   60.6380   27.5780   48.7460 C   0  0  0  0  0  0  0  0  0  0  0  0
   59.7240   26.6800   48.1880 C   0  0  0  0  0  0  0  0  0  0  0  0
   58.5050   27.1430   47.6710 C   0  0  0  0  0  0  0  0  0  0  0  0
   57.5760   26.2480   47.0500 N   0  0  0  0  0  0  0  0  0  0  0  0
   56.7920   26.5410   45.8850 C   0  0  0  0  0  0  0  0  0  0  0  0
   55.5400   26.4270   45.9550 O   0  0  0  0  0  0  0  0  0  0  0  0
   57.4080   27.0170   44.5920 C   0  0  0  0  0  0  0  0  0  0  0  0
   57.7610   28.4390   44.6510 N   0  0  0  0  0  0  0  0  0  0  0  0
   56.9440   29.4830   44.8690 C   0  0  0  0  0  0  0  0  0  0  0  0
   55.5780   29.3690   45.1130 O   0  0  0  0  0  0  0  0  0  0  0  0
   57.6870   30.6490   44.8230 C   0  0  0  0  0  0  0  0  0  0  0  0
   57.1880   32.0510   45.0190 C   0  0  0  0  0  0  0  0  0  0  0  0
   58.0500   32.8210   45.9980 C   0  0  0  0  0  0  0  0  0  0  0  0
   57.9350   32.5300   47.3710 C   0  0  0  0  0  0  0  0  0  0  0  0
   58.6940   33.2230   48.3150 C   0  0  0  0  0  0  0  0  0  0  0  0
   59.5810   34.2150   47.9050 C   0  0  0  0  0  0  0  0  0  0  0  0
   59.7210   34.5130   46.5500 C   0  0  0  0  0  0  0  0  0  0  0  0
   58.9780   33.8140   45.5810 C   0  0  0  0  0  0  0  0  0  0  0  0
   59.1560   34.1900   44.1330 C   0  0  0  0  0  0  0  0  0  0  0  0
   58.9760   30.3450   44.5630 N   0  0  0  0  0  0  0  0  0  0  0  0
   58.9740   28.9990   44.4550 C   0  0  0  0  0  0  0  0  0  0  0  0
   60.0150   28.3370   44.1970 O   0  0  0  0  0  0  0  0  0  0  0  0
   58.1870   28.5020   47.7660 C   0  0  0  0  0  0  0  0  0  0  0  0
   59.1000   29.4030   48.3200 C   0  0  0  0  0  0  0  0  0  0  0  0
   61.7111   32.0081   48.9202 H   0  0  0  0  0  0  0  0  0  0  0  0
   62.4224   30.8660   47.7302 H   0  0  0  0  0  0  0  0  0  0  0  0
   60.6531   31.1767   47.7302 H   0  0  0  0  0  0  0  0  0  0  0  0
   62.3032   29.4056   49.4983 H   0  0  0  0  0  0  0  0  0  0  0  0
   60.9783   30.3317   50.2996 H   0  0  0  0  0  0  0  0  0  0  0  0
   61.5999   27.2110   49.1334 H   0  0  0  0  0  0  0  0  0  0  0  0
   59.9613   25.6064   48.1541 H   0  0  0  0  0  0  0  0  0  0  0  0
   58.3180   26.4317   44.3939 H   0  0  0  0  0  0  0  0  0  0  0  0
   56.6688   26.8801   43.7890 H   0  0  0  0  0  0  0  0  0  0  0  0
   55.1350   28.4690   45.2390 H   0  0  0  0  0  0  0  0  0  0  0  0
   57.1974   32.5714   44.0499 H   0  0  0  0  0  0  0  0  0  0  0  0
   56.1683   31.9979   45.4282 H   0  0  0  0  0  0  0  0  0  0  0  0
   57.2381   31.7466   47.7036 H   0  0  0  0  0  0  0  0  0  0  0  0
   58.5915   32.9853   49.3841 H   0  0  0  0  0  0  0  0  0  0  0  0
   60.1726   34.7649   48.6517 H   0  0  0  0  0  0  0  0  0  0  0  0
   60.4194   35.3025   46.2355 H   0  0  0  0  0  0  0  0  0  0  0  0
   59.6258   35.1824   44.0670 H   0  0  0  0  0  0  0  0  0  0  0  0
   59.7978   33.4468   43.6374 H   0  0  0  0  0  0  0  0  0  0  0  0
   58.1743   34.2153   43.6374 H   0  0  0  0  0  0  0  0  0  0  0  0
   57.2135   28.8630   47.4028 H   0  0  0  0  0  0  0  0  0  0  0  0
   58.8521   30.4736   48.3694 H   0  0  0  0  0  0  0  0  0  0  0  0
  1  2  1  0
  2  3  1  0
  3  4  2  0
  4  5  1  0
  5  6  2  0
  6  7  1  0
  7  8  1  0
  8  9  2  0
  8 10  1  0
 10 11  1  0
 11 12  1  0
 12 13  1  0
 12 14  2  0
 14 15  1  0
 15 16  1  0
 16 17  2  0
 17 18  1  0
 18 19  2  0
 19 20  1  0
 20 21  2  0
 21 22  1  0
 14 23  1  0
 23 24  1  0
 24 25  2  0
  6 26  1  0
 26 27  2  0
 27  3  1  0
 24 11  1  0
 21 16  1  0
  1 28  1  0
  1 29  1  0
  1 30  1  0
  2 31  1  0
  2 32  1  0
  4 33  1  0
  5 34  1  0
 10 35  1  0
 10 36  1  0
 13 37  1  0
 15 38  1  0
 15 39  1  0
 17 40  1  0
 18 41  1  0
 19 42  1  0
 20 43  1  0
 22 44  1  0
 22 45  1  0
 22 46  1  0
 26 47  1  0
 27 48  1  0
M  CHG  2   7  -1  23  -1
M  END
>  <UniqueID>  (73) 
65

>  <SMILES>  (73) 
CCc1ccc([N-]C(=O)Cn2c(O)c(Cc3ccccc3C)[n-]c2=O)cc1

>  <Energy>  (73) 
80.64967518948502

>  <Genealogy>  (73) 
CCc1ccc([N-]C(=O)Cn2c(O)c(Cc3ccccc3C)[n-]c2=O)cc1 (protonated)
CCc1ccc([N-]C(=O)Cn2c(O)c(Cc3ccccc3C)[n-]c2=O)cc1 (3D coordinates assigned)
CCc1ccc([N-]C(=O)Cn2c(O)c(Cc3ccccc3C)[n-]c2=O)cc1 (optimized conformer: 80.64967518948502 kcal/mol)

>  <smiles>  (73) 
CCc1ccc(NC(=O)Cn2c(O)c(Cc3ccccc3C)[nH]c2=O)cc1

>  <score_type>  (73) 
oracle

>  <origin>  (73) 
adg

>  <m_score__min__energy>  (73) 
-11.24

>  <m_primary>  (73) 
energy

$$$$
73:0
     RDKit          3D

 64 67  0  0  0  0  0  0  0  0999 V2000
   55.8590   24.1150   44.3960 C   0  0  0  0  0  0  0  0  0  0  0  0
   54.9470   24.3960   45.6050 C   0  0  0  0  0  0  0  0  0  0  0  0
   53.4780   24.2060   45.1730 C   0  0  0  0  0  0  0  0  0  0  0  0
   55.3130   23.4250   46.7470 C   0  0  0  0  0  0  0  0  0  0  0  0
   55.1860   25.7530   46.0030 O   0  0  0  0  0  0  0  0  0  0  0  0
   56.4250   26.3180   46.3390 C   0  0  0  0  0  0  0  0  0  0  0  0
   57.0550   25.9390   47.3650 O   0  0  0  0  0  0  0  0  0  0  0  0
   56.9700   27.3370   45.4950 N   0  0  0  0  0  0  0  0  0  0  0  0
   58.0700   28.2080   45.9180 C   0  0  1  0  0  0  0  0  0  0  0  0
   59.2110   27.3560   46.5040 C   0  0  0  0  0  0  0  0  0  0  0  0
   59.8430   28.0150   47.6980 C   0  0  0  0  0  0  0  0  0  0  0  0
   59.9910   27.4650   48.9680 C   0  0  0  0  0  0  0  0  0  0  0  0
   60.6930   28.3010   49.7670 N   0  0  0  0  0  0  0  0  0  0  0  0
   60.9950   29.3720   49.0110 C   0  0  0  0  0  0  0  0  0  0  0  0
   61.7430   30.4880   49.3830 C   0  0  0  0  0  0  0  0  0  0  0  0
   61.9800   31.4770   48.4110 C   0  0  0  0  0  0  0  0  0  0  0  0
   61.4710   31.3290   47.1010 C   0  0  0  0  0  0  0  0  0  0  0  0
   60.7170   30.1920   46.7530 C   0  0  0  0  0  0  0  0  0  0  0  0
   60.4970   29.2300   47.7390 C   0  0  0  0  0  0  0  0  0  0  0  0
   58.5510   29.0230   44.7460 C   0  0  0  0  0  0  0  0  0  0  0  0
   59.0990   28.4460   43.7690 O   0  0  0  0  0  0  0  0  0  0  0  0
   58.3440   30.4400   44.7280 N   0  0  0  0  0  0  0  0  0  0  0  0
   57.2310   31.1100   44.0540 C   0  0  1  0  0  0  0  0  0  0  0  0
   56.1210   30.1200   43.8460 C   0  0  0  0  0  0  0  0  0  0  0  0
   55.5780   29.5840   44.8030 O   0  0  0  0  0  0  0  0  0  0  0  0
   56.7160   32.2980   44.8930 C   0  0  0  0  0  0  0  0  0  0  0  0
   57.8300   33.1930   45.3490 C   0  0  0  0  0  0  0  0  0  0  0  0
   58.4590   34.1860   44.6070 C   0  0  0  0  0  0  0  0  0  0  0  0
   59.3740   34.8350   45.3650 N   0  0  0  0  0  0  0  0  0  0  0  0
   59.3280   34.2570   46.5780 C   0  0  0  0  0  0  0  0  0  0  0  0
   60.0740   34.5990   47.7050 C   0  0  0  0  0  0  0  0  0  0  0  0
   59.8530   33.8680   48.8860 C   0  0  0  0  0  0  0  0  0  0  0  0
   58.9000   32.8240   48.9140 C   0  0  0  0  0  0  0  0  0  0  0  0
   58.1570   32.5070   47.7620 C   0  0  0  0  0  0  0  0  0  0  0  0
   58.4000   33.2490   46.6060 C   0  0  0  0  0  0  0  0  0  0  0  0
   56.8541   23.8084   44.7508 H   0  0  0  0  0  0  0  0  0  0  0  0
   55.4227   23.3096   43.7869 H   0  0  0  0  0  0  0  0  0  0  0  0
   55.9516   25.0263   43.7869 H   0  0  0  0  0  0  0  0  0  0  0  0
   52.8409   24.1236   46.0660 H   0  0  0  0  0  0  0  0  0  0  0  0
   53.1577   25.0702   44.5725 H   0  0  0  0  0  0  0  0  0  0  0  0
   53.3881   23.2887   44.5725 H   0  0  0  0  0  0  0  0  0  0  0  0
   55.1292   23.9125   47.7158 H   0  0  0  0  0  0  0  0  0  0  0  0
   54.6949   22.5184   46.6697 H   0  0  0  0  0  0  0  0  0  0  0  0
   56.3758   23.1519   46.6697 H   0  0  0  0  0  0  0  0  0  0  0  0
   56.4350   27.5820   44.6320 H   0  0  0  0  0  0  0  0  0  0  0  0
   57.7177   28.8982   46.6987 H   0  0  0  0  0  0  0  0  0  0  0  0
   58.8060   26.3798   46.8089 H   0  0  0  0  0  0  0  0  0  0  0  0
   59.9831   27.2391   45.7293 H   0  0  0  0  0  0  0  0  0  0  0  0
   59.5930   26.4877   49.2785 H   0  0  0  0  0  0  0  0  0  0  0  0
   60.9670   28.1320   50.7590 H   0  0  0  0  0  0  0  0  0  0  0  0
   62.1358   30.5921   50.4052 H   0  0  0  0  0  0  0  0  0  0  0  0
   62.5651   32.3711   48.6723 H   0  0  0  0  0  0  0  0  0  0  0  0
   61.6652   32.1072   46.3482 H   0  0  0  0  0  0  0  0  0  0  0  0
   60.3146   30.0664   45.7370 H   0  0  0  0  0  0  0  0  0  0  0  0
   57.5803   31.4980   43.0858 H   0  0  0  0  0  0  0  0  0  0  0  0
   55.7933   29.8746   42.8250 H   0  0  0  0  0  0  0  0  0  0  0  0
   56.0160   32.8866   44.2818 H   0  0  0  0  0  0  0  0  0  0  0  0
   56.2212   31.8913   45.7873 H   0  0  0  0  0  0  0  0  0  0  0  0
   58.2436   34.4126   43.5524 H   0  0  0  0  0  0  0  0  0  0  0  0
   59.9820   35.6290   45.0670 H   0  0  0  0  0  0  0  0  0  0  0  0
   60.8117   35.4143   47.6716 H   0  0  0  0  0  0  0  0  0  0  0  0
   60.4253   34.1101   49.7937 H   0  0  0  0  0  0  0  0  0  0  0  0
   58.7384   32.2561   49.8421 H   0  0  0  0  0  0  0  0  0  0  0  0
   57.4090   31.7005   47.7726 H   0  0  0  0  0  0  0  0  0  0  0  0
  1  2  1  0
  2  3  1  0
  2  4  1  0
  2  5  1  0
  5  6  1  0
  6  7  2  0
  6  8  1  0
  8  9  1  0
  9 10  1  0
 10 11  1  0
 11 12  2  0
 12 13  1  0
 13 14  1  0
 14 15  2  0
 15 16  1  0
 16 17  2  0
 17 18  1  0
 18 19  2  0
  9 20  1  0
 20 21  2  0
 20 22  1  0
 22 23  1  0
 23 24  1  0
 24 25  2  0
 23 26  1  0
 26 27  1  0
 27 28  2  0
 28 29  1  0
 29 30  1  0
 30 31  2  0
 31 32  1  0
 32 33  2  0
 33 34  1  0
 34 35  2  0
 19 11  1  0
 35 27  1  0
 19 14  1  0
 35 30  1  0
  1 36  1  0
  1 37  1  0
  1 38  1  0
  3 39  1  0
  3 40  1  0
  3 41  1  0
  4 42  1  0
  4 43  1  0
  4 44  1  0
  8 45  1  0
  9 46  1  1
 10 47  1  0
 10 48  1  0
 12 49  1  0
 13 50  1  0
 15 51  1  0
 16 52  1  0
 17 53  1  0
 18 54  1  0
 23 55  1  6
 24 56  1  0
 26 57  1  0
 26 58  1  0
 28 59  1  0
 29 60  1  0
 31 61  1  0
 32 62  1  0
 33 63  1  0
 34 64  1  0
M  CHG  1  22  -1
M  END
>  <UniqueID>  (74) 
66

>  <SMILES>  (74) 
CC(C)(C)OC(=O)N[C@@H](Cc1c[nH]c2ccccc12)C(=O)[N-][C@@H](C=O)Cc1c[nH]c2ccccc12

>  <Energy>  (74) 
117.28383127534535

>  <Genealogy>  (74) 
CC(C)(C)OC(=O)NC(Cc1c[nH]c2ccccc12)C(=O)[N-]C(C=O)Cc1c[nH]c2ccccc12 (protonated)
CC(C)(C)OC(=O)N[C@@H](Cc1c[nH]c2ccccc12)C(=O)[N-][C@@H](C=O)Cc1c[nH]c2ccccc12 (chirality)
CC(C)(C)OC(=O)N[C@@H](Cc1c[nH]c2ccccc12)C(=O)[N-][C@@H](C=O)Cc1c[nH]c2ccccc12 (3D coordinates assigned)
CC(C)(C)OC(=O)N[C@@H](Cc1c[nH]c2ccccc12)C(=O)[N-][C@@H](C=O)Cc1c[nH]c2ccccc12 (optimized conformer: 117.28383127534535 kcal/mol)

>  <smiles>  (74) 
CC(C)(C)OC(=O)NC(Cc1c[nH]c2ccccc12)C(=O)NC(C=O)Cc1c[nH]c2ccccc12

>  <score_type>  (74) 
oracle

>  <origin>  (74) 
adg

>  <m_score__min__energy>  (74) 
-11.24

>  <m_primary>  (74) 
energy

$$$$
74:0
     RDKit          3D

 45 50  0  0  0  0  0  0  0  0999 V2000
   58.2380   28.4810   47.8320 O   0  0  0  0  0  0  0  0  0  0  0  0
   58.1430   28.9900   46.6810 C   0  0  0  0  0  0  0  0  0  0  0  0
   57.3880   28.2180   45.6320 C   0  0  0  0  0  0  0  0  0  0  0  0
   57.2110   26.8150   46.0200 N   0  0  0  0  0  0  0  0  0  0  0  0
   58.1770   25.8630   45.9900 C   0  0  0  0  0  0  0  0  0  0  0  0
   59.4960   26.1020   45.6210 O   0  0  0  0  0  0  0  0  0  0  0  0
   57.6480   24.6180   46.2640 C   0  0  0  0  0  0  0  0  0  0  0  0
   56.2870   24.7940   46.3890 C   0  0  0  0  0  0  0  0  0  0  0  0
   56.0470   26.1380   46.1700 C   0  0  0  0  0  0  0  0  0  0  0  0
   54.7820   26.7000   45.9920 O   0  0  0  0  0  0  0  0  0  0  0  0
   55.6400   23.6040   45.7240 C   0  0  2  0  0  0  0  0  0  0  0  0
   56.0150   22.3980   46.5530 C   0  0  0  0  0  0  0  0  0  0  0  0
   57.3410   22.2280   46.4180 C   0  0  0  0  0  0  0  0  0  0  0  0
   57.8330   23.3260   45.5060 C   0  0  1  0  0  0  0  0  0  0  0  0
   56.6240   23.4010   44.5750 C   0  0  0  0  0  0  0  0  0  0  0  0
   58.7640   30.2700   46.4190 N   0  0  0  0  0  0  0  0  0  0  0  0
   59.6660   30.8300   47.3900 C   0  0  0  0  0  0  0  0  0  0  0  0
   60.8380   30.1530   47.7540 C   0  0  0  0  0  0  0  0  0  0  0  0
   61.7740   30.7740   48.5850 C   0  0  0  0  0  0  0  0  0  0  0  0
   61.5510   32.0770   49.0450 C   0  0  0  0  0  0  0  0  0  0  0  0
   60.3850   32.7580   48.6840 C   0  0  0  0  0  0  0  0  0  0  0  0
   59.4380   32.1330   47.8690 C   0  0  0  0  0  0  0  0  0  0  0  0
   57.8810   32.9450   47.4770 S   0  0  0  0  0  0  0  0  0  0  0  0
   57.9700   32.4930   45.7400 C   0  0  0  0  0  0  0  0  0  0  0  0
   57.7210   33.4500   44.7510 C   0  0  0  0  0  0  0  0  0  0  0  0
   57.7910   33.0910   43.4060 C   0  0  0  0  0  0  0  0  0  0  0  0
   58.1410   31.7850   43.0420 C   0  0  0  0  0  0  0  0  0  0  0  0
   58.4220   30.8350   44.0270 C   0  0  0  0  0  0  0  0  0  0  0  0
   58.3040   31.1690   45.3850 C   0  0  0  0  0  0  0  0  0  0  0  0
   56.3985   28.6779   45.4929 H   0  0  0  0  0  0  0  0  0  0  0  0
   57.9683   28.2470   44.6980 H   0  0  0  0  0  0  0  0  0  0  0  0
   54.5633   23.7202   45.5312 H   0  0  0  0  0  0  0  0  0  0  0  0
   55.3328   21.7775   47.1526 H   0  0  0  0  0  0  0  0  0  0  0  0
   57.9513   21.4397   46.8830 H   0  0  0  0  0  0  0  0  0  0  0  0
   58.8451   23.1808   45.1004 H   0  0  0  0  0  0  0  0  0  0  0  0
   56.4500   22.4728   44.0110 H   0  0  0  0  0  0  0  0  0  0  0  0
   56.6351   24.1344   43.7552 H   0  0  0  0  0  0  0  0  0  0  0  0
   61.0209   29.1328   47.3855 H   0  0  0  0  0  0  0  0  0  0  0  0
   62.6884   30.2376   48.8784 H   0  0  0  0  0  0  0  0  0  0  0  0
   62.2946   32.5658   49.6916 H   0  0  0  0  0  0  0  0  0  0  0  0
   60.2133   33.7842   49.0410 H   0  0  0  0  0  0  0  0  0  0  0  0
   57.4706   34.4831   45.0338 H   0  0  0  0  0  0  0  0  0  0  0  0
   57.5705   33.8364   42.6277 H   0  0  0  0  0  0  0  0  0  0  0  0
   58.1948   31.5067   41.9791 H   0  0  0  0  0  0  0  0  0  0  0  0
   58.7368   29.8217   43.7372 H   0  0  0  0  0  0  0  0  0  0  0  0
  1  2  2  0
  2  3  1  0
  3  4  1  0
  4  5  1  0
  5  6  1  0
  5  7  2  0
  7  8  1  0
  8  9  2  0
  9 10  1  0
  8 11  1  0
 11 12  1  0
 12 13  2  0
 13 14  1  0
 14 15  1  0
  2 16  1  0
 16 17  1  0
 17 18  2  0
 18 19  1  0
 19 20  2  0
 20 21  1  0
 21 22  2  0
 22 23  1  0
 23 24  1  0
 24 25  2  0
 25 26  1  0
 26 27  2  0
 27 28  1  0
 28 29  2  0
  9  4  1  0
 15 11  1  0
 29 16  1  0
 14  7  1  0
 22 17  1  0
 29 24  1  0
  3 30  1  0
  3 31  1  0
 11 32  1  6
 12 33  1  0
 13 34  1  0
 14 35  1  6
 15 36  1  0
 15 37  1  0
 18 38  1  0
 19 39  1  0
 20 40  1  0
 21 41  1  0
 25 42  1  0
 26 43  1  0
 27 44  1  0
 28 45  1  0
M  CHG  2   6  -1  10  -1
M  END
>  <UniqueID>  (75) 
67

>  <SMILES>  (75) 
O=C(Cn1c([O-])c2c(c1[O-])[C@H]1C=C[C@@H]2C1)N1c2ccccc2Sc2ccccc21

>  <Energy>  (75) 
184.9499289848043

>  <Genealogy>  (75) 
O=C(Cn1c([O-])c2c(c1[O-])C1C=CC2C1)N1c2ccccc2Sc2ccccc21 (protonated)
O=C(Cn1c([O-])c2c(c1[O-])[C@H]1C=C[C@@H]2C1)N1c2ccccc2Sc2ccccc21 (chirality)
O=C(Cn1c([O-])c2c(c1[O-])[C@H]1C=C[C@@H]2C1)N1c2ccccc2Sc2ccccc21 (3D coordinates assigned)
O=C(Cn1c([O-])c2c(c1[O-])[C@H]1C=C[C@@H]2C1)N1c2ccccc2Sc2ccccc21 (nonaromatic ring conformer: 184.9499289848043 kcal/mol)

>  <smiles>  (75) 
O=C(Cn1c(O)c2c(c1O)C1C=CC2C1)N1c2ccccc2Sc2ccccc21

>  <score_type>  (75) 
oracle

>  <origin>  (75) 
adg

>  <m_score__min__energy>  (75) 
-13.359999999999999

>  <m_primary>  (75) 
energy

$$$$
75:0
     RDKit          3D

 31 32  0  0  0  0  0  0  0  0999 V2000
   56.6410   22.2840   43.0190 C   0  0  0  0  0  0  0  0  0  0  0  0
   56.2970   23.7200   43.4010 C   0  0  0  0  0  0  0  0  0  0  0  0
   55.6170   23.7570   44.7040 N   0  0  0  0  0  0  0  0  0  0  0  0
   56.5450   23.4500   45.8030 C   0  0  0  0  0  0  0  0  0  0  0  0
   56.4250   24.4930   46.9210 C   0  0  0  0  0  0  0  0  0  0  0  0
   56.7220   25.8930   46.4220 C   0  0  0  0  0  0  0  0  0  0  0  0
   55.6720   26.7270   45.9920 C   0  0  0  0  0  0  0  0  0  0  0  0
   54.3580   26.2730   45.9950 O   0  0  0  0  0  0  0  0  0  0  0  0
   55.9320   27.9910   45.5670 N   0  0  0  0  0  0  0  0  0  0  0  0
   57.1890   28.5030   45.5440 C   0  0  0  0  0  0  0  0  0  0  0  0
   57.4000   29.8130   45.0970 C   0  0  0  0  0  0  0  0  0  0  0  0
   58.6920   30.3460   45.0740 C   0  0  0  0  0  0  0  0  0  0  0  0
   58.8920   31.6150   44.6410 F   0  0  0  0  0  0  0  0  0  0  0  0
   59.7770   29.5740   45.4980 C   0  0  0  0  0  0  0  0  0  0  0  0
   59.5770   28.2640   45.9450 C   0  0  0  0  0  0  0  0  0  0  0  0
   58.2810   27.7150   45.9730 C   0  0  0  0  0  0  0  0  0  0  0  0
   58.0380   26.4010   46.4180 C   0  0  0  0  0  0  0  0  0  0  0  0
   58.9950   25.6800   46.8140 O   0  0  0  0  0  0  0  0  0  0  0  0
   56.7842   21.6862   43.9312 H   0  0  0  0  0  0  0  0  0  0  0  0
   55.8200   21.8558   42.4251 H   0  0  0  0  0  0  0  0  0  0  0  0
   57.5669   22.2743   42.4251 H   0  0  0  0  0  0  0  0  0  0  0  0
   57.2230   24.3110   43.4589 H   0  0  0  0  0  0  0  0  0  0  0  0
   55.6261   24.1405   42.6374 H   0  0  0  0  0  0  0  0  0  0  0  0
   55.2700   24.7350   44.8470 H   0  0  0  0  0  0  0  0  0  0  0  0
   56.3071   22.4559   46.2095 H   0  0  0  0  0  0  0  0  0  0  0  0
   57.5733   23.4666   45.4127 H   0  0  0  0  0  0  0  0  0  0  0  0
   55.4010   24.4682   47.3221 H   0  0  0  0  0  0  0  0  0  0  0  0
   57.1618   24.2450   47.6992 H   0  0  0  0  0  0  0  0  0  0  0  0
   56.5479   30.4235   44.7635 H   0  0  0  0  0  0  0  0  0  0  0  0
   60.7918   29.9981   45.4801 H   0  0  0  0  0  0  0  0  0  0  0  0
   60.4352   27.6606   46.2758 H   0  0  0  0  0  0  0  0  0  0  0  0
  1  2  1  0
  2  3  1  0
  3  4  1  0
  4  5  1  0
  5  6  1  0
  6  7  2  0
  7  8  1  0
  7  9  1  0
  9 10  1  0
 10 11  2  0
 11 12  1  0
 12 13  1  0
 12 14  2  0
 14 15  1  0
 15 16  2  0
 16 17  1  0
 17 18  2  0
 17  6  1  0
 16 10  1  0
  1 19  1  0
  1 20  1  0
  1 21  1  0
  2 22  1  0
  2 23  1  0
  3 24  1  0
  4 25  1  0
  4 26  1  0
  5 27  1  0
  5 28  1  0
 11 29  1  0
 14 30  1  0
 15 31  1  0
M  CHG  2   8  -1   9  -1
M  END
>  <UniqueID>  (76) 
68

>  <SMILES>  (76) 
CCNCCc1c([O-])[n-]c2cc(F)ccc2c1=O

>  <Energy>  (76) 
32.376754864948076

>  <Genealogy>  (76) 
CCNCCc1c([O-])[n-]c2cc(F)ccc2c1=O (protonated)
CCNCCc1c([O-])[n-]c2cc(F)ccc2c1=O (3D coordinates assigned)
CCNCCc1c([O-])[n-]c2cc(F)ccc2c1=O (optimized conformer: 32.376754864948076 kcal/mol)

>  <smiles>  (76) 
CCNCCc1c(O)[nH]c2cc(F)ccc2c1=O

>  <score_type>  (76) 
oracle

>  <origin>  (76) 
adg

>  <m_score__min__energy>  (76) 
-11.09

>  <m_primary>  (76) 
energy

$$$$
76:0
     RDKit          3D

 43 46  0  0  0  0  0  0  0  0999 V2000
   54.7100   26.3240   45.9190 N   0  0  0  0  0  0  0  0  0  0  0  0
   56.1160   25.3370   46.1140 S   0  0  0  0  0  0  0  0  0  0  0  0
   56.1880   24.3410   44.9900 O   0  0  0  0  0  0  0  0  0  0  0  0
   56.0290   24.5910   47.4160 O   0  0  0  0  0  0  0  0  0  0  0  0
   57.5510   26.3550   46.1000 C   0  0  0  0  0  0  0  0  0  0  0  0
   58.1050   26.7770   44.8850 C   0  0  0  0  0  0  0  0  0  0  0  0
   59.2640   27.5560   44.8740 C   0  0  0  0  0  0  0  0  0  0  0  0
   59.8870   27.9030   46.0760 C   0  0  0  0  0  0  0  0  0  0  0  0
   59.3490   27.4770   47.3010 C   0  0  0  0  0  0  0  0  0  0  0  0
   60.0140   27.8290   48.5760 C   0  0  0  0  0  0  0  0  0  0  0  0
   61.0070   27.1590   48.9630 O   0  0  0  0  0  0  0  0  0  0  0  0
   59.5290   28.8920   49.4060 N   0  0  0  0  0  0  0  0  0  0  0  0
   59.2210   30.2210   48.9580 C   0  0  0  0  0  0  0  0  0  0  0  0
   59.2410   31.2710   49.8820 C   0  0  0  0  0  0  0  0  0  0  0  0
   58.9650   32.5780   49.4720 C   0  0  0  0  0  0  0  0  0  0  0  0
   58.6800   32.8500   48.1300 C   0  0  0  0  0  0  0  0  0  0  0  0
   58.3960   34.1560   47.7450 O   0  0  0  0  0  0  0  0  0  0  0  0
   58.6770   31.8070   47.1860 C   0  0  0  0  0  0  0  0  0  0  0  0
   58.4260   32.0770   45.7530 C   0  0  0  0  0  0  0  0  0  0  0  0
   58.9330   33.2300   45.0930 C   0  0  0  0  0  0  0  0  0  0  0  0
   59.7750   34.1360   45.7380 O   0  0  0  0  0  0  0  0  0  0  0  0
   58.6030   33.4680   43.7390 C   0  0  0  0  0  0  0  0  0  0  0  0
   57.7900   32.5680   43.0290 C   0  0  0  0  0  0  0  0  0  0  0  0
   57.3220   31.4450   43.7040 C   0  0  0  0  0  0  0  0  0  0  0  0
   57.6230   31.2100   45.0060 C   0  0  0  0  0  0  0  0  0  0  0  0
   57.0060   30.0400   45.4110 O   0  0  0  0  0  0  0  0  0  0  0  0
   56.2830   29.5070   44.2940 C   0  0  0  0  0  0  0  0  0  0  0  0
   56.5110   30.4350   43.2260 O   0  0  0  0  0  0  0  0  0  0  0  0
   58.9590   30.4970   47.6050 C   0  0  0  0  0  0  0  0  0  0  0  0
   58.1710   26.7120   47.3060 C   0  0  0  0  0  0  0  0  0  0  0  0
   54.7760   27.0910   46.6240 H   0  0  0  0  0  0  0  0  0  0  0  0
   57.6257   26.4940   43.9362 H   0  0  0  0  0  0  0  0  0  0  0  0
   59.6873   27.8971   43.9177 H   0  0  0  0  0  0  0  0  0  0  0  0
   60.8027   28.5124   46.0623 H   0  0  0  0  0  0  0  0  0  0  0  0
   59.4753   31.0667   50.9372 H   0  0  0  0  0  0  0  0  0  0  0  0
   58.9719   33.3960   50.2074 H   0  0  0  0  0  0  0  0  0  0  0  0
   59.5950   34.4750   46.6740 H   0  0  0  0  0  0  0  0  0  0  0  0
   58.9869   34.3676   43.2357 H   0  0  0  0  0  0  0  0  0  0  0  0
   57.5322   32.7456   41.9745 H   0  0  0  0  0  0  0  0  0  0  0  0
   56.6638   28.5100   44.0275 H   0  0  0  0  0  0  0  0  0  0  0  0
   55.2121   29.3871   44.5149 H   0  0  0  0  0  0  0  0  0  0  0  0
   58.9750   29.6801   46.8685 H   0  0  0  0  0  0  0  0  0  0  0  0
   57.7320   26.3909   48.2621 H   0  0  0  0  0  0  0  0  0  0  0  0
  1  2  1  0
  2  3  2  0
  2  4  2  0
  2  5  1  0
  5  6  2  0
  6  7  1  0
  7  8  2  0
  8  9  1  0
  9 10  1  0
 10 11  2  0
 10 12  1  0
 12 13  1  0
 13 14  2  0
 14 15  1  0
 15 16  2  0
 16 17  1  0
 16 18  1  0
 18 19  1  0
 19 20  2  0
 20 21  1  0
 20 22  1  0
 22 23  2  0
 23 24  1  0
 24 25  2  0
 25 26  1  0
 26 27  1  0
 27 28  1  0
 18 29  2  0
  9 30  2  0
 30  5  1  0
 29 13  1  0
 25 19  1  0
 28 24  1  0
  1 31  1  0
  6 32  1  0
  7 33  1  0
  8 34  1  0
 14 35  1  0
 15 36  1  0
 21 37  1  0
 22 38  1  0
 23 39  1  0
 27 40  1  0
 27 41  1  0
 29 42  1  0
 30 43  1  0
M  CHG  3   1  -1  12  -1  17  -1
M  END
>  <UniqueID>  (77) 
69

>  <SMILES>  (77) 
[NH-]S(=O)(=O)c1cccc(C(=O)[N-]c2ccc([O-])c(-c3c(O)ccc4c3OCO4)c2)c1

>  <Energy>  (77) 
87.98368232200232

>  <Genealogy>  (77) 
[NH-]S(=O)(=O)c1cccc(C(=O)[N-]c2ccc([O-])c(-c3c(O)ccc4c3OCO4)c2)c1 (protonated)
[NH-]S(=O)(=O)c1cccc(C(=O)[N-]c2ccc([O-])c(-c3c(O)ccc4c3OCO4)c2)c1 (3D coordinates assigned)
[NH-]S(=O)(=O)c1cccc(C(=O)[N-]c2ccc([O-])c(-c3c(O)ccc4c3OCO4)c2)c1 (nonaromatic ring conformer: 87.98368232200232 kcal/mol)

>  <smiles>  (77) 
NS(=O)(=O)c1cccc(C(=O)Nc2ccc(O)c(-c3c(O)ccc4c3OCO4)c2)c1

>  <score_type>  (77) 
oracle

>  <origin>  (77) 
adg

>  <m_score__min__energy>  (77) 
-13.08

>  <m_primary>  (77) 
energy

$$$$
77:0
     RDKit          3D

 21 22  0  0  0  0  0  0  0  0999 V2000
   55.7316   24.3038   46.1763 H   0  0  0  0  0  0  0  0  0  0  0  0
   55.6180   25.3900   46.0450 C   0  0  0  0  0  0  0  0  0  0  0  0
   54.5260   25.8380   45.6120 O   0  0  0  0  0  0  0  0  0  0  0  0
   56.7220   26.2470   46.3740 N   0  0  0  0  0  0  0  0  0  0  0  0
   56.9690   27.4550   45.9550 C   0  0  0  0  0  0  0  0  0  0  0  0
   58.1430   28.0750   46.2440 N   0  0  0  0  0  0  0  0  0  0  0  0
   58.0020   29.2780   45.6550 C   0  0  0  0  0  0  0  0  0  0  0  0
   58.9170   30.3360   45.6340 C   0  0  0  0  0  0  0  0  0  0  0  0
   60.2340   30.2450   46.3430 C   0  0  0  0  0  0  0  0  0  0  0  0
   60.0667   30.2566   47.4301 H   0  0  0  0  0  0  0  0  0  0  0  0
   60.7391   29.3098   46.0597 H   0  0  0  0  0  0  0  0  0  0  0  0
   60.8629   31.1018   46.0597 H   0  0  0  0  0  0  0  0  0  0  0  0
   58.5200   31.5190   44.9700 C   0  0  0  0  0  0  0  0  0  0  0  0
   59.1999   32.3833   44.9438 H   0  0  0  0  0  0  0  0  0  0  0  0
   57.2590   31.6020   44.3400 C   0  0  0  0  0  0  0  0  0  0  0  0
   56.9680   32.5266   43.8199 H   0  0  0  0  0  0  0  0  0  0  0  0
   56.3720   30.5100   44.3730 C   0  0  0  0  0  0  0  0  0  0  0  0
   55.3875   30.5604   43.8850 H   0  0  0  0  0  0  0  0  0  0  0  0
   56.7860   29.3630   45.0460 C   0  0  0  0  0  0  0  0  0  0  0  0
   56.1120   28.2190   45.2230 N   0  0  0  0  0  0  0  0  0  0  0  0
   55.1490   28.0170   44.8800 H   0  0  0  0  0  0  0  0  0  0  0  0
  1  2  1  0
  2  3  2  0
  2  4  1  0
  4  5  2  0
  5  6  1  0
  6  7  1  0
  7  8  2  0
  8  9  1  0
  9 10  1  0
  9 11  1  0
  9 12  1  0
  8 13  1  0
 13 14  1  0
 13 15  2  0
 15 16  1  0
 15 17  1  0
 17 18  1  0
 17 19  2  0
 19 20  1  0
 20 21  1  0
 20  5  1  0
 19  7  1  0
M  CHG  1   6  -1
M  END
>  <UniqueID>  (78) 
70

>  <SMILES>  (78) 
Cc1cccc2[nH]/c(=N\C=O)[n-]c12

>  <Energy>  (78) 
61.69277443256332

>  <Genealogy>  (78) 
Cc1cccc2[nH]c(=NC=O)[n-]c12 (protonated)
Cc1cccc2[nH]/c(=N\C=O)[n-]c12 (cis-trans isomerization)
Cc1cccc2[nH]/c(=N\C=O)[n-]c12 (3D coordinates assigned)
Cc1cccc2[nH]/c(=N\C=O)[n-]c12 (optimized conformer: 61.69277443256332 kcal/mol)

>  <smiles>  (78) 
Cc1cccc2[nH]c(=NC=O)[nH]c12

>  <score_type>  (78) 
oracle

>  <origin>  (78) 
adg

>  <m_score__min__energy>  (78) 
-7.6799999999999997

>  <m_primary>  (78) 
energy

$$$$
78:0
     RDKit          3D

 35 36  0  0  0  0  0  0  0  0999 V2000
   59.9680   36.1610   46.0520 N   0  0  0  0  0  0  0  0  0  0  0  0
   59.9370   34.5750   46.7390 S   0  0  0  0  0  0  0  0  0  0  0  0
   61.3440   34.0720   46.9030 O   0  0  0  0  0  0  0  0  0  0  0  0
   59.2850   34.6280   48.0920 O   0  0  0  0  0  0  0  0  0  0  0  0
   59.0390   33.4900   45.6840 C   0  0  0  0  0  0  0  0  0  0  0  0
   58.8960   33.7930   44.3230 C   0  0  0  0  0  0  0  0  0  0  0  0
   58.1720   32.9410   43.4880 C   0  0  0  0  0  0  0  0  0  0  0  0
   57.5950   31.7770   44.0030 C   0  0  0  0  0  0  0  0  0  0  0  0
   57.7540   31.4490   45.3550 C   0  0  0  0  0  0  0  0  0  0  0  0
   57.1800   30.2300   45.8460 N   0  0  0  0  0  0  0  0  0  0  0  0
   56.7170   29.1150   45.0660 C   0  0  0  0  0  0  0  0  0  0  0  0
   55.4800   28.9880   44.8750 O   0  0  0  0  0  0  0  0  0  0  0  0
   57.6490   28.1080   44.4360 C   0  0  0  0  0  0  0  0  0  0  0  0
   58.5230   27.5200   45.3960 O   0  0  0  0  0  0  0  0  0  0  0  0
   58.3770   27.6700   46.7790 C   0  0  0  0  0  0  0  0  0  0  0  0
   57.7590   26.7980   47.4480 O   0  0  0  0  0  0  0  0  0  0  0  0
   59.0360   28.7910   47.4790 C   0  0  0  0  0  0  0  0  0  0  0  0
   58.5440   29.1560   48.6940 N   0  0  0  0  0  0  0  0  0  0  0  0
   59.1250   30.1120   49.4600 C   0  0  0  0  0  0  0  0  0  0  0  0
   60.2830   30.7550   49.0210 C   0  0  0  0  0  0  0  0  0  0  0  0
   61.0280   31.9690   50.0510 Cl  0  0  0  0  0  0  0  0  0  0  0  0
   60.8180   30.4210   47.7680 C   0  0  0  0  0  0  0  0  0  0  0  0
   62.2790   31.2280   47.1950 Cl  0  0  0  0  0  0  0  0  0  0  0  0
   60.1880   29.4430   46.9760 C   0  0  0  0  0  0  0  0  0  0  0  0
   60.8160   29.1100   45.3580 Cl  0  0  0  0  0  0  0  0  0  0  0  0
   58.4530   32.3250   46.2010 C   0  0  0  0  0  0  0  0  0  0  0  0
   59.2860   36.1630   45.2610 H   0  0  0  0  0  0  0  0  0  0  0  0
   59.5920   36.8130   46.7760 H   0  0  0  0  0  0  0  0  0  0  0  0
   59.3554   34.7042   43.9123 H   0  0  0  0  0  0  0  0  0  0  0  0
   58.0552   33.1861   42.4220 H   0  0  0  0  0  0  0  0  0  0  0  0
   57.0136   31.1158   43.3436 H   0  0  0  0  0  0  0  0  0  0  0  0
   57.0499   27.3137   43.9669 H   0  0  0  0  0  0  0  0  0  0  0  0
   58.2646   28.6328   43.6906 H   0  0  0  0  0  0  0  0  0  0  0  0
   58.6823   30.3815   50.4302 H   0  0  0  0  0  0  0  0  0  0  0  0
   58.5414   32.0968   47.2734 H   0  0  0  0  0  0  0  0  0  0  0  0
  1  2  1  0
  2  3  2  0
  2  4  2  0
  2  5  1  0
  5  6  2  0
  6  7  1  0
  7  8  2  0
  8  9  1  0
  9 10  1  0
 10 11  1  0
 11 12  2  0
 11 13  1  0
 13 14  1  0
 14 15  1  0
 15 16  2  0
 15 17  1  0
 17 18  2  0
 18 19  1  0
 19 20  2  0
 20 21  1  0
 20 22  1  0
 22 23  1  0
 22 24  2  0
 24 25  1  0
  9 26  2  0
 26  5  1  0
 24 17  1  0
  1 27  1  0
  1 28  1  0
  6 29  1  0
  7 30  1  0
  8 31  1  0
 13 32  1  0
 13 33  1  0
 19 34  1  0
 26 35  1  0
M  CHG  1  10  -1
M  END
>  <UniqueID>  (79) 
71

>  <SMILES>  (79) 
NS(=O)(=O)c1cccc([N-]C(=O)COC(=O)c2ncc(Cl)c(Cl)c2Cl)c1

>  <Energy>  (79) 
39.52630043969401

>  <Genealogy>  (79) 
NS(=O)(=O)c1cccc([N-]C(=O)COC(=O)c2ncc(Cl)c(Cl)c2Cl)c1 (protonated)
NS(=O)(=O)c1cccc([N-]C(=O)COC(=O)c2ncc(Cl)c(Cl)c2Cl)c1 (3D coordinates assigned)
NS(=O)(=O)c1cccc([N-]C(=O)COC(=O)c2ncc(Cl)c(Cl)c2Cl)c1 (optimized conformer: 39.52630043969401 kcal/mol)

>  <smiles>  (79) 
NS(=O)(=O)c1cccc(NC(=O)COC(=O)c2ncc(Cl)c(Cl)c2Cl)c1

>  <score_type>  (79) 
oracle

>  <origin>  (79) 
adg

>  <m_score__min__energy>  (79) 
-10.890000000000001

>  <m_primary>  (79) 
energy

$$$$
79:0
     RDKit          3D

 51 53  0  0  0  0  0  0  0  0999 V2000
   56.9480   34.6090   44.8820 N   0  0  0  0  0  0  0  0  0  0  0  0
   58.6600   34.5350   45.1070 S   0  0  0  0  0  0  0  0  0  0  0  0
   59.2250   35.9090   44.8730 O   0  0  0  0  0  0  0  0  0  0  0  0
   59.2620   33.5850   44.1120 O   0  0  0  0  0  0  0  0  0  0  0  0
   59.0430   33.9950   46.7520 C   0  0  0  0  0  0  0  0  0  0  0  0
   59.5440   34.9380   47.6600 C   0  0  0  0  0  0  0  0  0  0  0  0
   59.8150   34.5810   48.9790 C   0  0  0  0  0  0  0  0  0  0  0  0
   59.6020   33.2740   49.4080 C   0  0  0  0  0  0  0  0  0  0  0  0
   59.1340   32.2960   48.5130 C   0  0  0  0  0  0  0  0  0  0  0  0
   58.9710   30.9570   48.9090 O   0  0  0  0  0  0  0  0  0  0  0  0
   60.0340   30.0550   49.2320 C   0  0  0  0  0  0  0  0  0  0  0  0
   61.1100   30.0450   48.1370 C   0  0  0  0  0  0  0  0  0  0  0  0
   62.0490   31.2180   48.2530 C   0  0  0  0  0  0  0  0  0  0  0  0
   62.2890   32.0490   47.1450 C   0  0  0  0  0  0  0  0  0  0  0  0
   63.0940   33.1840   47.2760 C   0  0  0  0  0  0  0  0  0  0  0  0
   63.6740   33.4930   48.5100 C   0  0  0  0  0  0  0  0  0  0  0  0
   63.4530   32.6630   49.6130 C   0  0  0  0  0  0  0  0  0  0  0  0
   62.6430   31.5290   49.4880 C   0  0  0  0  0  0  0  0  0  0  0  0
   58.8380   32.6580   47.1800 C   0  0  0  0  0  0  0  0  0  0  0  0
   58.3970   31.6010   46.2490 C   0  0  0  0  0  0  0  0  0  0  0  0
   57.2600   31.6760   45.7090 O   0  0  0  0  0  0  0  0  0  0  0  0
   59.2540   30.4870   45.9730 N   0  0  0  0  0  0  0  0  0  0  0  0
   58.8260   29.1990   45.5130 C   0  0  0  0  0  0  0  0  0  0  0  0
   59.0580   28.8560   44.1770 C   0  0  0  0  0  0  0  0  0  0  0  0
   58.6930   27.5970   43.6970 C   0  0  0  0  0  0  0  0  0  0  0  0
   58.1100   26.6630   44.5530 C   0  0  0  0  0  0  0  0  0  0  0  0
   57.8850   26.9790   45.9020 C   0  0  0  0  0  0  0  0  0  0  0  0
   57.3180   25.9410   46.8340 C   0  0  0  0  0  0  0  0  0  0  0  0
   55.8990   25.6430   46.4700 C   0  0  0  0  0  0  0  0  0  0  0  0
   55.4310   24.4870   46.6410 O   0  0  0  0  0  0  0  0  0  0  0  0
   55.0770   26.6550   45.9900 O   0  0  0  0  0  0  0  0  0  0  0  0
   58.2610   28.2470   46.3860 C   0  0  0  0  0  0  0  0  0  0  0  0
   58.1340   28.5210   47.7110 F   0  0  0  0  0  0  0  0  0  0  0  0
   56.5560   33.7040   45.2260 H   0  0  0  0  0  0  0  0  0  0  0  0
   59.7251   35.9708   47.3276 H   0  0  0  0  0  0  0  0  0  0  0  0
   60.1983   35.3339   49.6834 H   0  0  0  0  0  0  0  0  0  0  0  0
   59.8014   33.0042   50.4556 H   0  0  0  0  0  0  0  0  0  0  0  0
   60.4925   30.3672   50.1819 H   0  0  0  0  0  0  0  0  0  0  0  0
   59.6153   29.0413   49.3162 H   0  0  0  0  0  0  0  0  0  0  0  0
   61.6920   29.1153   48.2204 H   0  0  0  0  0  0  0  0  0  0  0  0
   60.6026   30.1128   47.1634 H   0  0  0  0  0  0  0  0  0  0  0  0
   61.8412   31.8049   46.1704 H   0  0  0  0  0  0  0  0  0  0  0  0
   63.2714   33.8349   46.4072 H   0  0  0  0  0  0  0  0  0  0  0  0
   64.3040   34.3888   48.6130 H   0  0  0  0  0  0  0  0  0  0  0  0
   63.9169   32.9020   50.5813 H   0  0  0  0  0  0  0  0  0  0  0  0
   62.4707   30.8792   50.3587 H   0  0  0  0  0  0  0  0  0  0  0  0
   59.5310   29.5829   43.5003 H   0  0  0  0  0  0  0  0  0  0  0  0
   58.8656   27.3410   42.6412 H   0  0  0  0  0  0  0  0  0  0  0  0
   57.8247   25.6726   44.1686 H   0  0  0  0  0  0  0  0  0  0  0  0
   57.9141   25.0196   46.7581 H   0  0  0  0  0  0  0  0  0  0  0  0
   57.3520   26.3254   47.8641 H   0  0  0  0  0  0  0  0  0  0  0  0
  1  2  1  0
  2  3  2  0
  2  4  2  0
  2  5  1  0
  5  6  2  0
  6  7  1  0
  7  8  2  0
  8  9  1  0
  9 10  1  0
 10 11  1  0
 11 12  1  0
 12 13  1  0
 13 14  2  0
 14 15  1  0
 15 16  2  0
 16 17  1  0
 17 18  2  0
  9 19  2  0
 19 20  1  0
 20 21  2  0
 20 22  1  0
 22 23  1  0
 23 24  2  0
 24 25  1  0
 25 26  2  0
 26 27  1  0
 27 28  1  0
 28 29  1  0
 29 30  2  0
 29 31  1  0
 27 32  2  0
 32 33  1  0
 19  5  1  0
 32 23  1  0
 18 13  1  0
  1 34  1  0
  6 35  1  0
  7 36  1  0
  8 37  1  0
 11 38  1  0
 11 39  1  0
 12 40  1  0
 12 41  1  0
 14 42  1  0
 15 43  1  0
 16 44  1  0
 17 45  1  0
 18 46  1  0
 24 47  1  0
 25 48  1  0
 26 49  1  0
 28 50  1  0
 28 51  1  0
M  CHG  3   1  -1  22  -1  31  -1
M  END
>  <UniqueID>  (80) 
72

>  <SMILES>  (80) 
[NH-]S(=O)(=O)c1cccc(OCCc2ccccc2)c1C(=O)[N-]c1cccc(CC(=O)[O-])c1F

>  <Energy>  (80) 
60.56077736267187

>  <Genealogy>  (80) 
[NH-]S(=O)(=O)c1cccc(OCCc2ccccc2)c1C(=O)[N-]c1cccc(CC(=O)[O-])c1F (protonated)
[NH-]S(=O)(=O)c1cccc(OCCc2ccccc2)c1C(=O)[N-]c1cccc(CC(=O)[O-])c1F (3D coordinates assigned)
[NH-]S(=O)(=O)c1cccc(OCCc2ccccc2)c1C(=O)[N-]c1cccc(CC(=O)[O-])c1F (optimized conformer: 60.56077736267187 kcal/mol)

>  <smiles>  (80) 
NS(=O)(=O)c1cccc(OCCc2ccccc2)c1C(=O)Nc1cccc(CC(=O)O)c1F

>  <score_type>  (80) 
oracle

>  <origin>  (80) 
adg

>  <m_score__min__energy>  (80) 
-15.029999999999999

>  <m_primary>  (80) 
energy

$$$$
80:0
     RDKit          3D

 33 35  0  0  0  0  0  0  0  0999 V2000
   59.2270   24.4250   45.7770 C   0  0  0  0  0  0  0  0  0  0  0  0
   58.9240   25.4700   46.8470 C   0  0  0  0  0  0  0  0  0  0  0  0
   57.9290   26.4920   46.3360 C   0  0  0  0  0  0  0  0  0  0  0  0
   56.5800   26.1490   46.1010 C   0  0  0  0  0  0  0  0  0  0  0  0
   55.9450   24.4980   46.4080 S   0  0  0  0  0  0  0  0  0  0  0  0
   55.7160   27.0820   45.6260 N   0  0  0  0  0  0  0  0  0  0  0  0
   56.0960   28.3530   45.3430 C   0  0  0  0  0  0  0  0  0  0  0  0
   55.1430   29.2600   44.8950 O   0  0  0  0  0  0  0  0  0  0  0  0
   57.4320   28.7440   45.5230 C   0  0  0  0  0  0  0  0  0  0  0  0
   57.8610   30.1260   45.2060 C   0  0  0  0  0  0  0  0  0  0  0  0
   57.8560   31.0210   46.1540 N   0  0  0  0  0  0  0  0  0  0  0  0
   58.2670   32.3850   45.9710 C   0  0  0  0  0  0  0  0  0  0  0  0
   58.6490   33.1440   47.0840 C   0  0  0  0  0  0  0  0  0  0  0  0
   59.1540   34.4370   46.9100 C   0  0  0  0  0  0  0  0  0  0  0  0
   59.2820   34.9750   45.6260 C   0  0  0  0  0  0  0  0  0  0  0  0
   58.8830   34.2290   44.5120 C   0  0  0  0  0  0  0  0  0  0  0  0
   58.3540   32.9440   44.6830 C   0  0  0  0  0  0  0  0  0  0  0  0
   57.7360   32.0330   43.2640 S   0  0  0  0  0  0  0  0  0  0  0  0
   58.4280   30.4540   43.8460 C   0  0  0  0  0  0  0  0  0  0  0  0
   58.3520   27.8010   46.0250 C   0  0  0  0  0  0  0  0  0  0  0  0
   59.5610   28.1280   46.1820 O   0  0  0  0  0  0  0  0  0  0  0  0
   59.5023   23.4755   46.2593 H   0  0  0  0  0  0  0  0  0  0  0  0
   58.3359   24.2730   45.1502 H   0  0  0  0  0  0  0  0  0  0  0  0
   60.0612   24.7732   45.1502 H   0  0  0  0  0  0  0  0  0  0  0  0
   58.5039   24.9689   47.7315 H   0  0  0  0  0  0  0  0  0  0  0  0
   59.8586   25.9882   47.1077 H   0  0  0  0  0  0  0  0  0  0  0  0
   55.1800   24.5160   45.2270 H   0  0  0  0  0  0  0  0  0  0  0  0
   58.5519   32.7233   48.0957 H   0  0  0  0  0  0  0  0  0  0  0  0
   59.4512   35.0321   47.7861 H   0  0  0  0  0  0  0  0  0  0  0  0
   59.6965   35.9850   45.4917 H   0  0  0  0  0  0  0  0  0  0  0  0
   58.9848   34.6519   43.5017 H   0  0  0  0  0  0  0  0  0  0  0  0
   58.1652   29.6551   43.1370 H   0  0  0  0  0  0  0  0  0  0  0  0
   59.5226   30.5373   43.9159 H   0  0  0  0  0  0  0  0  0  0  0  0
  1  2  1  0
  2  3  1  0
  3  4  2  0
  4  5  1  0
  4  6  1  0
  6  7  1  0
  7  8  1  0
  7  9  2  0
  9 10  1  0
 10 11  2  0
 11 12  1  0
 12 13  2  0
 13 14  1  0
 14 15  2  0
 15 16  1  0
 16 17  2  0
 17 18  1  0
 18 19  1  0
  9 20  1  0
 20 21  2  0
 20  3  1  0
 19 10  1  0
 17 12  1  0
  1 22  1  0
  1 23  1  0
  1 24  1  0
  2 25  1  0
  2 26  1  0
  5 27  1  0
 13 28  1  0
 14 29  1  0
 15 30  1  0
 16 31  1  0
 19 32  1  0
 19 33  1  0
M  CHG  2   6  -1   8  -1
M  END
>  <UniqueID>  (81) 
73

>  <SMILES>  (81) 
CCc1c(S)[n-]c([O-])c(C2=Nc3ccccc3SC2)c1=O

>  <Energy>  (81) 
47.39690114359366

>  <Genealogy>  (81) 
CCc1c(S)[n-]c([O-])c(C2=Nc3ccccc3SC2)c1=O (protonated)
CCc1c(S)[n-]c([O-])c(C2=Nc3ccccc3SC2)c1=O (3D coordinates assigned)
CCc1c(S)[n-]c([O-])c(C2=Nc3ccccc3SC2)c1=O (nonaromatic ring conformer: 47.39690114359366 kcal/mol)

>  <smiles>  (81) 
CCc1c(S)[nH]c(O)c(C2=Nc3ccccc3SC2)c1=O

>  <score_type>  (81) 
oracle

>  <origin>  (81) 
adg

>  <m_score__min__energy>  (81) 
-13.029999999999999

>  <m_primary>  (81) 
energy

$$$$
81:0
     RDKit          3D

 51 54  0  0  0  0  0  0  0  0999 V2000
   60.7670   28.4250   48.6070 O   0  0  0  0  0  0  0  0  0  0  0  0
   59.5400   28.6940   48.7280 C   0  0  0  0  0  0  0  0  0  0  0  0
   58.5600   27.8810   48.0710 N   0  0  0  0  0  0  0  0  0  0  0  0
   58.3270   27.8070   46.6580 C   0  0  0  0  0  0  0  0  0  0  0  0
   58.7270   26.6550   45.9720 C   0  0  0  0  0  0  0  0  0  0  0  0
   58.5580   26.5640   44.5870 C   0  0  0  0  0  0  0  0  0  0  0  0
   57.9770   27.6190   43.8800 C   0  0  0  0  0  0  0  0  0  0  0  0
   57.5350   28.7630   44.5600 C   0  0  0  0  0  0  0  0  0  0  0  0
   56.7870   30.1020   43.6960 S   0  0  0  0  0  0  0  0  0  0  0  0
   55.6010   30.5800   44.4860 O   0  0  0  0  0  0  0  0  0  0  0  0
   56.3180   29.6420   42.3430 O   0  0  0  0  0  0  0  0  0  0  0  0
   57.8890   31.4340   43.5130 N   0  0  0  0  0  0  0  0  0  0  0  0
   57.9090   32.4910   44.2690 C   0  0  0  0  0  0  0  0  0  0  0  0
   58.8230   33.6520   44.1180 C   0  0  0  0  0  0  0  0  0  0  0  0
   58.5260   34.4970   45.3660 C   0  0  0  0  0  0  0  0  0  0  0  0
   57.2760   33.8940   46.0370 C   0  0  0  0  0  0  0  0  0  0  0  0
   57.0270   32.6380   45.3600 N   0  0  0  0  0  0  0  0  0  0  0  0
   57.7050   28.8500   45.9490 C   0  0  0  0  0  0  0  0  0  0  0  0
   59.1290   29.8460   49.5670 C   0  0  0  0  0  0  0  0  0  0  0  0
   58.8810   29.6200   50.9340 C   0  0  0  0  0  0  0  0  0  0  0  0
   58.5000   30.6660   51.7770 C   0  0  0  0  0  0  0  0  0  0  0  0
   58.3710   31.9570   51.2710 C   0  0  0  0  0  0  0  0  0  0  0  0
   58.6060   32.2030   49.9190 C   0  0  0  0  0  0  0  0  0  0  0  0
   58.9600   31.1590   49.0500 C   0  0  0  0  0  0  0  0  0  0  0  0
   59.1380   31.5580   47.2990 S   0  0  0  0  0  0  0  0  0  0  0  0
   60.8460   32.1020   47.4650 C   0  0  0  0  0  0  0  0  0  0  0  0
   61.8820   31.1800   47.2460 C   0  0  0  0  0  0  0  0  0  0  0  0
   63.2170   31.5760   47.3660 C   0  0  0  0  0  0  0  0  0  0  0  0
   63.5270   32.8900   47.7200 C   0  0  0  0  0  0  0  0  0  0  0  0
   62.5040   33.8090   47.9630 C   0  0  0  0  0  0  0  0  0  0  0  0
   61.1620   33.4190   47.8540 C   0  0  0  0  0  0  0  0  0  0  0  0
   59.9080   34.5930   48.2360 Cl  0  0  0  0  0  0  0  0  0  0  0  0
   59.1765   25.8170   46.5249 H   0  0  0  0  0  0  0  0  0  0  0  0
   58.8835   25.6591   44.0529 H   0  0  0  0  0  0  0  0  0  0  0  0
   57.8659   27.5525   42.7877 H   0  0  0  0  0  0  0  0  0  0  0  0
   59.8739   33.3273   44.1024 H   0  0  0  0  0  0  0  0  0  0  0  0
   58.6698   34.2023   43.1779 H   0  0  0  0  0  0  0  0  0  0  0  0
   59.3802   34.4603   46.0581 H   0  0  0  0  0  0  0  0  0  0  0  0
   58.3544   35.5489   45.0939 H   0  0  0  0  0  0  0  0  0  0  0  0
   57.4624   33.7211   47.1072 H   0  0  0  0  0  0  0  0  0  0  0  0
   56.4120   34.5707   45.9619 H   0  0  0  0  0  0  0  0  0  0  0  0
   56.2660   31.9660   45.6060 H   0  0  0  0  0  0  0  0  0  0  0  0
   57.3493   29.7405   46.4880 H   0  0  0  0  0  0  0  0  0  0  0  0
   58.9889   28.6050   51.3440 H   0  0  0  0  0  0  0  0  0  0  0  0
   58.3017   30.4702   52.8411 H   0  0  0  0  0  0  0  0  0  0  0  0
   58.0836   32.7829   51.9383 H   0  0  0  0  0  0  0  0  0  0  0  0
   58.5129   33.2272   49.5287 H   0  0  0  0  0  0  0  0  0  0  0  0
   61.6417   30.1404   46.9785 H   0  0  0  0  0  0  0  0  0  0  0  0
   64.0239   30.8516   47.1813 H   0  0  0  0  0  0  0  0  0  0  0  0
   64.5782   33.2020   47.8077 H   0  0  0  0  0  0  0  0  0  0  0  0
   62.7525   34.8438   48.2413 H   0  0  0  0  0  0  0  0  0  0  0  0
  1  2  2  0
  2  3  1  0
  3  4  1  0
  4  5  2  0
  5  6  1  0
  6  7  2  0
  7  8  1  0
  8  9  1  0
  9 10  2  0
  9 11  2  0
  9 12  1  0
 12 13  2  3
 13 14  1  0
 14 15  1  0
 15 16  1  0
 16 17  1  0
  8 18  2  0
  2 19  1  0
 19 20  2  0
 20 21  1  0
 21 22  2  0
 22 23  1  0
 23 24  2  0
 24 25  1  0
 25 26  1  0
 26 27  2  0
 27 28  1  0
 28 29  2  0
 29 30  1  0
 30 31  2  0
 31 32  1  0
 18  4  1  0
 24 19  1  0
 31 26  1  0
 17 13  1  0
  5 33  1  0
  6 34  1  0
  7 35  1  0
 14 36  1  0
 14 37  1  0
 15 38  1  0
 15 39  1  0
 16 40  1  0
 16 41  1  0
 17 42  1  0
 18 43  1  0
 20 44  1  0
 21 45  1  0
 22 46  1  0
 23 47  1  0
 27 48  1  0
 28 49  1  0
 29 50  1  0
 30 51  1  0
M  CHG  1   3  -1
M  END
>  <UniqueID>  (82) 
74

>  <SMILES>  (82) 
O=C([N-]c1cccc(S(=O)(=O)N=C2CCCN2)c1)c1ccccc1Sc1ccccc1Cl

>  <Energy>  (82) 
68.33364605256124

>  <Genealogy>  (82) 
O=C([N-]c1cccc(S(=O)(=O)N=C2CCCN2)c1)c1ccccc1Sc1ccccc1Cl (protonated)
O=C([N-]c1cccc(S(=O)(=O)N=C2CCCN2)c1)c1ccccc1Sc1ccccc1Cl (3D coordinates assigned)
O=C([N-]c1cccc(S(=O)(=O)N=C2CCCN2)c1)c1ccccc1Sc1ccccc1Cl (nonaromatic ring conformer: 68.33364605256124 kcal/mol)

>  <smiles>  (82) 
O=C(Nc1cccc(S(=O)(=O)N=C2CCCN2)c1)c1ccccc1Sc1ccccc1Cl

>  <score_type>  (82) 
oracle

>  <origin>  (82) 
adg

>  <m_score__min__energy>  (82) 
-11.68

>  <m_primary>  (82) 
energy

$$$$
82:0
     RDKit          3D

 31 33  0  0  0  0  0  0  0  0999 V2000
   60.3076   35.3003   47.3537 H   0  0  0  0  0  0  0  0  0  0  0  0
   60.5630   34.2330   47.2780 C   0  0  0  0  0  0  0  0  0  0  0  0
   59.6900   33.4300   46.6520 C   0  0  0  0  0  0  0  0  0  0  0  0
   58.1310   34.0750   46.0300 S   0  0  0  0  0  0  0  0  0  0  0  0
   57.7290   32.4140   45.4810 C   0  0  0  0  0  0  0  0  0  0  0  0
   56.6450   32.1560   44.8950 O   0  0  0  0  0  0  0  0  0  0  0  0
   58.7310   31.4220   45.7040 N   0  0  0  0  0  0  0  0  0  0  0  0
   58.6190   30.0400   45.3200 C   0  0  0  0  0  0  0  0  0  0  0  0
   57.8780   29.6740   44.1840 C   0  0  0  0  0  0  0  0  0  0  0  0
   57.3796   30.4486   43.5827 H   0  0  0  0  0  0  0  0  0  0  0  0
   57.7710   28.3300   43.8140 C   0  0  0  0  0  0  0  0  0  0  0  0
   57.1888   28.0503   42.9236 H   0  0  0  0  0  0  0  0  0  0  0  0
   58.4020   27.3420   44.5730 C   0  0  0  0  0  0  0  0  0  0  0  0
   58.3185   26.2853   44.2789 H   0  0  0  0  0  0  0  0  0  0  0  0
   59.1400   27.6960   45.7070 C   0  0  0  0  0  0  0  0  0  0  0  0
   60.0050   26.3440   46.7420 Br  0  0  0  0  0  0  0  0  0  0  0  0
   59.2490   29.0400   46.0800 C   0  0  0  0  0  0  0  0  0  0  0  0
   59.8305   29.3151   46.9723 H   0  0  0  0  0  0  0  0  0  0  0  0
   59.8580   32.0010   46.3500 C   0  0  0  0  0  0  0  0  0  0  0  0
   60.9010   31.3420   46.6050 O   0  0  0  0  0  0  0  0  0  0  0  0
   61.8400   33.7940   47.8730 C   0  0  0  0  0  0  0  0  0  0  0  0
   62.0520   33.8430   49.2590 C   0  0  0  0  0  0  0  0  0  0  0  0
   61.2438   34.1725   49.9286 H   0  0  0  0  0  0  0  0  0  0  0  0
   63.2900   33.4730   49.7870 C   0  0  0  0  0  0  0  0  0  0  0  0
   63.4588   33.4932   50.8738 H   0  0  0  0  0  0  0  0  0  0  0  0
   64.3120   33.0770   48.9220 C   0  0  0  0  0  0  0  0  0  0  0  0
   65.2887   32.7756   49.3285 H   0  0  0  0  0  0  0  0  0  0  0  0
   64.1030   33.0630   47.5780 N   0  0  0  0  0  0  0  0  0  0  0  0
   64.8810   32.7750   46.9430 H   0  0  0  0  0  0  0  0  0  0  0  0
   62.9040   33.4200   47.0410 C   0  0  0  0  0  0  0  0  0  0  0  0
   62.7697   33.4149   45.9492 H   0  0  0  0  0  0  0  0  0  0  0  0
  1  2  1  0
  2  3  2  0
  3  4  1  0
  4  5  1  0
  5  6  2  0
  5  7  1  0
  7  8  1  0
  8  9  2  0
  9 10  1  0
  9 11  1  0
 11 12  1  0
 11 13  2  0
 13 14  1  0
 13 15  1  0
 15 16  1  0
 15 17  2  0
 17 18  1  0
  7 19  1  0
 19 20  2  0
  2 21  1  0
 21 22  2  0
 22 23  1  0
 22 24  1  0
 24 25  1  0
 24 26  2  0
 26 27  1  0
 26 28  1  0
 28 29  1  0
 28 30  2  0
 30 31  1  0
 19  3  1  0
 30 21  1  0
 17  8  1  0
M  CHG  1  28   1
M  END
>  <UniqueID>  (83) 
75

>  <SMILES>  (83) 
O=C1S/C(=C/c2ccc[nH+]c2)C(=O)N1c1cccc(Br)c1

>  <Energy>  (83) 
66.19333660621567

>  <Genealogy>  (83) 
O=C1SC(=Cc2ccc[nH+]c2)C(=O)N1c1cccc(Br)c1 (protonated)
O=C1S/C(=C/c2ccc[nH+]c2)C(=O)N1c1cccc(Br)c1 (cis-trans isomerization)
O=C1S/C(=C/c2ccc[nH+]c2)C(=O)N1c1cccc(Br)c1 (3D coordinates assigned)
O=C1S/C(=C/c2ccc[nH+]c2)C(=O)N1c1cccc(Br)c1 (nonaromatic ring conformer: 66.19333660621567 kcal/mol)

>  <smiles>  (83) 
O=C1SC(=Cc2cccnc2)C(=O)N1c1cccc(Br)c1

>  <score_type>  (83) 
oracle

>  <origin>  (83) 
adg

>  <m_score__min__energy>  (83) 
-6.9800000000000004

>  <m_primary>  (83) 
energy

$$$$
83:0
     RDKit          3D

 52 54  0  0  0  0  0  0  0  0999 V2000
   55.1450   27.1000   45.2950 H   0  0  0  0  0  0  0  0  0  0  0  0
   54.9600   26.3430   45.9880 N   0  0  0  0  0  0  0  0  0  0  0  0
   56.0310   25.7020   46.6770 C   0  0  0  0  0  0  0  0  0  0  0  0
   55.8480   24.5620   47.1790 O   0  0  0  0  0  0  0  0  0  0  0  0
   57.3450   26.3580   46.8160 C   0  0  0  0  0  0  0  0  0  0  0  0
   58.2290   25.9620   47.7740 N   0  0  0  0  0  0  0  0  0  0  0  0
   59.3800   26.6670   47.7350 C   0  0  0  0  0  0  0  0  0  0  0  0
   60.3790   26.3950   48.5230 N   0  0  0  0  0  0  0  0  0  0  0  0
   60.8040   27.1430   49.6740 C   0  0  0  0  0  0  0  0  0  0  0  0
   61.2140   26.5120   50.8610 C   0  0  0  0  0  0  0  0  0  0  0  0
   61.1861   25.4148   50.9350 H   0  0  0  0  0  0  0  0  0  0  0  0
   61.6570   27.2710   51.9480 C   0  0  0  0  0  0  0  0  0  0  0  0
   61.9555   26.7717   52.8816 H   0  0  0  0  0  0  0  0  0  0  0  0
   61.7210   28.6620   51.8500 C   0  0  0  0  0  0  0  0  0  0  0  0
   62.0604   29.2591   52.7092 H   0  0  0  0  0  0  0  0  0  0  0  0
   61.3540   29.2950   50.6610 C   0  0  0  0  0  0  0  0  0  0  0  0
   61.4550   31.1990   50.5210 Br  0  0  0  0  0  0  0  0  0  0  0  0
   60.9070   28.5370   49.5730 C   0  0  0  0  0  0  0  0  0  0  0  0
   60.6348   29.0384   48.6326 H   0  0  0  0  0  0  0  0  0  0  0  0
   59.3710   27.8060   46.4890 S   0  0  0  0  0  0  0  0  0  0  0  0
   57.8090   27.3970   46.0070 C   0  0  0  0  0  0  0  0  0  0  0  0
   57.1400   27.9090   44.8500 N   0  0  0  0  0  0  0  0  0  0  0  0
   56.5040   29.1910   44.7880 C   0  0  0  0  0  0  0  0  0  0  0  0
   55.2680   29.2450   44.5560 O   0  0  0  0  0  0  0  0  0  0  0  0
   57.2550   30.4390   45.0400 C   0  0  0  0  0  0  0  0  0  0  0  0
   57.2260   31.4830   44.1020 C   0  0  0  0  0  0  0  0  0  0  0  0
   56.6592   31.3623   43.1670 H   0  0  0  0  0  0  0  0  0  0  0  0
   57.9130   32.6750   44.3490 C   0  0  0  0  0  0  0  0  0  0  0  0
   57.9109   33.4742   43.5932 H   0  0  0  0  0  0  0  0  0  0  0  0
   58.6060   32.8580   45.5570 C   0  0  0  0  0  0  0  0  0  0  0  0
   59.3500   34.1420   45.8090 C   0  0  0  0  0  0  0  0  0  0  0  0
   58.6374   34.9235   46.1112 H   0  0  0  0  0  0  0  0  0  0  0  0
   59.8678   34.4481   44.8880 H   0  0  0  0  0  0  0  0  0  0  0  0
   60.3470   33.9420   46.8870 N   0  0  0  0  0  0  0  0  0  0  0  0
   60.0430   34.7600   48.0910 C   0  0  0  0  0  0  0  0  0  0  0  0
   59.2300   35.4641   47.8602 H   0  0  0  0  0  0  0  0  0  0  0  0
   60.9407   35.3215   48.3891 H   0  0  0  0  0  0  0  0  0  0  0  0
   59.6150   33.8470   49.2290 C   0  0  0  0  0  0  0  0  0  0  0  0
   59.8413   34.3297   50.1912 H   0  0  0  0  0  0  0  0  0  0  0  0
   58.5338   33.6566   49.1595 H   0  0  0  0  0  0  0  0  0  0  0  0
   60.1603   32.8942   49.1595 H   0  0  0  0  0  0  0  0  0  0  0  0
   61.7280   34.1560   46.4000 C   0  0  0  0  0  0  0  0  0  0  0  0
   61.7766   33.8997   45.3314 H   0  0  0  0  0  0  0  0  0  0  0  0
   61.9952   35.2117   46.5550 H   0  0  0  0  0  0  0  0  0  0  0  0
   62.7200   33.2840   47.1690 C   0  0  0  0  0  0  0  0  0  0  0  0
   62.5661   33.4193   48.2497 H   0  0  0  0  0  0  0  0  0  0  0  0
   62.5610   32.2280   46.9054 H   0  0  0  0  0  0  0  0  0  0  0  0
   63.7469   33.5771   46.9054 H   0  0  0  0  0  0  0  0  0  0  0  0
   58.6320   31.8160   46.4990 C   0  0  0  0  0  0  0  0  0  0  0  0
   59.1752   31.9475   47.4464 H   0  0  0  0  0  0  0  0  0  0  0  0
   57.9700   30.6120   46.2370 C   0  0  0  0  0  0  0  0  0  0  0  0
   58.0094   29.7953   46.9729 H   0  0  0  0  0  0  0  0  0  0  0  0
  1  2  1  0
  2  3  1  0
  3  4  2  0
  3  5  1  0
  5  6  1  0
  6  7  1  0
  7  8  2  0
  8  9  1  0
  9 10  2  0
 10 11  1  0
 10 12  1  0
 12 13  1  0
 12 14  2  0
 14 15  1  0
 14 16  1  0
 16 17  1  0
 16 18  2  0
 18 19  1  0
  7 20  1  0
 20 21  1  0
 21 22  1  0
 22 23  1  0
 23 24  2  0
 23 25  1  0
 25 26  2  0
 26 27  1  0
 26 28  1  0
 28 29  1  0
 28 30  2  0
 30 31  1  0
 31 32  1  0
 31 33  1  0
 31 34  1  0
 34 35  1  0
 35 36  1  0
 35 37  1  0
 35 38  1  0
 38 39  1  0
 38 40  1  0
 38 41  1  0
 34 42  1  0
 42 43  1  0
 42 44  1  0
 42 45  1  0
 45 46  1  0
 45 47  1  0
 45 48  1  0
 30 49  1  0
 49 50  1  0
 49 51  2  0
 51 52  1  0
 21  5  2  0
 51 25  1  0
 18  9  1  0
M  CHG  3   2  -1   6  -1  22  -1
M  END
>  <UniqueID>  (84) 
76

>  <SMILES>  (84) 
CCN(CC)Cc1ccc(C(=O)[N-]c2s/c(=N\c3cccc(Br)c3)[n-]c2C([NH-])=O)cc1

>  <Energy>  (84) 
96.26797653829573

>  <Genealogy>  (84) 
CCN(CC)Cc1ccc(C(=O)[N-]c2sc(=Nc3cccc(Br)c3)[n-]c2C([NH-])=O)cc1 (protonated)
CCN(CC)Cc1ccc(C(=O)[N-]c2s/c(=N\c3cccc(Br)c3)[n-]c2C([NH-])=O)cc1 (cis-trans isomerization)
CCN(CC)Cc1ccc(C(=O)[N-]c2s/c(=N\c3cccc(Br)c3)[n-]c2C([NH-])=O)cc1 (3D coordinates assigned)
CCN(CC)Cc1ccc(C(=O)[N-]c2s/c(=N\c3cccc(Br)c3)[n-]c2C([NH-])=O)cc1 (optimized conformer: 96.26797653829573 kcal/mol)

>  <smiles>  (84) 
CCN(CC)Cc1ccc(C(=O)Nc2sc(=Nc3cccc(Br)c3)[nH]c2C(N)=O)cc1

>  <score_type>  (84) 
oracle

>  <origin>  (84) 
adg

>  <m_score__min__energy>  (84) 
-14.94

>  <m_primary>  (84) 
energy

$$$$
84:0
     RDKit          3D

 51 54  0  0  0  0  0  0  0  0999 V2000
   59.0510   25.6110   46.4120 C   0  0  0  0  0  0  0  0  0  0  0  0
   58.1190   26.6640   45.9920 N   0  0  0  0  0  0  0  0  0  0  0  0
   56.7560   26.4910   46.0820 C   0  0  0  0  0  0  0  0  0  0  0  0
   56.2750   25.4300   46.5640 O   0  0  0  0  0  0  0  0  0  0  0  0
   55.9010   27.4680   45.6430 N   0  0  0  0  0  0  0  0  0  0  0  0
   56.3580   28.6270   45.0940 C   0  0  0  0  0  0  0  0  0  0  0  0
   55.5450   29.5050   44.7060 O   0  0  0  0  0  0  0  0  0  0  0  0
   57.7370   28.7940   44.9840 C   0  0  0  0  0  0  0  0  0  0  0  0
   58.5740   27.8190   45.4260 C   0  0  0  0  0  0  0  0  0  0  0  0
   59.8590   28.1490   45.1910 N   0  0  0  0  0  0  0  0  0  0  0  0
   59.7560   29.3630   44.5920 C   0  0  0  0  0  0  0  0  0  0  0  0
   58.4740   29.7890   44.4530 N   0  0  0  0  0  0  0  0  0  0  0  0
   58.0480   30.9980   43.7430 C   0  0  0  0  0  0  0  0  0  0  0  0
   57.2330   31.9190   44.6610 C   0  0  0  0  0  0  0  0  0  0  0  0
   58.1040   32.9420   45.3430 C   0  0  0  0  0  0  0  0  0  0  0  0
   58.7740   33.9170   44.5870 C   0  0  0  0  0  0  0  0  0  0  0  0
   59.5170   34.9110   45.2260 C   0  0  0  0  0  0  0  0  0  0  0  0
   59.6040   34.9370   46.6190 C   0  0  0  0  0  0  0  0  0  0  0  0
   58.9560   33.9630   47.3890 C   0  0  0  0  0  0  0  0  0  0  0  0
   59.0540   34.0420   48.7860 O   0  0  0  0  0  0  0  0  0  0  0  0
   59.2310   32.9510   49.6450 C   0  0  0  0  0  0  0  0  0  0  0  0
   60.3880   32.5770   49.9820 O   0  0  0  0  0  0  0  0  0  0  0  0
   58.0790   32.2930   50.1810 N   0  0  0  0  0  0  0  0  0  0  0  0
   58.1720   31.0920   51.0090 C   0  0  0  0  0  0  0  0  0  0  0  0
   58.9700   30.0320   50.2990 C   0  0  0  0  0  0  0  0  0  0  0  0
   59.8400   29.2030   51.0270 C   0  0  0  0  0  0  0  0  0  0  0  0
   60.5620   28.1970   50.3780 C   0  0  0  0  0  0  0  0  0  0  0  0
   60.4170   28.0080   49.0000 C   0  0  0  0  0  0  0  0  0  0  0  0
   59.5480   28.8240   48.2710 C   0  0  0  0  0  0  0  0  0  0  0  0
   58.8250   29.8320   48.9150 C   0  0  0  0  0  0  0  0  0  0  0  0
   58.1920   32.9730   46.7440 C   0  0  0  0  0  0  0  0  0  0  0  0
   59.0871   25.5702   47.5106 H   0  0  0  0  0  0  0  0  0  0  0  0
   58.7097   24.6415   46.0201 H   0  0  0  0  0  0  0  0  0  0  0  0
   60.0548   25.8321   46.0201 H   0  0  0  0  0  0  0  0  0  0  0  0
   60.6258   29.9446   44.2525 H   0  0  0  0  0  0  0  0  0  0  0  0
   58.9378   31.5393   43.3892 H   0  0  0  0  0  0  0  0  0  0  0  0
   57.4142   30.7002   42.8947 H   0  0  0  0  0  0  0  0  0  0  0  0
   56.4748   32.4413   44.0591 H   0  0  0  0  0  0  0  0  0  0  0  0
   56.7623   31.2983   45.4376 H   0  0  0  0  0  0  0  0  0  0  0  0
   58.7133   33.8976   43.4888 H   0  0  0  0  0  0  0  0  0  0  0  0
   60.0357   35.6763   44.6300 H   0  0  0  0  0  0  0  0  0  0  0  0
   60.1855   35.7279   47.1153 H   0  0  0  0  0  0  0  0  0  0  0  0
   57.1330   32.6720   49.9500 H   0  0  0  0  0  0  0  0  0  0  0  0
   58.6658   31.3431   51.9593 H   0  0  0  0  0  0  0  0  0  0  0  0
   57.1588   30.7096   51.2019 H   0  0  0  0  0  0  0  0  0  0  0  0
   59.9535   29.3461   52.1117 H   0  0  0  0  0  0  0  0  0  0  0  0
   61.2449   27.5534   50.9519 H   0  0  0  0  0  0  0  0  0  0  0  0
   60.9868   27.2172   48.4901 H   0  0  0  0  0  0  0  0  0  0  0  0
   59.4326   28.6727   47.1876 H   0  0  0  0  0  0  0  0  0  0  0  0
   58.1406   30.4706   48.3373 H   0  0  0  0  0  0  0  0  0  0  0  0
   57.6600   32.2181   47.3415 H   0  0  0  0  0  0  0  0  0  0  0  0
  1  2  1  0
  2  3  1  0
  3  4  2  0
  3  5  1  0
  5  6  1  0
  6  7  2  0
  6  8  1  0
  8  9  2  0
  9 10  1  0
 10 11  2  0
 11 12  1  0
 12 13  1  0
 13 14  1  0
 14 15  1  0
 15 16  2  0
 16 17  1  0
 17 18  2  0
 18 19  1  0
 19 20  1  0
 20 21  1  0
 21 22  2  0
 21 23  1  0
 23 24  1  0
 24 25  1  0
 25 26  2  0
 26 27  1  0
 27 28  2  0
 28 29  1  0
 29 30  2  0
 19 31  2  0
  9  2  1  0
 31 15  1  0
 12  8  1  0
 30 25  1  0
  1 32  1  0
  1 33  1  0
  1 34  1  0
 11 35  1  0
 13 36  1  0
 13 37  1  0
 14 38  1  0
 14 39  1  0
 16 40  1  0
 17 41  1  0
 18 42  1  0
 23 43  1  0
 24 44  1  0
 24 45  1  0
 26 46  1  0
 27 47  1  0
 28 48  1  0
 29 49  1  0
 30 50  1  0
 31 51  1  0
M  CHG  1   5  -1
M  END
>  <UniqueID>  (85) 
77

>  <SMILES>  (85) 
Cn1c(=O)[n-]c(=O)c2c1ncn2CCc1cccc(OC(=O)NCc2ccccc2)c1

>  <Energy>  (85) 
94.69884174739336

>  <Genealogy>  (85) 
Cn1c(=O)[n-]c(=O)c2c1ncn2CCc1cccc(OC(=O)NCc2ccccc2)c1 (protonated)
Cn1c(=O)[n-]c(=O)c2c1ncn2CCc1cccc(OC(=O)NCc2ccccc2)c1 (3D coordinates assigned)
Cn1c(=O)[n-]c(=O)c2c1ncn2CCc1cccc(OC(=O)NCc2ccccc2)c1 (optimized conformer: 94.69884174739336 kcal/mol)

>  <smiles>  (85) 
Cn1c(=O)[nH]c(=O)c2c1ncn2CCc1cccc(OC(=O)NCc2ccccc2)c1

>  <score_type>  (85) 
oracle

>  <origin>  (85) 
adg

>  <m_score__min__energy>  (85) 
-10.619999999999999

>  <m_primary>  (85) 
energy

$$$$
85:0
     RDKit          3D

 42 44  0  0  0  0  0  0  0  0999 V2000
   54.3800   23.3970   46.2610 C   0  0  0  0  0  0  0  0  0  0  0  0
   55.3640   24.3410   46.7710 N   0  0  0  0  0  0  0  0  0  0  0  0
   55.6920   25.5830   46.1360 C   0  0  0  0  0  0  0  0  0  0  0  0
   54.7600   26.3360   45.7500 O   0  0  0  0  0  0  0  0  0  0  0  0
   57.0920   26.0160   45.9540 C   0  0  0  0  0  0  0  0  0  0  0  0
   58.1350   25.1120   46.2160 C   0  0  0  0  0  0  0  0  0  0  0  0
   59.4650   25.5050   46.0560 C   0  0  0  0  0  0  0  0  0  0  0  0
   59.7650   26.7980   45.6240 C   0  0  0  0  0  0  0  0  0  0  0  0
   58.7360   27.7020   45.3490 C   0  0  0  0  0  0  0  0  0  0  0  0
   57.3900   27.3210   45.5090 C   0  0  0  0  0  0  0  0  0  0  0  0
   56.3140   28.2420   45.2600 N   0  0  0  0  0  0  0  0  0  0  0  0
   56.4710   29.7680   44.4530 S   0  0  0  0  0  0  0  0  0  0  0  0
   56.8640   29.5330   43.0210 O   0  0  0  0  0  0  0  0  0  0  0  0
   55.1470   30.4800   44.4860 O   0  0  0  0  0  0  0  0  0  0  0  0
   57.6700   30.7530   45.2830 C   0  0  0  0  0  0  0  0  0  0  0  0
   58.0970   31.9700   44.7350 C   0  0  0  0  0  0  0  0  0  0  0  0
   59.0650   32.7340   45.3930 C   0  0  0  0  0  0  0  0  0  0  0  0
   59.6210   32.2920   46.6070 C   0  0  0  0  0  0  0  0  0  0  0  0
   60.6110   33.0790   47.2950 N   0  0  0  0  0  0  0  0  0  0  0  0
   62.0560   32.8710   47.2190 C   0  0  0  0  0  0  0  0  0  0  0  0
   62.6780   33.8320   48.2630 C   0  0  0  0  0  0  0  0  0  0  0  0
   61.5660   34.5890   48.8200 N   0  0  0  0  0  0  0  0  0  0  0  0
   60.3780   34.1180   48.2290 C   0  0  0  0  0  0  0  0  0  0  0  0
   59.2440   34.6060   48.4800 O   0  0  0  0  0  0  0  0  0  0  0  0
   59.1730   31.0800   47.1580 C   0  0  0  0  0  0  0  0  0  0  0  0
   58.2090   30.3140   46.4970 C   0  0  0  0  0  0  0  0  0  0  0  0
   53.8700   22.9077   47.1039 H   0  0  0  0  0  0  0  0  0  0  0  0
   53.6415   23.9331   45.6469 H   0  0  0  0  0  0  0  0  0  0  0  0
   54.8850   22.6369   45.6469 H   0  0  0  0  0  0  0  0  0  0  0  0
   57.9026   24.0896   46.5488 H   0  0  0  0  0  0  0  0  0  0  0  0
   60.2773   24.7950   46.2706 H   0  0  0  0  0  0  0  0  0  0  0  0
   60.8137   27.1058   45.4999 H   0  0  0  0  0  0  0  0  0  0  0  0
   58.9790   28.7182   45.0052 H   0  0  0  0  0  0  0  0  0  0  0  0
   57.6697   32.3246   43.7855 H   0  0  0  0  0  0  0  0  0  0  0  0
   59.3947   33.6889   44.9578 H   0  0  0  0  0  0  0  0  0  0  0  0
   62.3059   31.8278   47.4624 H   0  0  0  0  0  0  0  0  0  0  0  0
   62.4403   33.0694   46.2076 H   0  0  0  0  0  0  0  0  0  0  0  0
   63.1864   33.2609   49.0538 H   0  0  0  0  0  0  0  0  0  0  0  0
   63.4288   34.4936   47.8063 H   0  0  0  0  0  0  0  0  0  0  0  0
   61.6350   35.3380   49.5450 H   0  0  0  0  0  0  0  0  0  0  0  0
   59.5840   30.7313   48.1169 H   0  0  0  0  0  0  0  0  0  0  0  0
   57.8726   29.3618   46.9331 H   0  0  0  0  0  0  0  0  0  0  0  0
  1  2  1  0
  2  3  1  0
  3  4  2  0
  3  5  1  0
  5  6  2  0
  6  7  1  0
  7  8  2  0
  8  9  1  0
  9 10  2  0
 10 11  1  0
 11 12  1  0
 12 13  2  0
 12 14  2  0
 12 15  1  0
 15 16  2  0
 16 17  1  0
 17 18  2  0
 18 19  1  0
 19 20  1  0
 20 21  1  0
 21 22  1  0
 22 23  1  0
 23 24  2  0
 18 25  1  0
 25 26  2  0
 10  5  1  0
 26 15  1  0
 23 19  1  0
  1 27  1  0
  1 28  1  0
  1 29  1  0
  6 30  1  0
  7 31  1  0
  8 32  1  0
  9 33  1  0
 16 34  1  0
 17 35  1  0
 20 36  1  0
 20 37  1  0
 21 38  1  0
 21 39  1  0
 22 40  1  0
 25 41  1  0
 26 42  1  0
M  CHG  2   2  -1  11  -1
M  END
>  <UniqueID>  (86) 
78

>  <SMILES>  (86) 
C[N-]C(=O)c1ccccc1[N-]S(=O)(=O)c1ccc(N2CCNC2=O)cc1

>  <Energy>  (86) 
67.77259887291365

>  <Genealogy>  (86) 
C[N-]C(=O)c1ccccc1[N-]S(=O)(=O)c1ccc(N2CCNC2=O)cc1 (protonated)
C[N-]C(=O)c1ccccc1[N-]S(=O)(=O)c1ccc(N2CCNC2=O)cc1 (3D coordinates assigned)
C[N-]C(=O)c1ccccc1[N-]S(=O)(=O)c1ccc(N2CCNC2=O)cc1 (nonaromatic ring conformer: 67.77259887291365 kcal/mol)

>  <smiles>  (86) 
CNC(=O)c1ccccc1NS(=O)(=O)c1ccc(N2CCNC2=O)cc1

>  <score_type>  (86) 
oracle

>  <origin>  (86) 
adg

>  <m_score__min__energy>  (86) 
-11.890000000000001

>  <m_primary>  (86) 
energy

$$$$
86:0
     RDKit          3D

 44 46  0  0  0  0  0  0  0  0999 V2000
   61.0270   30.0900   45.9920 O   0  0  0  0  0  0  0  0  0  0  0  0
   59.9290   29.7360   45.4780 C   0  0  0  0  0  0  0  0  0  0  0  0
   59.8280   28.4450   44.7150 C   0  0  0  0  0  0  0  0  0  0  0  0
   58.8750   27.4550   45.3520 C   0  0  0  0  0  0  0  0  0  0  0  0
   59.4160   26.3640   46.0580 C   0  0  0  0  0  0  0  0  0  0  0  0
   58.5860   25.4600   46.7210 C   0  0  0  0  0  0  0  0  0  0  0  0
   57.2060   25.6330   46.6980 C   0  0  0  0  0  0  0  0  0  0  0  0
   56.6480   26.7040   45.9990 C   0  0  0  0  0  0  0  0  0  0  0  0
   57.4650   27.6180   45.3090 C   0  0  0  0  0  0  0  0  0  0  0  0
   56.8460   28.7040   44.5970 N   0  0  0  0  0  0  0  0  0  0  0  0
   57.2420   28.9970   43.4480 O   0  0  0  0  0  0  0  0  0  0  0  0
   55.9950   29.5710   45.2410 O   0  0  0  0  0  0  0  0  0  0  0  0
   58.8000   30.6220   45.5090 N   0  0  0  0  0  0  0  0  0  0  0  0
   58.9240   31.9870   45.9280 C   0  0  0  0  0  0  0  0  0  0  0  0
   58.5020   33.0040   45.0600 C   0  0  0  0  0  0  0  0  0  0  0  0
   58.5950   34.3440   45.4430 C   0  0  0  0  0  0  0  0  0  0  0  0
   59.0990   34.6780   46.7020 C   0  0  0  0  0  0  0  0  0  0  0  0
   59.5040   33.6730   47.5850 C   0  0  0  0  0  0  0  0  0  0  0  0
   59.4260   32.3210   47.2090 C   0  0  0  0  0  0  0  0  0  0  0  0
   59.7290   31.3010   48.1800 N   0  0  0  0  0  0  0  0  0  0  0  0
   61.1110   31.2360   48.6720 C   0  0  0  0  0  0  0  0  0  0  0  0
   61.3590   30.0100   49.5490 C   0  0  0  0  0  0  0  0  0  0  0  0
   60.7010   28.8880   49.0100 O   0  0  0  0  0  0  0  0  0  0  0  0
   59.3120   29.0390   49.2020 C   0  0  0  0  0  0  0  0  0  0  0  0
   58.7480   30.2200   48.3920 C   0  0  0  0  0  0  0  0  0  0  0  0
   59.4751   28.6661   43.6969 H   0  0  0  0  0  0  0  0  0  0  0  0
   60.8272   27.9851   44.7120 H   0  0  0  0  0  0  0  0  0  0  0  0
   60.5065   26.2226   46.0872 H   0  0  0  0  0  0  0  0  0  0  0  0
   59.0236   24.6087   47.2630 H   0  0  0  0  0  0  0  0  0  0  0  0
   56.5543   24.9252   47.2311 H   0  0  0  0  0  0  0  0  0  0  0  0
   55.5559   26.8352   45.9874 H   0  0  0  0  0  0  0  0  0  0  0  0
   57.9580   30.3590   44.9550 H   0  0  0  0  0  0  0  0  0  0  0  0
   58.0952   32.7450   44.0713 H   0  0  0  0  0  0  0  0  0  0  0  0
   58.2711   35.1367   44.7526 H   0  0  0  0  0  0  0  0  0  0  0  0
   59.1774   35.7342   46.9993 H   0  0  0  0  0  0  0  0  0  0  0  0
   59.8863   33.9420   48.5807 H   0  0  0  0  0  0  0  0  0  0  0  0
   61.7919   31.1967   47.8090 H   0  0  0  0  0  0  0  0  0  0  0  0
   61.2910   32.1304   49.2866 H   0  0  0  0  0  0  0  0  0  0  0  0
   62.4395   29.8097   49.5970 H   0  0  0  0  0  0  0  0  0  0  0  0
   60.9691   30.2051   50.5589 H   0  0  0  0  0  0  0  0  0  0  0  0
   58.8061   28.1154   48.8841 H   0  0  0  0  0  0  0  0  0  0  0  0
   59.1342   29.2402   50.2687 H   0  0  0  0  0  0  0  0  0  0  0  0
   58.4220   29.8464   47.4101 H   0  0  0  0  0  0  0  0  0  0  0  0
   57.9142   30.6444   48.9706 H   0  0  0  0  0  0  0  0  0  0  0  0
  1  2  2  0
  2  3  1  0
  3  4  1  0
  4  5  2  0
  5  6  1  0
  6  7  2  0
  7  8  1  0
  8  9  2  0
  9 10  1  0
 10 11  2  0
 10 12  1  0
  2 13  1  0
 13 14  1  0
 14 15  2  0
 15 16  1  0
 16 17  2  0
 17 18  1  0
 18 19  2  0
 19 20  1  0
 20 21  1  0
 21 22  1  0
 22 23  1  0
 23 24  1  0
 24 25  1  0
  9  4  1  0
 19 14  1  0
 25 20  1  0
  3 26  1  0
  3 27  1  0
  5 28  1  0
  6 29  1  0
  7 30  1  0
  8 31  1  0
 13 32  1  0
 15 33  1  0
 16 34  1  0
 17 35  1  0
 18 36  1  0
 21 37  1  0
 21 38  1  0
 22 39  1  0
 22 40  1  0
 24 41  1  0
 24 42  1  0
 25 43  1  0
 25 44  1  0
M  CHG  2  10   1  12  -1
M  END
>  <UniqueID>  (87) 
79

>  <SMILES>  (87) 
O=C(Cc1ccccc1[N+](=O)[O-])Nc1ccccc1N1CCOCC1

>  <Energy>  (87) 
65.27489334726437

>  <Genealogy>  (87) 
O=C(Cc1ccccc1[N+](=O)[O-])Nc1ccccc1N1CCOCC1 (3D coordinates assigned)
O=C(Cc1ccccc1[N+](=O)[O-])Nc1ccccc1N1CCOCC1 (nonaromatic ring conformer: 65.27489334726437 kcal/mol)

>  <smiles>  (87) 
O=C(Cc1ccccc1[N+](=O)[O-])Nc1ccccc1N1CCOCC1

>  <score_type>  (87) 
oracle

>  <origin>  (87) 
adg

>  <m_score__min__energy>  (87) 
-8.3900000000000006

>  <m_primary>  (87) 
energy

$$$$
87:0
     RDKit          3D

 84 87  0  0  0  0  0  0  0  0999 V2000
   56.7010   21.8490   42.9960 C   0  0  0  0  0  0  0  0  0  0  0  0
   56.2620   23.2680   43.3500 C   0  0  0  0  0  0  0  0  0  0  0  0
   56.8330   23.7540   44.6930 C   0  0  0  0  0  0  0  0  0  0  0  0
   55.7980   23.7590   45.8200 C   0  0  0  0  0  0  0  0  0  0  0  0
   56.2220   24.6230   46.8740 O   0  0  0  0  0  0  0  0  0  0  0  0
   56.8770   25.8490   46.6850 C   0  0  0  0  0  0  0  0  0  0  0  0
   58.1640   26.0010   47.2140 C   0  0  0  0  0  0  0  0  0  0  0  0
   58.9090   27.1630   46.9630 C   0  0  0  0  0  0  0  0  0  0  0  0
   60.2830   27.3120   47.5530 C   0  0  0  0  0  0  0  0  0  0  0  0
   60.6290   28.6880   47.6770 O   0  0  0  0  0  0  0  0  0  0  0  0
   60.0350   29.5040   48.6370 C   0  0  0  0  0  0  0  0  0  0  0  0
   59.5330   30.7560   48.2750 C   0  0  0  0  0  0  0  0  0  0  0  0
   58.9380   31.5760   49.2360 C   0  0  0  0  0  0  0  0  0  0  0  0
   58.8320   31.1560   50.5740 C   0  0  0  0  0  0  0  0  0  0  0  0
   58.1360   32.0690   51.5600 C   0  0  0  0  0  0  0  0  0  0  0  0
   59.1080   32.9910   52.1810 N   0  0  0  0  0  0  0  0  0  0  0  0
   58.4770   34.2820   52.4630 C   0  0  0  0  0  0  0  0  0  0  0  0
   59.6440   32.4240   53.4320 C   0  0  0  0  0  0  0  0  0  0  0  0
   59.3330   29.8770   50.9380 C   0  0  0  0  0  0  0  0  0  0  0  0
   59.2560   29.3310   52.3400 C   0  0  0  0  0  0  0  0  0  0  0  0
   59.9470   29.0740   49.9630 C   0  0  0  0  0  0  0  0  0  0  0  0
   58.3340   28.1980   46.2050 C   0  0  0  0  0  0  0  0  0  0  0  0
   57.0320   28.0730   45.6990 C   0  0  0  0  0  0  0  0  0  0  0  0
   56.4710   29.0990   44.8060 C   0  0  0  0  0  0  0  0  0  0  0  0
   55.2360   29.3520   44.8240 O   0  0  0  0  0  0  0  0  0  0  0  0
   57.3060   29.7240   43.8290 N   0  0  0  0  0  0  0  0  0  0  0  0
   56.9940   31.0550   43.3200 C   0  0  0  0  0  0  0  0  0  0  0  0
   57.6180   32.1000   44.2120 C   0  0  0  0  0  0  0  0  0  0  0  0
   57.4540   32.0380   45.6040 C   0  0  0  0  0  0  0  0  0  0  0  0
   58.0850   32.9710   46.4320 C   0  0  0  0  0  0  0  0  0  0  0  0
   58.9190   33.9600   45.8840 C   0  0  0  0  0  0  0  0  0  0  0  0
   59.6070   34.9270   46.7600 C   0  0  0  0  0  0  0  0  0  0  0  0
   59.7620   36.1140   46.3840 O   0  0  0  0  0  0  0  0  0  0  0  0
   60.0830   34.5260   48.0470 N   0  0  0  0  0  0  0  0  0  0  0  0
   61.3480   33.8710   48.1900 C   0  0  0  0  0  0  0  0  0  0  0  0
   62.1770   33.7270   47.0690 C   0  0  0  0  0  0  0  0  0  0  0  0
   63.3990   33.0560   47.1790 C   0  0  0  0  0  0  0  0  0  0  0  0
   63.8020   32.5290   48.4090 C   0  0  0  0  0  0  0  0  0  0  0  0
   62.9990   32.6940   49.5360 C   0  0  0  0  0  0  0  0  0  0  0  0
   61.7700   33.3680   49.4400 C   0  0  0  0  0  0  0  0  0  0  0  0
   60.9740   33.5430   50.6180 N   0  0  0  0  0  0  0  0  0  0  0  0
   59.0850   34.0200   44.4920 C   0  0  0  0  0  0  0  0  0  0  0  0
   58.4260   33.1090   43.6620 C   0  0  0  0  0  0  0  0  0  0  0  0
   56.3000   26.9040   45.9590 C   0  0  0  0  0  0  0  0  0  0  0  0
   56.8775   21.2786   43.9198 H   0  0  0  0  0  0  0  0  0  0  0  0
   55.9129   21.3577   42.4066 H   0  0  0  0  0  0  0  0  0  0  0  0
   57.6289   21.8886   42.4066 H   0  0  0  0  0  0  0  0  0  0  0  0
   56.6032   23.9491   42.5565 H   0  0  0  0  0  0  0  0  0  0  0  0
   55.1658   23.2613   43.4406 H   0  0  0  0  0  0  0  0  0  0  0  0
   57.6614   23.0903   44.9817 H   0  0  0  0  0  0  0  0  0  0  0  0
   57.1669   24.7924   44.5504 H   0  0  0  0  0  0  0  0  0  0  0  0
   54.8336   24.1123   45.4262 H   0  0  0  0  0  0  0  0  0  0  0  0
   55.6910   22.7376   46.2140 H   0  0  0  0  0  0  0  0  0  0  0  0
   58.5959   25.2009   47.8331 H   0  0  0  0  0  0  0  0  0  0  0  0
   60.3019   26.8434   48.5480 H   0  0  0  0  0  0  0  0  0  0  0  0
   61.0095   26.8223   46.8878 H   0  0  0  0  0  0  0  0  0  0  0  0
   59.6064   31.0966   47.2316 H   0  0  0  0  0  0  0  0  0  0  0  0
   58.5477   32.5618   48.9431 H   0  0  0  0  0  0  0  0  0  0  0  0
   57.3675   32.6534   51.0329 H   0  0  0  0  0  0  0  0  0  0  0  0
   57.6712   31.4569   52.3469 H   0  0  0  0  0  0  0  0  0  0  0  0
   58.4067   34.4258   53.5513 H   0  0  0  0  0  0  0  0  0  0  0  0
   59.0821   35.0894   52.0248 H   0  0  0  0  0  0  0  0  0  0  0  0
   57.4682   34.3006   52.0248 H   0  0  0  0  0  0  0  0  0  0  0  0
   59.1728   32.9225   54.2919 H   0  0  0  0  0  0  0  0  0  0  0  0
   59.4269   31.3463   53.4687 H   0  0  0  0  0  0  0  0  0  0  0  0
   60.7322   32.5802   53.4687 H   0  0  0  0  0  0  0  0  0  0  0  0
   59.3720   30.1538   53.0608 H   0  0  0  0  0  0  0  0  0  0  0  0
   58.2805   28.8457   52.4914 H   0  0  0  0  0  0  0  0  0  0  0  0
   60.0592   28.5949   52.4914 H   0  0  0  0  0  0  0  0  0  0  0  0
   60.3630   28.0960   50.2466 H   0  0  0  0  0  0  0  0  0  0  0  0
   58.9103   29.1138   46.0071 H   0  0  0  0  0  0  0  0  0  0  0  0
   57.3930   31.1593   42.3002 H   0  0  0  0  0  0  0  0  0  0  0  0
   55.9028   31.1929   43.3057 H   0  0  0  0  0  0  0  0  0  0  0  0
   56.8255   31.2510   46.0462 H   0  0  0  0  0  0  0  0  0  0  0  0
   57.9275   32.9306   47.5199 H   0  0  0  0  0  0  0  0  0  0  0  0
   61.8654   34.1431   46.0996 H   0  0  0  0  0  0  0  0  0  0  0  0
   64.0444   32.9428   46.2955 H   0  0  0  0  0  0  0  0  0  0  0  0
   64.7539   31.9834   48.4877 H   0  0  0  0  0  0  0  0  0  0  0  0
   63.3293   32.2943   50.5061 H   0  0  0  0  0  0  0  0  0  0  0  0
   60.0950   34.1060   50.5850 H   0  0  0  0  0  0  0  0  0  0  0  0
   61.2200   33.0760   51.5170 H   0  0  0  0  0  0  0  0  0  0  0  0
   59.7374   34.7883   44.0516 H   0  0  0  0  0  0  0  0  0  0  0  0
   58.5408   33.1825   42.5705 H   0  0  0  0  0  0  0  0  0  0  0  0
   55.2671   26.8134   45.5916 H   0  0  0  0  0  0  0  0  0  0  0  0
  1  2  1  0
  2  3  1  0
  3  4  1  0
  4  5  1  0
  5  6  1  0
  6  7  2  0
  7  8  1  0
  8  9  1  0
  9 10  1  0
 10 11  1  0
 11 12  2  0
 12 13  1  0
 13 14  2  0
 14 15  1  0
 15 16  1  0
 16 17  1  0
 16 18  1  0
 14 19  1  0
 19 20  1  0
 19 21  2  0
  8 22  2  0
 22 23  1  0
 23 24  1  0
 24 25  2  0
 24 26  1  0
 26 27  1  0
 27 28  1  0
 28 29  2  0
 29 30  1  0
 30 31  2  0
 31 32  1  0
 32 33  2  0
 32 34  1  0
 34 35  1  0
 35 36  2  0
 36 37  1  0
 37 38  2  0
 38 39  1  0
 39 40  2  0
 40 41  1  0
 31 42  1  0
 42 43  2  0
 23 44  2  0
 44  6  1  0
 21 11  1  0
 43 28  1  0
 40 35  1  0
  1 45  1  0
  1 46  1  0
  1 47  1  0
  2 48  1  0
  2 49  1  0
  3 50  1  0
  3 51  1  0
  4 52  1  0
  4 53  1  0
  7 54  1  0
  9 55  1  0
  9 56  1  0
 12 57  1  0
 13 58  1  0
 15 59  1  0
 15 60  1  0
 17 61  1  0
 17 62  1  0
 17 63  1  0
 18 64  1  0
 18 65  1  0
 18 66  1  0
 20 67  1  0
 20 68  1  0
 20 69  1  0
 21 70  1  0
 22 71  1  0
 27 72  1  0
 27 73  1  0
 29 74  1  0
 30 75  1  0
 36 76  1  0
 37 77  1  0
 38 78  1  0
 39 79  1  0
 41 80  1  0
 41 81  1  0
 42 82  1  0
 43 83  1  0
 44 84  1  0
M  CHG  2  26  -1  34  -1
M  END
>  <UniqueID>  (88) 
80

>  <SMILES>  (88) 
CCCCOc1cc(COc2ccc(CN(C)C)c(C)c2)cc(C(=O)[N-]Cc2ccc(C(=O)[N-]c3ccccc3N)cc2)c1

>  <Energy>  (88) 
103.0035060862559

>  <Genealogy>  (88) 
CCCCOc1cc(COc2ccc(CN(C)C)c(C)c2)cc(C(=O)[N-]Cc2ccc(C(=O)[N-]c3ccccc3N)cc2)c1 (protonated)
CCCCOc1cc(COc2ccc(CN(C)C)c(C)c2)cc(C(=O)[N-]Cc2ccc(C(=O)[N-]c3ccccc3N)cc2)c1 (3D coordinates assigned)
CCCCOc1cc(COc2ccc(CN(C)C)c(C)c2)cc(C(=O)[N-]Cc2ccc(C(=O)[N-]c3ccccc3N)cc2)c1 (optimized conformer: 103.0035060862559 kcal/mol)

>  <smiles>  (88) 
CCCCOc1cc(COc2ccc(CN(C)C)c(C)c2)cc(C(=O)NCc2ccc(C(=O)Nc3ccccc3N)cc2)c1

>  <score_type>  (88) 
oracle

>  <origin>  (88) 
adg

>  <m_score__min__energy>  (88) 
-11.84

>  <m_primary>  (88) 
energy

$$$$
88:0
     RDKit          3D

 31 32  0  0  0  0  0  0  0  0999 V2000
   58.3840   27.8010   45.8630 C   0  0  0  0  0  0  0  0  0  0  0  0
   58.5160   29.2950   45.7820 C   0  0  0  0  0  0  0  0  0  0  0  0
   59.1440   30.1040   46.7330 C   0  0  0  0  0  0  0  0  0  0  0  0
   59.7400   29.6770   48.0440 C   0  0  0  0  0  0  0  0  0  0  0  0
   58.7240   29.3610   48.9550 O   0  0  0  0  0  0  0  0  0  0  0  0
   59.0180   31.3980   46.2620 C   0  0  0  0  0  0  0  0  0  0  0  0
   59.4100   32.6150   46.8190 C   0  0  0  0  0  0  0  0  0  0  0  0
   59.1270   33.7910   46.1020 C   0  0  0  0  0  0  0  0  0  0  0  0
   59.6000   35.3480   46.7580 Cl  0  0  0  0  0  0  0  0  0  0  0  0
   58.4590   33.7260   44.8600 C   0  0  0  0  0  0  0  0  0  0  0  0
   58.0690   32.4860   44.3240 C   0  0  0  0  0  0  0  0  0  0  0  0
   58.3670   31.3290   45.0540 C   0  0  0  0  0  0  0  0  0  0  0  0
   58.0730   30.0480   44.7400 N   0  0  0  0  0  0  0  0  0  0  0  0
   57.3490   29.5790   43.5540 C   0  0  0  0  0  0  0  0  0  0  0  0
   55.8580   29.9160   43.6750 C   0  0  0  0  0  0  0  0  0  0  0  0
   55.2750   29.3310   44.8800 N   0  0  0  0  0  0  0  0  0  0  0  0
   58.3567   27.4920   46.9184 H   0  0  0  0  0  0  0  0  0  0  0  0
   57.4547   27.4875   45.3650 H   0  0  0  0  0  0  0  0  0  0  0  0
   59.2440   27.3294   45.3650 H   0  0  0  0  0  0  0  0  0  0  0  0
   60.3736   28.7921   47.8845 H   0  0  0  0  0  0  0  0  0  0  0  0
   60.3439   30.5017   48.4503 H   0  0  0  0  0  0  0  0  0  0  0  0
   59.1000   28.6840   49.5760 H   0  0  0  0  0  0  0  0  0  0  0  0
   59.9251   32.6538   47.7901 H   0  0  0  0  0  0  0  0  0  0  0  0
   58.2420   34.6522   44.3076 H   0  0  0  0  0  0  0  0  0  0  0  0
   57.5448   32.4266   43.3588 H   0  0  0  0  0  0  0  0  0  0  0  0
   57.7608   30.0694   42.6596 H   0  0  0  0  0  0  0  0  0  0  0  0
   57.4645   28.4882   43.4715 H   0  0  0  0  0  0  0  0  0  0  0  0
   55.7403   31.0090   43.7149 H   0  0  0  0  0  0  0  0  0  0  0  0
   55.3369   29.4987   42.8008 H   0  0  0  0  0  0  0  0  0  0  0  0
   54.3210   28.9670   44.6500 H   0  0  0  0  0  0  0  0  0  0  0  0
   55.1650   30.0810   45.6010 H   0  0  0  0  0  0  0  0  0  0  0  0
  1  2  1  0
  2  3  2  0
  3  4  1  0
  4  5  1  0
  3  6  1  0
  6  7  2  0
  7  8  1  0
  8  9  1  0
  8 10  2  0
 10 11  1  0
 11 12  2  0
 12 13  1  0
 13 14  1  0
 14 15  1  0
 15 16  1  0
 13  2  1  0
 12  6  1  0
  1 17  1  0
  1 18  1  0
  1 19  1  0
  4 20  1  0
  4 21  1  0
  5 22  1  0
  7 23  1  0
 10 24  1  0
 11 25  1  0
 14 26  1  0
 14 27  1  0
 15 28  1  0
 15 29  1  0
 16 30  1  0
 16 31  1  0
M  END
>  <UniqueID>  (89) 
81

>  <SMILES>  (89) 
Cc1c(CO)c2cc(Cl)ccc2n1CCN

>  <Energy>  (89) 
59.790782541131264

>  <Genealogy>  (89) 
Cc1c(CO)c2cc(Cl)ccc2n1CCN (3D coordinates assigned)
Cc1c(CO)c2cc(Cl)ccc2n1CCN (optimized conformer: 59.790782541131264 kcal/mol)

>  <smiles>  (89) 
Cc1c(CO)c2cc(Cl)ccc2n1CCN

>  <score_type>  (89) 
oracle

>  <origin>  (89) 
adg

>  <m_score__min__energy>  (89) 
-6.3799999999999999

>  <m_primary>  (89) 
energy

$$$$
89:0
     RDKit          3D

 78 83  0  0  0  0  0  0  0  0999 V2000
   54.6570   23.0160   47.4450 C   0  0  0  0  0  0  0  0  0  0  0  0
   54.6450   23.6350   46.1640 O   0  0  0  0  0  0  0  0  0  0  0  0
   55.6930   24.4140   45.6540 C   0  0  0  0  0  0  0  0  0  0  0  0
   56.2570   24.0510   44.4250 C   0  0  0  0  0  0  0  0  0  0  0  0
   57.3180   24.7840   43.8860 C   0  0  0  0  0  0  0  0  0  0  0  0
   57.8290   25.8860   44.5740 C   0  0  0  0  0  0  0  0  0  0  0  0
   57.2740   26.2630   45.8040 C   0  0  0  0  0  0  0  0  0  0  0  0
   57.8220   27.3780   46.5320 N   0  0  0  0  0  0  0  0  0  0  0  0
   57.3880   28.6570   46.2770 C   0  0  0  0  0  0  0  0  0  0  0  0
   56.3440   28.9510   45.2290 C   0  0  0  0  0  0  0  0  0  0  0  0
   56.9770   29.0660   43.8960 N   0  0  0  0  0  0  0  0  0  0  0  0
   58.4410   29.2460   43.9700 C   0  0  0  0  0  0  0  0  0  0  0  0
   58.8390   30.6940   44.3330 C   0  0  0  0  0  0  0  0  0  0  0  0
   58.0140   31.7370   43.6670 N   0  0  0  0  0  0  0  0  0  0  0  0
   57.2050   32.5090   44.6380 C   0  0  0  0  0  0  0  0  0  0  0  0
   58.0690   33.3900   45.5050 C   0  0  0  0  0  0  0  0  0  0  0  0
   58.6730   34.5350   44.9690 C   0  0  0  0  0  0  0  0  0  0  0  0
   59.4800   35.3450   45.7730 C   0  0  0  0  0  0  0  0  0  0  0  0
   59.6790   35.0220   47.1170 C   0  0  0  0  0  0  0  0  0  0  0  0
   59.0660   33.8940   47.6760 C   0  0  0  0  0  0  0  0  0  0  0  0
   59.2830   33.6230   49.0370 O   0  0  0  0  0  0  0  0  0  0  0  0
   60.3220   34.1930   49.8370 C   0  0  0  0  0  0  0  0  0  0  0  0
   61.6540   33.5550   49.5410 C   0  0  0  0  0  0  0  0  0  0  0  0
   62.1610   33.5420   48.2300 C   0  0  0  0  0  0  0  0  0  0  0  0
   63.3920   32.9390   47.9570 C   0  0  0  0  0  0  0  0  0  0  0  0
   64.1200   32.3360   48.9860 C   0  0  0  0  0  0  0  0  0  0  0  0
   63.6160   32.3310   50.2900 C   0  0  0  0  0  0  0  0  0  0  0  0
   62.3840   32.9330   50.5670 C   0  0  0  0  0  0  0  0  0  0  0  0
   58.2570   33.0790   46.8610 C   0  0  0  0  0  0  0  0  0  0  0  0
   57.2190   31.1920   42.5460 C   0  0  0  0  0  0  0  0  0  0  0  0
   56.3040   30.0400   42.9980 C   0  0  0  0  0  0  0  0  0  0  0  0
   57.9210   29.7020   46.9610 N   0  0  0  0  0  0  0  0  0  0  0  0
   58.8740   29.5230   47.9070 C   0  0  0  0  0  0  0  0  0  0  0  0
   59.4000   30.6250   48.5870 C   0  0  0  0  0  0  0  0  0  0  0  0
   60.3830   30.4430   49.5640 C   0  0  0  0  0  0  0  0  0  0  0  0
   60.8400   29.1540   49.8770 C   0  0  0  0  0  0  0  0  0  0  0  0
   61.9220   28.9640   50.9000 C   0  0  0  0  0  0  0  0  0  0  0  0
   60.3270   28.0480   49.1810 C   0  0  0  0  0  0  0  0  0  0  0  0
   59.3370   28.2260   48.1970 C   0  0  0  0  0  0  0  0  0  0  0  0
   58.7860   27.1500   47.4810 C   0  0  0  0  0  0  0  0  0  0  0  0
   59.1800   25.9720   47.7130 O   0  0  0  0  0  0  0  0  0  0  0  0
   56.1990   25.5370   46.3370 C   0  0  0  0  0  0  0  0  0  0  0  0
   54.6420   23.7901   48.2264 H   0  0  0  0  0  0  0  0  0  0  0  0
   53.7712   22.3723   47.5495 H   0  0  0  0  0  0  0  0  0  0  0  0
   55.5671   22.4071   47.5495 H   0  0  0  0  0  0  0  0  0  0  0  0
   55.8618   23.1817   43.8791 H   0  0  0  0  0  0  0  0  0  0  0  0
   57.7512   24.4920   42.9179 H   0  0  0  0  0  0  0  0  0  0  0  0
   58.6674   26.4584   44.1504 H   0  0  0  0  0  0  0  0  0  0  0  0
   55.6063   28.1352   45.2119 H   0  0  0  0  0  0  0  0  0  0  0  0
   55.8469   29.9013   45.4738 H   0  0  0  0  0  0  0  0  0  0  0  0
   58.8421   28.5667   44.7366 H   0  0  0  0  0  0  0  0  0  0  0  0
   58.8569   29.0231   42.9763 H   0  0  0  0  0  0  0  0  0  0  0  0
   58.7383   30.8171   45.4214 H   0  0  0  0  0  0  0  0  0  0  0  0
   59.8720   30.8358   43.9825 H   0  0  0  0  0  0  0  0  0  0  0  0
   56.4920   33.1398   44.0868 H   0  0  0  0  0  0  0  0  0  0  0  0
   56.6777   31.7966   45.2894 H   0  0  0  0  0  0  0  0  0  0  0  0
   58.5117   34.7971   43.9129 H   0  0  0  0  0  0  0  0  0  0  0  0
   59.9592   36.2385   45.3463 H   0  0  0  0  0  0  0  0  0  0  0  0
   60.3226   35.6589   47.7416 H   0  0  0  0  0  0  0  0  0  0  0  0
   60.3862   35.2707   49.6260 H   0  0  0  0  0  0  0  0  0  0  0  0
   60.0807   34.0171   50.8957 H   0  0  0  0  0  0  0  0  0  0  0  0
   61.5867   34.0082   47.4158 H   0  0  0  0  0  0  0  0  0  0  0  0
   63.7882   32.9391   46.9308 H   0  0  0  0  0  0  0  0  0  0  0  0
   65.0903   31.8649   48.7699 H   0  0  0  0  0  0  0  0  0  0  0  0
   64.1886   31.8534   51.0987 H   0  0  0  0  0  0  0  0  0  0  0  0
   61.9855   32.9191   51.5922 H   0  0  0  0  0  0  0  0  0  0  0  0
   57.7685   32.1918   47.2902 H   0  0  0  0  0  0  0  0  0  0  0  0
   56.5970   31.9967   42.1269 H   0  0  0  0  0  0  0  0  0  0  0  0
   57.9172   30.7974   41.7931 H   0  0  0  0  0  0  0  0  0  0  0  0
   55.4428   30.4683   43.5318 H   0  0  0  0  0  0  0  0  0  0  0  0
   56.0032   29.4916   42.0931 H   0  0  0  0  0  0  0  0  0  0  0  0
   59.0397   31.6376   48.3529 H   0  0  0  0  0  0  0  0  0  0  0  0
   60.8002   31.3145   50.0899 H   0  0  0  0  0  0  0  0  0  0  0  0
   61.4902   29.0398   51.9088 H   0  0  0  0  0  0  0  0  0  0  0  0
   62.3790   27.9719   50.7704 H   0  0  0  0  0  0  0  0  0  0  0  0
   62.6897   29.7411   50.7704 H   0  0  0  0  0  0  0  0  0  0  0  0
   60.7005   27.0381   49.4058 H   0  0  0  0  0  0  0  0  0  0  0  0
   55.7493   25.8458   47.2922 H   0  0  0  0  0  0  0  0  0  0  0  0
  1  2  1  0
  2  3  1  0
  3  4  2  0
  4  5  1  0
  5  6  2  0
  6  7  1  0
  7  8  1  0
  8  9  1  0
  9 10  1  0
 10 11  1  0
 11 12  1  0
 12 13  1  0
 13 14  1  0
 14 15  1  0
 15 16  1  0
 16 17  2  0
 17 18  1  0
 18 19  2  0
 19 20  1  0
 20 21  1  0
 21 22  1  0
 22 23  1  0
 23 24  2  0
 24 25  1  0
 25 26  2  0
 26 27  1  0
 27 28  2  0
 20 29  2  0
 14 30  1  0
 30 31  1  0
  9 32  2  0
 32 33  1  0
 33 34  2  0
 34 35  1  0
 35 36  2  0
 36 37  1  0
 36 38  1  0
 38 39  2  0
 39 40  1  0
 40 41  2  0
  7 42  2  0
 42  3  1  0
 40  8  1  0
 31 11  1  0
 39 33  1  0
 29 16  1  0
 28 23  1  0
  1 43  1  0
  1 44  1  0
  1 45  1  0
  4 46  1  0
  5 47  1  0
  6 48  1  0
 10 49  1  0
 10 50  1  0
 12 51  1  0
 12 52  1  0
 13 53  1  0
 13 54  1  0
 15 55  1  0
 15 56  1  0
 17 57  1  0
 18 58  1  0
 19 59  1  0
 22 60  1  0
 22 61  1  0
 24 62  1  0
 25 63  1  0
 26 64  1  0
 27 65  1  0
 28 66  1  0
 29 67  1  0
 30 68  1  0
 30 69  1  0
 31 70  1  0
 31 71  1  0
 34 72  1  0
 35 73  1  0
 37 74  1  0
 37 75  1  0
 37 76  1  0
 38 77  1  0
 42 78  1  0
M  END
>  <UniqueID>  (90) 
82

>  <SMILES>  (90) 
COc1cccc(-n2c(CN3CCN(Cc4cccc(OCc5ccccc5)c4)CC3)nc3ccc(C)cc3c2=O)c1

>  <Energy>  (90) 
111.10975124619327

>  <Genealogy>  (90) 
COc1cccc(-n2c(CN3CCN(Cc4cccc(OCc5ccccc5)c4)CC3)nc3ccc(C)cc3c2=O)c1 (3D coordinates assigned)
COc1cccc(-n2c(CN3CCN(Cc4cccc(OCc5ccccc5)c4)CC3)nc3ccc(C)cc3c2=O)c1 (nonaromatic ring conformer: 111.10975124619327 kcal/mol)

>  <smiles>  (90) 
COc1cccc(-n2c(CN3CCN(Cc4cccc(OCc5ccccc5)c4)CC3)nc3ccc(C)cc3c2=O)c1

>  <score_type>  (90) 
oracle

>  <origin>  (90) 
adg

>  <m_score__min__energy>  (90) 
-9.8100000000000005

>  <m_primary>  (90) 
energy

$$$$
90:0
     RDKit          3D

 33 34  0  0  0  0  0  0  0  0999 V2000
   59.1890   34.6430   45.1580 C   0  0  0  0  0  0  0  0  0  0  0  0
   58.4880   33.3620   44.8190 C   0  0  0  0  0  0  0  0  0  0  0  0
   58.3410   32.9690   43.4800 C   0  0  0  0  0  0  0  0  0  0  0  0
   57.7190   31.7570   43.1660 C   0  0  0  0  0  0  0  0  0  0  0  0
   57.2470   30.9210   44.1860 C   0  0  0  0  0  0  0  0  0  0  0  0
   56.4590   29.3980   43.7920 S   0  0  0  0  0  0  0  0  0  0  0  0
   57.3100   28.6370   42.8150 O   0  0  0  0  0  0  0  0  0  0  0  0
   55.1140   29.6520   43.1710 O   0  0  0  0  0  0  0  0  0  0  0  0
   56.2470   28.4450   45.2270 N   0  0  0  0  0  0  0  0  0  0  0  0
   57.3370   27.7890   45.8990 C   0  0  0  0  0  0  0  0  0  0  0  0
   58.5370   28.4870   46.1330 C   0  0  0  0  0  0  0  0  0  0  0  0
   59.6380   27.8430   46.6970 C   0  0  0  0  0  0  0  0  0  0  0  0
   59.5640   26.4930   47.0300 C   0  0  0  0  0  0  0  0  0  0  0  0
   58.3830   25.7830   46.8120 C   0  0  0  0  0  0  0  0  0  0  0  0
   57.2530   26.4170   46.2600 C   0  0  0  0  0  0  0  0  0  0  0  0
   56.0000   25.6370   46.1200 C   0  0  0  0  0  0  0  0  0  0  0  0
   54.7440   26.3070   46.0250 N   0  0  0  0  0  0  0  0  0  0  0  0
   56.0320   24.3790   46.0450 O   0  0  0  0  0  0  0  0  0  0  0  0
   57.4140   31.3010   45.5250 C   0  0  0  0  0  0  0  0  0  0  0  0
   58.0350   32.5120   45.8410 C   0  0  0  0  0  0  0  0  0  0  0  0
   59.2479   34.7506   46.2511 H   0  0  0  0  0  0  0  0  0  0  0  0
   60.2046   34.6280   44.7358 H   0  0  0  0  0  0  0  0  0  0  0  0
   58.6289   35.4903   44.7358 H   0  0  0  0  0  0  0  0  0  0  0  0
   58.7166   33.6170   42.6744 H   0  0  0  0  0  0  0  0  0  0  0  0
   57.5998   31.4587   42.1139 H   0  0  0  0  0  0  0  0  0  0  0  0
   55.2770   28.3570   45.6010 H   0  0  0  0  0  0  0  0  0  0  0  0
   58.6070   29.5523   45.8680 H   0  0  0  0  0  0  0  0  0  0  0  0
   60.5671   28.4029   46.8792 H   0  0  0  0  0  0  0  0  0  0  0  0
   60.4376   25.9858   47.4654 H   0  0  0  0  0  0  0  0  0  0  0  0
   58.3338   24.7158   47.0742 H   0  0  0  0  0  0  0  0  0  0  0  0
   54.4690   27.0320   46.7230 H   0  0  0  0  0  0  0  0  0  0  0  0
   57.0547   30.6431   46.3301 H   0  0  0  0  0  0  0  0  0  0  0  0
   58.1696   32.8006   46.8939 H   0  0  0  0  0  0  0  0  0  0  0  0
  1  2  1  0
  2  3  2  0
  3  4  1  0
  4  5  2  0
  5  6  1  0
  6  7  2  0
  6  8  2  0
  6  9  1  0
  9 10  1  0
 10 11  2  0
 11 12  1  0
 12 13  2  0
 13 14  1  0
 14 15  2  0
 15 16  1  0
 16 17  1  0
 16 18  2  0
  5 19  1  0
 19 20  2  0
 20  2  1  0
 15 10  1  0
  1 21  1  0
  1 22  1  0
  1 23  1  0
  3 24  1  0
  4 25  1  0
  9 26  1  0
 11 27  1  0
 12 28  1  0
 13 29  1  0
 14 30  1  0
 17 31  1  0
 19 32  1  0
 20 33  1  0
M  CHG  1  17  -1
M  END
>  <UniqueID>  (91) 
83

>  <SMILES>  (91) 
Cc1ccc(S(=O)(=O)Nc2ccccc2C([NH-])=O)cc1

>  <Energy>  (91) 
40.954424370852315

>  <Genealogy>  (91) 
Cc1ccc(S(=O)(=O)Nc2ccccc2C([NH-])=O)cc1 (protonated)
Cc1ccc(S(=O)(=O)Nc2ccccc2C([NH-])=O)cc1 (3D coordinates assigned)
Cc1ccc(S(=O)(=O)Nc2ccccc2C([NH-])=O)cc1 (optimized conformer: 40.954424370852315 kcal/mol)

>  <smiles>  (91) 
Cc1ccc(S(=O)(=O)Nc2ccccc2C(N)=O)cc1

>  <score_type>  (91) 
oracle

>  <origin>  (91) 
adg

>  <m_score__min__energy>  (91) 
-11.6

>  <m_primary>  (91) 
energy

$$$$
91:0
     RDKit          3D

 45 47  0  0  0  0  0  0  0  0999 V2000
   50.8470   24.3650   44.0180 C   0  0  0  0  0  0  0  0  0  0  0  0
   52.1360   24.4090   44.8310 C   0  0  0  0  0  0  0  0  0  0  0  0
   52.8070   23.1510   44.7840 O   0  0  0  0  0  0  0  0  0  0  0  0
   54.1240   22.9650   45.2180 C   0  0  0  0  0  0  0  0  0  0  0  0
   54.5110   21.8330   45.6210 O   0  0  0  0  0  0  0  0  0  0  0  0
   55.0360   24.0680   45.1740 N   0  0  0  0  0  0  0  0  0  0  0  0
   56.4760   23.9150   45.3850 C   0  0  0  0  0  0  0  0  0  0  0  0
   56.9320   24.6870   46.6290 C   0  0  0  0  0  0  0  0  0  0  0  0
   57.3950   26.0860   46.2790 C   0  0  0  0  0  0  0  0  0  0  0  0
   56.4860   27.0390   45.7770 C   0  0  0  0  0  0  0  0  0  0  0  0
   55.1350   26.7200   45.6580 O   0  0  0  0  0  0  0  0  0  0  0  0
   56.9460   28.3070   45.3830 C   0  0  0  0  0  0  0  0  0  0  0  0
   56.0740   29.2840   44.8730 C   0  0  0  0  0  0  0  0  0  0  0  0
   56.5680   30.5330   44.4830 C   0  0  0  0  0  0  0  0  0  0  0  0
   57.9340   30.8210   44.5820 C   0  0  0  0  0  0  0  0  0  0  0  0
   58.3830   32.0900   44.1900 O   0  0  0  0  0  0  0  0  0  0  0  0
   58.7060   33.1420   45.0600 C   0  0  0  0  0  0  0  0  0  0  0  0
   58.5150   33.0420   46.4520 C   0  0  0  0  0  0  0  0  0  0  0  0
   58.8640   34.1070   47.2870 C   0  0  0  0  0  0  0  0  0  0  0  0
   59.4180   35.2700   46.7450 C   0  0  0  0  0  0  0  0  0  0  0  0
   59.6280   35.3670   45.3670 C   0  0  0  0  0  0  0  0  0  0  0  0
   59.2800   34.3040   44.5290 C   0  0  0  0  0  0  0  0  0  0  0  0
   58.8070   29.8550   45.1110 C   0  0  0  0  0  0  0  0  0  0  0  0
   58.3210   28.6020   45.5020 C   0  0  0  0  0  0  0  0  0  0  0  0
   59.1750   27.6690   45.9930 N   0  0  0  0  0  0  0  0  0  0  0  0
   58.7570   26.4350   46.3760 C   0  0  0  0  0  0  0  0  0  0  0  0
   59.6030   25.6070   46.8080 O   0  0  0  0  0  0  0  0  0  0  0  0
   49.9843   24.3356   44.6998 H   0  0  0  0  0  0  0  0  0  0  0  0
   50.7827   25.2615   43.3838 H   0  0  0  0  0  0  0  0  0  0  0  0
   50.8440   23.4662   43.3838 H   0  0  0  0  0  0  0  0  0  0  0  0
   52.7965   25.1858   44.4183 H   0  0  0  0  0  0  0  0  0  0  0  0
   51.8855   24.6364   45.8777 H   0  0  0  0  0  0  0  0  0  0  0  0
   54.6840   24.9860   44.8220 H   0  0  0  0  0  0  0  0  0  0  0  0
   56.7092   22.8482   45.5176 H   0  0  0  0  0  0  0  0  0  0  0  0
   57.0043   24.3177   44.5083 H   0  0  0  0  0  0  0  0  0  0  0  0
   56.0910   24.7555   47.3347 H   0  0  0  0  0  0  0  0  0  0  0  0
   57.7787   24.1468   47.0777 H   0  0  0  0  0  0  0  0  0  0  0  0
   54.9999   29.0658   44.7803 H   0  0  0  0  0  0  0  0  0  0  0  0
   55.8768   31.2957   44.0950 H   0  0  0  0  0  0  0  0  0  0  0  0
   58.0901   32.1234   46.8829 H   0  0  0  0  0  0  0  0  0  0  0  0
   58.7024   34.0298   48.3723 H   0  0  0  0  0  0  0  0  0  0  0  0
   59.6887   36.1088   47.4031 H   0  0  0  0  0  0  0  0  0  0  0  0
   60.0677   36.2810   44.9413 H   0  0  0  0  0  0  0  0  0  0  0  0
   59.4579   34.3804   43.4462 H   0  0  0  0  0  0  0  0  0  0  0  0
   59.8774   30.0847   45.2183 H   0  0  0  0  0  0  0  0  0  0  0  0
  1  2  1  0
  2  3  1  0
  3  4  1  0
  4  5  2  0
  4  6  1  0
  6  7  1  0
  7  8  1  0
  8  9  1  0
  9 10  2  0
 10 11  1  0
 10 12  1  0
 12 13  2  0
 13 14  1  0
 14 15  2  0
 15 16  1  0
 16 17  1  0
 17 18  2  0
 18 19  1  0
 19 20  2  0
 20 21  1  0
 21 22  2  0
 15 23  1  0
 23 24  2  0
 24 25  1  0
 25 26  1  0
 26 27  2  0
 26  9  1  0
 24 12  1  0
 22 17  1  0
  1 28  1  0
  1 29  1  0
  1 30  1  0
  2 31  1  0
  2 32  1  0
  6 33  1  0
  7 34  1  0
  7 35  1  0
  8 36  1  0
  8 37  1  0
 13 38  1  0
 14 39  1  0
 18 40  1  0
 19 41  1  0
 20 42  1  0
 21 43  1  0
 22 44  1  0
 23 45  1  0
M  CHG  2  11  -1  25  -1
M  END
>  <UniqueID>  (92) 
84

>  <SMILES>  (92) 
CCOC(=O)NCCc1c([O-])c2ccc(Oc3ccccc3)cc2[n-]c1=O

>  <Energy>  (92) 
50.12526333387891

>  <Genealogy>  (92) 
CCOC(=O)NCCc1c([O-])c2ccc(Oc3ccccc3)cc2[n-]c1=O (protonated)
CCOC(=O)NCCc1c([O-])c2ccc(Oc3ccccc3)cc2[n-]c1=O (3D coordinates assigned)
CCOC(=O)NCCc1c([O-])c2ccc(Oc3ccccc3)cc2[n-]c1=O (optimized conformer: 50.12526333387891 kcal/mol)

>  <smiles>  (92) 
CCOC(=O)NCCc1c(O)c2ccc(Oc3ccccc3)cc2[nH]c1=O

>  <score_type>  (92) 
oracle

>  <origin>  (92) 
adg

>  <m_score__min__energy>  (92) 
-12

>  <m_primary>  (92) 
energy

$$$$
92:0
     RDKit          3D

 35 37  0  0  0  0  0  0  0  0999 V2000
   55.1480   29.3090   44.8760 N   0  0  0  0  0  0  0  0  0  0  0  0
   56.5700   30.0920   44.2820 S   0  0  0  0  0  0  0  0  0  0  0  0
   56.4750   31.5700   44.5310 O   0  0  0  0  0  0  0  0  0  0  0  0
   56.6780   29.8460   42.8030 O   0  0  0  0  0  0  0  0  0  0  0  0
   57.9810   29.4480   45.1130 C   0  0  0  0  0  0  0  0  0  0  0  0
   58.9700   28.7770   44.3820 C   0  0  0  0  0  0  0  0  0  0  0  0
   60.0920   28.2580   45.0300 C   0  0  0  0  0  0  0  0  0  0  0  0
   60.2360   28.4080   46.4130 C   0  0  0  0  0  0  0  0  0  0  0  0
   59.2500   29.0800   47.1580 C   0  0  0  0  0  0  0  0  0  0  0  0
   59.3560   29.2580   48.5780 N   0  0  0  0  0  0  0  0  0  0  0  0
   59.7410   30.7500   49.3730 S   0  0  0  0  0  0  0  0  0  0  0  0
   60.7640   30.4840   50.4430 O   0  0  0  0  0  0  0  0  0  0  0  0
   58.4890   31.3210   49.9780 O   0  0  0  0  0  0  0  0  0  0  0  0
   60.4060   31.9140   48.2110 C   0  0  0  0  0  0  0  0  0  0  0  0
   61.8010   32.0370   48.1060 C   0  0  0  0  0  0  0  0  0  0  0  0
   62.3740   32.9420   47.2130 C   0  0  0  0  0  0  0  0  0  0  0  0
   61.5680   33.7430   46.4090 C   0  0  0  0  0  0  0  0  0  0  0  0
   60.1730   33.6450   46.4930 C   0  0  0  0  0  0  0  0  0  0  0  0
   59.3570   34.4520   45.6870 C   0  0  0  0  0  0  0  0  0  0  0  0
   58.0070   34.3530   45.7650 N   0  0  0  0  0  0  0  0  0  0  0  0
   57.4020   33.4840   46.6160 C   0  0  0  0  0  0  0  0  0  0  0  0
   58.1680   32.6590   47.4420 C   0  0  0  0  0  0  0  0  0  0  0  0
   59.5740   32.7260   47.3930 C   0  0  0  0  0  0  0  0  0  0  0  0
   58.1250   29.5940   46.5010 C   0  0  0  0  0  0  0  0  0  0  0  0
   55.4560   28.6380   45.6160 H   0  0  0  0  0  0  0  0  0  0  0  0
   58.8619   28.6588   43.2937 H   0  0  0  0  0  0  0  0  0  0  0  0
   60.8645   27.7299   44.4518 H   0  0  0  0  0  0  0  0  0  0  0  0
   61.1228   27.9994   46.9196 H   0  0  0  0  0  0  0  0  0  0  0  0
   62.4501   31.4114   48.7363 H   0  0  0  0  0  0  0  0  0  0  0  0
   63.4688   33.0233   47.1436 H   0  0  0  0  0  0  0  0  0  0  0  0
   62.0272   34.4541   45.7065 H   0  0  0  0  0  0  0  0  0  0  0  0
   59.8141   35.1684   44.9885 H   0  0  0  0  0  0  0  0  0  0  0  0
   56.3040   33.4300   46.6545 H   0  0  0  0  0  0  0  0  0  0  0  0
   57.6739   31.9575   48.1303 H   0  0  0  0  0  0  0  0  0  0  0  0
   57.3478   30.1165   47.0780 H   0  0  0  0  0  0  0  0  0  0  0  0
  1  2  1  0
  2  3  2  0
  2  4  2  0
  2  5  1  0
  5  6  2  0
  6  7  1  0
  7  8  2  0
  8  9  1  0
  9 10  1  0
 10 11  1  0
 11 12  2  0
 11 13  2  0
 11 14  1  0
 14 15  2  0
 15 16  1  0
 16 17  2  0
 17 18  1  0
 18 19  2  0
 19 20  1  0
 20 21  2  0
 21 22  1  0
 22 23  2  0
  9 24  2  0
 24  5  1  0
 23 14  1  0
 23 18  1  0
  1 25  1  0
  6 26  1  0
  7 27  1  0
  8 28  1  0
 15 29  1  0
 16 30  1  0
 17 31  1  0
 19 32  1  0
 21 33  1  0
 22 34  1  0
 24 35  1  0
M  CHG  2   1  -1  10  -1
M  END
>  <UniqueID>  (93) 
85

>  <SMILES>  (93) 
[NH-]S(=O)(=O)c1cccc([N-]S(=O)(=O)c2cccc3cnccc23)c1

>  <Energy>  (93) 
48.743464763581976

>  <Genealogy>  (93) 
[NH-]S(=O)(=O)c1cccc([N-]S(=O)(=O)c2cccc3cnccc23)c1 (protonated)
[NH-]S(=O)(=O)c1cccc([N-]S(=O)(=O)c2cccc3cnccc23)c1 (3D coordinates assigned)
[NH-]S(=O)(=O)c1cccc([N-]S(=O)(=O)c2cccc3cnccc23)c1 (optimized conformer: 48.743464763581976 kcal/mol)

>  <smiles>  (93) 
NS(=O)(=O)c1cccc(NS(=O)(=O)c2cccc3cnccc23)c1

>  <score_type>  (93) 
oracle

>  <origin>  (93) 
adg

>  <m_score__min__energy>  (93) 
-13.18

>  <m_primary>  (93) 
energy

$$$$
93:0
     RDKit          3D

 71 75  0  0  0  0  0  0  0  0999 V2000
   57.4040   34.4280   44.9670 C   0  0  0  0  0  0  0  0  0  0  0  0
   58.4360   33.4500   45.4060 N   0  0  2  0  0  0  0  0  0  0  0  0
   58.5900   32.3780   44.3590 C   0  0  0  0  0  0  0  0  0  0  0  0
   57.7010   31.1510   44.5420 C   0  0  0  0  0  0  0  0  0  0  0  0
   56.3570   31.2060   44.1210 C   0  0  0  0  0  0  0  0  0  0  0  0
   55.5150   30.1030   44.2740 C   0  0  0  0  0  0  0  0  0  0  0  0
   55.9960   28.9320   44.8600 C   0  0  0  0  0  0  0  0  0  0  0  0
   57.3150   28.8680   45.3100 C   0  0  0  0  0  0  0  0  0  0  0  0
   58.1660   29.9730   45.1750 C   0  0  0  0  0  0  0  0  0  0  0  0
   59.4640   29.8790   45.6800 O   0  0  0  0  0  0  0  0  0  0  0  0
   59.9050   28.8350   46.5070 C   0  0  0  0  0  0  0  0  0  0  0  0
   59.8620   29.0160   47.8950 C   0  0  0  0  0  0  0  0  0  0  0  0
   60.2540   27.9850   48.7570 C   0  0  0  0  0  0  0  0  0  0  0  0
   60.7060   26.7710   48.2350 C   0  0  0  0  0  0  0  0  0  0  0  0
   60.7710   26.5860   46.8510 C   0  0  0  0  0  0  0  0  0  0  0  0
   60.3740   27.6120   45.9860 C   0  0  0  0  0  0  0  0  0  0  0  0
   57.9390   32.8420   46.6800 C   0  0  0  0  0  0  0  0  0  0  0  0
   58.9900   31.9930   47.4240 C   0  0  0  0  0  0  0  0  0  0  0  0
   60.2680   32.8020   47.7670 C   0  0  1  0  0  0  0  0  0  0  0  0
   59.9600   33.9500   48.8040 C   0  0  0  0  0  0  0  0  0  0  0  0
   60.2880   33.6400   50.2890 C   0  0  0  0  0  0  0  0  0  0  0  0
   59.1930   32.8670   50.9890 C   0  0  0  0  0  0  0  0  0  0  0  0
   58.8830   31.5560   50.5870 C   0  0  0  0  0  0  0  0  0  0  0  0
   57.8670   30.8410   51.2300 C   0  0  0  0  0  0  0  0  0  0  0  0
   57.1440   31.4330   52.2690 C   0  0  0  0  0  0  0  0  0  0  0  0
   57.4300   32.7420   52.6620 C   0  0  0  0  0  0  0  0  0  0  0  0
   58.4450   33.4610   52.0220 C   0  0  0  0  0  0  0  0  0  0  0  0
   61.3630   31.8390   48.3670 C   0  0  0  0  0  0  0  0  0  0  0  0
   62.7770   32.0170   47.7740 C   0  0  0  0  0  0  0  0  0  0  0  0
   63.1090   33.4910   47.5120 C   0  0  0  0  0  0  0  0  0  0  0  0
   62.0930   34.1830   46.5770 C   0  0  0  0  0  0  0  0  0  0  0  0
   60.7830   33.3820   46.4120 C   0  0  2  0  0  0  0  0  0  0  0  0
   59.7090   34.1990   45.6440 C   0  0  0  0  0  0  0  0  0  0  0  0
   56.9276   34.8794   45.8498 H   0  0  0  0  0  0  0  0  0  0  0  0
   57.8785   35.2157   44.3634 H   0  0  0  0  0  0  0  0  0  0  0  0
   56.6429   33.9119   44.3634 H   0  0  0  0  0  0  0  0  0  0  0  0
   58.3565   32.8233   43.3806 H   0  0  0  0  0  0  0  0  0  0  0  0
   59.6256   32.0172   44.4450 H   0  0  0  0  0  0  0  0  0  0  0  0
   55.9670   32.1287   43.6666 H   0  0  0  0  0  0  0  0  0  0  0  0
   54.4709   30.1574   43.9320 H   0  0  0  0  0  0  0  0  0  0  0  0
   55.3353   28.0591   44.9673 H   0  0  0  0  0  0  0  0  0  0  0  0
   57.6895   27.9437   45.7740 H   0  0  0  0  0  0  0  0  0  0  0  0
   59.5179   29.9746   48.3106 H   0  0  0  0  0  0  0  0  0  0  0  0
   60.2060   28.1311   49.8462 H   0  0  0  0  0  0  0  0  0  0  0  0
   61.0109   25.9603   48.9131 H   0  0  0  0  0  0  0  0  0  0  0  0
   61.1348   25.6323   46.4411 H   0  0  0  0  0  0  0  0  0  0  0  0
   60.4280   27.4638   44.8974 H   0  0  0  0  0  0  0  0  0  0  0  0
   57.6157   33.6544   47.3475 H   0  0  0  0  0  0  0  0  0  0  0  0
   57.1172   32.1632   46.4083 H   0  0  0  0  0  0  0  0  0  0  0  0
   58.5459   31.6208   48.3590 H   0  0  0  0  0  0  0  0  0  0  0  0
   59.2842   31.1663   46.7606 H   0  0  0  0  0  0  0  0  0  0  0  0
   60.5443   34.8340   48.5090 H   0  0  0  0  0  0  0  0  0  0  0  0
   58.8701   34.0940   48.7678 H   0  0  0  0  0  0  0  0  0  0  0  0
   61.2140   33.0475   50.3268 H   0  0  0  0  0  0  0  0  0  0  0  0
   60.3941   34.6032   50.8096 H   0  0  0  0  0  0  0  0  0  0  0  0
   59.4424   31.0899   49.7624 H   0  0  0  0  0  0  0  0  0  0  0  0
   57.6370   29.8117   50.9174 H   0  0  0  0  0  0  0  0  0  0  0  0
   56.3492   30.8676   52.7775 H   0  0  0  0  0  0  0  0  0  0  0  0
   56.8562   33.2086   53.4762 H   0  0  0  0  0  0  0  0  0  0  0  0
   58.6593   34.4957   52.3278 H   0  0  0  0  0  0  0  0  0  0  0  0
   61.4211   32.0199   49.4505 H   0  0  0  0  0  0  0  0  0  0  0  0
   61.0477   30.8160   48.1139 H   0  0  0  0  0  0  0  0  0  0  0  0
   63.5129   31.6076   48.4817 H   0  0  0  0  0  0  0  0  0  0  0  0
   62.8112   31.4849   46.8119 H   0  0  0  0  0  0  0  0  0  0  0  0
   63.1191   34.0241   48.4741 H   0  0  0  0  0  0  0  0  0  0  0  0
   64.0890   33.5233   47.0134 H   0  0  0  0  0  0  0  0  0  0  0  0
   61.8495   35.1714   46.9939 H   0  0  0  0  0  0  0  0  0  0  0  0
   62.5591   34.2602   45.5836 H   0  0  0  0  0  0  0  0  0  0  0  0
   61.0086   32.5054   45.7870 H   0  0  0  0  0  0  0  0  0  0  0  0
   59.4763   35.1014   46.2284 H   0  0  0  0  0  0  0  0  0  0  0  0
   60.1316   34.4343   44.6560 H   0  0  0  0  0  0  0  0  0  0  0  0
  2  1  1  6
  2  3  1  0
  3  4  1  0
  4  5  2  0
  5  6  1  0
  6  7  2  0
  7  8  1  0
  8  9  2  0
  9 10  1  0
 10 11  1  0
 11 12  2  0
 12 13  1  0
 13 14  2  0
 14 15  1  0
 15 16  2  0
  2 17  1  0
 17 18  1  0
 18 19  1  0
 19 20  1  1
 20 21  1  0
 21 22  1  0
 22 23  2  0
 23 24  1  0
 24 25  2  0
 25 26  1  0
 26 27  2  0
 19 28  1  0
 28 29  1  0
 29 30  1  0
 30 31  1  0
 31 32  1  0
 32 33  1  0
 33  2  1  0
  9  4  1  0
 16 11  1  0
 32 19  1  0
 27 22  1  0
  1 34  1  0
  1 35  1  0
  1 36  1  0
  3 37  1  0
  3 38  1  0
  5 39  1  0
  6 40  1  0
  7 41  1  0
  8 42  1  0
 12 43  1  0
 13 44  1  0
 14 45  1  0
 15 46  1  0
 16 47  1  0
 17 48  1  0
 17 49  1  0
 18 50  1  0
 18 51  1  0
 20 52  1  0
 20 53  1  0
 21 54  1  0
 21 55  1  0
 23 56  1  0
 24 57  1  0
 25 58  1  0
 26 59  1  0
 27 60  1  0
 28 61  1  0
 28 62  1  0
 29 63  1  0
 29 64  1  0
 30 65  1  0
 30 66  1  0
 31 67  1  0
 31 68  1  0
 32 69  1  6
 33 70  1  0
 33 71  1  0
M  CHG  1   2   1
M  END
>  <UniqueID>  (94) 
86

>  <SMILES>  (94) 
C[N@+]1(Cc2ccccc2Oc2ccccc2)CC[C@@]2(CCc3ccccc3)CCCCC2C1

>  <Energy>  (94) 
104.92399908359725

>  <Genealogy>  (94) 
C[N@+]1(Cc2ccccc2Oc2ccccc2)CC[C@@]2(CCc3ccccc3)CCCCC2C1 (chirality)
C[N@+]1(Cc2ccccc2Oc2ccccc2)CC[C@@]2(CCc3ccccc3)CCCCC2C1 (3D coordinates assigned)
C[N@+]1(Cc2ccccc2Oc2ccccc2)CC[C@@]2(CCc3ccccc3)CCCCC2C1 (nonaromatic ring conformer: 104.92399908359725 kcal/mol)

>  <smiles>  (94) 
C[N+]1(Cc2ccccc2Oc2ccccc2)CCC2(CCc3ccccc3)CCCCC2C1

>  <score_type>  (94) 
oracle

>  <origin>  (94) 
adg

>  <m_score__min__energy>  (94) 
-8.9000000000000004

>  <m_primary>  (94) 
energy

$$$$
