0:0
     RDKit          3D

 36 37  0  0  0  0  0  0  0  0999 V2000
   57.4210   26.5150   45.4570 C   0  0  0  0  0  0  0  0  0  0  0  0
   56.7900   27.6500   46.0380 O   0  0  0  0  0  0  0  0  0  0  0  0
   57.0370   28.9800   45.6600 C   0  0  0  0  0  0  0  0  0  0  0  0
   58.2040   29.6680   46.0460 C   0  0  0  0  0  0  0  0  0  0  0  0
   58.4180   31.0000   45.6450 C   0  0  0  0  0  0  0  0  0  0  0  0
   59.6430   31.7310   46.0520 C   0  0  0  0  0  0  0  0  0  0  0  0
   59.6870   32.9860   45.9300 O   0  0  0  0  0  0  0  0  0  0  0  0
   60.7970   31.0230   46.5360 N   0  0  0  0  0  0  0  0  0  0  0  0
   61.8370   31.6300   47.3220 C   0  0  0  0  0  0  0  0  0  0  0  0
   62.5740   32.7280   46.8430 C   0  0  0  0  0  0  0  0  0  0  0  0
   63.5640   33.3150   47.6370 C   0  0  0  0  0  0  0  0  0  0  0  0
   63.8130   32.8380   48.9280 C   0  0  0  0  0  0  0  0  0  0  0  0
   64.8570   33.4470   49.7020 N   0  0  0  0  0  0  0  0  0  0  0  0
   66.0210   32.7970   50.2300 C   0  0  0  0  0  0  0  0  0  0  0  0
   67.1600   33.5660   50.8280 C   0  0  0  0  0  0  0  0  0  0  0  0
   66.1040   31.5430   50.1550 O   0  0  0  0  0  0  0  0  0  0  0  0
   63.0860   31.7360   49.4070 C   0  0  0  0  0  0  0  0  0  0  0  0
   62.0940   31.1480   48.6150 C   0  0  0  0  0  0  0  0  0  0  0  0
   57.4400   31.6420   44.8660 C   0  0  0  0  0  0  0  0  0  0  0  0
   56.2840   30.9620   44.4820 C   0  0  0  0  0  0  0  0  0  0  0  0
   56.0810   29.6380   44.8740 C   0  0  0  0  0  0  0  0  0  0  0  0
   54.9240   28.9750   44.4820 O   0  0  0  0  0  0  0  0  0  0  0  0
   57.7894   25.8523   46.2539 H   0  0  0  0  0  0  0  0  0  0  0  0
   56.6957   25.9711   44.8339 H   0  0  0  0  0  0  0  0  0  0  0  0
   58.2657   26.8440   44.8339 H   0  0  0  0  0  0  0  0  0  0  0  0
   58.9557   29.1590   46.6672 H   0  0  0  0  0  0  0  0  0  0  0  0
   60.9460   30.0420   46.2050 H   0  0  0  0  0  0  0  0  0  0  0  0
   62.3705   33.1271   45.8384 H   0  0  0  0  0  0  0  0  0  0  0  0
   64.1511   34.1579   47.2435 H   0  0  0  0  0  0  0  0  0  0  0  0
   67.0957   33.5226   51.9253 H   0  0  0  0  0  0  0  0  0  0  0  0
   68.1127   33.1255   50.4988 H   0  0  0  0  0  0  0  0  0  0  0  0
   67.1076   34.6143   50.4988 H   0  0  0  0  0  0  0  0  0  0  0  0
   63.2974   31.3337   50.4087 H   0  0  0  0  0  0  0  0  0  0  0  0
   61.5113   30.3020   49.0083 H   0  0  0  0  0  0  0  0  0  0  0  0
   57.5870   32.6874   44.5571 H   0  0  0  0  0  0  0  0  0  0  0  0
   55.5282   31.4722   43.8668 H   0  0  0  0  0  0  0  0  0  0  0  0
  1  2  1  0
  2  3  1  0
  3  4  2  0
  4  5  1  0
  5  6  1  0
  6  7  2  0
  6  8  1  0
  8  9  1  0
  9 10  2  0
 10 11  1  0
 11 12  2  0
 12 13  1  0
 13 14  1  0
 14 15  1  0
 14 16  2  0
 12 17  1  0
 17 18  2  0
  5 19  2  0
 19 20  1  0
 20 21  2  0
 21 22  1  0
 21  3  1  0
 18  9  1  0
  1 23  1  0
  1 24  1  0
  1 25  1  0
  4 26  1  0
  8 27  1  0
 10 28  1  0
 11 29  1  0
 15 30  1  0
 15 31  1  0
 15 32  1  0
 17 33  1  0
 18 34  1  0
 19 35  1  0
 20 36  1  0
M  CHG  2  13  -1  22  -1
M  END
>  <UniqueID>  (1) 
1

>  <SMILES>  (1) 
COc1cc(C(=O)Nc2ccc([N-]C(C)=O)cc2)ccc1[O-]

>  <Energy>  (1) 
45.010669896420985

>  <Genealogy>  (1) 
COc1cc(C(=O)Nc2ccc([N-]C(C)=O)cc2)ccc1[O-] (protonated)
COc1cc(C(=O)Nc2ccc([N-]C(C)=O)cc2)ccc1[O-] (3D coordinates assigned)
COc1cc(C(=O)Nc2ccc([N-]C(C)=O)cc2)ccc1[O-] (optimized conformer: 45.010669896420985 kcal/mol)

>  <smiles>  (1) 
COc1cc(C(=O)Nc2ccc(NC(C)=O)cc2)ccc1O

>  <score_type>  (1) 
oracle

>  <origin>  (1) 
adg

>  <m_score__min__energy>  (1) 
-10.050000000000001

>  <m_primary>  (1) 
energy

$$$$
1:0
     RDKit          3D

 23 25  0  0  0  0  0  0  0  0999 V2000
   57.0190   31.0100   45.1890 O   0  0  0  0  0  0  0  0  0  0  0  0
   57.7520   32.0130   45.4010 C   0  0  0  0  0  0  0  0  0  0  0  0
   57.2610   33.3550   45.0440 C   0  0  0  0  0  0  0  0  0  0  0  0
   58.0100   34.4420   45.2530 C   0  0  0  0  0  0  0  0  0  0  0  0
   59.3560   34.3390   45.8470 C   0  0  0  0  0  0  0  0  0  0  0  0
   60.0290   35.3880   46.0250 O   0  0  0  0  0  0  0  0  0  0  0  0
   59.8940   33.0060   46.2220 C   0  0  0  0  0  0  0  0  0  0  0  0
   59.0980   31.8540   46.0010 C   0  0  0  0  0  0  0  0  0  0  0  0
   59.5920   30.5760   46.3510 C   0  0  0  0  0  0  0  0  0  0  0  0
   60.8670   30.4380   46.9180 C   0  0  0  0  0  0  0  0  0  0  0  0
   61.6280   31.5850   47.1250 C   0  0  0  0  0  0  0  0  0  0  0  0
   61.1690   32.8300   46.7930 C   0  0  0  0  0  0  0  0  0  0  0  0
   62.2110   33.8410   47.1360 C   0  0  0  0  0  0  0  0  0  0  0  0
   63.3540   32.9810   47.7240 C   0  0  0  0  0  0  0  0  0  0  0  0
   62.8920   31.6330   47.6680 O   0  0  0  0  0  0  0  0  0  0  0  0
   56.2614   33.4644   44.5980 H   0  0  0  0  0  0  0  0  0  0  0  0
   57.6155   35.4311   44.9771 H   0  0  0  0  0  0  0  0  0  0  0  0
   58.9719   29.6842   46.1773 H   0  0  0  0  0  0  0  0  0  0  0  0
   61.2567   29.4467   47.1927 H   0  0  0  0  0  0  0  0  0  0  0  0
   62.5458   34.3829   46.2392 H   0  0  0  0  0  0  0  0  0  0  0  0
   61.8509   34.6146   47.8302 H   0  0  0  0  0  0  0  0  0  0  0  0
   64.2690   33.0979   47.1247 H   0  0  0  0  0  0  0  0  0  0  0  0
   63.6007   33.2828   48.7526 H   0  0  0  0  0  0  0  0  0  0  0  0
  1  2  2  0
  2  3  1  0
  3  4  2  0
  4  5  1  0
  5  6  2  0
  5  7  1  0
  7  8  2  0
  8  9  1  0
  9 10  2  0
 10 11  1  0
 11 12  2  0
 12 13  1  0
 13 14  1  0
 14 15  1  0
  8  2  1  0
 15 11  1  0
 12  7  1  0
  3 16  1  0
  4 17  1  0
  9 18  1  0
 10 19  1  0
 13 20  1  0
 13 21  1  0
 14 22  1  0
 14 23  1  0
M  END
>  <UniqueID>  (2) 
2

>  <SMILES>  (2) 
O=C1C=CC(=O)c2c1ccc1c2CCO1

>  <Energy>  (2) 
42.22425163336723

>  <Genealogy>  (2) 
O=C1C=CC(=O)c2c1ccc1c2CCO1 (3D coordinates assigned)
O=C1C=CC(=O)c2c1ccc1c2CCO1 (nonaromatic ring conformer: 42.22425163336723 kcal/mol)

>  <smiles>  (2) 
O=C1C=CC(=O)c2c1ccc1c2CCO1

>  <score_type>  (2) 
oracle

>  <origin>  (2) 
adg

>  <m_score__min__energy>  (2) 
-6.29

>  <m_primary>  (2) 
energy

$$$$
2:0
     RDKit          3D

 50 53  0  0  0  0  0  0  0  0999 V2000
   58.7661   34.8740   45.9458 H   0  0  0  0  0  0  0  0  0  0  0  0
   59.1050   33.9200   46.3760 C   0  0  0  0  0  0  0  0  0  0  0  0
   58.3110   32.8510   46.2040 C   0  0  0  0  0  0  0  0  0  0  0  0
   57.7630   32.2720   47.3020 F   0  0  0  0  0  0  0  0  0  0  0  0
   58.0010   32.2510   44.8910 C   0  0  0  0  0  0  0  0  0  0  0  0
   58.0760   33.0630   43.7470 C   0  0  0  0  0  0  0  0  0  0  0  0
   58.3883   34.1134   43.8422 H   0  0  0  0  0  0  0  0  0  0  0  0
   57.7570   32.5460   42.4910 C   0  0  0  0  0  0  0  0  0  0  0  0
   57.8439   33.1801   41.5964 H   0  0  0  0  0  0  0  0  0  0  0  0
   57.3280   31.2250   42.3710 C   0  0  0  0  0  0  0  0  0  0  0  0
   57.0831   30.8163   41.3796 H   0  0  0  0  0  0  0  0  0  0  0  0
   57.2080   30.4180   43.5060 C   0  0  0  0  0  0  0  0  0  0  0  0
   56.8481   29.3836   43.4039 H   0  0  0  0  0  0  0  0  0  0  0  0
   57.5440   30.9180   44.7800 C   0  0  0  0  0  0  0  0  0  0  0  0
   57.4020   30.1450   45.9490 O   0  0  0  0  0  0  0  0  0  0  0  0
   58.3350   29.1780   46.4360 C   0  0  0  0  0  0  0  0  0  0  0  0
   57.7883   28.3771   46.9553 H   0  0  0  0  0  0  0  0  0  0  0  0
   58.8955   28.7645   45.5846 H   0  0  0  0  0  0  0  0  0  0  0  0
   59.3000   29.8130   47.3880 C   0  0  0  0  0  0  0  0  0  0  0  0
   60.5940   30.0580   47.0990 N   0  0  0  0  0  0  0  0  0  0  0  0
   61.1480   30.4830   48.2250 N   0  0  0  0  0  0  0  0  0  0  0  0
   62.1640   30.7070   48.3290 H   0  0  0  0  0  0  0  0  0  0  0  0
   60.2660   30.5130   49.2090 N   0  0  0  0  0  0  0  0  0  0  0  0
   60.5940   30.7210   50.6160 C   0  0  0  0  0  0  0  0  0  0  0  0
   60.5291   29.7632   51.1530 H   0  0  0  0  0  0  0  0  0  0  0  0
   61.6158   31.1197   50.6989 H   0  0  0  0  0  0  0  0  0  0  0  0
   59.6230   31.7010   51.2190 C   0  0  0  0  0  0  0  0  0  0  0  0
   60.0650   32.9620   51.6670 C   0  0  0  0  0  0  0  0  0  0  0  0
   61.1198   33.2486   51.5433 H   0  0  0  0  0  0  0  0  0  0  0  0
   59.1680   33.8500   52.2680 C   0  0  0  0  0  0  0  0  0  0  0  0
   59.5158   34.8369   52.6070 H   0  0  0  0  0  0  0  0  0  0  0  0
   57.8260   33.4840   52.4390 C   0  0  0  0  0  0  0  0  0  0  0  0
   57.1222   34.1833   52.9141 H   0  0  0  0  0  0  0  0  0  0  0  0
   57.3790   32.2270   52.0050 C   0  0  0  0  0  0  0  0  0  0  0  0
   56.3258   31.9403   52.1411 H   0  0  0  0  0  0  0  0  0  0  0  0
   58.2750   31.3370   51.3980 C   0  0  0  0  0  0  0  0  0  0  0  0
   57.9239   30.3507   51.0603 H   0  0  0  0  0  0  0  0  0  0  0  0
   59.0840   30.0970   48.7220 C   0  0  0  0  0  0  0  0  0  0  0  0
   58.1373   30.0021   49.2740 H   0  0  0  0  0  0  0  0  0  0  0  0
   60.3980   33.9220   47.0960 C   0  0  0  0  0  0  0  0  0  0  0  0
   61.5460   33.4850   46.4150 C   0  0  0  0  0  0  0  0  0  0  0  0
   61.4811   33.2203   45.3493 H   0  0  0  0  0  0  0  0  0  0  0  0
   62.7710   33.3840   47.0820 C   0  0  0  0  0  0  0  0  0  0  0  0
   63.6652   33.0433   46.5394 H   0  0  0  0  0  0  0  0  0  0  0  0
   62.8610   33.7150   48.4360 C   0  0  0  0  0  0  0  0  0  0  0  0
   64.0500   33.6150   49.0820 F   0  0  0  0  0  0  0  0  0  0  0  0
   61.7190   34.1260   49.1310 C   0  0  0  0  0  0  0  0  0  0  0  0
   61.7894   34.3788   50.1992 H   0  0  0  0  0  0  0  0  0  0  0  0
   60.4870   34.2170   48.4730 C   0  0  0  0  0  0  0  0  0  0  0  0
   59.3810   34.5170   49.1990 F   0  0  0  0  0  0  0  0  0  0  0  0
  1  2  1  0
  2  3  2  0
  3  4  1  0
  3  5  1  0
  5  6  2  0
  6  7  1  0
  6  8  1  0
  8  9  1  0
  8 10  2  0
 10 11  1  0
 10 12  1  0
 12 13  1  0
 12 14  2  0
 14 15  1  0
 15 16  1  0
 16 17  1  0
 16 18  1  0
 16 19  1  0
 19 20  1  0
 20 21  2  0
 21 22  1  0
 21 23  1  0
 23 24  1  0
 24 25  1  0
 24 26  1  0
 24 27  1  0
 27 28  2  0
 28 29  1  0
 28 30  1  0
 30 31  1  0
 30 32  2  0
 32 33  1  0
 32 34  1  0
 34 35  1  0
 34 36  2  0
 36 37  1  0
 23 38  1  0
 38 39  1  0
  2 40  1  0
 40 41  2  0
 41 42  1  0
 41 43  1  0
 43 44  1  0
 43 45  2  0
 45 46  1  0
 45 47  1  0
 47 48  1  0
 47 49  2  0
 49 50  1  0
 14  5  1  0
 38 19  2  0
 49 40  1  0
 36 27  1  0
M  CHG  1  21   1
M  END
>  <UniqueID>  (3) 
3

>  <SMILES>  (3) 
F/C(=C/c1ccc(F)cc1F)c1ccccc1OCc1cn(Cc2ccccc2)[nH+]n1

>  <Energy>  (3) 
94.70023679973501

>  <Genealogy>  (3) 
FC(=Cc1ccc(F)cc1F)c1ccccc1OCc1cn(Cc2ccccc2)[nH+]n1 (protonated)
F/C(=C/c1ccc(F)cc1F)c1ccccc1OCc1cn(Cc2ccccc2)[nH+]n1 (cis-trans isomerization)
F/C(=C/c1ccc(F)cc1F)c1ccccc1OCc1cn(Cc2ccccc2)[nH+]n1 (3D coordinates assigned)
F/C(=C/c1ccc(F)cc1F)c1ccccc1OCc1cn(Cc2ccccc2)[nH+]n1 (optimized conformer: 94.70023679973501 kcal/mol)

>  <smiles>  (3) 
FC(=Cc1ccc(F)cc1F)c1ccccc1OCc1cn(Cc2ccccc2)nn1

>  <score_type>  (3) 
oracle

>  <origin>  (3) 
adg

>  <m_score__min__energy>  (3) 
-7.7000000000000002

>  <m_primary>  (3) 
energy

$$$$
3:0
     RDKit          3D

 65 68  0  0  0  0  0  0  0  0999 V2000
   62.6890   29.9770   51.0060 C   0  0  0  0  0  0  0  0  0  0  0  0
   63.2420   30.9330   50.1060 O   0  0  0  0  0  0  0  0  0  0  0  0
   64.0700   32.0010   50.4900 C   0  0  0  0  0  0  0  0  0  0  0  0
   65.4630   31.9840   50.2720 C   0  0  0  0  0  0  0  0  0  0  0  0
   66.2500   33.0710   50.6640 C   0  0  0  0  0  0  0  0  0  0  0  0
   65.6600   34.1840   51.2650 C   0  0  0  0  0  0  0  0  0  0  0  0
   64.2810   34.2100   51.4830 C   0  0  0  0  0  0  0  0  0  0  0  0
   63.4850   33.1110   51.1190 C   0  0  0  0  0  0  0  0  0  0  0  0
   62.0640   33.1440   51.3070 N   0  0  0  0  0  0  0  0  0  0  0  0
   61.0910   33.4260   50.2910 C   0  0  0  0  0  0  0  0  0  0  0  0
   60.1710   34.2480   50.5490 O   0  0  0  0  0  0  0  0  0  0  0  0
   61.2290   32.8850   48.8900 C   0  0  2  0  0  0  0  0  0  0  0  0
   61.0620   34.0240   47.8820 C   0  0  0  0  0  0  0  0  0  0  0  0
   60.2350   31.8840   48.6650 O   0  0  0  0  0  0  0  0  0  0  0  0
   58.8890   32.0380   49.0180 C   0  0  0  0  0  0  0  0  0  0  0  0
   58.0720   32.5790   48.2220 O   0  0  0  0  0  0  0  0  0  0  0  0
   58.4090   31.5360   50.3520 C   0  0  0  0  0  0  0  0  0  0  0  0
   57.9390   32.7060   51.2240 C   0  0  0  0  0  0  0  0  0  0  0  0
   57.3910   32.1850   52.5630 C   0  0  0  0  0  0  0  0  0  0  0  0
   58.2280   31.1300   53.1920 N   0  0  0  0  0  0  0  0  0  0  0  0
   57.3700   29.6120   53.3500 S   0  0  0  0  0  0  0  0  0  0  0  0
   57.9340   28.8140   54.4930 O   0  0  0  0  0  0  0  0  0  0  0  0
   57.4970   28.8100   52.0860 O   0  0  0  0  0  0  0  0  0  0  0  0
   55.6720   29.9480   53.6820 C   0  0  0  0  0  0  0  0  0  0  0  0
   55.0930   29.5700   54.8960 C   0  0  0  0  0  0  0  0  0  0  0  0
   53.7410   29.8180   55.1410 C   0  0  0  0  0  0  0  0  0  0  0  0
   52.9310   30.4550   54.1720 C   0  0  0  0  0  0  0  0  0  0  0  0
   53.5290   30.8400   52.9410 C   0  0  0  0  0  0  0  0  0  0  0  0
   54.8940   30.5820   52.7110 C   0  0  0  0  0  0  0  0  0  0  0  0
   52.7400   31.4750   51.9650 C   0  0  0  0  0  0  0  0  0  0  0  0
   53.2360   31.8320   50.8610 O   0  0  0  0  0  0  0  0  0  0  0  0
   51.3910   31.7150   52.2190 C   0  0  0  0  0  0  0  0  0  0  0  0
   50.5960   32.3430   51.2670 O   0  0  0  0  0  0  0  0  0  0  0  0
   50.8350   31.3220   53.4350 C   0  0  0  0  0  0  0  0  0  0  0  0
   51.5910   30.7030   54.3930 N   0  0  0  0  0  0  0  0  0  0  0  0
   50.9320   30.3120   55.6510 C   0  0  0  0  0  0  0  0  0  0  0  0
   59.5610   30.9510   52.5820 C   0  0  0  0  0  0  0  0  0  0  0  0
   59.5040   30.7040   51.0610 C   0  0  0  0  0  0  0  0  0  0  0  0
   62.8747   30.2981   52.0416 H   0  0  0  0  0  0  0  0  0  0  0  0
   61.6052   29.8971   50.8357 H   0  0  0  0  0  0  0  0  0  0  0  0
   63.1601   28.9977   50.8357 H   0  0  0  0  0  0  0  0  0  0  0  0
   65.9321   31.1125   49.7919 H   0  0  0  0  0  0  0  0  0  0  0  0
   67.3372   33.0490   50.4983 H   0  0  0  0  0  0  0  0  0  0  0  0
   66.2810   35.0403   51.5668 H   0  0  0  0  0  0  0  0  0  0  0  0
   63.8158   35.0949   51.9418 H   0  0  0  0  0  0  0  0  0  0  0  0
   62.2260   32.4375   48.7647 H   0  0  0  0  0  0  0  0  0  0  0  0
   60.9229   34.9729   48.4207 H   0  0  0  0  0  0  0  0  0  0  0  0
   61.9602   34.0892   47.2503 H   0  0  0  0  0  0  0  0  0  0  0  0
   60.1829   33.8287   47.2503 H   0  0  0  0  0  0  0  0  0  0  0  0
   57.5502   30.8692   50.1850 H   0  0  0  0  0  0  0  0  0  0  0  0
   58.7873   33.3794   51.4161 H   0  0  0  0  0  0  0  0  0  0  0  0
   57.1404   33.2482   50.6964 H   0  0  0  0  0  0  0  0  0  0  0  0
   57.3212   33.0324   53.2609 H   0  0  0  0  0  0  0  0  0  0  0  0
   56.4131   31.7288   52.3495 H   0  0  0  0  0  0  0  0  0  0  0  0
   55.7058   29.0742   55.6632 H   0  0  0  0  0  0  0  0  0  0  0  0
   53.2994   29.5136   56.1014 H   0  0  0  0  0  0  0  0  0  0  0  0
   55.3520   30.8828   51.7572 H   0  0  0  0  0  0  0  0  0  0  0  0
   49.7691   31.5129   53.6282 H   0  0  0  0  0  0  0  0  0  0  0  0
   51.5297   30.6666   56.5036 H   0  0  0  0  0  0  0  0  0  0  0  0
   49.9288   30.7611   55.6944 H   0  0  0  0  0  0  0  0  0  0  0  0
   50.8454   29.2163   55.6944 H   0  0  0  0  0  0  0  0  0  0  0  0
   60.1549   31.8582   52.7670 H   0  0  0  0  0  0  0  0  0  0  0  0
   60.0141   30.0601   53.0414 H   0  0  0  0  0  0  0  0  0  0  0  0
   60.4798   30.9670   50.6267 H   0  0  0  0  0  0  0  0  0  0  0  0
   59.2589   29.6424   50.9099 H   0  0  0  0  0  0  0  0  0  0  0  0
  1  2  1  0
  2  3  1  0
  3  4  2  0
  4  5  1  0
  5  6  2  0
  6  7  1  0
  7  8  2  0
  8  9  1  0
  9 10  1  0
 10 11  2  0
 10 12  1  0
 12 13  1  0
 12 14  1  0
 14 15  1  0
 15 16  2  0
 15 17  1  0
 17 18  1  0
 18 19  1  0
 19 20  1  0
 20 21  1  0
 21 22  2  0
 21 23  2  0
 21 24  1  0
 24 25  2  0
 25 26  1  0
 26 27  2  0
 27 28  1  0
 28 29  2  0
 28 30  1  0
 30 31  2  0
 30 32  1  0
 32 33  1  0
 32 34  2  0
 34 35  1  0
 35 36  1  0
 20 37  1  0
 37 38  1  0
  8  3  1  0
 38 17  1  0
 29 24  1  0
 35 27  1  0
  1 39  1  0
  1 40  1  0
  1 41  1  0
  4 42  1  0
  5 43  1  0
  6 44  1  0
  7 45  1  0
 12 46  1  1
 13 47  1  0
 13 48  1  0
 13 49  1  0
 17 50  1  0
 18 51  1  0
 18 52  1  0
 19 53  1  0
 19 54  1  0
 25 55  1  0
 26 56  1  0
 29 57  1  0
 34 58  1  0
 36 59  1  0
 36 60  1  0
 36 61  1  0
 37 62  1  0
 37 63  1  0
 38 64  1  0
 38 65  1  0
M  CHG  2   9  -1  33  -1
M  END
>  <UniqueID>  (4) 
4

>  <SMILES>  (4) 
COc1ccccc1[N-]C(=O)[C@H](C)OC(=O)C1CCN(S(=O)(=O)c2ccc3c(c2)c(=O)c([O-])cn3C)CC1

>  <Energy>  (4) 
85.80241751857905

>  <Genealogy>  (4) 
COc1ccccc1[N-]C(=O)C(C)OC(=O)C1CCN(S(=O)(=O)c2ccc3c(c2)c(=O)c([O-])cn3C)CC1 (protonated)
COc1ccccc1[N-]C(=O)[C@H](C)OC(=O)C1CCN(S(=O)(=O)c2ccc3c(c2)c(=O)c([O-])cn3C)CC1 (chirality)
COc1ccccc1[N-]C(=O)[C@H](C)OC(=O)C1CCN(S(=O)(=O)c2ccc3c(c2)c(=O)c([O-])cn3C)CC1 (3D coordinates assigned)
COc1ccccc1[N-]C(=O)[C@H](C)OC(=O)C1CCN(S(=O)(=O)c2ccc3c(c2)c(=O)c([O-])cn3C)CC1 (nonaromatic ring conformer: 85.80241751857905 kcal/mol)

>  <smiles>  (4) 
COc1ccccc1NC(=O)C(C)OC(=O)C1CCN(S(=O)(=O)c2ccc3c(c2)c(=O)c(O)cn3C)CC1

>  <score_type>  (4) 
oracle

>  <origin>  (4) 
adg

>  <m_score__min__energy>  (4) 
-12.34

>  <m_primary>  (4) 
energy

$$$$
4:0
     RDKit          3D

 53 56  0  0  0  0  0  0  0  0999 V2000
   55.1920   28.6110   45.6180 H   0  0  0  0  0  0  0  0  0  0  0  0
   55.1430   29.3570   44.8900 N   0  0  0  0  0  0  0  0  0  0  0  0
   56.3220   29.8150   44.2310 C   0  0  0  0  0  0  0  0  0  0  0  0
   56.2530   30.2130   43.0380 O   0  0  0  0  0  0  0  0  0  0  0  0
   57.6100   29.8200   44.9440 C   0  0  0  0  0  0  0  0  0  0  0  0
   58.1310   30.8460   45.7130 C   0  0  0  0  0  0  0  0  0  0  0  0
   57.6412   31.8119   45.9058 H   0  0  0  0  0  0  0  0  0  0  0  0
   59.3440   30.4680   46.1910 N   0  0  0  0  0  0  0  0  0  0  0  0
   60.2130   31.2230   47.1330 C   0  0  0  0  0  0  0  0  0  0  0  0
   59.7890   30.8720   48.5900 C   0  0  0  0  0  0  0  0  0  0  0  0
   58.8019   31.3173   48.7833 H   0  0  0  0  0  0  0  0  0  0  0  0
   60.5633   31.2735   49.2603 H   0  0  0  0  0  0  0  0  0  0  0  0
   59.7050   29.4240   48.8390 C   0  0  0  0  0  0  0  0  0  0  0  0
   59.6420   28.2860   49.0350 N   0  0  0  0  0  0  0  0  0  0  0  0
   60.0370   32.7610   46.9140 C   0  0  0  0  0  0  0  0  0  0  0  0
   60.2835   32.9970   45.8683 H   0  0  0  0  0  0  0  0  0  0  0  0
   58.9934   33.0113   47.1553 H   0  0  0  0  0  0  0  0  0  0  0  0
   60.9400   33.6060   47.8350 C   0  0  0  0  0  0  0  0  0  0  0  0
   61.1218   34.5818   47.3609 H   0  0  0  0  0  0  0  0  0  0  0  0
   60.4293   33.7310   48.8012 H   0  0  0  0  0  0  0  0  0  0  0  0
   62.2280   32.9440   48.0750 N   0  0  0  0  0  0  0  0  0  0  0  0
   62.9790   33.2280   49.2720 C   0  0  0  0  0  0  0  0  0  0  0  0
   62.3750   33.8980   50.3510 C   0  0  0  0  0  0  0  0  0  0  0  0
   61.3182   34.1964   50.2872 H   0  0  0  0  0  0  0  0  0  0  0  0
   63.1110   34.1870   51.5050 C   0  0  0  0  0  0  0  0  0  0  0  0
   62.6310   34.7080   52.3465 H   0  0  0  0  0  0  0  0  0  0  0  0
   64.4540   33.8150   51.5900 C   0  0  0  0  0  0  0  0  0  0  0  0
   65.0301   34.0399   52.4997 H   0  0  0  0  0  0  0  0  0  0  0  0
   65.0670   33.1570   50.5200 C   0  0  0  0  0  0  0  0  0  0  0  0
   66.3720   32.8000   50.6030 F   0  0  0  0  0  0  0  0  0  0  0  0
   64.3350   32.8670   49.3640 C   0  0  0  0  0  0  0  0  0  0  0  0
   64.8227   32.3537   48.5222 H   0  0  0  0  0  0  0  0  0  0  0  0
   62.7210   31.9940   47.0770 C   0  0  0  0  0  0  0  0  0  0  0  0
   62.8662   32.5179   46.1208 H   0  0  0  0  0  0  0  0  0  0  0  0
   63.6737   31.5729   47.4305 H   0  0  0  0  0  0  0  0  0  0  0  0
   61.7180   30.8460   46.8760 C   0  0  0  0  0  0  0  0  0  0  0  0
   61.8084   30.4922   45.8384 H   0  0  0  0  0  0  0  0  0  0  0  0
   61.9742   30.0807   47.6234 H   0  0  0  0  0  0  0  0  0  0  0  0
   59.5860   29.2270   45.7830 N   0  0  0  0  0  0  0  0  0  0  0  0
   60.4470   28.6820   46.0110 H   0  0  0  0  0  0  0  0  0  0  0  0
   58.5510   28.8140   45.0240 C   0  0  0  0  0  0  0  0  0  0  0  0
   58.4690   27.6640   44.4200 N   0  0  0  0  0  0  0  0  0  0  0  0
   57.7640   26.5080   44.8960 C   0  0  0  0  0  0  0  0  0  0  0  0
   57.3880   26.4460   46.2450 C   0  0  0  0  0  0  0  0  0  0  0  0
   57.6035   27.2929   46.9131 H   0  0  0  0  0  0  0  0  0  0  0  0
   56.7400   25.3120   46.7450 C   0  0  0  0  0  0  0  0  0  0  0  0
   56.4299   25.2765   47.7998 H   0  0  0  0  0  0  0  0  0  0  0  0
   56.4860   24.2230   45.9050 C   0  0  0  0  0  0  0  0  0  0  0  0
   55.9685   23.3348   46.2966 H   0  0  0  0  0  0  0  0  0  0  0  0
   56.8900   24.2640   44.5680 C   0  0  0  0  0  0  0  0  0  0  0  0
   56.6977   23.4040   43.9096 H   0  0  0  0  0  0  0  0  0  0  0  0
   57.5380   25.3960   44.0660 C   0  0  0  0  0  0  0  0  0  0  0  0
   57.8722   25.4170   43.0182 H   0  0  0  0  0  0  0  0  0  0  0  0
  1  2  1  0
  2  3  1  0
  3  4  2  0
  3  5  1  0
  5  6  2  0
  6  7  1  0
  6  8  1  0
  8  9  1  0
  9 10  1  0
 10 11  1  0
 10 12  1  0
 10 13  1  0
 13 14  3  0
  9 15  1  0
 15 16  1  0
 15 17  1  0
 15 18  1  0
 18 19  1  0
 18 20  1  0
 18 21  1  0
 21 22  1  0
 22 23  2  0
 23 24  1  0
 23 25  1  0
 25 26  1  0
 25 27  2  0
 27 28  1  0
 27 29  1  0
 29 30  1  0
 29 31  2  0
 31 32  1  0
 21 33  1  0
 33 34  1  0
 33 35  1  0
 33 36  1  0
 36 37  1  0
 36 38  1  0
  8 39  1  0
 39 40  1  0
 39 41  1  0
 41 42  2  0
 42 43  1  0
 43 44  2  0
 44 45  1  0
 44 46  1  0
 46 47  1  0
 46 48  2  0
 48 49  1  0
 48 50  1  0
 50 51  1  0
 50 52  2  0
 52 53  1  0
 41  5  1  0
 52 43  1  0
 36  9  1  0
 31 22  1  0
M  CHG  1   2  -1
M  END
>  <UniqueID>  (5) 
5

>  <SMILES>  (5) 
N#CCC1(n2cc(C([NH-])=O)/c(=N/c3ccccc3)[nH]2)CCN(c2cccc(F)c2)CC1

>  <Energy>  (5) 
105.47823301152002

>  <Genealogy>  (5) 
N#CCC1(n2cc(C([NH-])=O)c(=Nc3ccccc3)[nH]2)CCN(c2cccc(F)c2)CC1 (protonated)
N#CCC1(n2cc(C([NH-])=O)/c(=N/c3ccccc3)[nH]2)CCN(c2cccc(F)c2)CC1 (cis-trans isomerization)
N#CCC1(n2cc(C([NH-])=O)/c(=N/c3ccccc3)[nH]2)CCN(c2cccc(F)c2)CC1 (3D coordinates assigned)
N#CCC1(n2cc(C([NH-])=O)/c(=N/c3ccccc3)[nH]2)CCN(c2cccc(F)c2)CC1 (nonaromatic ring conformer: 105.47823301152002 kcal/mol)

>  <smiles>  (5) 
N#CCC1(n2cc(C(N)=O)c(=Nc3ccccc3)[nH]2)CCN(c2cccc(F)c2)CC1

>  <score_type>  (5) 
oracle

>  <origin>  (5) 
adg

>  <m_score__min__energy>  (5) 
-11.130000000000001

>  <m_primary>  (5) 
energy

$$$$
5:0
     RDKit          3D

 44 48  0  0  0  0  0  0  0  0999 V2000
   55.1430   27.5320   45.4260 H   0  0  0  0  0  0  0  0  0  0  0  0
   54.9680   26.7120   45.9950 O   0  0  0  0  0  0  0  0  0  0  0  0
   56.0150   25.8840   46.3870 C   0  0  0  0  0  0  0  0  0  0  0  0
   55.8870   24.8820   47.2730 N   0  0  0  0  0  0  0  0  0  0  0  0
   57.1420   24.3920   47.3460 C   0  0  0  0  0  0  0  0  0  0  0  0
   57.4500   23.4240   48.0880 O   0  0  0  0  0  0  0  0  0  0  0  0
   58.0430   25.0260   46.5650 N   0  0  0  0  0  0  0  0  0  0  0  0
   57.3120   25.9660   45.9390 C   0  0  0  0  0  0  0  0  0  0  0  0
   57.8410   27.0020   45.0330 C   0  0  0  0  0  0  0  0  0  0  0  0
   58.5161   26.6695   44.2307 H   0  0  0  0  0  0  0  0  0  0  0  0
   57.5710   28.3170   45.1010 C   0  0  0  0  0  0  0  0  0  0  0  0
   56.7410   29.0150   44.2230 C   0  0  0  0  0  0  0  0  0  0  0  0
   56.1959   28.5645   43.3805 H   0  0  0  0  0  0  0  0  0  0  0  0
   56.7030   30.3260   44.5570 N   0  0  0  0  0  0  0  0  0  0  0  0
   57.4900   30.4740   45.6100 N   0  0  0  0  0  0  0  0  0  0  0  0
   57.7780   31.6200   46.2730 C   0  0  0  0  0  0  0  0  0  0  0  0
   57.2150   32.7410   45.9070 N   0  0  0  0  0  0  0  0  0  0  0  0
   57.7620   34.0580   45.5300 C   0  0  0  0  0  0  0  0  0  0  0  0
   56.8034   34.4170   45.1272 H   0  0  0  0  0  0  0  0  0  0  0  0
   58.8380   34.6060   46.4500 C   0  0  0  0  0  0  0  0  0  0  0  0
   58.8591   35.6781   46.6951 H   0  0  0  0  0  0  0  0  0  0  0  0
   59.1910   34.3679   47.4643 H   0  0  0  0  0  0  0  0  0  0  0  0
   59.1980   34.1360   45.0400 C   0  0  0  0  0  0  0  0  0  0  0  0
   59.4780   34.8696   44.2696 H   0  0  0  0  0  0  0  0  0  0  0  0
   59.9173   33.4191   44.6173 H   0  0  0  0  0  0  0  0  0  0  0  0
   58.6600   31.5460   47.3100 N   0  0  0  0  0  0  0  0  0  0  0  0
   59.2360   30.3530   47.6590 C   0  0  0  0  0  0  0  0  0  0  0  0
   60.0970   30.2840   48.6310 N   0  0  0  0  0  0  0  0  0  0  0  0
   60.6390   31.4300   49.3610 C   0  0  0  0  0  0  0  0  0  0  0  0
   59.8230   32.1377   49.5690 H   0  0  0  0  0  0  0  0  0  0  0  0
   61.0886   31.0590   50.2939 H   0  0  0  0  0  0  0  0  0  0  0  0
   61.7120   32.1400   48.5740 C   0  0  0  0  0  0  0  0  0  0  0  0
   63.0480   32.0880   49.0060 C   0  0  0  0  0  0  0  0  0  0  0  0
   63.3103   31.5100   49.9044 H   0  0  0  0  0  0  0  0  0  0  0  0
   64.0460   32.7670   48.3000 C   0  0  0  0  0  0  0  0  0  0  0  0
   65.0926   32.7066   48.6331 H   0  0  0  0  0  0  0  0  0  0  0  0
   63.7150   33.5220   47.1720 C   0  0  0  0  0  0  0  0  0  0  0  0
   64.5014   34.0518   46.6145 H   0  0  0  0  0  0  0  0  0  0  0  0
   62.3840   33.6040   46.7520 C   0  0  0  0  0  0  0  0  0  0  0  0
   62.1235   34.2034   45.8672 H   0  0  0  0  0  0  0  0  0  0  0  0
   61.3840   32.9260   47.4540 C   0  0  0  0  0  0  0  0  0  0  0  0
   60.3360   33.0071   47.1297 H   0  0  0  0  0  0  0  0  0  0  0  0
   58.9180   29.2180   46.9740 N   0  0  0  0  0  0  0  0  0  0  0  0
   58.0260   29.3030   45.9610 C   0  0  0  0  0  0  0  0  0  0  0  0
  1  2  1  0
  2  3  1  0
  3  4  1  0
  4  5  1  0
  5  6  2  0
  5  7  1  0
  7  8  1  0
  8  9  1  0
  9 10  1  0
  9 11  2  3
 11 12  1  0
 12 13  1  0
 12 14  2  0
 14 15  1  0
 15 16  1  0
 16 17  2  0
 17 18  1  0
 18 19  1  0
 18 20  1  0
 20 21  1  0
 20 22  1  0
 20 23  1  0
 23 24  1  0
 23 25  1  0
 16 26  1  0
 26 27  1  0
 27 28  2  0
 28 29  1  0
 29 30  1  0
 29 31  1  0
 29 32  1  0
 32 33  2  0
 33 34  1  0
 33 35  1  0
 35 36  1  0
 35 37  2  0
 37 38  1  0
 37 39  1  0
 39 40  1  0
 39 41  2  0
 41 42  1  0
 27 43  1  0
 43 44  2  0
  8  3  2  0
 44 11  1  0
 44 15  1  0
 23 18  1  0
 41 32  1  0
M  CHG  3   4  -1   7  -1  26  -1
M  END
>  <UniqueID>  (6) 
6

>  <SMILES>  (6) 
O=c1[n-]c(O)c(C=c2cnn3/c(=N/C4CC4)[n-]/c(=N\Cc4ccccc4)nc23)[n-]1

>  <Energy>  (6) 
393.788848526954

>  <Genealogy>  (6) 
O=c1[n-]c(O)c(C=c2cnn3c(=NC4CC4)[n-]c(=NCc4ccccc4)nc23)[n-]1 (protonated)
O=c1[n-]c(O)c(C=c2cnn3/c(=N/C4CC4)[n-]/c(=N\Cc4ccccc4)nc23)[n-]1 (cis-trans isomerization)
O=c1[n-]c(O)c(C=c2cnn3/c(=N/C4CC4)[n-]/c(=N\Cc4ccccc4)nc23)[n-]1 (3D coordinates assigned)
O=c1[n-]c(O)c(C=c2cnn3/c(=N/C4CC4)[n-]/c(=N\Cc4ccccc4)nc23)[n-]1 (nonaromatic ring conformer: 393.788848526954 kcal/mol)

>  <smiles>  (6) 
O=c1[nH]c(O)c(C=c2cnn3c(=NC4CC4)[nH]c(=NCc4ccccc4)nc23)[nH]1

>  <score_type>  (6) 
oracle

>  <origin>  (6) 
adg

>  <m_score__min__energy>  (6) 
-14.59

>  <m_primary>  (6) 
energy

$$$$
6:0
     RDKit          3D

 56 58  0  0  0  0  0  0  0  0999 V2000
   59.8660   29.9810   45.9000 H   0  0  0  0  0  0  0  0  0  0  0  0
   60.5460   30.5260   46.3750 O   0  0  0  0  0  0  0  0  0  0  0  0
   60.6550   29.9990   47.6700 C   0  0  0  0  0  0  0  0  0  0  0  0
   60.0217   30.5841   48.3531 H   0  0  0  0  0  0  0  0  0  0  0  0
   61.7068   30.0522   47.9876 H   0  0  0  0  0  0  0  0  0  0  0  0
   60.2060   28.5400   47.6950 C   0  0  0  0  0  0  0  0  0  0  0  0
   59.4075   28.4178   48.4417 H   0  0  0  0  0  0  0  0  0  0  0  0
   61.0641   27.9037   47.9571 H   0  0  0  0  0  0  0  0  0  0  0  0
   56.3480   30.7110   44.5080 N   0  0  0  0  0  0  0  0  0  0  0  0
   56.7670   29.6000   45.0440 C   0  0  0  0  0  0  0  0  0  0  0  0
   55.8830   28.5860   45.2300 N   0  0  0  0  0  0  0  0  0  0  0  0
   56.2770   27.4210   45.8030 C   0  0  0  0  0  0  0  0  0  0  0  0
   55.4140   26.4570   45.9440 N   0  0  0  0  0  0  0  0  0  0  0  0
   55.6070   25.0740   45.6020 C   0  0  0  0  0  0  0  0  0  0  0  0
   56.7870   24.7030   44.9460 C   0  0  0  0  0  0  0  0  0  0  0  0
   57.5509   25.4626   44.7236 H   0  0  0  0  0  0  0  0  0  0  0  0
   57.0000   23.3730   44.5720 C   0  0  0  0  0  0  0  0  0  0  0  0
   57.9325   23.0888   44.0625 H   0  0  0  0  0  0  0  0  0  0  0  0
   56.0310   22.4040   44.8440 C   0  0  0  0  0  0  0  0  0  0  0  0
   56.2033   21.3584   44.5488 H   0  0  0  0  0  0  0  0  0  0  0  0
   54.8360   22.7610   45.4940 C   0  0  0  0  0  0  0  0  0  0  0  0
   53.7980   21.8050   45.7500 N   0  0  0  0  0  0  0  0  0  0  0  0
   52.4130   22.1010   45.9610 C   0  0  0  0  0  0  0  0  0  0  0  0
   51.9500   22.0610   47.1320 O   0  0  0  0  0  0  0  0  0  0  0  0
   51.5500   22.3800   44.8560 N   0  0  0  0  0  0  0  0  0  0  0  0
   50.6060   23.4890   44.8500 C   0  0  0  0  0  0  0  0  0  0  0  0
   50.7121   24.0645   45.7814 H   0  0  0  0  0  0  0  0  0  0  0  0
   49.5818   23.0951   44.7738 H   0  0  0  0  0  0  0  0  0  0  0  0
   50.8870   24.3950   43.6610 C   0  0  0  0  0  0  0  0  0  0  0  0
   51.1949   25.3877   44.0212 H   0  0  0  0  0  0  0  0  0  0  0  0
   51.6925   23.9602   43.0510 H   0  0  0  0  0  0  0  0  0  0  0  0
   49.9768   24.4923   43.0510 H   0  0  0  0  0  0  0  0  0  0  0  0
   54.6170   24.1010   45.8390 C   0  0  0  0  0  0  0  0  0  0  0  0
   53.6625   24.3959   46.2995 H   0  0  0  0  0  0  0  0  0  0  0  0
   57.5730   27.2690   46.1810 N   0  0  0  0  0  0  0  0  0  0  0  0
   58.4660   28.2800   46.0090 C   0  0  0  0  0  0  0  0  0  0  0  0
   59.7030   28.1470   46.3810 N   0  0  0  0  0  0  0  0  0  0  0  0
   57.0920   31.7140   43.7900 C   0  0  0  0  0  0  0  0  0  0  0  0
   57.3930   31.5910   42.1780 S   0  0  0  0  0  0  0  0  0  0  0  0
   57.4530   32.9310   44.4590 N   0  0  0  0  0  0  0  0  0  0  0  0
   57.9690   33.6710   43.9300 H   0  0  0  0  0  0  0  0  0  0  0  0
   57.1570   33.1710   45.8710 C   0  0  0  0  0  0  0  0  0  0  0  0
   56.5060   34.0532   45.9601 H   0  0  0  0  0  0  0  0  0  0  0  0
   56.6524   32.2858   46.2855 H   0  0  0  0  0  0  0  0  0  0  0  0
   58.4280   33.4130   46.6390 C   0  0  0  0  0  0  0  0  0  0  0  0
   58.5280   33.0030   47.9790 C   0  0  0  0  0  0  0  0  0  0  0  0
   57.6712   32.5175   48.4690 H   0  0  0  0  0  0  0  0  0  0  0  0
   59.7130   33.2100   48.6920 C   0  0  0  0  0  0  0  0  0  0  0  0
   59.7862   32.8873   49.7411 H   0  0  0  0  0  0  0  0  0  0  0  0
   60.8040   33.8260   48.0740 C   0  0  0  0  0  0  0  0  0  0  0  0
   61.7353   33.9875   48.6366 H   0  0  0  0  0  0  0  0  0  0  0  0
   60.7130   34.2370   46.7420 C   0  0  0  0  0  0  0  0  0  0  0  0
   61.5727   34.7227   46.2573 H   0  0  0  0  0  0  0  0  0  0  0  0
   59.5310   34.0320   46.0240 C   0  0  0  0  0  0  0  0  0  0  0  0
   59.4635   34.3558   44.9749 H   0  0  0  0  0  0  0  0  0  0  0  0
   58.0570   29.4420   45.4430 N   0  0  0  0  0  0  0  0  0  0  0  0
  1  2  1  0
  2  3  1  0
  3  4  1  0
  3  5  1  0
  3  6  1  0
  6  7  1  0
  6  8  1  0
  6  9  1  0
  9 10  2  0
 10 11  1  0
 11 12  1  0
 12 13  2  3
 13 14  1  0
 14 15  2  0
 15 16  1  0
 15 17  1  0
 17 18  1  0
 17 19  2  0
 19 20  1  0
 19 21  1  0
 21 22  1  0
 22 23  1  0
 23 24  2  0
 23 25  1  0
 25 26  1  0
 26 27  1  0
 26 28  1  0
 26 29  1  0
 29 30  1  0
 29 31  1  0
 29 32  1  0
 21 33  2  0
 33 34  1  0
 12 35  1  0
 35 36  1  0
 36 37  2  0
 37 38  1  0
 38 39  2  0
 38 40  1  0
 40 41  1  0
 40 42  1  0
 42 43  1  0
 42 44  1  0
 42 45  1  0
 45 46  2  0
 46 47  1  0
 46 48  1  0
 48 49  1  0
 48 50  2  0
 50 51  1  0
 50 52  1  0
 52 53  1  0
 52 54  2  0
 54 55  1  0
 36 56  1  0
 56 10  1  0
 33 14  1  0
 54 45  1  0
M  CHG  5  11  -1  22  -1  25  -1  35  -1  56  -1
M  END
>  <UniqueID>  (7) 
7

>  <SMILES>  (7) 
CC[N-]C(=O)[N-]c1cccc(N=c2[n-]/c(=N\CCO)[n-]/c(=N\C(=S)NCc3ccccc3)[n-]2)c1

>  <Energy>  (7) 
60.79077159423955

>  <Genealogy>  (7) 
CC[N-]C(=O)[N-]c1cccc(N=c2[n-]c(=NCCO)[n-]c(=NC(=S)NCc3ccccc3)[n-]2)c1 (protonated)
CC[N-]C(=O)[N-]c1cccc(N=c2[n-]/c(=N\CCO)[n-]/c(=N\C(=S)NCc3ccccc3)[n-]2)c1 (cis-trans isomerization)
CC[N-]C(=O)[N-]c1cccc(N=c2[n-]/c(=N\CCO)[n-]/c(=N\C(=S)NCc3ccccc3)[n-]2)c1 (3D coordinates assigned)
CC[N-]C(=O)[N-]c1cccc(N=c2[n-]/c(=N\CCO)[n-]/c(=N\C(=S)NCc3ccccc3)[n-]2)c1 (optimized conformer: 60.79077159423955 kcal/mol)

>  <smiles>  (7) 
CCNC(=O)Nc1cccc(N=c2[nH]c(=NCCO)[nH]c(=NC(=S)NCc3ccccc3)[nH]2)c1

>  <score_type>  (7) 
oracle

>  <origin>  (7) 
adg

>  <m_score__min__energy>  (7) 
-15.539999999999999

>  <m_primary>  (7) 
energy

$$$$
7:0
     RDKit          3D

 69 72  0  0  0  0  0  0  0  0999 V2000
   64.8600   33.0150   47.7110 H   0  0  0  0  0  0  0  0  0  0  0  0
   64.0310   32.6490   47.2610 O   0  0  0  0  0  0  0  0  0  0  0  0
   62.7800   32.6700   47.8780 C   0  0  0  0  0  0  0  0  0  0  0  0
   61.7460   31.8980   47.3360 C   0  0  0  0  0  0  0  0  0  0  0  0
   61.9314   31.3026   46.4299 H   0  0  0  0  0  0  0  0  0  0  0  0
   60.4770   31.8730   47.9320 C   0  0  0  0  0  0  0  0  0  0  0  0
   59.4160   31.0430   47.3140 C   0  0  0  0  0  0  0  0  0  0  0  0
   58.3814   31.1774   47.6626 H   0  0  0  0  0  0  0  0  0  0  0  0
   59.6480   30.1390   46.3550 C   0  0  0  0  0  0  0  0  0  0  0  0
   60.6797   29.8194   46.1463 H   0  0  0  0  0  0  0  0  0  0  0  0
   58.5120   29.5550   45.5590 C   0  0  2  0  0  0  0  0  0  0  0  0
   58.7990   29.4830   44.4995 H   0  0  0  0  0  0  0  0  0  0  0  0
   57.3740   30.3950   45.7030 O   0  0  0  0  0  0  0  0  0  0  0  0
   57.0510   31.1280   44.5310 C   0  0  2  0  0  0  0  0  0  0  0  0
   56.0890   31.6453   44.6613 H   0  0  0  0  0  0  0  0  0  0  0  0
   56.9920   30.1400   43.3570 C   0  0  0  0  0  0  0  0  0  0  0  0
   56.2244   29.3806   43.5670 H   0  0  0  0  0  0  0  0  0  0  0  0
   57.9827   29.6748   43.2468 H   0  0  0  0  0  0  0  0  0  0  0  0
   56.6450   30.8490   42.0450 C   0  0  0  0  0  0  0  0  0  0  0  0
   55.5799   31.1235   42.0571 H   0  0  0  0  0  0  0  0  0  0  0  0
   56.8613   30.1632   41.2126 H   0  0  0  0  0  0  0  0  0  0  0  0
   57.4670   32.0900   41.8610 C   0  0  0  0  0  0  0  0  0  0  0  0
   57.6020   32.5820   40.7100 O   0  0  0  0  0  0  0  0  0  0  0  0
   57.9900   32.7730   42.9630 O   0  0  0  0  0  0  0  0  0  0  0  0
   58.1590   32.1680   44.2470 C   0  0  1  0  0  0  0  0  0  0  0  0
   59.1125   31.6199   44.2695 H   0  0  0  0  0  0  0  0  0  0  0  0
   58.1880   33.2570   45.3010 C   0  0  0  0  0  0  0  0  0  0  0  0
   59.2560   34.0600   45.4230 C   0  0  0  0  0  0  0  0  0  0  0  0
   60.1209   33.9301   44.7558 H   0  0  0  0  0  0  0  0  0  0  0  0
   59.2667   34.8482   46.1902 H   0  0  0  0  0  0  0  0  0  0  0  0
   57.0140   33.4510   46.2240 C   0  0  0  0  0  0  0  0  0  0  0  0
   57.3553   33.3946   47.2682 H   0  0  0  0  0  0  0  0  0  0  0  0
   56.5610   34.4362   46.0390 H   0  0  0  0  0  0  0  0  0  0  0  0
   56.2682   32.6639   46.0390 H   0  0  0  0  0  0  0  0  0  0  0  0
   58.1810   28.1740   46.0820 C   0  0  0  0  0  0  0  0  0  0  0  0
   59.0600   27.5050   46.9510 C   0  0  0  0  0  0  0  0  0  0  0  0
   60.0026   27.9856   47.2517 H   0  0  0  0  0  0  0  0  0  0  0  0
   58.7440   26.2340   47.4350 C   0  0  0  0  0  0  0  0  0  0  0  0
   59.4354   25.7262   48.1236 H   0  0  0  0  0  0  0  0  0  0  0  0
   57.5570   25.6000   47.0530 C   0  0  0  0  0  0  0  0  0  0  0  0
   57.2840   24.3270   47.5740 O   0  0  0  0  0  0  0  0  0  0  0  0
   56.2000   23.5030   47.1530 C   0  0  0  0  0  0  0  0  0  0  0  0
   55.6772   23.1056   48.0355 H   0  0  0  0  0  0  0  0  0  0  0  0
   55.4995   24.0987   46.5493 H   0  0  0  0  0  0  0  0  0  0  0  0
   56.5866   22.6687   46.5493 H   0  0  0  0  0  0  0  0  0  0  0  0
   56.6850   26.2560   46.1660 C   0  0  0  0  0  0  0  0  0  0  0  0
   55.7502   25.7667   45.8549 H   0  0  0  0  0  0  0  0  0  0  0  0
   57.0010   27.5270   45.6780 C   0  0  0  0  0  0  0  0  0  0  0  0
   56.3203   28.0249   44.9718 H   0  0  0  0  0  0  0  0  0  0  0  0
   60.2460   32.6660   49.0700 C   0  0  0  0  0  0  0  0  0  0  0  0
   59.2502   32.6730   49.5372 H   0  0  0  0  0  0  0  0  0  0  0  0
   61.2710   33.4450   49.6120 C   0  0  0  0  0  0  0  0  0  0  0  0
   61.0766   34.0598   50.5032 H   0  0  0  0  0  0  0  0  0  0  0  0
   62.5510   33.4490   49.0260 C   0  0  0  0  0  0  0  0  0  0  0  0
   63.6110   34.2120   49.5480 O   0  0  0  0  0  0  0  0  0  0  0  0
   64.1630   34.0780   50.8580 C   0  0  0  0  0  0  0  0  0  0  0  0
   64.6452   35.0246   51.1435 H   0  0  0  0  0  0  0  0  0  0  0  0
   63.3498   33.8329   51.5571 H   0  0  0  0  0  0  0  0  0  0  0  0
   65.1850   32.9710   50.9040 C   0  0  0  0  0  0  0  0  0  0  0  0
   66.5440   33.2550   50.6840 C   0  0  0  0  0  0  0  0  0  0  0  0
   66.8593   34.2847   50.4598 H   0  0  0  0  0  0  0  0  0  0  0  0
   67.4960   32.2340   50.7490 C   0  0  0  0  0  0  0  0  0  0  0  0
   68.5571   32.4597   50.5671 H   0  0  0  0  0  0  0  0  0  0  0  0
   67.1010   30.9260   51.0450 C   0  0  0  0  0  0  0  0  0  0  0  0
   67.8509   30.1227   51.0936 H   0  0  0  0  0  0  0  0  0  0  0  0
   65.7540   30.6390   51.2790 C   0  0  0  0  0  0  0  0  0  0  0  0
   65.4444   29.6099   51.5139 H   0  0  0  0  0  0  0  0  0  0  0  0
   64.7990   31.6580   51.2150 C   0  0  0  0  0  0  0  0  0  0  0  0
   63.7406   31.4297   51.4092 H   0  0  0  0  0  0  0  0  0  0  0  0
  1  2  1  0
  2  3  1  0
  3  4  2  0
  4  5  1  0
  4  6  1  0
  6  7  1  0
  7  8  1  0
  7  9  2  0
  9 10  1  0
  9 11  1  0
 11 12  1  6
 11 13  1  0
 13 14  1  0
 14 15  1  1
 14 16  1  0
 16 17  1  0
 16 18  1  0
 16 19  1  0
 19 20  1  0
 19 21  1  0
 19 22  1  0
 22 23  2  0
 22 24  1  0
 24 25  1  0
 25 26  1  6
 25 27  1  0
 27 28  2  0
 28 29  1  0
 28 30  1  0
 27 31  1  0
 31 32  1  0
 31 33  1  0
 31 34  1  0
 11 35  1  0
 35 36  2  0
 36 37  1  0
 36 38  1  0
 38 39  1  0
 38 40  2  0
 40 41  1  0
 41 42  1  0
 42 43  1  0
 42 44  1  0
 42 45  1  0
 40 46  1  0
 46 47  1  0
 46 48  2  0
 48 49  1  0
  6 50  2  0
 50 51  1  0
 50 52  1  0
 52 53  1  0
 52 54  2  0
 54 55  1  0
 55 56  1  0
 56 57  1  0
 56 58  1  0
 56 59  1  0
 59 60  2  0
 60 61  1  0
 60 62  1  0
 62 63  1  0
 62 64  2  0
 64 65  1  0
 64 66  1  0
 66 67  1  0
 66 68  2  0
 68 69  1  0
 54  3  1  0
 68 59  1  0
 25 14  1  0
 48 35  1  0
M  END
>  <UniqueID>  (8) 
8

>  <SMILES>  (8) 
C=C(C)[C@@H]1OC(=O)CC[C@H]1OC(/C=C/c1ccc(OCc2ccccc2)c(O)c1)c1ccc(OC)cc1

>  <Energy>  (8) 
70.1192079399389

>  <Genealogy>  (8) 
C=C(C)[C@@H]1OC(=O)CC[C@H]1OC(C=Cc1ccc(OCc2ccccc2)c(O)c1)c1ccc(OC)cc1 (chirality)
C=C(C)[C@@H]1OC(=O)CC[C@H]1OC(/C=C/c1ccc(OCc2ccccc2)c(O)c1)c1ccc(OC)cc1 (cis-trans isomerization)
C=C(C)[C@@H]1OC(=O)CC[C@H]1OC(/C=C/c1ccc(OCc2ccccc2)c(O)c1)c1ccc(OC)cc1 (3D coordinates assigned)
C=C(C)[C@@H]1OC(=O)CC[C@H]1OC(/C=C/c1ccc(OCc2ccccc2)c(O)c1)c1ccc(OC)cc1 (nonaromatic ring conformer: 70.1192079399389 kcal/mol)

>  <smiles>  (8) 
C=C(C)C1OC(=O)CCC1OC(C=Cc1ccc(OCc2ccccc2)c(O)c1)c1ccc(OC)cc1

>  <score_type>  (8) 
oracle

>  <origin>  (8) 
adg

>  <m_score__min__energy>  (8) 
-10.710000000000001

>  <m_primary>  (8) 
energy

$$$$
8:0
     RDKit          3D

 56 59  0  0  0  0  0  0  0  0999 V2000
   57.8060   26.3880   42.6000 C   0  0  0  0  0  0  0  0  0  0  0  0
   58.6390   27.4750   42.9460 O   0  0  0  0  0  0  0  0  0  0  0  0
   58.9420   27.8550   44.2460 C   0  0  0  0  0  0  0  0  0  0  0  0
   58.0100   27.6510   45.2460 C   0  0  0  0  0  0  0  0  0  0  0  0
   58.3030   28.0260   46.5400 C   0  0  0  0  0  0  0  0  0  0  0  0
   59.4940   28.6050   46.9160 C   0  0  0  0  0  0  0  0  0  0  0  0
   59.6990   28.9010   48.3170 C   0  0  0  0  0  0  0  0  0  0  0  0
   60.2230   27.8640   49.0480 N   0  0  0  0  0  0  0  0  0  0  0  0
   60.4490   27.9910   50.3540 C   0  0  0  0  0  0  0  0  0  0  0  0
   60.9240   27.0320   50.9880 O   0  0  0  0  0  0  0  0  0  0  0  0
   60.1590   29.1500   50.9380 N   0  0  0  0  0  0  0  0  0  0  0  0
   59.6350   30.2340   50.2820 C   0  0  0  0  0  0  0  0  0  0  0  0
   59.3500   31.3730   51.1130 C   0  0  0  0  0  0  0  0  0  0  0  0
   60.4370   32.1900   51.4660 C   0  0  0  0  0  0  0  0  0  0  0  0
   60.2920   33.3540   52.1850 C   0  0  0  0  0  0  0  0  0  0  0  0
   59.0550   33.7910   52.6080 C   0  0  0  0  0  0  0  0  0  0  0  0
   58.8760   35.0420   53.3890 C   0  0  0  0  0  0  0  0  0  0  0  0
   57.9750   33.0050   52.2730 C   0  0  0  0  0  0  0  0  0  0  0  0
   58.1260   31.8160   51.5360 C   0  0  0  0  0  0  0  0  0  0  0  0
   59.3900   30.1140   48.9310 C   0  0  0  0  0  0  0  0  0  0  0  0
   58.7010   31.1070   48.1070 C   0  0  0  0  0  0  0  0  0  0  0  0
   59.7420   32.0860   47.5460 C   0  0  0  0  0  0  0  0  0  0  0  0
   61.0230   32.0930   48.0500 C   0  0  0  0  0  0  0  0  0  0  0  0
   61.9640   32.9800   47.5180 C   0  0  0  0  0  0  0  0  0  0  0  0
   61.6190   33.8400   46.5000 C   0  0  0  0  0  0  0  0  0  0  0  0
   60.3360   33.8060   46.0230 C   0  0  0  0  0  0  0  0  0  0  0  0
   59.3580   32.9470   46.5110 C   0  0  0  0  0  0  0  0  0  0  0  0
   57.7290   32.9270   45.8950 S   0  0  0  0  0  0  0  0  0  0  0  0
   56.6750   33.4480   47.1530 N   0  0  0  0  0  0  0  0  0  0  0  0
   57.3430   31.5630   45.3910 O   0  0  0  0  0  0  0  0  0  0  0  0
   57.6470   33.9080   44.7650 O   0  0  0  0  0  0  0  0  0  0  0  0
   60.4240   28.8070   45.9220 C   0  0  0  0  0  0  0  0  0  0  0  0
   60.1350   28.4330   44.6150 C   0  0  0  0  0  0  0  0  0  0  0  0
   57.4352   25.9042   43.5157 H   0  0  0  0  0  0  0  0  0  0  0  0
   56.9541   26.7530   42.0074 H   0  0  0  0  0  0  0  0  0  0  0  0
   58.3799   25.6603   42.0074 H   0  0  0  0  0  0  0  0  0  0  0  0
   57.0387   27.1915   45.0105 H   0  0  0  0  0  0  0  0  0  0  0  0
   57.5424   27.8528   47.3155 H   0  0  0  0  0  0  0  0  0  0  0  0
   60.3660   29.2020   51.9800 H   0  0  0  0  0  0  0  0  0  0  0  0
   61.4472   31.8861   51.1542 H   0  0  0  0  0  0  0  0  0  0  0  0
   61.1841   33.9499   52.4280 H   0  0  0  0  0  0  0  0  0  0  0  0
   58.9090   34.8110   54.4640 H   0  0  0  0  0  0  0  0  0  0  0  0
   59.6823   35.7478   53.1407 H   0  0  0  0  0  0  0  0  0  0  0  0
   57.9041   35.4934   53.1407 H   0  0  0  0  0  0  0  0  0  0  0  0
   56.9682   33.3147   52.5898 H   0  0  0  0  0  0  0  0  0  0  0  0
   57.2318   31.2236   51.2920 H   0  0  0  0  0  0  0  0  0  0  0  0
   58.1809   30.6042   47.2783 H   0  0  0  0  0  0  0  0  0  0  0  0
   57.9623   31.6512   48.7137 H   0  0  0  0  0  0  0  0  0  0  0  0
   61.3036   31.4075   48.8633 H   0  0  0  0  0  0  0  0  0  0  0  0
   62.9892   32.9907   47.9166 H   0  0  0  0  0  0  0  0  0  0  0  0
   62.3572   34.5386   46.0793 H   0  0  0  0  0  0  0  0  0  0  0  0
   60.0646   34.4954   45.2100 H   0  0  0  0  0  0  0  0  0  0  0  0
   57.1170   34.2000   47.7330 H   0  0  0  0  0  0  0  0  0  0  0  0
   55.8350   33.8700   46.6590 H   0  0  0  0  0  0  0  0  0  0  0  0
   61.3954   29.2641   46.1617 H   0  0  0  0  0  0  0  0  0  0  0  0
   60.8954   28.6072   43.8394 H   0  0  0  0  0  0  0  0  0  0  0  0
  1  2  1  0
  2  3  1  0
  3  4  2  0
  4  5  1  0
  5  6  2  0
  6  7  1  0
  7  8  2  0
  8  9  1  0
  9 10  2  0
  9 11  1  0
 11 12  1  0
 12 13  1  0
 13 14  2  0
 14 15  1  0
 15 16  2  0
 16 17  1  0
 16 18  1  0
 18 19  2  0
 12 20  2  0
 20 21  1  0
 21 22  1  0
 22 23  2  0
 23 24  1  0
 24 25  2  0
 25 26  1  0
 26 27  2  0
 27 28  1  0
 28 29  1  0
 28 30  2  0
 28 31  2  0
  6 32  1  0
 32 33  2  0
 33  3  1  0
 20  7  1  0
 27 22  1  0
 19 13  1  0
  1 34  1  0
  1 35  1  0
  1 36  1  0
  4 37  1  0
  5 38  1  0
 11 39  1  0
 14 40  1  0
 15 41  1  0
 17 42  1  0
 17 43  1  0
 17 44  1  0
 18 45  1  0
 19 46  1  0
 21 47  1  0
 21 48  1  0
 23 49  1  0
 24 50  1  0
 25 51  1  0
 26 52  1  0
 29 53  1  0
 29 54  1  0
 32 55  1  0
 33 56  1  0
M  END
>  <smiles>  (9) 
COc1ccc(-c2nc(=O)[nH]c(-c3ccc(C)cc3)c2Cc2ccccc2S(N)(=O)=O)cc1

>  <score_type>  (9) 
oracle

>  <origin>  (9) 
adg

>  <m_score__min__energy>  (9) 
-8.3000000000000007

>  <m_primary>  (9) 
energy

$$$$
9:0
     RDKit          3D

 50 52  0  0  0  0  0  0  0  0999 V2000
   58.4488   29.6827   45.9470 H   0  0  0  0  0  0  0  0  0  0  0  0
   57.9130   28.7270   46.0450 C   0  0  0  0  0  0  0  0  0  0  0  0
   58.5100   27.6670   46.6510 N   0  0  0  0  0  0  0  0  0  0  0  0
   57.8670   26.4780   46.7920 C   0  0  0  0  0  0  0  0  0  0  0  0
   58.3691   25.6302   47.2810 H   0  0  0  0  0  0  0  0  0  0  0  0
   56.5510   26.3410   46.3060 C   0  0  0  0  0  0  0  0  0  0  0  0
   55.8750   25.2320   46.4100 N   0  0  0  0  0  0  0  0  0  0  0  0
   56.0320   24.0830   45.5680 C   0  0  0  0  0  0  0  0  0  0  0  0
   56.3900   24.2620   44.2240 C   0  0  0  0  0  0  0  0  0  0  0  0
   56.5485   25.2764   43.8292 H   0  0  0  0  0  0  0  0  0  0  0  0
   56.5460   23.1560   43.3850 C   0  0  0  0  0  0  0  0  0  0  0  0
   56.8284   23.3013   42.3318 H   0  0  0  0  0  0  0  0  0  0  0  0
   56.3440   21.8660   43.8810 C   0  0  0  0  0  0  0  0  0  0  0  0
   56.4610   20.9972   43.2166 H   0  0  0  0  0  0  0  0  0  0  0  0
   55.9930   21.6780   45.2220 C   0  0  0  0  0  0  0  0  0  0  0  0
   55.8258   20.6610   45.6064 H   0  0  0  0  0  0  0  0  0  0  0  0
   55.8530   22.7810   46.0800 C   0  0  0  0  0  0  0  0  0  0  0  0
   55.4480   22.5650   47.5130 C   0  0  0  0  0  0  0  0  0  0  0  0
   56.2208   22.9771   48.1785 H   0  0  0  0  0  0  0  0  0  0  0  0
   54.4909   23.0725   47.7040 H   0  0  0  0  0  0  0  0  0  0  0  0
   55.3362   21.4875   47.7040 H   0  0  0  0  0  0  0  0  0  0  0  0
   55.9670   27.4080   45.7030 N   0  0  0  0  0  0  0  0  0  0  0  0
   56.6160   28.5950   45.5480 C   0  0  0  0  0  0  0  0  0  0  0  0
   55.9940   29.6880   44.9320 O   0  0  0  0  0  0  0  0  0  0  0  0
   56.6730   30.7130   44.2570 C   0  0  0  0  0  0  0  0  0  0  0  0
   56.8440   30.6090   42.8720 C   0  0  0  0  0  0  0  0  0  0  0  0
   56.4329   29.7424   42.3334 H   0  0  0  0  0  0  0  0  0  0  0  0
   57.5340   31.6000   42.1700 C   0  0  0  0  0  0  0  0  0  0  0  0
   57.6751   31.5045   41.0833 H   0  0  0  0  0  0  0  0  0  0  0  0
   58.0460   32.7130   42.8440 C   0  0  0  0  0  0  0  0  0  0  0  0
   58.6050   33.4812   42.2896 H   0  0  0  0  0  0  0  0  0  0  0  0
   57.8480   32.8520   44.2270 C   0  0  0  0  0  0  0  0  0  0  0  0
   58.4140   34.0370   44.9650 C   0  0  0  0  0  0  0  0  0  0  0  0
   57.6570   34.4128   45.6691 H   0  0  0  0  0  0  0  0  0  0  0  0
   58.6810   34.8054   44.2246 H   0  0  0  0  0  0  0  0  0  0  0  0
   59.6810   33.6680   45.7480 C   0  0  0  0  0  0  0  0  0  0  0  0
   60.4041   34.4930   45.6677 H   0  0  0  0  0  0  0  0  0  0  0  0
   60.0945   32.7427   45.3203 H   0  0  0  0  0  0  0  0  0  0  0  0
   59.3790   33.4240   47.1950 C   0  0  0  0  0  0  0  0  0  0  0  0
   58.5600   34.1700   47.7980 O   0  0  0  0  0  0  0  0  0  0  0  0
   59.9740   32.3380   47.8460 O   0  0  0  0  0  0  0  0  0  0  0  0
   61.1050   31.6380   47.3320 C   0  0  0  0  0  0  0  0  0  0  0  0
   61.8322   31.4821   48.1425 H   0  0  0  0  0  0  0  0  0  0  0  0
   61.5547   32.2361   46.5257 H   0  0  0  0  0  0  0  0  0  0  0  0
   60.6890   30.2840   46.7650 C   0  0  0  0  0  0  0  0  0  0  0  0
   60.4758   29.5902   47.5916 H   0  0  0  0  0  0  0  0  0  0  0  0
   59.7871   30.4066   46.1473 H   0  0  0  0  0  0  0  0  0  0  0  0
   61.5042   29.8790   46.1473 H   0  0  0  0  0  0  0  0  0  0  0  0
   57.1560   31.8520   44.9280 C   0  0  0  0  0  0  0  0  0  0  0  0
   56.9899   31.9594   46.0101 H   0  0  0  0  0  0  0  0  0  0  0  0
  1  2  1  0
  2  3  1  0
  3  4  2  0
  4  5  1  0
  4  6  1  0
  6  7  2  0
  7  8  1  0
  8  9  2  0
  9 10  1  0
  9 11  1  0
 11 12  1  0
 11 13  2  0
 13 14  1  0
 13 15  1  0
 15 16  1  0
 15 17  2  0
 17 18  1  0
 18 19  1  0
 18 20  1  0
 18 21  1  0
  6 22  1  0
 22 23  1  0
 23 24  1  0
 24 25  1  0
 25 26  2  0
 26 27  1  0
 26 28  1  0
 28 29  1  0
 28 30  2  0
 30 31  1  0
 30 32  1  0
 32 33  1  0
 33 34  1  0
 33 35  1  0
 33 36  1  0
 36 37  1  0
 36 38  1  0
 36 39  1  0
 39 40  2  0
 39 41  1  0
 41 42  1  0
 42 43  1  0
 42 44  1  0
 42 45  1  0
 45 46  1  0
 45 47  1  0
 45 48  1  0
 32 49  2  0
 49 50  1  0
 23  2  2  0
 49 25  1  0
 17  8  1  0
M  CHG  1  22  -1
M  END
>  <UniqueID>  (10) 
9

>  <SMILES>  (10) 
CCOC(=O)CCc1cccc(Oc2cnc/c(=N\c3ccccc3C)[n-]2)c1

>  <Energy>  (10) 
60.62930682311737

>  <Genealogy>  (10) 
CCOC(=O)CCc1cccc(Oc2cncc(=Nc3ccccc3C)[n-]2)c1 (protonated)
CCOC(=O)CCc1cccc(Oc2cnc/c(=N\c3ccccc3C)[n-]2)c1 (cis-trans isomerization)
CCOC(=O)CCc1cccc(Oc2cnc/c(=N\c3ccccc3C)[n-]2)c1 (3D coordinates assigned)
CCOC(=O)CCc1cccc(Oc2cnc/c(=N\c3ccccc3C)[n-]2)c1 (optimized conformer: 60.62930682311737 kcal/mol)

>  <smiles>  (10) 
CCOC(=O)CCc1cccc(Oc2cncc(=Nc3ccccc3C)[nH]2)c1

>  <score_type>  (10) 
oracle

>  <origin>  (10) 
adg

>  <m_score__min__energy>  (10) 
-10.08

>  <m_primary>  (10) 
energy

$$$$
10:0
     RDKit          3D

 47 49  0  0  0  0  0  0  0  0999 V2000
   59.6750   34.5960   49.0810 C   0  0  0  0  0  0  0  0  0  0  0  0
   59.3470   35.0350   47.7670 O   0  0  0  0  0  0  0  0  0  0  0  0
   58.8600   34.1980   46.7520 C   0  0  0  0  0  0  0  0  0  0  0  0
   59.3430   34.3800   45.4510 C   0  0  0  0  0  0  0  0  0  0  0  0
   58.8850   33.5740   44.4030 C   0  0  0  0  0  0  0  0  0  0  0  0
   57.9340   32.5750   44.6400 C   0  0  0  0  0  0  0  0  0  0  0  0
   57.4900   31.7740   43.5370 N   0  0  0  0  0  0  0  0  0  0  0  0
   56.6630   30.2540   43.6710 S   0  0  0  0  0  0  0  0  0  0  0  0
   56.2620   29.7900   42.2990 O   0  0  0  0  0  0  0  0  0  0  0  0
   55.4250   30.4360   44.5020 O   0  0  0  0  0  0  0  0  0  0  0  0
   57.7350   29.0540   44.3860 C   0  0  0  0  0  0  0  0  0  0  0  0
   57.7790   27.7470   43.8870 C   0  0  0  0  0  0  0  0  0  0  0  0
   58.6320   26.8050   44.4670 C   0  0  0  0  0  0  0  0  0  0  0  0
   59.4420   27.1610   45.5490 C   0  0  0  0  0  0  0  0  0  0  0  0
   59.3990   28.4690   46.0640 C   0  0  0  0  0  0  0  0  0  0  0  0
   60.2570   28.8770   47.1430 N   0  0  0  0  0  0  0  0  0  0  0  0
   60.5470   30.2460   47.4640 C   0  0  0  0  0  0  0  0  0  0  0  0
   60.2810   31.1660   46.6430 O   0  0  0  0  0  0  0  0  0  0  0  0
   61.2440   30.5840   48.7470 C   0  0  0  0  0  0  0  0  0  0  0  0
   62.0990   31.8110   48.5710 C   0  0  0  0  0  0  0  0  0  0  0  0
   62.8380   31.9820   47.3850 C   0  0  0  0  0  0  0  0  0  0  0  0
   63.6580   33.1010   47.2210 C   0  0  0  0  0  0  0  0  0  0  0  0
   63.7600   34.0510   48.2410 C   0  0  0  0  0  0  0  0  0  0  0  0
   63.0370   33.8870   49.4250 C   0  0  0  0  0  0  0  0  0  0  0  0
   62.2120   32.7710   49.5950 C   0  0  0  0  0  0  0  0  0  0  0  0
   61.5210   32.6330   50.7560 F   0  0  0  0  0  0  0  0  0  0  0  0
   58.5510   29.4130   45.4660 C   0  0  0  0  0  0  0  0  0  0  0  0
   57.4500   32.3850   45.9460 C   0  0  0  0  0  0  0  0  0  0  0  0
   57.9100   33.1880   46.9950 C   0  0  0  0  0  0  0  0  0  0  0  0
   59.1866   35.2497   49.8186 H   0  0  0  0  0  0  0  0  0  0  0  0
   59.3264   33.5620   49.2198 H   0  0  0  0  0  0  0  0  0  0  0  0
   60.7654   34.6371   49.2198 H   0  0  0  0  0  0  0  0  0  0  0  0
   60.0889   35.1633   45.2508 H   0  0  0  0  0  0  0  0  0  0  0  0
   59.2751   33.7266   43.3859 H   0  0  0  0  0  0  0  0  0  0  0  0
   57.1413   27.4614   43.0374 H   0  0  0  0  0  0  0  0  0  0  0  0
   58.6663   25.7794   44.0708 H   0  0  0  0  0  0  0  0  0  0  0  0
   60.1149   26.4162   45.9989 H   0  0  0  0  0  0  0  0  0  0  0  0
   60.7720   28.1340   47.6690 H   0  0  0  0  0  0  0  0  0  0  0  0
   60.4934   30.7740   49.5284 H   0  0  0  0  0  0  0  0  0  0  0  0
   61.8862   29.7397   49.0380 H   0  0  0  0  0  0  0  0  0  0  0  0
   62.7694   31.2312   46.5840 H   0  0  0  0  0  0  0  0  0  0  0  0
   64.2244   33.2347   46.2875 H   0  0  0  0  0  0  0  0  0  0  0  0
   64.4102   34.9287   48.1114 H   0  0  0  0  0  0  0  0  0  0  0  0
   63.1169   34.6374   50.2253 H   0  0  0  0  0  0  0  0  0  0  0  0
   58.5268   30.4440   45.8487 H   0  0  0  0  0  0  0  0  0  0  0  0
   56.7051   31.6002   46.1443 H   0  0  0  0  0  0  0  0  0  0  0  0
   57.5277   33.0295   48.0142 H   0  0  0  0  0  0  0  0  0  0  0  0
  1  2  1  0
  2  3  1  0
  3  4  2  0
  4  5  1  0
  5  6  2  0
  6  7  1  0
  7  8  1  0
  8  9  2  0
  8 10  2  0
  8 11  1  0
 11 12  2  0
 12 13  1  0
 13 14  2  0
 14 15  1  0
 15 16  1  0
 16 17  1  0
 17 18  2  0
 17 19  1  0
 19 20  1  0
 20 21  2  0
 21 22  1  0
 22 23  2  0
 23 24  1  0
 24 25  2  0
 25 26  1  0
 15 27  2  0
  6 28  1  0
 28 29  2  0
 29  3  1  0
 27 11  1  0
 25 20  1  0
  1 30  1  0
  1 31  1  0
  1 32  1  0
  4 33  1  0
  5 34  1  0
 12 35  1  0
 13 36  1  0
 14 37  1  0
 16 38  1  0
 19 39  1  0
 19 40  1  0
 21 41  1  0
 22 42  1  0
 23 43  1  0
 24 44  1  0
 27 45  1  0
 28 46  1  0
 29 47  1  0
M  CHG  1   7  -1
M  END
>  <UniqueID>  (11) 
10

>  <SMILES>  (11) 
COc1ccc([N-]S(=O)(=O)c2cccc(NC(=O)Cc3ccccc3F)c2)cc1

>  <Energy>  (11) 
53.63179381908696

>  <Genealogy>  (11) 
COc1ccc([N-]S(=O)(=O)c2cccc(NC(=O)Cc3ccccc3F)c2)cc1 (protonated)
COc1ccc([N-]S(=O)(=O)c2cccc(NC(=O)Cc3ccccc3F)c2)cc1 (3D coordinates assigned)
COc1ccc([N-]S(=O)(=O)c2cccc(NC(=O)Cc3ccccc3F)c2)cc1 (optimized conformer: 53.63179381908696 kcal/mol)

>  <smiles>  (11) 
COc1ccc(NS(=O)(=O)c2cccc(NC(=O)Cc3ccccc3F)c2)cc1

>  <score_type>  (11) 
oracle

>  <origin>  (11) 
adg

>  <m_score__min__energy>  (11) 
-10.66

>  <m_primary>  (11) 
energy

$$$$
11:0
     RDKit          3D

 63 68  0  0  0  0  0  0  0  0999 V2000
   68.5610   34.2010   53.0390 N   0  0  0  0  0  0  0  0  0  0  0  0
   67.3430   33.8800   52.3640 C   0  0  0  0  0  0  0  0  0  0  0  0
   66.1200   34.3600   52.8500 C   0  0  0  0  0  0  0  0  0  0  0  0
   64.9280   34.0450   52.1910 C   0  0  0  0  0  0  0  0  0  0  0  0
   64.9400   33.2520   51.0290 C   0  0  0  0  0  0  0  0  0  0  0  0
   63.6630   32.9320   50.3450 C   0  0  0  0  0  0  0  0  0  0  0  0
   63.1960   33.6840   49.2450 C   0  0  0  0  0  0  0  0  0  0  0  0
   61.9990   33.3360   48.7130 N   0  0  0  0  0  0  0  0  0  0  0  0
   61.3630   33.8920   47.7030 N   0  0  0  0  0  0  0  0  0  0  0  0
   60.2070   33.1970   47.5660 C   0  0  0  0  0  0  0  0  0  0  0  0
   59.1640   33.4770   46.5480 C   0  0  0  0  0  0  0  0  0  0  0  0
   57.8830   32.8970   46.6280 C   0  0  0  0  0  0  0  0  0  0  0  0
   56.9170   33.1760   45.6570 C   0  0  0  0  0  0  0  0  0  0  0  0
   57.2130   34.0360   44.5980 C   0  0  0  0  0  0  0  0  0  0  0  0
   58.4790   34.6190   44.5070 C   0  0  0  0  0  0  0  0  0  0  0  0
   59.4490   34.3440   45.4750 C   0  0  0  0  0  0  0  0  0  0  0  0
   60.0980   32.1980   48.4870 N   0  0  0  0  0  0  0  0  0  0  0  0
   61.2480   32.3360   49.1770 C   0  0  0  0  0  0  0  0  0  0  0  0
   61.6840   31.5780   50.2600 C   0  0  0  0  0  0  0  0  0  0  0  0
   60.8840   30.5240   50.8180 N   0  0  0  0  0  0  0  0  0  0  0  0
   61.4850   29.2070   51.0260 C   0  0  0  0  0  0  0  0  0  0  0  0
   61.0840   28.2650   49.8710 C   0  0  0  0  0  0  0  0  0  0  0  0
   59.9400   28.7970   49.0860 N   0  0  0  0  0  0  0  0  0  0  0  0
   59.3970   27.7740   48.1700 C   0  0  0  0  0  0  0  0  0  0  0  0
   58.8290   28.4350   46.9430 C   0  0  0  0  0  0  0  0  0  0  0  0
   57.6330   27.9560   46.3810 C   0  0  0  0  0  0  0  0  0  0  0  0
   57.0690   28.5950   45.2740 C   0  0  0  0  0  0  0  0  0  0  0  0
   57.6930   29.7180   44.7200 C   0  0  0  0  0  0  0  0  0  0  0  0
   56.9820   30.5210   43.3320 Cl  0  0  0  0  0  0  0  0  0  0  0  0
   58.8820   30.2020   45.2760 C   0  0  0  0  0  0  0  0  0  0  0  0
   59.4470   29.5660   46.3860 C   0  0  0  0  0  0  0  0  0  0  0  0
   58.8920   29.3300   49.9790 C   0  0  0  0  0  0  0  0  0  0  0  0
   59.4190   30.5780   50.7070 C   0  0  0  0  0  0  0  0  0  0  0  0
   62.8870   31.9040   50.8170 N   0  0  0  0  0  0  0  0  0  0  0  0
   66.1720   32.7660   50.5520 C   0  0  0  0  0  0  0  0  0  0  0  0
   67.3620   33.0800   51.2140 C   0  0  0  0  0  0  0  0  0  0  0  0
   68.6430   35.0710   53.6100 H   0  0  0  0  0  0  0  0  0  0  0  0
   69.3940   33.5730   52.9680 H   0  0  0  0  0  0  0  0  0  0  0  0
   66.0975   34.9871   53.7535 H   0  0  0  0  0  0  0  0  0  0  0  0
   63.9720   34.4206   52.5846 H   0  0  0  0  0  0  0  0  0  0  0  0
   63.7814   34.5204   48.8354 H   0  0  0  0  0  0  0  0  0  0  0  0
   61.7110   34.7090   47.1530 H   0  0  0  0  0  0  0  0  0  0  0  0
   57.6411   32.2198   47.4604 H   0  0  0  0  0  0  0  0  0  0  0  0
   55.9202   32.7163   45.7276 H   0  0  0  0  0  0  0  0  0  0  0  0
   56.4502   34.2543   43.8361 H   0  0  0  0  0  0  0  0  0  0  0  0
   58.7130   35.2958   43.6720 H   0  0  0  0  0  0  0  0  0  0  0  0
   60.4432   34.8085   45.3983 H   0  0  0  0  0  0  0  0  0  0  0  0
   62.5802   29.3051   51.0546 H   0  0  0  0  0  0  0  0  0  0  0  0
   61.1270   28.7891   51.9785 H   0  0  0  0  0  0  0  0  0  0  0  0
   61.9466   28.1397   49.2000 H   0  0  0  0  0  0  0  0  0  0  0  0
   60.7758   27.3044   50.3094 H   0  0  0  0  0  0  0  0  0  0  0  0
   60.2020   27.0854   47.8738 H   0  0  0  0  0  0  0  0  0  0  0  0
   58.5998   27.2155   48.6824 H   0  0  0  0  0  0  0  0  0  0  0  0
   57.1389   27.0741   46.8147 H   0  0  0  0  0  0  0  0  0  0  0  0
   56.1336   28.2149   44.8376 H   0  0  0  0  0  0  0  0  0  0  0  0
   59.3732   31.0841   44.8395 H   0  0  0  0  0  0  0  0  0  0  0  0
   60.3787   29.9531   46.8242 H   0  0  0  0  0  0  0  0  0  0  0  0
   58.0069   29.5998   49.3842 H   0  0  0  0  0  0  0  0  0  0  0  0
   58.6190   28.5637   50.7194 H   0  0  0  0  0  0  0  0  0  0  0  0
   59.1309   31.4765   50.1416 H   0  0  0  0  0  0  0  0  0  0  0  0
   58.9849   30.6128   51.7171 H   0  0  0  0  0  0  0  0  0  0  0  0
   66.1982   32.1345   49.6517 H   0  0  0  0  0  0  0  0  0  0  0  0
   68.3190   32.6969   50.8300 H   0  0  0  0  0  0  0  0  0  0  0  0
  1  2  1  0
  2  3  2  0
  3  4  1  0
  4  5  2  0
  5  6  1  0
  6  7  2  0
  7  8  1  0
  8  9  1  0
  9 10  2  0
 10 11  1  0
 11 12  2  0
 12 13  1  0
 13 14  2  0
 14 15  1  0
 15 16  2  0
 10 17  1  0
 17 18  2  0
 18 19  1  0
 19 20  1  0
 20 21  1  0
 21 22  1  0
 22 23  1  0
 23 24  1  0
 24 25  1  0
 25 26  2  0
 26 27  1  0
 27 28  2  0
 28 29  1  0
 28 30  1  0
 30 31  2  0
 23 32  1  0
 32 33  1  0
 19 34  2  0
  5 35  1  0
 35 36  2  0
 36  2  1  0
 34  6  1  0
 18  8  1  0
 33 20  1  0
 16 11  1  0
 31 25  1  0
  1 37  1  0
  1 38  1  0
  3 39  1  0
  4 40  1  0
  7 41  1  0
  9 42  1  0
 12 43  1  0
 13 44  1  0
 14 45  1  0
 15 46  1  0
 16 47  1  0
 21 48  1  0
 21 49  1  0
 22 50  1  0
 22 51  1  0
 24 52  1  0
 24 53  1  0
 26 54  1  0
 27 55  1  0
 30 56  1  0
 31 57  1  0
 32 58  1  0
 32 59  1  0
 33 60  1  0
 33 61  1  0
 35 62  1  0
 36 63  1  0
M  CHG  1   9   1
M  END
>  <UniqueID>  (12) 
11

>  <SMILES>  (12) 
Nc1ccc(-c2cn3[nH+]c(-c4ccccc4)nc3c(N3CCN(Cc4ccc(Cl)cc4)CC3)n2)cc1

>  <Energy>  (12) 
126.39024553049407

>  <Genealogy>  (12) 
Nc1ccc(-c2cn3[nH+]c(-c4ccccc4)nc3c(N3CCN(Cc4ccc(Cl)cc4)CC3)n2)cc1 (protonated)
Nc1ccc(-c2cn3[nH+]c(-c4ccccc4)nc3c(N3CCN(Cc4ccc(Cl)cc4)CC3)n2)cc1 (3D coordinates assigned)
Nc1ccc(-c2cn3[nH+]c(-c4ccccc4)nc3c(N3CCN(Cc4ccc(Cl)cc4)CC3)n2)cc1 (nonaromatic ring conformer: 126.39024553049407 kcal/mol)

>  <smiles>  (12) 
Nc1ccc(-c2cn3nc(-c4ccccc4)nc3c(N3CCN(Cc4ccc(Cl)cc4)CC3)n2)cc1

>  <score_type>  (12) 
oracle

>  <origin>  (12) 
adg

>  <m_score__min__energy>  (12) 
-7.8600000000000003

>  <m_primary>  (12) 
energy

$$$$
12:0
     RDKit          3D

 46 47  0  0  0  0  0  0  0  0999 V2000
   57.0820   34.2340   44.8980 C   0  0  0  0  0  0  0  0  0  0  0  0
   58.1620   34.0790   45.9270 C   0  0  0  0  0  0  0  0  0  0  0  0
   59.4170   34.6680   45.7280 C   0  0  0  0  0  0  0  0  0  0  0  0
   60.4140   34.5480   46.6980 C   0  0  0  0  0  0  0  0  0  0  0  0
   60.1750   33.8360   47.8850 C   0  0  0  0  0  0  0  0  0  0  0  0
   61.2210   33.6910   48.8630 N   0  0  0  0  0  0  0  0  0  0  0  0
   62.5320   32.5680   48.6800 S   0  0  0  0  0  0  0  0  0  0  0  0
   63.0690   32.6470   47.2800 O   0  0  0  0  0  0  0  0  0  0  0  0
   63.6230   32.9420   49.6430 O   0  0  0  0  0  0  0  0  0  0  0  0
   62.0180   30.8900   49.0360 C   0  0  0  0  0  0  0  0  0  0  0  0
   60.9470   30.4360   48.0860 C   0  0  0  0  0  0  0  0  0  0  0  0
   61.0510   30.6980   46.7110 C   0  0  0  0  0  0  0  0  0  0  0  0
   60.0420   30.2630   45.8520 C   0  0  0  0  0  0  0  0  0  0  0  0
   58.9400   29.5680   46.3620 C   0  0  0  0  0  0  0  0  0  0  0  0
   57.6670   28.9940   45.2810 S   0  0  0  0  0  0  0  0  0  0  0  0
   56.8290   27.9740   46.0010 O   0  0  0  0  0  0  0  0  0  0  0  0
   58.2980   28.3220   44.0920 O   0  0  0  0  0  0  0  0  0  0  0  0
   56.6470   30.3000   44.7290 N   0  0  0  0  0  0  0  0  0  0  0  0
   55.5260   29.7590   43.9500 C   0  0  0  0  0  0  0  0  0  0  0  0
   57.4330   31.2320   43.9110 C   0  0  0  0  0  0  0  0  0  0  0  0
   58.8700   29.3260   47.7400 C   0  0  0  0  0  0  0  0  0  0  0  0
   59.8650   29.7590   48.5600 N   0  0  0  0  0  0  0  0  0  0  0  0
   58.8990   33.2660   48.1040 C   0  0  0  0  0  0  0  0  0  0  0  0
   58.5940   32.5090   49.3690 C   0  0  0  0  0  0  0  0  0  0  0  0
   57.9020   33.4020   47.1250 C   0  0  0  0  0  0  0  0  0  0  0  0
   56.1136   34.3730   45.4009 H   0  0  0  0  0  0  0  0  0  0  0  0
   57.2977   35.1104   44.2692 H   0  0  0  0  0  0  0  0  0  0  0  0
   57.0425   33.3323   44.2692 H   0  0  0  0  0  0  0  0  0  0  0  0
   59.6182   35.2280   44.8028 H   0  0  0  0  0  0  0  0  0  0  0  0
   61.3957   35.0153   46.5311 H   0  0  0  0  0  0  0  0  0  0  0  0
   61.1380   34.1660   49.7870 H   0  0  0  0  0  0  0  0  0  0  0  0
   62.8866   30.2215   48.9432 H   0  0  0  0  0  0  0  0  0  0  0  0
   61.6122   30.8598   50.0580 H   0  0  0  0  0  0  0  0  0  0  0  0
   61.9210   31.2418   46.3142 H   0  0  0  0  0  0  0  0  0  0  0  0
   60.1126   30.4664   44.7733 H   0  0  0  0  0  0  0  0  0  0  0  0
   54.7506   29.3848   44.6346 H   0  0  0  0  0  0  0  0  0  0  0  0
   55.1035   30.5524   43.3159 H   0  0  0  0  0  0  0  0  0  0  0  0
   55.8842   28.9346   43.3159 H   0  0  0  0  0  0  0  0  0  0  0  0
   58.0018   31.9065   44.5679 H   0  0  0  0  0  0  0  0  0  0  0  0
   58.1296   30.6649   43.2761 H   0  0  0  0  0  0  0  0  0  0  0  0
   56.7565   31.8229   43.2761 H   0  0  0  0  0  0  0  0  0  0  0  0
   58.0090   28.7850   48.1595 H   0  0  0  0  0  0  0  0  0  0  0  0
   58.8454   33.1329   50.2393 H   0  0  0  0  0  0  0  0  0  0  0  0
   57.5238   32.2561   49.3960 H   0  0  0  0  0  0  0  0  0  0  0  0
   59.1899   31.5848   49.3960 H   0  0  0  0  0  0  0  0  0  0  0  0
   56.9050   32.9718   47.3010 H   0  0  0  0  0  0  0  0  0  0  0  0
  1  2  1  0
  2  3  2  0
  3  4  1  0
  4  5  2  0
  5  6  1  0
  6  7  1  0
  7  8  2  0
  7  9  2  0
  7 10  1  0
 10 11  1  0
 11 12  2  0
 12 13  1  0
 13 14  2  0
 14 15  1  0
 15 16  2  0
 15 17  2  0
 15 18  1  0
 18 19  1  0
 18 20  1  0
 14 21  1  0
 21 22  2  0
  5 23  1  0
 23 24  1  0
 23 25  2  0
 25  2  1  0
 22 11  1  0
  1 26  1  0
  1 27  1  0
  1 28  1  0
  3 29  1  0
  4 30  1  0
  6 31  1  0
 10 32  1  0
 10 33  1  0
 12 34  1  0
 13 35  1  0
 19 36  1  0
 19 37  1  0
 19 38  1  0
 20 39  1  0
 20 40  1  0
 20 41  1  0
 21 42  1  0
 24 43  1  0
 24 44  1  0
 24 45  1  0
 25 46  1  0
M  END
>  <UniqueID>  (13) 
12

>  <SMILES>  (13) 
Cc1ccc(NS(=O)(=O)Cc2ccc(S(=O)(=O)N(C)C)cn2)c(C)c1

>  <Energy>  (13) 
37.80422447560479

>  <Genealogy>  (13) 
Cc1ccc(NS(=O)(=O)Cc2ccc(S(=O)(=O)N(C)C)cn2)c(C)c1 (3D coordinates assigned)
Cc1ccc(NS(=O)(=O)Cc2ccc(S(=O)(=O)N(C)C)cn2)c(C)c1 (optimized conformer: 37.80422447560479 kcal/mol)

>  <smiles>  (13) 
Cc1ccc(NS(=O)(=O)Cc2ccc(S(=O)(=O)N(C)C)cn2)c(C)c1

>  <score_type>  (13) 
oracle

>  <origin>  (13) 
adg

>  <m_score__min__energy>  (13) 
-8.6999999999999993

>  <m_primary>  (13) 
energy

$$$$
13:0
     RDKit          3D

 52 55  0  0  0  0  0  0  0  0999 V2000
   51.3740   20.4760   45.3050 C   0  0  0  0  0  0  0  0  0  0  0  0
   50.9430   21.7390   44.7160 N   0  0  0  0  0  0  0  0  0  0  0  0
   52.0170   23.0140   45.2090 S   0  0  0  0  0  0  0  0  0  0  0  0
   52.9290   23.3590   44.0660 O   0  0  0  0  0  0  0  0  0  0  0  0
   51.2100   24.2310   45.5740 O   0  0  0  0  0  0  0  0  0  0  0  0
   52.9920   22.4980   46.5830 C   0  0  0  0  0  0  0  0  0  0  0  0
   52.3830   22.1540   47.7960 C   0  0  0  0  0  0  0  0  0  0  0  0
   53.1630   21.7490   48.8800 C   0  0  0  0  0  0  0  0  0  0  0  0
   54.5550   21.6890   48.7630 C   0  0  0  0  0  0  0  0  0  0  0  0
   55.1840   22.0350   47.5530 C   0  0  0  0  0  0  0  0  0  0  0  0
   56.6580   21.9630   47.4220 C   0  0  0  0  0  0  0  0  0  0  0  0
   57.2090   20.8660   47.1300 O   0  0  0  0  0  0  0  0  0  0  0  0
   57.4520   23.1400   47.6210 N   0  0  0  0  0  0  0  0  0  0  0  0
   57.4920   24.2990   46.7770 C   0  0  0  0  0  0  0  0  0  0  0  0
   57.6930   25.8950   47.2760 S   0  0  0  0  0  0  0  0  0  0  0  0
   57.6250   26.5060   45.7040 C   0  0  0  0  0  0  0  0  0  0  0  0
   57.7390   27.9330   45.3270 C   0  0  0  0  0  0  0  0  0  0  0  0
   58.9720   28.5990   45.4460 C   0  0  0  0  0  0  0  0  0  0  0  0
   59.0890   29.9470   45.0950 C   0  0  0  0  0  0  0  0  0  0  0  0
   57.9690   30.6580   44.6280 C   0  0  0  0  0  0  0  0  0  0  0  0
   58.0500   32.0060   44.2520 O   0  0  0  0  0  0  0  0  0  0  0  0
   58.4740   33.0590   45.0770 C   0  0  0  0  0  0  0  0  0  0  0  0
   59.1640   34.1750   44.5680 C   0  0  0  0  0  0  0  0  0  0  0  0
   59.5860   35.1930   45.4270 C   0  0  0  0  0  0  0  0  0  0  0  0
   59.3350   35.1020   46.7990 C   0  0  0  0  0  0  0  0  0  0  0  0
   58.6650   33.9870   47.3130 C   0  0  0  0  0  0  0  0  0  0  0  0
   58.2430   32.9670   46.4550 C   0  0  0  0  0  0  0  0  0  0  0  0
   56.7480   29.9930   44.4880 C   0  0  0  0  0  0  0  0  0  0  0  0
   56.6270   28.6460   44.8390 C   0  0  0  0  0  0  0  0  0  0  0  0
   57.4500   25.5090   44.8040 N   0  0  0  0  0  0  0  0  0  0  0  0
   57.3760   24.2810   45.3870 C   0  0  0  0  0  0  0  0  0  0  0  0
   57.1900   23.0630   44.5780 C   0  0  0  0  0  0  0  0  0  0  0  0
   55.9780   22.8750   43.8520 N   0  0  0  0  0  0  0  0  0  0  0  0
   58.0910   22.1840   44.5180 O   0  0  0  0  0  0  0  0  0  0  0  0
   54.3880   22.4460   46.4650 C   0  0  0  0  0  0  0  0  0  0  0  0
   51.3471   20.5548   46.4018 H   0  0  0  0  0  0  0  0  0  0  0  0
   50.6999   19.6703   44.9787 H   0  0  0  0  0  0  0  0  0  0  0  0
   52.4000   20.2504   44.9787 H   0  0  0  0  0  0  0  0  0  0  0  0
   51.2885   22.2030   47.8946 H   0  0  0  0  0  0  0  0  0  0  0  0
   52.6808   21.4759   49.8302 H   0  0  0  0  0  0  0  0  0  0  0  0
   55.1623   21.3692   49.6226 H   0  0  0  0  0  0  0  0  0  0  0  0
   59.8521   28.0543   45.8186 H   0  0  0  0  0  0  0  0  0  0  0  0
   60.0612   30.4538   45.1844 H   0  0  0  0  0  0  0  0  0  0  0  0
   59.3718   34.2461   43.4902 H   0  0  0  0  0  0  0  0  0  0  0  0
   60.1167   36.0676   45.0228 H   0  0  0  0  0  0  0  0  0  0  0  0
   59.6639   35.9062   47.4736 H   0  0  0  0  0  0  0  0  0  0  0  0
   58.4700   33.9126   48.3930 H   0  0  0  0  0  0  0  0  0  0  0  0
   57.7263   32.0867   46.8650 H   0  0  0  0  0  0  0  0  0  0  0  0
   55.8740   30.5350   44.0978 H   0  0  0  0  0  0  0  0  0  0  0  0
   55.6565   28.1390   44.7334 H   0  0  0  0  0  0  0  0  0  0  0  0
   55.0560   23.1290   44.2710 H   0  0  0  0  0  0  0  0  0  0  0  0
   54.8660   22.7283   45.5154 H   0  0  0  0  0  0  0  0  0  0  0  0
  1  2  1  0
  2  3  1  0
  3  4  2  0
  3  5  2  0
  3  6  1  0
  6  7  2  0
  7  8  1  0
  8  9  2  0
  9 10  1  0
 10 11  1  0
 11 12  2  0
 11 13  1  0
 13 14  1  0
 14 15  1  0
 15 16  1  0
 16 17  1  0
 17 18  2  0
 18 19  1  0
 19 20  2  0
 20 21  1  0
 21 22  1  0
 22 23  2  0
 23 24  1  0
 24 25  2  0
 25 26  1  0
 26 27  2  0
 20 28  1  0
 28 29  2  0
 16 30  2  0
 30 31  1  0
 31 32  1  0
 32 33  1  0
 32 34  2  0
 10 35  2  0
 35  6  1  0
 31 14  2  0
 29 17  1  0
 27 22  1  0
  1 36  1  0
  1 37  1  0
  1 38  1  0
  7 39  1  0
  8 40  1  0
  9 41  1  0
 18 42  1  0
 19 43  1  0
 23 44  1  0
 24 45  1  0
 25 46  1  0
 26 47  1  0
 27 48  1  0
 28 49  1  0
 29 50  1  0
 33 51  1  0
 35 52  1  0
M  CHG  3   2  -1  13  -1  33  -1
M  END
>  <UniqueID>  (14) 
13

>  <SMILES>  (14) 
C[N-]S(=O)(=O)c1cccc(C(=O)[N-]c2sc(-c3ccc(Oc4ccccc4)cc3)nc2C([NH-])=O)c1

>  <Energy>  (14) 
93.71545514904129

>  <Genealogy>  (14) 
C[N-]S(=O)(=O)c1cccc(C(=O)[N-]c2sc(-c3ccc(Oc4ccccc4)cc3)nc2C([NH-])=O)c1 (protonated)
C[N-]S(=O)(=O)c1cccc(C(=O)[N-]c2sc(-c3ccc(Oc4ccccc4)cc3)nc2C([NH-])=O)c1 (3D coordinates assigned)
C[N-]S(=O)(=O)c1cccc(C(=O)[N-]c2sc(-c3ccc(Oc4ccccc4)cc3)nc2C([NH-])=O)c1 (optimized conformer: 93.71545514904129 kcal/mol)

>  <smiles>  (14) 
CNS(=O)(=O)c1cccc(C(=O)Nc2sc(-c3ccc(Oc4ccccc4)cc3)nc2C(N)=O)c1

>  <score_type>  (14) 
oracle

>  <origin>  (14) 
adg

>  <m_score__min__energy>  (14) 
-14.44

>  <m_primary>  (14) 
energy

$$$$
14:0
     RDKit          3D

 39 41  0  0  0  0  0  0  0  0999 V2000
   59.1030   29.5640   47.1280 O   0  0  0  0  0  0  0  0  0  0  0  0
   58.7260   30.7380   46.8730 C   0  0  0  0  0  0  0  0  0  0  0  0
   58.8140   31.7330   47.9000 N   0  0  0  0  0  0  0  0  0  0  0  0
   59.9420   31.9000   48.8120 C   0  0  0  0  0  0  0  0  0  0  0  0
   61.1520   32.4080   48.0800 C   0  0  0  0  0  0  0  0  0  0  0  0
   61.0160   33.3440   47.0400 C   0  0  0  0  0  0  0  0  0  0  0  0
   62.1490   33.8340   46.3820 C   0  0  0  0  0  0  0  0  0  0  0  0
   63.4220   33.4090   46.7680 C   0  0  0  0  0  0  0  0  0  0  0  0
   63.5660   32.4880   47.8100 C   0  0  0  0  0  0  0  0  0  0  0  0
   62.4360   31.9890   48.4640 C   0  0  0  0  0  0  0  0  0  0  0  0
   58.1290   31.0280   45.5570 C   0  0  0  0  0  0  0  0  0  0  0  0
   58.4370   32.2550   44.9500 C   0  0  0  0  0  0  0  0  0  0  0  0
   57.9780   32.5430   43.6630 C   0  0  0  0  0  0  0  0  0  0  0  0
   57.2140   31.6060   42.9670 C   0  0  0  0  0  0  0  0  0  0  0  0
   56.8910   30.3860   43.5640 C   0  0  0  0  0  0  0  0  0  0  0  0
   57.3130   30.0960   44.8690 C   0  0  0  0  0  0  0  0  0  0  0  0
   56.9500   28.8240   45.4230 N   0  0  0  0  0  0  0  0  0  0  0  0
   57.3340   27.5440   44.9110 C   0  0  0  0  0  0  0  0  0  0  0  0
   57.8210   27.4470   43.7520 O   0  0  0  0  0  0  0  0  0  0  0  0
   57.1970   26.3380   45.7580 C   0  0  0  0  0  0  0  0  0  0  0  0
   55.9460   25.9570   46.2750 C   0  0  0  0  0  0  0  0  0  0  0  0
   54.8040   26.7020   46.0040 O   0  0  0  0  0  0  0  0  0  0  0  0
   55.8450   24.8590   47.0680 N   0  0  0  0  0  0  0  0  0  0  0  0
   56.9330   24.1110   47.3750 C   0  0  0  0  0  0  0  0  0  0  0  0
   56.8140   23.1000   48.1150 O   0  0  0  0  0  0  0  0  0  0  0  0
   58.1520   24.4530   46.8860 N   0  0  0  0  0  0  0  0  0  0  0  0
   58.3100   25.5390   46.0880 C   0  0  0  0  0  0  0  0  0  0  0  0
   59.4570   25.8110   45.6420 O   0  0  0  0  0  0  0  0  0  0  0  0
   59.6671   32.6200   49.5969 H   0  0  0  0  0  0  0  0  0  0  0  0
   60.1837   30.9226   49.2551 H   0  0  0  0  0  0  0  0  0  0  0  0
   60.0158   33.6921   46.7428 H   0  0  0  0  0  0  0  0  0  0  0  0
   62.0370   34.5553   45.5591 H   0  0  0  0  0  0  0  0  0  0  0  0
   64.3118   33.7990   46.2520 H   0  0  0  0  0  0  0  0  0  0  0  0
   64.5692   32.1559   48.1153 H   0  0  0  0  0  0  0  0  0  0  0  0
   62.5531   31.2646   49.2834 H   0  0  0  0  0  0  0  0  0  0  0  0
   59.0442   32.9952   45.4917 H   0  0  0  0  0  0  0  0  0  0  0  0
   58.2192   33.5100   43.1974 H   0  0  0  0  0  0  0  0  0  0  0  0
   56.8660   31.8285   41.9475 H   0  0  0  0  0  0  0  0  0  0  0  0
   56.2999   29.6455   43.0052 H   0  0  0  0  0  0  0  0  0  0  0  0
  1  2  2  0
  2  3  1  0
  3  4  1  0
  4  5  1  0
  5  6  2  0
  6  7  1  0
  7  8  2  0
  8  9  1  0
  9 10  2  0
  2 11  1  0
 11 12  2  0
 12 13  1  0
 13 14  2  0
 14 15  1  0
 15 16  2  0
 16 17  1  0
 17 18  1  0
 18 19  2  0
 18 20  1  0
 20 21  2  0
 21 22  1  0
 21 23  1  0
 23 24  1  0
 24 25  2  0
 24 26  1  0
 26 27  1  0
 27 28  2  0
 10  5  1  0
 16 11  1  0
 27 20  1  0
  4 29  1  0
  4 30  1  0
  6 31  1  0
  7 32  1  0
  8 33  1  0
  9 34  1  0
 10 35  1  0
 12 36  1  0
 13 37  1  0
 14 38  1  0
 15 39  1  0
M  CHG  5   3  -1  17  -1  22  -1  23  -1  26  -1
M  END
>  <UniqueID>  (15) 
14

>  <SMILES>  (15) 
O=C([N-]Cc1ccccc1)c1ccccc1[N-]C(=O)c1c([O-])[n-]c(=O)[n-]c1=O

>  <Energy>  (15) 
55.830787953090145

>  <Genealogy>  (15) 
O=C([N-]Cc1ccccc1)c1ccccc1[N-]C(=O)c1c([O-])[n-]c(=O)[n-]c1=O (protonated)
O=C([N-]Cc1ccccc1)c1ccccc1[N-]C(=O)c1c([O-])[n-]c(=O)[n-]c1=O (3D coordinates assigned)
O=C([N-]Cc1ccccc1)c1ccccc1[N-]C(=O)c1c([O-])[n-]c(=O)[n-]c1=O (optimized conformer: 55.830787953090145 kcal/mol)

>  <smiles>  (15) 
O=C(NCc1ccccc1)c1ccccc1NC(=O)c1c(O)[nH]c(=O)[nH]c1=O

>  <score_type>  (15) 
oracle

>  <origin>  (15) 
adg

>  <m_score__min__energy>  (15) 
-18.559999999999999

>  <m_primary>  (15) 
energy

$$$$
15:0
     RDKit          3D

 29 30  0  0  0  0  0  0  0  0999 V2000
   57.1480   28.2050   54.4610 O   0  0  0  0  0  0  0  0  0  0  0  0
   56.5200   28.8830   53.6060 C   0  0  0  0  0  0  0  0  0  0  0  0
   55.1040   28.6920   53.4830 N   0  0  0  0  0  0  0  0  0  0  0  0
   54.1710   29.6180   52.9100 C   0  0  0  0  0  0  0  0  0  0  0  0
   54.4190   30.2470   51.6800 C   0  0  0  0  0  0  0  0  0  0  0  0
   53.4820   31.1290   51.1370 C   0  0  0  0  0  0  0  0  0  0  0  0
   52.2690   31.3880   51.8030 C   0  0  0  0  0  0  0  0  0  0  0  0
   51.2850   32.3280   51.2140 C   0  0  0  0  0  0  0  0  0  0  0  0
   51.0220   32.2860   49.9820 O   0  0  0  0  0  0  0  0  0  0  0  0
   50.6370   33.2710   52.0030 O   0  0  0  0  0  0  0  0  0  0  0  0
   52.0140   30.7320   53.0260 C   0  0  0  0  0  0  0  0  0  0  0  0
   50.8570   30.9350   53.7050 F   0  0  0  0  0  0  0  0  0  0  0  0
   52.9570   29.8500   53.5640 C   0  0  0  0  0  0  0  0  0  0  0  0
   57.2380   29.9030   52.8090 C   0  0  0  0  0  0  0  0  0  0  0  0
   57.3870   31.2140   53.2820 C   0  0  0  0  0  0  0  0  0  0  0  0
   58.0630   32.1550   52.5020 C   0  0  0  0  0  0  0  0  0  0  0  0
   58.6010   31.7880   51.2590 C   0  0  0  0  0  0  0  0  0  0  0  0
   59.2880   32.8060   50.3860 C   0  0  0  0  0  0  0  0  0  0  0  0
   58.6420   32.9180   49.1670 F   0  0  0  0  0  0  0  0  0  0  0  0
   60.6010   32.4370   50.1470 F   0  0  0  0  0  0  0  0  0  0  0  0
   59.2730   34.0340   51.0200 F   0  0  0  0  0  0  0  0  0  0  0  0
   58.3980   30.4740   50.8080 C   0  0  0  0  0  0  0  0  0  0  0  0
   57.7350   29.5770   51.5840 N   0  0  0  0  0  0  0  0  0  0  0  0
   55.3562   30.0443   51.1409 H   0  0  0  0  0  0  0  0  0  0  0  0
   53.6940   31.6264   50.1791 H   0  0  0  0  0  0  0  0  0  0  0  0
   52.7414   29.3337   54.5111 H   0  0  0  0  0  0  0  0  0  0  0  0
   56.9744   31.4998   54.2608 H   0  0  0  0  0  0  0  0  0  0  0  0
   58.1741   33.1879   52.8635 H   0  0  0  0  0  0  0  0  0  0  0  0
   58.7775   30.1692   49.8216 H   0  0  0  0  0  0  0  0  0  0  0  0
  1  2  2  0
  2  3  1  0
  3  4  1  0
  4  5  2  0
  5  6  1  0
  6  7  2  0
  7  8  1  0
  8  9  2  0
  8 10  1  0
  7 11  1  0
 11 12  1  0
 11 13  2  0
  2 14  1  0
 14 15  2  0
 15 16  1  0
 16 17  2  0
 17 18  1  0
 18 19  1  0
 18 20  1  0
 18 21  1  0
 17 22  1  0
 22 23  2  0
 13  4  1  0
 23 14  1  0
  5 24  1  0
  6 25  1  0
 13 26  1  0
 15 27  1  0
 16 28  1  0
 22 29  1  0
M  CHG  2   3  -1  10  -1
M  END
>  <UniqueID>  (16) 
15

>  <SMILES>  (16) 
O=C([N-]c1ccc(C(=O)[O-])c(F)c1)c1ccc(C(F)(F)F)cn1

>  <Energy>  (16) 
38.48370791847922

>  <Genealogy>  (16) 
O=C([N-]c1ccc(C(=O)[O-])c(F)c1)c1ccc(C(F)(F)F)cn1 (protonated)
O=C([N-]c1ccc(C(=O)[O-])c(F)c1)c1ccc(C(F)(F)F)cn1 (3D coordinates assigned)
O=C([N-]c1ccc(C(=O)[O-])c(F)c1)c1ccc(C(F)(F)F)cn1 (optimized conformer: 38.48370791847922 kcal/mol)

>  <smiles>  (16) 
O=C(Nc1ccc(C(=O)O)c(F)c1)c1ccc(C(F)(F)F)cn1

>  <score_type>  (16) 
oracle

>  <origin>  (16) 
adg

>  <m_score__min__energy>  (16) 
-10.449999999999999

>  <m_primary>  (16) 
energy

$$$$
16:0
     RDKit          3D

 50 52  0  0  0  0  0  0  0  0999 V2000
   56.9610   27.4090   46.2390 O   0  0  0  0  0  0  0  0  0  0  0  0
   57.5840   28.5050   46.2900 C   0  0  0  0  0  0  0  0  0  0  0  0
   58.3850   28.8080   47.4380 N   0  0  0  0  0  0  0  0  0  0  0  0
   59.5090   27.9880   47.8790 C   0  0  0  0  0  0  0  0  0  0  0  0
   60.1300   28.5410   49.1640 C   0  0  0  0  0  0  0  0  0  0  0  0
   59.6670   30.2440   49.4860 S   0  0  0  0  0  0  0  0  0  0  0  0
   58.3110   30.2070   50.1310 O   0  0  0  0  0  0  0  0  0  0  0  0
   60.6300   30.8560   50.4640 O   0  0  0  0  0  0  0  0  0  0  0  0
   59.6250   31.1510   47.9750 N   0  0  2  0  0  0  0  0  0  0  0  0
   60.8350   30.9340   47.1440 C   0  0  0  0  0  0  0  0  0  0  0  0
   61.9830   31.8300   47.5500 C   0  0  0  0  0  0  0  0  0  0  0  0
   62.2930   32.9850   46.8100 C   0  0  0  0  0  0  0  0  0  0  0  0
   63.3530   33.8080   47.1990 C   0  0  0  0  0  0  0  0  0  0  0  0
   64.1190   33.4830   48.3200 C   0  0  0  0  0  0  0  0  0  0  0  0
   63.8330   32.3260   49.0510 C   0  0  0  0  0  0  0  0  0  0  0  0
   64.5840   32.0060   50.1330 F   0  0  0  0  0  0  0  0  0  0  0  0
   62.7730   31.4990   48.6650 C   0  0  0  0  0  0  0  0  0  0  0  0
   59.3440   32.5920   48.1960 C   0  0  0  0  0  0  0  0  0  0  0  0
   58.6940   33.2960   47.0250 C   0  0  0  0  0  0  0  0  0  0  0  0
   57.3800   33.1260   46.6010 C   0  0  0  0  0  0  0  0  0  0  0  0
   57.0800   33.8120   45.4190 C   0  0  0  0  0  0  0  0  0  0  0  0
   58.1570   34.5060   44.8880 C   0  0  0  0  0  0  0  0  0  0  0  0
   59.4840   34.2550   45.8870 S   0  0  0  0  0  0  0  0  0  0  0  0
   57.4710   29.4710   45.1660 C   0  0  0  0  0  0  0  0  0  0  0  0
   58.5940   30.2340   44.7870 C   0  0  0  0  0  0  0  0  0  0  0  0
   58.5110   31.1470   43.7320 C   0  0  0  0  0  0  0  0  0  0  0  0
   57.3100   31.3140   43.0420 C   0  0  0  0  0  0  0  0  0  0  0  0
   56.1880   30.5690   43.4070 C   0  0  0  0  0  0  0  0  0  0  0  0
   56.2600   29.6530   44.4620 C   0  0  0  0  0  0  0  0  0  0  0  0
   55.1420   28.9610   44.7900 F   0  0  0  0  0  0  0  0  0  0  0  0
   59.1541   26.9635   48.0645 H   0  0  0  0  0  0  0  0  0  0  0  0
   60.2761   27.9972   47.0906 H   0  0  0  0  0  0  0  0  0  0  0  0
   59.7976   27.9210   50.0096 H   0  0  0  0  0  0  0  0  0  0  0  0
   61.2228   28.5135   49.0411 H   0  0  0  0  0  0  0  0  0  0  0  0
   58.7970   30.7930   47.4450 H   0  0  0  0  0  0  0  0  0  0  0  0
   61.1515   29.8857   47.2483 H   0  0  0  0  0  0  0  0  0  0  0  0
   60.5739   31.1754   46.1031 H   0  0  0  0  0  0  0  0  0  0  0  0
   61.6983   33.2417   45.9209 H   0  0  0  0  0  0  0  0  0  0  0  0
   63.5846   34.7144   46.6204 H   0  0  0  0  0  0  0  0  0  0  0  0
   64.9478   34.1374   48.6282 H   0  0  0  0  0  0  0  0  0  0  0  0
   62.5563   30.5847   49.2369 H   0  0  0  0  0  0  0  0  0  0  0  0
   58.6744   32.6814   49.0642 H   0  0  0  0  0  0  0  0  0  0  0  0
   60.3185   33.0787   48.3493 H   0  0  0  0  0  0  0  0  0  0  0  0
   56.6468   32.5109   47.1433 H   0  0  0  0  0  0  0  0  0  0  0  0
   56.0830   33.8018   44.9543 H   0  0  0  0  0  0  0  0  0  0  0  0
   58.1444   35.1149   43.9720 H   0  0  0  0  0  0  0  0  0  0  0  0
   59.5445   30.1097   45.3266 H   0  0  0  0  0  0  0  0  0  0  0  0
   59.3949   31.7354   43.4450 H   0  0  0  0  0  0  0  0  0  0  0  0
   57.2476   32.0322   42.2111 H   0  0  0  0  0  0  0  0  0  0  0  0
   55.2418   30.7027   42.8623 H   0  0  0  0  0  0  0  0  0  0  0  0
  1  2  2  0
  2  3  1  0
  3  4  1  0
  4  5  1  0
  5  6  1  0
  6  7  2  0
  6  8  2  0
  6  9  1  0
  9 10  1  0
 10 11  1  0
 11 12  2  0
 12 13  1  0
 13 14  2  0
 14 15  1  0
 15 16  1  0
 15 17  2  0
  9 18  1  0
 18 19  1  0
 19 20  2  0
 20 21  1  0
 21 22  2  0
 22 23  1  0
  2 24  1  0
 24 25  2  0
 25 26  1  0
 26 27  2  0
 27 28  1  0
 28 29  2  0
 29 30  1  0
 17 11  1  0
 23 19  1  0
 29 24  1  0
  4 31  1  0
  4 32  1  0
  5 33  1  0
  5 34  1  0
  9 35  1  6
 10 36  1  0
 10 37  1  0
 12 38  1  0
 13 39  1  0
 14 40  1  0
 17 41  1  0
 18 42  1  0
 18 43  1  0
 20 44  1  0
 21 45  1  0
 22 46  1  0
 25 47  1  0
 26 48  1  0
 27 49  1  0
 28 50  1  0
M  CHG  2   3  -1   9   1
M  END
>  <UniqueID>  (17) 
16

>  <SMILES>  (17) 
O=C([N-]CCS(=O)(=O)[N@H+](Cc1cccc(F)c1)Cc1cccs1)c1ccccc1F

>  <Energy>  (17) 
77.12478827599716

>  <Genealogy>  (17) 
O=C([N-]CCS(=O)(=O)[NH+](Cc1cccc(F)c1)Cc1cccs1)c1ccccc1F (protonated)
O=C([N-]CCS(=O)(=O)[N@H+](Cc1cccc(F)c1)Cc1cccs1)c1ccccc1F (chirality)
O=C([N-]CCS(=O)(=O)[N@H+](Cc1cccc(F)c1)Cc1cccs1)c1ccccc1F (3D coordinates assigned)
O=C([N-]CCS(=O)(=O)[N@H+](Cc1cccc(F)c1)Cc1cccs1)c1ccccc1F (optimized conformer: 77.12478827599716 kcal/mol)

>  <smiles>  (17) 
O=C(NCCS(=O)(=O)N(Cc1cccc(F)c1)Cc1cccs1)c1ccccc1F

>  <score_type>  (17) 
oracle

>  <origin>  (17) 
adg

>  <m_score__min__energy>  (17) 
-9.1400000000000006

>  <m_primary>  (17) 
energy

$$$$
17:0
     RDKit          3D

 48 51  0  0  0  0  0  0  0  0999 V2000
   64.4590   31.6620   51.1130 C   0  0  0  0  0  0  0  0  0  0  0  0
   64.3960   33.1020   50.0640 S   0  0  0  0  0  0  0  0  0  0  0  0
   64.4160   34.3410   50.9140 O   0  0  0  0  0  0  0  0  0  0  0  0
   65.6110   33.0870   49.1780 O   0  0  0  0  0  0  0  0  0  0  0  0
   62.9410   33.0980   49.0710 C   0  0  0  0  0  0  0  0  0  0  0  0
   63.0250   33.2790   47.6830 C   0  0  0  0  0  0  0  0  0  0  0  0
   61.8680   33.2660   46.8990 C   0  0  0  0  0  0  0  0  0  0  0  0
   60.6120   33.0500   47.4880 C   0  0  0  0  0  0  0  0  0  0  0  0
   59.3920   33.0370   46.6480 C   0  0  0  0  0  0  0  0  0  0  0  0
   58.7610   34.2180   46.2580 C   0  0  0  0  0  0  0  0  0  0  0  0
   57.3700   33.8300   45.3970 S   0  0  0  0  0  0  0  0  0  0  0  0
   57.5690   32.1680   45.4730 C   0  0  0  0  0  0  0  0  0  0  0  0
   56.6580   31.2400   44.8740 N   0  0  0  0  0  0  0  0  0  0  0  0
   57.0110   30.2740   43.8770 C   0  0  0  0  0  0  0  0  0  0  0  0
   57.1120   30.6280   42.6700 O   0  0  0  0  0  0  0  0  0  0  0  0
   57.2300   28.8590   44.2550 C   0  0  0  0  0  0  0  0  0  0  0  0
   57.9230   27.9880   43.3920 C   0  0  0  0  0  0  0  0  0  0  0  0
   58.1450   26.6570   43.7580 C   0  0  0  0  0  0  0  0  0  0  0  0
   57.6780   26.1800   44.9850 C   0  0  0  0  0  0  0  0  0  0  0  0
   57.8980   24.8890   45.3380 F   0  0  0  0  0  0  0  0  0  0  0  0
   56.9870   27.0330   45.8480 C   0  0  0  0  0  0  0  0  0  0  0  0
   56.7640   28.3670   45.4890 C   0  0  0  0  0  0  0  0  0  0  0  0
   58.7210   31.8690   46.2090 C   0  0  0  0  0  0  0  0  0  0  0  0
   59.1650   30.4920   46.5220 C   0  0  0  0  0  0  0  0  0  0  0  0
   59.9660   29.7800   45.6140 C   0  0  0  0  0  0  0  0  0  0  0  0
   60.3910   28.4840   45.9150 C   0  0  0  0  0  0  0  0  0  0  0  0
   60.0170   27.8880   47.1230 C   0  0  0  0  0  0  0  0  0  0  0  0
   59.2180   28.5880   48.0310 C   0  0  0  0  0  0  0  0  0  0  0  0
   58.7930   29.8850   47.7350 C   0  0  0  0  0  0  0  0  0  0  0  0
   60.5310   32.8720   48.8790 C   0  0  0  0  0  0  0  0  0  0  0  0
   61.6880   32.8890   49.6630 C   0  0  0  0  0  0  0  0  0  0  0  0
   64.4453   31.9755   52.1673 H   0  0  0  0  0  0  0  0  0  0  0  0
   63.5880   31.0217   50.9095 H   0  0  0  0  0  0  0  0  0  0  0  0
   65.3826   31.1002   50.9095 H   0  0  0  0  0  0  0  0  0  0  0  0
   64.0058   33.4319   47.2091 H   0  0  0  0  0  0  0  0  0  0  0  0
   61.9420   33.4261   45.8132 H   0  0  0  0  0  0  0  0  0  0  0  0
   59.1152   35.2360   46.4776 H   0  0  0  0  0  0  0  0  0  0  0  0
   58.2920   28.3573   42.4238 H   0  0  0  0  0  0  0  0  0  0  0  0
   58.6885   25.9841   43.0784 H   0  0  0  0  0  0  0  0  0  0  0  0
   56.6170   26.6553   46.8126 H   0  0  0  0  0  0  0  0  0  0  0  0
   56.2217   29.0347   46.1746 H   0  0  0  0  0  0  0  0  0  0  0  0
   60.2599   30.2452   44.6615 H   0  0  0  0  0  0  0  0  0  0  0  0
   61.0202   27.9321   45.2013 H   0  0  0  0  0  0  0  0  0  0  0  0
   60.3519   26.8672   47.3590 H   0  0  0  0  0  0  0  0  0  0  0  0
   58.9234   28.1167   48.9803 H   0  0  0  0  0  0  0  0  0  0  0  0
   58.1654   30.4335   48.4528 H   0  0  0  0  0  0  0  0  0  0  0  0
   59.5509   32.7183   49.3542 H   0  0  0  0  0  0  0  0  0  0  0  0
   61.6147   32.7376   50.7501 H   0  0  0  0  0  0  0  0  0  0  0  0
  1  2  1  0
  2  3  2  0
  2  4  2  0
  2  5  1  0
  5  6  2  0
  6  7  1  0
  7  8  2  0
  8  9  1  0
  9 10  2  0
 10 11  1  0
 11 12  1  0
 12 13  1  0
 13 14  1  0
 14 15  2  0
 14 16  1  0
 16 17  2  0
 17 18  1  0
 18 19  2  0
 19 20  1  0
 19 21  1  0
 21 22  2  0
 12 23  2  0
 23 24  1  0
 24 25  2  0
 25 26  1  0
 26 27  2  0
 27 28  1  0
 28 29  2  0
  8 30  1  0
 30 31  2  0
 31  5  1  0
 23  9  1  0
 29 24  1  0
 22 16  1  0
  1 32  1  0
  1 33  1  0
  1 34  1  0
  6 35  1  0
  7 36  1  0
 10 37  1  0
 17 38  1  0
 18 39  1  0
 21 40  1  0
 22 41  1  0
 25 42  1  0
 26 43  1  0
 27 44  1  0
 28 45  1  0
 29 46  1  0
 30 47  1  0
 31 48  1  0
M  CHG  1  13  -1
M  END
>  <UniqueID>  (18) 
17

>  <SMILES>  (18) 
CS(=O)(=O)c1ccc(-c2csc([N-]C(=O)c3ccc(F)cc3)c2-c2ccccc2)cc1

>  <Energy>  (18) 
92.12889048792918

>  <Genealogy>  (18) 
CS(=O)(=O)c1ccc(-c2csc([N-]C(=O)c3ccc(F)cc3)c2-c2ccccc2)cc1 (protonated)
CS(=O)(=O)c1ccc(-c2csc([N-]C(=O)c3ccc(F)cc3)c2-c2ccccc2)cc1 (3D coordinates assigned)
CS(=O)(=O)c1ccc(-c2csc([N-]C(=O)c3ccc(F)cc3)c2-c2ccccc2)cc1 (optimized conformer: 92.12889048792918 kcal/mol)

>  <smiles>  (18) 
CS(=O)(=O)c1ccc(-c2csc(NC(=O)c3ccc(F)cc3)c2-c2ccccc2)cc1

>  <score_type>  (18) 
oracle

>  <origin>  (18) 
adg

>  <m_score__min__energy>  (18) 
-10.6

>  <m_primary>  (18) 
energy

$$$$
18:0
     RDKit          3D

 29 31  0  0  0  0  0  0  0  0999 V2000
   52.2120   23.0510   45.5970 H   0  0  0  0  0  0  0  0  0  0  0  0
   53.1780   22.6950   45.4230 N   0  0  0  0  0  0  0  0  0  0  0  0
   54.1720   23.5120   45.2880 C   0  0  0  0  0  0  0  0  0  0  0  0
   55.1560   23.3210   44.3730 N   0  0  0  0  0  0  0  0  0  0  0  0
   55.9410   24.3900   44.5990 C   0  0  0  0  0  0  0  0  0  0  0  0
   57.1190   24.7390   43.9450 C   0  0  0  0  0  0  0  0  0  0  0  0
   57.5256   24.1166   43.1343 H   0  0  0  0  0  0  0  0  0  0  0  0
   57.7720   25.9160   44.3570 C   0  0  0  0  0  0  0  0  0  0  0  0
   58.7023   26.2258   43.8584 H   0  0  0  0  0  0  0  0  0  0  0  0
   57.2410   26.7080   45.4110 C   0  0  0  0  0  0  0  0  0  0  0  0
   57.9340   27.9470   45.8220 C   0  0  0  0  0  0  0  0  0  0  0  0
   58.9400   27.8590   46.8010 C   0  0  0  0  0  0  0  0  0  0  0  0
   59.1771   26.8846   47.2530 H   0  0  0  0  0  0  0  0  0  0  0  0
   59.6400   28.9970   47.2040 C   0  0  0  0  0  0  0  0  0  0  0  0
   60.4243   28.9163   47.9711 H   0  0  0  0  0  0  0  0  0  0  0  0
   59.3470   30.2360   46.6360 C   0  0  0  0  0  0  0  0  0  0  0  0
   59.9086   31.1292   46.9471 H   0  0  0  0  0  0  0  0  0  0  0  0
   58.3420   30.3450   45.6730 C   0  0  0  0  0  0  0  0  0  0  0  0
   58.1192   31.3255   45.2268 H   0  0  0  0  0  0  0  0  0  0  0  0
   57.6120   29.2140   45.2680 C   0  0  0  0  0  0  0  0  0  0  0  0
   56.5210   29.3900   44.2420 C   0  0  0  0  0  0  0  0  0  0  0  0
   56.5656   30.4091   43.8304 H   0  0  0  0  0  0  0  0  0  0  0  0
   56.6595   28.6606   43.4304 H   0  0  0  0  0  0  0  0  0  0  0  0
   55.2760   29.1850   44.8460 O   0  0  0  0  0  0  0  0  0  0  0  0
   55.1460   28.2010   44.8850 H   0  0  0  0  0  0  0  0  0  0  0  0
   56.0350   26.3230   46.0390 C   0  0  0  0  0  0  0  0  0  0  0  0
   55.5961   26.9277   46.8463 H   0  0  0  0  0  0  0  0  0  0  0  0
   55.4220   25.1540   45.6020 C   0  0  0  0  0  0  0  0  0  0  0  0
   54.3190   24.5980   46.0270 O   0  0  0  0  0  0  0  0  0  0  0  0
  1  2  1  0
  2  3  2  0
  3  4  1  0
  4  5  1  0
  5  6  2  0
  6  7  1  0
  6  8  1  0
  8  9  1  0
  8 10  2  0
 10 11  1  0
 11 12  2  0
 12 13  1  0
 12 14  1  0
 14 15  1  0
 14 16  2  0
 16 17  1  0
 16 18  1  0
 18 19  1  0
 18 20  2  0
 20 21  1  0
 21 22  1  0
 21 23  1  0
 21 24  1  0
 24 25  1  0
 10 26  1  0
 26 27  1  0
 26 28  2  0
 28 29  1  0
 29  3  1  0
 28  5  1  0
 20 11  1  0
M  CHG  1   4  -1
M  END
>  <UniqueID>  (19) 
18

>  <SMILES>  (19) 
[H]/N=c1/[n-]c2ccc(-c3ccccc3CO)cc2o1

>  <Energy>  (19) 
76.21463625395356

>  <Genealogy>  (19) 
N=c1[n-]c2ccc(-c3ccccc3CO)cc2o1 (protonated)
[H]/N=c1/[n-]c2ccc(-c3ccccc3CO)cc2o1 (cis-trans isomerization)
[H]/N=c1/[n-]c2ccc(-c3ccccc3CO)cc2o1 (3D coordinates assigned)
[H]/N=c1/[n-]c2ccc(-c3ccccc3CO)cc2o1 (optimized conformer: 76.21463625395356 kcal/mol)

>  <smiles>  (19) 
N=c1[nH]c2ccc(-c3ccccc3CO)cc2o1

>  <score_type>  (19) 
oracle

>  <origin>  (19) 
adg

>  <m_score__min__energy>  (19) 
-8.6600000000000001

>  <m_primary>  (19) 
energy

$$$$
19:0
     RDKit          3D

 35 36  0  0  0  0  0  0  0  0999 V2000
   55.9600   24.6640   45.5920 C   0  0  0  0  0  0  0  0  0  0  0  0
   55.8070   25.8950   46.2860 O   0  0  0  0  0  0  0  0  0  0  0  0
   56.4740   27.0930   45.9910 C   0  0  0  0  0  0  0  0  0  0  0  0
   55.9100   28.0190   45.2490 O   0  0  0  0  0  0  0  0  0  0  0  0
   56.7450   29.0190   45.1010 C   0  0  0  0  0  0  0  0  0  0  0  0
   56.4240   30.2360   44.2940 C   0  0  0  0  0  0  0  0  0  0  0  0
   57.9230   28.7570   45.7850 C   0  0  0  0  0  0  0  0  0  0  0  0
   59.1250   29.6170   45.8260 C   0  0  0  0  0  0  0  0  0  0  0  0
   59.9590   29.5660   44.8820 O   0  0  0  0  0  0  0  0  0  0  0  0
   59.3560   30.4830   46.9470 N   0  0  0  0  0  0  0  0  0  0  0  0
   60.2470   31.6110   46.9190 C   0  0  0  0  0  0  0  0  0  0  0  0
   59.7650   32.9220   46.7530 C   0  0  0  0  0  0  0  0  0  0  0  0
   60.6490   34.0050   46.7550 C   0  0  0  0  0  0  0  0  0  0  0  0
   62.0180   33.7930   46.9350 C   0  0  0  0  0  0  0  0  0  0  0  0
   62.5100   32.4940   47.1240 C   0  0  0  0  0  0  0  0  0  0  0  0
   63.9100   32.2770   47.3190 N   0  0  0  0  0  0  0  0  0  0  0  0
   61.6210   31.4090   47.1220 C   0  0  0  0  0  0  0  0  0  0  0  0
   57.7540   27.5060   46.3710 C   0  0  0  0  0  0  0  0  0  0  0  0
   58.7380   26.7920   47.2520 C   0  0  0  0  0  0  0  0  0  0  0  0
   56.0619   23.8440   46.3181 H   0  0  0  0  0  0  0  0  0  0  0  0
   55.0770   24.4869   44.9604 H   0  0  0  0  0  0  0  0  0  0  0  0
   56.8595   24.7085   44.9604 H   0  0  0  0  0  0  0  0  0  0  0  0
   56.2025   31.0757   44.9691 H   0  0  0  0  0  0  0  0  0  0  0  0
   57.2851   30.4929   43.6596 H   0  0  0  0  0  0  0  0  0  0  0  0
   55.5482   30.0348   43.6596 H   0  0  0  0  0  0  0  0  0  0  0  0
   58.9230   30.2200   47.8610 H   0  0  0  0  0  0  0  0  0  0  0  0
   58.6869   33.0960   46.6209 H   0  0  0  0  0  0  0  0  0  0  0  0
   60.2657   35.0264   46.6145 H   0  0  0  0  0  0  0  0  0  0  0  0
   62.7113   34.6470   46.9284 H   0  0  0  0  0  0  0  0  0  0  0  0
   64.2550   31.6840   48.1060 H   0  0  0  0  0  0  0  0  0  0  0  0
   64.6130   32.7090   46.6780 H   0  0  0  0  0  0  0  0  0  0  0  0
   62.0043   30.3903   47.2810 H   0  0  0  0  0  0  0  0  0  0  0  0
   58.4858   26.9750   48.3069 H   0  0  0  0  0  0  0  0  0  0  0  0
   58.6971   25.7120   47.0473 H   0  0  0  0  0  0  0  0  0  0  0  0
   59.7521   27.1659   47.0473 H   0  0  0  0  0  0  0  0  0  0  0  0
  1  2  1  0
  2  3  1  0
  3  4  1  0
  4  5  1  0
  5  6  1  0
  5  7  2  0
  7  8  1  0
  8  9  2  0
  8 10  1  0
 10 11  1  0
 11 12  2  0
 12 13  1  0
 13 14  2  0
 14 15  1  0
 15 16  1  0
 15 17  2  0
  7 18  1  0
 18 19  1  0
 18  3  2  0
 17 11  1  0
  1 20  1  0
  1 21  1  0
  1 22  1  0
  6 23  1  0
  6 24  1  0
  6 25  1  0
 10 26  1  0
 12 27  1  0
 13 28  1  0
 14 29  1  0
 16 30  1  0
 16 31  1  0
 17 32  1  0
 19 33  1  0
 19 34  1  0
 19 35  1  0
M  END
>  <UniqueID>  (20) 
19

>  <SMILES>  (20) 
COc1oc(C)c(C(=O)Nc2cccc(N)c2)c1C

>  <Energy>  (20) 
67.98219988386663

>  <Genealogy>  (20) 
COc1oc(C)c(C(=O)Nc2cccc(N)c2)c1C (3D coordinates assigned)
COc1oc(C)c(C(=O)Nc2cccc(N)c2)c1C (optimized conformer: 67.98219988386663 kcal/mol)

>  <smiles>  (20) 
COc1oc(C)c(C(=O)Nc2cccc(N)c2)c1C

>  <score_type>  (20) 
oracle

>  <origin>  (20) 
adg

>  <m_score__min__energy>  (20) 
-6.4100000000000001

>  <m_primary>  (20) 
energy

$$$$
20:0
     RDKit          3D

 42 43  0  0  0  0  0  0  0  0999 V2000
   60.2570   25.3720   46.9950 H   0  0  0  0  0  0  0  0  0  0  0  0
   59.5820   25.9280   47.5050 O   0  0  0  0  0  0  0  0  0  0  0  0
   58.6810   26.7680   46.8510 C   0  0  0  0  0  0  0  0  0  0  0  0
   57.3610   26.3500   46.6420 C   0  0  0  0  0  0  0  0  0  0  0  0
   57.0392   25.3616   47.0019 H   0  0  0  0  0  0  0  0  0  0  0  0
   56.4490   27.1760   45.9810 C   0  0  0  0  0  0  0  0  0  0  0  0
   55.1450   26.7290   45.7930 O   0  0  0  0  0  0  0  0  0  0  0  0
   56.8500   28.4410   45.5120 C   0  0  0  0  0  0  0  0  0  0  0  0
   55.8820   29.3170   44.8140 C   0  0  0  0  0  0  0  0  0  0  0  0
   54.8815   28.9312   44.5686 H   0  0  0  0  0  0  0  0  0  0  0  0
   56.1960   30.5340   44.4870 N   0  0  0  0  0  0  0  0  0  0  0  0
   57.3730   30.8640   43.6900 C   0  0  0  0  0  0  0  0  0  0  0  0
   58.2720   30.4884   44.2006 H   0  0  0  0  0  0  0  0  0  0  0  0
   57.2733   30.3951   42.7000 H   0  0  0  0  0  0  0  0  0  0  0  0
   57.4940   32.3790   43.5080 C   0  0  0  0  0  0  0  0  0  0  0  0
   58.2336   32.5927   42.7223 H   0  0  0  0  0  0  0  0  0  0  0  0
   56.5130   32.7856   43.2209 H   0  0  0  0  0  0  0  0  0  0  0  0
   57.9220   33.0040   44.7560 N   0  0  0  0  0  0  0  0  0  0  0  0
   57.3950   32.8110   45.9810 C   0  0  0  0  0  0  0  0  0  0  0  0
   56.5877   32.0949   46.1943 H   0  0  0  0  0  0  0  0  0  0  0  0
   57.9700   33.5960   46.9170 N   0  0  0  0  0  0  0  0  0  0  0  0
   58.8880   34.3120   46.2340 C   0  0  0  0  0  0  0  0  0  0  0  0
   59.5593   35.0649   46.6727 H   0  0  0  0  0  0  0  0  0  0  0  0
   58.8560   33.9560   44.9040 C   0  0  0  0  0  0  0  0  0  0  0  0
   59.4842   34.3771   44.1052 H   0  0  0  0  0  0  0  0  0  0  0  0
   58.1780   28.8580   45.7220 C   0  0  0  0  0  0  0  0  0  0  0  0
   58.5032   29.8414   45.3516 H   0  0  0  0  0  0  0  0  0  0  0  0
   59.0940   28.0340   46.3990 C   0  0  0  0  0  0  0  0  0  0  0  0
   60.5120   28.5070   46.6160 C   0  0  0  0  0  0  0  0  0  0  0  0
   61.1815   27.9452   45.9481 H   0  0  0  0  0  0  0  0  0  0  0  0
   60.7734   28.3356   47.6706 H   0  0  0  0  0  0  0  0  0  0  0  0
   60.6580   29.9820   46.3280 C   0  0  0  0  0  0  0  0  0  0  0  0
   60.8281   30.2856   45.2845 H   0  0  0  0  0  0  0  0  0  0  0  0
   60.5940   30.9560   47.2650 C   0  0  0  0  0  0  0  0  0  0  0  0
   61.6330   32.0460   47.2840 C   0  0  0  0  0  0  0  0  0  0  0  0
   61.8769   32.3019   48.3256 H   0  0  0  0  0  0  0  0  0  0  0  0
   62.5406   31.6964   46.7701 H   0  0  0  0  0  0  0  0  0  0  0  0
   61.2404   32.9358   46.7701 H   0  0  0  0  0  0  0  0  0  0  0  0
   59.4830   31.0170   48.2820 C   0  0  0  0  0  0  0  0  0  0  0  0
   59.9114   30.9935   49.2949 H   0  0  0  0  0  0  0  0  0  0  0  0
   58.9127   31.9478   48.1466 H   0  0  0  0  0  0  0  0  0  0  0  0
   58.8142   30.1542   48.1466 H   0  0  0  0  0  0  0  0  0  0  0  0
  1  2  1  0
  2  3  1  0
  3  4  2  0
  4  5  1  0
  4  6  1  0
  6  7  1  0
  6  8  2  0
  8  9  1  0
  9 10  1  0
  9 11  2  0
 11 12  1  0
 12 13  1  0
 12 14  1  0
 12 15  1  0
 15 16  1  0
 15 17  1  0
 15 18  1  0
 18 19  1  0
 19 20  1  0
 19 21  2  0
 21 22  1  0
 22 23  1  0
 22 24  2  0
 24 25  1  0
  8 26  1  0
 26 27  1  0
 26 28  2  0
 28 29  1  0
 29 30  1  0
 29 31  1  0
 29 32  1  0
 32 33  1  0
 32 34  2  3
 34 35  1  0
 35 36  1  0
 35 37  1  0
 35 38  1  0
 34 39  1  0
 39 40  1  0
 39 41  1  0
 39 42  1  0
 28  3  1  0
 24 18  1  0
M  CHG  1   7  -1
M  END
>  <UniqueID>  (21) 
20

>  <SMILES>  (21) 
CC(C)=CCc1cc(/C=N/CCn2ccnc2)c([O-])cc1O

>  <Energy>  (21) 
63.054198341149174

>  <Genealogy>  (21) 
CC(C)=CCc1cc(C=NCCn2ccnc2)c([O-])cc1O (protonated)
CC(C)=CCc1cc(/C=N/CCn2ccnc2)c([O-])cc1O (cis-trans isomerization)
CC(C)=CCc1cc(/C=N/CCn2ccnc2)c([O-])cc1O (3D coordinates assigned)
CC(C)=CCc1cc(/C=N/CCn2ccnc2)c([O-])cc1O (optimized conformer: 63.054198341149174 kcal/mol)

>  <smiles>  (21) 
CC(C)=CCc1cc(C=NCCn2ccnc2)c(O)cc1O

>  <score_type>  (21) 
oracle

>  <origin>  (21) 
adg

>  <m_score__min__energy>  (21) 
-9.5700000000000003

>  <m_primary>  (21) 
energy

$$$$
21:0
     RDKit          3D

 41 44  0  0  0  0  0  0  0  0999 V2000
   57.0980   31.6290   41.7160 C   0  0  0  0  0  0  0  0  0  0  0  0
   56.8300   30.6870   42.6180 C   0  0  0  0  0  0  0  0  0  0  0  0
   57.3760   30.7200   43.9900 C   0  0  0  0  0  0  0  0  0  0  0  0
   57.9470   31.9230   44.4680 C   0  0  0  0  0  0  0  0  0  0  0  0
   58.4430   31.9590   45.7820 C   0  0  0  0  0  0  0  0  0  0  0  0
   59.0370   32.9720   46.4970 C   0  0  0  0  0  0  0  0  0  0  0  0
   59.3320   34.2890   46.1490 C   0  0  0  0  0  0  0  0  0  0  0  0
   59.9610   35.0960   47.1110 C   0  0  0  0  0  0  0  0  0  0  0  0
   60.2790   34.5750   48.3840 C   0  0  0  0  0  0  0  0  0  0  0  0
   59.9720   33.2420   48.7110 C   0  0  0  0  0  0  0  0  0  0  0  0
   59.3420   32.4510   47.7410 C   0  0  0  0  0  0  0  0  0  0  0  0
   58.9570   31.1490   47.8340 N   0  0  0  0  0  0  0  0  0  0  0  0
   59.1050   30.2470   48.9760 C   0  0  0  0  0  0  0  0  0  0  0  0
   58.4120   30.8600   46.6230 C   0  0  0  0  0  0  0  0  0  0  0  0
   57.8760   29.6600   46.1440 C   0  0  0  0  0  0  0  0  0  0  0  0
   57.7700   28.3980   46.6950 C   0  0  0  0  0  0  0  0  0  0  0  0
   57.2150   27.6090   45.6920 C   0  0  0  0  0  0  0  0  0  0  0  0
   56.9340   26.1630   45.7930 C   0  0  0  0  0  0  0  0  0  0  0  0
   55.8950   25.7820   46.4010 O   0  0  0  0  0  0  0  0  0  0  0  0
   57.8660   25.1550   45.1680 C   0  0  0  0  0  0  0  0  0  0  0  0
   57.3320   24.5780   43.8570 C   0  0  0  0  0  0  0  0  0  0  0  0
   56.9850   28.3370   44.5740 N   0  0  0  0  0  0  0  0  0  0  0  0
   57.3770   29.5940   44.8550 C   0  0  0  0  0  0  0  0  0  0  0  0
   56.6679   31.5615   40.7058 H   0  0  0  0  0  0  0  0  0  0  0  0
   57.7495   32.4748   41.9810 H   0  0  0  0  0  0  0  0  0  0  0  0
   56.1759   29.8508   42.3299 H   0  0  0  0  0  0  0  0  0  0  0  0
   58.0015   32.8127   43.8235 H   0  0  0  0  0  0  0  0  0  0  0  0
   59.0804   34.6834   45.1534 H   0  0  0  0  0  0  0  0  0  0  0  0
   60.2075   36.1408   46.8711 H   0  0  0  0  0  0  0  0  0  0  0  0
   60.7720   35.2182   49.1278 H   0  0  0  0  0  0  0  0  0  0  0  0
   60.2197   32.8316   49.7011 H   0  0  0  0  0  0  0  0  0  0  0  0
   59.0110   30.8199   49.9103 H   0  0  0  0  0  0  0  0  0  0  0  0
   58.3214   29.4760   48.9382 H   0  0  0  0  0  0  0  0  0  0  0  0
   60.0939   29.7668   48.9382 H   0  0  0  0  0  0  0  0  0  0  0  0
   58.0614   28.0842   47.7082 H   0  0  0  0  0  0  0  0  0  0  0  0
   58.8297   25.6461   44.9677 H   0  0  0  0  0  0  0  0  0  0  0  0
   57.9692   24.3198   45.8764 H   0  0  0  0  0  0  0  0  0  0  0  0
   56.5998   23.7868   44.0759 H   0  0  0  0  0  0  0  0  0  0  0  0
   56.8468   25.3760   43.2759 H   0  0  0  0  0  0  0  0  0  0  0  0
   58.1651   24.1559   43.2759 H   0  0  0  0  0  0  0  0  0  0  0  0
   56.6170   27.9740   43.6670 H   0  0  0  0  0  0  0  0  0  0  0  0
  1  2  2  0
  2  3  1  0
  3  4  2  0
  4  5  1  0
  5  6  1  0
  6  7  2  0
  7  8  1  0
  8  9  2  0
  9 10  1  0
 10 11  2  0
 11 12  1  0
 12 13  1  0
 12 14  1  0
 14 15  1  0
 15 16  1  0
 16 17  2  0
 17 18  1  0
 18 19  2  0
 18 20  1  0
 20 21  1  0
 17 22  1  0
 22 23  1  0
 23  3  1  0
 14  5  2  0
 23 15  2  0
 11  6  1  0
  1 24  1  0
  1 25  1  0
  2 26  1  0
  4 27  1  0
  7 28  1  0
  8 29  1  0
  9 30  1  0
 10 31  1  0
 13 32  1  0
 13 33  1  0
 13 34  1  0
 16 35  1  0
 20 36  1  0
 20 37  1  0
 21 38  1  0
 21 39  1  0
 21 40  1  0
 22 41  1  0
M  END
>  <UniqueID>  (22) 
21

>  <SMILES>  (22) 
C=Cc1cc2c3ccccc3n(C)c2c2cc(C(=O)CC)[nH]c12

>  <Energy>  (22) 
122.5488262953837

>  <Genealogy>  (22) 
C=Cc1cc2c3ccccc3n(C)c2c2cc(C(=O)CC)[nH]c12 (3D coordinates assigned)
C=Cc1cc2c3ccccc3n(C)c2c2cc(C(=O)CC)[nH]c12 (optimized conformer: 122.5488262953837 kcal/mol)

>  <smiles>  (22) 
C=Cc1cc2c3ccccc3n(C)c2c2cc(C(=O)CC)[nH]c12

>  <score_type>  (22) 
oracle

>  <origin>  (22) 
adg

>  <m_score__min__energy>  (22) 
-8.5700000000000003

>  <m_primary>  (22) 
energy

$$$$
22:0
     RDKit          3D

 31 31  0  0  0  0  0  0  0  0999 V2000
   59.3568   32.5161   44.3474 H   0  0  0  0  0  0  0  0  0  0  0  0
   58.8670   33.3620   44.8520 C   0  0  0  0  0  0  0  0  0  0  0  0
   57.3920   33.3710   44.9650 C   0  0  0  0  0  0  0  0  0  0  0  0
   56.7680   34.4630   44.8830 O   0  0  0  0  0  0  0  0  0  0  0  0
   56.6420   32.1750   45.2330 N   0  0  0  0  0  0  0  0  0  0  0  0
   56.7800   31.0260   44.6410 C   0  0  0  0  0  0  0  0  0  0  0  0
   57.0430   29.8660   45.2800 N   0  0  0  0  0  0  0  0  0  0  0  0
   57.1740   28.8320   44.4080 C   0  0  0  0  0  0  0  0  0  0  0  0
   57.4960   27.4490   44.8820 C   0  0  0  0  0  0  0  0  0  0  0  0
   57.1413   26.7200   44.1386 H   0  0  0  0  0  0  0  0  0  0  0  0
   58.5851   27.3617   45.0098 H   0  0  0  0  0  0  0  0  0  0  0  0
   56.8170   27.1700   46.2240 C   0  0  0  0  0  0  0  0  0  0  0  0
   57.3855   26.4010   46.7676 H   0  0  0  0  0  0  0  0  0  0  0  0
   56.7874   28.0974   46.8149 H   0  0  0  0  0  0  0  0  0  0  0  0
   55.4490   26.6960   46.0010 N   0  0  0  0  0  0  0  0  0  0  0  0
   55.3820   24.9570   45.9550 S   0  0  0  0  0  0  0  0  0  0  0  0
   55.9390   24.4150   47.2410 O   0  0  0  0  0  0  0  0  0  0  0  0
   53.9540   24.5100   45.8140 O   0  0  0  0  0  0  0  0  0  0  0  0
   56.3410   24.3120   44.5990 C   0  0  0  0  0  0  0  0  0  0  0  0
   57.1933   23.7388   44.9927 H   0  0  0  0  0  0  0  0  0  0  0  0
   55.7096   23.6542   43.9836 H   0  0  0  0  0  0  0  0  0  0  0  0
   56.7121   25.1448   43.9836 H   0  0  0  0  0  0  0  0  0  0  0  0
   57.0420   29.1730   43.0620 C   0  0  0  0  0  0  0  0  0  0  0  0
   57.1261   28.4843   42.2084 H   0  0  0  0  0  0  0  0  0  0  0  0
   56.7310   30.8260   42.9750 S   0  0  0  0  0  0  0  0  0  0  0  0
   59.6240   34.3480   45.3430 C   0  0  0  0  0  0  0  0  0  0  0  0
   60.4235   34.7792   44.7226 H   0  0  0  0  0  0  0  0  0  0  0  0
   59.3980   34.8720   46.7240 C   0  0  0  0  0  0  0  0  0  0  0  0
   59.7221   34.1205   47.4589 H   0  0  0  0  0  0  0  0  0  0  0  0
   59.9775   35.7963   46.8648 H   0  0  0  0  0  0  0  0  0  0  0  0
   58.3280   35.0849   46.8648 H   0  0  0  0  0  0  0  0  0  0  0  0
  1  2  1  0
  2  3  1  0
  3  4  2  0
  3  5  1  0
  5  6  2  3
  6  7  1  0
  7  8  1  0
  8  9  1  0
  9 10  1  0
  9 11  1  0
  9 12  1  0
 12 13  1  0
 12 14  1  0
 12 15  1  0
 15 16  1  0
 16 17  2  0
 16 18  2  0
 16 19  1  0
 19 20  1  0
 19 21  1  0
 19 22  1  0
  8 23  2  0
 23 24  1  0
 23 25  1  0
  2 26  2  0
 26 27  1  0
 26 28  1  0
 28 29  1  0
 28 30  1  0
 28 31  1  0
 25  6  1  0
M  CHG  2   7  -1  15  -1
M  END
>  <UniqueID>  (23) 
22

>  <SMILES>  (23) 
C/C=C/C(=O)N=c1[n-]c(CC[N-]S(C)(=O)=O)cs1

>  <Energy>  (23) 
50.497765853190934

>  <Genealogy>  (23) 
CC=CC(=O)N=c1[n-]c(CC[N-]S(C)(=O)=O)cs1 (protonated)
C/C=C/C(=O)N=c1[n-]c(CC[N-]S(C)(=O)=O)cs1 (cis-trans isomerization)
C/C=C/C(=O)N=c1[n-]c(CC[N-]S(C)(=O)=O)cs1 (3D coordinates assigned)
C/C=C/C(=O)N=c1[n-]c(CC[N-]S(C)(=O)=O)cs1 (optimized conformer: 50.497765853190934 kcal/mol)

>  <smiles>  (23) 
CC=CC(=O)N=c1[nH]c(CCNS(C)(=O)=O)cs1

>  <score_type>  (23) 
oracle

>  <origin>  (23) 
adg

>  <m_score__min__energy>  (23) 
-10.199999999999999

>  <m_primary>  (23) 
energy

$$$$
23:0
     RDKit          3D

 76 80  0  0  0  0  0  0  0  0999 V2000
   58.9850   21.4650   45.5020 C   0  0  0  0  0  0  0  0  0  0  0  0
   58.1280   22.5030   44.8200 C   0  0  0  0  0  0  0  0  0  0  0  0
   57.1040   22.0780   43.9540 C   0  0  0  0  0  0  0  0  0  0  0  0
   56.2800   23.0080   43.3170 C   0  0  0  0  0  0  0  0  0  0  0  0
   56.4640   24.3740   43.5360 C   0  0  0  0  0  0  0  0  0  0  0  0
   57.4690   24.8250   44.4050 C   0  0  0  0  0  0  0  0  0  0  0  0
   57.6290   26.2380   44.6050 N   0  0  0  0  0  0  0  0  0  0  0  0
   58.4850   26.9660   43.6500 C   0  0  0  0  0  0  0  0  0  0  0  0
   58.3240   28.4870   43.7320 C   0  0  0  0  0  0  0  0  0  0  0  0
   56.9570   28.8230   44.1480 N   0  0  0  0  0  0  0  0  0  0  0  0
   56.6630   30.5360   43.9710 S   0  0  0  0  0  0  0  0  0  0  0  0
   55.3360   30.8790   44.5880 O   0  0  0  0  0  0  0  0  0  0  0  0
   56.5890   30.8760   42.5080 O   0  0  0  0  0  0  0  0  0  0  0  0
   57.9250   31.5130   44.7240 C   0  0  0  0  0  0  0  0  0  0  0  0
   58.1080   32.8460   44.3300 C   0  0  0  0  0  0  0  0  0  0  0  0
   59.0440   33.6510   44.9810 C   0  0  0  0  0  0  0  0  0  0  0  0
   59.8000   33.1330   46.0360 C   0  0  0  0  0  0  0  0  0  0  0  0
   59.6560   31.7870   46.4170 C   0  0  0  0  0  0  0  0  0  0  0  0
   60.4250   31.2120   47.5390 C   0  0  0  0  0  0  0  0  0  0  0  0
   60.8380   30.0250   47.4400 O   0  0  0  0  0  0  0  0  0  0  0  0
   60.8020   32.0130   48.6830 N   0  0  0  0  0  0  0  0  0  0  0  0
   62.2070   32.1610   48.9470 C   0  0  0  0  0  0  0  0  0  0  0  0
   62.8150   31.4200   49.9650 C   0  0  0  0  0  0  0  0  0  0  0  0
   64.1690   31.6190   50.2450 C   0  0  0  0  0  0  0  0  0  0  0  0
   64.8180   30.9080   51.2640 C   0  0  0  0  0  0  0  0  0  0  0  0
   66.1740   31.1380   51.5180 C   0  0  0  0  0  0  0  0  0  0  0  0
   66.8830   32.0770   50.7610 C   0  0  0  0  0  0  0  0  0  0  0  0
   66.2410   32.7910   49.7460 C   0  0  0  0  0  0  0  0  0  0  0  0
   64.8840   32.5690   49.4830 C   0  0  0  0  0  0  0  0  0  0  0  0
   64.2730   33.2530   48.5230 O   0  0  0  0  0  0  0  0  0  0  0  0
   62.9840   33.0950   48.2390 C   0  0  0  0  0  0  0  0  0  0  0  0
   62.4600   33.8060   47.3410 O   0  0  0  0  0  0  0  0  0  0  0  0
   59.8020   32.8730   49.3800 C   0  0  0  0  0  0  0  0  0  0  0  0
   58.3810   32.2970   49.1900 C   0  0  0  0  0  0  0  0  0  0  0  0
   59.8600   34.3100   48.8200 C   0  0  0  0  0  0  0  0  0  0  0  0
   60.0750   32.9380   50.9040 C   0  0  0  0  0  0  0  0  0  0  0  0
   58.7080   30.9870   45.7600 C   0  0  0  0  0  0  0  0  0  0  0  0
   56.7760   28.4060   45.5440 C   0  0  0  0  0  0  0  0  0  0  0  0
   56.7790   26.8750   45.6280 C   0  0  0  0  0  0  0  0  0  0  0  0
   58.3100   23.8900   45.0670 C   0  0  0  0  0  0  0  0  0  0  0  0
   59.4070   24.3560   46.0010 C   0  0  0  0  0  0  0  0  0  0  0  0
   58.8948   21.5742   46.5928 H   0  0  0  0  0  0  0  0  0  0  0  0
   58.6499   20.4602   45.2052 H   0  0  0  0  0  0  0  0  0  0  0  0
   60.0350   21.6039   45.2052 H   0  0  0  0  0  0  0  0  0  0  0  0
   56.9511   21.0031   43.7771 H   0  0  0  0  0  0  0  0  0  0  0  0
   55.4838   22.6631   42.6409 H   0  0  0  0  0  0  0  0  0  0  0  0
   55.8171   25.1016   43.0241 H   0  0  0  0  0  0  0  0  0  0  0  0
   59.5350   26.7140   43.8595 H   0  0  0  0  0  0  0  0  0  0  0  0
   58.1798   26.6594   42.6386 H   0  0  0  0  0  0  0  0  0  0  0  0
   59.0379   28.8903   44.4652 H   0  0  0  0  0  0  0  0  0  0  0  0
   58.5196   28.9257   42.7424 H   0  0  0  0  0  0  0  0  0  0  0  0
   57.5110   33.2594   43.5038 H   0  0  0  0  0  0  0  0  0  0  0  0
   59.1868   34.6944   44.6633 H   0  0  0  0  0  0  0  0  0  0  0  0
   60.5105   33.7807   46.5705 H   0  0  0  0  0  0  0  0  0  0  0  0
   62.2318   30.6863   50.5407 H   0  0  0  0  0  0  0  0  0  0  0  0
   64.2622   30.1711   51.8623 H   0  0  0  0  0  0  0  0  0  0  0  0
   66.6848   30.5787   52.3157 H   0  0  0  0  0  0  0  0  0  0  0  0
   67.9493   32.2537   50.9656 H   0  0  0  0  0  0  0  0  0  0  0  0
   66.8023   33.5282   49.1531 H   0  0  0  0  0  0  0  0  0  0  0  0
   57.9256   32.1124   50.1741 H   0  0  0  0  0  0  0  0  0  0  0  0
   57.7655   33.0166   48.6303 H   0  0  0  0  0  0  0  0  0  0  0  0
   58.4403   31.3519   48.6303 H   0  0  0  0  0  0  0  0  0  0  0  0
   59.8890   35.0274   49.6534 H   0  0  0  0  0  0  0  0  0  0  0  0
   60.7636   34.4272   48.2037 H   0  0  0  0  0  0  0  0  0  0  0  0
   58.9688   34.4996   48.2037 H   0  0  0  0  0  0  0  0  0  0  0  0
   59.1474   32.7171   51.4524 H   0  0  0  0  0  0  0  0  0  0  0  0
   60.8437   32.1978   51.1707 H   0  0  0  0  0  0  0  0  0  0  0  0
   60.4277   33.9452   51.1707 H   0  0  0  0  0  0  0  0  0  0  0  0
   58.5786   29.9370   46.0614 H   0  0  0  0  0  0  0  0  0  0  0  0
   57.5973   28.8078   46.1555 H   0  0  0  0  0  0  0  0  0  0  0  0
   55.8159   28.7905   45.9186 H   0  0  0  0  0  0  0  0  0  0  0  0
   57.1476   26.5802   46.6216 H   0  0  0  0  0  0  0  0  0  0  0  0
   55.7473   26.5363   45.4524 H   0  0  0  0  0  0  0  0  0  0  0  0
   59.0839   24.2187   47.0435 H   0  0  0  0  0  0  0  0  0  0  0  0
   60.3182   23.7672   45.8190 H   0  0  0  0  0  0  0  0  0  0  0  0
   59.6159   25.4205   45.8190 H   0  0  0  0  0  0  0  0  0  0  0  0
  1  2  1  0
  2  3  2  0
  3  4  1  0
  4  5  2  0
  5  6  1  0
  6  7  1  0
  7  8  1  0
  8  9  1  0
  9 10  1  0
 10 11  1  0
 11 12  2  0
 11 13  2  0
 11 14  1  0
 14 15  2  0
 15 16  1  0
 16 17  2  0
 17 18  1  0
 18 19  1  0
 19 20  2  0
 19 21  1  0
 21 22  1  0
 22 23  2  0
 23 24  1  0
 24 25  2  0
 25 26  1  0
 26 27  2  0
 27 28  1  0
 28 29  2  0
 29 30  1  0
 30 31  1  0
 31 32  2  0
 21 33  1  0
 33 34  1  0
 33 35  1  0
 33 36  1  0
 18 37  2  0
 10 38  1  0
 38 39  1  0
  6 40  2  0
 40 41  1  0
 40  2  1  0
 39  7  1  0
 37 14  1  0
 31 22  1  0
 29 24  1  0
  1 42  1  0
  1 43  1  0
  1 44  1  0
  3 45  1  0
  4 46  1  0
  5 47  1  0
  8 48  1  0
  8 49  1  0
  9 50  1  0
  9 51  1  0
 15 52  1  0
 16 53  1  0
 17 54  1  0
 23 55  1  0
 25 56  1  0
 26 57  1  0
 27 58  1  0
 28 59  1  0
 34 60  1  0
 34 61  1  0
 34 62  1  0
 35 63  1  0
 35 64  1  0
 35 65  1  0
 36 66  1  0
 36 67  1  0
 36 68  1  0
 37 69  1  0
 38 70  1  0
 38 71  1  0
 39 72  1  0
 39 73  1  0
 41 74  1  0
 41 75  1  0
 41 76  1  0
M  END
>  <UniqueID>  (24) 
23

>  <SMILES>  (24) 
Cc1cccc(N2CCN(S(=O)(=O)c3cccc(C(=O)N(c4cc5ccccc5oc4=O)C(C)(C)C)c3)CC2)c1C

>  <Energy>  (24) 
110.82046657727201

>  <Genealogy>  (24) 
Cc1cccc(N2CCN(S(=O)(=O)c3cccc(C(=O)N(c4cc5ccccc5oc4=O)C(C)(C)C)c3)CC2)c1C (3D coordinates assigned)
Cc1cccc(N2CCN(S(=O)(=O)c3cccc(C(=O)N(c4cc5ccccc5oc4=O)C(C)(C)C)c3)CC2)c1C (nonaromatic ring conformer: 110.82046657727201 kcal/mol)

>  <smiles>  (24) 
Cc1cccc(N2CCN(S(=O)(=O)c3cccc(C(=O)N(c4cc5ccccc5oc4=O)C(C)(C)C)c3)CC2)c1C

>  <score_type>  (24) 
oracle

>  <origin>  (24) 
adg

>  <m_score__min__energy>  (24) 
-11.630000000000001

>  <m_primary>  (24) 
energy

$$$$
24:0
     RDKit          3D

 69 74  0  0  0  0  0  0  0  0999 V2000
   66.4320   32.5660   51.1220 C   0  0  0  0  0  0  0  0  0  0  0  0
   65.1870   31.7770   51.2290 N   0  0  0  0  0  0  0  0  0  0  0  0
   65.2510   30.4670   51.6440 C   0  0  0  0  0  0  0  0  0  0  0  0
   66.3560   29.9280   51.9280 O   0  0  0  0  0  0  0  0  0  0  0  0
   64.0960   29.6990   51.7650 C   0  0  0  0  0  0  0  0  0  0  0  0
   62.8510   30.2460   51.4730 C   0  0  0  0  0  0  0  0  0  0  0  0
   61.6860   29.4200   51.6330 N   0  0  0  0  0  0  0  0  0  0  0  0
   60.9840   28.7990   50.5390 C   0  0  0  0  0  0  0  0  0  0  0  0
   60.1270   29.5310   49.6970 C   0  0  0  0  0  0  0  0  0  0  0  0
   59.4660   28.9010   48.6390 C   0  0  0  0  0  0  0  0  0  0  0  0
   59.6400   27.5280   48.4040 C   0  0  0  0  0  0  0  0  0  0  0  0
   58.9120   26.8390   47.3100 C   0  0  0  0  0  0  0  0  0  0  0  0
   58.4350   25.6910   47.5260 O   0  0  0  0  0  0  0  0  0  0  0  0
   58.7180   27.4490   46.0170 N   0  0  0  0  0  0  0  0  0  0  0  0
   57.4880   27.1230   45.2770 C   0  0  0  0  0  0  0  0  0  0  0  0
   57.4320   27.8290   43.9150 C   0  0  0  0  0  0  0  0  0  0  0  0
   57.9450   29.2740   44.0230 C   0  0  0  0  0  0  0  0  0  0  0  0
   57.0130   30.1000   44.8850 C   0  0  0  0  0  0  0  0  0  0  0  0
   55.8210   29.7160   45.0410 O   0  0  0  0  0  0  0  0  0  0  0  0
   57.4740   31.2860   45.5460 N   0  0  0  0  0  0  0  0  0  0  0  0
   58.1430   31.2930   46.8430 C   0  0  0  0  0  0  0  0  0  0  0  0
   59.4150   32.0930   46.7770 C   0  0  0  0  0  0  0  0  0  0  0  0
   59.4020   33.4220   46.2780 C   0  0  0  0  0  0  0  0  0  0  0  0
   60.5890   34.1720   46.2110 C   0  0  0  0  0  0  0  0  0  0  0  0
   61.7650   33.5660   46.6440 C   0  0  0  0  0  0  0  0  0  0  0  0
   61.7870   32.2960   47.1230 C   0  0  0  0  0  0  0  0  0  0  0  0
   60.6330   31.5220   47.2130 C   0  0  0  0  0  0  0  0  0  0  0  0
   63.0810   31.9580   47.4700 O   0  0  0  0  0  0  0  0  0  0  0  0
   63.9240   33.0860   47.1910 C   0  0  0  0  0  0  0  0  0  0  0  0
   63.0430   34.0910   46.6690 O   0  0  0  0  0  0  0  0  0  0  0  0
   59.4250   29.3000   44.4950 C   0  0  0  0  0  0  0  0  0  0  0  0
   59.8530   28.0590   45.3070 C   0  0  0  0  0  0  0  0  0  0  0  0
   60.4780   26.7930   49.2620 C   0  0  0  0  0  0  0  0  0  0  0  0
   61.1440   27.4240   50.3150 C   0  0  0  0  0  0  0  0  0  0  0  0
   62.7730   31.5700   51.0000 C   0  0  0  0  0  0  0  0  0  0  0  0
   61.5430   32.1340   50.6040 C   0  0  0  0  0  0  0  0  0  0  0  0
   61.4750   33.4550   50.1620 C   0  0  0  0  0  0  0  0  0  0  0  0
   59.7920   34.2090   49.6630 Br  0  0  0  0  0  0  0  0  0  0  0  0
   62.6310   34.2240   50.0860 C   0  0  0  0  0  0  0  0  0  0  0  0
   63.8650   33.6790   50.4410 C   0  0  0  0  0  0  0  0  0  0  0  0
   63.9680   32.3410   50.8980 C   0  0  0  0  0  0  0  0  0  0  0  0
   66.8043   32.8020   52.1298 H   0  0  0  0  0  0  0  0  0  0  0  0
   67.1900   31.9830   50.5783 H   0  0  0  0  0  0  0  0  0  0  0  0
   66.2284   33.5003   50.5783 H   0  0  0  0  0  0  0  0  0  0  0  0
   64.1687   28.6519   52.0940 H   0  0  0  0  0  0  0  0  0  0  0  0
   61.2450   29.3940   52.5810 H   0  0  0  0  0  0  0  0  0  0  0  0
   59.9762   30.6064   49.8726 H   0  0  0  0  0  0  0  0  0  0  0  0
   58.8034   29.4863   47.9845 H   0  0  0  0  0  0  0  0  0  0  0  0
   57.4485   26.0357   45.1153 H   0  0  0  0  0  0  0  0  0  0  0  0
   56.6309   27.4679   45.8740 H   0  0  0  0  0  0  0  0  0  0  0  0
   58.0578   27.2776   43.1978 H   0  0  0  0  0  0  0  0  0  0  0  0
   56.3862   27.8525   43.5748 H   0  0  0  0  0  0  0  0  0  0  0  0
   57.9407   29.7426   43.0278 H   0  0  0  0  0  0  0  0  0  0  0  0
   57.4734   31.7394   47.5930 H   0  0  0  0  0  0  0  0  0  0  0  0
   58.3888   30.2576   47.1214 H   0  0  0  0  0  0  0  0  0  0  0  0
   58.4550   33.8687   45.9409 H   0  0  0  0  0  0  0  0  0  0  0  0
   60.5886   35.2036   45.8291 H   0  0  0  0  0  0  0  0  0  0  0  0
   60.6678   30.4972   47.6113 H   0  0  0  0  0  0  0  0  0  0  0  0
   64.4120   33.4403   48.1110 H   0  0  0  0  0  0  0  0  0  0  0  0
   64.7279   32.8347   46.4834 H   0  0  0  0  0  0  0  0  0  0  0  0
   60.0692   29.3694   43.6061 H   0  0  0  0  0  0  0  0  0  0  0  0
   59.5275   30.1664   45.1650 H   0  0  0  0  0  0  0  0  0  0  0  0
   60.2835   27.3157   44.6199 H   0  0  0  0  0  0  0  0  0  0  0  0
   60.5908   28.3804   46.0568 H   0  0  0  0  0  0  0  0  0  0  0  0
   60.6098   25.7127   49.1023 H   0  0  0  0  0  0  0  0  0  0  0  0
   61.8000   26.8371   50.9746 H   0  0  0  0  0  0  0  0  0  0  0  0
   60.6274   31.5257   50.6441 H   0  0  0  0  0  0  0  0  0  0  0  0
   62.5721   35.2678   49.7441 H   0  0  0  0  0  0  0  0  0  0  0  0
   64.7720   34.2968   50.3652 H   0  0  0  0  0  0  0  0  0  0  0  0
  1  2  1  0
  2  3  1  0
  3  4  2  0
  3  5  1  0
  5  6  2  0
  6  7  1  0
  7  8  1  0
  8  9  2  0
  9 10  1  0
 10 11  2  0
 11 12  1  0
 12 13  2  0
 12 14  1  0
 14 15  1  0
 15 16  1  0
 16 17  1  0
 17 18  1  0
 18 19  2  0
 18 20  1  0
 20 21  1  0
 21 22  1  0
 22 23  2  0
 23 24  1  0
 24 25  2  0
 25 26  1  0
 26 27  2  0
 26 28  1  0
 28 29  1  0
 29 30  1  0
 17 31  1  0
 31 32  1  0
 11 33  1  0
 33 34  2  0
  6 35  1  0
 35 36  2  0
 36 37  1  0
 37 38  1  0
 37 39  2  0
 39 40  1  0
 40 41  2  0
 41  2  1  0
 34  8  1  0
 41 35  1  0
 32 14  1  0
 27 22  1  0
 30 25  1  0
  1 42  1  0
  1 43  1  0
  1 44  1  0
  5 45  1  0
  7 46  1  0
  9 47  1  0
 10 48  1  0
 15 49  1  0
 15 50  1  0
 16 51  1  0
 16 52  1  0
 17 53  1  0
 21 54  1  0
 21 55  1  0
 23 56  1  0
 24 57  1  0
 27 58  1  0
 29 59  1  0
 29 60  1  0
 31 61  1  0
 31 62  1  0
 32 63  1  0
 32 64  1  0
 33 65  1  0
 34 66  1  0
 36 67  1  0
 39 68  1  0
 40 69  1  0
M  CHG  1  20  -1
M  END
>  <UniqueID>  (25) 
24

>  <SMILES>  (25) 
Cn1c(=O)cc(Nc2ccc(C(=O)N3CCC(C(=O)[N-]Cc4ccc5c(c4)OCO5)CC3)cc2)c2cc(Br)ccc21

>  <Energy>  (25) 
126.96781647228711

>  <Genealogy>  (25) 
Cn1c(=O)cc(Nc2ccc(C(=O)N3CCC(C(=O)[N-]Cc4ccc5c(c4)OCO5)CC3)cc2)c2cc(Br)ccc21 (protonated)
Cn1c(=O)cc(Nc2ccc(C(=O)N3CCC(C(=O)[N-]Cc4ccc5c(c4)OCO5)CC3)cc2)c2cc(Br)ccc21 (3D coordinates assigned)
Cn1c(=O)cc(Nc2ccc(C(=O)N3CCC(C(=O)[N-]Cc4ccc5c(c4)OCO5)CC3)cc2)c2cc(Br)ccc21 (nonaromatic ring conformer: 126.96781647228711 kcal/mol)

>  <smiles>  (25) 
Cn1c(=O)cc(Nc2ccc(C(=O)N3CCC(C(=O)NCc4ccc5c(c4)OCO5)CC3)cc2)c2cc(Br)ccc21

>  <score_type>  (25) 
oracle

>  <origin>  (25) 
adg

>  <m_score__min__energy>  (25) 
-12.19

>  <m_primary>  (25) 
energy

$$$$
25:0
     RDKit          3D

 47 50  0  0  0  0  0  0  0  0999 V2000
   57.5716   32.2783   48.1312 H   0  0  0  0  0  0  0  0  0  0  0  0
   58.1340   32.9400   47.4560 C   0  0  0  0  0  0  0  0  0  0  0  0
   58.8340   33.9170   47.9500 N   0  0  0  0  0  0  0  0  0  0  0  0
   60.1290   33.8020   48.5640 C   0  0  0  0  0  0  0  0  0  0  0  0
   60.1820   33.7540   49.8230 O   0  0  0  0  0  0  0  0  0  0  0  0
   61.4150   33.8450   47.7520 C   0  0  2  0  0  0  0  0  0  0  0  0
   61.0725   34.6293   47.0609 H   0  0  0  0  0  0  0  0  0  0  0  0
   61.8530   32.5570   46.9860 C   0  0  2  0  0  0  0  0  0  0  0  0
   61.6369   32.6621   45.9126 H   0  0  0  0  0  0  0  0  0  0  0  0
   61.0780   31.2820   47.2500 C   0  0  0  0  0  0  0  0  0  0  0  0
   60.7360   30.9660   48.4210 O   0  0  0  0  0  0  0  0  0  0  0  0
   60.7630   30.4290   46.1430 N   0  0  0  0  0  0  0  0  0  0  0  0
   59.8210   29.3460   46.1070 C   0  0  0  0  0  0  0  0  0  0  0  0
   59.0470   28.9780   47.2250 C   0  0  0  0  0  0  0  0  0  0  0  0
   59.1364   29.5436   48.1642 H   0  0  0  0  0  0  0  0  0  0  0  0
   58.1640   27.8940   47.1440 C   0  0  0  0  0  0  0  0  0  0  0  0
   57.5552   27.6170   48.0173 H   0  0  0  0  0  0  0  0  0  0  0  0
   58.0530   27.1620   45.9570 C   0  0  0  0  0  0  0  0  0  0  0  0
   56.8510   25.6800   45.8520 Br  0  0  0  0  0  0  0  0  0  0  0  0
   58.8370   27.5060   44.8510 C   0  0  0  0  0  0  0  0  0  0  0  0
   58.7592   26.9256   43.9198 H   0  0  0  0  0  0  0  0  0  0  0  0
   59.7200   28.5880   44.9290 C   0  0  0  0  0  0  0  0  0  0  0  0
   60.3413   28.8477   44.0592 H   0  0  0  0  0  0  0  0  0  0  0  0
   63.3630   32.4470   47.3380 C   0  0  2  0  0  0  0  0  0  0  0  0
   63.8856   31.8020   46.6163 H   0  0  0  0  0  0  0  0  0  0  0  0
   63.5610   31.9660   48.7850 C   0  0  0  0  0  0  0  0  0  0  0  0
   62.9723   31.0589   48.9863 H   0  0  0  0  0  0  0  0  0  0  0  0
   64.6007   31.6923   49.0175 H   0  0  0  0  0  0  0  0  0  0  0  0
   63.0440   33.1560   49.6050 C   0  0  0  0  0  0  0  0  0  0  0  0
   62.1476   32.8790   50.1792 H   0  0  0  0  0  0  0  0  0  0  0  0
   63.7721   33.5160   50.3468 H   0  0  0  0  0  0  0  0  0  0  0  0
   62.7060   34.2140   48.5250 C   0  0  1  0  0  0  0  0  0  0  0  0
   62.6367   35.2192   48.9663 H   0  0  0  0  0  0  0  0  0  0  0  0
   63.7570   33.9050   47.4750 C   0  0  0  0  0  0  0  0  0  0  0  0
   63.6197   34.4778   46.5460 H   0  0  0  0  0  0  0  0  0  0  0  0
   64.8061   34.1359   47.7116 H   0  0  0  0  0  0  0  0  0  0  0  0
   58.0850   32.7080   45.9980 C   0  0  0  0  0  0  0  0  0  0  0  0
   58.6440   33.6600   45.1260 C   0  0  0  0  0  0  0  0  0  0  0  0
   59.1366   34.5542   45.5357 H   0  0  0  0  0  0  0  0  0  0  0  0
   58.5770   33.4760   43.7410 C   0  0  0  0  0  0  0  0  0  0  0  0
   59.0068   34.2301   43.0653 H   0  0  0  0  0  0  0  0  0  0  0  0
   57.9640   32.3340   43.2140 C   0  0  0  0  0  0  0  0  0  0  0  0
   57.9271   32.1824   42.1251 H   0  0  0  0  0  0  0  0  0  0  0  0
   57.3980   31.3850   44.0720 C   0  0  0  0  0  0  0  0  0  0  0  0
   56.5280   29.8480   43.3480 Br  0  0  0  0  0  0  0  0  0  0  0  0
   57.4580   31.5700   45.4580 C   0  0  0  0  0  0  0  0  0  0  0  0
   57.0123   30.8212   46.1293 H   0  0  0  0  0  0  0  0  0  0  0  0
  1  2  1  0
  2  3  2  0
  3  4  1  0
  4  5  2  0
  4  6  1  0
  6  7  1  6
  6  8  1  0
  8  9  1  6
  8 10  1  0
 10 11  2  0
 10 12  1  0
 12 13  1  0
 13 14  2  0
 14 15  1  0
 14 16  1  0
 16 17  1  0
 16 18  2  0
 18 19  1  0
 18 20  1  0
 20 21  1  0
 20 22  2  0
 22 23  1  0
  8 24  1  0
 24 25  1  6
 24 26  1  0
 26 27  1  0
 26 28  1  0
 26 29  1  0
 29 30  1  0
 29 31  1  0
 29 32  1  0
 32 33  1  1
 32 34  1  0
 34 35  1  0
 34 36  1  0
  2 37  1  0
 37 38  2  0
 38 39  1  0
 38 40  1  0
 40 41  1  0
 40 42  2  0
 42 43  1  0
 42 44  1  0
 44 45  1  0
 44 46  2  0
 46 47  1  0
 32  6  1  0
 46 37  1  0
 22 13  1  0
 34 24  1  0
M  CHG  1  12  -1
M  END
>  <UniqueID>  (26) 
25

>  <SMILES>  (26) 
O=C([N-]c1ccc(Br)cc1)C1C2CC[C@@H](C2)[C@@H]1C(=O)/N=C/c1cccc(Br)c1

>  <Energy>  (26) 
89.2161140803768

>  <Genealogy>  (26) 
O=C(N=Cc1cccc(Br)c1)C1C2CCC(C2)C1C(=O)[N-]c1ccc(Br)cc1 (protonated)
O=C([N-]c1ccc(Br)cc1)C1C2CC[C@@H](C2)[C@@H]1C(=O)N=Cc1cccc(Br)c1 (chirality)
O=C([N-]c1ccc(Br)cc1)C1C2CC[C@@H](C2)[C@@H]1C(=O)/N=C/c1cccc(Br)c1 (cis-trans isomerization)
O=C([N-]c1ccc(Br)cc1)C1C2CC[C@@H](C2)[C@@H]1C(=O)/N=C/c1cccc(Br)c1 (3D coordinates assigned)
O=C([N-]c1ccc(Br)cc1)C1C2CC[C@@H](C2)[C@@H]1C(=O)/N=C/c1cccc(Br)c1 (nonaromatic ring conformer: 89.2161140803768 kcal/mol)

>  <smiles>  (26) 
O=C(N=Cc1cccc(Br)c1)C1C2CCC(C2)C1C(=O)Nc1ccc(Br)cc1

>  <score_type>  (26) 
oracle

>  <origin>  (26) 
adg

>  <m_score__min__energy>  (26) 
-12.68

>  <m_primary>  (26) 
energy

$$$$
26:0
     RDKit          3D

 58 62  0  0  0  0  0  0  0  0999 V2000
   58.6290   32.4530   49.6000 O   0  0  0  0  0  0  0  0  0  0  0  0
   58.7020   32.0140   48.4200 C   0  0  0  0  0  0  0  0  0  0  0  0
   58.5190   30.6480   48.1740 O   0  0  0  0  0  0  0  0  0  0  0  0
   59.5450   29.6710   48.3560 C   0  0  0  0  0  0  0  0  0  0  0  0
   59.8570   28.9520   47.0410 C   0  0  0  0  0  0  0  0  0  0  0  0
   58.6130   28.7640   46.2230 C   0  0  0  0  0  0  0  0  0  0  0  0
   57.7330   27.6880   46.2890 C   0  0  0  0  0  0  0  0  0  0  0  0
   56.7710   27.8060   45.3480 N   0  0  0  0  0  0  0  0  0  0  0  0
   57.0420   28.9400   44.6780 C   0  0  0  0  0  0  0  0  0  0  0  0
   56.3400   29.4740   43.5980 C   0  0  0  0  0  0  0  0  0  0  0  0
   56.8170   30.6680   43.0290 C   0  0  0  0  0  0  0  0  0  0  0  0
   57.9750   31.2940   43.5440 C   0  0  0  0  0  0  0  0  0  0  0  0
   58.6640   30.7310   44.6330 C   0  0  0  0  0  0  0  0  0  0  0  0
   58.1640   29.5500   45.1810 C   0  0  0  0  0  0  0  0  0  0  0  0
   58.9270   32.9340   47.2710 C   0  0  0  0  0  0  0  0  0  0  0  0
   60.1060   33.5830   47.0630 C   0  0  0  0  0  0  0  0  0  0  0  0
   61.3360   33.2480   47.8160 C   0  0  0  0  0  0  0  0  0  0  0  0
   62.2300   32.2860   47.3230 C   0  0  0  0  0  0  0  0  0  0  0  0
   63.3950   31.9770   48.0300 C   0  0  0  0  0  0  0  0  0  0  0  0
   63.6900   32.6320   49.2380 C   0  0  0  0  0  0  0  0  0  0  0  0
   64.9270   32.3030   49.9930 C   0  0  0  0  0  0  0  0  0  0  0  0
   66.0910   33.0790   49.8320 C   0  0  0  0  0  0  0  0  0  0  0  0
   67.2540   32.7660   50.5430 C   0  0  0  0  0  0  0  0  0  0  0  0
   67.2690   31.6800   51.4200 C   0  0  0  0  0  0  0  0  0  0  0  0
   66.1200   30.9030   51.5880 C   0  0  0  0  0  0  0  0  0  0  0  0
   64.9550   31.2110   50.8800 C   0  0  0  0  0  0  0  0  0  0  0  0
   62.7970   33.6060   49.7210 C   0  0  0  0  0  0  0  0  0  0  0  0
   61.6320   33.9150   49.0130 C   0  0  0  0  0  0  0  0  0  0  0  0
   60.2730   34.5630   45.9230 C   0  0  0  0  0  0  0  0  0  0  0  0
   58.9340   35.0210   45.3540 C   0  0  0  0  0  0  0  0  0  0  0  0
   58.0900   33.8520   45.1190 N   0  0  0  0  0  0  0  0  0  0  0  0
   57.7200   33.2390   46.4000 C   0  0  0  0  0  0  0  0  0  0  0  0
   60.4562   30.1694   48.7185 H   0  0  0  0  0  0  0  0  0  0  0  0
   59.1954   28.9277   49.0876 H   0  0  0  0  0  0  0  0  0  0  0  0
   60.5786   29.5508   46.4660 H   0  0  0  0  0  0  0  0  0  0  0  0
   60.2766   27.9621   47.2736 H   0  0  0  0  0  0  0  0  0  0  0  0
   57.8099   26.8579   47.0067 H   0  0  0  0  0  0  0  0  0  0  0  0
   55.9870   27.1400   45.1680 H   0  0  0  0  0  0  0  0  0  0  0  0
   55.4415   28.9769   43.2037 H   0  0  0  0  0  0  0  0  0  0  0  0
   56.2855   31.1179   42.1775 H   0  0  0  0  0  0  0  0  0  0  0  0
   58.3395   32.2274   43.0901 H   0  0  0  0  0  0  0  0  0  0  0  0
   59.5685   31.2069   45.0397 H   0  0  0  0  0  0  0  0  0  0  0  0
   62.0128   31.7722   46.3749 H   0  0  0  0  0  0  0  0  0  0  0  0
   64.0859   31.2159   47.6384 H   0  0  0  0  0  0  0  0  0  0  0  0
   66.0855   33.9364   49.1429 H   0  0  0  0  0  0  0  0  0  0  0  0
   68.1591   33.3770   50.4108 H   0  0  0  0  0  0  0  0  0  0  0  0
   68.1848   31.4361   51.9784 H   0  0  0  0  0  0  0  0  0  0  0  0
   66.1323   30.0471   52.2789 H   0  0  0  0  0  0  0  0  0  0  0  0
   64.0537   30.5955   51.0171 H   0  0  0  0  0  0  0  0  0  0  0  0
   63.0174   34.1286   50.6635 H   0  0  0  0  0  0  0  0  0  0  0  0
   60.9452   34.6840   49.3963 H   0  0  0  0  0  0  0  0  0  0  0  0
   60.8212   35.4431   46.2903 H   0  0  0  0  0  0  0  0  0  0  0  0
   60.8244   34.0538   45.1189 H   0  0  0  0  0  0  0  0  0  0  0  0
   58.4401   35.6940   46.0703 H   0  0  0  0  0  0  0  0  0  0  0  0
   59.0972   35.5568   44.4073 H   0  0  0  0  0  0  0  0  0  0  0  0
   57.2100   34.1770   44.6550 H   0  0  0  0  0  0  0  0  0  0  0  0
   57.0587   33.9299   46.9434 H   0  0  0  0  0  0  0  0  0  0  0  0
   57.2174   32.2854   46.1806 H   0  0  0  0  0  0  0  0  0  0  0  0
  1  2  2  0
  2  3  1  0
  3  4  1  0
  4  5  1  0
  5  6  1  0
  6  7  2  0
  7  8  1  0
  8  9  1  0
  9 10  2  0
 10 11  1  0
 11 12  2  0
 12 13  1  0
 13 14  2  0
  2 15  1  0
 15 16  2  0
 16 17  1  0
 17 18  2  0
 18 19  1  0
 19 20  2  0
 20 21  1  0
 21 22  2  0
 22 23  1  0
 23 24  2  0
 24 25  1  0
 25 26  2  0
 20 27  1  0
 27 28  2  0
 16 29  1  0
 29 30  1  0
 30 31  1  0
 31 32  1  0
 14  6  1  0
 32 15  1  0
 14  9  1  0
 28 17  1  0
 26 21  1  0
  4 33  1  0
  4 34  1  0
  5 35  1  0
  5 36  1  0
  7 37  1  0
  8 38  1  0
 10 39  1  0
 11 40  1  0
 12 41  1  0
 13 42  1  0
 18 43  1  0
 19 44  1  0
 22 45  1  0
 23 46  1  0
 24 47  1  0
 25 48  1  0
 26 49  1  0
 27 50  1  0
 28 51  1  0
 29 52  1  0
 29 53  1  0
 30 54  1  0
 30 55  1  0
 31 56  1  0
 32 57  1  0
 32 58  1  0
M  END
>  <UniqueID>  (27) 
26

>  <SMILES>  (27) 
O=C(OCCc1c[nH]c2ccccc12)C1=C(c2ccc(-c3ccccc3)cc2)CCNC1

>  <Energy>  (27) 
107.54922030341993

>  <Genealogy>  (27) 
O=C(OCCc1c[nH]c2ccccc12)C1=C(c2ccc(-c3ccccc3)cc2)CCNC1 (3D coordinates assigned)
O=C(OCCc1c[nH]c2ccccc12)C1=C(c2ccc(-c3ccccc3)cc2)CCNC1 (nonaromatic ring conformer: 107.54922030341993 kcal/mol)

>  <smiles>  (27) 
O=C(OCCc1c[nH]c2ccccc12)C1=C(c2ccc(-c3ccccc3)cc2)CCNC1

>  <score_type>  (27) 
oracle

>  <origin>  (27) 
adg

>  <m_score__min__energy>  (27) 
-9.9299999999999997

>  <m_primary>  (27) 
energy

$$$$
27:0
     RDKit          3D

 47 49  0  0  1  0  0  0  0  0999 V2000
   58.1320   22.1590   44.1290 C   0  0  0  0  0  0  0  0  0  0  0  0
   56.7020   21.8180   44.4850 C   0  0  0  0  0  0  0  0  0  0  0  0
   55.7820   22.3470   43.6140 O   0  0  0  0  0  0  0  0  0  0  0  0
   55.5410   23.7060   43.8460 C   0  0  0  0  0  0  0  0  0  0  0  0
   55.0470   23.9090   45.2380 C   0  0  0  0  0  0  0  0  0  0  0  0
   55.3130   25.1510   45.8630 N   0  0  0  0  0  0  0  0  0  0  0  0
   56.5000   25.5970   46.0450 C   0  0  0  0  0  0  0  0  0  0  0  0
   56.9270   26.5830   45.2510 N   0  0  0  0  0  0  0  0  0  0  0  0
   58.1500   27.1370   45.3400 C   0  0  0  0  0  0  0  0  0  0  0  0
   58.5560   28.0730   44.5890 N   0  0  0  0  0  0  0  0  0  0  0  0
   57.8490   29.3040   44.4950 C   0  0  0  0  0  0  0  0  0  0  0  0
   56.5100   29.5650   44.7230 C   0  0  0  0  0  0  0  0  0  0  0  0
   56.3420   30.8770   44.5010 N   0  0  0  0  0  0  0  0  0  0  0  0
   57.5050   31.4260   44.1510 N   0  0  0  0  0  0  0  0  0  0  0  0
   57.7480   32.8390   43.8240 C   0  0  0  0  0  0  0  0  0  0  0  0
   58.2800   33.4420   45.0830 C   0  0  0  0  0  0  0  0  0  0  0  0
   59.1180   34.5370   45.0630 C   0  0  0  0  0  0  0  0  0  0  0  0
   59.6220   35.1120   46.2240 C   0  0  0  0  0  0  0  0  0  0  0  0
   59.2570   34.5460   47.4350 C   0  0  0  0  0  0  0  0  0  0  0  0
   58.4190   33.4480   47.4880 C   0  0  0  0  0  0  0  0  0  0  0  0
   57.9290   32.8930   46.3190 C   0  0  0  0  0  0  0  0  0  0  0  0
   58.4740   30.4910   44.1320 C   0  0  0  0  0  0  0  0  0  0  0  0
   58.9790   26.6620   46.2830 N   0  0  0  0  0  0  0  0  0  0  0  0
   58.5950   25.6700   47.1060 C   0  0  0  0  0  0  0  0  0  0  0  0
   57.3430   25.1040   47.0140 C   0  0  0  0  0  0  0  0  0  0  0  0
   56.8310   23.8300   48.0600 Cl  0  0  0  0  0  0  0  0  0  0  0  0
   58.7161   22.2983   45.0507 H   0  0  0  0  0  0  0  0  0  0  0  0
   58.5683   21.3397   43.5387 H   0  0  0  0  0  0  0  0  0  0  0  0
   58.1516   23.0870   43.5387 H   0  0  0  0  0  0  0  0  0  0  0  0
   56.5940   20.7233   44.4838 H   0  0  0  0  0  0  0  0  0  0  0  0
   56.5008   22.2547   45.4744 H   0  0  0  0  0  0  0  0  0  0  0  0
   56.4748   24.2701   43.7056 H   0  0  0  0  0  0  0  0  0  0  0  0
   54.7782   24.0621   43.1380 H   0  0  0  0  0  0  0  0  0  0  0  0
   53.9548   23.7793   45.2197 H   0  0  0  0  0  0  0  0  0  0  0  0
   55.6050   23.1747   45.8374 H   0  0  0  0  0  0  0  0  0  0  0  0
   56.3000   26.9690   44.5110 H   0  0  0  0  0  0  0  0  0  0  0  0
   55.7382   28.8420   45.0255 H   0  0  0  0  0  0  0  0  0  0  0  0
   58.4849   32.9266   43.0120 H   0  0  0  0  0  0  0  0  0  0  0  0
   56.8352   33.3454   43.4772 H   0  0  0  0  0  0  0  0  0  0  0  0
   59.3981   34.9717   44.0921 H   0  0  0  0  0  0  0  0  0  0  0  0
   60.2879   35.9866   46.1827 H   0  0  0  0  0  0  0  0  0  0  0  0
   59.6410   34.9782   48.3708 H   0  0  0  0  0  0  0  0  0  0  0  0
   58.1414   33.0150   48.4604 H   0  0  0  0  0  0  0  0  0  0  0  0
   57.2626   32.0189   46.3628 H   0  0  0  0  0  0  0  0  0  0  0  0
   59.5354   30.6361   43.8821 H   0  0  0  0  0  0  0  0  0  0  0  0
   59.9490   27.0910   46.3650 H   0  0  0  0  0  0  0  0  0  0  0  0
   59.2965   25.3027   47.8695 H   0  0  0  0  0  0  0  0  0  0  0  0
  1  2  1  0
  2  3  1  0
  3  4  1  0
  4  5  1  0
  5  6  1  0
  6  7  2  0
  7  8  1  0
  8  9  1  0
  9 10  2  0
 10 11  1  0
 11 12  1  0
 12 13  2  0
 13 14  1  0
 14 15  1  0
 15 16  1  0
 16 17  2  0
 17 18  1  0
 18 19  2  0
 19 20  1  0
 20 21  2  0
 14 22  1  0
  9 23  1  0
 23 24  1  0
 24 25  2  0
 25 26  1  0
 25  7  1  0
 22 11  2  0
 21 16  1  0
  1 27  1  0
  1 28  1  0
  1 29  1  0
  2 30  1  0
  2 31  1  0
  4 32  1  0
  4 33  1  0
  5 34  1  0
  5 35  1  0
  8 36  1  0
 12 37  1  0
 15 38  1  0
 15 39  1  0
 17 40  1  0
 18 41  1  0
 19 42  1  0
 20 43  1  0
 21 44  1  0
 22 45  1  0
 23 46  1  0
 24 47  1  0
M  END
>  <smiles>  (28) 
CCOCCN=c1[nH]c(=Nc2cnn(Cc3ccccc3)c2)[nH]cc1Cl

>  <score_type>  (28) 
oracle

>  <origin>  (28) 
adg

>  <m_score__min__energy>  (28) 
-8.4299999999999997

>  <m_primary>  (28) 
energy

$$$$
28:0
     RDKit          3D

 38 39  0  0  0  0  0  0  0  0999 V2000
   59.3150   20.8140   45.0550 H   0  0  0  0  0  0  0  0  0  0  0  0
   59.3700   21.6400   45.6330 O   0  0  0  0  0  0  0  0  0  0  0  0
   58.8210   22.8590   45.2810 N   0  0  0  0  0  0  0  0  0  0  0  0
   59.1880   23.2990   44.4070 H   0  0  0  0  0  0  0  0  0  0  0  0
   57.8620   23.4630   45.9370 C   0  0  0  0  0  0  0  0  0  0  0  0
   57.4100   22.8860   47.1710 N   0  0  0  0  0  0  0  0  0  0  0  0
   57.7720   21.9630   47.4960 H   0  0  0  0  0  0  0  0  0  0  0  0
   56.7560   23.4000   47.8020 H   0  0  0  0  0  0  0  0  0  0  0  0
   57.2780   24.7950   45.4860 C   0  0  0  0  0  0  0  0  0  0  0  0
   56.2658   24.6254   45.0901 H   0  0  0  0  0  0  0  0  0  0  0  0
   58.1440   25.3750   44.3460 C   0  0  0  0  0  0  0  0  0  0  0  0
   57.9847   24.7761   43.4372 H   0  0  0  0  0  0  0  0  0  0  0  0
   59.1968   25.3385   44.6626 H   0  0  0  0  0  0  0  0  0  0  0  0
   57.7850   26.8350   44.0480 C   0  0  0  0  0  0  0  0  0  0  0  0
   56.7722   26.8757   43.6206 H   0  0  0  0  0  0  0  0  0  0  0  0
   58.5217   27.2373   43.3371 H   0  0  0  0  0  0  0  0  0  0  0  0
   57.8230   27.6490   45.2680 N   0  0  0  0  0  0  0  0  0  0  0  0
   57.7450   29.0790   45.1590 C   0  0  0  0  0  0  0  0  0  0  0  0
   58.8950   29.8840   45.2500 C   0  0  0  0  0  0  0  0  0  0  0  0
   60.2530   29.2890   45.4720 C   0  0  0  0  0  0  0  0  0  0  0  0
   60.4445   29.2051   46.5520 H   0  0  0  0  0  0  0  0  0  0  0  0
   60.2950   28.2900   45.0135 H   0  0  0  0  0  0  0  0  0  0  0  0
   61.0159   29.9353   45.0135 H   0  0  0  0  0  0  0  0  0  0  0  0
   58.7750   31.2360   45.1560 N   0  0  0  0  0  0  0  0  0  0  0  0
   57.5670   31.8270   44.9700 C   0  0  0  0  0  0  0  0  0  0  0  0
   57.4760   33.3100   44.8270 C   0  0  0  0  0  0  0  0  0  0  0  0
   57.4476   33.7735   45.8242 H   0  0  0  0  0  0  0  0  0  0  0  0
   58.3531   33.6797   44.2757 H   0  0  0  0  0  0  0  0  0  0  0  0
   56.5602   33.5697   44.2757 H   0  0  0  0  0  0  0  0  0  0  0  0
   56.4490   31.0630   44.8560 N   0  0  0  0  0  0  0  0  0  0  0  0
   56.5110   29.7110   44.9510 C   0  0  0  0  0  0  0  0  0  0  0  0
   55.4530   29.0330   44.8590 O   0  0  0  0  0  0  0  0  0  0  0  0
   57.9790   27.0220   46.5830 C   0  0  0  0  0  0  0  0  0  0  0  0
   57.6957   27.7398   47.3668 H   0  0  0  0  0  0  0  0  0  0  0  0
   59.0276   26.7202   46.7219 H   0  0  0  0  0  0  0  0  0  0  0  0
   57.0780   25.7870   46.6730 C   0  0  0  0  0  0  0  0  0  0  0  0
   56.0292   26.1187   46.6790 H   0  0  0  0  0  0  0  0  0  0  0  0
   57.3465   25.2521   47.5959 H   0  0  0  0  0  0  0  0  0  0  0  0
  1  2  1  0
  2  3  1  0
  3  4  1  0
  3  5  2  0
  5  6  1  0
  6  7  1  0
  6  8  1  0
  5  9  1  0
  9 10  1  0
  9 11  1  0
 11 12  1  0
 11 13  1  0
 11 14  1  0
 14 15  1  0
 14 16  1  0
 14 17  1  0
 17 18  1  0
 18 19  2  0
 19 20  1  0
 20 21  1  0
 20 22  1  0
 20 23  1  0
 19 24  1  0
 24 25  1  0
 25 26  1  0
 26 27  1  0
 26 28  1  0
 26 29  1  0
 25 30  2  0
 30 31  1  0
 31 32  2  0
 17 33  1  0
 33 34  1  0
 33 35  1  0
 33 36  1  0
 36 37  1  0
 36 38  1  0
 36  9  1  0
 31 18  1  0
M  CHG  2   3   1  24  -1
M  END
>  <UniqueID>  (29) 
27

>  <SMILES>  (29) 
Cc1nc(=O)c(N2CCC(/C(N)=[NH+]\O)CC2)c(C)[n-]1

>  <Energy>  (29) 
46.522586305077525

>  <Genealogy>  (29) 
Cc1nc(=O)c(N2CCC(C(N)=[NH+]O)CC2)c(C)[n-]1 (protonated)
Cc1nc(=O)c(N2CCC(/C(N)=[NH+]\O)CC2)c(C)[n-]1 (cis-trans isomerization)
Cc1nc(=O)c(N2CCC(/C(N)=[NH+]\O)CC2)c(C)[n-]1 (3D coordinates assigned)
Cc1nc(=O)c(N2CCC(/C(N)=[NH+]\O)CC2)c(C)[n-]1 (nonaromatic ring conformer: 46.522586305077525 kcal/mol)

>  <smiles>  (29) 
Cc1nc(=O)c(N2CCC(C(N)=NO)CC2)c(C)[nH]1

>  <score_type>  (29) 
oracle

>  <origin>  (29) 
adg

>  <m_score__min__energy>  (29) 
-6.4699999999999998

>  <m_primary>  (29) 
energy

$$$$
29:0
     RDKit          3D

 59 62  0  0  0  0  0  0  0  0999 V2000
   57.7052   29.2970   53.0438 H   0  0  0  0  0  0  0  0  0  0  0  0
   58.0100   30.0710   52.3240 C   0  0  0  0  0  0  0  0  0  0  0  0
   57.4030   31.3270   52.3520 C   0  0  0  0  0  0  0  0  0  0  0  0
   56.6232   31.5433   53.0970 H   0  0  0  0  0  0  0  0  0  0  0  0
   57.7840   32.3110   51.4350 C   0  0  0  0  0  0  0  0  0  0  0  0
   57.3005   33.2987   51.4595 H   0  0  0  0  0  0  0  0  0  0  0  0
   58.7870   32.0430   50.4770 C   0  0  0  0  0  0  0  0  0  0  0  0
   59.1930   32.9990   49.5320 O   0  0  0  0  0  0  0  0  0  0  0  0
   59.9820   34.1450   49.8320 C   0  0  0  0  0  0  0  0  0  0  0  0
   60.0613   34.2602   50.9231 H   0  0  0  0  0  0  0  0  0  0  0  0
   60.9870   34.0209   49.4024 H   0  0  0  0  0  0  0  0  0  0  0  0
   59.5075   35.0396   49.4024 H   0  0  0  0  0  0  0  0  0  0  0  0
   59.4030   30.7820   50.4590 C   0  0  0  0  0  0  0  0  0  0  0  0
   60.4570   30.5590   49.5570 O   0  0  0  0  0  0  0  0  0  0  0  0
   61.7010   31.2040   49.5890 C   0  0  0  0  0  0  0  0  0  0  0  0
   62.4630   31.2450   50.7690 C   0  0  0  0  0  0  0  0  0  0  0  0
   62.0610   30.8099   51.6959 H   0  0  0  0  0  0  0  0  0  0  0  0
   63.7290   31.8360   50.7700 C   0  0  0  0  0  0  0  0  0  0  0  0
   64.3157   31.8750   51.6997 H   0  0  0  0  0  0  0  0  0  0  0  0
   64.2510   32.3770   49.5940 C   0  0  0  0  0  0  0  0  0  0  0  0
   65.2542   32.8283   49.5948 H   0  0  0  0  0  0  0  0  0  0  0  0
   63.5020   32.3460   48.4180 C   0  0  0  0  0  0  0  0  0  0  0  0
   63.9175   32.7730   47.4933 H   0  0  0  0  0  0  0  0  0  0  0  0
   62.2190   31.7720   48.4080 C   0  0  0  0  0  0  0  0  0  0  0  0
   61.4040   31.7750   47.1340 C   0  0  0  0  0  0  0  0  0  0  0  0
   61.5421   32.7409   46.6262 H   0  0  0  0  0  0  0  0  0  0  0  0
   61.7522   30.9421   46.5055 H   0  0  0  0  0  0  0  0  0  0  0  0
   59.9670   31.5770   47.3980 N   0  0  0  0  0  0  0  0  0  0  0  0
   59.8160   30.5790   47.6480 H   0  0  0  0  0  0  0  0  0  0  0  0
   59.7050   32.1410   48.2400 H   0  0  0  0  0  0  0  0  0  0  0  0
   59.1440   32.0140   46.2860 C   0  0  0  0  0  0  0  0  0  0  0  0
   58.8020   33.3790   46.1990 C   0  0  0  0  0  0  0  0  0  0  0  0
   59.1083   34.0653   47.0022 H   0  0  0  0  0  0  0  0  0  0  0  0
   58.0820   33.8740   45.1120 C   0  0  0  0  0  0  0  0  0  0  0  0
   57.8300   34.9435   45.0599 H   0  0  0  0  0  0  0  0  0  0  0  0
   57.6820   33.0130   44.0920 C   0  0  0  0  0  0  0  0  0  0  0  0
   57.1363   33.4076   43.2222 H   0  0  0  0  0  0  0  0  0  0  0  0
   57.9730   31.6510   44.1730 C   0  0  0  0  0  0  0  0  0  0  0  0
   57.6534   30.9789   43.3630 H   0  0  0  0  0  0  0  0  0  0  0  0
   58.6700   31.1250   45.2770 C   0  0  0  0  0  0  0  0  0  0  0  0
   58.8830   29.3620   45.3490 S   0  0  0  0  0  0  0  0  0  0  0  0
   59.2200   29.0010   46.7670 O   0  0  0  0  0  0  0  0  0  0  0  0
   60.0250   28.9180   44.4790 O   0  0  0  0  0  0  0  0  0  0  0  0
   57.4540   28.4840   44.8890 N   0  0  0  0  0  0  0  0  0  0  0  0
   56.8570   27.4760   45.4580 C   0  0  0  0  0  0  0  0  0  0  0  0
   55.5540   27.4570   45.6120 O   0  0  0  0  0  0  0  0  0  0  0  0
   55.1550   26.3460   46.1580 N   0  0  0  0  0  0  0  0  0  0  0  0
   56.2520   25.5980   46.3760 C   0  0  0  0  0  0  0  0  0  0  0  0
   56.2090   24.2280   46.9710 C   0  0  0  0  0  0  0  0  0  0  0  0
   56.2114   24.3046   48.0683 H   0  0  0  0  0  0  0  0  0  0  0  0
   55.2943   23.7136   46.6413 H   0  0  0  0  0  0  0  0  0  0  0  0
   57.0897   23.6573   46.6413 H   0  0  0  0  0  0  0  0  0  0  0  0
   57.3820   26.2870   45.9670 C   0  0  0  0  0  0  0  0  0  0  0  0
   58.7870   25.7650   46.0260 C   0  0  0  0  0  0  0  0  0  0  0  0
   59.0922   25.6516   47.0767 H   0  0  0  0  0  0  0  0  0  0  0  0
   58.8368   24.7884   45.5223 H   0  0  0  0  0  0  0  0  0  0  0  0
   59.4624   26.4722   45.5223 H   0  0  0  0  0  0  0  0  0  0  0  0
   59.0040   29.7960   51.3830 C   0  0  0  0  0  0  0  0  0  0  0  0
   59.4784   28.8038   51.3629 H   0  0  0  0  0  0  0  0  0  0  0  0
  1  2  1  0
  2  3  2  0
  3  4  1  0
  3  5  1  0
  5  6  1  0
  5  7  2  0
  7  8  1  0
  8  9  1  0
  9 10  1  0
  9 11  1  0
  9 12  1  0
  7 13  1  0
 13 14  1  0
 14 15  1  0
 15 16  2  0
 16 17  1  0
 16 18  1  0
 18 19  1  0
 18 20  2  0
 20 21  1  0
 20 22  1  0
 22 23  1  0
 22 24  2  0
 24 25  1  0
 25 26  1  0
 25 27  1  0
 25 28  1  0
 28 29  1  0
 28 30  1  0
 28 31  1  0
 31 32  2  0
 32 33  1  0
 32 34  1  0
 34 35  1  0
 34 36  2  0
 36 37  1  0
 36 38  1  0
 38 39  1  0
 38 40  2  0
 40 41  1  0
 41 42  2  0
 41 43  2  0
 41 44  1  0
 44 45  2  0
 45 46  1  0
 46 47  1  0
 47 48  1  0
 48 49  1  0
 49 50  1  0
 49 51  1  0
 49 52  1  0
 48 53  2  0
 53 54  1  0
 54 55  1  0
 54 56  1  0
 54 57  1  0
 13 58  2  0
 58 59  1  0
 58  2  1  0
 24 15  1  0
 40 31  1  0
 53 45  1  0
M  CHG  2  28   1  47  -1
M  END
>  <UniqueID>  (30) 
28

>  <SMILES>  (30) 
COc1ccccc1Oc1ccccc1C[NH2+]c1ccccc1S(=O)(=O)/N=c1/o[n-]c(C)c1C

>  <Energy>  (30) 
112.4637569632411

>  <Genealogy>  (30) 
COc1ccccc1Oc1ccccc1C[NH2+]c1ccccc1S(=O)(=O)N=c1o[n-]c(C)c1C (protonated)
COc1ccccc1Oc1ccccc1C[NH2+]c1ccccc1S(=O)(=O)/N=c1/o[n-]c(C)c1C (cis-trans isomerization)
COc1ccccc1Oc1ccccc1C[NH2+]c1ccccc1S(=O)(=O)/N=c1/o[n-]c(C)c1C (3D coordinates assigned)
COc1ccccc1Oc1ccccc1C[NH2+]c1ccccc1S(=O)(=O)/N=c1/o[n-]c(C)c1C (optimized conformer: 112.4637569632411 kcal/mol)

>  <smiles>  (30) 
COc1ccccc1Oc1ccccc1CNc1ccccc1S(=O)(=O)N=c1o[nH]c(C)c1C

>  <score_type>  (30) 
oracle

>  <origin>  (30) 
adg

>  <m_score__min__energy>  (30) 
-10.01

>  <m_primary>  (30) 
energy

$$$$
30:0
     RDKit          3D

 31 32  0  0  0  0  0  0  0  0999 V2000
   58.5380   31.3640   47.1120 C   0  0  0  0  0  0  0  0  0  0  0  0
   58.8660   32.7450   46.6110 C   0  0  0  0  0  0  0  0  0  0  0  0
   59.5660   33.6190   47.4640 C   0  0  0  0  0  0  0  0  0  0  0  0
   59.9310   34.8950   47.0340 C   0  0  0  0  0  0  0  0  0  0  0  0
   59.6020   35.3200   45.7490 C   0  0  0  0  0  0  0  0  0  0  0  0
   58.8940   34.4750   44.8920 C   0  0  0  0  0  0  0  0  0  0  0  0
   58.5000   33.1890   45.3090 C   0  0  0  0  0  0  0  0  0  0  0  0
   57.7180   32.3540   44.3640 C   0  0  0  0  0  0  0  0  0  0  0  0
   57.9630   32.4150   43.1280 O   0  0  0  0  0  0  0  0  0  0  0  0
   56.6560   31.5200   44.8320 N   0  0  0  0  0  0  0  0  0  0  0  0
   56.4790   29.8700   44.3410 S   0  0  0  0  0  0  0  0  0  0  0  0
   56.4640   29.8000   42.8400 O   0  0  0  0  0  0  0  0  0  0  0  0
   55.1760   29.3410   44.8730 O   0  0  0  0  0  0  0  0  0  0  0  0
   57.8260   28.9140   44.9490 C   0  0  0  0  0  0  0  0  0  0  0  0
   59.1380   29.1980   44.5420 C   0  0  0  0  0  0  0  0  0  0  0  0
   60.2040   28.4340   45.0280 C   0  0  0  0  0  0  0  0  0  0  0  0
   59.9650   27.3870   45.9230 C   0  0  0  0  0  0  0  0  0  0  0  0
   58.6600   27.1050   46.3350 C   0  0  0  0  0  0  0  0  0  0  0  0
   57.5920   27.8670   45.8520 C   0  0  0  0  0  0  0  0  0  0  0  0
   58.5379   31.3634   48.2120 H   0  0  0  0  0  0  0  0  0  0  0  0
   57.5444   31.0672   46.7451 H   0  0  0  0  0  0  0  0  0  0  0  0
   59.2921   30.6521   46.7451 H   0  0  0  0  0  0  0  0  0  0  0  0
   59.8282   33.2922   48.4811 H   0  0  0  0  0  0  0  0  0  0  0  0
   60.4795   35.5666   47.7109 H   0  0  0  0  0  0  0  0  0  0  0  0
   59.9003   36.3227   45.4089 H   0  0  0  0  0  0  0  0  0  0  0  0
   58.6408   34.8183   43.8781 H   0  0  0  0  0  0  0  0  0  0  0  0
   59.3288   30.0228   43.8396 H   0  0  0  0  0  0  0  0  0  0  0  0
   61.2317   28.6572   44.7056 H   0  0  0  0  0  0  0  0  0  0  0  0
   60.8040   26.7854   46.3027 H   0  0  0  0  0  0  0  0  0  0  0  0
   58.4726   26.2821   47.0405 H   0  0  0  0  0  0  0  0  0  0  0  0
   56.5661   27.6448   46.1810 H   0  0  0  0  0  0  0  0  0  0  0  0
  1  2  1  0
  2  3  2  0
  3  4  1  0
  4  5  2  0
  5  6  1  0
  6  7  2  0
  7  8  1  0
  8  9  2  0
  8 10  1  0
 10 11  1  0
 11 12  2  0
 11 13  2  0
 11 14  1  0
 14 15  2  0
 15 16  1  0
 16 17  2  0
 17 18  1  0
 18 19  2  0
  7  2  1  0
 19 14  1  0
  1 20  1  0
  1 21  1  0
  1 22  1  0
  3 23  1  0
  4 24  1  0
  5 25  1  0
  6 26  1  0
 15 27  1  0
 16 28  1  0
 17 29  1  0
 18 30  1  0
 19 31  1  0
M  CHG  1  10  -1
M  END
>  <UniqueID>  (31) 
29

>  <SMILES>  (31) 
Cc1ccccc1C(=O)[N-]S(=O)(=O)c1ccccc1

>  <Energy>  (31) 
38.21505810968317

>  <Genealogy>  (31) 
Cc1ccccc1C(=O)[N-]S(=O)(=O)c1ccccc1 (protonated)
Cc1ccccc1C(=O)[N-]S(=O)(=O)c1ccccc1 (3D coordinates assigned)
Cc1ccccc1C(=O)[N-]S(=O)(=O)c1ccccc1 (optimized conformer: 38.21505810968317 kcal/mol)

>  <smiles>  (31) 
Cc1ccccc1C(=O)NS(=O)(=O)c1ccccc1

>  <score_type>  (31) 
oracle

>  <origin>  (31) 
adg

>  <m_score__min__energy>  (31) 
-9.3699999999999992

>  <m_primary>  (31) 
energy

$$$$
31:0
     RDKit          3D

 53 55  0  0  0  0  0  0  0  0999 V2000
   60.7670   28.1640   50.0720 C   0  0  0  0  0  0  0  0  0  0  0  0
   59.9370   29.2460   49.6600 O   0  0  0  0  0  0  0  0  0  0  0  0
   60.4080   30.4200   49.0530 C   0  0  0  0  0  0  0  0  0  0  0  0
   61.7640   30.7320   49.1770 C   0  0  0  0  0  0  0  0  0  0  0  0
   62.2880   31.9050   48.6020 C   0  0  0  0  0  0  0  0  0  0  0  0
   63.6460   32.2440   48.7070 O   0  0  0  0  0  0  0  0  0  0  0  0
   64.1910   33.0970   49.7090 C   0  0  0  0  0  0  0  0  0  0  0  0
   61.4400   32.7670   47.8920 C   0  0  0  0  0  0  0  0  0  0  0  0
   61.9890   33.9120   47.3070 O   0  0  0  0  0  0  0  0  0  0  0  0
   63.1070   33.8530   46.4280 C   0  0  0  0  0  0  0  0  0  0  0  0
   60.0640   32.4740   47.7820 C   0  0  0  0  0  0  0  0  0  0  0  0
   59.1490   33.4170   47.1950 N   0  0  0  0  0  0  0  0  0  0  0  0
   57.7250   33.0790   47.0840 C   0  0  0  0  0  0  0  0  0  0  0  0
   57.1000   33.7790   45.8680 C   0  0  0  0  0  0  0  0  0  0  0  0
   58.0470   33.8620   44.7300 N   0  0  0  0  0  0  0  0  0  0  0  0
   58.4920   32.5370   44.2200 C   0  0  0  0  0  0  0  0  0  0  0  0
   57.3440   31.5270   44.0530 C   0  0  0  0  0  0  0  0  0  0  0  0
   57.5280   30.4080   44.9760 N   0  0  0  0  0  0  0  0  0  0  0  0
   56.6320   29.3160   45.1580 C   0  0  0  0  0  0  0  0  0  0  0  0
   55.4110   29.3490   44.8550 O   0  0  0  0  0  0  0  0  0  0  0  0
   57.3280   28.1490   45.6980 C   0  0  0  0  0  0  0  0  0  0  0  0
   58.6110   28.4740   45.8190 C   0  0  0  0  0  0  0  0  0  0  0  0
   59.9950   27.3090   46.4230 Br  0  0  0  0  0  0  0  0  0  0  0  0
   58.7780   29.8510   45.3670 C   0  0  0  0  0  0  0  0  0  0  0  0
   59.8770   30.4610   45.2860 O   0  0  0  0  0  0  0  0  0  0  0  0
   59.2200   34.7160   45.0740 C   0  0  0  0  0  0  0  0  0  0  0  0
   59.6420   34.6430   46.5620 C   0  0  0  0  0  0  0  0  0  0  0  0
   59.5630   31.2910   48.3440 C   0  0  0  0  0  0  0  0  0  0  0  0
   60.7981   28.1235   51.1708 H   0  0  0  0  0  0  0  0  0  0  0  0
   60.3593   27.2199   49.6817 H   0  0  0  0  0  0  0  0  0  0  0  0
   61.7845   28.3132   49.6817 H   0  0  0  0  0  0  0  0  0  0  0  0
   62.4298   30.0533   49.7303 H   0  0  0  0  0  0  0  0  0  0  0  0
   63.9385   32.7018   50.7040 H   0  0  0  0  0  0  0  0  0  0  0  0
   65.2846   33.1404   49.5984 H   0  0  0  0  0  0  0  0  0  0  0  0
   63.7709   34.1076   49.5984 H   0  0  0  0  0  0  0  0  0  0  0  0
   64.0345   33.8041   47.0173 H   0  0  0  0  0  0  0  0  0  0  0  0
   63.0279   32.9578   45.7937 H   0  0  0  0  0  0  0  0  0  0  0  0
   63.1226   34.7516   45.7937 H   0  0  0  0  0  0  0  0  0  0  0  0
   57.6191   31.9902   46.9690 H   0  0  0  0  0  0  0  0  0  0  0  0
   57.2070   33.4160   47.9940 H   0  0  0  0  0  0  0  0  0  0  0  0
   56.2112   33.2140   45.5505 H   0  0  0  0  0  0  0  0  0  0  0  0
   56.8334   34.8041   46.1648 H   0  0  0  0  0  0  0  0  0  0  0  0
   57.5430   34.3370   43.9430 H   0  0  0  0  0  0  0  0  0  0  0  0
   58.9717   32.6839   43.2411 H   0  0  0  0  0  0  0  0  0  0  0  0
   59.1847   32.1193   44.9654 H   0  0  0  0  0  0  0  0  0  0  0  0
   56.3866   32.0240   44.2685 H   0  0  0  0  0  0  0  0  0  0  0  0
   57.3420   31.1483   43.0203 H   0  0  0  0  0  0  0  0  0  0  0  0
   56.8737   27.1811   45.9563 H   0  0  0  0  0  0  0  0  0  0  0  0
   60.0727   34.3959   44.4572 H   0  0  0  0  0  0  0  0  0  0  0  0
   58.9216   35.7569   44.8802 H   0  0  0  0  0  0  0  0  0  0  0  0
   60.7401   34.6621   46.6245 H   0  0  0  0  0  0  0  0  0  0  0  0
   59.2075   35.5052   47.0891 H   0  0  0  0  0  0  0  0  0  0  0  0
   58.4977   31.0421   48.2288 H   0  0  0  0  0  0  0  0  0  0  0  0
  1  2  1  0
  2  3  1  0
  3  4  2  0
  4  5  1  0
  5  6  1  0
  6  7  1  0
  5  8  2  0
  8  9  1  0
  9 10  1  0
  8 11  1  0
 11 12  1  0
 12 13  1  0
 13 14  1  0
 14 15  1  0
 15 16  1  0
 16 17  1  0
 17 18  1  0
 18 19  1  0
 19 20  2  0
 19 21  1  0
 21 22  2  0
 22 23  1  0
 22 24  1  0
 24 25  2  0
 15 26  1  0
 26 27  1  0
 11 28  2  0
 28  3  1  0
 27 12  1  0
 24 18  1  0
  1 29  1  0
  1 30  1  0
  1 31  1  0
  4 32  1  0
  7 33  1  0
  7 34  1  0
  7 35  1  0
 10 36  1  0
 10 37  1  0
 10 38  1  0
 13 39  1  0
 13 40  1  0
 14 41  1  0
 14 42  1  0
 15 43  1  0
 16 44  1  0
 16 45  1  0
 17 46  1  0
 17 47  1  0
 21 48  1  0
 26 49  1  0
 26 50  1  0
 27 51  1  0
 27 52  1  0
 28 53  1  0
M  CHG  1  15   1
M  END
>  <UniqueID>  (32) 
30

>  <SMILES>  (32) 
COc1cc(OC)c(OC)c(N2CC[NH+](CCN3C(=O)C=C(Br)C3=O)CC2)c1

>  <Energy>  (32) 
94.69047236625906

>  <Genealogy>  (32) 
COc1cc(OC)c(OC)c(N2CC[NH+](CCN3C(=O)C=C(Br)C3=O)CC2)c1 (protonated)
COc1cc(OC)c(OC)c(N2CC[NH+](CCN3C(=O)C=C(Br)C3=O)CC2)c1 (3D coordinates assigned)
COc1cc(OC)c(OC)c(N2CC[NH+](CCN3C(=O)C=C(Br)C3=O)CC2)c1 (nonaromatic ring conformer: 94.69047236625906 kcal/mol)

>  <smiles>  (32) 
COc1cc(OC)c(OC)c(N2CCN(CCN3C(=O)C=C(Br)C3=O)CC2)c1

>  <score_type>  (32) 
oracle

>  <origin>  (32) 
adg

>  <m_score__min__energy>  (32) 
-5.7300000000000004

>  <m_primary>  (32) 
energy

$$$$
32:0
     RDKit          3D

 48 50  0  0  0  0  0  0  0  0999 V2000
   64.4780   32.9700   48.1620 N   0  0  0  0  0  0  0  0  0  0  0  0
   63.0200   32.8430   48.1060 C   0  0  2  0  0  0  0  0  0  0  0  0
   62.6290   31.3670   47.9010 C   0  0  0  0  0  0  0  0  0  0  0  0
   61.3570   31.0130   48.6360 C   0  0  0  0  0  0  0  0  0  0  0  0
   60.6000   29.8960   48.2460 C   0  0  0  0  0  0  0  0  0  0  0  0
   59.4650   29.5240   48.9700 C   0  0  0  0  0  0  0  0  0  0  0  0
   59.0750   30.2600   50.0950 C   0  0  0  0  0  0  0  0  0  0  0  0
   57.9470   29.8720   50.8130 O   0  0  0  0  0  0  0  0  0  0  0  0
   59.8250   31.3750   50.4900 C   0  0  0  0  0  0  0  0  0  0  0  0
   60.9600   31.7520   49.7650 C   0  0  0  0  0  0  0  0  0  0  0  0
   62.4260   33.7140   47.0260 C   0  0  0  0  0  0  0  0  0  0  0  0
   63.1110   34.0370   46.0150 O   0  0  0  0  0  0  0  0  0  0  0  0
   61.0980   34.1420   47.1670 O   0  0  0  0  0  0  0  0  0  0  0  0
   59.9760   33.5660   46.5490 C   0  0  0  0  0  0  0  0  0  0  0  0
   59.6470   33.7930   45.2000 C   0  0  0  0  0  0  0  0  0  0  0  0
   58.5280   33.1790   44.6310 C   0  0  0  0  0  0  0  0  0  0  0  0
   57.7180   32.3280   45.4000 C   0  0  0  0  0  0  0  0  0  0  0  0
   56.5500   31.6910   44.8650 N   0  0  0  0  0  0  0  0  0  0  0  0
   56.4630   30.0460   44.3280 S   0  0  0  0  0  0  0  0  0  0  0  0
   56.4250   30.0150   42.8270 O   0  0  0  0  0  0  0  0  0  0  0  0
   55.1990   29.4210   44.8500 O   0  0  0  0  0  0  0  0  0  0  0  0
   57.8400   29.1410   44.9480 C   0  0  0  0  0  0  0  0  0  0  0  0
   57.6240   28.0520   45.8070 C   0  0  0  0  0  0  0  0  0  0  0  0
   58.7070   27.3140   46.2910 C   0  0  0  0  0  0  0  0  0  0  0  0
   60.0110   27.6630   45.9310 C   0  0  0  0  0  0  0  0  0  0  0  0
   60.2330   28.7560   45.0870 C   0  0  0  0  0  0  0  0  0  0  0  0
   59.1510   29.4910   44.5900 C   0  0  0  0  0  0  0  0  0  0  0  0
   58.0650   32.0820   46.7300 C   0  0  0  0  0  0  0  0  0  0  0  0
   59.1890   32.6890   47.2980 C   0  0  0  0  0  0  0  0  0  0  0  0
   64.8290   33.2760   47.2230 H   0  0  0  0  0  0  0  0  0  0  0  0
   64.9040   32.0350   48.3680 H   0  0  0  0  0  0  0  0  0  0  0  0
   62.6081   33.1911   49.0647 H   0  0  0  0  0  0  0  0  0  0  0  0
   62.4812   31.1843   46.8264 H   0  0  0  0  0  0  0  0  0  0  0  0
   63.4397   30.7410   48.3022 H   0  0  0  0  0  0  0  0  0  0  0  0
   60.9028   29.3108   47.3652 H   0  0  0  0  0  0  0  0  0  0  0  0
   58.8758   28.6501   48.6552 H   0  0  0  0  0  0  0  0  0  0  0  0
   57.0110   30.0560   50.4710 H   0  0  0  0  0  0  0  0  0  0  0  0
   59.5204   31.9559   51.3731 H   0  0  0  0  0  0  0  0  0  0  0  0
   61.5443   32.6296   50.0788 H   0  0  0  0  0  0  0  0  0  0  0  0
   60.2748   34.4583   44.5891 H   0  0  0  0  0  0  0  0  0  0  0  0
   58.2804   33.3633   43.5752 H   0  0  0  0  0  0  0  0  0  0  0  0
   56.5994   27.7790   46.0998 H   0  0  0  0  0  0  0  0  0  0  0  0
   58.5326   26.4561   46.9571 H   0  0  0  0  0  0  0  0  0  0  0  0
   60.8622   27.0789   46.3109 H   0  0  0  0  0  0  0  0  0  0  0  0
   61.2603   29.0384   44.8134 H   0  0  0  0  0  0  0  0  0  0  0  0
   59.3282   30.3438   43.9182 H   0  0  0  0  0  0  0  0  0  0  0  0
   57.4476   31.4036   47.3371 H   0  0  0  0  0  0  0  0  0  0  0  0
   59.4555   32.4740   48.3433 H   0  0  0  0  0  0  0  0  0  0  0  0
  1  2  1  0
  2  3  1  0
  3  4  1  0
  4  5  2  0
  5  6  1  0
  6  7  2  0
  7  8  1  0
  7  9  1  0
  9 10  2  0
  2 11  1  0
 11 12  2  0
 11 13  1  0
 13 14  1  0
 14 15  2  0
 15 16  1  0
 16 17  2  0
 17 18  1  0
 18 19  1  0
 19 20  2  0
 19 21  2  0
 19 22  1  0
 22 23  2  0
 23 24  1  0
 24 25  2  0
 25 26  1  0
 26 27  2  0
 17 28  1  0
 28 29  2  0
 10  4  1  0
 29 14  1  0
 27 22  1  0
  1 30  1  0
  1 31  1  0
  2 32  1  1
  3 33  1  0
  3 34  1  0
  5 35  1  0
  6 36  1  0
  8 37  1  0
  9 38  1  0
 10 39  1  0
 15 40  1  0
 16 41  1  0
 23 42  1  0
 24 43  1  0
 25 44  1  0
 26 45  1  0
 27 46  1  0
 28 47  1  0
 29 48  1  0
M  CHG  1  18  -1
M  END
>  <UniqueID>  (33) 
31

>  <SMILES>  (33) 
N[C@H](Cc1ccc(O)cc1)C(=O)Oc1ccc([N-]S(=O)(=O)c2ccccc2)cc1

>  <Energy>  (33) 
53.814565650309014

>  <Genealogy>  (33) 
NC(Cc1ccc(O)cc1)C(=O)Oc1ccc([N-]S(=O)(=O)c2ccccc2)cc1 (protonated)
N[C@H](Cc1ccc(O)cc1)C(=O)Oc1ccc([N-]S(=O)(=O)c2ccccc2)cc1 (chirality)
N[C@H](Cc1ccc(O)cc1)C(=O)Oc1ccc([N-]S(=O)(=O)c2ccccc2)cc1 (3D coordinates assigned)
N[C@H](Cc1ccc(O)cc1)C(=O)Oc1ccc([N-]S(=O)(=O)c2ccccc2)cc1 (optimized conformer: 53.814565650309014 kcal/mol)

>  <smiles>  (33) 
NC(Cc1ccc(O)cc1)C(=O)Oc1ccc(NS(=O)(=O)c2ccccc2)cc1

>  <score_type>  (33) 
oracle

>  <origin>  (33) 
adg

>  <m_score__min__energy>  (33) 
-10.289999999999999

>  <m_primary>  (33) 
energy

$$$$
33:0
     RDKit          3D

 33 34  0  0  0  0  0  0  0  0999 V2000
   60.8310   28.6490   45.2130 C   0  0  0  0  0  0  0  0  0  0  0  0
   60.2450   27.4360   45.9370 C   0  0  0  0  0  0  0  0  0  0  0  0
   58.8270   27.0860   45.4610 C   0  0  0  0  0  0  0  0  0  0  0  0
   58.5790   27.4900   43.9950 C   0  0  0  0  0  0  0  0  0  0  0  0
   57.3080   28.2170   43.8290 N   0  0  0  0  0  0  0  0  0  0  0  0
   57.4730   29.6370   44.0410 C   0  0  0  0  0  0  0  0  0  0  0  0
   57.2360   30.5460   42.9940 C   0  0  0  0  0  0  0  0  0  0  0  0
   57.3800   31.9200   43.2000 C   0  0  0  0  0  0  0  0  0  0  0  0
   57.7650   32.4100   44.4560 C   0  0  0  0  0  0  0  0  0  0  0  0
   57.9110   33.7880   44.6730 C   0  0  0  0  0  0  0  0  0  0  0  0
   58.2920   34.2640   45.9310 C   0  0  0  0  0  0  0  0  0  0  0  0
   58.5310   33.3700   46.9790 C   0  0  0  0  0  0  0  0  0  0  0  0
   58.3880   31.9940   46.7760 C   0  0  0  0  0  0  0  0  0  0  0  0
   58.0050   31.5040   45.5180 C   0  0  0  0  0  0  0  0  0  0  0  0
   57.8570   30.1250   45.3020 C   0  0  0  0  0  0  0  0  0  0  0  0
   61.1851   29.3819   45.9529 H   0  0  0  0  0  0  0  0  0  0  0  0
   61.6734   28.3281   44.5827 H   0  0  0  0  0  0  0  0  0  0  0  0
   60.0560   29.1095   44.5827 H   0  0  0  0  0  0  0  0  0  0  0  0
   60.8994   26.5701   45.7582 H   0  0  0  0  0  0  0  0  0  0  0  0
   60.1828   27.6868   47.0062 H   0  0  0  0  0  0  0  0  0  0  0  0
   58.6809   26.0000   45.5570 H   0  0  0  0  0  0  0  0  0  0  0  0
   58.1170   27.6470   46.0865 H   0  0  0  0  0  0  0  0  0  0  0  0
   59.4039   28.1363   43.6606 H   0  0  0  0  0  0  0  0  0  0  0  0
   58.5247   26.5702   43.3942 H   0  0  0  0  0  0  0  0  0  0  0  0
   56.5850   27.8260   44.4770 H   0  0  0  0  0  0  0  0  0  0  0  0
   56.9600   28.0630   42.8530 H   0  0  0  0  0  0  0  0  0  0  0  0
   56.9347   30.1716   42.0045 H   0  0  0  0  0  0  0  0  0  0  0  0
   57.1906   32.6206   42.3734 H   0  0  0  0  0  0  0  0  0  0  0  0
   57.7253   34.4957   43.8516 H   0  0  0  0  0  0  0  0  0  0  0  0
   58.4041   35.3456   46.0969 H   0  0  0  0  0  0  0  0  0  0  0  0
   58.8324   33.7503   47.9662 H   0  0  0  0  0  0  0  0  0  0  0  0
   58.5760   31.2944   47.6038 H   0  0  0  0  0  0  0  0  0  0  0  0
   58.0430   29.4206   46.1261 H   0  0  0  0  0  0  0  0  0  0  0  0
  1  2  1  0
  2  3  1  0
  3  4  1  0
  4  5  1  0
  5  6  1  0
  6  7  2  0
  7  8  1  0
  8  9  2  0
  9 10  1  0
 10 11  2  0
 11 12  1  0
 12 13  2  0
 13 14  1  0
 14 15  2  0
 15  6  1  0
 14  9  1  0
  1 16  1  0
  1 17  1  0
  1 18  1  0
  2 19  1  0
  2 20  1  0
  3 21  1  0
  3 22  1  0
  4 23  1  0
  4 24  1  0
  5 25  1  0
  5 26  1  0
  7 27  1  0
  8 28  1  0
 10 29  1  0
 11 30  1  0
 12 31  1  0
 13 32  1  0
 15 33  1  0
M  CHG  1   5   1
M  END
>  <UniqueID>  (34) 
32

>  <SMILES>  (34) 
CCCC[NH2+]c1ccc2ccccc2c1

>  <Energy>  (34) 
31.778095472053508

>  <Genealogy>  (34) 
CCCC[NH2+]c1ccc2ccccc2c1 (protonated)
CCCC[NH2+]c1ccc2ccccc2c1 (3D coordinates assigned)
CCCC[NH2+]c1ccc2ccccc2c1 (optimized conformer: 31.778095472053508 kcal/mol)

>  <smiles>  (34) 
CCCCNc1ccc2ccccc2c1

>  <score_type>  (34) 
oracle

>  <origin>  (34) 
adg

>  <m_score__min__energy>  (34) 
-4.5199999999999996

>  <m_primary>  (34) 
energy

$$$$
34:0
     RDKit          3D

 25 25  0  0  0  0  0  0  0  0999 V2000
   55.0010   26.3850   46.0480 N   0  0  0  0  0  0  0  0  0  0  0  0
   56.5280   25.6610   46.4100 S   0  0  0  0  0  0  0  0  0  0  0  0
   57.0990   25.0440   45.1640 O   0  0  0  0  0  0  0  0  0  0  0  0
   56.3340   24.5900   47.4470 O   0  0  0  0  0  0  0  0  0  0  0  0
   57.6500   26.8990   47.0490 C   0  0  0  0  0  0  0  0  0  0  0  0
   58.1470   27.8360   45.9500 C   0  0  0  0  0  0  0  0  0  0  0  0
   57.0900   28.0750   44.9730 N   0  0  0  0  0  0  0  0  0  0  0  0
   56.3990   29.3200   44.8070 C   0  0  0  0  0  0  0  0  0  0  0  0
   55.1470   29.3410   44.9420 O   0  0  0  0  0  0  0  0  0  0  0  0
   57.1060   30.5670   44.4570 C   0  0  0  0  0  0  0  0  0  0  0  0
   57.7550   31.3190   45.4500 C   0  0  0  0  0  0  0  0  0  0  0  0
   58.4090   32.5090   45.1200 C   0  0  0  0  0  0  0  0  0  0  0  0
   58.4120   32.9650   43.7990 C   0  0  0  0  0  0  0  0  0  0  0  0
   57.7520   32.2330   42.8070 C   0  0  0  0  0  0  0  0  0  0  0  0
   57.0950   31.0420   43.1320 C   0  0  0  0  0  0  0  0  0  0  0  0
   56.4660   30.3430   42.1530 F   0  0  0  0  0  0  0  0  0  0  0  0
   55.1550   27.4170   46.0020 H   0  0  0  0  0  0  0  0  0  0  0  0
   57.1272   27.4926   47.8134 H   0  0  0  0  0  0  0  0  0  0  0  0
   58.5214   26.3820   47.4772 H   0  0  0  0  0  0  0  0  0  0  0  0
   58.4498   28.7935   46.3988 H   0  0  0  0  0  0  0  0  0  0  0  0
   59.0047   27.3700   45.4429 H   0  0  0  0  0  0  0  0  0  0  0  0
   57.7484   30.9694   46.4929 H   0  0  0  0  0  0  0  0  0  0  0  0
   58.9225   33.0880   45.9017 H   0  0  0  0  0  0  0  0  0  0  0  0
   58.9329   33.8986   43.5399 H   0  0  0  0  0  0  0  0  0  0  0  0
   57.7496   32.5950   41.7683 H   0  0  0  0  0  0  0  0  0  0  0  0
  1  2  1  0
  2  3  2  0
  2  4  2  0
  2  5  1  0
  5  6  1  0
  6  7  1  0
  7  8  1  0
  8  9  2  0
  8 10  1  0
 10 11  2  0
 11 12  1  0
 12 13  2  0
 13 14  1  0
 14 15  2  0
 15 16  1  0
 15 10  1  0
  1 17  1  0
  5 18  1  0
  5 19  1  0
  6 20  1  0
  6 21  1  0
 11 22  1  0
 12 23  1  0
 13 24  1  0
 14 25  1  0
M  CHG  2   1  -1   7  -1
M  END
>  <UniqueID>  (35) 
33

>  <SMILES>  (35) 
[NH-]S(=O)(=O)CC[N-]C(=O)c1ccccc1F

>  <Energy>  (35) 
20.767588310632885

>  <Genealogy>  (35) 
[NH-]S(=O)(=O)CC[N-]C(=O)c1ccccc1F (protonated)
[NH-]S(=O)(=O)CC[N-]C(=O)c1ccccc1F (3D coordinates assigned)
[NH-]S(=O)(=O)CC[N-]C(=O)c1ccccc1F (optimized conformer: 20.767588310632885 kcal/mol)

>  <smiles>  (35) 
NS(=O)(=O)CCNC(=O)c1ccccc1F

>  <score_type>  (35) 
oracle

>  <origin>  (35) 
adg

>  <m_score__min__energy>  (35) 
-10.93

>  <m_primary>  (35) 
energy

$$$$
35:0
     RDKit          3D

 44 46  0  0  0  0  0  0  0  0999 V2000
   58.2900   32.3550   48.6200 C   0  0  0  0  0  0  0  0  0  0  0  0
   58.6080   33.1950   47.4170 C   0  0  0  0  0  0  0  0  0  0  0  0
   59.2580   34.4400   47.5520 C   0  0  0  0  0  0  0  0  0  0  0  0
   59.5750   35.2120   46.4170 C   0  0  0  0  0  0  0  0  0  0  0  0
   59.2560   34.7510   45.1310 C   0  0  0  0  0  0  0  0  0  0  0  0
   58.6240   33.5160   45.0160 C   0  0  0  0  0  0  0  0  0  0  0  0
   58.1430   32.7150   43.6200 S   0  0  0  0  0  0  0  0  0  0  0  0
   57.5380   31.4060   44.5040 C   0  0  0  0  0  0  0  0  0  0  0  0
   56.9980   30.3630   43.9460 N   0  0  0  0  0  0  0  0  0  0  0  0
   56.3560   29.2440   44.5850 C   0  0  0  0  0  0  0  0  0  0  0  0
   55.1490   29.3680   44.9230 O   0  0  0  0  0  0  0  0  0  0  0  0
   57.0790   27.9430   44.8560 C   0  0  0  0  0  0  0  0  0  0  0  0
   58.5870   28.0190   44.5850 C   0  0  0  0  0  0  0  0  0  0  0  0
   59.2020   29.0470   45.4230 N   0  0  0  0  0  0  0  0  0  0  0  0
   60.0390   28.7270   46.5480 C   0  0  0  0  0  0  0  0  0  0  0  0
   60.2860   27.5190   46.8180 O   0  0  0  0  0  0  0  0  0  0  0  0
   60.6380   29.7920   47.3870 C   0  0  0  0  0  0  0  0  0  0  0  0
   60.6920   29.6330   48.7820 C   0  0  0  0  0  0  0  0  0  0  0  0
   61.2540   30.6260   49.5860 C   0  0  0  0  0  0  0  0  0  0  0  0
   61.7630   31.7910   49.0100 C   0  0  0  0  0  0  0  0  0  0  0  0
   61.7070   31.9800   47.6240 C   0  0  0  0  0  0  0  0  0  0  0  0
   62.2230   33.1750   47.0980 O   0  0  0  0  0  0  0  0  0  0  0  0
   63.5910   33.3920   46.7600 C   0  0  0  0  0  0  0  0  0  0  0  0
   63.7120   34.5510   46.0140 F   0  0  0  0  0  0  0  0  0  0  0  0
   64.3260   33.5270   47.9200 F   0  0  0  0  0  0  0  0  0  0  0  0
   61.1410   30.9750   46.8140 C   0  0  0  0  0  0  0  0  0  0  0  0
   57.6990   31.5630   45.8410 N   0  0  0  0  0  0  0  0  0  0  0  0
   58.3050   32.7450   46.1230 C   0  0  0  0  0  0  0  0  0  0  0  0
   58.5066   32.9270   49.5343 H   0  0  0  0  0  0  0  0  0  0  0  0
   57.2253   32.0792   48.6036 H   0  0  0  0  0  0  0  0  0  0  0  0
   58.9052   31.4433   48.6036 H   0  0  0  0  0  0  0  0  0  0  0  0
   59.5199   34.8116   48.5536 H   0  0  0  0  0  0  0  0  0  0  0  0
   60.0763   36.1834   46.5400 H   0  0  0  0  0  0  0  0  0  0  0  0
   59.4982   35.3480   44.2394 H   0  0  0  0  0  0  0  0  0  0  0  0
   56.9271   27.6724   45.9113 H   0  0  0  0  0  0  0  0  0  0  0  0
   56.6624   27.1899   44.1709 H   0  0  0  0  0  0  0  0  0  0  0  0
   59.0457   27.0449   44.8103 H   0  0  0  0  0  0  0  0  0  0  0  0
   58.7480   28.2758   43.5276 H   0  0  0  0  0  0  0  0  0  0  0  0
   59.0460   30.0440   45.1550 H   0  0  0  0  0  0  0  0  0  0  0  0
   60.2886   28.7197   49.2437 H   0  0  0  0  0  0  0  0  0  0  0  0
   61.2959   30.4900   50.6768 H   0  0  0  0  0  0  0  0  0  0  0  0
   62.2112   32.5658   49.6494 H   0  0  0  0  0  0  0  0  0  0  0  0
   63.9609   32.5384   46.1731 H   0  0  0  0  0  0  0  0  0  0  0  0
   61.0919   31.1165   45.7242 H   0  0  0  0  0  0  0  0  0  0  0  0
  1  2  1  0
  2  3  2  0
  3  4  1  0
  4  5  2  0
  5  6  1  0
  6  7  1  0
  7  8  1  0
  8  9  2  3
  9 10  1  0
 10 11  2  0
 10 12  1  0
 12 13  1  0
 13 14  1  0
 14 15  1  0
 15 16  2  0
 15 17  1  0
 17 18  2  0
 18 19  1  0
 19 20  2  0
 20 21  1  0
 21 22  1  0
 22 23  1  0
 23 24  1  0
 23 25  1  0
 21 26  2  0
  8 27  1  0
 27 28  1  0
 28  2  1  0
 28  6  2  0
 26 17  1  0
  1 29  1  0
  1 30  1  0
  1 31  1  0
  3 32  1  0
  4 33  1  0
  5 34  1  0
 12 35  1  0
 12 36  1  0
 13 37  1  0
 13 38  1  0
 14 39  1  0
 18 40  1  0
 19 41  1  0
 20 42  1  0
 23 43  1  0
 26 44  1  0
M  CHG  1  27  -1
M  END
>  <UniqueID>  (36) 
34

>  <SMILES>  (36) 
Cc1cccc2sc(=NC(=O)CCNC(=O)c3cccc(OC(F)F)c3)[n-]c12

>  <Energy>  (36) 
82.19211977463215

>  <Genealogy>  (36) 
Cc1cccc2sc(=NC(=O)CCNC(=O)c3cccc(OC(F)F)c3)[n-]c12 (protonated)
Cc1cccc2sc(=NC(=O)CCNC(=O)c3cccc(OC(F)F)c3)[n-]c12 (3D coordinates assigned)
Cc1cccc2sc(=NC(=O)CCNC(=O)c3cccc(OC(F)F)c3)[n-]c12 (optimized conformer: 82.19211977463215 kcal/mol)

>  <smiles>  (36) 
Cc1cccc2sc(=NC(=O)CCNC(=O)c3cccc(OC(F)F)c3)[nH]c12

>  <score_type>  (36) 
oracle

>  <origin>  (36) 
adg

>  <m_score__min__energy>  (36) 
-9.7599999999999998

>  <m_primary>  (36) 
energy

$$$$
36:0
     RDKit          3D

 74 77  0  0  0  0  0  0  0  0999 V2000
   60.5630   23.6090   55.1440 H   0  0  0  0  0  0  0  0  0  0  0  0
   61.5660   23.3210   55.1660 N   0  0  0  0  0  0  0  0  0  0  0  0
   61.9390   22.6820   53.6040 S   0  0  0  0  0  0  0  0  0  0  0  0
   62.7120   21.4000   53.7490 O   0  0  0  0  0  0  0  0  0  0  0  0
   62.7790   23.6770   52.8570 O   0  0  0  0  0  0  0  0  0  0  0  0
   60.4420   22.3640   52.7340 C   0  0  0  0  0  0  0  0  0  0  0  0
   59.3720   23.2590   52.8620 C   0  0  0  0  0  0  0  0  0  0  0  0
   59.4733   24.1456   53.5052 H   0  0  0  0  0  0  0  0  0  0  0  0
   58.1770   23.0300   52.1760 C   0  0  0  0  0  0  0  0  0  0  0  0
   57.3475   23.7467   52.2670 H   0  0  0  0  0  0  0  0  0  0  0  0
   58.0300   21.8910   51.3720 C   0  0  0  0  0  0  0  0  0  0  0  0
   56.7810   21.6640   50.7000 N   0  0  0  0  0  0  0  0  0  0  0  0
   56.4430   22.2080   49.5700 C   0  0  0  0  0  0  0  0  0  0  0  0
   57.3810   22.5540   48.6470 N   0  0  0  0  0  0  0  0  0  0  0  0
   57.0110   23.0430   47.4390 C   0  0  0  0  0  0  0  0  0  0  0  0
   57.9190   23.3890   46.5800 N   0  0  0  0  0  0  0  0  0  0  0  0
   57.6190   23.8510   45.2260 C   0  0  0  0  0  0  0  0  0  0  0  0
   56.6310   23.4745   44.9225 H   0  0  0  0  0  0  0  0  0  0  0  0
   58.3881   23.4743   44.5356 H   0  0  0  0  0  0  0  0  0  0  0  0
   57.6130   25.3490   45.1890 C   0  0  0  0  0  0  0  0  0  0  0  0
   57.3960   26.0770   46.3700 C   0  0  0  0  0  0  0  0  0  0  0  0
   57.2569   25.5453   47.3228 H   0  0  0  0  0  0  0  0  0  0  0  0
   57.3560   27.4700   46.3410 C   0  0  0  0  0  0  0  0  0  0  0  0
   57.1897   28.0292   47.2735 H   0  0  0  0  0  0  0  0  0  0  0  0
   57.5260   28.1680   45.1320 C   0  0  0  0  0  0  0  0  0  0  0  0
   57.4730   29.6500   45.1170 C   0  0  0  0  0  0  0  0  0  0  0  0
   56.3730   30.2260   44.8850 O   0  0  0  0  0  0  0  0  0  0  0  0
   58.6620   30.4370   45.3140 N   0  0  0  0  0  0  0  0  0  0  0  0
   59.5860   30.0140   45.0990 H   0  0  0  0  0  0  0  0  0  0  0  0
   58.6010   31.8470   45.5810 C   0  0  0  0  0  0  0  0  0  0  0  0
   58.1220   32.7180   44.5860 C   0  0  0  0  0  0  0  0  0  0  0  0
   57.8824   32.3251   43.5869 H   0  0  0  0  0  0  0  0  0  0  0  0
   57.9480   34.0760   44.8550 C   0  0  0  0  0  0  0  0  0  0  0  0
   57.5753   34.7484   44.0683 H   0  0  0  0  0  0  0  0  0  0  0  0
   58.2460   34.5820   46.1200 C   0  0  0  0  0  0  0  0  0  0  0  0
   58.1070   35.6524   46.3318 H   0  0  0  0  0  0  0  0  0  0  0  0
   58.7210   33.7280   47.1170 C   0  0  0  0  0  0  0  0  0  0  0  0
   58.9331   34.1287   48.1192 H   0  0  0  0  0  0  0  0  0  0  0  0
   58.9310   32.3680   46.8580 C   0  0  0  0  0  0  0  0  0  0  0  0
   59.4360   31.5530   47.9230 N   0  0  0  0  0  0  0  0  0  0  0  0
   60.8020   30.4880   47.8190 S   0  0  0  0  0  0  0  0  0  0  0  0
   61.9900   31.0660   48.5280 O   0  0  0  0  0  0  0  0  0  0  0  0
   61.1390   30.2560   46.3740 O   0  0  0  0  0  0  0  0  0  0  0  0
   60.3810   28.9450   48.5940 C   0  0  0  0  0  0  0  0  0  0  0  0
   60.4132   29.0630   49.6872 H   0  0  0  0  0  0  0  0  0  0  0  0
   59.3682   28.6449   48.2872 H   0  0  0  0  0  0  0  0  0  0  0  0
   61.1011   28.1721   48.2872 H   0  0  0  0  0  0  0  0  0  0  0  0
   57.7670   27.4380   43.9510 C   0  0  0  0  0  0  0  0  0  0  0  0
   57.9170   27.9688   42.9993 H   0  0  0  0  0  0  0  0  0  0  0  0
   57.8160   26.0420   43.9850 C   0  0  0  0  0  0  0  0  0  0  0  0
   58.0154   25.4809   43.0601 H   0  0  0  0  0  0  0  0  0  0  0  0
   55.6880   23.1760   47.1490 N   0  0  0  0  0  0  0  0  0  0  0  0
   54.7460   22.8460   48.0650 C   0  0  0  0  0  0  0  0  0  0  0  0
   53.4910   22.9800   47.7590 N   0  0  0  0  0  0  0  0  0  0  0  0
   52.7810   22.1930   46.7480 C   0  0  0  0  0  0  0  0  0  0  0  0
   53.4928   21.8647   45.9763 H   0  0  0  0  0  0  0  0  0  0  0  0
   52.3219   21.3172   47.2299 H   0  0  0  0  0  0  0  0  0  0  0  0
   51.6860   23.0390   46.0990 C   0  0  0  0  0  0  0  0  0  0  0  0
   51.2146   22.4699   45.2842 H   0  0  0  0  0  0  0  0  0  0  0  0
   50.9228   23.2969   46.8480 H   0  0  0  0  0  0  0  0  0  0  0  0
   52.2620   24.2170   45.5810 O   0  0  0  0  0  0  0  0  0  0  0  0
   53.1590   23.8930   44.5410 C   0  0  0  0  0  0  0  0  0  0  0  0
   53.2299   22.8000   44.4394 H   0  0  0  0  0  0  0  0  0  0  0  0
   52.8020   24.3158   43.5903 H   0  0  0  0  0  0  0  0  0  0  0  0
   54.5280   24.4670   44.8860 C   0  0  0  0  0  0  0  0  0  0  0  0
   55.2106   23.6463   45.1516 H   0  0  0  0  0  0  0  0  0  0  0  0
   54.9206   25.0121   44.0149 H   0  0  0  0  0  0  0  0  0  0  0  0
   54.4190   25.3520   45.9730 O   0  0  0  0  0  0  0  0  0  0  0  0
   54.1540   24.7950   46.7430 H   0  0  0  0  0  0  0  0  0  0  0  0
   55.1260   22.3720   49.2800 N   0  0  0  0  0  0  0  0  0  0  0  0
   59.1010   20.9920   51.2410 C   0  0  0  0  0  0  0  0  0  0  0  0
   58.9919   20.0964   50.6117 H   0  0  0  0  0  0  0  0  0  0  0  0
   60.3060   21.2330   51.9090 C   0  0  0  0  0  0  0  0  0  0  0  0
   61.1490   20.5366   51.7889 H   0  0  0  0  0  0  0  0  0  0  0  0
  1  2  1  0
  2  3  1  0
  3  4  2  0
  3  5  2  0
  3  6  1  0
  6  7  2  0
  7  8  1  0
  7  9  1  0
  9 10  1  0
  9 11  2  0
 11 12  1  0
 12 13  2  0
 13 14  1  0
 14 15  1  0
 15 16  2  3
 16 17  1  0
 17 18  1  0
 17 19  1  0
 17 20  1  0
 20 21  2  0
 21 22  1  0
 21 23  1  0
 23 24  1  0
 23 25  2  0
 25 26  1  0
 26 27  2  0
 26 28  1  0
 28 29  1  0
 28 30  1  0
 30 31  2  0
 31 32  1  0
 31 33  1  0
 33 34  1  0
 33 35  2  0
 35 36  1  0
 35 37  1  0
 37 38  1  0
 37 39  2  0
 39 40  1  0
 40 41  1  0
 41 42  2  0
 41 43  2  0
 41 44  1  0
 44 45  1  0
 44 46  1  0
 44 47  1  0
 25 48  1  0
 48 49  1  0
 48 50  2  0
 50 51  1  0
 15 52  1  0
 52 53  1  0
 53 54  2  3
 54 55  1  0
 55 56  1  0
 55 57  1  0
 55 58  1  0
 58 59  1  0
 58 60  1  0
 58 61  1  0
 61 62  1  0
 62 63  1  0
 62 64  1  0
 62 65  1  0
 65 66  1  0
 65 67  1  0
 65 68  1  0
 68 69  1  0
 53 70  1  0
 11 71  1  0
 71 72  1  0
 71 73  2  0
 73 74  1  0
 73  6  1  0
 70 13  1  0
 50 20  1  0
 39 30  1  0
M  CHG  5   2  -1  14  -1  40  -1  52  -1  70  -1
M  END
>  <UniqueID>  (37) 
35

>  <SMILES>  (37) 
CS(=O)(=O)[N-]c1ccccc1NC(=O)c1ccc(CN=c2[n-]c(=NCCOCCO)[n-]/c(=N/c3ccc(S([NH-])(=O)=O)cc3)[n-]2)cc1

>  <Energy>  (37) 
91.94012894526311

>  <Genealogy>  (37) 
CS(=O)(=O)[N-]c1ccccc1NC(=O)c1ccc(CN=c2[n-]c(=NCCOCCO)[n-]c(=Nc3ccc(S([NH-])(=O)=O)cc3)[n-]2)cc1 (protonated)
CS(=O)(=O)[N-]c1ccccc1NC(=O)c1ccc(CN=c2[n-]c(=NCCOCCO)[n-]/c(=N/c3ccc(S([NH-])(=O)=O)cc3)[n-]2)cc1 (cis-trans isomerization)
CS(=O)(=O)[N-]c1ccccc1NC(=O)c1ccc(CN=c2[n-]c(=NCCOCCO)[n-]/c(=N/c3ccc(S([NH-])(=O)=O)cc3)[n-]2)cc1 (3D coordinates assigned)
CS(=O)(=O)[N-]c1ccccc1NC(=O)c1ccc(CN=c2[n-]c(=NCCOCCO)[n-]/c(=N/c3ccc(S([NH-])(=O)=O)cc3)[n-]2)cc1 (optimized conformer: 91.94012894526311 kcal/mol)

>  <smiles>  (37) 
CS(=O)(=O)Nc1ccccc1NC(=O)c1ccc(CN=c2[nH]c(=NCCOCCO)[nH]c(=Nc3ccc(S(N)(=O)=O)cc3)[nH]2)cc1

>  <score_type>  (37) 
oracle

>  <origin>  (37) 
adg

>  <m_score__min__energy>  (37) 
-14.960000000000001

>  <m_primary>  (37) 
energy

$$$$
37:0
     RDKit          3D

 40 42  0  0  0  0  0  0  0  0999 V2000
   57.8120   28.2570   44.4610 C   0  0  0  0  0  0  0  0  0  0  0  0
   58.3430   29.5270   45.0850 C   0  0  0  0  0  0  0  0  0  0  0  0
   59.5360   29.4930   45.8590 C   0  0  0  0  0  0  0  0  0  0  0  0
   60.3130   28.2860   45.9760 N   0  0  0  0  0  0  0  0  0  0  0  0
   59.9820   27.0760   47.1750 S   0  0  0  0  0  0  0  0  0  0  0  0
   59.2740   27.7090   48.3390 O   0  0  0  0  0  0  0  0  0  0  0  0
   61.2800   26.4860   47.6500 O   0  0  0  0  0  0  0  0  0  0  0  0
   58.9410   25.8300   46.4910 C   0  0  0  0  0  0  0  0  0  0  0  0
   59.5120   24.6650   45.9700 C   0  0  0  0  0  0  0  0  0  0  0  0
   58.6970   23.6620   45.4460 C   0  0  0  0  0  0  0  0  0  0  0  0
   57.3000   23.8020   45.4610 C   0  0  0  0  0  0  0  0  0  0  0  0
   56.7100   24.9830   45.9610 C   0  0  0  0  0  0  0  0  0  0  0  0
   55.2370   25.1730   45.9690 C   0  0  0  0  0  0  0  0  0  0  0  0
   54.7460   26.3330   45.9950 O   0  0  0  0  0  0  0  0  0  0  0  0
   54.3740   24.0840   45.9480 O   0  0  0  0  0  0  0  0  0  0  0  0
   57.5490   25.9920   46.4760 C   0  0  0  0  0  0  0  0  0  0  0  0
   56.5230   22.7440   44.9700 O   0  0  0  0  0  0  0  0  0  0  0  0
   57.0840   21.4520   44.7300 C   0  0  0  0  0  0  0  0  0  0  0  0
   58.4860   21.5910   44.1280 C   0  0  0  0  0  0  0  0  0  0  0  0
   59.2640   22.5040   44.9050 O   0  0  0  0  0  0  0  0  0  0  0  0
   59.9690   30.6640   46.5060 C   0  0  0  0  0  0  0  0  0  0  0  0
   59.2630   31.8560   46.3730 C   0  0  0  0  0  0  0  0  0  0  0  0
   58.1270   31.9090   45.5730 C   0  0  0  0  0  0  0  0  0  0  0  0
   57.6680   30.7650   44.9040 C   0  0  0  0  0  0  0  0  0  0  0  0
   56.5450   30.8870   44.0170 N   0  0  0  0  0  0  0  0  0  0  0  0
   56.7260   31.1630   42.8130 O   0  0  0  0  0  0  0  0  0  0  0  0
   55.3040   30.4490   44.4190 O   0  0  0  0  0  0  0  0  0  0  0  0
   57.5180   27.5538   45.2542 H   0  0  0  0  0  0  0  0  0  0  0  0
   56.9371   28.4929   43.8373 H   0  0  0  0  0  0  0  0  0  0  0  0
   58.5944   27.8000   43.8373 H   0  0  0  0  0  0  0  0  0  0  0  0
   61.2000   28.1660   45.4390 H   0  0  0  0  0  0  0  0  0  0  0  0
   60.6048   24.5395   45.9734 H   0  0  0  0  0  0  0  0  0  0  0  0
   57.1056   26.9180   46.8710 H   0  0  0  0  0  0  0  0  0  0  0  0
   57.1488   20.9012   45.6800 H   0  0  0  0  0  0  0  0  0  0  0  0
   56.4413   20.9056   44.0240 H   0  0  0  0  0  0  0  0  0  0  0  0
   58.9784   20.6074   44.1209 H   0  0  0  0  0  0  0  0  0  0  0  0
   58.4010   21.9734   43.1001 H   0  0  0  0  0  0  0  0  0  0  0  0
   60.8777   30.6376   47.1254 H   0  0  0  0  0  0  0  0  0  0  0  0
   59.6044   32.7581   46.9019 H   0  0  0  0  0  0  0  0  0  0  0  0
   57.5824   32.8584   45.4636 H   0  0  0  0  0  0  0  0  0  0  0  0
  1  2  1  0
  2  3  2  0
  3  4  1  0
  4  5  1  0
  5  6  2  0
  5  7  2  0
  5  8  1  0
  8  9  2  0
  9 10  1  0
 10 11  2  0
 11 12  1  0
 12 13  1  0
 13 14  2  0
 13 15  1  0
 12 16  2  0
 11 17  1  0
 17 18  1  0
 18 19  1  0
 19 20  1  0
  3 21  1  0
 21 22  2  0
 22 23  1  0
 23 24  2  0
 24 25  1  0
 25 26  2  0
 25 27  1  0
 24  2  1  0
 16  8  1  0
 20 10  1  0
  1 28  1  0
  1 29  1  0
  1 30  1  0
  4 31  1  0
  9 32  1  0
 16 33  1  0
 18 34  1  0
 18 35  1  0
 19 36  1  0
 19 37  1  0
 21 38  1  0
 22 39  1  0
 23 40  1  0
M  CHG  3  15  -1  25   1  27  -1
M  END
>  <UniqueID>  (38) 
36

>  <SMILES>  (38) 
Cc1c(NS(=O)(=O)c2cc3c(c(C(=O)[O-])c2)OCCO3)cccc1[N+](=O)[O-]

>  <Energy>  (38) 
56.333007333834296

>  <Genealogy>  (38) 
Cc1c(NS(=O)(=O)c2cc3c(c(C(=O)[O-])c2)OCCO3)cccc1[N+](=O)[O-] (protonated)
Cc1c(NS(=O)(=O)c2cc3c(c(C(=O)[O-])c2)OCCO3)cccc1[N+](=O)[O-] (3D coordinates assigned)
Cc1c(NS(=O)(=O)c2cc3c(c(C(=O)[O-])c2)OCCO3)cccc1[N+](=O)[O-] (nonaromatic ring conformer: 56.333007333834296 kcal/mol)

>  <smiles>  (38) 
Cc1c(NS(=O)(=O)c2cc3c(c(C(=O)O)c2)OCCO3)cccc1[N+](=O)[O-]

>  <score_type>  (38) 
oracle

>  <origin>  (38) 
adg

>  <m_score__min__energy>  (38) 
-10.630000000000001

>  <m_primary>  (38) 
energy

$$$$
38:0
     RDKit          3D

 40 42  0  0  0  0  0  0  0  0999 V2000
   58.6460   34.2540   44.1610 O   0  0  0  0  0  0  0  0  0  0  0  0
   58.3640   33.1870   44.7740 C   0  0  0  0  0  0  0  0  0  0  0  0
   57.7780   32.1410   44.0620 C   0  0  0  0  0  0  0  0  0  0  0  0
   57.4500   30.9690   44.7380 C   0  0  0  0  0  0  0  0  0  0  0  0
   56.5220   29.7080   43.9410 S   0  0  0  0  0  0  0  0  0  0  0  0
   56.0340   30.2140   42.6140 O   0  0  0  0  0  0  0  0  0  0  0  0
   55.3330   29.3410   44.7840 O   0  0  0  0  0  0  0  0  0  0  0  0
   57.5450   28.2580   43.6940 C   0  0  0  0  0  0  0  0  0  0  0  0
   58.5120   28.0910   44.8370 C   0  0  0  0  0  0  0  0  0  0  0  0
   59.7670   28.7220   44.8010 C   0  0  0  0  0  0  0  0  0  0  0  0
   60.7050   28.4790   45.8080 C   0  0  0  0  0  0  0  0  0  0  0  0
   60.4020   27.6020   46.8540 C   0  0  0  0  0  0  0  0  0  0  0  0
   59.1560   26.9690   46.8960 C   0  0  0  0  0  0  0  0  0  0  0  0
   58.8630   26.1140   47.9060 F   0  0  0  0  0  0  0  0  0  0  0  0
   58.2140   27.2100   45.8910 C   0  0  0  0  0  0  0  0  0  0  0  0
   57.7230   30.8630   46.0620 N   0  0  0  0  0  0  0  0  0  0  0  0
   58.3000   31.8790   46.7510 C   0  0  0  0  0  0  0  0  0  0  0  0
   58.5280   31.7260   47.9810 O   0  0  0  0  0  0  0  0  0  0  0  0
   58.6120   33.0590   46.1190 N   0  0  0  0  0  0  0  0  0  0  0  0
   59.1140   34.2070   46.8990 C   0  0  0  0  0  0  0  0  0  0  0  0
   60.4500   33.8700   47.5100 C   0  0  0  0  0  0  0  0  0  0  0  0
   60.6800   34.0850   48.8800 C   0  0  0  0  0  0  0  0  0  0  0  0
   61.9380   33.8260   49.4330 C   0  0  0  0  0  0  0  0  0  0  0  0
   62.9780   33.3580   48.6240 C   0  0  0  0  0  0  0  0  0  0  0  0
   64.5590   33.0480   49.3170 Cl  0  0  0  0  0  0  0  0  0  0  0  0
   62.7580   33.1460   47.2590 C   0  0  0  0  0  0  0  0  0  0  0  0
   61.5010   33.4020   46.7030 C   0  0  0  0  0  0  0  0  0  0  0  0
   57.5783   32.2402   42.9848 H   0  0  0  0  0  0  0  0  0  0  0  0
   56.9017   27.3679   43.6316 H   0  0  0  0  0  0  0  0  0  0  0  0
   58.1155   28.3809   42.7616 H   0  0  0  0  0  0  0  0  0  0  0  0
   60.0118   29.4093   43.9778 H   0  0  0  0  0  0  0  0  0  0  0  0
   61.6843   28.9790   45.7777 H   0  0  0  0  0  0  0  0  0  0  0  0
   61.1435   27.4101   47.6435 H   0  0  0  0  0  0  0  0  0  0  0  0
   57.2358   26.7081   45.9254 H   0  0  0  0  0  0  0  0  0  0  0  0
   59.2259   35.0772   46.2355 H   0  0  0  0  0  0  0  0  0  0  0  0
   58.3982   34.4393   47.7013 H   0  0  0  0  0  0  0  0  0  0  0  0
   59.8669   34.4586   49.5198 H   0  0  0  0  0  0  0  0  0  0  0  0
   62.1098   33.9908   50.5069 H   0  0  0  0  0  0  0  0  0  0  0  0
   63.5754   32.7772   46.6219 H   0  0  0  0  0  0  0  0  0  0  0  0
   61.3339   33.2363   45.6285 H   0  0  0  0  0  0  0  0  0  0  0  0
  1  2  2  0
  2  3  1  0
  3  4  2  0
  4  5  1  0
  5  6  2  0
  5  7  2  0
  5  8  1  0
  8  9  1  0
  9 10  2  0
 10 11  1  0
 11 12  2  0
 12 13  1  0
 13 14  1  0
 13 15  2  0
  4 16  1  0
 16 17  1  0
 17 18  2  0
 17 19  1  0
 19 20  1  0
 20 21  1  0
 21 22  2  0
 22 23  1  0
 23 24  2  0
 24 25  1  0
 24 26  1  0
 26 27  2  0
 19  2  1  0
 27 21  1  0
 15  9  1  0
  3 28  1  0
  8 29  1  0
  8 30  1  0
 10 31  1  0
 11 32  1  0
 12 33  1  0
 15 34  1  0
 20 35  1  0
 20 36  1  0
 22 37  1  0
 23 38  1  0
 26 39  1  0
 27 40  1  0
M  CHG  1  16  -1
M  END
>  <UniqueID>  (39) 
37

>  <SMILES>  (39) 
O=c1cc(S(=O)(=O)Cc2cccc(F)c2)[n-]c(=O)n1Cc1ccc(Cl)cc1

>  <Energy>  (39) 
40.288575563699666

>  <Genealogy>  (39) 
O=c1cc(S(=O)(=O)Cc2cccc(F)c2)[n-]c(=O)n1Cc1ccc(Cl)cc1 (protonated)
O=c1cc(S(=O)(=O)Cc2cccc(F)c2)[n-]c(=O)n1Cc1ccc(Cl)cc1 (3D coordinates assigned)
O=c1cc(S(=O)(=O)Cc2cccc(F)c2)[n-]c(=O)n1Cc1ccc(Cl)cc1 (optimized conformer: 40.288575563699666 kcal/mol)

>  <smiles>  (39) 
O=c1cc(S(=O)(=O)Cc2cccc(F)c2)[nH]c(=O)n1Cc1ccc(Cl)cc1

>  <score_type>  (39) 
oracle

>  <origin>  (39) 
adg

>  <m_score__min__energy>  (39) 
-10.91

>  <m_primary>  (39) 
energy

$$$$
39:0
     RDKit          3D

 41 43  0  0  0  0  0  0  0  0999 V2000
   56.3140   24.2800   47.2640 C   0  0  0  0  0  0  0  0  0  0  0  0
   56.6500   24.5170   45.8290 C   0  0  0  0  0  0  0  0  0  0  0  0
   56.5050   23.5400   44.8460 C   0  0  0  0  0  0  0  0  0  0  0  0
   57.0450   24.1900   43.3910 S   0  0  0  0  0  0  0  0  0  0  0  0
   57.4470   25.6680   44.0790 C   0  0  0  0  0  0  0  0  0  0  0  0
   58.1460   27.0490   43.1800 S   0  0  0  0  0  0  0  0  0  0  0  0
   58.6580   27.8970   44.6810 C   0  0  0  0  0  0  0  0  0  0  0  0
   59.7940   27.4250   45.3550 C   0  0  0  0  0  0  0  0  0  0  0  0
   60.2200   28.0340   46.5360 C   0  0  0  0  0  0  0  0  0  0  0  0
   59.5190   29.1250   47.0530 C   0  0  0  0  0  0  0  0  0  0  0  0
   60.0760   29.9130   48.5660 S   0  0  0  0  0  0  0  0  0  0  0  0
   60.5110   31.4310   47.7190 C   0  0  0  0  0  0  0  0  0  0  0  0
   61.8110   31.9410   47.8190 C   0  0  0  0  0  0  0  0  0  0  0  0
   62.1440   33.1350   47.1740 C   0  0  0  0  0  0  0  0  0  0  0  0
   61.1830   33.8210   46.4250 C   0  0  0  0  0  0  0  0  0  0  0  0
   59.8830   33.3090   46.3120 C   0  0  0  0  0  0  0  0  0  0  0  0
   58.6650   34.1820   45.3880 S   0  0  0  0  0  0  0  0  0  0  0  0
   58.1100   33.1940   44.0820 N   0  0  0  0  0  0  0  0  0  0  0  0
   59.2540   35.4520   44.8410 O   0  0  0  0  0  0  0  0  0  0  0  0
   57.5060   34.5330   46.2790 O   0  0  0  0  0  0  0  0  0  0  0  0
   59.5490   32.1130   46.9640 C   0  0  0  0  0  0  0  0  0  0  0  0
   58.3920   29.6120   46.3850 C   0  0  0  0  0  0  0  0  0  0  0  0
   57.9570   29.0150   45.1900 C   0  0  0  0  0  0  0  0  0  0  0  0
   56.5630   29.7020   44.3450 S   0  0  0  0  0  0  0  0  0  0  0  0
   56.4900   31.1800   44.5990 O   0  0  0  0  0  0  0  0  0  0  0  0
   56.6870   29.4690   42.8650 O   0  0  0  0  0  0  0  0  0  0  0  0
   55.1520   28.9640   44.8800 O   0  0  0  0  0  0  0  0  0  0  0  0
   57.1810   25.6940   45.4010 N   0  0  0  0  0  0  0  0  0  0  0  0
   57.0462   24.7964   47.9021 H   0  0  0  0  0  0  0  0  0  0  0  0
   55.3064   24.6684   47.4737 H   0  0  0  0  0  0  0  0  0  0  0  0
   56.3418   23.2005   47.4737 H   0  0  0  0  0  0  0  0  0  0  0  0
   56.1083   22.5249   44.9947 H   0  0  0  0  0  0  0  0  0  0  0  0
   60.3530   26.5687   44.9497 H   0  0  0  0  0  0  0  0  0  0  0  0
   61.1092   27.6540   47.0603 H   0  0  0  0  0  0  0  0  0  0  0  0
   62.5699   31.4020   48.4051 H   0  0  0  0  0  0  0  0  0  0  0  0
   63.1649   33.5363   47.2557 H   0  0  0  0  0  0  0  0  0  0  0  0
   61.4475   34.7638   45.9237 H   0  0  0  0  0  0  0  0  0  0  0  0
   57.0660   33.2240   44.0980 H   0  0  0  0  0  0  0  0  0  0  0  0
   58.3880   32.2120   44.3010 H   0  0  0  0  0  0  0  0  0  0  0  0
   58.5289   31.7098   46.8820 H   0  0  0  0  0  0  0  0  0  0  0  0
   57.8411   30.4697   46.7983 H   0  0  0  0  0  0  0  0  0  0  0  0
  1  2  1  0
  2  3  2  0
  3  4  1  0
  4  5  1  0
  5  6  1  0
  6  7  1  0
  7  8  2  0
  8  9  1  0
  9 10  2  0
 10 11  1  0
 11 12  1  0
 12 13  2  0
 13 14  1  0
 14 15  2  0
 15 16  1  0
 16 17  1  0
 17 18  1  0
 17 19  2  0
 17 20  2  0
 16 21  2  0
 10 22  1  0
 22 23  2  0
 23 24  1  0
 24 25  2  0
 24 26  2  0
 24 27  1  0
  5 28  2  0
 28  2  1  0
 23  7  1  0
 21 12  1  0
  1 29  1  0
  1 30  1  0
  1 31  1  0
  3 32  1  0
  8 33  1  0
  9 34  1  0
 13 35  1  0
 14 36  1  0
 15 37  1  0
 18 38  1  0
 18 39  1  0
 21 40  1  0
 22 41  1  0
M  CHG  1  27  -1
M  END
>  <UniqueID>  (40) 
38

>  <SMILES>  (40) 
Cc1csc(Sc2ccc(Sc3cccc(S(N)(=O)=O)c3)cc2S(=O)(=O)[O-])n1

>  <Energy>  (40) 
63.25022853298301

>  <Genealogy>  (40) 
Cc1csc(Sc2ccc(Sc3cccc(S(N)(=O)=O)c3)cc2S(=O)(=O)[O-])n1 (protonated)
Cc1csc(Sc2ccc(Sc3cccc(S(N)(=O)=O)c3)cc2S(=O)(=O)[O-])n1 (3D coordinates assigned)
Cc1csc(Sc2ccc(Sc3cccc(S(N)(=O)=O)c3)cc2S(=O)(=O)[O-])n1 (optimized conformer: 63.25022853298301 kcal/mol)

>  <smiles>  (40) 
Cc1csc(Sc2ccc(Sc3cccc(S(N)(=O)=O)c3)cc2S(=O)(=O)O)n1

>  <score_type>  (40) 
oracle

>  <origin>  (40) 
adg

>  <m_score__min__energy>  (40) 
-13.09

>  <m_primary>  (40) 
energy

$$$$
40:0
     RDKit          3D

 42 44  0  0  0  0  0  0  0  0999 V2000
   54.3300   27.0930   46.3470 H   0  0  0  0  0  0  0  0  0  0  0  0
   55.1930   26.7070   45.9890 O   0  0  0  0  0  0  0  0  0  0  0  0
   56.2480   27.5390   45.6920 N   0  0  0  0  0  0  0  0  0  0  0  0
   57.4870   27.1380   45.6730 C   0  0  0  0  0  0  0  0  0  0  0  0
   58.5490   28.0860   46.1150 C   0  0  0  0  0  0  0  0  0  0  0  0
   59.3680   28.7260   45.1660 C   0  0  0  0  0  0  0  0  0  0  0  0
   59.2593   28.4808   44.0992 H   0  0  0  0  0  0  0  0  0  0  0  0
   60.3190   29.6710   45.5660 C   0  0  0  0  0  0  0  0  0  0  0  0
   60.9499   30.1642   44.8118 H   0  0  0  0  0  0  0  0  0  0  0  0
   60.4730   29.9930   46.9190 C   0  0  0  0  0  0  0  0  0  0  0  0
   61.6280   31.2390   47.3850 S   0  0  0  0  0  0  0  0  0  0  0  0
   61.7610   31.2900   48.8810 O   0  0  0  0  0  0  0  0  0  0  0  0
   62.9670   30.8980   46.7940 O   0  0  0  0  0  0  0  0  0  0  0  0
   61.1580   32.7980   46.7820 N   0  0  0  0  0  0  0  0  0  0  0  0
   59.8350   33.1840   46.3810 C   0  0  0  0  0  0  0  0  0  0  0  0
   58.7530   32.7810   47.1750 C   0  0  0  0  0  0  0  0  0  0  0  0
   58.9328   32.1838   48.0811 H   0  0  0  0  0  0  0  0  0  0  0  0
   57.4460   33.1330   46.8230 C   0  0  0  0  0  0  0  0  0  0  0  0
   56.6008   32.8036   47.4452 H   0  0  0  0  0  0  0  0  0  0  0  0
   57.2140   33.9050   45.6780 C   0  0  0  0  0  0  0  0  0  0  0  0
   56.1857   34.1785   45.3992 H   0  0  0  0  0  0  0  0  0  0  0  0
   58.2880   34.3290   44.8880 C   0  0  0  0  0  0  0  0  0  0  0  0
   58.1049   34.9423   43.9934 H   0  0  0  0  0  0  0  0  0  0  0  0
   59.5960   33.9720   45.2370 C   0  0  0  0  0  0  0  0  0  0  0  0
   60.4399   34.3076   44.6164 H   0  0  0  0  0  0  0  0  0  0  0  0
   59.6810   29.3420   47.8730 C   0  0  0  0  0  0  0  0  0  0  0  0
   59.8047   29.5786   48.9401 H   0  0  0  0  0  0  0  0  0  0  0  0
   58.7330   28.3920   47.4760 C   0  0  0  0  0  0  0  0  0  0  0  0
   58.1253   27.8791   48.2360 H   0  0  0  0  0  0  0  0  0  0  0  0
   57.8190   25.7300   45.3160 C   0  0  0  0  0  0  0  0  0  0  0  0
   59.0230   25.1630   45.7600 C   0  0  0  0  0  0  0  0  0  0  0  0
   59.7572   25.7787   46.3002 H   0  0  0  0  0  0  0  0  0  0  0  0
   59.2850   23.8170   45.5140 C   0  0  0  0  0  0  0  0  0  0  0  0
   60.2258   23.3663   45.8629 H   0  0  0  0  0  0  0  0  0  0  0  0
   58.3530   23.0420   44.8250 C   0  0  0  0  0  0  0  0  0  0  0  0
   58.5540   21.9783   44.6295 H   0  0  0  0  0  0  0  0  0  0  0  0
   57.1580   23.6270   44.3830 C   0  0  0  0  0  0  0  0  0  0  0  0
   56.1520   22.8050   43.6710 C   0  0  0  0  0  0  0  0  0  0  0  0
   56.3880   21.5990   43.3980 O   0  0  0  0  0  0  0  0  0  0  0  0
   54.9310   23.3550   43.2900 O   0  0  0  0  0  0  0  0  0  0  0  0
   56.9250   24.9520   44.6330 N   0  0  0  0  0  0  0  0  0  0  0  0
   56.0370   25.3860   44.2940 H   0  0  0  0  0  0  0  0  0  0  0  0
  1  2  1  0
  2  3  1  0
  3  4  2  0
  4  5  1  0
  5  6  2  0
  6  7  1  0
  6  8  1  0
  8  9  1  0
  8 10  2  0
 10 11  1  0
 11 12  2  0
 11 13  2  0
 11 14  1  0
 14 15  1  0
 15 16  2  0
 16 17  1  0
 16 18  1  0
 18 19  1  0
 18 20  2  0
 20 21  1  0
 20 22  1  0
 22 23  1  0
 22 24  2  0
 24 25  1  0
 10 26  1  0
 26 27  1  0
 26 28  2  0
 28 29  1  0
  4 30  1  0
 30 31  2  0
 31 32  1  0
 31 33  1  0
 33 34  1  0
 33 35  2  0
 35 36  1  0
 35 37  1  0
 37 38  1  0
 38 39  2  0
 38 40  1  0
 37 41  2  0
 41 42  1  0
 28  5  1  0
 41 30  1  0
 24 15  1  0
M  CHG  3  14  -1  40  -1  41   1
M  END
>  <UniqueID>  (41) 
39

>  <SMILES>  (41) 
O=C([O-])c1cccc(/C(=N\O)c2ccc(S(=O)(=O)[N-]c3ccccc3)cc2)[nH+]1

>  <Energy>  (41) 
57.78792517219049

>  <Genealogy>  (41) 
O=C([O-])c1cccc(C(=NO)c2ccc(S(=O)(=O)[N-]c3ccccc3)cc2)[nH+]1 (protonated)
O=C([O-])c1cccc(/C(=N\O)c2ccc(S(=O)(=O)[N-]c3ccccc3)cc2)[nH+]1 (cis-trans isomerization)
O=C([O-])c1cccc(/C(=N\O)c2ccc(S(=O)(=O)[N-]c3ccccc3)cc2)[nH+]1 (3D coordinates assigned)
O=C([O-])c1cccc(/C(=N\O)c2ccc(S(=O)(=O)[N-]c3ccccc3)cc2)[nH+]1 (optimized conformer: 57.78792517219049 kcal/mol)

>  <smiles>  (41) 
O=C(O)c1cccc(C(=NO)c2ccc(S(=O)(=O)Nc3ccccc3)cc2)n1

>  <score_type>  (41) 
oracle

>  <origin>  (41) 
adg

>  <m_score__min__energy>  (41) 
-11.220000000000001

>  <m_primary>  (41) 
energy

$$$$
41:0
     RDKit          3D

 37 39  0  0  0  0  0  0  0  0999 V2000
   59.6070   29.5760   49.3270 C   0  0  0  0  0  0  0  0  0  0  0  0
   60.7180   29.0080   48.4490 C   0  0  0  0  0  0  0  0  0  0  0  0
   60.5130   29.3880   46.9700 C   0  0  0  0  0  0  0  0  0  0  0  0
   59.0790   29.4590   46.6170 N   0  0  0  0  0  0  0  0  0  0  0  0
   58.4150   28.2610   46.5950 C   0  0  0  0  0  0  0  0  0  0  0  0
   57.1960   28.1060   45.9250 C   0  0  0  0  0  0  0  0  0  0  0  0
   56.5130   26.7840   45.9460 C   0  0  0  0  0  0  0  0  0  0  0  0
   57.1720   25.7120   45.9070 O   0  0  0  0  0  0  0  0  0  0  0  0
   55.1250   26.7120   45.9940 O   0  0  0  0  0  0  0  0  0  0  0  0
   56.7130   29.1890   45.1760 C   0  0  0  0  0  0  0  0  0  0  0  0
   55.7010   29.0480   44.4360 O   0  0  0  0  0  0  0  0  0  0  0  0
   57.3660   30.4310   45.2370 C   0  0  0  0  0  0  0  0  0  0  0  0
   58.4790   30.5960   46.0970 C   0  0  0  0  0  0  0  0  0  0  0  0
   58.9400   32.0120   46.3800 C   0  0  0  0  0  0  0  0  0  0  0  0
   59.7820   32.3430   47.4650 C   0  0  0  0  0  0  0  0  0  0  0  0
   60.2300   33.6510   47.6630 C   0  0  0  0  0  0  0  0  0  0  0  0
   59.7870   34.6750   46.8340 C   0  0  0  0  0  0  0  0  0  0  0  0
   58.8420   34.4040   45.8490 C   0  0  0  0  0  0  0  0  0  0  0  0
   58.3900   33.0900   45.6360 C   0  0  0  0  0  0  0  0  0  0  0  0
   57.1480   32.9030   44.8090 C   0  0  0  0  0  0  0  0  0  0  0  0
   57.0430   31.5040   44.2230 C   0  0  0  0  0  0  0  0  0  0  0  0
   59.8714   29.4408   50.3862 H   0  0  0  0  0  0  0  0  0  0  0  0
   59.4831   30.6480   49.1139 H   0  0  0  0  0  0  0  0  0  0  0  0
   58.6655   29.0486   49.1139 H   0  0  0  0  0  0  0  0  0  0  0  0
   61.6843   29.4073   48.7908 H   0  0  0  0  0  0  0  0  0  0  0  0
   60.6988   27.9113   48.5313 H   0  0  0  0  0  0  0  0  0  0  0  0
   60.9741   30.3698   46.7870 H   0  0  0  0  0  0  0  0  0  0  0  0
   60.9809   28.6105   46.3483 H   0  0  0  0  0  0  0  0  0  0  0  0
   58.8517   27.3975   47.1181 H   0  0  0  0  0  0  0  0  0  0  0  0
   60.0909   31.5551   48.1677 H   0  0  0  0  0  0  0  0  0  0  0  0
   60.9356   33.8715   48.4775 H   0  0  0  0  0  0  0  0  0  0  0  0
   60.1814   35.6946   46.9559 H   0  0  0  0  0  0  0  0  0  0  0  0
   58.4457   35.2242   45.2324 H   0  0  0  0  0  0  0  0  0  0  0  0
   56.2697   33.0855   45.4456 H   0  0  0  0  0  0  0  0  0  0  0  0
   57.1950   33.6135   43.9706 H   0  0  0  0  0  0  0  0  0  0  0  0
   56.0165   31.3492   43.8591 H   0  0  0  0  0  0  0  0  0  0  0  0
   57.7753   31.4259   43.4059 H   0  0  0  0  0  0  0  0  0  0  0  0
  1  2  1  0
  2  3  1  0
  3  4  1  0
  4  5  1  0
  5  6  2  0
  6  7  1  0
  7  8  2  0
  7  9  1  0
  6 10  1  0
 10 11  2  0
 10 12  1  0
 12 13  2  0
 13 14  1  0
 14 15  2  0
 15 16  1  0
 16 17  2  0
 17 18  1  0
 18 19  2  0
 19 20  1  0
 20 21  1  0
 13  4  1  0
 19 14  1  0
 21 12  1  0
  1 22  1  0
  1 23  1  0
  1 24  1  0
  2 25  1  0
  2 26  1  0
  3 27  1  0
  3 28  1  0
  5 29  1  0
 15 30  1  0
 16 31  1  0
 17 32  1  0
 18 33  1  0
 20 34  1  0
 20 35  1  0
 21 36  1  0
 21 37  1  0
M  CHG  1   9  -1
M  END
>  <UniqueID>  (42) 
40

>  <SMILES>  (42) 
CCCn1cc(C(=O)[O-])c(=O)c2c1-c1ccccc1CC2

>  <Energy>  (42) 
65.40842988032283

>  <Genealogy>  (42) 
CCCn1cc(C(=O)[O-])c(=O)c2c1-c1ccccc1CC2 (protonated)
CCCn1cc(C(=O)[O-])c(=O)c2c1-c1ccccc1CC2 (3D coordinates assigned)
CCCn1cc(C(=O)[O-])c(=O)c2c1-c1ccccc1CC2 (nonaromatic ring conformer: 65.40842988032283 kcal/mol)

>  <smiles>  (42) 
CCCn1cc(C(=O)O)c(=O)c2c1-c1ccccc1CC2

>  <score_type>  (42) 
oracle

>  <origin>  (42) 
adg

>  <m_score__min__energy>  (42) 
-10.16

>  <m_primary>  (42) 
energy

$$$$
42:0
     RDKit          3D

 33 35  0  0  0  0  0  0  0  0999 V2000
   56.2480   21.9520   44.7090 C   0  0  0  0  0  0  0  0  0  0  0  0
   56.4390   23.4090   45.0100 C   0  0  0  0  0  0  0  0  0  0  0  0
   57.7260   23.9610   45.0390 C   0  0  0  0  0  0  0  0  0  0  0  0
   57.9080   25.3100   45.3560 C   0  0  0  0  0  0  0  0  0  0  0  0
   56.8080   26.1250   45.6700 C   0  0  0  0  0  0  0  0  0  0  0  0
   57.0150   27.5570   45.9980 C   0  0  0  0  0  0  0  0  0  0  0  0
   57.6980   27.8700   47.0090 O   0  0  0  0  0  0  0  0  0  0  0  0
   56.4010   28.6060   45.2350 N   0  0  0  0  0  0  0  0  0  0  0  0
   56.9270   29.9260   45.0320 C   0  0  0  0  0  0  0  0  0  0  0  0
   56.6690   30.6550   43.8590 C   0  0  0  0  0  0  0  0  0  0  0  0
   57.1980   31.8970   43.6930 N   0  0  0  0  0  0  0  0  0  0  0  0
   57.9920   32.4690   44.6360 C   0  0  0  0  0  0  0  0  0  0  0  0
   58.5140   33.7510   44.4340 C   0  0  0  0  0  0  0  0  0  0  0  0
   59.3370   34.3340   45.4030 C   0  0  0  0  0  0  0  0  0  0  0  0
   59.6400   33.6370   46.5780 C   0  0  0  0  0  0  0  0  0  0  0  0
   59.1230   32.3550   46.7900 C   0  0  0  0  0  0  0  0  0  0  0  0
   58.2970   31.7640   45.8220 C   0  0  0  0  0  0  0  0  0  0  0  0
   57.7630   30.4830   46.0050 C   0  0  0  0  0  0  0  0  0  0  0  0
   55.5140   25.5650   45.6520 C   0  0  0  0  0  0  0  0  0  0  0  0
   54.4000   26.3340   45.9710 O   0  0  0  0  0  0  0  0  0  0  0  0
   55.3370   24.2140   45.3310 C   0  0  0  0  0  0  0  0  0  0  0  0
   56.1743   21.3895   45.6514 H   0  0  0  0  0  0  0  0  0  0  0  0
   55.3243   21.8157   44.1274 H   0  0  0  0  0  0  0  0  0  0  0  0
   57.1054   21.5823   44.1274 H   0  0  0  0  0  0  0  0  0  0  0  0
   58.5976   23.3298   44.8112 H   0  0  0  0  0  0  0  0  0  0  0  0
   58.9216   25.7372   45.3596 H   0  0  0  0  0  0  0  0  0  0  0  0
   56.0365   30.2194   43.0715 H   0  0  0  0  0  0  0  0  0  0  0  0
   58.2768   34.3014   43.5116 H   0  0  0  0  0  0  0  0  0  0  0  0
   59.7467   35.3419   45.2412 H   0  0  0  0  0  0  0  0  0  0  0  0
   60.2873   34.0993   47.3378 H   0  0  0  0  0  0  0  0  0  0  0  0
   59.3637   31.8104   47.7149 H   0  0  0  0  0  0  0  0  0  0  0  0
   58.0013   29.9136   46.9155 H   0  0  0  0  0  0  0  0  0  0  0  0
   54.3259   23.7808   45.3306 H   0  0  0  0  0  0  0  0  0  0  0  0
  1  2  1  0
  2  3  2  0
  3  4  1  0
  4  5  2  0
  5  6  1  0
  6  7  2  0
  6  8  1  0
  8  9  1  0
  9 10  2  0
 10 11  1  0
 11 12  2  0
 12 13  1  0
 13 14  2  0
 14 15  1  0
 15 16  2  0
 16 17  1  0
 17 18  2  0
  5 19  1  0
 19 20  1  0
 19 21  2  0
 21  2  1  0
 18  9  1  0
 17 12  1  0
  1 22  1  0
  1 23  1  0
  1 24  1  0
  3 25  1  0
  4 26  1  0
 10 27  1  0
 13 28  1  0
 14 29  1  0
 15 30  1  0
 16 31  1  0
 18 32  1  0
 21 33  1  0
M  CHG  2   8  -1  20  -1
M  END
>  <UniqueID>  (43) 
41

>  <SMILES>  (43) 
Cc1ccc(C(=O)[N-]c2cnc3ccccc3c2)c([O-])c1

>  <Energy>  (43) 
46.406054900111165

>  <Genealogy>  (43) 
Cc1ccc(C(=O)[N-]c2cnc3ccccc3c2)c([O-])c1 (protonated)
Cc1ccc(C(=O)[N-]c2cnc3ccccc3c2)c([O-])c1 (3D coordinates assigned)
Cc1ccc(C(=O)[N-]c2cnc3ccccc3c2)c([O-])c1 (optimized conformer: 46.406054900111165 kcal/mol)

>  <smiles>  (43) 
Cc1ccc(C(=O)Nc2cnc3ccccc3c2)c(O)c1

>  <score_type>  (43) 
oracle

>  <origin>  (43) 
adg

>  <m_score__min__energy>  (43) 
-13.35

>  <m_primary>  (43) 
energy

$$$$
43:0
     RDKit          3D

 46 48  0  0  0  0  0  0  0  0999 V2000
   55.7860   22.2140   42.3510 N   0  0  0  0  0  0  0  0  0  0  0  0
   56.6410   21.2400   43.4940 S   0  0  0  0  0  0  0  0  0  0  0  0
   58.0650   21.0910   43.0370 O   0  0  0  0  0  0  0  0  0  0  0  0
   56.0100   19.8780   43.5750 O   0  0  0  0  0  0  0  0  0  0  0  0
   56.5840   22.0080   45.0790 C   0  0  0  0  0  0  0  0  0  0  0  0
   56.2380   21.2470   46.2030 C   0  0  0  0  0  0  0  0  0  0  0  0
   56.2050   21.8380   47.4690 C   0  0  0  0  0  0  0  0  0  0  0  0
   56.5090   23.1930   47.6170 C   0  0  0  0  0  0  0  0  0  0  0  0
   56.8340   23.9730   46.5010 C   0  0  0  0  0  0  0  0  0  0  0  0
   57.1590   25.3570   46.7020 N   0  0  0  0  0  0  0  0  0  0  0  0
   56.4120   26.4910   46.2380 C   0  0  0  0  0  0  0  0  0  0  0  0
   55.1820   26.3780   45.9860 O   0  0  0  0  0  0  0  0  0  0  0  0
   57.0720   27.8120   46.1080 C   0  0  0  0  0  0  0  0  0  0  0  0
   58.1150   28.1790   46.9780 C   0  0  0  0  0  0  0  0  0  0  0  0
   58.7360   29.4250   46.8570 C   0  0  0  0  0  0  0  0  0  0  0  0
   58.3190   30.3340   45.8710 C   0  0  0  0  0  0  0  0  0  0  0  0
   58.9590   31.6120   45.7090 N   0  0  0  0  0  0  0  0  0  0  0  0
   58.2610   32.8680   45.7070 C   0  0  0  0  0  0  0  0  0  0  0  0
   57.0020   32.9040   45.6450 O   0  0  0  0  0  0  0  0  0  0  0  0
   59.0320   34.1520   45.6860 C   0  0  0  0  0  0  0  0  0  0  0  0
   60.1190   34.1200   46.7240 C   0  0  0  0  0  0  0  0  0  0  0  0
   59.8130   34.3220   48.0820 C   0  0  0  0  0  0  0  0  0  0  0  0
   60.8220   34.2560   49.0480 C   0  0  0  0  0  0  0  0  0  0  0  0
   62.1390   33.9860   48.6690 C   0  0  0  0  0  0  0  0  0  0  0  0
   62.4500   33.7760   47.3220 C   0  0  0  0  0  0  0  0  0  0  0  0
   61.4440   33.8370   46.3520 C   0  0  0  0  0  0  0  0  0  0  0  0
   57.2970   29.9620   44.9900 C   0  0  0  0  0  0  0  0  0  0  0  0
   56.6710   28.7180   45.1100 C   0  0  0  0  0  0  0  0  0  0  0  0
   56.8910   23.3690   45.2310 C   0  0  0  0  0  0  0  0  0  0  0  0
   56.5010   22.6930   41.7590 H   0  0  0  0  0  0  0  0  0  0  0  0
   55.9915   20.1811   46.0888 H   0  0  0  0  0  0  0  0  0  0  0  0
   55.9393   21.2352   48.3499 H   0  0  0  0  0  0  0  0  0  0  0  0
   56.4929   23.6504   48.6173 H   0  0  0  0  0  0  0  0  0  0  0  0
   58.4444   27.4792   47.7601 H   0  0  0  0  0  0  0  0  0  0  0  0
   59.5563   29.6954   47.5381 H   0  0  0  0  0  0  0  0  0  0  0  0
   59.9810   31.6230   45.4930 H   0  0  0  0  0  0  0  0  0  0  0  0
   59.4824   34.2895   44.6919 H   0  0  0  0  0  0  0  0  0  0  0  0
   58.3487   34.9854   45.9064 H   0  0  0  0  0  0  0  0  0  0  0  0
   58.7767   34.5325   48.3851 H   0  0  0  0  0  0  0  0  0  0  0  0
   60.5780   34.4170   50.1084 H   0  0  0  0  0  0  0  0  0  0  0  0
   62.9316   33.9386   49.4303 H   0  0  0  0  0  0  0  0  0  0  0  0
   63.4873   33.5625   47.0247 H   0  0  0  0  0  0  0  0  0  0  0  0
   61.6911   33.6628   45.2944 H   0  0  0  0  0  0  0  0  0  0  0  0
   56.9834   30.6552   44.1956 H   0  0  0  0  0  0  0  0  0  0  0  0
   55.8593   28.4459   44.4192 H   0  0  0  0  0  0  0  0  0  0  0  0
   57.1776   23.9667   44.3531 H   0  0  0  0  0  0  0  0  0  0  0  0
  1  2  1  0
  2  3  2  0
  2  4  2  0
  2  5  1  0
  5  6  2  0
  6  7  1  0
  7  8  2  0
  8  9  1  0
  9 10  1  0
 10 11  1  0
 11 12  2  0
 11 13  1  0
 13 14  2  0
 14 15  1  0
 15 16  2  0
 16 17  1  0
 17 18  1  0
 18 19  2  0
 18 20  1  0
 20 21  1  0
 21 22  2  0
 22 23  1  0
 23 24  2  0
 24 25  1  0
 25 26  2  0
 16 27  1  0
 27 28  2  0
  9 29  2  0
 29  5  1  0
 28 13  1  0
 26 21  1  0
  1 30  1  0
  6 31  1  0
  7 32  1  0
  8 33  1  0
 14 34  1  0
 15 35  1  0
 17 36  1  0
 20 37  1  0
 20 38  1  0
 22 39  1  0
 23 40  1  0
 24 41  1  0
 25 42  1  0
 26 43  1  0
 27 44  1  0
 28 45  1  0
 29 46  1  0
M  CHG  2   1  -1  10  -1
M  END
>  <UniqueID>  (44) 
42

>  <SMILES>  (44) 
[NH-]S(=O)(=O)c1cccc([N-]C(=O)c2ccc(NC(=O)Cc3ccccc3)cc2)c1

>  <Energy>  (44) 
54.131603371655615

>  <Genealogy>  (44) 
[NH-]S(=O)(=O)c1cccc([N-]C(=O)c2ccc(NC(=O)Cc3ccccc3)cc2)c1 (protonated)
[NH-]S(=O)(=O)c1cccc([N-]C(=O)c2ccc(NC(=O)Cc3ccccc3)cc2)c1 (3D coordinates assigned)
[NH-]S(=O)(=O)c1cccc([N-]C(=O)c2ccc(NC(=O)Cc3ccccc3)cc2)c1 (optimized conformer: 54.131603371655615 kcal/mol)

>  <smiles>  (44) 
NS(=O)(=O)c1cccc(NC(=O)c2ccc(NC(=O)Cc3ccccc3)cc2)c1

>  <score_type>  (44) 
oracle

>  <origin>  (44) 
adg

>  <m_score__min__energy>  (44) 
-13

>  <m_primary>  (44) 
energy

$$$$
44:0
     RDKit          3D

 49 51  0  0  0  0  0  0  0  0999 V2000
   58.1330   32.6580   43.2600 C   0  0  0  0  0  0  0  0  0  0  0  0
   57.5630   32.5320   44.9440 S   0  0  0  0  0  0  0  0  0  0  0  0
   56.5940   33.6380   45.2560 O   0  0  0  0  0  0  0  0  0  0  0  0
   56.8290   31.2250   45.0610 O   0  0  0  0  0  0  0  0  0  0  0  0
   58.9140   32.5600   46.1010 C   0  0  0  0  0  0  0  0  0  0  0  0
   59.1350   33.7550   46.8100 C   0  0  0  0  0  0  0  0  0  0  0  0
   60.1430   33.8480   47.7670 C   0  0  0  0  0  0  0  0  0  0  0  0
   60.9450   32.7460   48.0420 C   0  0  0  0  0  0  0  0  0  0  0  0
   60.7520   31.5530   47.3500 C   0  0  0  0  0  0  0  0  0  0  0  0
   59.7610   31.4430   46.3570 C   0  0  0  0  0  0  0  0  0  0  0  0
   59.6150   29.8740   45.5360 S   0  0  0  0  0  0  0  0  0  0  0  0
   60.9330   29.1570   45.4980 O   0  0  0  0  0  0  0  0  0  0  0  0
   59.1510   30.1270   44.1290 O   0  0  0  0  0  0  0  0  0  0  0  0
   58.4320   28.8810   46.3660 N   0  0  0  0  0  0  0  0  0  0  0  0
   59.0270   27.8590   47.2440 C   0  0  0  0  0  0  0  0  0  0  0  0
   59.5820   26.6360   46.4910 C   0  0  0  0  0  0  0  0  0  0  0  0
   58.6430   26.0750   45.4000 C   0  0  0  0  0  0  0  0  0  0  0  0
   57.7250   24.9200   45.8790 C   0  0  0  0  0  0  0  0  0  0  0  0
   57.4660   23.8300   44.8690 C   0  0  0  0  0  0  0  0  0  0  0  0
   56.4390   23.9700   43.9190 C   0  0  0  0  0  0  0  0  0  0  0  0
   56.1870   22.9490   42.9970 C   0  0  0  0  0  0  0  0  0  0  0  0
   56.9440   21.7760   43.0270 C   0  0  0  0  0  0  0  0  0  0  0  0
   57.9480   21.6160   43.9860 C   0  0  0  0  0  0  0  0  0  0  0  0
   58.2040   22.6350   44.9090 C   0  0  0  0  0  0  0  0  0  0  0  0
   57.9160   27.1780   44.6010 C   0  0  0  0  0  0  0  0  0  0  0  0
   57.4000   28.3310   45.4730 C   0  0  0  0  0  0  0  0  0  0  0  0
   59.2071   32.8954   43.2532 H   0  0  0  0  0  0  0  0  0  0  0  0
   57.9657   31.7012   42.7437 H   0  0  0  0  0  0  0  0  0  0  0  0
   57.5780   33.4551   42.7437 H   0  0  0  0  0  0  0  0  0  0  0  0
   58.5012   34.6305   46.6052 H   0  0  0  0  0  0  0  0  0  0  0  0
   60.3045   34.7936   48.3053 H   0  0  0  0  0  0  0  0  0  0  0  0
   61.7325   32.8166   48.8067 H   0  0  0  0  0  0  0  0  0  0  0  0
   61.3839   30.6833   47.5832 H   0  0  0  0  0  0  0  0  0  0  0  0
   59.8509   28.3227   47.8064 H   0  0  0  0  0  0  0  0  0  0  0  0
   58.2224   27.4928   47.8986 H   0  0  0  0  0  0  0  0  0  0  0  0
   60.5287   26.9275   46.0128 H   0  0  0  0  0  0  0  0  0  0  0  0
   59.7053   25.8381   47.2381 H   0  0  0  0  0  0  0  0  0  0  0  0
   59.3085   25.5878   44.6722 H   0  0  0  0  0  0  0  0  0  0  0  0
   58.1935   24.4593   46.7611 H   0  0  0  0  0  0  0  0  0  0  0  0
   56.7464   25.3791   46.0831 H   0  0  0  0  0  0  0  0  0  0  0  0
   55.8311   24.8866   43.9008 H   0  0  0  0  0  0  0  0  0  0  0  0
   55.3914   23.0702   42.2472 H   0  0  0  0  0  0  0  0  0  0  0  0
   56.7500   20.9776   42.2956 H   0  0  0  0  0  0  0  0  0  0  0  0
   58.5374   20.6877   44.0148 H   0  0  0  0  0  0  0  0  0  0  0  0
   58.9868   22.5003   45.6699 H   0  0  0  0  0  0  0  0  0  0  0  0
   58.6169   27.5895   43.8598 H   0  0  0  0  0  0  0  0  0  0  0  0
   57.0375   26.7104   44.1323 H   0  0  0  0  0  0  0  0  0  0  0  0
   57.0411   29.1355   44.8143 H   0  0  0  0  0  0  0  0  0  0  0  0
   56.5951   27.9304   46.1067 H   0  0  0  0  0  0  0  0  0  0  0  0
  1  2  1  0
  2  3  2  0
  2  4  2  0
  2  5  1  0
  5  6  2  0
  6  7  1  0
  7  8  2  0
  8  9  1  0
  9 10  2  0
 10 11  1  0
 11 12  2  0
 11 13  2  0
 11 14  1  0
 14 15  1  0
 15 16  1  0
 16 17  1  0
 17 18  1  0
 18 19  1  0
 19 20  2  0
 20 21  1  0
 21 22  2  0
 22 23  1  0
 23 24  2  0
 17 25  1  0
 25 26  1  0
 10  5  1  0
 26 14  1  0
 24 19  1  0
  1 27  1  0
  1 28  1  0
  1 29  1  0
  6 30  1  0
  7 31  1  0
  8 32  1  0
  9 33  1  0
 15 34  1  0
 15 35  1  0
 16 36  1  0
 16 37  1  0
 17 38  1  0
 18 39  1  0
 18 40  1  0
 20 41  1  0
 21 42  1  0
 22 43  1  0
 23 44  1  0
 24 45  1  0
 25 46  1  0
 25 47  1  0
 26 48  1  0
 26 49  1  0
M  END
>  <UniqueID>  (45) 
43

>  <SMILES>  (45) 
CS(=O)(=O)c1ccccc1S(=O)(=O)N1CCC(Cc2ccccc2)CC1

>  <Energy>  (45) 
58.724788976765076

>  <Genealogy>  (45) 
CS(=O)(=O)c1ccccc1S(=O)(=O)N1CCC(Cc2ccccc2)CC1 (3D coordinates assigned)
CS(=O)(=O)c1ccccc1S(=O)(=O)N1CCC(Cc2ccccc2)CC1 (nonaromatic ring conformer: 58.724788976765076 kcal/mol)

>  <smiles>  (45) 
CS(=O)(=O)c1ccccc1S(=O)(=O)N1CCC(Cc2ccccc2)CC1

>  <score_type>  (45) 
oracle

>  <origin>  (45) 
adg

>  <m_score__min__energy>  (45) 
-9.3699999999999992

>  <m_primary>  (45) 
energy

$$$$
45:0
     RDKit          3D

 37 39  0  0  0  0  0  0  0  0999 V2000
   64.8410   33.0500   50.0110 C   0  0  0  0  0  0  0  0  0  0  0  0
   63.6670   33.3880   49.0860 C   0  0  0  0  0  0  0  0  0  0  0  0
   63.8590   32.8570   47.7100 N   0  0  2  0  0  0  0  0  0  0  0  0
   63.4720   33.8360   46.6680 C   0  0  0  0  0  0  0  0  0  0  0  0
   61.9800   33.9340   46.4580 C   0  0  0  0  0  0  0  0  0  0  0  0
   61.1300   32.9450   46.7870 C   0  0  0  0  0  0  0  0  0  0  0  0
   59.7040   33.0290   46.3660 C   0  0  0  0  0  0  0  0  0  0  0  0
   58.8810   34.1500   46.5160 C   0  0  0  0  0  0  0  0  0  0  0  0
   57.6590   33.9240   45.9880 N   0  0  0  0  0  0  0  0  0  0  0  0
   57.6890   32.6750   45.5020 C   0  0  0  0  0  0  0  0  0  0  0  0
   56.6450   32.0060   44.8660 C   0  0  0  0  0  0  0  0  0  0  0  0
   56.8700   30.6880   44.4360 C   0  0  0  0  0  0  0  0  0  0  0  0
   58.1210   30.0700   44.6520 C   0  0  0  0  0  0  0  0  0  0  0  0
   58.3360   28.7140   44.2170 C   0  0  0  0  0  0  0  0  0  0  0  0
   58.5080   27.6250   43.8670 N   0  0  0  0  0  0  0  0  0  0  0  0
   59.1590   30.7700   45.2990 C   0  0  0  0  0  0  0  0  0  0  0  0
   58.9160   32.0880   45.7070 C   0  0  0  0  0  0  0  0  0  0  0  0
   61.6150   31.7710   47.6030 C   0  0  0  0  0  0  0  0  0  0  0  0
   63.1360   31.5830   47.5010 C   0  0  0  0  0  0  0  0  0  0  0  0
   64.5203   33.1423   51.0592 H   0  0  0  0  0  0  0  0  0  0  0  0
   65.1742   32.0194   49.8189 H   0  0  0  0  0  0  0  0  0  0  0  0
   65.6712   33.7456   49.8189 H   0  0  0  0  0  0  0  0  0  0  0  0
   62.7486   32.9535   49.5075 H   0  0  0  0  0  0  0  0  0  0  0  0
   63.5991   34.4837   49.0165 H   0  0  0  0  0  0  0  0  0  0  0  0
   64.8760   32.6420   47.5780 H   0  0  0  0  0  0  0  0  0  0  0  0
   63.8477   34.8265   46.9642 H   0  0  0  0  0  0  0  0  0  0  0  0
   63.9101   33.4899   45.7202 H   0  0  0  0  0  0  0  0  0  0  0  0
   61.5703   34.8545   46.0166 H   0  0  0  0  0  0  0  0  0  0  0  0
   59.1880   35.0893   46.9991 H   0  0  0  0  0  0  0  0  0  0  0  0
   56.8580   34.5940   45.9610 H   0  0  0  0  0  0  0  0  0  0  0  0
   55.6732   32.4958   44.7055 H   0  0  0  0  0  0  0  0  0  0  0  0
   56.0669   30.1340   43.9280 H   0  0  0  0  0  0  0  0  0  0  0  0
   60.1343   30.2941   45.4789 H   0  0  0  0  0  0  0  0  0  0  0  0
   61.3485   31.9379   48.6571 H   0  0  0  0  0  0  0  0  0  0  0  0
   61.1351   30.8635   47.2078 H   0  0  0  0  0  0  0  0  0  0  0  0
   63.4582   30.8605   48.2653 H   0  0  0  0  0  0  0  0  0  0  0  0
   63.3698   31.2173   46.4903 H   0  0  0  0  0  0  0  0  0  0  0  0
  1  2  1  0
  2  3  1  0
  3  4  1  0
  4  5  1  0
  5  6  2  0
  6  7  1  0
  7  8  2  0
  8  9  1  0
  9 10  1  0
 10 11  2  0
 11 12  1  0
 12 13  2  0
 13 14  1  0
 14 15  3  0
 13 16  1  0
 16 17  2  0
  6 18  1  0
 18 19  1  0
 19  3  1  0
 17  7  1  0
 17 10  1  0
  1 20  1  0
  1 21  1  0
  1 22  1  0
  2 23  1  0
  2 24  1  0
  3 25  1  6
  4 26  1  0
  4 27  1  0
  5 28  1  0
  8 29  1  0
  9 30  1  0
 11 31  1  0
 12 32  1  0
 16 33  1  0
 18 34  1  0
 18 35  1  0
 19 36  1  0
 19 37  1  0
M  CHG  1   3   1
M  END
>  <UniqueID>  (46) 
44

>  <SMILES>  (46) 
CC[N@@H+]1CC=C(c2c[nH]c3ccc(C#N)cc23)CC1

>  <Energy>  (46) 
78.85987005678543

>  <Genealogy>  (46) 
CC[NH+]1CC=C(c2c[nH]c3ccc(C#N)cc23)CC1 (protonated)
CC[N@@H+]1CC=C(c2c[nH]c3ccc(C#N)cc23)CC1 (chirality)
CC[N@@H+]1CC=C(c2c[nH]c3ccc(C#N)cc23)CC1 (3D coordinates assigned)
CC[N@@H+]1CC=C(c2c[nH]c3ccc(C#N)cc23)CC1 (nonaromatic ring conformer: 78.85987005678543 kcal/mol)

>  <smiles>  (46) 
CCN1CC=C(c2c[nH]c3ccc(C#N)cc23)CC1

>  <score_type>  (46) 
oracle

>  <origin>  (46) 
adg

>  <m_score__min__energy>  (46) 
-5.5499999999999998

>  <m_primary>  (46) 
energy

$$$$
46:0
     RDKit          3D

 32 34  0  0  0  0  0  0  0  0999 V2000
   63.3930   32.7520   47.2490 C   0  0  0  0  0  0  0  0  0  0  0  0
   62.0700   33.3670   47.4730 C   0  0  0  0  0  0  0  0  0  0  0  0
   61.5250   33.3830   48.7470 C   0  0  0  0  0  0  0  0  0  0  0  0
   60.2830   33.9710   48.9030 C   0  0  0  0  0  0  0  0  0  0  0  0
   59.6040   34.5230   47.8310 C   0  0  0  0  0  0  0  0  0  0  0  0
   60.1450   34.5070   46.5670 C   0  0  0  0  0  0  0  0  0  0  0  0
   59.4870   35.0830   45.3700 C   0  0  0  0  0  0  0  0  0  0  0  0
   57.8300   34.4130   45.2340 S   0  0  0  0  0  0  0  0  0  0  0  0
   57.7710   32.6460   45.0730 C   0  0  0  0  0  0  0  0  0  0  0  0
   56.7350   31.8170   44.8820 N   0  0  0  0  0  0  0  0  0  0  0  0
   57.1400   30.5470   44.8240 C   0  0  0  0  0  0  0  0  0  0  0  0
   56.4570   29.3490   44.6450 C   0  0  0  0  0  0  0  0  0  0  0  0
   55.1900   29.3390   44.4950 N   0  0  0  0  0  0  0  0  0  0  0  0
   57.1750   28.2360   44.6370 N   0  0  0  0  0  0  0  0  0  0  0  0
   58.5270   28.2300   44.7950 C   0  0  0  0  0  0  0  0  0  0  0  0
   59.1650   29.4240   44.9690 N   0  0  0  0  0  0  0  0  0  0  0  0
   58.5130   30.5910   44.9900 C   0  0  0  0  0  0  0  0  0  0  0  0
   58.8940   31.8750   45.1420 N   0  0  0  0  0  0  0  0  0  0  0  0
   61.3870   33.9200   46.4030 C   0  0  0  0  0  0  0  0  0  0  0  0
   63.8644   32.5329   48.2184 H   0  0  0  0  0  0  0  0  0  0  0  0
   63.2717   31.8179   46.6808 H   0  0  0  0  0  0  0  0  0  0  0  0
   64.0289   33.4468   46.6808 H   0  0  0  0  0  0  0  0  0  0  0  0
   62.0602   32.9445   49.6021 H   0  0  0  0  0  0  0  0  0  0  0  0
   59.8243   34.0006   49.9023 H   0  0  0  0  0  0  0  0  0  0  0  0
   58.6171   34.9812   47.9924 H   0  0  0  0  0  0  0  0  0  0  0  0
   59.4351   36.1773   45.4686 H   0  0  0  0  0  0  0  0  0  0  0  0
   60.0654   34.8281   44.4697 H   0  0  0  0  0  0  0  0  0  0  0  0
   54.6220   30.2260   44.5000 H   0  0  0  0  0  0  0  0  0  0  0  0
   59.0916   27.2860   44.7827 H   0  0  0  0  0  0  0  0  0  0  0  0
   60.2140   29.4410   45.0940 H   0  0  0  0  0  0  0  0  0  0  0  0
   59.8810   32.1810   45.2820 H   0  0  0  0  0  0  0  0  0  0  0  0
   61.8414   33.8920   45.4016 H   0  0  0  0  0  0  0  0  0  0  0  0
  1  2  1  0
  2  3  2  0
  3  4  1  0
  4  5  2  0
  5  6  1  0
  6  7  1  0
  7  8  1  0
  8  9  1  0
  9 10  2  0
 10 11  1  0
 11 12  1  0
 12 13  2  3
 12 14  1  0
 14 15  2  0
 15 16  1  0
 16 17  1  0
 17 18  1  0
  6 19  2  0
 19  2  1  0
 18  9  1  0
 17 11  2  0
  1 20  1  0
  1 21  1  0
  1 22  1  0
  3 23  1  0
  4 24  1  0
  5 25  1  0
  7 26  1  0
  7 27  1  0
 13 28  1  0
 15 29  1  0
 16 30  1  0
 18 31  1  0
 19 32  1  0
M  END
>  <smiles>  (47) 
Cc1cccc(CSc2nc3c(=N)nc[nH]c3[nH]2)c1

>  <score_type>  (47) 
oracle

>  <origin>  (47) 
adg

>  <m_score__min__energy>  (47) 
-7.1200000000000001

>  <m_primary>  (47) 
energy

$$$$
47:0
     RDKit          3D

 44 46  0  0  0  0  0  0  0  0999 V2000
   58.1969   27.2910   46.3560 H   0  0  0  0  0  0  0  0  0  0  0  0
   57.2130   27.1710   45.8790 C   0  0  0  0  0  0  0  0  0  0  0  0
   56.4930   28.2260   45.6370 N   0  0  0  0  0  0  0  0  0  0  0  0
   56.8330   29.2900   44.7290 C   0  0  0  0  0  0  0  0  0  0  0  0
   56.1770   29.4390   43.4880 C   0  0  0  0  0  0  0  0  0  0  0  0
   55.3729   28.7421   43.2090 H   0  0  0  0  0  0  0  0  0  0  0  0
   56.5400   30.4630   42.6120 C   0  0  0  0  0  0  0  0  0  0  0  0
   56.0278   30.5641   41.6438 H   0  0  0  0  0  0  0  0  0  0  0  0
   57.5500   31.3580   42.9610 C   0  0  0  0  0  0  0  0  0  0  0  0
   57.8397   32.1583   42.2642 H   0  0  0  0  0  0  0  0  0  0  0  0
   58.1940   31.2400   44.1930 C   0  0  0  0  0  0  0  0  0  0  0  0
   58.9828   31.9563   44.4665 H   0  0  0  0  0  0  0  0  0  0  0  0
   57.8440   30.2140   45.0880 C   0  0  0  0  0  0  0  0  0  0  0  0
   58.5430   30.1230   46.3920 C   0  0  0  0  0  0  0  0  0  0  0  0
   59.1450   29.0610   46.7000 O   0  0  0  0  0  0  0  0  0  0  0  0
   58.4870   31.1850   47.3540 N   0  0  0  0  0  0  0  0  0  0  0  0
   59.1270   32.4650   47.2420 C   0  0  0  0  0  0  0  0  0  0  0  0
   58.3720   33.6540   47.2380 C   0  0  0  0  0  0  0  0  0  0  0  0
   57.2773   33.6064   47.3348 H   0  0  0  0  0  0  0  0  0  0  0  0
   59.0040   34.8930   47.1120 C   0  0  0  0  0  0  0  0  0  0  0  0
   58.4077   35.8173   47.1216 H   0  0  0  0  0  0  0  0  0  0  0  0
   60.3900   34.9600   46.9740 C   0  0  0  0  0  0  0  0  0  0  0  0
   60.8866   35.9371   46.8816 H   0  0  0  0  0  0  0  0  0  0  0  0
   61.1480   33.7870   46.9530 C   0  0  0  0  0  0  0  0  0  0  0  0
   62.2403   33.8446   46.8368 H   0  0  0  0  0  0  0  0  0  0  0  0
   60.5260   32.5360   47.0790 C   0  0  0  0  0  0  0  0  0  0  0  0
   61.3250   31.3470   47.0550 N   0  0  0  0  0  0  0  0  0  0  0  0
   62.3680   31.4060   47.0670 H   0  0  0  0  0  0  0  0  0  0  0  0
   60.8920   30.3970   47.0280 H   0  0  0  0  0  0  0  0  0  0  0  0
   56.7410   25.8100   45.5280 C   0  0  0  0  0  0  0  0  0  0  0  0
   57.6910   24.8650   45.1060 C   0  0  0  0  0  0  0  0  0  0  0  0
   58.7514   25.1504   45.0425 H   0  0  0  0  0  0  0  0  0  0  0  0
   57.3030   23.5660   44.7660 C   0  0  0  0  0  0  0  0  0  0  0  0
   58.0606   22.8382   44.4398 H   0  0  0  0  0  0  0  0  0  0  0  0
   55.9600   23.1840   44.8370 C   0  0  0  0  0  0  0  0  0  0  0  0
   55.6240   21.8680   44.4850 O   0  0  0  0  0  0  0  0  0  0  0  0
   56.5650   20.8780   44.0820 C   0  0  0  0  0  0  0  0  0  0  0  0
   57.0095   20.4104   44.9729 H   0  0  0  0  0  0  0  0  0  0  0  0
   56.0552   20.1107   43.4809 H   0  0  0  0  0  0  0  0  0  0  0  0
   57.3572   21.3482   43.4809 H   0  0  0  0  0  0  0  0  0  0  0  0
   55.0020   24.1240   45.2540 C   0  0  0  0  0  0  0  0  0  0  0  0
   53.9428   23.8328   45.3122 H   0  0  0  0  0  0  0  0  0  0  0  0
   55.3820   25.4270   45.5960 C   0  0  0  0  0  0  0  0  0  0  0  0
   54.3980   26.3250   45.9920 O   0  0  0  0  0  0  0  0  0  0  0  0
  1  2  1  0
  2  3  2  0
  3  4  1  0
  4  5  2  0
  5  6  1  0
  5  7  1  0
  7  8  1  0
  7  9  2  0
  9 10  1  0
  9 11  1  0
 11 12  1  0
 11 13  2  0
 13 14  1  0
 14 15  2  0
 14 16  1  0
 16 17  1  0
 17 18  2  0
 18 19  1  0
 18 20  1  0
 20 21  1  0
 20 22  2  0
 22 23  1  0
 22 24  1  0
 24 25  1  0
 24 26  2  0
 26 27  1  0
 27 28  1  0
 27 29  1  0
  2 30  1  0
 30 31  2  0
 31 32  1  0
 31 33  1  0
 33 34  1  0
 33 35  2  0
 35 36  1  0
 36 37  1  0
 37 38  1  0
 37 39  1  0
 37 40  1  0
 35 41  1  0
 41 42  1  0
 41 43  2  0
 43 44  1  0
 13  4  1  0
 26 17  1  0
 43 30  1  0
M  CHG  2  16  -1  44  -1
M  END
>  <UniqueID>  (48) 
45

>  <SMILES>  (48) 
COc1ccc(/C=N/c2ccccc2C(=O)[N-]c2ccccc2N)c([O-])c1

>  <Energy>  (48) 
59.14861820552589

>  <Genealogy>  (48) 
COc1ccc(C=Nc2ccccc2C(=O)[N-]c2ccccc2N)c([O-])c1 (protonated)
COc1ccc(/C=N/c2ccccc2C(=O)[N-]c2ccccc2N)c([O-])c1 (cis-trans isomerization)
COc1ccc(/C=N/c2ccccc2C(=O)[N-]c2ccccc2N)c([O-])c1 (3D coordinates assigned)
COc1ccc(/C=N/c2ccccc2C(=O)[N-]c2ccccc2N)c([O-])c1 (optimized conformer: 59.14861820552589 kcal/mol)

>  <smiles>  (48) 
COc1ccc(C=Nc2ccccc2C(=O)Nc2ccccc2N)c(O)c1

>  <score_type>  (48) 
oracle

>  <origin>  (48) 
adg

>  <m_score__min__energy>  (48) 
-13.539999999999999

>  <m_primary>  (48) 
energy

$$$$
48:0
     RDKit          3D

 39 41  0  0  0  0  0  0  0  0999 V2000
   50.8040   33.1280   52.0270 O   0  0  0  0  0  0  0  0  0  0  0  0
   51.2420   32.2170   51.2740 C   0  0  0  0  0  0  0  0  0  0  0  0
   51.0200   32.3110   49.9050 O   0  0  0  0  0  0  0  0  0  0  0  0
   51.9780   31.0640   51.8380 C   0  0  0  0  0  0  0  0  0  0  0  0
   51.3980   29.7840   51.8610 C   0  0  0  0  0  0  0  0  0  0  0  0
   52.0970   28.7000   52.3970 C   0  0  0  0  0  0  0  0  0  0  0  0
   53.3840   28.8780   52.9080 C   0  0  0  0  0  0  0  0  0  0  0  0
   53.9850   30.1400   52.8850 C   0  0  0  0  0  0  0  0  0  0  0  0
   55.2790   30.2760   53.4110 O   0  0  0  0  0  0  0  0  0  0  0  0
   56.4120   30.5950   52.6520 C   0  0  0  0  0  0  0  0  0  0  0  0
   56.4520   31.8240   51.9860 C   0  0  0  0  0  0  0  0  0  0  0  0
   57.5480   32.1580   51.1860 C   0  0  0  0  0  0  0  0  0  0  0  0
   58.6230   31.2730   51.0500 C   0  0  0  0  0  0  0  0  0  0  0  0
   59.7060   31.6340   50.1810 N   0  0  0  0  0  0  0  0  0  0  0  0
   60.0880   33.2540   49.6950 S   0  0  0  0  0  0  0  0  0  0  0  0
   59.5740   34.2140   50.7300 O   0  0  0  0  0  0  0  0  0  0  0  0
   61.5820   33.3950   49.5900 O   0  0  0  0  0  0  0  0  0  0  0  0
   59.3190   33.6150   48.1520 C   0  0  0  0  0  0  0  0  0  0  0  0
   58.1760   32.9050   47.7550 C   0  0  0  0  0  0  0  0  0  0  0  0
   57.5820   33.1670   46.5170 C   0  0  0  0  0  0  0  0  0  0  0  0
   58.1210   34.1430   45.6740 C   0  0  0  0  0  0  0  0  0  0  0  0
   57.5440   34.3960   44.4730 F   0  0  0  0  0  0  0  0  0  0  0  0
   59.2550   34.8600   46.0690 C   0  0  0  0  0  0  0  0  0  0  0  0
   59.8530   34.5980   47.3050 C   0  0  0  0  0  0  0  0  0  0  0  0
   58.6090   30.0600   51.7610 C   0  0  0  0  0  0  0  0  0  0  0  0
   57.5140   29.7210   52.5620 C   0  0  0  0  0  0  0  0  0  0  0  0
   57.5730   28.2230   53.4820 Cl  0  0  0  0  0  0  0  0  0  0  0  0
   53.2730   31.2350   52.3600 C   0  0  0  0  0  0  0  0  0  0  0  0
   50.3869   29.6349   51.4542 H   0  0  0  0  0  0  0  0  0  0  0  0
   51.6321   27.7032   52.4166 H   0  0  0  0  0  0  0  0  0  0  0  0
   53.9281   28.0206   53.3310 H   0  0  0  0  0  0  0  0  0  0  0  0
   55.6164   32.5315   52.0924 H   0  0  0  0  0  0  0  0  0  0  0  0
   57.5656   33.1236   50.6594 H   0  0  0  0  0  0  0  0  0  0  0  0
   57.7464   32.1406   48.4192 H   0  0  0  0  0  0  0  0  0  0  0  0
   56.6894   32.6044   46.2059 H   0  0  0  0  0  0  0  0  0  0  0  0
   59.6765   35.6305   45.4067 H   0  0  0  0  0  0  0  0  0  0  0  0
   60.7442   35.1637   47.6143 H   0  0  0  0  0  0  0  0  0  0  0  0
   59.4650   29.3732   51.6867 H   0  0  0  0  0  0  0  0  0  0  0  0
   53.7337   32.2339   52.3579 H   0  0  0  0  0  0  0  0  0  0  0  0
  1  2  2  0
  2  3  1  0
  2  4  1  0
  4  5  2  0
  5  6  1  0
  6  7  2  0
  7  8  1  0
  8  9  1  0
  9 10  1  0
 10 11  2  0
 11 12  1  0
 12 13  2  0
 13 14  1  0
 14 15  1  0
 15 16  2  0
 15 17  2  0
 15 18  1  0
 18 19  2  0
 19 20  1  0
 20 21  2  0
 21 22  1  0
 21 23  1  0
 23 24  2  0
 13 25  1  0
 25 26  2  0
 26 27  1  0
  8 28  2  0
 28  4  1  0
 26 10  1  0
 24 18  1  0
  5 29  1  0
  6 30  1  0
  7 31  1  0
 11 32  1  0
 12 33  1  0
 19 34  1  0
 20 35  1  0
 23 36  1  0
 24 37  1  0
 25 38  1  0
 28 39  1  0
M  CHG  2   3  -1  14  -1
M  END
>  <UniqueID>  (49) 
46

>  <SMILES>  (49) 
O=C([O-])c1cccc(Oc2ccc([N-]S(=O)(=O)c3ccc(F)cc3)cc2Cl)c1

>  <Energy>  (49) 
53.71956099859421

>  <Genealogy>  (49) 
O=C([O-])c1cccc(Oc2ccc([N-]S(=O)(=O)c3ccc(F)cc3)cc2Cl)c1 (protonated)
O=C([O-])c1cccc(Oc2ccc([N-]S(=O)(=O)c3ccc(F)cc3)cc2Cl)c1 (3D coordinates assigned)
O=C([O-])c1cccc(Oc2ccc([N-]S(=O)(=O)c3ccc(F)cc3)cc2Cl)c1 (optimized conformer: 53.71956099859421 kcal/mol)

>  <smiles>  (49) 
O=C(O)c1cccc(Oc2ccc(NS(=O)(=O)c3ccc(F)cc3)cc2Cl)c1

>  <score_type>  (49) 
oracle

>  <origin>  (49) 
adg

>  <m_score__min__energy>  (49) 
-12.390000000000001

>  <m_primary>  (49) 
energy

$$$$
49:0
     RDKit          3D

 64 67  0  0  1  0  0  0  0  0999 V2000
   60.7660   27.0130   49.4420 C   0  0  0  0  0  0  0  0  0  0  0  0
   60.6140   28.2680   48.8170 O   0  0  0  0  0  0  0  0  0  0  0  0
   60.0010   28.4630   47.5890 C   0  0  0  0  0  0  0  0  0  0  0  0
   59.5460   27.3820   46.8640 C   0  0  0  0  0  0  0  0  0  0  0  0
   58.9400   27.6150   45.6450 C   0  0  0  0  0  0  0  0  0  0  0  0
   58.8030   28.9020   45.1810 C   0  0  0  0  0  0  0  0  0  0  0  0
   58.1800   29.1880   43.9210 N   0  0  0  0  0  0  0  0  0  0  0  0
   56.8300   29.6630   43.8510 C   0  0  0  0  0  0  0  0  0  0  0  0
   56.2670   29.9320   42.5120 C   0  0  0  0  0  0  0  0  0  0  0  0
   56.1280   29.8520   44.8840 O   0  0  0  0  0  0  0  0  0  0  0  0
   59.2600   29.9660   45.9110 C   0  0  0  0  0  0  0  0  0  0  0  0
   59.8740   29.7720   47.1390 C   0  0  0  0  0  0  0  0  0  0  0  0
   57.5680   30.0510   51.4190 N   0  0  0  0  0  0  0  0  0  0  0  0
   58.2210   30.9270   50.7560 C   0  0  0  0  0  0  0  0  0  0  0  0
   59.6770   32.6120   49.2130 N   0  0  0  0  0  0  0  0  0  0  0  0
   58.9760   33.1100   50.2480 C   0  0  0  0  0  0  0  0  0  0  0  0
   58.2330   32.2700   51.0400 C   0  0  0  0  0  0  0  0  0  0  0  0
   57.3120   32.8770   52.3860 Cl  0  0  0  0  0  0  0  0  0  0  0  0
   59.6760   31.2980   48.9230 C   0  0  0  0  0  0  0  0  0  0  0  0
   60.3590   30.8570   47.9230 N   0  0  0  0  0  0  0  0  0  0  0  0
   58.1230   29.3400   52.5110 C   0  0  0  0  0  0  0  0  0  0  0  0
   57.3060   28.9900   53.5990 C   0  0  0  0  0  0  0  0  0  0  0  0
   57.8380   28.2620   54.6690 C   0  0  0  0  0  0  0  0  0  0  0  0
   59.1690   27.8940   54.6390 C   0  0  0  0  0  0  0  0  0  0  0  0
   60.0050   28.2280   53.5710 C   0  0  0  0  0  0  0  0  0  0  0  0
   59.4730   28.9570   52.5010 C   0  0  0  0  0  0  0  0  0  0  0  0
   60.3200   29.3000   51.4100 N   0  0  0  0  0  0  0  0  0  0  0  0
   61.3850   30.2090   51.4810 C   0  0  0  0  0  0  0  0  0  0  0  0
   61.6680   30.8000   52.5610 O   0  0  0  0  0  0  0  0  0  0  0  0
   62.1360   30.4350   50.2740 N   0  0  0  0  0  0  0  0  0  0  0  0
   63.2540   31.3480   50.2260 C   0  0  0  0  0  0  0  0  0  0  0  0
   63.7140   31.6240   48.8160 C   0  0  0  0  0  0  0  0  0  0  0  0
   63.0990   32.9470   48.4250 C   0  0  0  0  0  0  0  0  0  0  0  0
   62.5760   33.6000   49.6640 C   0  0  0  0  0  0  0  0  0  0  0  0
   62.8920   32.6860   50.8270 C   0  0  0  0  0  0  0  0  0  0  0  0
   58.9440   30.4840   49.7040 N   0  0  0  0  0  0  0  0  0  0  0  0
   60.7503   27.1430   50.5342 H   0  0  0  0  0  0  0  0  0  0  0  0
   59.9415   26.3506   49.1397 H   0  0  0  0  0  0  0  0  0  0  0  0
   61.7248   26.5665   49.1397 H   0  0  0  0  0  0  0  0  0  0  0  0
   59.6630   26.3577   47.2476 H   0  0  0  0  0  0  0  0  0  0  0  0
   58.5671   26.7713   45.0456 H   0  0  0  0  0  0  0  0  0  0  0  0
   58.7380   29.0400   43.0550 H   0  0  0  0  0  0  0  0  0  0  0  0
   55.2791   30.4040   42.6177 H   0  0  0  0  0  0  0  0  0  0  0  0
   56.9386   30.6065   41.9606 H   0  0  0  0  0  0  0  0  0  0  0  0
   56.1642   28.9857   41.9606 H   0  0  0  0  0  0  0  0  0  0  0  0
   59.1387   30.9866   45.5189 H   0  0  0  0  0  0  0  0  0  0  0  0
   60.2430   33.2840   48.6190 H   0  0  0  0  0  0  0  0  0  0  0  0
   58.9982   34.1893   50.4594 H   0  0  0  0  0  0  0  0  0  0  0  0
   56.2473   29.2885   53.6097 H   0  0  0  0  0  0  0  0  0  0  0  0
   57.2036   27.9859   55.5242 H   0  0  0  0  0  0  0  0  0  0  0  0
   59.5831   27.3207   55.4815 H   0  0  0  0  0  0  0  0  0  0  0  0
   61.0621   27.9237   53.5708 H   0  0  0  0  0  0  0  0  0  0  0  0
   60.0910   28.8100   50.4960 H   0  0  0  0  0  0  0  0  0  0  0  0
   61.8990   29.9430   49.3760 H   0  0  0  0  0  0  0  0  0  0  0  0
   64.0554   30.8546   50.7954 H   0  0  0  0  0  0  0  0  0  0  0  0
   64.8115   31.6874   48.7782 H   0  0  0  0  0  0  0  0  0  0  0  0
   63.4083   30.8207   48.1295 H   0  0  0  0  0  0  0  0  0  0  0  0
   63.8607   33.5889   47.9583 H   0  0  0  0  0  0  0  0  0  0  0  0
   62.2836   32.7900   47.7036 H   0  0  0  0  0  0  0  0  0  0  0  0
   63.0638   34.5752   49.8093 H   0  0  0  0  0  0  0  0  0  0  0  0
   61.4916   33.7672   49.5859 H   0  0  0  0  0  0  0  0  0  0  0  0
   63.7376   33.0849   51.4066 H   0  0  0  0  0  0  0  0  0  0  0  0
   62.0359   32.5989   51.5122 H   0  0  0  0  0  0  0  0  0  0  0  0
   58.9540   29.4760   49.4670 H   0  0  0  0  0  0  0  0  0  0  0  0
  1  2  1  0
  2  3  1  0
  3  4  2  0
  4  5  1  0
  5  6  2  0
  6  7  1  0
  7  8  1  0
  8  9  1  0
  8 10  2  0
  6 11  1  0
 11 12  2  0
 12 13  1  0
 13 14  2  0
 14 15  1  0
 15 16  1  0
 16 17  2  0
 17 18  1  0
 17 19  1  0
 19 20  2  0
 20 21  1  0
 21 22  2  0
 22 23  1  0
 23 24  2  0
 24 25  1  0
 25 26  2  0
 26 27  1  0
 27 28  1  0
 28 29  2  0
 28 30  1  0
 30 31  1  0
 31 32  1  0
 32 33  1  0
 33 34  1  0
 34 35  1  0
 19 36  1  0
 12  3  1  0
 36 14  1  0
 26 21  1  0
 35 31  1  0
  1 37  1  0
  1 38  1  0
  1 39  1  0
  4 40  1  0
  5 41  1  0
  7 42  1  0
  9 43  1  0
  9 44  1  0
  9 45  1  0
 11 46  1  0
 15 47  1  0
 16 48  1  0
 22 49  1  0
 23 50  1  0
 24 51  1  0
 25 52  1  0
 27 53  1  0
 30 54  1  0
 31 55  1  0
 32 56  1  0
 32 57  1  0
 33 58  1  0
 33 59  1  0
 34 60  1  0
 34 61  1  0
 35 62  1  0
 35 63  1  0
 36 64  1  0
M  END
>  <smiles>  (50) 
COc1ccc(NC(C)=O)cc1N=c1[nH]cc(Cl)c(=Nc2ccccc2NC(=O)NC2CCCC2)[nH]1

>  <score_type>  (50) 
oracle

>  <origin>  (50) 
adg

>  <m_score__min__energy>  (50) 
-9.0199999999999996

>  <m_primary>  (50) 
energy

$$$$
50:0
     RDKit          3D

 46 47  0  0  0  0  0  0  0  0999 V2000
   57.8520   32.8480   43.9290 C   0  0  0  0  0  0  0  0  0  0  0  0
   57.6820   33.8180   45.0920 C   0  0  0  0  0  0  0  0  0  0  0  0
   58.7600   33.6350   46.0770 N   0  0  0  0  0  0  0  0  0  0  0  0
   59.7170   34.7330   46.3040 C   0  0  0  0  0  0  0  0  0  0  0  0
   60.9180   34.2460   47.0720 C   0  0  0  0  0  0  0  0  0  0  0  0
   62.0620   33.8080   46.3870 C   0  0  0  0  0  0  0  0  0  0  0  0
   63.1800   33.3550   47.0950 C   0  0  0  0  0  0  0  0  0  0  0  0
   63.1610   33.3320   48.4930 C   0  0  0  0  0  0  0  0  0  0  0  0
   64.5630   32.7660   49.3820 Cl  0  0  0  0  0  0  0  0  0  0  0  0
   62.0200   33.7580   49.1820 C   0  0  0  0  0  0  0  0  0  0  0  0
   60.9010   34.2090   48.4760 C   0  0  0  0  0  0  0  0  0  0  0  0
   58.8250   32.4000   46.8320 C   0  0  0  0  0  0  0  0  0  0  0  0
   58.1000   32.2640   47.8570 O   0  0  0  0  0  0  0  0  0  0  0  0
   59.7860   31.2930   46.4720 C   0  0  0  0  0  0  0  0  0  0  0  0
   59.0590   30.0320   46.0810 C   0  0  0  0  0  0  0  0  0  0  0  0
   59.7580   28.8220   45.9720 C   0  0  0  0  0  0  0  0  0  0  0  0
   59.0960   27.6560   45.5790 C   0  0  0  0  0  0  0  0  0  0  0  0
   57.7230   27.6820   45.2720 C   0  0  0  0  0  0  0  0  0  0  0  0
   57.0130   26.4940   44.8670 N   0  0  0  0  0  0  0  0  0  0  0  0
   56.1690   25.4380   45.9560 S   0  0  0  0  0  0  0  0  0  0  0  0
   56.2780   23.7540   45.3880 C   0  0  0  0  0  0  0  0  0  0  0  0
   54.7210   25.8350   45.9910 O   0  0  0  0  0  0  0  0  0  0  0  0
   56.7380   25.5630   47.3410 O   0  0  0  0  0  0  0  0  0  0  0  0
   57.0260   28.9000   45.3790 C   0  0  0  0  0  0  0  0  0  0  0  0
   55.7020   28.9640   45.0890 F   0  0  0  0  0  0  0  0  0  0  0  0
   57.6920   30.0640   45.7730 C   0  0  0  0  0  0  0  0  0  0  0  0
   58.0295   31.8350   44.3194 H   0  0  0  0  0  0  0  0  0  0  0  0
   56.9399   32.8494   43.3141 H   0  0  0  0  0  0  0  0  0  0  0  0
   58.7093   33.1594   43.3141 H   0  0  0  0  0  0  0  0  0  0  0  0
   57.7113   34.8493   44.7105 H   0  0  0  0  0  0  0  0  0  0  0  0
   56.7162   33.6220   45.5807 H   0  0  0  0  0  0  0  0  0  0  0  0
   60.0469   35.1303   45.3328 H   0  0  0  0  0  0  0  0  0  0  0  0
   59.2188   35.5192   46.8902 H   0  0  0  0  0  0  0  0  0  0  0  0
   62.0795   33.8210   45.2872 H   0  0  0  0  0  0  0  0  0  0  0  0
   64.0747   33.0167   46.5518 H   0  0  0  0  0  0  0  0  0  0  0  0
   62.0036   33.7379   50.2817 H   0  0  0  0  0  0  0  0  0  0  0  0
   60.0038   34.5361   49.0220 H   0  0  0  0  0  0  0  0  0  0  0  0
   60.4093   31.6221   45.6275 H   0  0  0  0  0  0  0  0  0  0  0  0
   60.4044   31.0737   47.3549 H   0  0  0  0  0  0  0  0  0  0  0  0
   60.8342   28.7902   46.1972 H   0  0  0  0  0  0  0  0  0  0  0  0
   59.6527   26.7099   45.5090 H   0  0  0  0  0  0  0  0  0  0  0  0
   57.0650   26.1870   43.8710 H   0  0  0  0  0  0  0  0  0  0  0  0
   56.3218   23.0771   46.2539 H   0  0  0  0  0  0  0  0  0  0  0  0
   55.3935   23.5143   44.7796 H   0  0  0  0  0  0  0  0  0  0  0  0
   57.1860   23.6303   44.7796 H   0  0  0  0  0  0  0  0  0  0  0  0
   57.1391   31.0124   45.8419 H   0  0  0  0  0  0  0  0  0  0  0  0
  1  2  1  0
  2  3  1  0
  3  4  1  0
  4  5  1  0
  5  6  2  0
  6  7  1  0
  7  8  2  0
  8  9  1  0
  8 10  1  0
 10 11  2  0
  3 12  1  0
 12 13  2  0
 12 14  1  0
 14 15  1  0
 15 16  2  0
 16 17  1  0
 17 18  2  0
 18 19  1  0
 19 20  1  0
 20 21  1  0
 20 22  2  0
 20 23  2  0
 18 24  1  0
 24 25  1  0
 24 26  2  0
 11  5  1  0
 26 15  1  0
  1 27  1  0
  1 28  1  0
  1 29  1  0
  2 30  1  0
  2 31  1  0
  4 32  1  0
  4 33  1  0
  6 34  1  0
  7 35  1  0
 10 36  1  0
 11 37  1  0
 14 38  1  0
 14 39  1  0
 16 40  1  0
 17 41  1  0
 19 42  1  0
 21 43  1  0
 21 44  1  0
 21 45  1  0
 26 46  1  0
M  END
>  <UniqueID>  (51) 
47

>  <SMILES>  (51) 
CCN(Cc1ccc(Cl)cc1)C(=O)Cc1ccc(NS(C)(=O)=O)c(F)c1

>  <Energy>  (51) 
40.68499517095675

>  <Genealogy>  (51) 
CCN(Cc1ccc(Cl)cc1)C(=O)Cc1ccc(NS(C)(=O)=O)c(F)c1 (3D coordinates assigned)
CCN(Cc1ccc(Cl)cc1)C(=O)Cc1ccc(NS(C)(=O)=O)c(F)c1 (optimized conformer: 40.68499517095675 kcal/mol)

>  <smiles>  (51) 
CCN(Cc1ccc(Cl)cc1)C(=O)Cc1ccc(NS(C)(=O)=O)c(F)c1

>  <score_type>  (51) 
oracle

>  <origin>  (51) 
adg

>  <m_score__min__energy>  (51) 
-8.9000000000000004

>  <m_primary>  (51) 
energy

$$$$
51:0
     RDKit          3D

 30 31  0  0  0  0  0  0  0  0999 V2000
   58.1530   23.0080   47.5020 H   0  0  0  0  0  0  0  0  0  0  0  0
   57.3260   23.5620   47.8180 N   0  0  0  0  0  0  0  0  0  0  0  0
   56.8960   24.5780   47.1440 C   0  0  0  0  0  0  0  0  0  0  0  0
   57.7200   25.6250   46.8810 N   0  0  0  0  0  0  0  0  0  0  0  0
   57.2610   26.6910   46.1780 C   0  0  0  0  0  0  0  0  0  0  0  0
   58.3410   28.0800   45.8530 S   0  0  0  0  0  0  0  0  0  0  0  0
   57.4130   28.6460   44.3860 C   0  0  0  0  0  0  0  0  0  0  0  0
   58.1134   29.0934   43.6653 H   0  0  0  0  0  0  0  0  0  0  0  0
   56.9025   27.7829   43.9340 H   0  0  0  0  0  0  0  0  0  0  0  0
   56.3840   29.6690   44.7750 C   0  0  0  0  0  0  0  0  0  0  0  0
   55.1780   29.3160   44.8440 O   0  0  0  0  0  0  0  0  0  0  0  0
   56.7150   31.0390   45.0460 N   0  0  0  0  0  0  0  0  0  0  0  0
   57.7230   31.8380   44.3540 C   0  0  0  0  0  0  0  0  0  0  0  0
   58.5423   31.1804   44.0281 H   0  0  0  0  0  0  0  0  0  0  0  0
   57.2518   32.3236   43.4867 H   0  0  0  0  0  0  0  0  0  0  0  0
   58.2780   32.9050   45.2600 C   0  0  0  0  0  0  0  0  0  0  0  0
   58.1930   32.7640   46.6550 C   0  0  0  0  0  0  0  0  0  0  0  0
   57.7303   31.8645   47.0872 H   0  0  0  0  0  0  0  0  0  0  0  0
   58.6940   33.7620   47.4970 C   0  0  0  0  0  0  0  0  0  0  0  0
   58.6326   33.6415   48.5887 H   0  0  0  0  0  0  0  0  0  0  0  0
   59.2720   34.9110   46.9540 C   0  0  0  0  0  0  0  0  0  0  0  0
   59.6686   35.6932   47.6179 H   0  0  0  0  0  0  0  0  0  0  0  0
   59.3470   35.0680   45.5660 C   0  0  0  0  0  0  0  0  0  0  0  0
   59.7994   35.9751   45.1387 H   0  0  0  0  0  0  0  0  0  0  0  0
   58.8470   34.0720   44.7220 C   0  0  0  0  0  0  0  0  0  0  0  0
   58.8992   34.2024   43.6310 H   0  0  0  0  0  0  0  0  0  0  0  0
   55.9800   26.7090   45.7330 N   0  0  0  0  0  0  0  0  0  0  0  0
   55.1550   25.6630   45.9940 C   0  0  0  0  0  0  0  0  0  0  0  0
   53.9660   25.6810   45.5850 O   0  0  0  0  0  0  0  0  0  0  0  0
   55.6130   24.5990   46.7010 N   0  0  0  0  0  0  0  0  0  0  0  0
  1  2  1  0
  2  3  2  0
  3  4  1  0
  4  5  2  0
  5  6  1  0
  6  7  1  0
  7  8  1  0
  7  9  1  0
  7 10  1  0
 10 11  2  0
 10 12  1  0
 12 13  1  0
 13 14  1  0
 13 15  1  0
 13 16  1  0
 16 17  2  0
 17 18  1  0
 17 19  1  0
 19 20  1  0
 19 21  2  0
 21 22  1  0
 21 23  1  0
 23 24  1  0
 23 25  2  0
 25 26  1  0
  5 27  1  0
 27 28  1  0
 28 29  2  0
 28 30  1  0
 30  3  1  0
 25 16  1  0
M  CHG  3  12  -1  27  -1  30  -1
M  END
>  <UniqueID>  (52) 
48

>  <SMILES>  (52) 
[H]/N=c1\nc(SCC(=O)[N-]Cc2ccccc2)[n-]c(=O)[n-]1

>  <Energy>  (52) 
24.051936156991367

>  <Genealogy>  (52) 
N=c1nc(SCC(=O)[N-]Cc2ccccc2)[n-]c(=O)[n-]1 (protonated)
[H]/N=c1\nc(SCC(=O)[N-]Cc2ccccc2)[n-]c(=O)[n-]1 (cis-trans isomerization)
[H]/N=c1\nc(SCC(=O)[N-]Cc2ccccc2)[n-]c(=O)[n-]1 (3D coordinates assigned)
[H]/N=c1\nc(SCC(=O)[N-]Cc2ccccc2)[n-]c(=O)[n-]1 (optimized conformer: 24.051936156991367 kcal/mol)

>  <smiles>  (52) 
N=c1nc(SCC(=O)NCc2ccccc2)[nH]c(=O)[nH]1

>  <score_type>  (52) 
oracle

>  <origin>  (52) 
adg

>  <m_score__min__energy>  (52) 
-12.81

>  <m_primary>  (52) 
energy

$$$$
52:0
     RDKit          3D

 56 59  0  0  0  0  0  0  0  0999 V2000
   64.9108   32.4115   49.4078 H   0  0  0  0  0  0  0  0  0  0  0  0
   64.0920   32.4950   48.6780 C   0  0  0  0  0  0  0  0  0  0  0  0
   63.0250   31.6540   48.7540 N   0  0  0  0  0  0  0  0  0  0  0  0
   61.9930   31.7210   47.8690 C   0  0  0  0  0  0  0  0  0  0  0  0
   60.8190   30.8000   48.0190 C   0  0  0  0  0  0  0  0  0  0  0  0
   61.0220   29.8615   47.4823 H   0  0  0  0  0  0  0  0  0  0  0  0
   59.9252   31.2853   47.6000 H   0  0  0  0  0  0  0  0  0  0  0  0
   60.5920   30.5150   49.3980 O   0  0  0  0  0  0  0  0  0  0  0  0
   59.5620   31.0540   50.1910 C   0  0  0  0  0  0  0  0  0  0  0  0
   58.4060   30.3090   50.4920 C   0  0  0  0  0  0  0  0  0  0  0  0
   58.2870   29.2959   50.0804 H   0  0  0  0  0  0  0  0  0  0  0  0
   57.4120   30.8450   51.3070 C   0  0  0  0  0  0  0  0  0  0  0  0
   56.5080   30.2621   51.5372 H   0  0  0  0  0  0  0  0  0  0  0  0
   57.5740   32.1250   51.8270 C   0  0  0  0  0  0  0  0  0  0  0  0
   56.7980   32.5574   52.4758 H   0  0  0  0  0  0  0  0  0  0  0  0
   58.6890   32.8400   51.5340 N   0  0  0  0  0  0  0  0  0  0  0  0
   59.6790   32.3660   50.7280 C   0  0  0  0  0  0  0  0  0  0  0  0
   60.7090   33.1380   50.5250 N   0  0  0  0  0  0  0  0  0  0  0  0
   60.8310   34.2150   49.5880 C   0  0  0  0  0  0  0  0  0  0  0  0
   61.9560   34.7450   49.3920 O   0  0  0  0  0  0  0  0  0  0  0  0
   59.6920   34.7170   48.8810 N   0  0  0  0  0  0  0  0  0  0  0  0
   59.1860   34.2620   47.6170 C   0  0  0  0  0  0  0  0  0  0  0  0
   58.3340   33.1490   47.5060 C   0  0  0  0  0  0  0  0  0  0  0  0
   58.0290   32.6003   48.4093 H   0  0  0  0  0  0  0  0  0  0  0  0
   57.8730   32.7370   46.2520 C   0  0  0  0  0  0  0  0  0  0  0  0
   57.1970   31.8727   46.1745 H   0  0  0  0  0  0  0  0  0  0  0  0
   58.2680   33.4200   45.0920 C   0  0  0  0  0  0  0  0  0  0  0  0
   57.7650   32.9780   43.7430 C   0  0  0  0  0  0  0  0  0  0  0  0
   58.0470   33.7303   42.9916 H   0  0  0  0  0  0  0  0  0  0  0  0
   56.6714   32.8730   43.7983 H   0  0  0  0  0  0  0  0  0  0  0  0
   58.3340   31.6840   43.3590 N   0  0  0  0  0  0  0  0  0  0  0  0
   57.4360   30.3540   44.0360 S   0  0  0  0  0  0  0  0  0  0  0  0
   56.2500   30.8330   44.8270 O   0  0  0  0  0  0  0  0  0  0  0  0
   56.9420   29.4760   42.9210 O   0  0  0  0  0  0  0  0  0  0  0  0
   58.4870   29.4080   45.0740 C   0  0  0  0  0  0  0  0  0  0  0  0
   59.7160   28.8790   44.7340 C   0  0  0  0  0  0  0  0  0  0  0  0
   60.2333   28.9749   43.7680 H   0  0  0  0  0  0  0  0  0  0  0  0
   60.1640   28.2050   45.8530 C   0  0  0  0  0  0  0  0  0  0  0  0
   61.1133   27.6536   45.9221 H   0  0  0  0  0  0  0  0  0  0  0  0
   59.2620   28.3250   46.8480 N   0  0  0  0  0  0  0  0  0  0  0  0
   59.3430   27.7050   48.1650 C   0  0  0  0  0  0  0  0  0  0  0  0
   59.2420   28.4780   48.9410 H   0  0  0  0  0  0  0  0  0  0  0  0
   58.5335   26.9682   48.2738 H   0  0  0  0  0  0  0  0  0  0  0  0
   60.3146   27.2009   48.2738 H   0  0  0  0  0  0  0  0  0  0  0  0
   58.2260   29.0440   46.3770 C   0  0  0  0  0  0  0  0  0  0  0  0
   57.3172   29.2998   46.9416 H   0  0  0  0  0  0  0  0  0  0  0  0
   59.1490   34.5060   45.2010 C   0  0  0  0  0  0  0  0  0  0  0  0
   59.4810   35.0350   44.2955 H   0  0  0  0  0  0  0  0  0  0  0  0
   59.6070   34.9190   46.4560 C   0  0  0  0  0  0  0  0  0  0  0  0
   60.3036   35.7670   46.5309 H   0  0  0  0  0  0  0  0  0  0  0  0
   62.0100   32.6910   46.8560 C   0  0  0  0  0  0  0  0  0  0  0  0
   61.1725   32.7680   46.1470 H   0  0  0  0  0  0  0  0  0  0  0  0
   63.1000   33.5580   46.7560 C   0  0  0  0  0  0  0  0  0  0  0  0
   63.1330   34.3128   45.9565 H   0  0  0  0  0  0  0  0  0  0  0  0
   64.1480   33.4640   47.6740 C   0  0  0  0  0  0  0  0  0  0  0  0
   65.0085   34.1460   47.6070 H   0  0  0  0  0  0  0  0  0  0  0  0
  1  2  1  0
  2  3  2  0
  3  4  1  0
  4  5  1  0
  5  6  1  0
  5  7  1  0
  5  8  1  0
  8  9  1  0
  9 10  2  0
 10 11  1  0
 10 12  1  0
 12 13  1  0
 12 14  2  0
 14 15  1  0
 14 16  1  0
 16 17  1  0
 17 18  2  0
 18 19  1  0
 19 20  2  0
 19 21  1  0
 21 22  1  0
 22 23  2  0
 23 24  1  0
 23 25  1  0
 25 26  1  0
 25 27  2  0
 27 28  1  0
 28 29  1  0
 28 30  1  0
 28 31  1  0
 31 32  1  0
 32 33  2  0
 32 34  2  0
 32 35  1  0
 35 36  1  0
 36 37  1  0
 36 38  2  0
 38 39  1  0
 38 40  1  0
 40 41  1  0
 41 42  1  0
 41 43  1  0
 41 44  1  0
 40 45  1  0
 45 46  1  0
 27 47  1  0
 47 48  1  0
 47 49  2  0
 49 50  1  0
  4 51  2  0
 51 52  1  0
 51 53  1  0
 53 54  1  0
 53 55  2  0
 55 56  1  0
 55  2  1  0
 17  9  1  0
 49 22  1  0
 45 35  2  0
M  CHG  3  16  -1  21  -1  31  -1
M  END
>  <UniqueID>  (53) 
49

>  <SMILES>  (53) 
Cn1ccc(S(=O)(=O)[N-]Cc2ccc([N-]C(=O)/N=c3/[n-]cccc3OCc3ccccn3)cc2)c1

>  <Energy>  (53) 
93.01765252880237

>  <Genealogy>  (53) 
Cn1ccc(S(=O)(=O)[N-]Cc2ccc([N-]C(=O)N=c3[n-]cccc3OCc3ccccn3)cc2)c1 (protonated)
Cn1ccc(S(=O)(=O)[N-]Cc2ccc([N-]C(=O)/N=c3/[n-]cccc3OCc3ccccn3)cc2)c1 (cis-trans isomerization)
Cn1ccc(S(=O)(=O)[N-]Cc2ccc([N-]C(=O)/N=c3/[n-]cccc3OCc3ccccn3)cc2)c1 (3D coordinates assigned)
Cn1ccc(S(=O)(=O)[N-]Cc2ccc([N-]C(=O)/N=c3/[n-]cccc3OCc3ccccn3)cc2)c1 (optimized conformer: 93.01765252880237 kcal/mol)

>  <smiles>  (53) 
Cn1ccc(S(=O)(=O)NCc2ccc(NC(=O)N=c3[nH]cccc3OCc3ccccn3)cc2)c1

>  <score_type>  (53) 
oracle

>  <origin>  (53) 
adg

>  <m_score__min__energy>  (53) 
-12.09

>  <m_primary>  (53) 
energy

$$$$
53:0
     RDKit          3D

 63 65  0  0  0  0  0  0  0  0999 V2000
   59.7720   28.5260   44.1740 C   0  0  0  0  0  0  0  0  0  0  0  0
   59.4530   29.5660   45.1660 N   0  0  0  0  0  0  0  0  0  0  0  0
   60.3520   29.6900   46.2960 C   0  0  0  0  0  0  0  0  0  0  0  0
   60.8440   30.8110   46.5940 O   0  0  0  0  0  0  0  0  0  0  0  0
   60.6510   28.5590   47.0740 O   0  0  0  0  0  0  0  0  0  0  0  0
   59.8830   28.0570   48.1780 C   0  0  0  0  0  0  0  0  0  0  0  0
   58.7850   29.0910   48.4730 C   0  0  0  0  0  0  0  0  0  0  0  0
   60.7690   27.9020   49.4290 C   0  0  0  0  0  0  0  0  0  0  0  0
   59.2180   26.7160   47.8130 C   0  0  0  0  0  0  0  0  0  0  0  0
   58.1830   30.3600   45.1320 C   0  0  0  0  0  0  0  0  0  0  0  0
   57.0180   29.3940   45.3080 C   0  0  0  0  0  0  0  0  0  0  0  0
   55.8780   29.7260   44.8820 O   0  0  0  0  0  0  0  0  0  0  0  0
   57.1810   28.1620   46.0220 N   0  0  0  0  0  0  0  0  0  0  0  0
   56.9050   26.8530   45.5060 C   0  0  0  0  0  0  0  0  0  0  0  0
   57.7350   26.2440   44.5480 C   0  0  0  0  0  0  0  0  0  0  0  0
   57.4510   24.9530   44.0900 C   0  0  0  0  0  0  0  0  0  0  0  0
   56.3470   24.2590   44.5910 C   0  0  0  0  0  0  0  0  0  0  0  0
   55.5310   24.8500   45.5610 C   0  0  0  0  0  0  0  0  0  0  0  0
   55.8150   26.1390   46.0230 C   0  0  0  0  0  0  0  0  0  0  0  0
   57.9430   31.0990   43.7680 C   0  0  0  0  0  0  0  0  0  0  0  0
   58.4880   32.5350   43.7870 C   0  0  0  0  0  0  0  0  0  0  0  0
   57.7610   33.3740   44.7660 N   0  0  0  0  0  0  0  0  0  0  0  0
   58.5260   34.6040   45.0610 C   0  0  0  0  0  0  0  0  0  0  0  0
   59.4640   34.3780   46.2180 C   0  0  0  0  0  0  0  0  0  0  0  0
   59.0730   34.6980   47.5300 C   0  0  0  0  0  0  0  0  0  0  0  0
   59.9530   34.4910   48.5970 C   0  0  0  0  0  0  0  0  0  0  0  0
   61.2270   33.9660   48.3630 C   0  0  0  0  0  0  0  0  0  0  0  0
   61.6230   33.6440   47.0620 C   0  0  0  0  0  0  0  0  0  0  0  0
   60.7450   33.8470   45.9920 C   0  0  0  0  0  0  0  0  0  0  0  0
   57.3620   32.6490   46.0030 C   0  0  0  0  0  0  0  0  0  0  0  0
   58.2340   31.4130   46.2870 C   0  0  0  0  0  0  0  0  0  0  0  0
   60.0564   27.5989   44.6932 H   0  0  0  0  0  0  0  0  0  0  0  0
   58.8903   28.3376   43.5438 H   0  0  0  0  0  0  0  0  0  0  0  0
   60.6076   28.8644   43.5438 H   0  0  0  0  0  0  0  0  0  0  0  0
   58.6680   29.2012   49.5612 H   0  0  0  0  0  0  0  0  0  0  0  0
   59.0663   30.0598   48.0345 H   0  0  0  0  0  0  0  0  0  0  0  0
   57.8348   28.7521   48.0345 H   0  0  0  0  0  0  0  0  0  0  0  0
   60.1504   28.0102   50.3321 H   0  0  0  0  0  0  0  0  0  0  0  0
   61.2398   26.9079   49.4240 H   0  0  0  0  0  0  0  0  0  0  0  0
   61.5493   28.6773   49.4240 H   0  0  0  0  0  0  0  0  0  0  0  0
   58.9506   26.1767   48.7337 H   0  0  0  0  0  0  0  0  0  0  0  0
   58.3097   26.9059   47.2223 H   0  0  0  0  0  0  0  0  0  0  0  0
   59.9190   26.1079   47.2223 H   0  0  0  0  0  0  0  0  0  0  0  0
   58.6101   26.7843   44.1576 H   0  0  0  0  0  0  0  0  0  0  0  0
   58.0980   24.4837   43.3343 H   0  0  0  0  0  0  0  0  0  0  0  0
   56.1195   23.2478   44.2226 H   0  0  0  0  0  0  0  0  0  0  0  0
   54.6657   24.3008   45.9606 H   0  0  0  0  0  0  0  0  0  0  0  0
   55.1796   26.5952   46.7964 H   0  0  0  0  0  0  0  0  0  0  0  0
   58.4473   30.5385   42.9670 H   0  0  0  0  0  0  0  0  0  0  0  0
   56.8577   31.1501   43.5960 H   0  0  0  0  0  0  0  0  0  0  0  0
   59.5537   32.5101   44.0582 H   0  0  0  0  0  0  0  0  0  0  0  0
   58.3507   32.9714   42.7866 H   0  0  0  0  0  0  0  0  0  0  0  0
   59.1090   34.8893   44.1729 H   0  0  0  0  0  0  0  0  0  0  0  0
   57.8213   35.4059   45.3261 H   0  0  0  0  0  0  0  0  0  0  0  0
   58.0716   35.1126   47.7179 H   0  0  0  0  0  0  0  0  0  0  0  0
   59.6421   34.7417   49.6219 H   0  0  0  0  0  0  0  0  0  0  0  0
   61.9185   33.8061   49.2034 H   0  0  0  0  0  0  0  0  0  0  0  0
   62.6258   33.2306   46.8792 H   0  0  0  0  0  0  0  0  0  0  0  0
   61.0588   33.5898   44.9696 H   0  0  0  0  0  0  0  0  0  0  0  0
   57.4451   33.3393   46.8554 H   0  0  0  0  0  0  0  0  0  0  0  0
   56.3304   32.2959   45.8576 H   0  0  0  0  0  0  0  0  0  0  0  0
   59.2759   31.7402   46.4191 H   0  0  0  0  0  0  0  0  0  0  0  0
   57.8410   30.9305   47.1940 H   0  0  0  0  0  0  0  0  0  0  0  0
  1  2  1  0
  2  3  1  0
  3  4  2  0
  3  5  1  0
  5  6  1  0
  6  7  1  0
  6  8  1  0
  6  9  1  0
  2 10  1  0
 10 11  1  0
 11 12  2  0
 11 13  1  0
 13 14  1  0
 14 15  2  0
 15 16  1  0
 16 17  2  0
 17 18  1  0
 18 19  2  0
 10 20  1  0
 20 21  1  0
 21 22  1  0
 22 23  1  0
 23 24  1  0
 24 25  2  0
 25 26  1  0
 26 27  2  0
 27 28  1  0
 28 29  2  0
 22 30  1  0
 30 31  1  0
 31 10  1  0
 19 14  1  0
 29 24  1  0
  1 32  1  0
  1 33  1  0
  1 34  1  0
  7 35  1  0
  7 36  1  0
  7 37  1  0
  8 38  1  0
  8 39  1  0
  8 40  1  0
  9 41  1  0
  9 42  1  0
  9 43  1  0
 15 44  1  0
 16 45  1  0
 17 46  1  0
 18 47  1  0
 19 48  1  0
 20 49  1  0
 20 50  1  0
 21 51  1  0
 21 52  1  0
 23 53  1  0
 23 54  1  0
 25 55  1  0
 26 56  1  0
 27 57  1  0
 28 58  1  0
 29 59  1  0
 30 60  1  0
 30 61  1  0
 31 62  1  0
 31 63  1  0
M  CHG  1  13  -1
M  END
>  <UniqueID>  (54) 
50

>  <SMILES>  (54) 
CN(C(=O)OC(C)(C)C)C1(C(=O)[N-]c2ccccc2)CCN(Cc2ccccc2)CC1

>  <Energy>  (54) 
79.71113904536277

>  <Genealogy>  (54) 
CN(C(=O)OC(C)(C)C)C1(C(=O)[N-]c2ccccc2)CCN(Cc2ccccc2)CC1 (protonated)
CN(C(=O)OC(C)(C)C)C1(C(=O)[N-]c2ccccc2)CCN(Cc2ccccc2)CC1 (3D coordinates assigned)
CN(C(=O)OC(C)(C)C)C1(C(=O)[N-]c2ccccc2)CCN(Cc2ccccc2)CC1 (nonaromatic ring conformer: 79.71113904536277 kcal/mol)

>  <smiles>  (54) 
CN(C(=O)OC(C)(C)C)C1(C(=O)Nc2ccccc2)CCN(Cc2ccccc2)CC1

>  <score_type>  (54) 
oracle

>  <origin>  (54) 
adg

>  <m_score__min__energy>  (54) 
-10.77

>  <m_primary>  (54) 
energy

$$$$
54:0
     RDKit          3D

 44 46  0  0  0  0  0  0  0  0999 V2000
   59.9960   30.5950   45.7160 O   0  0  0  0  0  0  0  0  0  0  0  0
   58.7440   30.6880   45.5830 C   0  0  0  0  0  0  0  0  0  0  0  0
   58.1410   31.9780   45.4000 N   0  0  0  0  0  0  0  0  0  0  0  0
   58.9320   33.1990   45.2620 C   0  0  0  0  0  0  0  0  0  0  0  0
   59.7770   33.4140   46.4880 C   0  0  0  0  0  0  0  0  0  0  0  0
   61.1760   33.4550   46.3790 C   0  0  0  0  0  0  0  0  0  0  0  0
   61.9660   33.6760   47.5110 C   0  0  0  0  0  0  0  0  0  0  0  0
   61.3650   33.8600   48.7600 C   0  0  0  0  0  0  0  0  0  0  0  0
   62.3560   34.1390   50.1790 Cl  0  0  0  0  0  0  0  0  0  0  0  0
   59.9700   33.8250   48.8760 C   0  0  0  0  0  0  0  0  0  0  0  0
   59.1780   33.6040   47.7450 C   0  0  0  0  0  0  0  0  0  0  0  0
   57.9180   29.4610   45.6570 C   0  0  0  0  0  0  0  0  0  0  0  0
   58.4400   28.3040   46.2510 C   0  0  0  0  0  0  0  0  0  0  0  0
   57.6980   27.1600   46.3340 N   0  0  0  0  0  0  0  0  0  0  0  0
   58.2700   25.9820   47.0050 C   0  0  0  0  0  0  0  0  0  0  0  0
   59.1060   25.1620   46.0180 C   0  0  0  0  0  0  0  0  0  0  0  0
   58.2250   24.2670   45.1900 C   0  0  0  0  0  0  0  0  0  0  0  0
   58.1110   22.9010   45.5000 C   0  0  0  0  0  0  0  0  0  0  0  0
   57.3180   22.0640   44.7090 C   0  0  0  0  0  0  0  0  0  0  0  0
   56.6400   22.5820   43.6020 C   0  0  0  0  0  0  0  0  0  0  0  0
   56.7590   23.9360   43.2800 C   0  0  0  0  0  0  0  0  0  0  0  0
   57.5520   24.7770   44.0670 C   0  0  0  0  0  0  0  0  0  0  0  0
   56.4180   27.1440   45.8450 C   0  0  0  0  0  0  0  0  0  0  0  0
   55.7040   26.1090   45.9390 O   0  0  0  0  0  0  0  0  0  0  0  0
   55.9020   28.2480   45.2470 N   0  0  0  0  0  0  0  0  0  0  0  0
   56.6170   29.3940   45.1330 C   0  0  0  0  0  0  0  0  0  0  0  0
   56.1060   30.3770   44.5340 O   0  0  0  0  0  0  0  0  0  0  0  0
   57.1010   32.0720   45.4400 H   0  0  0  0  0  0  0  0  0  0  0  0
   59.5855   33.1106   44.3816 H   0  0  0  0  0  0  0  0  0  0  0  0
   58.2516   34.0549   45.1413 H   0  0  0  0  0  0  0  0  0  0  0  0
   61.6529   33.3125   45.3981 H   0  0  0  0  0  0  0  0  0  0  0  0
   63.0618   33.7052   47.4190 H   0  0  0  0  0  0  0  0  0  0  0  0
   59.4966   33.9715   49.8580 H   0  0  0  0  0  0  0  0  0  0  0  0
   58.0824   33.5788   47.8395 H   0  0  0  0  0  0  0  0  0  0  0  0
   59.4625   28.3172   46.6565 H   0  0  0  0  0  0  0  0  0  0  0  0
   58.9106   26.3129   47.8357 H   0  0  0  0  0  0  0  0  0  0  0  0
   57.4510   25.3551   47.3874 H   0  0  0  0  0  0  0  0  0  0  0  0
   59.6528   25.8462   45.3525 H   0  0  0  0  0  0  0  0  0  0  0  0
   59.8110   24.5370   46.5858 H   0  0  0  0  0  0  0  0  0  0  0  0
   58.6473   22.4890   46.3676 H   0  0  0  0  0  0  0  0  0  0  0  0
   57.2276   20.9964   44.9583 H   0  0  0  0  0  0  0  0  0  0  0  0
   56.0124   21.9231   42.9840 H   0  0  0  0  0  0  0  0  0  0  0  0
   56.2281   24.3413   42.4060 H   0  0  0  0  0  0  0  0  0  0  0  0
   57.6492   25.8412   43.8061 H   0  0  0  0  0  0  0  0  0  0  0  0
  1  2  2  0
  2  3  1  0
  3  4  1  0
  4  5  1  0
  5  6  2  0
  6  7  1  0
  7  8  2  0
  8  9  1  0
  8 10  1  0
 10 11  2  0
  2 12  1  0
 12 13  2  0
 13 14  1  0
 14 15  1  0
 15 16  1  0
 16 17  1  0
 17 18  2  0
 18 19  1  0
 19 20  2  0
 20 21  1  0
 21 22  2  0
 14 23  1  0
 23 24  2  0
 23 25  1  0
 25 26  1  0
 26 27  2  0
 11  5  1  0
 26 12  1  0
 22 17  1  0
  3 28  1  0
  4 29  1  0
  4 30  1  0
  6 31  1  0
  7 32  1  0
 10 33  1  0
 11 34  1  0
 13 35  1  0
 15 36  1  0
 15 37  1  0
 16 38  1  0
 16 39  1  0
 18 40  1  0
 19 41  1  0
 20 42  1  0
 21 43  1  0
 22 44  1  0
M  CHG  1  25  -1
M  END
>  <UniqueID>  (55) 
51

>  <SMILES>  (55) 
O=C(NCc1ccc(Cl)cc1)c1cn(CCc2ccccc2)c(=O)[n-]c1=O

>  <Energy>  (55) 
48.229851740364886

>  <Genealogy>  (55) 
O=C(NCc1ccc(Cl)cc1)c1cn(CCc2ccccc2)c(=O)[n-]c1=O (protonated)
O=C(NCc1ccc(Cl)cc1)c1cn(CCc2ccccc2)c(=O)[n-]c1=O (3D coordinates assigned)
O=C(NCc1ccc(Cl)cc1)c1cn(CCc2ccccc2)c(=O)[n-]c1=O (optimized conformer: 48.229851740364886 kcal/mol)

>  <smiles>  (55) 
O=C(NCc1ccc(Cl)cc1)c1cn(CCc2ccccc2)c(=O)[nH]c1=O

>  <score_type>  (55) 
oracle

>  <origin>  (55) 
adg

>  <m_score__min__energy>  (55) 
-9.7799999999999994

>  <m_primary>  (55) 
energy

$$$$
55:0
     RDKit          3D

 61 65  0  0  0  0  0  0  0  0999 V2000
   66.3160   33.0930   49.7780 N   0  0  0  0  0  0  0  0  0  0  0  0
   65.1720   33.0680   49.5990 C   0  0  0  0  0  0  0  0  0  0  0  0
   63.7510   33.0380   49.3750 C   0  0  0  0  0  0  0  0  0  0  0  0
   62.9040   33.8500   50.1370 C   0  0  0  0  0  0  0  0  0  0  0  0
   61.5240   33.8220   49.9220 C   0  0  0  0  0  0  0  0  0  0  0  0
   60.9680   32.9820   48.9380 C   0  0  0  0  0  0  0  0  0  0  0  0
   59.4550   32.9700   48.7270 C   0  0  1  0  0  0  0  0  0  0  0  0
   59.1320   33.0400   47.2540 C   0  0  0  0  0  0  0  0  0  0  0  0
   58.8560   31.9720   46.5350 C   0  0  0  0  0  0  0  0  0  0  0  0
   58.5980   32.2940   45.0910 C   0  0  0  0  0  0  0  0  0  0  0  0
   58.7810   33.8230   45.0040 C   0  0  0  0  0  0  0  0  0  0  0  0
   59.1280   34.2040   46.4000 C   0  0  0  0  0  0  0  0  0  0  0  0
   59.3880   35.3750   46.7830 O   0  0  0  0  0  0  0  0  0  0  0  0
   58.7940   30.6700   47.1370 N   0  0  0  0  0  0  0  0  0  0  0  0
   58.6740   29.4780   46.3430 C   0  0  0  0  0  0  0  0  0  0  0  0
   59.5070   29.2890   45.2330 C   0  0  0  0  0  0  0  0  0  0  0  0
   59.3670   28.1520   44.4370 C   0  0  0  0  0  0  0  0  0  0  0  0
   58.3870   27.2000   44.7360 C   0  0  0  0  0  0  0  0  0  0  0  0
   57.5370   27.3780   45.8420 C   0  0  0  0  0  0  0  0  0  0  0  0
   56.4900   26.3750   46.1470 C   0  0  0  0  0  0  0  0  0  0  0  0
   56.8020   25.2250   46.5510 O   0  0  0  0  0  0  0  0  0  0  0  0
   55.1470   26.6880   45.9840 O   0  0  0  0  0  0  0  0  0  0  0  0
   57.6870   28.5250   46.6420 C   0  0  0  0  0  0  0  0  0  0  0  0
   58.9260   30.5930   48.5710 C   0  0  0  0  0  0  0  0  0  0  0  0
   59.1470   29.4740   49.1180 O   0  0  0  0  0  0  0  0  0  0  0  0
   58.7660   31.8040   49.3680 N   0  0  1  0  0  0  0  0  0  0  0  0
   59.1580   31.6330   50.7930 C   0  0  0  0  0  0  0  0  0  0  0  0
   58.1590   30.8640   51.6390 C   0  0  0  0  0  0  0  0  0  0  0  0
   56.9600   30.8290   51.2410 O   0  0  0  0  0  0  0  0  0  0  0  0
   58.4710   30.3260   52.9390 N   0  0  0  0  0  0  0  0  0  0  0  0
   59.2450   29.0770   53.0410 C   0  0  0  0  0  0  0  0  0  0  0  0
   58.9060   28.2750   54.3000 C   0  0  0  0  0  0  0  0  0  0  0  0
   57.1050   28.0220   54.4440 S   0  0  0  0  0  0  0  0  0  0  0  0
   56.5790   29.7850   54.4370 C   0  0  0  0  0  0  0  0  0  0  0  0
   57.6850   30.7880   54.0910 C   0  0  0  0  0  0  0  0  0  0  0  0
   61.8320   32.1710   48.1730 C   0  0  0  0  0  0  0  0  0  0  0  0
   63.2120   32.1970   48.3930 C   0  0  0  0  0  0  0  0  0  0  0  0
   63.3258   34.5122   50.9074 H   0  0  0  0  0  0  0  0  0  0  0  0
   60.8653   34.4623   50.5272 H   0  0  0  0  0  0  0  0  0  0  0  0
   59.0638   33.8647   49.2335 H   0  0  0  0  0  0  0  0  0  0  0  0
   59.3199   31.7774   44.4414 H   0  0  0  0  0  0  0  0  0  0  0  0
   57.6004   31.9702   44.7595 H   0  0  0  0  0  0  0  0  0  0  0  0
   59.5937   34.0841   44.3103 H   0  0  0  0  0  0  0  0  0  0  0  0
   57.8894   34.3432   44.6239 H   0  0  0  0  0  0  0  0  0  0  0  0
   60.2735   30.0390   44.9883 H   0  0  0  0  0  0  0  0  0  0  0  0
   60.0294   28.0037   43.5715 H   0  0  0  0  0  0  0  0  0  0  0  0
   58.2806   26.3071   44.1025 H   0  0  0  0  0  0  0  0  0  0  0  0
   57.0263   28.6766   47.5083 H   0  0  0  0  0  0  0  0  0  0  0  0
   57.7500   32.0490   49.3470 H   0  0  0  0  0  0  0  0  0  0  0  0
   60.1171   31.0952   50.8221 H   0  0  0  0  0  0  0  0  0  0  0  0
   59.2149   32.6441   51.2225 H   0  0  0  0  0  0  0  0  0  0  0  0
   59.0293   28.4560   52.1591 H   0  0  0  0  0  0  0  0  0  0  0  0
   60.3096   29.3485   53.0958 H   0  0  0  0  0  0  0  0  0  0  0  0
   59.4044   27.2958   54.2485 H   0  0  0  0  0  0  0  0  0  0  0  0
   59.2538   28.8369   55.1794 H   0  0  0  0  0  0  0  0  0  0  0  0
   55.7722   29.8978   53.6978 H   0  0  0  0  0  0  0  0  0  0  0  0
   56.2637   30.0165   55.4651 H   0  0  0  0  0  0  0  0  0  0  0  0
   57.2278   31.7587   53.8489 H   0  0  0  0  0  0  0  0  0  0  0  0
   58.3555   30.8842   54.9577 H   0  0  0  0  0  0  0  0  0  0  0  0
   61.4161   31.5123   47.3964 H   0  0  0  0  0  0  0  0  0  0  0  0
   63.8758   31.5561   47.7941 H   0  0  0  0  0  0  0  0  0  0  0  0
  1  2  3  0
  2  3  1  0
  3  4  2  0
  4  5  1  0
  5  6  2  0
  6  7  1  0
  7  8  1  0
  8  9  2  0
  9 10  1  0
 10 11  1  0
 11 12  1  0
 12 13  2  0
  9 14  1  0
 14 15  1  0
 15 16  2  0
 16 17  1  0
 17 18  2  0
 18 19  1  0
 19 20  1  0
 20 21  2  0
 20 22  1  0
 19 23  2  0
 14 24  1  0
 24 25  2  0
 24 26  1  0
 26 27  1  0
 27 28  1  0
 28 29  2  0
 28 30  1  0
 30 31  1  0
 31 32  1  0
 32 33  1  0
 33 34  1  0
 34 35  1  0
  6 36  1  0
 36 37  2  0
 37  3  1  0
 26  7  1  0
 35 30  1  0
 12  8  1  0
 23 15  1  0
  4 38  1  0
  5 39  1  0
  7 40  1  1
 10 41  1  0
 10 42  1  0
 11 43  1  0
 11 44  1  0
 16 45  1  0
 17 46  1  0
 18 47  1  0
 23 48  1  0
 26 49  1  1
 27 50  1  0
 27 51  1  0
 31 52  1  0
 31 53  1  0
 32 54  1  0
 32 55  1  0
 34 56  1  0
 34 57  1  0
 35 58  1  0
 35 59  1  0
 36 60  1  0
 37 61  1  0
M  CHG  2  22  -1  26   1
M  END
>  <UniqueID>  (56) 
52

>  <SMILES>  (56) 
N#Cc1ccc([C@H]2C3=C(CCC3=O)N(c3cccc(C(=O)[O-])c3)C(=O)[N@H+]2CC(=O)N2CCSCC2)cc1

>  <Energy>  (56) 
101.20937104415752

>  <Genealogy>  (56) 
N#Cc1ccc(C2C3=C(CCC3=O)N(c3cccc(C(=O)[O-])c3)C(=O)[NH+]2CC(=O)N2CCSCC2)cc1 (protonated)
N#Cc1ccc([C@H]2C3=C(CCC3=O)N(c3cccc(C(=O)[O-])c3)C(=O)[N@H+]2CC(=O)N2CCSCC2)cc1 (chirality)
N#Cc1ccc([C@H]2C3=C(CCC3=O)N(c3cccc(C(=O)[O-])c3)C(=O)[N@H+]2CC(=O)N2CCSCC2)cc1 (3D coordinates assigned)
N#Cc1ccc([C@H]2C3=C(CCC3=O)N(c3cccc(C(=O)[O-])c3)C(=O)[N@H+]2CC(=O)N2CCSCC2)cc1 (nonaromatic ring conformer: 101.20937104415752 kcal/mol)

>  <smiles>  (56) 
N#Cc1ccc(C2C3=C(CCC3=O)N(c3cccc(C(=O)O)c3)C(=O)N2CC(=O)N2CCSCC2)cc1

>  <score_type>  (56) 
oracle

>  <origin>  (56) 
adg

>  <m_score__min__energy>  (56) 
-11.66

>  <m_primary>  (56) 
energy

$$$$
56:0
     RDKit          3D

 41 43  0  0  0  0  0  0  0  0999 V2000
   55.4910   29.0940   44.9420 N   0  0  0  0  0  0  0  0  0  0  0  0
   56.2760   30.0080   44.1810 C   0  0  0  0  0  0  0  0  0  0  0  0
   56.1020   30.0930   42.9360 O   0  0  0  0  0  0  0  0  0  0  0  0
   57.2820   30.8470   44.8440 C   0  0  0  0  0  0  0  0  0  0  0  0
   58.1490   30.2960   45.7330 N   0  0  0  0  0  0  0  0  0  0  0  0
   59.0920   31.0400   46.3680 C   0  0  0  0  0  0  0  0  0  0  0  0
   60.1900   30.2120   47.5250 S   0  0  0  0  0  0  0  0  0  0  0  0
   58.8740   29.1460   48.1940 C   0  0  0  0  0  0  0  0  0  0  0  0
   58.8280   27.8720   47.4140 C   0  0  0  0  0  0  0  0  0  0  0  0
   59.6680   26.9650   47.6610 O   0  0  0  0  0  0  0  0  0  0  0  0
   57.8380   27.6960   46.3880 N   0  0  0  0  0  0  0  0  0  0  0  0
   57.5570   26.4420   45.7450 C   0  0  0  0  0  0  0  0  0  0  0  0
   57.7700   26.3150   44.3640 C   0  0  0  0  0  0  0  0  0  0  0  0
   57.4790   25.1150   43.7110 C   0  0  0  0  0  0  0  0  0  0  0  0
   56.9610   24.0340   44.4290 C   0  0  0  0  0  0  0  0  0  0  0  0
   56.7270   24.1500   45.8050 C   0  0  0  0  0  0  0  0  0  0  0  0
   56.0350   22.8010   46.7010 S   0  0  0  0  0  0  0  0  0  0  0  0
   57.2440   22.1010   47.7150 N   0  0  0  0  0  0  0  0  0  0  0  0
   55.5220   21.7640   45.7430 O   0  0  0  0  0  0  0  0  0  0  0  0
   54.8890   23.2850   47.5450 O   0  0  0  0  0  0  0  0  0  0  0  0
   57.0110   25.3580   46.4580 C   0  0  0  0  0  0  0  0  0  0  0  0
   59.1800   32.4210   46.1010 C   0  0  0  0  0  0  0  0  0  0  0  0
   60.1280   33.2610   46.7180 C   0  0  0  0  0  0  0  0  0  0  0  0
   60.1610   34.6250   46.4110 C   0  0  0  0  0  0  0  0  0  0  0  0
   59.2560   35.1630   45.4930 C   0  0  0  0  0  0  0  0  0  0  0  0
   58.3100   34.3390   44.8760 C   0  0  0  0  0  0  0  0  0  0  0  0
   58.2670   32.9730   45.1750 C   0  0  0  0  0  0  0  0  0  0  0  0
   57.3470   32.1770   44.5730 N   0  0  0  0  0  0  0  0  0  0  0  0
   54.5310   29.3490   45.2640 H   0  0  0  0  0  0  0  0  0  0  0  0
   59.0831   28.9229   49.2506 H   0  0  0  0  0  0  0  0  0  0  0  0
   57.9056   29.6619   48.1157 H   0  0  0  0  0  0  0  0  0  0  0  0
   57.3450   28.5490   46.0380 H   0  0  0  0  0  0  0  0  0  0  0  0
   58.1687   27.1658   43.7920 H   0  0  0  0  0  0  0  0  0  0  0  0
   57.6579   25.0208   42.6297 H   0  0  0  0  0  0  0  0  0  0  0  0
   56.7364   23.0893   43.9121 H   0  0  0  0  0  0  0  0  0  0  0  0
   57.7890   21.4330   47.1230 H   0  0  0  0  0  0  0  0  0  0  0  0
   56.8059   25.4592   47.5340 H   0  0  0  0  0  0  0  0  0  0  0  0
   60.8431   32.8435   47.4421 H   0  0  0  0  0  0  0  0  0  0  0  0
   60.9031   35.2772   46.8947 H   0  0  0  0  0  0  0  0  0  0  0  0
   59.2877   36.2365   45.2552 H   0  0  0  0  0  0  0  0  0  0  0  0
   57.5981   34.7656   44.1540 H   0  0  0  0  0  0  0  0  0  0  0  0
  1  2  1  0
  2  3  2  0
  2  4  1  0
  4  5  2  0
  5  6  1  0
  6  7  1  0
  7  8  1  0
  8  9  1  0
  9 10  2  0
  9 11  1  0
 11 12  1  0
 12 13  2  0
 13 14  1  0
 14 15  2  0
 15 16  1  0
 16 17  1  0
 17 18  1  0
 17 19  2  0
 17 20  2  0
 16 21  2  0
  6 22  2  0
 22 23  1  0
 23 24  2  0
 24 25  1  0
 25 26  2  0
 26 27  1  0
 27 28  2  0
 28  4  1  0
 21 12  1  0
 27 22  1  0
  1 29  1  0
  8 30  1  0
  8 31  1  0
 11 32  1  0
 13 33  1  0
 14 34  1  0
 15 35  1  0
 18 36  1  0
 21 37  1  0
 23 38  1  0
 24 39  1  0
 25 40  1  0
 26 41  1  0
M  CHG  2   1  -1  18  -1
M  END
>  <UniqueID>  (57) 
53

>  <SMILES>  (57) 
[NH-]C(=O)c1nc(SCC(=O)Nc2cccc(S([NH-])(=O)=O)c2)c2ccccc2n1

>  <Energy>  (57) 
44.19848285600838

>  <Genealogy>  (57) 
[NH-]C(=O)c1nc(SCC(=O)Nc2cccc(S([NH-])(=O)=O)c2)c2ccccc2n1 (protonated)
[NH-]C(=O)c1nc(SCC(=O)Nc2cccc(S([NH-])(=O)=O)c2)c2ccccc2n1 (3D coordinates assigned)
[NH-]C(=O)c1nc(SCC(=O)Nc2cccc(S([NH-])(=O)=O)c2)c2ccccc2n1 (optimized conformer: 44.19848285600838 kcal/mol)

>  <smiles>  (57) 
NC(=O)c1nc(SCC(=O)Nc2cccc(S(N)(=O)=O)c2)c2ccccc2n1

>  <score_type>  (57) 
oracle

>  <origin>  (57) 
adg

>  <m_score__min__energy>  (57) 
-15.369999999999999

>  <m_primary>  (57) 
energy

$$$$
57:0
     RDKit          3D

 49 51  0  0  0  0  0  0  0  0999 V2000
   56.4410   23.0680   43.2840 C   0  0  0  0  0  0  0  0  0  0  0  0
   55.7880   23.9220   44.3420 C   0  0  0  0  0  0  0  0  0  0  0  0
   54.3300   23.7100   44.6720 C   0  0  0  0  0  0  0  0  0  0  0  0
   56.5350   24.8610   44.9620 C   0  0  0  0  0  0  0  0  0  0  0  0
   55.9860   25.9180   45.8920 C   0  0  0  0  0  0  0  0  0  0  0  0
   56.9740   27.0460   46.1080 C   0  0  0  0  0  0  0  0  0  0  0  0
   58.1870   26.7960   46.7770 C   0  0  0  0  0  0  0  0  0  0  0  0
   58.4920   25.5190   47.2380 O   0  0  0  0  0  0  0  0  0  0  0  0
   59.1040   27.8250   46.9870 C   0  0  0  0  0  0  0  0  0  0  0  0
   58.8390   29.1150   46.5300 C   0  0  0  0  0  0  0  0  0  0  0  0
   59.7320   30.0710   46.7510 O   0  0  0  0  0  0  0  0  0  0  0  0
   59.5680   31.3290   46.3550 C   0  0  0  0  0  0  0  0  0  0  0  0
   60.5620   32.2910   46.6400 C   0  0  0  0  0  0  0  0  0  0  0  0
   61.8130   31.8890   47.3930 C   0  0  0  0  0  0  0  0  0  0  0  0
   61.5940   31.8840   48.8880 C   0  0  0  0  0  0  0  0  0  0  0  0
   60.4660   32.3060   49.4990 C   0  0  0  0  0  0  0  0  0  0  0  0
   59.3790   31.3470   49.9220 C   0  0  0  0  0  0  0  0  0  0  0  0
   60.2970   33.7810   49.7550 C   0  0  0  0  0  0  0  0  0  0  0  0
   60.3860   33.6160   46.1900 C   0  0  0  0  0  0  0  0  0  0  0  0
   61.3530   34.5860   46.4290 O   0  0  0  0  0  0  0  0  0  0  0  0
   59.2290   33.9750   45.4940 C   0  0  0  0  0  0  0  0  0  0  0  0
   58.2400   33.0300   45.2280 C   0  0  0  0  0  0  0  0  0  0  0  0
   58.3990   31.7000   45.6520 C   0  0  0  0  0  0  0  0  0  0  0  0
   57.4250   30.7170   45.3930 C   0  0  0  0  0  0  0  0  0  0  0  0
   56.3730   31.0260   44.7700 O   0  0  0  0  0  0  0  0  0  0  0  0
   57.6370   29.3940   45.8380 C   0  0  0  0  0  0  0  0  0  0  0  0
   56.7080   28.3460   45.6220 C   0  0  0  0  0  0  0  0  0  0  0  0
   55.5230   28.5900   44.9310 O   0  0  0  0  0  0  0  0  0  0  0  0
   57.0416   22.2825   43.7660 H   0  0  0  0  0  0  0  0  0  0  0  0
   55.6653   22.6038   42.6572 H   0  0  0  0  0  0  0  0  0  0  0  0
   57.0923   23.6949   42.6572 H   0  0  0  0  0  0  0  0  0  0  0  0
   54.2002   23.6911   45.7642 H   0  0  0  0  0  0  0  0  0  0  0  0
   53.7345   24.5310   44.2461 H   0  0  0  0  0  0  0  0  0  0  0  0
   53.9930   22.7534   44.2461 H   0  0  0  0  0  0  0  0  0  0  0  0
   57.6193   24.8560   44.7770 H   0  0  0  0  0  0  0  0  0  0  0  0
   55.0639   26.3308   45.4569 H   0  0  0  0  0  0  0  0  0  0  0  0
   55.7873   25.4466   46.8658 H   0  0  0  0  0  0  0  0  0  0  0  0
   60.0447   27.6171   47.5179 H   0  0  0  0  0  0  0  0  0  0  0  0
   62.1111   30.8794   47.0739 H   0  0  0  0  0  0  0  0  0  0  0  0
   62.5985   32.6248   47.1661 H   0  0  0  0  0  0  0  0  0  0  0  0
   62.4106   31.5104   49.5233 H   0  0  0  0  0  0  0  0  0  0  0  0
   59.3329   31.3063   51.0203 H   0  0  0  0  0  0  0  0  0  0  0  0
   58.4119   31.6915   49.5269 H   0  0  0  0  0  0  0  0  0  0  0  0
   59.6003   30.3445   49.5269 H   0  0  0  0  0  0  0  0  0  0  0  0
   60.2759   33.9649   50.8393 H   0  0  0  0  0  0  0  0  0  0  0  0
   61.1381   34.3298   49.3063 H   0  0  0  0  0  0  0  0  0  0  0  0
   59.3535   34.1253   49.3063 H   0  0  0  0  0  0  0  0  0  0  0  0
   59.0976   35.0125   45.1531 H   0  0  0  0  0  0  0  0  0  0  0  0
   57.3312   33.3265   44.6839 H   0  0  0  0  0  0  0  0  0  0  0  0
  1  2  1  0
  2  3  1  0
  2  4  2  3
  4  5  1  0
  5  6  1  0
  6  7  2  0
  7  8  1  0
  7  9  1  0
  9 10  2  0
 10 11  1  0
 11 12  1  0
 12 13  2  0
 13 14  1  0
 14 15  1  0
 15 16  2  3
 16 17  1  0
 16 18  1  0
 13 19  1  0
 19 20  1  0
 19 21  2  0
 21 22  1  0
 22 23  2  0
 23 24  1  0
 24 25  2  0
 24 26  1  0
 26 27  2  0
 27 28  1  0
 27  6  1  0
 26 10  1  0
 23 12  1  0
  1 29  1  0
  1 30  1  0
  1 31  1  0
  3 32  1  0
  3 33  1  0
  3 34  1  0
  4 35  1  0
  5 36  1  0
  5 37  1  0
  9 38  1  0
 14 39  1  0
 14 40  1  0
 15 41  1  0
 17 42  1  0
 17 43  1  0
 17 44  1  0
 18 45  1  0
 18 46  1  0
 18 47  1  0
 21 48  1  0
 22 49  1  0
M  CHG  3   8  -1  20  -1  28  -1
M  END
>  <UniqueID>  (58) 
54

>  <SMILES>  (58) 
CC(C)=CCc1c([O-])cc2oc3c(CC=C(C)C)c([O-])ccc3c(=O)c2c1[O-]

>  <Energy>  (58) 
54.72910552594297

>  <Genealogy>  (58) 
CC(C)=CCc1c([O-])cc2oc3c(CC=C(C)C)c([O-])ccc3c(=O)c2c1[O-] (protonated)
CC(C)=CCc1c([O-])cc2oc3c(CC=C(C)C)c([O-])ccc3c(=O)c2c1[O-] (3D coordinates assigned)
CC(C)=CCc1c([O-])cc2oc3c(CC=C(C)C)c([O-])ccc3c(=O)c2c1[O-] (optimized conformer: 54.72910552594297 kcal/mol)

>  <smiles>  (58) 
CC(C)=CCc1c(O)cc2oc3c(CC=C(C)C)c(O)ccc3c(=O)c2c1O

>  <score_type>  (58) 
oracle

>  <origin>  (58) 
adg

>  <m_score__min__energy>  (58) 
-12.82

>  <m_primary>  (58) 
energy

$$$$
58:0
     RDKit          3D

 54 57  0  0  0  0  0  0  0  0999 V2000
   54.3920   29.3350   44.9780 H   0  0  0  0  0  0  0  0  0  0  0  0
   55.1740   29.8890   44.5630 N   0  0  0  0  0  0  0  0  0  0  0  0
   56.5090   29.7430   45.0410 C   0  0  0  0  0  0  0  0  0  0  0  0
   57.2540   30.7580   45.1170 O   0  0  0  0  0  0  0  0  0  0  0  0
   57.0070   28.4130   45.4390 C   0  0  0  0  0  0  0  0  0  0  0  0
   56.1210   27.3940   45.5950 N   0  0  0  0  0  0  0  0  0  0  0  0
   56.5070   26.1440   45.9600 C   0  0  0  0  0  0  0  0  0  0  0  0
   55.5450   25.1420   46.1040 C   0  0  0  0  0  0  0  0  0  0  0  0
   54.4853   25.3720   45.9190 H   0  0  0  0  0  0  0  0  0  0  0  0
   55.9210   23.8400   46.4840 C   0  0  0  0  0  0  0  0  0  0  0  0
   54.9800   22.8090   46.6380 O   0  0  0  0  0  0  0  0  0  0  0  0
   54.5160   22.3200   47.8930 C   0  0  0  0  0  0  0  0  0  0  0  0
   55.0254   22.8569   48.7068 H   0  0  0  0  0  0  0  0  0  0  0  0
   53.4306   22.4810   47.9706 H   0  0  0  0  0  0  0  0  0  0  0  0
   54.7337   21.2445   47.9706 H   0  0  0  0  0  0  0  0  0  0  0  0
   57.2720   23.5470   46.7180 C   0  0  0  0  0  0  0  0  0  0  0  0
   57.6120   22.2380   47.0970 O   0  0  0  0  0  0  0  0  0  0  0  0
   57.4740   21.0920   46.2610 C   0  0  0  0  0  0  0  0  0  0  0  0
   57.3658   20.1932   46.8859 H   0  0  0  0  0  0  0  0  0  0  0  0
   56.5832   21.2065   45.6260 H   0  0  0  0  0  0  0  0  0  0  0  0
   58.3666   20.9918   45.6260 H   0  0  0  0  0  0  0  0  0  0  0  0
   58.2420   24.5570   46.5720 C   0  0  0  0  0  0  0  0  0  0  0  0
   59.3013   24.3243   46.7558 H   0  0  0  0  0  0  0  0  0  0  0  0
   57.8710   25.8630   46.1930 C   0  0  0  0  0  0  0  0  0  0  0  0
   58.8210   26.8980   46.0390 C   0  0  0  0  0  0  0  0  0  0  0  0
   60.0850   26.6500   46.2510 N   0  0  0  0  0  0  0  0  0  0  0  0
   60.7640   26.6030   47.5430 C   0  0  0  0  0  0  0  0  0  0  0  0
   60.3839   25.7527   48.1283 H   0  0  0  0  0  0  0  0  0  0  0  0
   61.8463   26.4813   47.3889 H   0  0  0  0  0  0  0  0  0  0  0  0
   60.4990   27.8810   48.2830 C   0  0  0  0  0  0  0  0  0  0  0  0
   60.2300   27.8620   49.6590 C   0  0  0  0  0  0  0  0  0  0  0  0
   60.2491   26.9089   50.2079 H   0  0  0  0  0  0  0  0  0  0  0  0
   59.9380   29.0480   50.3350 C   0  0  0  0  0  0  0  0  0  0  0  0
   59.7332   29.0269   51.4156 H   0  0  0  0  0  0  0  0  0  0  0  0
   59.9050   30.2610   49.6440 C   0  0  0  0  0  0  0  0  0  0  0  0
   59.6741   31.1909   50.1844 H   0  0  0  0  0  0  0  0  0  0  0  0
   60.1650   30.3030   48.2610 C   0  0  0  0  0  0  0  0  0  0  0  0
   60.1110   31.5790   47.5020 C   0  0  0  0  0  0  0  0  0  0  0  0
   58.9030   32.0560   47.0850 N   0  0  0  0  0  0  0  0  0  0  0  0
   58.7780   33.2170   46.3850 C   0  0  0  0  0  0  0  0  0  0  0  0
   57.4250   33.6820   45.9500 C   0  0  0  0  0  0  0  0  0  0  0  0
   56.8079   33.8941   46.8356 H   0  0  0  0  0  0  0  0  0  0  0  0
   57.5278   34.5964   45.3472 H   0  0  0  0  0  0  0  0  0  0  0  0
   56.9440   32.8976   45.3472 H   0  0  0  0  0  0  0  0  0  0  0  0
   59.9200   33.9570   46.0610 C   0  0  0  0  0  0  0  0  0  0  0  0
   59.8319   34.8957   45.4944 H   0  0  0  0  0  0  0  0  0  0  0  0
   61.1710   33.4920   46.4640 C   0  0  0  0  0  0  0  0  0  0  0  0
   62.0764   34.0645   46.2142 H   0  0  0  0  0  0  0  0  0  0  0  0
   61.2760   32.3010   47.1840 C   0  0  0  0  0  0  0  0  0  0  0  0
   62.2619   31.9297   47.5004 H   0  0  0  0  0  0  0  0  0  0  0  0
   60.4490   29.1000   47.5870 C   0  0  0  0  0  0  0  0  0  0  0  0
   60.6339   29.1149   46.5028 H   0  0  0  0  0  0  0  0  0  0  0  0
   58.3730   28.1810   45.6590 C   0  0  0  0  0  0  0  0  0  0  0  0
   59.0961   29.0006   45.5351 H   0  0  0  0  0  0  0  0  0  0  0  0
  1  2  1  0
  2  3  1  0
  3  4  2  0
  3  5  1  0
  5  6  1  0
  6  7  1  0
  7  8  2  0
  8  9  1  0
  8 10  1  0
 10 11  1  0
 11 12  1  0
 12 13  1  0
 12 14  1  0
 12 15  1  0
 10 16  2  0
 16 17  1  0
 17 18  1  0
 18 19  1  0
 18 20  1  0
 18 21  1  0
 16 22  1  0
 22 23  1  0
 22 24  2  0
 24 25  1  0
 25 26  2  0
 26 27  1  0
 27 28  1  0
 27 29  1  0
 27 30  1  0
 30 31  2  0
 31 32  1  0
 31 33  1  0
 33 34  1  0
 33 35  2  0
 35 36  1  0
 35 37  1  0
 37 38  1  0
 38 39  2  0
 39 40  1  0
 40 41  1  0
 41 42  1  0
 41 43  1  0
 41 44  1  0
 40 45  2  0
 45 46  1  0
 45 47  1  0
 47 48  1  0
 47 49  2  0
 49 50  1  0
 37 51  2  0
 51 52  1  0
 25 53  1  0
 53 54  1  0
 53  5  2  0
 24  7  1  0
 51 30  1  0
 49 38  1  0
M  CHG  2   2  -1   6  -1
M  END
>  <UniqueID>  (59) 
55

>  <SMILES>  (59) 
COc1cc2[n-]c(C([NH-])=O)c/c(=N\Cc3cccc(-c4cccc(C)n4)c3)c2cc1OC

>  <Energy>  (59) 
65.18336518923618

>  <Genealogy>  (59) 
COc1cc2[n-]c(C([NH-])=O)cc(=NCc3cccc(-c4cccc(C)n4)c3)c2cc1OC (protonated)
COc1cc2[n-]c(C([NH-])=O)c/c(=N\Cc3cccc(-c4cccc(C)n4)c3)c2cc1OC (cis-trans isomerization)
COc1cc2[n-]c(C([NH-])=O)c/c(=N\Cc3cccc(-c4cccc(C)n4)c3)c2cc1OC (3D coordinates assigned)
COc1cc2[n-]c(C([NH-])=O)c/c(=N\Cc3cccc(-c4cccc(C)n4)c3)c2cc1OC (optimized conformer: 65.18336518923618 kcal/mol)

>  <smiles>  (59) 
COc1cc2[nH]c(C(N)=O)cc(=NCc3cccc(-c4cccc(C)n4)c3)c2cc1OC

>  <score_type>  (59) 
oracle

>  <origin>  (59) 
adg

>  <m_score__min__energy>  (59) 
-13.390000000000001

>  <m_primary>  (59) 
energy

$$$$
59:0
     RDKit          3D

 29 31  0  0  0  0  0  0  0  0999 V2000
   55.1490   26.4600   46.0030 N   0  0  0  0  0  0  0  0  0  0  0  0
   56.4990   26.7470   45.6450 C   0  0  0  0  0  0  0  0  0  0  0  0
   57.2780   25.7930   45.3740 O   0  0  0  0  0  0  0  0  0  0  0  0
   56.9840   28.1460   45.5940 C   0  0  0  0  0  0  0  0  0  0  0  0
   58.0850   28.5520   46.3680 C   0  0  0  0  0  0  0  0  0  0  0  0
   58.5400   29.8730   46.3180 C   0  0  0  0  0  0  0  0  0  0  0  0
   57.8980   30.8150   45.5000 C   0  0  0  0  0  0  0  0  0  0  0  0
   58.3940   32.2080   45.4390 C   0  0  0  0  0  0  0  0  0  0  0  0
   58.4830   32.8710   44.1950 C   0  0  0  0  0  0  0  0  0  0  0  0
   58.9150   34.1660   44.1220 N   0  0  0  0  0  0  0  0  0  0  0  0
   59.2800   34.8670   45.2300 C   0  0  0  0  0  0  0  0  0  0  0  0
   59.2150   34.2370   46.4660 C   0  0  0  0  0  0  0  0  0  0  0  0
   59.6380   34.8520   47.9690 S   0  0  0  0  0  0  0  0  0  0  0  0
   59.2830   33.4260   48.8070 C   0  0  0  0  0  0  0  0  0  0  0  0
   59.4410   33.2380   50.2540 C   0  0  0  0  0  0  0  0  0  0  0  0
   58.5970   32.5650   50.9010 O   0  0  0  0  0  0  0  0  0  0  0  0
   60.5250   33.7990   50.9190 O   0  0  0  0  0  0  0  0  0  0  0  0
   58.8310   32.4560   47.9110 C   0  0  0  0  0  0  0  0  0  0  0  0
   58.7850   32.9250   46.5870 C   0  0  0  0  0  0  0  0  0  0  0  0
   56.8070   30.4110   44.7160 C   0  0  0  0  0  0  0  0  0  0  0  0
   56.3510   29.0900   44.7650 C   0  0  0  0  0  0  0  0  0  0  0  0
   54.6190   27.0850   46.6510 H   0  0  0  0  0  0  0  0  0  0  0  0
   58.5927   27.8244   47.0183 H   0  0  0  0  0  0  0  0  0  0  0  0
   59.4068   30.1758   46.9238 H   0  0  0  0  0  0  0  0  0  0  0  0
   58.2014   32.3392   43.2742 H   0  0  0  0  0  0  0  0  0  0  0  0
   59.6192   35.9102   45.1483 H   0  0  0  0  0  0  0  0  0  0  0  0
   58.5426   31.4370   48.2083 H   0  0  0  0  0  0  0  0  0  0  0  0
   56.3072   31.1378   44.0587 H   0  0  0  0  0  0  0  0  0  0  0  0
   55.4906   28.7866   44.1505 H   0  0  0  0  0  0  0  0  0  0  0  0
  1  2  1  0
  2  3  2  0
  2  4  1  0
  4  5  2  0
  5  6  1  0
  6  7  2  0
  7  8  1  0
  8  9  2  0
  9 10  1  0
 10 11  2  0
 11 12  1  0
 12 13  1  0
 13 14  1  0
 14 15  1  0
 15 16  2  0
 15 17  1  0
 14 18  2  0
 18 19  1  0
  7 20  1  0
 20 21  2  0
 21  4  1  0
 19  8  1  0
 19 12  2  0
  1 22  1  0
  5 23  1  0
  6 24  1  0
  9 25  1  0
 11 26  1  0
 18 27  1  0
 20 28  1  0
 21 29  1  0
M  CHG  2   1  -1  17  -1
M  END
>  <UniqueID>  (60) 
56

>  <SMILES>  (60) 
[NH-]C(=O)c1ccc(-c2cncc3sc(C(=O)[O-])cc23)cc1

>  <Energy>  (60) 
70.35347211043732

>  <Genealogy>  (60) 
[NH-]C(=O)c1ccc(-c2cncc3sc(C(=O)[O-])cc23)cc1 (protonated)
[NH-]C(=O)c1ccc(-c2cncc3sc(C(=O)[O-])cc23)cc1 (3D coordinates assigned)
[NH-]C(=O)c1ccc(-c2cncc3sc(C(=O)[O-])cc23)cc1 (optimized conformer: 70.35347211043732 kcal/mol)

>  <smiles>  (60) 
NC(=O)c1ccc(-c2cncc3sc(C(=O)O)cc23)cc1

>  <score_type>  (60) 
oracle

>  <origin>  (60) 
adg

>  <m_score__min__energy>  (60) 
-11.02

>  <m_primary>  (60) 
energy

$$$$
60:0
     RDKit          3D

 53 56  0  0  0  0  0  0  0  0999 V2000
   59.6570   36.2330   46.2970 O   0  0  0  0  0  0  0  0  0  0  0  0
   59.4850   35.1260   46.8790 C   0  0  0  0  0  0  0  0  0  0  0  0
   59.8740   34.9670   48.2150 O   0  0  0  0  0  0  0  0  0  0  0  0
   61.1910   34.5920   48.6120 C   0  0  0  0  0  0  0  0  0  0  0  0
   61.6870   33.4110   47.8220 C   0  0  0  0  0  0  0  0  0  0  0  0
   62.4680   33.6150   46.8550 O   0  0  0  0  0  0  0  0  0  0  0  0
   61.2570   32.0680   48.1030 N   0  0  0  0  0  0  0  0  0  0  0  0
   61.5990   30.9340   47.2430 C   0  0  0  0  0  0  0  0  0  0  0  0
   60.6430   29.7850   47.6390 C   0  0  0  0  0  0  0  0  0  0  0  0
   59.8680   30.3590   48.7720 C   0  0  0  0  0  0  0  0  0  0  0  0
   58.8960   29.7280   49.5500 C   0  0  0  0  0  0  0  0  0  0  0  0
   58.3080   30.4490   50.6010 C   0  0  0  0  0  0  0  0  0  0  0  0
   58.7170   31.7680   50.8700 C   0  0  0  0  0  0  0  0  0  0  0  0
   59.7060   32.3770   50.0800 C   0  0  0  0  0  0  0  0  0  0  0  0
   60.2460   31.6520   49.0120 C   0  0  0  0  0  0  0  0  0  0  0  0
   58.9010   33.9820   46.1480 C   0  0  0  0  0  0  0  0  0  0  0  0
   58.3650   32.8840   46.8420 C   0  0  0  0  0  0  0  0  0  0  0  0
   57.7950   31.8150   46.1450 C   0  0  0  0  0  0  0  0  0  0  0  0
   57.7480   31.8280   44.7440 C   0  0  0  0  0  0  0  0  0  0  0  0
   57.0230   30.4790   43.8660 S   0  0  0  0  0  0  0  0  0  0  0  0
   55.7080   30.1260   44.5050 O   0  0  0  0  0  0  0  0  0  0  0  0
   56.7520   30.9000   42.4480 O   0  0  0  0  0  0  0  0  0  0  0  0
   58.0630   29.0710   43.8610 N   0  0  0  0  0  0  0  0  0  0  0  0
   59.3710   29.3990   44.4690 C   0  0  0  0  0  0  0  0  0  0  0  0
   60.0830   28.1230   44.9500 C   0  0  0  0  0  0  0  0  0  0  0  0
   59.3570   27.3890   45.9290 O   0  0  0  0  0  0  0  0  0  0  0  0
   57.9590   27.6350   45.9130 C   0  0  0  0  0  0  0  0  0  0  0  0
   57.4070   27.9050   44.5020 C   0  0  0  0  0  0  0  0  0  0  0  0
   58.2860   32.9180   44.0480 C   0  0  0  0  0  0  0  0  0  0  0  0
   58.8540   33.9880   44.7430 C   0  0  0  0  0  0  0  0  0  0  0  0
   61.8697   35.4422   48.4490 H   0  0  0  0  0  0  0  0  0  0  0  0
   61.1655   34.3113   49.6753 H   0  0  0  0  0  0  0  0  0  0  0  0
   61.4559   31.2012   46.1856 H   0  0  0  0  0  0  0  0  0  0  0  0
   62.6514   30.6398   47.3691 H   0  0  0  0  0  0  0  0  0  0  0  0
   59.9797   29.5186   46.8029 H   0  0  0  0  0  0  0  0  0  0  0  0
   61.1717   28.8579   47.9053 H   0  0  0  0  0  0  0  0  0  0  0  0
   58.5976   28.6894   49.3442 H   0  0  0  0  0  0  0  0  0  0  0  0
   57.5251   29.9814   51.2162 H   0  0  0  0  0  0  0  0  0  0  0  0
   58.2606   32.3244   51.7020 H   0  0  0  0  0  0  0  0  0  0  0  0
   60.0480   33.4000   50.2959 H   0  0  0  0  0  0  0  0  0  0  0  0
   58.3942   32.8657   47.9415 H   0  0  0  0  0  0  0  0  0  0  0  0
   57.3812   30.9592   46.6985 H   0  0  0  0  0  0  0  0  0  0  0  0
   58.2300   28.8330   42.8550 H   0  0  0  0  0  0  0  0  0  0  0  0
   60.0004   29.9035   43.7211 H   0  0  0  0  0  0  0  0  0  0  0  0
   59.2034   30.0576   45.3340 H   0  0  0  0  0  0  0  0  0  0  0  0
   60.2479   27.4701   44.0802 H   0  0  0  0  0  0  0  0  0  0  0  0
   61.0227   28.4425   45.4241 H   0  0  0  0  0  0  0  0  0  0  0  0
   57.4445   26.7554   46.3273 H   0  0  0  0  0  0  0  0  0  0  0  0
   57.7794   28.5394   46.5128 H   0  0  0  0  0  0  0  0  0  0  0  0
   57.5768   27.0150   43.8782 H   0  0  0  0  0  0  0  0  0  0  0  0
   56.3338   28.1280   44.5945 H   0  0  0  0  0  0  0  0  0  0  0  0
   58.2610   32.9313   42.9484 H   0  0  0  0  0  0  0  0  0  0  0  0
   59.2678   34.8420   44.1867 H   0  0  0  0  0  0  0  0  0  0  0  0
  1  2  2  0
  2  3  1  0
  3  4  1  0
  4  5  1  0
  5  6  2  0
  5  7  1  0
  7  8  1  0
  8  9  1  0
  9 10  1  0
 10 11  2  0
 11 12  1  0
 12 13  2  0
 13 14  1  0
 14 15  2  0
  2 16  1  0
 16 17  2  0
 17 18  1  0
 18 19  2  0
 19 20  1  0
 20 21  2  0
 20 22  2  0
 20 23  1  0
 23 24  1  0
 24 25  1  0
 25 26  1  0
 26 27  1  0
 27 28  1  0
 19 29  1  0
 29 30  2  0
 15  7  1  0
 30 16  1  0
 15 10  1  0
 28 23  1  0
  4 31  1  0
  4 32  1  0
  8 33  1  0
  8 34  1  0
  9 35  1  0
  9 36  1  0
 11 37  1  0
 12 38  1  0
 13 39  1  0
 14 40  1  0
 17 41  1  0
 18 42  1  0
 23 43  1  0
 24 44  1  0
 24 45  1  0
 25 46  1  0
 25 47  1  0
 27 48  1  0
 27 49  1  0
 28 50  1  0
 28 51  1  0
 29 52  1  0
 30 53  1  0
M  CHG  1  23   1
M  END
>  <UniqueID>  (61) 
57

>  <SMILES>  (61) 
O=C(OCC(=O)N1CCc2ccccc21)c1ccc(S(=O)(=O)[NH+]2CCOCC2)cc1

>  <Energy>  (61) 
80.06784486779898

>  <Genealogy>  (61) 
O=C(OCC(=O)N1CCc2ccccc21)c1ccc(S(=O)(=O)[NH+]2CCOCC2)cc1 (protonated)
O=C(OCC(=O)N1CCc2ccccc21)c1ccc(S(=O)(=O)[NH+]2CCOCC2)cc1 (3D coordinates assigned)
O=C(OCC(=O)N1CCc2ccccc21)c1ccc(S(=O)(=O)[NH+]2CCOCC2)cc1 (nonaromatic ring conformer: 80.06784486779898 kcal/mol)

>  <smiles>  (61) 
O=C(OCC(=O)N1CCc2ccccc21)c1ccc(S(=O)(=O)N2CCOCC2)cc1

>  <score_type>  (61) 
oracle

>  <origin>  (61) 
adg

>  <m_score__min__energy>  (61) 
-8.1699999999999999

>  <m_primary>  (61) 
energy

$$$$
61:0
     RDKit          3D

 69 72  0  0  1  0  0  0  0  0999 V2000
   60.0280   31.0380   50.6770 C   0  0  0  0  0  0  0  0  0  0  0  0
   59.3720   29.9580   50.0340 O   0  0  0  0  0  0  0  0  0  0  0  0
   60.0170   28.8050   49.6230 C   0  0  0  0  0  0  0  0  0  0  0  0
   60.2390   28.6480   48.3930 O   0  0  0  0  0  0  0  0  0  0  0  0
   60.4090   27.8350   50.6040 N   0  0  0  0  0  0  0  0  0  0  0  0
   61.0740   26.6380   50.1980 C   0  0  0  0  0  0  0  0  0  0  0  0
   61.7810   25.8850   51.2730 C   0  0  0  0  0  0  0  0  0  0  0  0
   61.9830   26.6150   52.5030 N   0  0  0  0  0  0  0  0  0  0  0  0
   62.3090   25.8020   53.6250 C   0  0  0  0  0  0  0  0  0  0  0  0
   62.7980   27.7770   52.3100 C   0  0  0  0  0  0  0  0  0  0  0  0
   64.1280   27.6140   53.0060 C   0  0  0  0  0  0  0  0  0  0  0  0
   65.1010   28.7020   52.6990 C   0  0  0  0  0  0  0  0  0  0  0  0
   64.3670   29.9260   52.4520 N   0  0  0  0  0  0  0  0  0  0  0  0
   64.8460   30.9390   51.5830 C   0  0  0  0  0  0  0  0  0  0  0  0
   66.0550   31.5630   51.8010 C   0  0  0  0  0  0  0  0  0  0  0  0
   66.5430   32.5600   50.9610 C   0  0  0  0  0  0  0  0  0  0  0  0
   65.7460   32.8940   49.8870 C   0  0  0  0  0  0  0  0  0  0  0  0
   64.5330   32.2780   49.6560 C   0  0  0  0  0  0  0  0  0  0  0  0
   63.6630   32.6060   48.5360 C   0  0  0  0  0  0  0  0  0  0  0  0
   62.3150   32.3310   48.5110 C   0  0  0  0  0  0  0  0  0  0  0  0
   61.5560   32.6740   47.4000 C   0  0  0  0  0  0  0  0  0  0  0  0
   60.3030   32.3900   47.4420 N   0  0  0  0  0  0  0  0  0  0  0  0
   59.3980   33.0700   46.5790 C   0  0  0  0  0  0  0  0  0  0  0  0
   59.5620   34.3990   46.2390 C   0  0  0  0  0  0  0  0  0  0  0  0
   58.6200   34.9490   45.3920 C   0  0  0  0  0  0  0  0  0  0  0  0
   57.5510   34.2170   44.8940 C   0  0  0  0  0  0  0  0  0  0  0  0
   57.4060   32.8960   45.2440 C   0  0  0  0  0  0  0  0  0  0  0  0
   58.3370   32.3300   46.0890 C   0  0  0  0  0  0  0  0  0  0  0  0
   58.1900   30.9280   46.4650 C   0  0  0  0  0  0  0  0  0  0  0  0
   58.8020   30.4210   47.6430 N   0  0  0  0  0  0  0  0  0  0  0  0
   57.5110   30.1440   45.7440 O   0  0  0  0  0  0  0  0  0  0  0  0
   62.1250   33.2830   46.3260 N   0  0  0  0  0  0  0  0  0  0  0  0
   63.4350   33.5330   46.3880 C   0  0  0  0  0  0  0  0  0  0  0  0
   64.1980   33.2040   47.4680 N   0  0  0  0  0  0  0  0  0  0  0  0
   64.1280   31.3240   50.5130 N   0  0  0  0  0  0  0  0  0  0  0  0
   63.0760   30.1330   53.1250 C   0  0  0  0  0  0  0  0  0  0  0  0
   62.1520   29.0870   52.5550 C   0  0  0  0  0  0  0  0  0  0  0  0
   59.9535   30.9153   51.7676 H   0  0  0  0  0  0  0  0  0  0  0  0
   61.0874   31.0520   50.3811 H   0  0  0  0  0  0  0  0  0  0  0  0
   59.5521   31.9846   50.3811 H   0  0  0  0  0  0  0  0  0  0  0  0
   60.1970   28.0170   51.6280 H   0  0  0  0  0  0  0  0  0  0  0  0
   60.3211   25.9679   49.7574 H   0  0  0  0  0  0  0  0  0  0  0  0
   61.8581   26.9585   49.4963 H   0  0  0  0  0  0  0  0  0  0  0  0
   61.1907   24.9859   51.5037 H   0  0  0  0  0  0  0  0  0  0  0  0
   62.7845   25.6625   50.8812 H   0  0  0  0  0  0  0  0  0  0  0  0
   62.0887   26.3513   54.5522 H   0  0  0  0  0  0  0  0  0  0  0  0
   61.7115   24.8789   53.5949 H   0  0  0  0  0  0  0  0  0  0  0  0
   63.3787   25.5475   53.5949 H   0  0  0  0  0  0  0  0  0  0  0  0
   62.9752   27.8264   51.2255 H   0  0  0  0  0  0  0  0  0  0  0  0
   63.9527   27.6007   54.0919 H   0  0  0  0  0  0  0  0  0  0  0  0
   64.5694   26.6747   52.6414 H   0  0  0  0  0  0  0  0  0  0  0  0
   65.7796   28.8434   53.5531 H   0  0  0  0  0  0  0  0  0  0  0  0
   65.6937   28.4351   51.8116 H   0  0  0  0  0  0  0  0  0  0  0  0
   66.6569   31.2621   52.6712 H   0  0  0  0  0  0  0  0  0  0  0  0
   67.5092   33.0530   51.1438 H   0  0  0  0  0  0  0  0  0  0  0  0
   66.0875   33.6758   49.1926 H   0  0  0  0  0  0  0  0  0  0  0  0
   61.8383   31.8391   49.3717 H   0  0  0  0  0  0  0  0  0  0  0  0
   60.4042   34.9919   46.6252 H   0  0  0  0  0  0  0  0  0  0  0  0
   58.7205   36.0052   45.1016 H   0  0  0  0  0  0  0  0  0  0  0  0
   56.8222   34.6928   44.2213 H   0  0  0  0  0  0  0  0  0  0  0  0
   56.5643   32.3023   44.8579 H   0  0  0  0  0  0  0  0  0  0  0  0
   59.7190   30.7370   48.0110 H   0  0  0  0  0  0  0  0  0  0  0  0
   58.2670   29.6690   48.1640 H   0  0  0  0  0  0  0  0  0  0  0  0
   63.9187   34.0252   45.5314 H   0  0  0  0  0  0  0  0  0  0  0  0
   65.2120   33.4460   47.4090 H   0  0  0  0  0  0  0  0  0  0  0  0
   63.1833   30.0000   54.2116 H   0  0  0  0  0  0  0  0  0  0  0  0
   62.6900   31.1502   52.9631 H   0  0  0  0  0  0  0  0  0  0  0  0
   61.3230   28.9363   53.2622 H   0  0  0  0  0  0  0  0  0  0  0  0
   61.8144   29.4615   51.5774 H   0  0  0  0  0  0  0  0  0  0  0  0
  1  2  1  0
  2  3  1  0
  3  4  2  0
  3  5  1  0
  5  6  1  0
  6  7  1  0
  7  8  1  0
  8  9  1  0
  8 10  1  0
 10 11  1  0
 11 12  1  0
 12 13  1  0
 13 14  1  0
 14 15  2  0
 15 16  1  0
 16 17  2  0
 17 18  1  0
 18 19  1  0
 19 20  2  0
 20 21  1  0
 21 22  2  0
 22 23  1  0
 23 24  2  0
 24 25  1  0
 25 26  2  0
 26 27  1  0
 27 28  2  0
 28 29  1  0
 29 30  1  0
 29 31  2  0
 21 32  1  0
 32 33  2  0
 33 34  1  0
 18 35  2  0
 13 36  1  0
 36 37  1  0
 37 10  1  0
 35 14  1  0
 34 19  1  0
 28 23  1  0
  1 38  1  0
  1 39  1  0
  1 40  1  0
  5 41  1  0
  6 42  1  0
  6 43  1  0
  7 44  1  0
  7 45  1  0
  9 46  1  0
  9 47  1  0
  9 48  1  0
 10 49  1  0
 11 50  1  0
 11 51  1  0
 12 52  1  0
 12 53  1  0
 15 54  1  0
 16 55  1  0
 17 56  1  0
 20 57  1  0
 24 58  1  0
 25 59  1  0
 26 60  1  0
 27 61  1  0
 30 62  1  0
 30 63  1  0
 33 64  1  0
 34 65  1  0
 36 66  1  0
 36 67  1  0
 37 68  1  0
 37 69  1  0
M  END
>  <smiles>  (62) 
COC(=O)NCCN(C)C1CCN(c2cccc(-c3cc(=Nc4ccccc4C(N)=O)nc[nH]3)n2)CC1

>  <score_type>  (62) 
oracle

>  <origin>  (62) 
adg

>  <m_score__min__energy>  (62) 
-11.25

>  <m_primary>  (62) 
energy

$$$$
62:0
     RDKit          3D

 40 42  0  0  1  0  0  0  0  0999 V2000
   57.5550   33.3700   46.5800 C   0  0  0  0  0  0  0  0  0  0  0  0
   57.8130   32.1140   46.0080 O   0  0  0  0  0  0  0  0  0  0  0  0
   57.6640   31.9640   44.6370 C   0  0  0  0  0  0  0  0  0  0  0  0
   58.2780   32.8470   43.7410 C   0  0  0  0  0  0  0  0  0  0  0  0
   58.1310   32.6970   42.3690 C   0  0  0  0  0  0  0  0  0  0  0  0
   57.3640   31.6560   41.8740 C   0  0  0  0  0  0  0  0  0  0  0  0
   56.7430   30.7640   42.7560 C   0  0  0  0  0  0  0  0  0  0  0  0
   56.8950   30.9200   44.1290 C   0  0  0  0  0  0  0  0  0  0  0  0
   56.2940   30.0540   45.0730 N   0  0  0  0  0  0  0  0  0  0  0  0
   57.0070   29.0980   45.5630 C   0  0  0  0  0  0  0  0  0  0  0  0
   56.5480   27.8490   45.3940 N   0  0  0  0  0  0  0  0  0  0  0  0
   57.2010   26.7670   45.8580 C   0  0  0  0  0  0  0  0  0  0  0  0
   56.6150   25.4920   45.6180 N   0  0  0  0  0  0  0  0  0  0  0  0
   57.2290   24.5360   44.8640 C   0  0  0  0  0  0  0  0  0  0  0  0
   56.4210   23.4080   44.8080 C   0  0  0  0  0  0  0  0  0  0  0  0
   56.6690   22.1430   44.1190 C   0  0  0  0  0  0  0  0  0  0  0  0
   57.4220   21.1480   44.8360 N   0  0  0  0  0  0  0  0  0  0  0  0
   56.2500   21.9150   42.9450 O   0  0  0  0  0  0  0  0  0  0  0  0
   55.3050   23.7310   45.5590 C   0  0  0  0  0  0  0  0  0  0  0  0
   54.1370   22.8150   45.7940 C   0  0  0  0  0  0  0  0  0  0  0  0
   55.4740   24.9860   46.0170 N   0  0  0  0  0  0  0  0  0  0  0  0
   58.3890   26.9270   46.5370 C   0  0  0  0  0  0  0  0  0  0  0  0
   58.8550   28.2160   46.7070 C   0  0  0  0  0  0  0  0  0  0  0  0
   58.1550   29.2680   46.2180 N   0  0  0  0  0  0  0  0  0  0  0  0
   57.5726   33.2841   47.6765 H   0  0  0  0  0  0  0  0  0  0  0  0
   58.3249   34.0857   46.2558 H   0  0  0  0  0  0  0  0  0  0  0  0
   56.5653   33.7242   46.2558 H   0  0  0  0  0  0  0  0  0  0  0  0
   58.8881   33.6749   44.1314 H   0  0  0  0  0  0  0  0  0  0  0  0
   58.6206   33.4005   41.6795 H   0  0  0  0  0  0  0  0  0  0  0  0
   57.2427   31.5300   40.7880 H   0  0  0  0  0  0  0  0  0  0  0  0
   56.1333   29.9376   42.3618 H   0  0  0  0  0  0  0  0  0  0  0  0
   58.2096   24.6417   44.3770 H   0  0  0  0  0  0  0  0  0  0  0  0
   57.0820   20.7590   45.7430 H   0  0  0  0  0  0  0  0  0  0  0  0
   58.3340   20.8270   44.4030 H   0  0  0  0  0  0  0  0  0  0  0  0
   53.9796   22.6916   46.8757 H   0  0  0  0  0  0  0  0  0  0  0  0
   53.2340   23.2482   45.3392 H   0  0  0  0  0  0  0  0  0  0  0  0
   54.3425   21.8347   45.3392 H   0  0  0  0  0  0  0  0  0  0  0  0
   58.9446   26.0621   46.9284 H   0  0  0  0  0  0  0  0  0  0  0  0
   59.8000   28.3896   47.2426 H   0  0  0  0  0  0  0  0  0  0  0  0
   58.5130   30.2290   46.3510 H   0  0  0  0  0  0  0  0  0  0  0  0
  1  2  1  0
  2  3  1  0
  3  4  2  0
  4  5  1  0
  5  6  2  0
  6  7  1  0
  7  8  2  0
  8  9  1  0
  9 10  2  0
 10 11  1  0
 11 12  2  0
 12 13  1  0
 13 14  1  0
 14 15  2  0
 15 16  1  0
 16 17  1  0
 16 18  2  0
 15 19  1  0
 19 20  1  0
 19 21  2  0
 12 22  1  0
 22 23  2  0
 23 24  1  0
  8  3  1  0
 24 10  1  0
 21 13  1  0
  1 25  1  0
  1 26  1  0
  1 27  1  0
  4 28  1  0
  5 29  1  0
  6 30  1  0
  7 31  1  0
 14 32  1  0
 17 33  1  0
 17 34  1  0
 20 35  1  0
 20 36  1  0
 20 37  1  0
 22 38  1  0
 23 39  1  0
 24 40  1  0
M  END
>  <smiles>  (63) 
COc1ccccc1N=c1nc(-n2cc(C(N)=O)c(C)n2)cc[nH]1

>  <score_type>  (63) 
oracle

>  <origin>  (63) 
adg

>  <m_score__min__energy>  (63) 
-8.6400000000000006

>  <m_primary>  (63) 
energy

$$$$
63:0
     RDKit          3D

 47 49  0  0  0  0  0  0  0  0999 V2000
   54.3210   25.8170   45.8260 N   0  0  0  0  0  0  0  0  0  0  0  0
   53.9310   24.1570   45.5330 S   0  0  0  0  0  0  0  0  0  0  0  0
   54.2550   23.8420   44.0980 O   0  0  0  0  0  0  0  0  0  0  0  0
   52.4630   23.9410   45.7740 O   0  0  0  0  0  0  0  0  0  0  0  0
   54.8640   23.0950   46.5980 C   0  0  0  0  0  0  0  0  0  0  0  0
   54.7160   23.2030   47.9890 C   0  0  0  0  0  0  0  0  0  0  0  0
   55.4460   22.3680   48.8430 C   0  0  0  0  0  0  0  0  0  0  0  0
   56.3130   21.4130   48.3190 C   0  0  0  0  0  0  0  0  0  0  0  0
   56.4640   21.2920   46.9380 C   0  0  0  0  0  0  0  0  0  0  0  0
   55.7510   22.1330   46.0630 C   0  0  0  0  0  0  0  0  0  0  0  0
   55.9040   22.0330   44.6410 N   0  0  0  0  0  0  0  0  0  0  0  0
   57.2230   22.6970   43.7320 S   0  0  0  0  0  0  0  0  0  0  0  0
   56.9880   22.4320   42.2720 O   0  0  0  0  0  0  0  0  0  0  0  0
   58.4980   22.0190   44.1410 O   0  0  0  0  0  0  0  0  0  0  0  0
   57.3660   24.4240   44.0370 C   0  0  0  0  0  0  0  0  0  0  0  0
   57.2110   24.9180   45.3380 C   0  0  0  0  0  0  0  0  0  0  0  0
   57.3520   26.2860   45.5930 C   0  0  0  0  0  0  0  0  0  0  0  0
   57.6680   27.1730   44.5550 C   0  0  0  0  0  0  0  0  0  0  0  0
   57.8110   28.5750   44.8430 N   0  0  0  0  0  0  0  0  0  0  0  0
   56.7050   29.4870   44.9580 C   0  0  0  0  0  0  0  0  0  0  0  0
   55.5190   29.0660   44.8780 O   0  0  0  0  0  0  0  0  0  0  0  0
   56.9220   30.8860   45.1800 N   0  0  0  0  0  0  0  0  0  0  0  0
   58.1270   31.4910   45.6710 C   0  0  0  0  0  0  0  0  0  0  0  0
   58.4350   32.8400   45.4220 C   0  0  0  0  0  0  0  0  0  0  0  0
   59.5950   33.4120   45.9560 C   0  0  0  0  0  0  0  0  0  0  0  0
   60.4560   32.6530   46.7670 C   0  0  0  0  0  0  0  0  0  0  0  0
   61.6470   33.2380   47.3250 N   0  0  0  0  0  0  0  0  0  0  0  0
   62.7700   32.9700   46.8520 O   0  0  0  0  0  0  0  0  0  0  0  0
   61.5670   34.0870   48.4050 O   0  0  0  0  0  0  0  0  0  0  0  0
   60.1310   31.3100   47.0300 C   0  0  0  0  0  0  0  0  0  0  0  0
   58.9720   30.7390   46.4920 C   0  0  0  0  0  0  0  0  0  0  0  0
   57.7880   26.6780   43.2430 C   0  0  0  0  0  0  0  0  0  0  0  0
   57.6470   25.3110   42.9890 C   0  0  0  0  0  0  0  0  0  0  0  0
   53.4170   26.3400   45.8870 H   0  0  0  0  0  0  0  0  0  0  0  0
   54.0236   23.9468   48.4101 H   0  0  0  0  0  0  0  0  0  0  0  0
   55.3341   22.4668   49.9328 H   0  0  0  0  0  0  0  0  0  0  0  0
   56.8787   20.7541   48.9941 H   0  0  0  0  0  0  0  0  0  0  0  0
   57.1464   20.5325   46.5288 H   0  0  0  0  0  0  0  0  0  0  0  0
   56.9776   24.2279   46.1622 H   0  0  0  0  0  0  0  0  0  0  0  0
   57.2139   26.6682   46.6152 H   0  0  0  0  0  0  0  0  0  0  0  0
   58.7820   28.9540   44.9130 H   0  0  0  0  0  0  0  0  0  0  0  0
   57.7598   33.4496   44.8035 H   0  0  0  0  0  0  0  0  0  0  0  0
   59.8348   34.4635   45.7394 H   0  0  0  0  0  0  0  0  0  0  0  0
   60.7938   30.7030   47.6643 H   0  0  0  0  0  0  0  0  0  0  0  0
   58.7244   29.6911   46.7169 H   0  0  0  0  0  0  0  0  0  0  0  0
   57.9938   27.3705   42.4134 H   0  0  0  0  0  0  0  0  0  0  0  0
   57.7570   24.9299   41.9630 H   0  0  0  0  0  0  0  0  0  0  0  0
  1  2  1  0
  2  3  2  0
  2  4  2  0
  2  5  1  0
  5  6  2  0
  6  7  1  0
  7  8  2  0
  8  9  1  0
  9 10  2  0
 10 11  1  0
 11 12  1  0
 12 13  2  0
 12 14  2  0
 12 15  1  0
 15 16  2  0
 16 17  1  0
 17 18  2  0
 18 19  1  0
 19 20  1  0
 20 21  2  0
 20 22  1  0
 22 23  1  0
 23 24  2  0
 24 25  1  0
 25 26  2  0
 26 27  1  0
 27 28  2  0
 27 29  1  0
 26 30  1  0
 30 31  2  0
 18 32  1  0
 32 33  2  0
 10  5  1  0
 33 15  1  0
 31 23  1  0
  1 34  1  0
  6 35  1  0
  7 36  1  0
  8 37  1  0
  9 38  1  0
 16 39  1  0
 17 40  1  0
 19 41  1  0
 24 42  1  0
 25 43  1  0
 30 44  1  0
 31 45  1  0
 32 46  1  0
 33 47  1  0
M  CHG  5   1  -1  11  -1  22  -1  27   1  29  -1
M  END
>  <UniqueID>  (64) 
58

>  <SMILES>  (64) 
[NH-]S(=O)(=O)c1ccccc1[N-]S(=O)(=O)c1ccc(NC(=O)[N-]c2ccc([N+](=O)[O-])cc2)cc1

>  <Energy>  (64) 
64.14796740282401

>  <Genealogy>  (64) 
[NH-]S(=O)(=O)c1ccccc1[N-]S(=O)(=O)c1ccc(NC(=O)[N-]c2ccc([N+](=O)[O-])cc2)cc1 (protonated)
[NH-]S(=O)(=O)c1ccccc1[N-]S(=O)(=O)c1ccc(NC(=O)[N-]c2ccc([N+](=O)[O-])cc2)cc1 (3D coordinates assigned)
[NH-]S(=O)(=O)c1ccccc1[N-]S(=O)(=O)c1ccc(NC(=O)[N-]c2ccc([N+](=O)[O-])cc2)cc1 (optimized conformer: 64.14796740282401 kcal/mol)

>  <smiles>  (64) 
NS(=O)(=O)c1ccccc1NS(=O)(=O)c1ccc(NC(=O)Nc2ccc([N+](=O)[O-])cc2)cc1

>  <score_type>  (64) 
oracle

>  <origin>  (64) 
adg

>  <m_score__min__energy>  (64) 
-14.949999999999999

>  <m_primary>  (64) 
energy

$$$$
64:0
     RDKit          3D

 66 69  0  0  0  0  0  0  0  0999 V2000
   56.2580   22.9790   43.3720 C   0  0  0  0  0  0  0  0  0  0  0  0
   57.0510   24.2490   43.6730 C   0  0  0  0  0  0  0  0  0  0  0  0
   56.6370   24.8560   45.0320 C   0  0  0  0  0  0  0  0  0  0  0  0
   57.0180   26.2820   45.2220 N   0  0  0  0  0  0  0  0  0  0  0  0
   57.4260   26.6800   46.5900 C   0  0  0  0  0  0  0  0  0  0  0  0
   58.9420   26.5350   46.7840 C   0  0  0  0  0  0  0  0  0  0  0  0
   59.4550   27.5070   47.8160 C   0  0  0  0  0  0  0  0  0  0  0  0
   58.9800   28.8300   47.8330 C   0  0  0  0  0  0  0  0  0  0  0  0
   59.4240   29.7270   48.8090 C   0  0  0  0  0  0  0  0  0  0  0  0
   60.3450   29.3100   49.7770 C   0  0  0  0  0  0  0  0  0  0  0  0
   60.9000   30.4370   51.0020 Cl  0  0  0  0  0  0  0  0  0  0  0  0
   60.8160   27.9930   49.7710 C   0  0  0  0  0  0  0  0  0  0  0  0
   60.3710   27.0930   48.7960 C   0  0  0  0  0  0  0  0  0  0  0  0
   57.8750   26.8360   44.1490 C   0  0  0  0  0  0  0  0  0  0  0  0
   57.8150   28.3420   44.0610 C   0  0  0  0  0  0  0  0  0  0  0  0
   56.7690   28.9720   43.3660 C   0  0  0  0  0  0  0  0  0  0  0  0
   56.7690   30.3590   43.1950 C   0  0  0  0  0  0  0  0  0  0  0  0
   57.8200   31.1350   43.7100 C   0  0  0  0  0  0  0  0  0  0  0  0
   57.8860   32.5850   43.4270 C   0  0  0  0  0  0  0  0  0  0  0  0
   58.1270   32.9780   42.2540 O   0  0  0  0  0  0  0  0  0  0  0  0
   57.6570   33.5590   44.4540 N   0  0  0  0  0  0  0  0  0  0  0  0
   58.3130   33.5820   45.7300 C   0  0  0  0  0  0  0  0  0  0  0  0
   59.3670   34.4770   45.9390 C   0  0  0  0  0  0  0  0  0  0  0  0
   60.0010   34.5460   47.1840 C   0  0  0  0  0  0  0  0  0  0  0  0
   59.6030   33.6990   48.2320 C   0  0  0  0  0  0  0  0  0  0  0  0
   60.2420   33.7700   49.5180 N   0  0  0  0  0  0  0  0  0  0  0  0
   59.6280   33.7300   50.7130 C   0  0  0  0  0  0  0  0  0  0  0  0
   60.5930   33.7830   51.6920 C   0  0  0  0  0  0  0  0  0  0  0  0
   61.8150   33.8400   51.1250 N   0  0  0  0  0  0  0  0  0  0  0  0
   61.5630   33.8320   49.7990 C   0  0  0  0  0  0  0  0  0  0  0  0
   62.8770   33.7780   48.5760 S   0  0  0  0  0  0  0  0  0  0  0  0
   64.0270   32.9090   49.6880 C   0  0  0  0  0  0  0  0  0  0  0  0
   58.5540   32.7910   48.0170 C   0  0  0  0  0  0  0  0  0  0  0  0
   57.9240   32.7220   46.7720 C   0  0  0  0  0  0  0  0  0  0  0  0
   58.8290   30.5100   44.4610 C   0  0  0  0  0  0  0  0  0  0  0  0
   58.8280   29.1250   44.6330 C   0  0  0  0  0  0  0  0  0  0  0  0
   55.9594   22.5007   44.3165 H   0  0  0  0  0  0  0  0  0  0  0  0
   55.3599   23.2365   42.7914 H   0  0  0  0  0  0  0  0  0  0  0  0
   56.8836   22.2851   42.7914 H   0  0  0  0  0  0  0  0  0  0  0  0
   58.1232   24.0047   43.7007 H   0  0  0  0  0  0  0  0  0  0  0  0
   56.8419   24.9860   42.8836 H   0  0  0  0  0  0  0  0  0  0  0  0
   55.5434   24.7794   45.1218 H   0  0  0  0  0  0  0  0  0  0  0  0
   57.1774   24.2864   45.8024 H   0  0  0  0  0  0  0  0  0  0  0  0
   57.1420   27.7294   46.7576 H   0  0  0  0  0  0  0  0  0  0  0  0
   56.9191   26.0201   47.3094 H   0  0  0  0  0  0  0  0  0  0  0  0
   59.1650   25.5098   47.1146 H   0  0  0  0  0  0  0  0  0  0  0  0
   59.4379   26.7501   45.8260 H   0  0  0  0  0  0  0  0  0  0  0  0
   58.2553   29.1611   47.0745 H   0  0  0  0  0  0  0  0  0  0  0  0
   59.0493   30.7612   48.8162 H   0  0  0  0  0  0  0  0  0  0  0  0
   61.5372   27.6642   50.5337 H   0  0  0  0  0  0  0  0  0  0  0  0
   60.7405   26.0569   48.7976 H   0  0  0  0  0  0  0  0  0  0  0  0
   58.9159   26.5379   44.3433 H   0  0  0  0  0  0  0  0  0  0  0  0
   57.5036   26.4367   43.1937 H   0  0  0  0  0  0  0  0  0  0  0  0
   55.9455   28.3702   42.9542 H   0  0  0  0  0  0  0  0  0  0  0  0
   55.9428   30.8446   42.6551 H   0  0  0  0  0  0  0  0  0  0  0  0
   59.6996   35.1308   45.1193 H   0  0  0  0  0  0  0  0  0  0  0  0
   60.8158   35.2675   47.3435 H   0  0  0  0  0  0  0  0  0  0  0  0
   58.5425   33.6660   50.8793 H   0  0  0  0  0  0  0  0  0  0  0  0
   60.3972   33.7794   52.7744 H   0  0  0  0  0  0  0  0  0  0  0  0
   63.7532   33.1159   50.7331 H   0  0  0  0  0  0  0  0  0  0  0  0
   63.9699   31.8265   49.5014 H   0  0  0  0  0  0  0  0  0  0  0  0
   65.0528   33.2596   49.5014 H   0  0  0  0  0  0  0  0  0  0  0  0
   58.2264   32.1304   48.8332 H   0  0  0  0  0  0  0  0  0  0  0  0
   57.1192   31.9908   46.6060 H   0  0  0  0  0  0  0  0  0  0  0  0
   59.6256   31.1164   44.9168 H   0  0  0  0  0  0  0  0  0  0  0  0
   59.6253   28.6455   45.2198 H   0  0  0  0  0  0  0  0  0  0  0  0
  1  2  1  0
  2  3  1  0
  3  4  1  0
  4  5  1  0
  5  6  1  0
  6  7  1  0
  7  8  2  0
  8  9  1  0
  9 10  2  0
 10 11  1  0
 10 12  1  0
 12 13  2  0
  4 14  1  0
 14 15  1  0
 15 16  2  0
 16 17  1  0
 17 18  2  0
 18 19  1  0
 19 20  2  0
 19 21  1  0
 21 22  1  0
 22 23  2  0
 23 24  1  0
 24 25  2  0
 25 26  1  0
 26 27  1  0
 27 28  2  0
 28 29  1  0
 29 30  2  0
 30 31  1  0
 31 32  1  0
 25 33  1  0
 33 34  2  0
 18 35  1  0
 35 36  2  0
 13  7  1  0
 36 15  1  0
 34 22  1  0
 30 26  1  0
  1 37  1  0
  1 38  1  0
  1 39  1  0
  2 40  1  0
  2 41  1  0
  3 42  1  0
  3 43  1  0
  5 44  1  0
  5 45  1  0
  6 46  1  0
  6 47  1  0
  8 48  1  0
  9 49  1  0
 12 50  1  0
 13 51  1  0
 14 52  1  0
 14 53  1  0
 16 54  1  0
 17 55  1  0
 23 56  1  0
 24 57  1  0
 27 58  1  0
 28 59  1  0
 32 60  1  0
 32 61  1  0
 32 62  1  0
 33 63  1  0
 34 64  1  0
 35 65  1  0
 36 66  1  0
M  CHG  1  21  -1
M  END
>  <UniqueID>  (65) 
59

>  <SMILES>  (65) 
CCCN(CCc1ccc(Cl)cc1)Cc1ccc(C(=O)[N-]c2ccc(-n3ccnc3SC)cc2)cc1

>  <Energy>  (65) 
107.0629766883514

>  <Genealogy>  (65) 
CCCN(CCc1ccc(Cl)cc1)Cc1ccc(C(=O)[N-]c2ccc(-n3ccnc3SC)cc2)cc1 (protonated)
CCCN(CCc1ccc(Cl)cc1)Cc1ccc(C(=O)[N-]c2ccc(-n3ccnc3SC)cc2)cc1 (3D coordinates assigned)
CCCN(CCc1ccc(Cl)cc1)Cc1ccc(C(=O)[N-]c2ccc(-n3ccnc3SC)cc2)cc1 (optimized conformer: 107.0629766883514 kcal/mol)

>  <smiles>  (65) 
CCCN(CCc1ccc(Cl)cc1)Cc1ccc(C(=O)Nc2ccc(-n3ccnc3SC)cc2)cc1

>  <score_type>  (65) 
oracle

>  <origin>  (65) 
adg

>  <m_score__min__energy>  (65) 
-9.8900000000000006

>  <m_primary>  (65) 
energy

$$$$
65:0
     RDKit          3D

 35 36  0  0  0  0  0  0  0  0999 V2000
   55.4880   25.6690   46.1640 O   0  0  0  0  0  0  0  0  0  0  0  0
   56.3640   26.5090   45.8300 C   0  0  0  0  0  0  0  0  0  0  0  0
   57.6910   26.1180   45.6780 C   0  0  0  0  0  0  0  0  0  0  0  0
   58.6290   27.0780   45.3080 C   0  0  0  0  0  0  0  0  0  0  0  0
   58.2520   28.3760   45.0990 N   0  0  0  0  0  0  0  0  0  0  0  0
   59.2730   29.3540   44.6800 C   0  0  0  0  0  0  0  0  0  0  0  0
   60.2620   29.6530   45.8160 C   0  0  0  0  0  0  0  0  0  0  0  0
   59.6640   29.3700   47.1970 C   0  0  0  0  0  0  0  0  0  0  0  0
   58.5290   30.2680   47.4460 N   0  0  0  0  0  0  0  0  0  0  0  0
   58.9820   31.5700   47.9550 C   0  0  0  0  0  0  0  0  0  0  0  0
   58.8250   32.6330   46.9000 C   0  0  0  0  0  0  0  0  0  0  0  0
   59.7670   33.6700   46.8010 C   0  0  0  0  0  0  0  0  0  0  0  0
   59.6440   34.6430   45.8030 C   0  0  0  0  0  0  0  0  0  0  0  0
   58.5830   34.5820   44.8960 C   0  0  0  0  0  0  0  0  0  0  0  0
   57.6440   33.5510   44.9830 C   0  0  0  0  0  0  0  0  0  0  0  0
   57.7640   32.5780   45.9800 C   0  0  0  0  0  0  0  0  0  0  0  0
   56.9360   28.7320   45.2540 C   0  0  0  0  0  0  0  0  0  0  0  0
   56.5590   29.9200   45.0590 O   0  0  0  0  0  0  0  0  0  0  0  0
   56.0140   27.8010   45.6160 N   0  0  0  0  0  0  0  0  0  0  0  0
   57.9921   25.0735   45.8465 H   0  0  0  0  0  0  0  0  0  0  0  0
   59.6832   26.7899   45.1826 H   0  0  0  0  0  0  0  0  0  0  0  0
   59.8269   28.9474   43.8210 H   0  0  0  0  0  0  0  0  0  0  0  0
   58.7643   30.2907   44.4084 H   0  0  0  0  0  0  0  0  0  0  0  0
   61.1551   29.0250   45.6819 H   0  0  0  0  0  0  0  0  0  0  0  0
   60.5127   30.7231   45.7708 H   0  0  0  0  0  0  0  0  0  0  0  0
   59.3187   28.3264   47.2376 H   0  0  0  0  0  0  0  0  0  0  0  0
   60.4332   29.5384   47.9651 H   0  0  0  0  0  0  0  0  0  0  0  0
   58.0520   30.4380   46.5300 H   0  0  0  0  0  0  0  0  0  0  0  0
   58.3821   31.8429   48.8357 H   0  0  0  0  0  0  0  0  0  0  0  0
   60.0448   31.4946   48.2283 H   0  0  0  0  0  0  0  0  0  0  0  0
   60.6055   33.7175   47.5114 H   0  0  0  0  0  0  0  0  0  0  0  0
   60.3822   35.4555   45.7326 H   0  0  0  0  0  0  0  0  0  0  0  0
   58.4867   35.3473   44.1117 H   0  0  0  0  0  0  0  0  0  0  0  0
   56.8102   33.5048   44.2670 H   0  0  0  0  0  0  0  0  0  0  0  0
   57.0248   31.7660   46.0445 H   0  0  0  0  0  0  0  0  0  0  0  0
  1  2  2  0
  2  3  1  0
  3  4  2  0
  4  5  1  0
  5  6  1  0
  6  7  1  0
  7  8  1  0
  8  9  1  0
  9 10  1  0
 10 11  1  0
 11 12  2  0
 12 13  1  0
 13 14  2  0
 14 15  1  0
 15 16  2  0
  5 17  1  0
 17 18  2  0
 17 19  1  0
 19  2  1  0
 16 11  1  0
  3 20  1  0
  4 21  1  0
  6 22  1  0
  6 23  1  0
  7 24  1  0
  7 25  1  0
  8 26  1  0
  8 27  1  0
  9 28  1  0
 10 29  1  0
 10 30  1  0
 12 31  1  0
 13 32  1  0
 14 33  1  0
 15 34  1  0
 16 35  1  0
M  CHG  1  19  -1
M  END
>  <UniqueID>  (66) 
60

>  <SMILES>  (66) 
O=c1ccn(CCCNCc2ccccc2)c(=O)[n-]1

>  <Energy>  (66) 
32.08312338830457

>  <Genealogy>  (66) 
O=c1ccn(CCCNCc2ccccc2)c(=O)[n-]1 (protonated)
O=c1ccn(CCCNCc2ccccc2)c(=O)[n-]1 (3D coordinates assigned)
O=c1ccn(CCCNCc2ccccc2)c(=O)[n-]1 (optimized conformer: 32.08312338830457 kcal/mol)

>  <smiles>  (66) 
O=c1ccn(CCCNCc2ccccc2)c(=O)[nH]1

>  <score_type>  (66) 
oracle

>  <origin>  (66) 
adg

>  <m_score__min__energy>  (66) 
-8.8100000000000005

>  <m_primary>  (66) 
energy

$$$$
66:0
     RDKit          3D

 64 66  0  0  0  0  0  0  0  0999 V2000
   62.4880   33.9120   46.3470 C   0  0  0  0  0  0  0  0  0  0  0  0
   63.7140   33.1420   46.8300 C   0  0  0  0  0  0  0  0  0  0  0  0
   63.4750   32.2750   48.0940 C   0  0  0  0  0  0  0  0  0  0  0  0
   62.8600   32.9220   49.2980 N   0  0  0  0  0  0  0  0  0  0  0  0
   63.7750   33.0710   50.4580 C   0  0  0  0  0  0  0  0  0  0  0  0
   65.2720   33.0870   50.1120 C   0  0  0  0  0  0  0  0  0  0  0  0
   65.9390   31.7750   50.5200 C   0  0  0  0  0  0  0  0  0  0  0  0
   61.2450   32.4030   49.7650 S   0  0  0  0  0  0  0  0  0  0  0  0
   60.7280   33.3060   50.8500 O   0  0  0  0  0  0  0  0  0  0  0  0
   61.2760   30.9960   50.2900 O   0  0  0  0  0  0  0  0  0  0  0  0
   60.1060   32.4870   48.4160 C   0  0  0  0  0  0  0  0  0  0  0  0
   59.2630   33.5950   48.2470 C   0  0  0  0  0  0  0  0  0  0  0  0
   58.3730   33.6460   47.1710 C   0  0  0  0  0  0  0  0  0  0  0  0
   58.3000   32.5830   46.2550 C   0  0  0  0  0  0  0  0  0  0  0  0
   57.3700   32.6510   45.1030 C   0  0  0  0  0  0  0  0  0  0  0  0
   57.4300   33.6320   44.3140 O   0  0  0  0  0  0  0  0  0  0  0  0
   56.4410   31.5980   44.8200 N   0  0  0  0  0  0  0  0  0  0  0  0
   56.7550   30.3480   44.6500 C   0  0  0  0  0  0  0  0  0  0  0  0
   56.9170   29.5000   45.6880 N   0  0  0  0  0  0  0  0  0  0  0  0
   57.3090   28.2630   45.2730 C   0  0  0  0  0  0  0  0  0  0  0  0
   57.5140   27.1240   46.2300 C   0  0  0  0  0  0  0  0  0  0  0  0
   56.2990   26.2530   46.3060 C   0  0  0  0  0  0  0  0  0  0  0  0
   55.1710   26.7230   45.9980 O   0  0  0  0  0  0  0  0  0  0  0  0
   56.4240   24.8980   46.7530 N   0  0  0  0  0  0  0  0  0  0  0  0
   57.5470   24.0340   46.4050 C   0  0  0  0  0  0  0  0  0  0  0  0
   57.2690   23.3290   45.1050 C   0  0  0  0  0  0  0  0  0  0  0  0
   57.9620   22.1540   44.7640 C   0  0  0  0  0  0  0  0  0  0  0  0
   57.6610   21.4770   43.5760 C   0  0  0  0  0  0  0  0  0  0  0  0
   56.6640   21.9650   42.7260 C   0  0  0  0  0  0  0  0  0  0  0  0
   55.9690   23.1310   43.0600 C   0  0  0  0  0  0  0  0  0  0  0  0
   56.2690   23.8120   44.2450 C   0  0  0  0  0  0  0  0  0  0  0  0
   57.4390   28.1190   43.8940 C   0  0  0  0  0  0  0  0  0  0  0  0
   57.0800   29.5970   43.1740 S   0  0  0  0  0  0  0  0  0  0  0  0
   59.1370   31.4690   46.4350 C   0  0  0  0  0  0  0  0  0  0  0  0
   60.0290   31.4230   47.5100 C   0  0  0  0  0  0  0  0  0  0  0  0
   61.9155   34.2716   47.2147 H   0  0  0  0  0  0  0  0  0  0  0  0
   62.8101   34.7703   45.7391 H   0  0  0  0  0  0  0  0  0  0  0  0
   61.8547   33.2491   45.7391 H   0  0  0  0  0  0  0  0  0  0  0  0
   64.0453   32.4793   46.0169 H   0  0  0  0  0  0  0  0  0  0  0  0
   64.4665   33.8953   47.1062 H   0  0  0  0  0  0  0  0  0  0  0  0
   62.8161   31.4451   47.7989 H   0  0  0  0  0  0  0  0  0  0  0  0
   64.4863   31.9959   48.4248 H   0  0  0  0  0  0  0  0  0  0  0  0
   62.7050   33.9190   49.0130 H   0  0  0  0  0  0  0  0  0  0  0  0
   63.5324   34.0173   50.9636 H   0  0  0  0  0  0  0  0  0  0  0  0
   63.6166   32.1833   51.0880 H   0  0  0  0  0  0  0  0  0  0  0  0
   65.3896   33.2290   49.0276 H   0  0  0  0  0  0  0  0  0  0  0  0
   65.7512   33.9109   50.6612 H   0  0  0  0  0  0  0  0  0  0  0  0
   65.9736   31.7070   51.6174 H   0  0  0  0  0  0  0  0  0  0  0  0
   65.3613   30.9295   50.1182 H   0  0  0  0  0  0  0  0  0  0  0  0
   66.9625   31.7436   50.1182 H   0  0  0  0  0  0  0  0  0  0  0  0
   59.3026   34.4276   48.9647 H   0  0  0  0  0  0  0  0  0  0  0  0
   57.7247   34.5249   47.0401 H   0  0  0  0  0  0  0  0  0  0  0  0
   58.3678   26.5194   45.8900 H   0  0  0  0  0  0  0  0  0  0  0  0
   57.7061   27.5405   47.2298 H   0  0  0  0  0  0  0  0  0  0  0  0
   58.4572   24.6431   46.3019 H   0  0  0  0  0  0  0  0  0  0  0  0
   57.6873   23.2859   47.1992 H   0  0  0  0  0  0  0  0  0  0  0  0
   58.7437   21.7652   45.4332 H   0  0  0  0  0  0  0  0  0  0  0  0
   58.2092   20.5608   43.3113 H   0  0  0  0  0  0  0  0  0  0  0  0
   56.4264   21.4312   41.7940 H   0  0  0  0  0  0  0  0  0  0  0  0
   55.1850   23.5138   42.3901 H   0  0  0  0  0  0  0  0  0  0  0  0
   55.7196   24.7291   44.5040 H   0  0  0  0  0  0  0  0  0  0  0  0
   57.7268   27.1978   43.3663 H   0  0  0  0  0  0  0  0  0  0  0  0
   59.0900   30.6289   45.7264 H   0  0  0  0  0  0  0  0  0  0  0  0
   60.6757   30.5435   47.6451 H   0  0  0  0  0  0  0  0  0  0  0  0
  1  2  1  0
  2  3  1  0
  3  4  1  0
  4  5  1  0
  5  6  1  0
  6  7  1  0
  4  8  1  0
  8  9  2  0
  8 10  2  0
  8 11  1  0
 11 12  2  0
 12 13  1  0
 13 14  2  0
 14 15  1  0
 15 16  2  0
 15 17  1  0
 17 18  2  3
 18 19  1  0
 19 20  1  0
 20 21  1  0
 21 22  1  0
 22 23  2  0
 22 24  1  0
 24 25  1  0
 25 26  1  0
 26 27  2  0
 27 28  1  0
 28 29  2  0
 29 30  1  0
 30 31  2  0
 20 32  2  0
 32 33  1  0
 14 34  1  0
 34 35  2  0
 35 11  1  0
 33 18  1  0
 31 26  1  0
  1 36  1  0
  1 37  1  0
  1 38  1  0
  2 39  1  0
  2 40  1  0
  3 41  1  0
  3 42  1  0
  4 43  1  0
  5 44  1  0
  5 45  1  0
  6 46  1  0
  6 47  1  0
  7 48  1  0
  7 49  1  0
  7 50  1  0
 12 51  1  0
 13 52  1  0
 21 53  1  0
 21 54  1  0
 25 55  1  0
 25 56  1  0
 27 57  1  0
 28 58  1  0
 29 59  1  0
 30 60  1  0
 31 61  1  0
 32 62  1  0
 34 63  1  0
 35 64  1  0
M  CHG  3   4   1  19  -1  24  -1
M  END
>  <UniqueID>  (67) 
61

>  <SMILES>  (67) 
CCC[NH+](CCC)S(=O)(=O)c1ccc(C(=O)N=c2[n-]c(CC(=O)[N-]Cc3ccccc3)cs2)cc1

>  <Energy>  (67) 
110.28492347375033

>  <Genealogy>  (67) 
CCC[NH+](CCC)S(=O)(=O)c1ccc(C(=O)N=c2[n-]c(CC(=O)[N-]Cc3ccccc3)cs2)cc1 (protonated)
CCC[NH+](CCC)S(=O)(=O)c1ccc(C(=O)N=c2[n-]c(CC(=O)[N-]Cc3ccccc3)cs2)cc1 (3D coordinates assigned)
CCC[NH+](CCC)S(=O)(=O)c1ccc(C(=O)N=c2[n-]c(CC(=O)[N-]Cc3ccccc3)cs2)cc1 (optimized conformer: 110.28492347375033 kcal/mol)

>  <smiles>  (67) 
CCCN(CCC)S(=O)(=O)c1ccc(C(=O)N=c2[nH]c(CC(=O)NCc3ccccc3)cs2)cc1

>  <score_type>  (67) 
oracle

>  <origin>  (67) 
adg

>  <m_score__min__energy>  (67) 
-11.74

>  <m_primary>  (67) 
energy

$$$$
67:0
     RDKit          3D

 48 49  0  0  0  0  0  0  0  0999 V2000
   60.0940   32.3320   49.1000 C   0  0  0  0  0  0  0  0  0  0  0  0
   58.9280   31.3450   49.2280 C   0  0  0  0  0  0  0  0  0  0  0  0
   58.1250   31.6020   50.5100 C   0  0  0  0  0  0  0  0  0  0  0  0
   59.4270   29.9080   49.1600 C   0  0  0  0  0  0  0  0  0  0  0  0
   60.2990   29.4170   50.1490 C   0  0  0  0  0  0  0  0  0  0  0  0
   60.7740   28.1090   50.0920 C   0  0  0  0  0  0  0  0  0  0  0  0
   60.3850   27.2660   49.0550 C   0  0  0  0  0  0  0  0  0  0  0  0
   59.5170   27.7200   48.0450 C   0  0  0  0  0  0  0  0  0  0  0  0
   59.0850   26.7720   46.9350 C   0  0  0  0  0  0  0  0  0  0  0  0
   57.5620   26.7800   46.7610 C   0  0  0  0  0  0  0  0  0  0  0  0
   59.7910   27.1040   45.6140 C   0  0  0  0  0  0  0  0  0  0  0  0
   59.0570   29.0590   48.0900 C   0  0  0  0  0  0  0  0  0  0  0  0
   58.2310   29.5560   47.0760 O   0  0  0  0  0  0  0  0  0  0  0  0
   58.7410   30.1310   45.9080 C   0  0  0  0  0  0  0  0  0  0  0  0
   59.7390   30.8990   45.9540 O   0  0  0  0  0  0  0  0  0  0  0  0
   58.1290   29.8580   44.6490 N   0  0  0  0  0  0  0  0  0  0  0  0
   56.5290   30.3960   44.2680 S   0  0  0  0  0  0  0  0  0  0  0  0
   56.3510   30.4050   42.7760 O   0  0  0  0  0  0  0  0  0  0  0  0
   55.5290   29.4550   44.8780 O   0  0  0  0  0  0  0  0  0  0  0  0
   56.2690   31.9730   44.8800 O   0  0  0  0  0  0  0  0  0  0  0  0
   57.2850   32.8600   45.2590 C   0  0  0  0  0  0  0  0  0  0  0  0
   57.4470   33.3130   46.5830 C   0  0  0  0  0  0  0  0  0  0  0  0
   58.4910   34.1850   46.9050 C   0  0  0  0  0  0  0  0  0  0  0  0
   59.3740   34.6200   45.9130 C   0  0  0  0  0  0  0  0  0  0  0  0
   59.2150   34.1810   44.5970 C   0  0  0  0  0  0  0  0  0  0  0  0
   58.1760   33.3030   44.2730 C   0  0  0  0  0  0  0  0  0  0  0  0
   60.4390   32.6240   50.1029 H   0  0  0  0  0  0  0  0  0  0  0  0
   60.9201   31.8546   48.5526 H   0  0  0  0  0  0  0  0  0  0  0  0
   59.7596   33.2256   48.5526 H   0  0  0  0  0  0  0  0  0  0  0  0
   58.2487   31.5042   48.3776 H   0  0  0  0  0  0  0  0  0  0  0  0
   58.7584   31.3993   51.3862 H   0  0  0  0  0  0  0  0  0  0  0  0
   57.7943   32.6509   50.5314 H   0  0  0  0  0  0  0  0  0  0  0  0
   57.2467   30.9401   50.5314 H   0  0  0  0  0  0  0  0  0  0  0  0
   60.6088   30.0730   50.9758 H   0  0  0  0  0  0  0  0  0  0  0  0
   61.4593   27.7407   50.8696 H   0  0  0  0  0  0  0  0  0  0  0  0
   60.7606   26.2326   49.0247 H   0  0  0  0  0  0  0  0  0  0  0  0
   59.3853   25.7558   47.2303 H   0  0  0  0  0  0  0  0  0  0  0  0
   57.0800   26.7825   47.7498 H   0  0  0  0  0  0  0  0  0  0  0  0
   57.2613   27.6797   46.2042 H   0  0  0  0  0  0  0  0  0  0  0  0
   57.2518   25.8835   46.2042 H   0  0  0  0  0  0  0  0  0  0  0  0
   60.7678   27.5634   45.8257 H   0  0  0  0  0  0  0  0  0  0  0  0
   59.9379   26.1806   45.0346 H   0  0  0  0  0  0  0  0  0  0  0  0
   59.1735   27.8061   45.0346 H   0  0  0  0  0  0  0  0  0  0  0  0
   56.7499   32.9795   47.3658 H   0  0  0  0  0  0  0  0  0  0  0  0
   58.6178   34.5297   47.9419 H   0  0  0  0  0  0  0  0  0  0  0  0
   60.1936   35.3077   46.1686 H   0  0  0  0  0  0  0  0  0  0  0  0
   59.9073   34.5260   43.8149 H   0  0  0  0  0  0  0  0  0  0  0  0
   58.0574   32.9574   43.2355 H   0  0  0  0  0  0  0  0  0  0  0  0
  1  2  1  0
  2  3  1  0
  2  4  1  0
  4  5  2  0
  5  6  1  0
  6  7  2  0
  7  8  1  0
  8  9  1  0
  9 10  1  0
  9 11  1  0
  8 12  2  0
 12 13  1  0
 13 14  1  0
 14 15  2  0
 14 16  1  0
 16 17  1  0
 17 18  2  0
 17 19  2  0
 17 20  1  0
 20 21  1  0
 21 22  2  0
 22 23  1  0
 23 24  2  0
 24 25  1  0
 25 26  2  0
 12  4  1  0
 26 21  1  0
  1 27  1  0
  1 28  1  0
  1 29  1  0
  2 30  1  0
  3 31  1  0
  3 32  1  0
  3 33  1  0
  5 34  1  0
  6 35  1  0
  7 36  1  0
  9 37  1  0
 10 38  1  0
 10 39  1  0
 10 40  1  0
 11 41  1  0
 11 42  1  0
 11 43  1  0
 22 44  1  0
 23 45  1  0
 24 46  1  0
 25 47  1  0
 26 48  1  0
M  CHG  1  16  -1
M  END
>  <UniqueID>  (68) 
62

>  <SMILES>  (68) 
CC(C)c1cccc(C(C)C)c1OC(=O)[N-]S(=O)(=O)Oc1ccccc1

>  <Energy>  (68) 
45.370932597023405

>  <Genealogy>  (68) 
CC(C)c1cccc(C(C)C)c1OC(=O)[N-]S(=O)(=O)Oc1ccccc1 (protonated)
CC(C)c1cccc(C(C)C)c1OC(=O)[N-]S(=O)(=O)Oc1ccccc1 (3D coordinates assigned)
CC(C)c1cccc(C(C)C)c1OC(=O)[N-]S(=O)(=O)Oc1ccccc1 (optimized conformer: 45.370932597023405 kcal/mol)

>  <smiles>  (68) 
CC(C)c1cccc(C(C)C)c1OC(=O)NS(=O)(=O)Oc1ccccc1

>  <score_type>  (68) 
oracle

>  <origin>  (68) 
adg

>  <m_score__min__energy>  (68) 
-9.7799999999999994

>  <m_primary>  (68) 
energy

$$$$
68:0
     RDKit          3D

 39 41  0  0  0  0  0  0  0  0999 V2000
   57.8812   28.0185   43.0553 H   0  0  0  0  0  0  0  0  0  0  0  0
   57.2640   28.6790   43.6820 C   0  0  0  0  0  0  0  0  0  0  0  0
   57.0220   28.2960   45.0900 C   0  0  0  0  0  0  0  0  0  0  0  0
   56.6690   29.1990   45.8950 O   0  0  0  0  0  0  0  0  0  0  0  0
   57.2120   26.9110   45.6000 C   0  0  0  0  0  0  0  0  0  0  0  0
   56.1010   26.1750   46.0600 C   0  0  0  0  0  0  0  0  0  0  0  0
   54.8180   26.7100   45.9980 O   0  0  0  0  0  0  0  0  0  0  0  0
   56.2730   24.8870   46.5740 C   0  0  0  0  0  0  0  0  0  0  0  0
   55.4005   24.3176   46.9267 H   0  0  0  0  0  0  0  0  0  0  0  0
   57.5450   24.3200   46.6420 C   0  0  0  0  0  0  0  0  0  0  0  0
   57.7080   23.0400   47.1570 O   0  0  0  0  0  0  0  0  0  0  0  0
   58.6560   25.0380   46.1970 C   0  0  0  0  0  0  0  0  0  0  0  0
   59.6574   24.5863   46.2541 H   0  0  0  0  0  0  0  0  0  0  0  0
   58.5030   26.3380   45.6750 C   0  0  0  0  0  0  0  0  0  0  0  0
   59.6060   27.0850   45.2340 O   0  0  0  0  0  0  0  0  0  0  0  0
   60.6580   27.5690   46.0620 C   0  0  0  0  0  0  0  0  0  0  0  0
   60.8744   26.8361   46.8532 H   0  0  0  0  0  0  0  0  0  0  0  0
   61.5676   27.7243   45.4632 H   0  0  0  0  0  0  0  0  0  0  0  0
   60.2210   28.8660   46.6790 C   0  0  0  0  0  0  0  0  0  0  0  0
   60.2540   30.0580   45.9340 C   0  0  0  0  0  0  0  0  0  0  0  0
   60.6499   30.0526   44.9077 H   0  0  0  0  0  0  0  0  0  0  0  0
   59.7850   31.2500   46.4940 C   0  0  0  0  0  0  0  0  0  0  0  0
   59.8224   32.1821   45.9111 H   0  0  0  0  0  0  0  0  0  0  0  0
   59.2690   31.2600   47.7920 C   0  0  0  0  0  0  0  0  0  0  0  0
   58.8986   32.1990   48.2291 H   0  0  0  0  0  0  0  0  0  0  0  0
   59.2230   30.0770   48.5360 C   0  0  0  0  0  0  0  0  0  0  0  0
   58.5600   30.0880   50.1590 Cl  0  0  0  0  0  0  0  0  0  0  0  0
   59.6970   28.8820   47.9810 C   0  0  0  0  0  0  0  0  0  0  0  0
   59.6585   27.9523   48.5676 H   0  0  0  0  0  0  0  0  0  0  0  0
   56.7640   29.7950   43.1380 C   0  0  0  0  0  0  0  0  0  0  0  0
   55.9367   29.7090   42.4181 H   0  0  0  0  0  0  0  0  0  0  0  0
   57.2810   31.1340   43.4680 C   0  0  0  0  0  0  0  0  0  0  0  0
   57.0260   31.9930   44.8960 S   0  0  0  0  0  0  0  0  0  0  0  0
   57.9780   33.3180   44.4880 C   0  0  0  0  0  0  0  0  0  0  0  0
   58.1476   34.2069   45.1134 H   0  0  0  0  0  0  0  0  0  0  0  0
   58.5130   33.0970   43.2260 C   0  0  0  0  0  0  0  0  0  0  0  0
   59.1786   33.8126   42.7212 H   0  0  0  0  0  0  0  0  0  0  0  0
   58.1260   31.8780   42.6560 C   0  0  0  0  0  0  0  0  0  0  0  0
   58.4588   31.5429   41.6625 H   0  0  0  0  0  0  0  0  0  0  0  0
  1  2  1  0
  2  3  1  0
  3  4  2  0
  3  5  1  0
  5  6  2  0
  6  7  1  0
  6  8  1  0
  8  9  1  0
  8 10  2  0
 10 11  1  0
 10 12  1  0
 12 13  1  0
 12 14  2  0
 14 15  1  0
 15 16  1  0
 16 17  1  0
 16 18  1  0
 16 19  1  0
 19 20  2  0
 20 21  1  0
 20 22  1  0
 22 23  1  0
 22 24  2  0
 24 25  1  0
 24 26  1  0
 26 27  1  0
 26 28  2  0
 28 29  1  0
  2 30  2  0
 30 31  1  0
 30 32  1  0
 32 33  1  0
 33 34  1  0
 34 35  1  0
 34 36  2  0
 36 37  1  0
 36 38  1  0
 38 39  1  0
 14  5  1  0
 28 19  1  0
 38 32  2  0
M  CHG  2   7  -1  11  -1
M  END
>  <UniqueID>  (69) 
63

>  <SMILES>  (69) 
O=C(/C=C/c1cccs1)c1c([O-])cc([O-])cc1OCc1cccc(Cl)c1

>  <Energy>  (69) 
69.18318448594414

>  <Genealogy>  (69) 
O=C(C=Cc1cccs1)c1c([O-])cc([O-])cc1OCc1cccc(Cl)c1 (protonated)
O=C(/C=C/c1cccs1)c1c([O-])cc([O-])cc1OCc1cccc(Cl)c1 (cis-trans isomerization)
O=C(/C=C/c1cccs1)c1c([O-])cc([O-])cc1OCc1cccc(Cl)c1 (3D coordinates assigned)
O=C(/C=C/c1cccs1)c1c([O-])cc([O-])cc1OCc1cccc(Cl)c1 (optimized conformer: 69.18318448594414 kcal/mol)

>  <smiles>  (69) 
O=C(C=Cc1cccs1)c1c(O)cc(O)cc1OCc1cccc(Cl)c1

>  <score_type>  (69) 
oracle

>  <origin>  (69) 
adg

>  <m_score__min__energy>  (69) 
-13.9

>  <m_primary>  (69) 
energy

$$$$
69:0
     RDKit          3D

 48 50  0  0  0  0  0  0  0  0999 V2000
   57.3477   30.2021   42.2200 H   0  0  0  0  0  0  0  0  0  0  0  0
   57.3440   30.1970   43.3200 C   0  0  0  0  0  0  0  0  0  0  0  0
   57.2970   28.9970   43.9280 C   0  0  0  0  0  0  0  0  0  0  0  0
   57.7690   27.8430   43.2030 C   0  0  0  0  0  0  0  0  0  0  0  0
   58.1480   26.9170   42.6210 N   0  0  0  0  0  0  0  0  0  0  0  0
   56.8320   28.7890   45.3130 C   0  0  0  0  0  0  0  0  0  0  0  0
   56.1840   27.7460   45.5980 O   0  0  0  0  0  0  0  0  0  0  0  0
   57.1870   29.7260   46.3410 N   0  0  0  0  0  0  0  0  0  0  0  0
   58.4470   29.7580   47.0860 C   0  0  0  0  0  0  0  0  0  0  0  0
   58.2105   29.9887   48.1352 H   0  0  0  0  0  0  0  0  0  0  0  0
   59.3780   30.8870   46.5770 C   0  0  0  0  0  0  0  0  0  0  0  0
   59.2002   31.0286   45.5007 H   0  0  0  0  0  0  0  0  0  0  0  0
   59.1425   31.7920   47.1563 H   0  0  0  0  0  0  0  0  0  0  0  0
   60.8740   30.5810   46.7910 C   0  0  0  0  0  0  0  0  0  0  0  0
   61.2529   30.0266   45.9198 H   0  0  0  0  0  0  0  0  0  0  0  0
   61.4061   31.5362   46.9115 H   0  0  0  0  0  0  0  0  0  0  0  0
   61.1050   29.7420   48.0530 C   0  0  0  0  0  0  0  0  0  0  0  0
   62.1849   29.5700   48.1726 H   0  0  0  0  0  0  0  0  0  0  0  0
   60.6935   30.2958   48.9097 H   0  0  0  0  0  0  0  0  0  0  0  0
   60.3880   28.3770   47.9780 C   0  0  0  0  0  0  0  0  0  0  0  0
   61.0972   27.6328   47.5866 H   0  0  0  0  0  0  0  0  0  0  0  0
   60.0471   28.1355   48.9956 H   0  0  0  0  0  0  0  0  0  0  0  0
   59.1400   28.3840   47.0730 C   0  0  0  0  0  0  0  0  0  0  0  0
   59.4432   28.1454   46.0429 H   0  0  0  0  0  0  0  0  0  0  0  0
   58.4310   27.6342   47.4538 H   0  0  0  0  0  0  0  0  0  0  0  0
   57.3910   31.5060   43.9990 C   0  0  0  0  0  0  0  0  0  0  0  0
   58.4030   32.3980   43.9060 N   0  0  0  0  0  0  0  0  0  0  0  0
   57.9730   33.3840   44.7220 C   0  0  0  0  0  0  0  0  0  0  0  0
   58.7600   34.6210   45.0190 C   0  0  0  0  0  0  0  0  0  0  0  0
   58.0688   35.4555   45.2084 H   0  0  0  0  0  0  0  0  0  0  0  0
   59.4018   34.8555   44.1570 H   0  0  0  0  0  0  0  0  0  0  0  0
   59.6220   34.4050   46.2300 C   0  0  0  0  0  0  0  0  0  0  0  0
   60.9790   34.0730   46.0850 C   0  0  0  0  0  0  0  0  0  0  0  0
   61.4201   33.9961   45.0802 H   0  0  0  0  0  0  0  0  0  0  0  0
   61.7710   33.8400   47.2130 C   0  0  0  0  0  0  0  0  0  0  0  0
   62.8375   33.5989   47.0924 H   0  0  0  0  0  0  0  0  0  0  0  0
   61.2130   33.9120   48.4980 C   0  0  0  0  0  0  0  0  0  0  0  0
   62.0690   33.6990   49.7110 C   0  0  0  0  0  0  0  0  0  0  0  0
   61.4643   33.8495   50.6175 H   0  0  0  0  0  0  0  0  0  0  0  0
   62.4684   32.6741   49.7026 H   0  0  0  0  0  0  0  0  0  0  0  0
   62.9021   34.4172   49.7026 H   0  0  0  0  0  0  0  0  0  0  0  0
   59.8590   34.2470   48.6430 C   0  0  0  0  0  0  0  0  0  0  0  0
   59.4191   34.3251   49.6482 H   0  0  0  0  0  0  0  0  0  0  0  0
   59.0660   34.4820   47.5170 C   0  0  0  0  0  0  0  0  0  0  0  0
   58.0010   34.7285   47.6393 H   0  0  0  0  0  0  0  0  0  0  0  0
   56.7920   33.0840   45.2880 N   0  0  0  0  0  0  0  0  0  0  0  0
   56.2430   33.6510   45.9720 H   0  0  0  0  0  0  0  0  0  0  0  0
   56.4580   31.9210   44.8250 O   0  0  0  0  0  0  0  0  0  0  0  0
  1  2  1  0
  2  3  2  0
  3  4  1  0
  4  5  3  0
  3  6  1  0
  6  7  2  0
  6  8  1  0
  8  9  1  0
  9 10  1  0
  9 11  1  0
 11 12  1  0
 11 13  1  0
 11 14  1  0
 14 15  1  0
 14 16  1  0
 14 17  1  0
 17 18  1  0
 17 19  1  0
 17 20  1  0
 20 21  1  0
 20 22  1  0
 20 23  1  0
 23 24  1  0
 23 25  1  0
  2 26  1  0
 26 27  2  0
 27 28  1  0
 28 29  1  0
 29 30  1  0
 29 31  1  0
 29 32  1  0
 32 33  2  0
 33 34  1  0
 33 35  1  0
 35 36  1  0
 35 37  2  0
 37 38  1  0
 38 39  1  0
 38 40  1  0
 38 41  1  0
 37 42  1  0
 42 43  1  0
 42 44  2  0
 44 45  1  0
 28 46  2  0
 46 47  1  0
 46 48  1  0
 23  9  1  0
 48 26  1  0
 44 32  1  0
M  CHG  2   8  -1  46   1
M  END
>  <UniqueID>  (70) 
64

>  <SMILES>  (70) 
Cc1ccc(Cc2nc(/C=C(/C#N)C(=O)[N-]C3CCCCC3)o[nH+]2)cc1

>  <Energy>  (70) 
85.15085756397151

>  <Genealogy>  (70) 
Cc1ccc(Cc2nc(C=C(C#N)C(=O)[N-]C3CCCCC3)o[nH+]2)cc1 (protonated)
Cc1ccc(Cc2nc(/C=C(/C#N)C(=O)[N-]C3CCCCC3)o[nH+]2)cc1 (cis-trans isomerization)
Cc1ccc(Cc2nc(/C=C(/C#N)C(=O)[N-]C3CCCCC3)o[nH+]2)cc1 (3D coordinates assigned)
Cc1ccc(Cc2nc(/C=C(/C#N)C(=O)[N-]C3CCCCC3)o[nH+]2)cc1 (nonaromatic ring conformer: 85.15085756397151 kcal/mol)

>  <smiles>  (70) 
Cc1ccc(Cc2noc(C=C(C#N)C(=O)NC3CCCCC3)n2)cc1

>  <score_type>  (70) 
oracle

>  <origin>  (70) 
adg

>  <m_score__min__energy>  (70) 
-9.75

>  <m_primary>  (70) 
energy

$$$$
70:0
     RDKit          3D

 32 32  0  0  0  0  0  0  0  0999 V2000
   53.5960   24.3100   45.1190 C   0  0  0  0  0  0  0  0  0  0  0  0
   54.8330   23.8200   45.8060 C   0  0  0  0  0  0  0  0  0  0  0  0
   54.8140   22.6750   46.3360 O   0  0  0  0  0  0  0  0  0  0  0  0
   56.0750   24.6330   45.8590 C   0  0  0  0  0  0  0  0  0  0  0  0
   56.0150   26.0390   45.9740 C   0  0  0  0  0  0  0  0  0  0  0  0
   54.7940   26.7030   46.0110 O   0  0  0  0  0  0  0  0  0  0  0  0
   57.1880   26.7940   46.0250 C   0  0  0  0  0  0  0  0  0  0  0  0
   58.4380   26.1700   45.9640 C   0  0  0  0  0  0  0  0  0  0  0  0
   59.6940   26.9930   45.9770 C   0  0  0  0  0  0  0  0  0  0  0  0
   58.5080   24.7800   45.8180 C   0  0  0  0  0  0  0  0  0  0  0  0
   57.3360   23.9990   45.7690 C   0  0  0  0  0  0  0  0  0  0  0  0
   57.3830   22.5970   45.6570 O   0  0  0  0  0  0  0  0  0  0  0  0
   57.9710   21.8600   44.5840 C   0  0  0  0  0  0  0  0  0  0  0  0
   56.8880   21.2420   43.6830 C   0  0  2  0  0  0  0  0  0  0  0  0
   55.8880   22.1930   43.4200 O   0  0  0  0  0  0  0  0  0  0  0  0
   56.2560   20.0230   44.3670 C   0  0  0  0  0  0  0  0  0  0  0  0
   55.2890   20.4280   45.2970 O   0  0  0  0  0  0  0  0  0  0  0  0
   52.8507   24.6052   45.8723 H   0  0  0  0  0  0  0  0  0  0  0  0
   53.8450   25.1774   44.4900 H   0  0  0  0  0  0  0  0  0  0  0  0
   53.1835   23.5074   44.4900 H   0  0  0  0  0  0  0  0  0  0  0  0
   57.1286   27.8888   46.1139 H   0  0  0  0  0  0  0  0  0  0  0  0
   59.9932   27.1890   47.0172 H   0  0  0  0  0  0  0  0  0  0  0  0
   60.4967   26.4452   45.4616 H   0  0  0  0  0  0  0  0  0  0  0  0
   59.5122   27.9476   45.4616 H   0  0  0  0  0  0  0  0  0  0  0  0
   59.4902   24.2909   45.7405 H   0  0  0  0  0  0  0  0  0  0  0  0
   58.5964   22.5364   43.9829 H   0  0  0  0  0  0  0  0  0  0  0  0
   58.5801   21.0481   45.0081 H   0  0  0  0  0  0  0  0  0  0  0  0
   57.3569   20.9248   42.7399 H   0  0  0  0  0  0  0  0  0  0  0  0
   55.5040   22.4560   44.2970 H   0  0  0  0  0  0  0  0  0  0  0  0
   55.7816   19.3863   43.6057 H   0  0  0  0  0  0  0  0  0  0  0  0
   57.0429   19.4629   44.8933 H   0  0  0  0  0  0  0  0  0  0  0  0
   55.4650   21.3860   45.4910 H   0  0  0  0  0  0  0  0  0  0  0  0
  1  2  1  0
  2  3  2  0
  2  4  1  0
  4  5  2  0
  5  6  1  0
  5  7  1  0
  7  8  2  0
  8  9  1  0
  8 10  1  0
 10 11  2  0
 11 12  1  0
 12 13  1  0
 13 14  1  0
 14 15  1  0
 14 16  1  0
 16 17  1  0
 11  4  1  0
  1 18  1  0
  1 19  1  0
  1 20  1  0
  7 21  1  0
  9 22  1  0
  9 23  1  0
  9 24  1  0
 10 25  1  0
 13 26  1  0
 13 27  1  0
 14 28  1  6
 15 29  1  0
 16 30  1  0
 16 31  1  0
 17 32  1  0
M  CHG  1   6  -1
M  END
>  <UniqueID>  (71) 
65

>  <SMILES>  (71) 
CC(=O)c1c([O-])cc(C)cc1OC[C@H](O)CO

>  <Energy>  (71) 
30.55000853421496

>  <Genealogy>  (71) 
CC(=O)c1c([O-])cc(C)cc1OCC(O)CO (protonated)
CC(=O)c1c([O-])cc(C)cc1OC[C@H](O)CO (chirality)
CC(=O)c1c([O-])cc(C)cc1OC[C@H](O)CO (3D coordinates assigned)
CC(=O)c1c([O-])cc(C)cc1OC[C@H](O)CO (optimized conformer: 30.55000853421496 kcal/mol)

>  <smiles>  (71) 
CC(=O)c1c(O)cc(C)cc1OCC(O)CO

>  <score_type>  (71) 
oracle

>  <origin>  (71) 
adg

>  <m_score__min__energy>  (71) 
-7.8600000000000003

>  <m_primary>  (71) 
energy

$$$$
71:0
     RDKit          3D

 51 54  0  0  0  0  0  0  0  0999 V2000
   55.1350   29.3320   44.8580 N   0  0  0  0  0  0  0  0  0  0  0  0
   56.7160   29.3900   44.1630 S   0  0  0  0  0  0  0  0  0  0  0  0
   57.4690   28.1420   44.5340 O   0  0  0  0  0  0  0  0  0  0  0  0
   56.6060   29.4570   42.6640 O   0  0  0  0  0  0  0  0  0  0  0  0
   57.5710   30.8070   44.7590 C   0  0  0  0  0  0  0  0  0  0  0  0
   58.4980   30.6890   45.8030 C   0  0  0  0  0  0  0  0  0  0  0  0
   59.1680   31.8200   46.2830 C   0  0  0  0  0  0  0  0  0  0  0  0
   58.9170   33.0810   45.7200 C   0  0  0  0  0  0  0  0  0  0  0  0
   59.6090   34.3080   46.2500 C   0  0  0  0  0  0  0  0  0  0  0  0
   60.7580   33.9220   47.0640 N   0  0  0  0  0  0  0  0  0  0  0  0
   60.6270   33.5290   48.4400 C   0  0  0  0  0  0  0  0  0  0  0  0
   59.4830   33.2870   48.9120 O   0  0  0  0  0  0  0  0  0  0  0  0
   61.8180   33.3870   49.3090 C   0  0  0  0  0  0  0  0  0  0  0  0
   62.4120   34.5410   49.8920 C   0  0  0  0  0  0  0  0  0  0  0  0
   63.5480   34.4300   50.7170 C   0  0  0  0  0  0  0  0  0  0  0  0
   64.0700   33.1590   50.9280 C   0  0  0  0  0  0  0  0  0  0  0  0
   65.1370   32.8190   51.6720 N   0  0  0  0  0  0  0  0  0  0  0  0
   65.1710   31.4700   51.5080 C   0  0  0  0  0  0  0  0  0  0  0  0
   66.1760   30.5900   52.1830 C   0  0  0  0  0  0  0  0  0  0  0  0
   67.2740   30.1470   51.2080 C   0  0  0  0  0  0  0  0  0  0  0  0
   67.1990   28.6690   50.9190 C   0  0  0  0  0  0  0  0  0  0  0  0
   68.0800   28.0840   49.9940 C   0  0  0  0  0  0  0  0  0  0  0  0
   68.0400   26.7060   49.7590 C   0  0  0  0  0  0  0  0  0  0  0  0
   67.1290   25.9030   50.4500 C   0  0  0  0  0  0  0  0  0  0  0  0
   66.2550   26.4770   51.3790 C   0  0  0  0  0  0  0  0  0  0  0  0
   66.2900   27.8550   51.6160 C   0  0  0  0  0  0  0  0  0  0  0  0
   64.2050   31.0060   50.7310 O   0  0  0  0  0  0  0  0  0  0  0  0
   63.5150   32.0520   50.3670 C   0  0  0  0  0  0  0  0  0  0  0  0
   62.3930   32.1150   49.5480 C   0  0  0  0  0  0  0  0  0  0  0  0
   57.9750   33.2000   44.6870 C   0  0  0  0  0  0  0  0  0  0  0  0
   57.3080   32.0690   44.2090 C   0  0  0  0  0  0  0  0  0  0  0  0
   55.1680   28.6290   45.6300 H   0  0  0  0  0  0  0  0  0  0  0  0
   58.7000   29.7032   46.2472 H   0  0  0  0  0  0  0  0  0  0  0  0
   59.8934   31.7205   47.1039 H   0  0  0  0  0  0  0  0  0  0  0  0
   59.9513   34.9258   45.4067 H   0  0  0  0  0  0  0  0  0  0  0  0
   58.9035   34.8804   46.8702 H   0  0  0  0  0  0  0  0  0  0  0  0
   61.6960   33.8980   46.6050 H   0  0  0  0  0  0  0  0  0  0  0  0
   61.9783   35.5327   49.6958 H   0  0  0  0  0  0  0  0  0  0  0  0
   64.0060   35.3175   51.1780 H   0  0  0  0  0  0  0  0  0  0  0  0
   66.6370   31.1445   53.0137 H   0  0  0  0  0  0  0  0  0  0  0  0
   65.6583   29.6928   52.5533 H   0  0  0  0  0  0  0  0  0  0  0  0
   67.1582   30.7011   50.2648 H   0  0  0  0  0  0  0  0  0  0  0  0
   68.2494   30.3571   51.6710 H   0  0  0  0  0  0  0  0  0  0  0  0
   68.8034   28.7118   49.4530 H   0  0  0  0  0  0  0  0  0  0  0  0
   68.7270   26.2534   49.0288 H   0  0  0  0  0  0  0  0  0  0  0  0
   67.0991   24.8194   50.2634 H   0  0  0  0  0  0  0  0  0  0  0  0
   65.5392   25.8439   51.9239 H   0  0  0  0  0  0  0  0  0  0  0  0
   65.6040   28.3028   52.3501 H   0  0  0  0  0  0  0  0  0  0  0  0
   61.9656   31.2058   49.1000 H   0  0  0  0  0  0  0  0  0  0  0  0
   57.7608   34.1873   44.2518 H   0  0  0  0  0  0  0  0  0  0  0  0
   56.5728   32.1696   43.3970 H   0  0  0  0  0  0  0  0  0  0  0  0
  1  2  1  0
  2  3  2  0
  2  4  2  0
  2  5  1  0
  5  6  2  0
  6  7  1  0
  7  8  2  0
  8  9  1  0
  9 10  1  0
 10 11  1  0
 11 12  2  0
 11 13  1  0
 13 14  2  0
 14 15  1  0
 15 16  2  0
 16 17  1  0
 17 18  2  0
 18 19  1  0
 19 20  1  0
 20 21  1  0
 21 22  2  0
 22 23  1  0
 23 24  2  0
 24 25  1  0
 25 26  2  0
 18 27  1  0
 27 28  1  0
 28 29  2  0
  8 30  1  0
 30 31  2  0
 31  5  1  0
 29 13  1  0
 28 16  1  0
 26 21  1  0
  1 32  1  0
  6 33  1  0
  7 34  1  0
  9 35  1  0
  9 36  1  0
 10 37  1  0
 14 38  1  0
 15 39  1  0
 19 40  1  0
 19 41  1  0
 20 42  1  0
 20 43  1  0
 22 44  1  0
 23 45  1  0
 24 46  1  0
 25 47  1  0
 26 48  1  0
 29 49  1  0
 30 50  1  0
 31 51  1  0
M  CHG  1   1  -1
M  END
>  <UniqueID>  (72) 
66

>  <SMILES>  (72) 
[NH-]S(=O)(=O)c1ccc(CNC(=O)c2ccc3nc(CCc4ccccc4)oc3c2)cc1

>  <Energy>  (72) 
87.7220455051258

>  <Genealogy>  (72) 
[NH-]S(=O)(=O)c1ccc(CNC(=O)c2ccc3nc(CCc4ccccc4)oc3c2)cc1 (protonated)
[NH-]S(=O)(=O)c1ccc(CNC(=O)c2ccc3nc(CCc4ccccc4)oc3c2)cc1 (3D coordinates assigned)
[NH-]S(=O)(=O)c1ccc(CNC(=O)c2ccc3nc(CCc4ccccc4)oc3c2)cc1 (optimized conformer: 87.7220455051258 kcal/mol)

>  <smiles>  (72) 
NS(=O)(=O)c1ccc(CNC(=O)c2ccc3nc(CCc4ccccc4)oc3c2)cc1

>  <score_type>  (72) 
oracle

>  <origin>  (72) 
adg

>  <m_score__min__energy>  (72) 
-12.24

>  <m_primary>  (72) 
energy

$$$$
72:0
     RDKit          3D

 56 58  0  0  0  0  0  0  0  0999 V2000
   57.4380   24.4730   47.8900 C   0  0  0  0  0  0  0  0  0  0  0  0
   57.9980   25.3210   46.7950 C   0  0  0  0  0  0  0  0  0  0  0  0
   59.0840   26.1050   46.9390 N   0  0  0  0  0  0  0  0  0  0  0  0
   59.2790   26.7380   45.7910 N   0  0  0  0  0  0  0  0  0  0  0  0
   60.3440   27.7230   45.5970 C   0  0  0  0  0  0  0  0  0  0  0  0
   60.3970   28.6730   46.7640 C   0  0  0  0  0  0  0  0  0  0  0  0
   60.0100   28.2520   48.0450 C   0  0  0  0  0  0  0  0  0  0  0  0
   60.1160   29.1180   49.1360 C   0  0  0  0  0  0  0  0  0  0  0  0
   60.6170   30.4220   48.9640 C   0  0  0  0  0  0  0  0  0  0  0  0
   60.7980   31.3160   50.0800 N   0  0  0  0  0  0  0  0  0  0  0  0
   60.2460   32.6700   50.1430 C   0  0  0  0  0  0  0  0  0  0  0  0
   59.0500   32.7830   49.2500 C   0  0  0  0  0  0  0  0  0  0  0  0
   58.0520   32.0370   49.4440 O   0  0  0  0  0  0  0  0  0  0  0  0
   59.0490   33.7400   48.1850 N   0  0  0  0  0  0  0  0  0  0  0  0
   58.6890   33.4730   46.8230 C   0  0  0  0  0  0  0  0  0  0  0  0
   58.8300   34.4470   45.8160 C   0  0  0  0  0  0  0  0  0  0  0  0
   58.4220   34.1700   44.5080 C   0  0  0  0  0  0  0  0  0  0  0  0
   57.8680   32.9260   44.1930 C   0  0  0  0  0  0  0  0  0  0  0  0
   57.7170   31.9510   45.1900 C   0  0  0  0  0  0  0  0  0  0  0  0
   57.0150   30.3860   44.7880 S   0  0  0  0  0  0  0  0  0  0  0  0
   57.7940   29.7370   43.3880 N   0  0  0  0  0  0  0  0  0  0  0  0
   57.1930   29.4430   45.9450 O   0  0  0  0  0  0  0  0  0  0  0  0
   55.5430   30.5400   44.5150 O   0  0  0  0  0  0  0  0  0  0  0  0
   58.1140   32.2360   46.5060 C   0  0  0  0  0  0  0  0  0  0  0  0
   60.9690   30.8510   47.6750 C   0  0  0  0  0  0  0  0  0  0  0  0
   60.8620   29.9850   46.5840 C   0  0  0  0  0  0  0  0  0  0  0  0
   58.3290   26.3730   44.9010 C   0  0  0  0  0  0  0  0  0  0  0  0
   58.1630   26.9500   43.5270 C   0  0  0  0  0  0  0  0  0  0  0  0
   57.4670   25.4860   45.5260 C   0  0  0  0  0  0  0  0  0  0  0  0
   56.2430   24.8310   44.9530 C   0  0  0  0  0  0  0  0  0  0  0  0
   55.0140   25.3470   45.6270 C   0  0  0  0  0  0  0  0  0  0  0  0
   54.0380   24.5790   45.8360 O   0  0  0  0  0  0  0  0  0  0  0  0
   54.9340   26.6830   46.0070 O   0  0  0  0  0  0  0  0  0  0  0  0
   57.7195   24.8992   48.8642 H   0  0  0  0  0  0  0  0  0  0  0  0
   56.3416   24.4426   47.8060 H   0  0  0  0  0  0  0  0  0  0  0  0
   57.8406   23.4528   47.8060 H   0  0  0  0  0  0  0  0  0  0  0  0
   61.3087   27.2017   45.5095 H   0  0  0  0  0  0  0  0  0  0  0  0
   60.1396   28.2946   44.6797 H   0  0  0  0  0  0  0  0  0  0  0  0
   59.6207   27.2337   48.1913 H   0  0  0  0  0  0  0  0  0  0  0  0
   59.8061   28.7788   50.1354 H   0  0  0  0  0  0  0  0  0  0  0  0
   61.2650   30.9500   50.9420 H   0  0  0  0  0  0  0  0  0  0  0  0
   59.9488   32.8934   51.1783 H   0  0  0  0  0  0  0  0  0  0  0  0
   61.0119   33.3856   49.8093 H   0  0  0  0  0  0  0  0  0  0  0  0
   59.2625   35.4287   46.0593 H   0  0  0  0  0  0  0  0  0  0  0  0
   58.5373   34.9333   43.7243 H   0  0  0  0  0  0  0  0  0  0  0  0
   57.5501   32.7114   43.1621 H   0  0  0  0  0  0  0  0  0  0  0  0
   57.7700   30.4800   42.6540 H   0  0  0  0  0  0  0  0  0  0  0  0
   58.8000   29.5910   43.6360 H   0  0  0  0  0  0  0  0  0  0  0  0
   57.9724   31.4819   47.2942 H   0  0  0  0  0  0  0  0  0  0  0  0
   61.3323   31.8780   47.5224 H   0  0  0  0  0  0  0  0  0  0  0  0
   61.1435   30.3330   45.5792 H   0  0  0  0  0  0  0  0  0  0  0  0
   57.8597   28.0044   43.6063 H   0  0  0  0  0  0  0  0  0  0  0  0
   59.1169   26.8828   42.9834 H   0  0  0  0  0  0  0  0  0  0  0  0
   57.3906   26.3861   42.9834 H   0  0  0  0  0  0  0  0  0  0  0  0
   56.1851   25.0494   43.8765 H   0  0  0  0  0  0  0  0  0  0  0  0
   56.3100   23.7450   45.1146 H   0  0  0  0  0  0  0  0  0  0  0  0
  1  2  1  0
  2  3  2  0
  3  4  1  0
  4  5  1  0
  5  6  1  0
  6  7  2  0
  7  8  1  0
  8  9  2  0
  9 10  1  0
 10 11  1  0
 11 12  1  0
 12 13  2  0
 12 14  1  0
 14 15  1  0
 15 16  2  0
 16 17  1  0
 17 18  2  0
 18 19  1  0
 19 20  1  0
 20 21  1  0
 20 22  2  0
 20 23  2  0
 19 24  2  0
  9 25  1  0
 25 26  2  0
  4 27  1  0
 27 28  1  0
 27 29  2  0
 29 30  1  0
 30 31  1  0
 31 32  2  0
 31 33  1  0
 29  2  1  0
 26  6  1  0
 24 15  1  0
  1 34  1  0
  1 35  1  0
  1 36  1  0
  5 37  1  0
  5 38  1  0
  7 39  1  0
  8 40  1  0
 10 41  1  0
 11 42  1  0
 11 43  1  0
 16 44  1  0
 17 45  1  0
 18 46  1  0
 21 47  1  0
 21 48  1  0
 24 49  1  0
 25 50  1  0
 26 51  1  0
 28 52  1  0
 28 53  1  0
 28 54  1  0
 30 55  1  0
 30 56  1  0
M  CHG  2  14  -1  33  -1
M  END
>  <UniqueID>  (73) 
67

>  <SMILES>  (73) 
Cc1nn(Cc2ccc(NCC(=O)[N-]c3cccc(S(N)(=O)=O)c3)cc2)c(C)c1CC(=O)[O-]

>  <Energy>  (73) 
81.07330446339388

>  <Genealogy>  (73) 
Cc1nn(Cc2ccc(NCC(=O)[N-]c3cccc(S(N)(=O)=O)c3)cc2)c(C)c1CC(=O)[O-] (protonated)
Cc1nn(Cc2ccc(NCC(=O)[N-]c3cccc(S(N)(=O)=O)c3)cc2)c(C)c1CC(=O)[O-] (3D coordinates assigned)
Cc1nn(Cc2ccc(NCC(=O)[N-]c3cccc(S(N)(=O)=O)c3)cc2)c(C)c1CC(=O)[O-] (optimized conformer: 81.07330446339388 kcal/mol)

>  <smiles>  (73) 
Cc1nn(Cc2ccc(NCC(=O)Nc3cccc(S(N)(=O)=O)c3)cc2)c(C)c1CC(=O)O

>  <score_type>  (73) 
oracle

>  <origin>  (73) 
adg

>  <m_score__min__energy>  (73) 
-13.66

>  <m_primary>  (73) 
energy

$$$$
73:0
     RDKit          3D

 37 38  0  0  0  0  0  0  0  0999 V2000
   57.3360   33.6570   44.9590 C   0  0  0  0  0  0  0  0  0  0  0  0
   58.1270   32.6980   44.0560 C   0  0  0  0  0  0  0  0  0  0  0  0
   58.2940   31.3330   44.6090 N   0  0  0  0  0  0  0  0  0  0  0  0
   58.0250   31.2670   46.0600 C   0  0  0  0  0  0  0  0  0  0  0  0
   59.1760   31.8660   46.8250 C   0  0  0  0  0  0  0  0  0  0  0  0
   60.4500   31.2820   46.7440 C   0  0  0  0  0  0  0  0  0  0  0  0
   61.5190   31.8200   47.4690 C   0  0  0  0  0  0  0  0  0  0  0  0
   61.3220   32.9420   48.2780 C   0  0  0  0  0  0  0  0  0  0  0  0
   60.0560   33.5280   48.3660 C   0  0  0  0  0  0  0  0  0  0  0  0
   58.9850   32.9930   47.6430 C   0  0  0  0  0  0  0  0  0  0  0  0
   57.5590   30.2920   43.8570 C   0  0  0  0  0  0  0  0  0  0  0  0
   57.5680   28.9880   44.6160 C   0  0  0  0  0  0  0  0  0  0  0  0
   58.7890   28.3260   44.8160 C   0  0  0  0  0  0  0  0  0  0  0  0
   58.8290   27.1070   45.4970 C   0  0  0  0  0  0  0  0  0  0  0  0
   57.6500   26.5370   45.9810 C   0  0  0  0  0  0  0  0  0  0  0  0
   56.4240   27.1800   45.7860 C   0  0  0  0  0  0  0  0  0  0  0  0
   55.2630   26.5840   46.2770 O   0  0  0  0  0  0  0  0  0  0  0  0
   56.3780   28.4070   45.1000 C   0  0  0  0  0  0  0  0  0  0  0  0
   55.1540   29.0400   44.9000 O   0  0  0  0  0  0  0  0  0  0  0  0
   57.5351   33.4157   46.0136 H   0  0  0  0  0  0  0  0  0  0  0  0
   57.6462   34.6924   44.7550 H   0  0  0  0  0  0  0  0  0  0  0  0
   56.2605   33.5495   44.7550 H   0  0  0  0  0  0  0  0  0  0  0  0
   57.5992   32.6172   43.0943 H   0  0  0  0  0  0  0  0  0  0  0  0
   59.1372   33.1220   43.9569 H   0  0  0  0  0  0  0  0  0  0  0  0
   57.1061   31.8279   46.2860 H   0  0  0  0  0  0  0  0  0  0  0  0
   57.9025   30.2150   46.3571 H   0  0  0  0  0  0  0  0  0  0  0  0
   60.6084   30.3983   46.1083 H   0  0  0  0  0  0  0  0  0  0  0  0
   62.5155   31.3591   47.4020 H   0  0  0  0  0  0  0  0  0  0  0  0
   62.1638   33.3645   48.8461 H   0  0  0  0  0  0  0  0  0  0  0  0
   59.9020   34.4105   49.0043 H   0  0  0  0  0  0  0  0  0  0  0  0
   57.9897   33.4558   47.7148 H   0  0  0  0  0  0  0  0  0  0  0  0
   56.5188   30.6181   43.7095 H   0  0  0  0  0  0  0  0  0  0  0  0
   58.0501   30.1415   42.8843 H   0  0  0  0  0  0  0  0  0  0  0  0
   59.7203   28.7697   44.4342 H   0  0  0  0  0  0  0  0  0  0  0  0
   59.7905   26.5956   45.6521 H   0  0  0  0  0  0  0  0  0  0  0  0
   57.6859   25.5777   46.5181 H   0  0  0  0  0  0  0  0  0  0  0  0
   54.3920   27.0940   46.3680 H   0  0  0  0  0  0  0  0  0  0  0  0
  1  2  1  0
  2  3  1  0
  3  4  1  0
  4  5  1  0
  5  6  2  0
  6  7  1  0
  7  8  2  0
  8  9  1  0
  9 10  2  0
  3 11  1  0
 11 12  1  0
 12 13  2  0
 13 14  1  0
 14 15  2  0
 15 16  1  0
 16 17  1  0
 16 18  2  0
 18 19  1  0
 10  5  1  0
 18 12  1  0
  1 20  1  0
  1 21  1  0
  1 22  1  0
  2 23  1  0
  2 24  1  0
  4 25  1  0
  4 26  1  0
  6 27  1  0
  7 28  1  0
  8 29  1  0
  9 30  1  0
 10 31  1  0
 11 32  1  0
 11 33  1  0
 13 34  1  0
 14 35  1  0
 15 36  1  0
 17 37  1  0
M  CHG  1  19  -1
M  END
>  <UniqueID>  (74) 
68

>  <SMILES>  (74) 
CCN(Cc1ccccc1)Cc1cccc(O)c1[O-]

>  <Energy>  (74) 
39.979865560104415

>  <Genealogy>  (74) 
CCN(Cc1ccccc1)Cc1cccc(O)c1[O-] (protonated)
CCN(Cc1ccccc1)Cc1cccc(O)c1[O-] (3D coordinates assigned)
CCN(Cc1ccccc1)Cc1cccc(O)c1[O-] (optimized conformer: 39.979865560104415 kcal/mol)

>  <smiles>  (74) 
CCN(Cc1ccccc1)Cc1cccc(O)c1O

>  <score_type>  (74) 
oracle

>  <origin>  (74) 
adg

>  <m_score__min__energy>  (74) 
-11.44

>  <m_primary>  (74) 
energy

$$$$
74:0
     RDKit          3D

 36 37  0  0  0  0  0  0  0  0999 V2000
   55.1310   28.8480   45.6000 H   0  0  0  0  0  0  0  0  0  0  0  0
   55.8910   28.2480   45.2080 N   0  0  0  0  0  0  0  0  0  0  0  0
   57.2710   29.2620   44.9800 S   0  0  0  0  0  0  0  0  0  0  0  0
   56.8280   30.6930   44.8480 O   0  0  0  0  0  0  0  0  0  0  0  0
   57.9870   28.8600   43.7220 O   0  0  0  0  0  0  0  0  0  0  0  0
   58.3480   29.1000   46.3630 C   0  0  0  0  0  0  0  0  0  0  0  0
   59.3410   28.1120   46.3710 C   0  0  0  0  0  0  0  0  0  0  0  0
   59.4474   27.4335   45.5117 H   0  0  0  0  0  0  0  0  0  0  0  0
   60.1960   27.9870   47.4680 C   0  0  0  0  0  0  0  0  0  0  0  0
   60.9801   27.2156   47.4673 H   0  0  0  0  0  0  0  0  0  0  0  0
   60.0580   28.8390   48.5660 C   0  0  0  0  0  0  0  0  0  0  0  0
   60.7409   28.7402   49.4226 H   0  0  0  0  0  0  0  0  0  0  0  0
   59.0530   29.8220   48.5850 C   0  0  0  0  0  0  0  0  0  0  0  0
   58.9180   30.7160   49.7610 C   0  0  0  0  0  0  0  0  0  0  0  0
   59.8920   31.4430   50.0950 O   0  0  0  0  0  0  0  0  0  0  0  0
   57.7040   30.7540   50.5320 N   0  0  0  0  0  0  0  0  0  0  0  0
   56.9270   30.0930   50.3150 H   0  0  0  0  0  0  0  0  0  0  0  0
   57.5180   31.6730   51.6540 C   0  0  0  0  0  0  0  0  0  0  0  0
   58.4295   31.6783   52.2697 H   0  0  0  0  0  0  0  0  0  0  0  0
   57.3174   32.6781   51.2546 H   0  0  0  0  0  0  0  0  0  0  0  0
   56.3330   31.2470   52.5190 C   0  0  0  0  0  0  0  0  0  0  0  0
   56.6637   30.4865   53.2417 H   0  0  0  0  0  0  0  0  0  0  0  0
   55.9421   32.1243   53.0552 H   0  0  0  0  0  0  0  0  0  0  0  0
   55.2770   30.6880   51.6760 N   0  0  0  0  0  0  0  0  0  0  0  0
   54.0010   30.6880   51.9400 C   0  0  0  0  0  0  0  0  0  0  0  0
   53.3990   29.7240   52.7760 C   0  0  0  0  0  0  0  0  0  0  0  0
   54.0075   28.9318   53.2366 H   0  0  0  0  0  0  0  0  0  0  0  0
   52.0230   29.7840   53.0140 C   0  0  0  0  0  0  0  0  0  0  0  0
   51.5460   29.0359   53.6642 H   0  0  0  0  0  0  0  0  0  0  0  0
   51.2730   30.7630   52.4450 N   0  0  0  0  0  0  0  0  0  0  0  0
   51.8250   31.7060   51.6360 C   0  0  0  0  0  0  0  0  0  0  0  0
   51.0220   32.6900   51.0730 O   0  0  0  0  0  0  0  0  0  0  0  0
   53.1970   31.6840   51.3700 C   0  0  0  0  0  0  0  0  0  0  0  0
   53.6442   32.4463   50.7151 H   0  0  0  0  0  0  0  0  0  0  0  0
   58.2040   29.9490   47.4700 C   0  0  0  0  0  0  0  0  0  0  0  0
   57.4204   30.7210   47.4666 H   0  0  0  0  0  0  0  0  0  0  0  0
  1  2  1  0
  2  3  1  0
  3  4  2  0
  3  5  2  0
  3  6  1  0
  6  7  2  0
  7  8  1  0
  7  9  1  0
  9 10  1  0
  9 11  2  0
 11 12  1  0
 11 13  1  0
 13 14  1  0
 14 15  2  0
 14 16  1  0
 16 17  1  0
 16 18  1  0
 18 19  1  0
 18 20  1  0
 18 21  1  0
 21 22  1  0
 21 23  1  0
 21 24  1  0
 24 25  2  0
 25 26  1  0
 26 27  1  0
 26 28  2  0
 28 29  1  0
 28 30  1  0
 30 31  1  0
 31 32  1  0
 31 33  2  0
 33 34  1  0
 13 35  2  0
 35 36  1  0
 35  6  1  0
 33 25  1  0
M  CHG  3   2  -1  30  -1  32  -1
M  END
>  <UniqueID>  (75) 
69

>  <SMILES>  (75) 
[NH-]S(=O)(=O)c1cccc(C(=O)NCC/N=c2\cc[n-]c([O-])c2)c1

>  <Energy>  (75) 
36.93889704201148

>  <Genealogy>  (75) 
[NH-]S(=O)(=O)c1cccc(C(=O)NCCN=c2cc[n-]c([O-])c2)c1 (protonated)
[NH-]S(=O)(=O)c1cccc(C(=O)NCC/N=c2\cc[n-]c([O-])c2)c1 (cis-trans isomerization)
[NH-]S(=O)(=O)c1cccc(C(=O)NCC/N=c2\cc[n-]c([O-])c2)c1 (3D coordinates assigned)
[NH-]S(=O)(=O)c1cccc(C(=O)NCC/N=c2\cc[n-]c([O-])c2)c1 (optimized conformer: 36.93889704201148 kcal/mol)

>  <smiles>  (75) 
NS(=O)(=O)c1cccc(C(=O)NCCN=c2cc[nH]c(O)c2)c1

>  <score_type>  (75) 
oracle

>  <origin>  (75) 
adg

>  <m_score__min__energy>  (75) 
-15.84

>  <m_primary>  (75) 
energy

$$$$
75:0
     RDKit          3D

 46 48  0  0  0  0  0  0  0  0999 V2000
   57.5260   25.1400   46.1570 C   0  0  0  0  0  0  0  0  0  0  0  0
   57.5660   26.5770   45.7200 C   0  0  0  0  0  0  0  0  0  0  0  0
   58.7850   27.1800   45.3740 C   0  0  0  0  0  0  0  0  0  0  0  0
   58.8210   28.5160   44.9630 C   0  0  0  0  0  0  0  0  0  0  0  0
   57.6400   29.2660   44.9010 C   0  0  0  0  0  0  0  0  0  0  0  0
   57.6590   30.9370   44.3450 S   0  0  0  0  0  0  0  0  0  0  0  0
   58.6260   31.0520   43.2000 O   0  0  0  0  0  0  0  0  0  0  0  0
   56.2930   31.3450   43.8670 O   0  0  0  0  0  0  0  0  0  0  0  0
   58.1660   31.9640   45.6610 N   0  0  0  0  0  0  0  0  0  0  0  0
   59.2830   32.8340   45.2360 C   0  0  0  0  0  0  0  0  0  0  0  0
   59.4430   34.0940   46.1170 C   0  0  0  0  0  0  0  0  0  0  0  0
   58.8270   33.9540   47.4490 N   0  0  0  0  0  0  0  0  0  0  0  0
   59.6950   33.4530   48.5420 C   0  0  0  0  0  0  0  0  0  0  0  0
   61.0960   33.0690   48.0980 C   0  0  0  0  0  0  0  0  0  0  0  0
   62.0580   34.0820   47.9090 C   0  0  0  0  0  0  0  0  0  0  0  0
   63.3740   33.7630   47.5670 C   0  0  0  0  0  0  0  0  0  0  0  0
   63.7430   32.4330   47.3770 C   0  0  0  0  0  0  0  0  0  0  0  0
   62.7910   31.4200   47.5000 C   0  0  0  0  0  0  0  0  0  0  0  0
   61.4670   31.7250   47.8420 C   0  0  0  0  0  0  0  0  0  0  0  0
   60.2170   30.2700   47.8720 Br  0  0  0  0  0  0  0  0  0  0  0  0
   57.4170   33.5040   47.4490 C   0  0  0  0  0  0  0  0  0  0  0  0
   57.0280   32.7480   46.1650 C   0  0  0  0  0  0  0  0  0  0  0  0
   56.4210   28.6670   45.2440 C   0  0  0  0  0  0  0  0  0  0  0  0
   56.3790   27.3300   45.6510 C   0  0  0  0  0  0  0  0  0  0  0  0
   55.1560   26.7560   45.9830 O   0  0  0  0  0  0  0  0  0  0  0  0
   57.5246   25.0908   47.2559 H   0  0  0  0  0  0  0  0  0  0  0  0
   56.6142   24.6636   45.7675 H   0  0  0  0  0  0  0  0  0  0  0  0
   58.4098   24.6136   45.7675 H   0  0  0  0  0  0  0  0  0  0  0  0
   59.7173   26.5985   45.4264 H   0  0  0  0  0  0  0  0  0  0  0  0
   59.7799   28.9793   44.6875 H   0  0  0  0  0  0  0  0  0  0  0  0
   58.4970   31.3220   46.4140 H   0  0  0  0  0  0  0  0  0  0  0  0
   60.2160   32.2533   45.2837 H   0  0  0  0  0  0  0  0  0  0  0  0
   59.0606   33.1757   44.2143 H   0  0  0  0  0  0  0  0  0  0  0  0
   60.5165   34.2950   46.2478 H   0  0  0  0  0  0  0  0  0  0  0  0
   58.9274   34.9191   45.6038 H   0  0  0  0  0  0  0  0  0  0  0  0
   59.7787   34.2411   49.3048 H   0  0  0  0  0  0  0  0  0  0  0  0
   59.2228   32.5367   48.9260 H   0  0  0  0  0  0  0  0  0  0  0  0
   61.7687   35.1361   48.0323 H   0  0  0  0  0  0  0  0  0  0  0  0
   64.1199   34.5626   47.4475 H   0  0  0  0  0  0  0  0  0  0  0  0
   64.7849   32.1813   47.1300 H   0  0  0  0  0  0  0  0  0  0  0  0
   63.0825   30.3735   47.3270 H   0  0  0  0  0  0  0  0  0  0  0  0
   57.2618   32.8367   48.3096 H   0  0  0  0  0  0  0  0  0  0  0  0
   56.7844   34.4020   47.5072 H   0  0  0  0  0  0  0  0  0  0  0  0
   56.1905   32.0695   46.3846 H   0  0  0  0  0  0  0  0  0  0  0  0
   56.7339   33.4796   45.3980 H   0  0  0  0  0  0  0  0  0  0  0  0
   55.4910   29.2522   45.1928 H   0  0  0  0  0  0  0  0  0  0  0  0
  1  2  1  0
  2  3  2  0
  3  4  1  0
  4  5  2  0
  5  6  1  0
  6  7  2  0
  6  8  2  0
  6  9  1  0
  9 10  1  0
 10 11  1  0
 11 12  1  0
 12 13  1  0
 13 14  1  0
 14 15  2  0
 15 16  1  0
 16 17  2  0
 17 18  1  0
 18 19  2  0
 19 20  1  0
 12 21  1  0
 21 22  1  0
  5 23  1  0
 23 24  2  0
 24 25  1  0
 24  2  1  0
 22  9  1  0
 19 14  1  0
  1 26  1  0
  1 27  1  0
  1 28  1  0
  3 29  1  0
  4 30  1  0
  9 31  1  0
 10 32  1  0
 10 33  1  0
 11 34  1  0
 11 35  1  0
 13 36  1  0
 13 37  1  0
 15 38  1  0
 16 39  1  0
 17 40  1  0
 18 41  1  0
 21 42  1  0
 21 43  1  0
 22 44  1  0
 22 45  1  0
 23 46  1  0
M  CHG  2   9   1  25  -1
M  END
>  <UniqueID>  (76) 
70

>  <SMILES>  (76) 
Cc1ccc(S(=O)(=O)[NH+]2CCN(Cc3ccccc3Br)CC2)cc1[O-]

>  <Energy>  (76) 
62.47269763394719

>  <Genealogy>  (76) 
Cc1ccc(S(=O)(=O)[NH+]2CCN(Cc3ccccc3Br)CC2)cc1[O-] (protonated)
Cc1ccc(S(=O)(=O)[NH+]2CCN(Cc3ccccc3Br)CC2)cc1[O-] (3D coordinates assigned)
Cc1ccc(S(=O)(=O)[NH+]2CCN(Cc3ccccc3Br)CC2)cc1[O-] (nonaromatic ring conformer: 62.47269763394719 kcal/mol)

>  <smiles>  (76) 
Cc1ccc(S(=O)(=O)N2CCN(Cc3ccccc3Br)CC2)cc1O

>  <score_type>  (76) 
oracle

>  <origin>  (76) 
adg

>  <m_score__min__energy>  (76) 
-10.949999999999999

>  <m_primary>  (76) 
energy

$$$$
76:0
     RDKit          3D

 65 70  0  0  0  0  0  0  0  0999 V2000
   57.2830   22.1590   46.7470 N   0  0  0  0  0  0  0  0  0  0  0  0
   57.2180   23.1350   45.6570 C   0  0  0  0  0  0  0  0  0  0  0  0
   57.8010   24.4840   46.0630 C   0  0  0  0  0  0  0  0  0  0  0  0
   59.1180   24.8340   45.7120 C   0  0  0  0  0  0  0  0  0  0  0  0
   59.6170   26.1080   46.0000 C   0  0  0  0  0  0  0  0  0  0  0  0
   58.7990   27.0720   46.6070 C   0  0  0  0  0  0  0  0  0  0  0  0
   59.3160   28.4340   46.8720 C   0  0  0  0  0  0  0  0  0  0  0  0
   58.9120   29.6400   46.2920 C   0  0  0  0  0  0  0  0  0  0  0  0
   57.9460   29.7940   45.1860 C   0  0  0  0  0  0  0  0  0  0  0  0
   58.2660   30.5830   44.0690 C   0  0  0  0  0  0  0  0  0  0  0  0
   57.3390   30.7450   43.0350 C   0  0  0  0  0  0  0  0  0  0  0  0
   56.0870   30.1300   43.1130 C   0  0  0  0  0  0  0  0  0  0  0  0
   55.7580   29.3540   44.2260 C   0  0  0  0  0  0  0  0  0  0  0  0
   56.6820   29.1850   45.2620 C   0  0  0  0  0  0  0  0  0  0  0  0
   59.6550   30.6440   46.8220 N   0  0  0  0  0  0  0  0  0  0  0  0
   60.5040   30.1340   47.6950 N   0  0  0  0  0  0  0  0  0  0  0  0
   60.3300   28.8010   47.7410 C   0  0  0  0  0  0  0  0  0  0  0  0
   61.0030   28.0230   48.4690 O   0  0  0  0  0  0  0  0  0  0  0  0
   61.5440   30.9300   48.3360 C   0  0  0  0  0  0  0  0  0  0  0  0
   61.0750   32.3170   48.5100 N   0  0  0  0  0  0  0  0  0  0  0  0
   61.6220   33.1490   49.5520 C   0  0  0  0  0  0  0  0  0  0  0  0
   60.8390   33.7560   50.3370 O   0  0  0  0  0  0  0  0  0  0  0  0
   63.0420   33.2560   49.7490 N   0  0  0  0  0  0  0  0  0  0  0  0
   63.6180   34.0450   50.8350 C   0  0  0  0  0  0  0  0  0  0  0  0
   65.0870   33.7780   50.9290 C   0  0  0  0  0  0  0  0  0  0  0  0
   65.9490   34.3090   51.8670 C   0  0  0  0  0  0  0  0  0  0  0  0
   67.1790   33.7470   51.5970 C   0  0  0  0  0  0  0  0  0  0  0  0
   66.9900   32.9100   50.5160 C   0  0  0  0  0  0  0  0  0  0  0  0
   65.7320   32.9490   50.1420 O   0  0  0  0  0  0  0  0  0  0  0  0
   60.1190   32.9310   47.5640 C   0  0  0  0  0  0  0  0  0  0  0  0
   59.7690   32.0270   46.3730 C   0  0  0  0  0  0  0  0  0  0  0  0
   57.4760   26.7380   46.9310 C   0  0  0  0  0  0  0  0  0  0  0  0
   56.9780   25.4650   46.6460 C   0  0  0  0  0  0  0  0  0  0  0  0
   55.8200   23.1760   45.0210 C   0  0  0  0  0  0  0  0  0  0  0  0
   56.3710   22.5430   43.7520 C   0  0  0  0  0  0  0  0  0  0  0  0
   57.7710   22.5510   44.3460 C   0  0  0  0  0  0  0  0  0  0  0  0
   57.7650   22.6030   47.5630 H   0  0  0  0  0  0  0  0  0  0  0  0
   56.3070   21.9330   47.0510 H   0  0  0  0  0  0  0  0  0  0  0  0
   59.7609   24.0985   45.2064 H   0  0  0  0  0  0  0  0  0  0  0  0
   60.6588   26.3560   45.7486 H   0  0  0  0  0  0  0  0  0  0  0  0
   59.2481   31.0746   44.0076 H   0  0  0  0  0  0  0  0  0  0  0  0
   57.5959   31.3578   42.1584 H   0  0  0  0  0  0  0  0  0  0  0  0
   55.3602   30.2572   42.2972 H   0  0  0  0  0  0  0  0  0  0  0  0
   54.7699   28.8745   44.2881 H   0  0  0  0  0  0  0  0  0  0  0  0
   56.4188   28.5741   46.1381 H   0  0  0  0  0  0  0  0  0  0  0  0
   61.7802   30.4982   49.3197 H   0  0  0  0  0  0  0  0  0  0  0  0
   62.4446   30.9275   47.7044 H   0  0  0  0  0  0  0  0  0  0  0  0
   63.6830   32.5970   49.2530 H   0  0  0  0  0  0  0  0  0  0  0  0
   63.4528   35.1144   50.6373 H   0  0  0  0  0  0  0  0  0  0  0  0
   63.1358   33.7655   51.7834 H   0  0  0  0  0  0  0  0  0  0  0  0
   65.7060   35.0289   52.6624 H   0  0  0  0  0  0  0  0  0  0  0  0
   68.1211   33.9291   52.1349 H   0  0  0  0  0  0  0  0  0  0  0  0
   67.7740   32.3026   50.0402 H   0  0  0  0  0  0  0  0  0  0  0  0
   59.1919   33.1642   48.1082 H   0  0  0  0  0  0  0  0  0  0  0  0
   60.6012   33.8315   47.1558 H   0  0  0  0  0  0  0  0  0  0  0  0
   58.8119   32.3501   45.9376 H   0  0  0  0  0  0  0  0  0  0  0  0
   60.5629   32.0995   45.6151 H   0  0  0  0  0  0  0  0  0  0  0  0
   56.8265   27.4837   47.4127 H   0  0  0  0  0  0  0  0  0  0  0  0
   55.9300   25.2263   46.8800 H   0  0  0  0  0  0  0  0  0  0  0  0
   55.0727   22.5590   45.5415 H   0  0  0  0  0  0  0  0  0  0  0  0
   55.2612   24.1222   44.9710 H   0  0  0  0  0  0  0  0  0  0  0  0
   55.9775   21.5366   43.5462 H   0  0  0  0  0  0  0  0  0  0  0  0
   56.1817   23.0085   42.7735 H   0  0  0  0  0  0  0  0  0  0  0  0
   58.2178   21.5516   44.4538 H   0  0  0  0  0  0  0  0  0  0  0  0
   58.5946   23.0543   43.8184 H   0  0  0  0  0  0  0  0  0  0  0  0
  1  2  1  0
  2  3  1  0
  3  4  2  0
  4  5  1  0
  5  6  2  0
  6  7  1  0
  7  8  2  0
  8  9  1  0
  9 10  2  0
 10 11  1  0
 11 12  2  0
 12 13  1  0
 13 14  2  0
  8 15  1  0
 15 16  1  0
 16 17  1  0
 17 18  2  0
 16 19  1  0
 19 20  1  0
 20 21  1  0
 21 22  2  0
 21 23  1  0
 23 24  1  0
 24 25  1  0
 25 26  2  0
 26 27  1  0
 27 28  2  0
 28 29  1  0
 20 30  1  0
 30 31  1  0
  6 32  1  0
 32 33  2  0
  2 34  1  0
 34 35  1  0
 35 36  1  0
 36  2  1  0
 33  3  1  0
 17  7  1  0
 29 25  1  0
 14  9  1  0
 31 15  1  0
  1 37  1  0
  1 38  1  0
  4 39  1  0
  5 40  1  0
 10 41  1  0
 11 42  1  0
 12 43  1  0
 13 44  1  0
 14 45  1  0
 19 46  1  0
 19 47  1  0
 23 48  1  0
 24 49  1  0
 24 50  1  0
 26 51  1  0
 27 52  1  0
 28 53  1  0
 30 54  1  0
 30 55  1  0
 31 56  1  0
 31 57  1  0
 32 58  1  0
 33 59  1  0
 34 60  1  0
 34 61  1  0
 35 62  1  0
 35 63  1  0
 36 64  1  0
 36 65  1  0
M  END
>  <UniqueID>  (77) 
71

>  <SMILES>  (77) 
NC1(c2ccc(-c3c(-c4ccccc4)n4n(c3=O)CN(C(=O)NCc3ccco3)CC4)cc2)CCC1

>  <Energy>  (77) 
205.788184709043

>  <Genealogy>  (77) 
NC1(c2ccc(-c3c(-c4ccccc4)n4n(c3=O)CN(C(=O)NCc3ccco3)CC4)cc2)CCC1 (3D coordinates assigned)
NC1(c2ccc(-c3c(-c4ccccc4)n4n(c3=O)CN(C(=O)NCc3ccco3)CC4)cc2)CCC1 (nonaromatic ring conformer: 205.788184709043 kcal/mol)

>  <smiles>  (77) 
NC1(c2ccc(-c3c(-c4ccccc4)n4n(c3=O)CN(C(=O)NCc3ccco3)CC4)cc2)CCC1

>  <score_type>  (77) 
oracle

>  <origin>  (77) 
adg

>  <m_score__min__energy>  (77) 
-8.6799999999999997

>  <m_primary>  (77) 
energy

$$$$
77:0
     RDKit          3D

 51 53  0  0  0  0  0  0  0  0999 V2000
   58.5330   29.5090   49.7690 O   0  0  0  0  0  0  0  0  0  0  0  0
   59.4180   29.3840   48.8800 C   0  0  0  0  0  0  0  0  0  0  0  0
   59.5120   28.1050   48.0990 C   0  0  0  0  0  0  0  0  0  0  0  0
   58.7660   28.2200   46.8250 N   0  0  0  0  0  0  0  0  0  0  0  0
   59.5160   27.6710   45.6770 C   0  0  0  0  0  0  0  0  0  0  0  0
   60.6740   28.6010   45.2380 C   0  0  0  0  0  0  0  0  0  0  0  0
   60.6060   29.8850   45.8320 O   0  0  0  0  0  0  0  0  0  0  0  0
   59.3020   30.4060   45.6990 C   0  0  0  0  0  0  0  0  0  0  0  0
   58.3030   29.6000   46.5530 C   0  0  0  0  0  0  0  0  0  0  0  0
   60.3470   30.4440   48.6280 N   0  0  0  0  0  0  0  0  0  0  0  0
   60.2400   31.7440   49.2890 C   0  0  0  0  0  0  0  0  0  0  0  0
   60.7510   32.9240   48.4240 C   0  0  2  0  0  0  0  0  0  0  0  0
   59.7880   33.3650   47.3320 C   0  0  0  0  0  0  0  0  0  0  0  0
   58.4260   33.0270   47.4460 C   0  0  0  0  0  0  0  0  0  0  0  0
   57.5010   33.4590   46.4920 C   0  0  0  0  0  0  0  0  0  0  0  0
   57.9190   34.2420   45.4150 C   0  0  0  0  0  0  0  0  0  0  0  0
   57.0210   34.6640   44.4920 F   0  0  0  0  0  0  0  0  0  0  0  0
   59.2640   34.5970   45.2930 C   0  0  0  0  0  0  0  0  0  0  0  0
   60.1940   34.1680   46.2440 C   0  0  0  0  0  0  0  0  0  0  0  0
   62.4240   32.7040   47.7830 S   0  0  0  0  0  0  0  0  0  0  0  0
   62.8380   33.9420   47.0370 O   0  0  0  0  0  0  0  0  0  0  0  0
   62.4200   31.5550   46.8150 O   0  0  0  0  0  0  0  0  0  0  0  0
   63.6080   32.3510   49.0490 C   0  0  0  0  0  0  0  0  0  0  0  0
   63.3720   31.3360   49.9900 C   0  0  0  0  0  0  0  0  0  0  0  0
   64.3290   31.0460   50.9670 C   0  0  0  0  0  0  0  0  0  0  0  0
   65.5170   31.7780   51.0230 C   0  0  0  0  0  0  0  0  0  0  0  0
   65.7470   32.8060   50.1050 C   0  0  0  0  0  0  0  0  0  0  0  0
   64.7940   33.0960   49.1250 C   0  0  0  0  0  0  0  0  0  0  0  0
   60.5687   27.8902   47.8817 H   0  0  0  0  0  0  0  0  0  0  0  0
   59.0747   27.2907   48.6954 H   0  0  0  0  0  0  0  0  0  0  0  0
   59.9342   26.6941   45.9612 H   0  0  0  0  0  0  0  0  0  0  0  0
   58.8188   27.5765   44.8314 H   0  0  0  0  0  0  0  0  0  0  0  0
   61.6275   28.1326   45.5231 H   0  0  0  0  0  0  0  0  0  0  0  0
   60.5935   28.7366   44.1494 H   0  0  0  0  0  0  0  0  0  0  0  0
   59.2967   31.4547   46.0308 H   0  0  0  0  0  0  0  0  0  0  0  0
   59.0001   30.3379   44.6434 H   0  0  0  0  0  0  0  0  0  0  0  0
   58.1615   30.1191   47.5124 H   0  0  0  0  0  0  0  0  0  0  0  0
   57.3631   29.5291   45.9859 H   0  0  0  0  0  0  0  0  0  0  0  0
   61.0870   30.2740   47.9170 H   0  0  0  0  0  0  0  0  0  0  0  0
   59.1826   31.9241   49.5330 H   0  0  0  0  0  0  0  0  0  0  0  0
   60.8753   31.7029   50.1860 H   0  0  0  0  0  0  0  0  0  0  0  0
   60.8012   33.7541   49.1441 H   0  0  0  0  0  0  0  0  0  0  0  0
   58.0864   32.4161   48.2954 H   0  0  0  0  0  0  0  0  0  0  0  0
   56.4411   33.1814   46.5900 H   0  0  0  0  0  0  0  0  0  0  0  0
   59.5927   35.2164   44.4455 H   0  0  0  0  0  0  0  0  0  0  0  0
   61.2503   34.4582   46.1441 H   0  0  0  0  0  0  0  0  0  0  0  0
   62.4310   30.7671   49.9584 H   0  0  0  0  0  0  0  0  0  0  0  0
   64.1460   30.2399   51.6928 H   0  0  0  0  0  0  0  0  0  0  0  0
   66.2712   31.5454   51.7893 H   0  0  0  0  0  0  0  0  0  0  0  0
   66.6793   33.3877   50.1538 H   0  0  0  0  0  0  0  0  0  0  0  0
   64.9747   33.9122   48.4100 H   0  0  0  0  0  0  0  0  0  0  0  0
  1  2  2  0
  2  3  1  0
  3  4  1  0
  4  5  1  0
  5  6  1  0
  6  7  1  0
  7  8  1  0
  8  9  1  0
  2 10  1  0
 10 11  1  0
 11 12  1  0
 12 13  1  0
 13 14  2  0
 14 15  1  0
 15 16  2  0
 16 17  1  0
 16 18  1  0
 18 19  2  0
 12 20  1  0
 20 21  2  0
 20 22  2  0
 20 23  1  0
 23 24  2  0
 24 25  1  0
 25 26  2  0
 26 27  1  0
 27 28  2  0
  9  4  1  0
 19 13  1  0
 28 23  1  0
  3 29  1  0
  3 30  1  0
  5 31  1  0
  5 32  1  0
  6 33  1  0
  6 34  1  0
  8 35  1  0
  8 36  1  0
  9 37  1  0
  9 38  1  0
 10 39  1  0
 11 40  1  0
 11 41  1  0
 12 42  1  1
 14 43  1  0
 15 44  1  0
 18 45  1  0
 19 46  1  0
 24 47  1  0
 25 48  1  0
 26 49  1  0
 27 50  1  0
 28 51  1  0
M  END
>  <UniqueID>  (78) 
72

>  <SMILES>  (78) 
O=C(CN1CCOCC1)NC[C@H](c1ccc(F)cc1)S(=O)(=O)c1ccccc1

>  <Energy>  (78) 
60.466720790765194

>  <Genealogy>  (78) 
O=C(CN1CCOCC1)NC[C@H](c1ccc(F)cc1)S(=O)(=O)c1ccccc1 (chirality)
O=C(CN1CCOCC1)NC[C@H](c1ccc(F)cc1)S(=O)(=O)c1ccccc1 (3D coordinates assigned)
O=C(CN1CCOCC1)NC[C@H](c1ccc(F)cc1)S(=O)(=O)c1ccccc1 (nonaromatic ring conformer: 60.466720790765194 kcal/mol)

>  <smiles>  (78) 
O=C(CN1CCOCC1)NCC(c1ccc(F)cc1)S(=O)(=O)c1ccccc1

>  <score_type>  (78) 
oracle

>  <origin>  (78) 
adg

>  <m_score__min__energy>  (78) 
-9.0899999999999999

>  <m_primary>  (78) 
energy

$$$$
78:0
     RDKit          3D

 36 38  0  0  0  0  0  0  0  0999 V2000
   58.4770   26.9980   46.5750 C   0  0  0  0  0  0  0  0  0  0  0  0
   58.1380   28.3740   46.7100 O   0  0  0  0  0  0  0  0  0  0  0  0
   57.4200   29.1440   45.7790 C   0  0  0  0  0  0  0  0  0  0  0  0
   57.9990   30.3520   45.3670 C   0  0  0  0  0  0  0  0  0  0  0  0
   57.3600   31.1860   44.4350 C   0  0  0  0  0  0  0  0  0  0  0  0
   57.9680   32.4710   44.0160 C   0  0  0  0  0  0  0  0  0  0  0  0
   57.7570   32.8940   42.8470 O   0  0  0  0  0  0  0  0  0  0  0  0
   58.8280   33.2670   44.9140 C   0  0  0  0  0  0  0  0  0  0  0  0
   59.0310   34.6350   44.9130 C   0  0  0  0  0  0  0  0  0  0  0  0
   59.8530   34.9590   45.9290 N   0  0  0  0  0  0  0  0  0  0  0  0
   60.1670   33.8460   46.5780 N   0  0  0  0  0  0  0  0  0  0  0  0
   61.0400   33.8150   47.7270 C   0  0  0  0  0  0  0  0  0  0  0  0
   60.5420   34.0090   49.0310 C   0  0  0  0  0  0  0  0  0  0  0  0
   61.4050   33.9780   50.1310 C   0  0  0  0  0  0  0  0  0  0  0  0
   62.7710   33.7590   49.9470 C   0  0  0  0  0  0  0  0  0  0  0  0
   63.2830   33.5700   48.6610 C   0  0  0  0  0  0  0  0  0  0  0  0
   64.6490   33.3530   48.4910 O   0  0  0  0  0  0  0  0  0  0  0  0
   62.4210   33.6010   47.5550 C   0  0  0  0  0  0  0  0  0  0  0  0
   59.5550   32.7970   45.9880 C   0  0  0  0  0  0  0  0  0  0  0  0
   56.1050   30.8120   43.9340 C   0  0  0  0  0  0  0  0  0  0  0  0
   55.5160   29.6120   44.3330 C   0  0  0  0  0  0  0  0  0  0  0  0
   56.1610   28.7720   45.2460 C   0  0  0  0  0  0  0  0  0  0  0  0
   55.5340   27.5870   45.6080 O   0  0  0  0  0  0  0  0  0  0  0  0
   58.5878   26.5481   47.5726 H   0  0  0  0  0  0  0  0  0  0  0  0
   57.6805   26.4765   46.0240 H   0  0  0  0  0  0  0  0  0  0  0  0
   59.4246   26.9062   46.0240 H   0  0  0  0  0  0  0  0  0  0  0  0
   58.9725   30.6527   45.7815 H   0  0  0  0  0  0  0  0  0  0  0  0
   58.5913   35.3448   44.1968 H   0  0  0  0  0  0  0  0  0  0  0  0
   59.4673   34.1860   49.1846 H   0  0  0  0  0  0  0  0  0  0  0  0
   61.0056   34.1268   51.1451 H   0  0  0  0  0  0  0  0  0  0  0  0
   63.4454   33.7352   50.8157 H   0  0  0  0  0  0  0  0  0  0  0  0
   65.0190   32.4310   48.2910 H   0  0  0  0  0  0  0  0  0  0  0  0
   62.8279   33.4567   46.5432 H   0  0  0  0  0  0  0  0  0  0  0  0
   59.6243   31.7471   46.3089 H   0  0  0  0  0  0  0  0  0  0  0  0
   55.5821   31.4682   43.2226 H   0  0  0  0  0  0  0  0  0  0  0  0
   54.5355   29.3241   43.9258 H   0  0  0  0  0  0  0  0  0  0  0  0
  1  2  1  0
  2  3  1  0
  3  4  2  0
  4  5  1  0
  5  6  1  0
  6  7  2  0
  6  8  1  0
  8  9  1  0
  9 10  2  0
 10 11  1  0
 11 12  1  0
 12 13  2  0
 13 14  1  0
 14 15  2  0
 15 16  1  0
 16 17  1  0
 16 18  2  0
 11 19  1  0
  5 20  2  0
 20 21  1  0
 21 22  2  0
 22 23  1  0
 22  3  1  0
 19  8  2  0
 18 12  1  0
  1 24  1  0
  1 25  1  0
  1 26  1  0
  4 27  1  0
  9 28  1  0
 13 29  1  0
 14 30  1  0
 15 31  1  0
 17 32  1  0
 18 33  1  0
 19 34  1  0
 20 35  1  0
 21 36  1  0
M  CHG  1  23  -1
M  END
>  <UniqueID>  (79) 
73

>  <SMILES>  (79) 
COc1cc(C(=O)c2cnn(-c3cccc(O)c3)c2)ccc1[O-]

>  <Energy>  (79) 
77.51196950865368

>  <Genealogy>  (79) 
COc1cc(C(=O)c2cnn(-c3cccc(O)c3)c2)ccc1[O-] (protonated)
COc1cc(C(=O)c2cnn(-c3cccc(O)c3)c2)ccc1[O-] (3D coordinates assigned)
COc1cc(C(=O)c2cnn(-c3cccc(O)c3)c2)ccc1[O-] (optimized conformer: 77.51196950865368 kcal/mol)

>  <smiles>  (79) 
COc1cc(C(=O)c2cnn(-c3cccc(O)c3)c2)ccc1O

>  <score_type>  (79) 
oracle

>  <origin>  (79) 
adg

>  <m_score__min__energy>  (79) 
-10.59

>  <m_primary>  (79) 
energy

$$$$
79:0
     RDKit          3D

 36 38  0  0  0  0  0  0  0  0999 V2000
   54.7610   26.3260   45.7500 N   0  0  0  0  0  0  0  0  0  0  0  0
   56.0830   26.1030   46.2380 C   0  0  0  0  0  0  0  0  0  0  0  0
   56.4220   24.9370   46.5780 O   0  0  0  0  0  0  0  0  0  0  0  0
   57.0470   27.2230   46.3450 C   0  0  0  0  0  0  0  0  0  0  0  0
   57.1670   28.1630   45.3060 C   0  0  0  0  0  0  0  0  0  0  0  0
   58.0760   29.2200   45.4050 C   0  0  0  0  0  0  0  0  0  0  0  0
   58.8860   29.3610   46.5450 C   0  0  0  0  0  0  0  0  0  0  0  0
   59.8520   30.4830   46.6570 C   0  0  0  0  0  0  0  0  0  0  0  0
   59.4740   31.7870   46.2910 C   0  0  0  0  0  0  0  0  0  0  0  0
   60.3970   32.8270   46.3930 C   0  0  0  0  0  0  0  0  0  0  0  0
   61.6880   32.5690   46.8560 C   0  0  0  0  0  0  0  0  0  0  0  0
   62.8880   33.8950   46.9850 S   0  0  0  0  0  0  0  0  0  0  0  0
   63.2970   33.4840   48.6810 C   0  0  0  0  0  0  0  0  0  0  0  0
   64.4680   32.7700   48.9680 C   0  0  0  0  0  0  0  0  0  0  0  0
   64.7840   32.4470   50.2910 C   0  0  0  0  0  0  0  0  0  0  0  0
   63.9330   32.8370   51.3300 C   0  0  0  0  0  0  0  0  0  0  0  0
   62.7660   33.5520   51.0460 C   0  0  0  0  0  0  0  0  0  0  0  0
   62.4480   33.8780   49.7240 C   0  0  0  0  0  0  0  0  0  0  0  0
   62.0330   31.2640   47.2170 C   0  0  0  0  0  0  0  0  0  0  0  0
   61.1220   30.2590   47.1120 N   0  0  0  0  0  0  0  0  0  0  0  0
   58.7650   28.4230   47.5840 C   0  0  0  0  0  0  0  0  0  0  0  0
   57.8570   27.3660   47.4850 C   0  0  0  0  0  0  0  0  0  0  0  0
   54.0220   26.7280   46.3670 H   0  0  0  0  0  0  0  0  0  0  0  0
   56.5400   28.0655   44.4075 H   0  0  0  0  0  0  0  0  0  0  0  0
   58.1582   29.9475   44.5840 H   0  0  0  0  0  0  0  0  0  0  0  0
   58.4554   31.9855   45.9261 H   0  0  0  0  0  0  0  0  0  0  0  0
   60.1080   33.8496   46.1089 H   0  0  0  0  0  0  0  0  0  0  0  0
   65.1389   32.4635   48.1520 H   0  0  0  0  0  0  0  0  0  0  0  0
   65.7030   31.8855   50.5150 H   0  0  0  0  0  0  0  0  0  0  0  0
   64.1820   32.5811   52.3705 H   0  0  0  0  0  0  0  0  0  0  0  0
   62.0969   33.8586   51.8635 H   0  0  0  0  0  0  0  0  0  0  0  0
   61.5311   34.4439   49.5026 H   0  0  0  0  0  0  0  0  0  0  0  0
   63.0459   31.0482   47.5878 H   0  0  0  0  0  0  0  0  0  0  0  0
   61.4120   29.3000   47.4090 H   0  0  0  0  0  0  0  0  0  0  0  0
   59.3907   28.5218   48.4833 H   0  0  0  0  0  0  0  0  0  0  0  0
   57.7751   26.6391   48.3065 H   0  0  0  0  0  0  0  0  0  0  0  0
  1  2  1  0
  2  3  2  0
  2  4  1  0
  4  5  2  0
  5  6  1  0
  6  7  2  0
  7  8  1  0
  8  9  2  0
  9 10  1  0
 10 11  2  0
 11 12  1  0
 12 13  1  0
 13 14  2  0
 14 15  1  0
 15 16  2  0
 16 17  1  0
 17 18  2  0
 11 19  1  0
 19 20  2  0
  7 21  1  0
 21 22  2  0
 22  4  1  0
 20  8  1  0
 18 13  1  0
  1 23  1  0
  5 24  1  0
  6 25  1  0
  9 26  1  0
 10 27  1  0
 14 28  1  0
 15 29  1  0
 16 30  1  0
 17 31  1  0
 18 32  1  0
 19 33  1  0
 20 34  1  0
 21 35  1  0
 22 36  1  0
M  CHG  2   1  -1  20   1
M  END
>  <UniqueID>  (80) 
74

>  <SMILES>  (80) 
[NH-]C(=O)c1ccc(-c2ccc(Sc3ccccc3)c[nH+]2)cc1

>  <Energy>  (80) 
39.59877381150716

>  <Genealogy>  (80) 
[NH-]C(=O)c1ccc(-c2ccc(Sc3ccccc3)c[nH+]2)cc1 (protonated)
[NH-]C(=O)c1ccc(-c2ccc(Sc3ccccc3)c[nH+]2)cc1 (3D coordinates assigned)
[NH-]C(=O)c1ccc(-c2ccc(Sc3ccccc3)c[nH+]2)cc1 (optimized conformer: 39.59877381150716 kcal/mol)

>  <smiles>  (80) 
NC(=O)c1ccc(-c2ccc(Sc3ccccc3)cn2)cc1

>  <score_type>  (80) 
oracle

>  <origin>  (80) 
adg

>  <m_score__min__energy>  (80) 
-9.0500000000000007

>  <m_primary>  (80) 
energy

$$$$
80:0
     RDKit          3D

 49 51  0  0  0  0  0  0  0  0999 V2000
   60.3790   30.1000   46.3870 C   0  0  0  0  0  0  0  0  0  0  0  0
   60.5390   31.4410   46.7390 O   0  0  0  0  0  0  0  0  0  0  0  0
   61.5840   32.0090   47.4210 C   0  0  0  0  0  0  0  0  0  0  0  0
   62.2560   31.1760   48.3220 C   0  0  0  0  0  0  0  0  0  0  0  0
   63.3190   31.6160   49.0760 C   0  0  0  0  0  0  0  0  0  0  0  0
   63.7070   32.9230   48.9150 C   0  0  0  0  0  0  0  0  0  0  0  0
   63.0450   33.7400   48.0280 C   0  0  0  0  0  0  0  0  0  0  0  0
   61.9780   33.3450   47.2530 C   0  0  0  0  0  0  0  0  0  0  0  0
   61.2900   34.2050   46.2740 C   0  0  0  0  0  0  0  0  0  0  0  0
   59.8880   34.2630   46.3140 N   0  0  0  0  0  0  0  0  0  0  0  0
   59.2870   34.9170   47.4410 C   0  0  0  0  0  0  0  0  0  0  0  0
   59.3170   33.9970   48.5990 C   0  0  0  0  0  0  0  0  0  0  0  0
   58.5680   32.8290   48.4980 C   0  0  0  0  0  0  0  0  0  0  0  0
   58.5190   31.9040   49.5190 C   0  0  0  0  0  0  0  0  0  0  0  0
   59.2160   32.1250   50.6620 C   0  0  0  0  0  0  0  0  0  0  0  0
   59.9710   33.2760   50.7910 C   0  0  0  0  0  0  0  0  0  0  0  0
   60.6690   33.5020   51.9280 F   0  0  0  0  0  0  0  0  0  0  0  0
   60.0050   34.1860   49.7610 C   0  0  0  0  0  0  0  0  0  0  0  0
   59.2160   34.4460   45.0880 C   0  0  0  0  0  0  0  0  0  0  0  0
   58.5680   33.2030   44.5360 C   0  0  0  0  0  0  0  0  0  0  0  0
   58.2690   33.1070   43.2210 N   0  0  0  0  0  0  0  0  0  0  0  0
   57.6850   32.0450   42.6480 C   0  0  0  0  0  0  0  0  0  0  0  0
   57.3680   31.9760   41.1910 C   0  0  0  0  0  0  0  0  0  0  0  0
   57.3670   30.9680   43.4660 C   0  0  0  0  0  0  0  0  0  0  0  0
   57.6630   31.0430   44.8110 C   0  0  0  0  0  0  0  0  0  0  0  0
   57.4020   30.1020   45.6180 O   0  0  0  0  0  0  0  0  0  0  0  0
   58.2550   32.1550   45.3200 N   0  0  0  0  0  0  0  0  0  0  0  0
   60.3060   29.4880   47.2981 H   0  0  0  0  0  0  0  0  0  0  0  0
   59.4606   29.9840   45.7927 H   0  0  0  0  0  0  0  0  0  0  0  0
   61.2443   29.7711   45.7927 H   0  0  0  0  0  0  0  0  0  0  0  0
   61.9229   30.1334   48.4312 H   0  0  0  0  0  0  0  0  0  0  0  0
   63.8372   30.9477   49.7795 H   0  0  0  0  0  0  0  0  0  0  0  0
   64.5515   33.3190   49.4982 H   0  0  0  0  0  0  0  0  0  0  0  0
   63.3918   34.7794   47.9315 H   0  0  0  0  0  0  0  0  0  0  0  0
   61.6634   35.2293   46.4200 H   0  0  0  0  0  0  0  0  0  0  0  0
   61.5169   33.7463   45.3003 H   0  0  0  0  0  0  0  0  0  0  0  0
   59.8495   35.8314   47.6808 H   0  0  0  0  0  0  0  0  0  0  0  0
   58.2469   35.1867   47.2053 H   0  0  0  0  0  0  0  0  0  0  0  0
   57.9983   32.6380   47.5766 H   0  0  0  0  0  0  0  0  0  0  0  0
   57.9171   30.9901   49.4075 H   0  0  0  0  0  0  0  0  0  0  0  0
   59.1805   31.3923   51.4817 H   0  0  0  0  0  0  0  0  0  0  0  0
   60.6082   35.0983   49.8784 H   0  0  0  0  0  0  0  0  0  0  0  0
   58.4330   35.2043   45.2359 H   0  0  0  0  0  0  0  0  0  0  0  0
   59.9792   34.7505   44.3567 H   0  0  0  0  0  0  0  0  0  0  0  0
   56.3010   31.7438   41.0585 H   0  0  0  0  0  0  0  0  0  0  0  0
   57.5937   32.9443   40.7204 H   0  0  0  0  0  0  0  0  0  0  0  0
   57.9757   31.1891   40.7204 H   0  0  0  0  0  0  0  0  0  0  0  0
   56.8873   30.0707   43.0480 H   0  0  0  0  0  0  0  0  0  0  0  0
   58.4690   32.1830   46.3620 H   0  0  0  0  0  0  0  0  0  0  0  0
  1  2  1  0
  2  3  1  0
  3  4  2  0
  4  5  1  0
  5  6  2  0
  6  7  1  0
  7  8  2  0
  8  9  1  0
  9 10  1  0
 10 11  1  0
 11 12  1  0
 12 13  2  0
 13 14  1  0
 14 15  2  0
 15 16  1  0
 16 17  1  0
 16 18  2  0
 10 19  1  0
 19 20  1  0
 20 21  2  0
 21 22  1  0
 22 23  1  0
 22 24  2  0
 24 25  1  0
 25 26  2  0
 25 27  1  0
  8  3  1  0
 18 12  1  0
 27 20  1  0
  1 28  1  0
  1 29  1  0
  1 30  1  0
  4 31  1  0
  5 32  1  0
  6 33  1  0
  7 34  1  0
  9 35  1  0
  9 36  1  0
 11 37  1  0
 11 38  1  0
 13 39  1  0
 14 40  1  0
 15 41  1  0
 18 42  1  0
 19 43  1  0
 19 44  1  0
 23 45  1  0
 23 46  1  0
 23 47  1  0
 24 48  1  0
 27 49  1  0
M  END
>  <smiles>  (81) 
COc1ccccc1CN(Cc1cccc(F)c1)Cc1nc(C)cc(=O)[nH]1

>  <score_type>  (81) 
oracle

>  <origin>  (81) 
adg

>  <m_score__min__energy>  (81) 
-7.9100000000000001

>  <m_primary>  (81) 
energy

$$$$
81:0
     RDKit          3D

 64 68  0  0  0  0  0  0  0  0999 V2000
   61.1960   30.2020   49.1000 O   0  0  0  0  0  0  0  0  0  0  0  0
   60.0780   29.8770   48.6120 C   0  0  0  0  0  0  0  0  0  0  0  0
   58.9400   30.7290   48.7960 N   0  0  0  0  0  0  0  0  0  0  0  0
   58.8400   31.6610   49.8840 C   0  0  0  0  0  0  0  0  0  0  0  0
   58.1480   31.2810   51.0420 C   0  0  0  0  0  0  0  0  0  0  0  0
   57.9950   32.1780   52.1030 C   0  0  0  0  0  0  0  0  0  0  0  0
   58.5440   33.4580   52.0220 C   0  0  0  0  0  0  0  0  0  0  0  0
   59.2630   33.8400   50.8860 C   0  0  0  0  0  0  0  0  0  0  0  0
   59.4310   32.9460   49.8150 C   0  0  0  0  0  0  0  0  0  0  0  0
   60.2350   33.3390   48.6890 N   0  0  0  0  0  0  0  0  0  0  0  0
   59.6230   34.1110   47.6000 C   0  0  0  0  0  0  0  0  0  0  0  0
   60.3810   33.9310   46.2610 C   0  0  0  0  0  0  0  0  0  0  0  0
   61.5500   33.1330   46.3690 O   0  0  0  0  0  0  0  0  0  0  0  0
   62.3410   33.5900   47.4410 C   0  0  0  0  0  0  0  0  0  0  0  0
   61.6900   33.1460   48.7480 C   0  0  0  0  0  0  0  0  0  0  0  0
   59.9440   28.6200   47.8630 C   0  0  0  0  0  0  0  0  0  0  0  0
   60.7370   27.4980   48.0980 C   0  0  0  0  0  0  0  0  0  0  0  0
   60.2220   26.2820   47.0580 S   0  0  0  0  0  0  0  0  0  0  0  0
   59.0020   27.2200   46.3660 C   0  0  0  0  0  0  0  0  0  0  0  0
   58.0960   26.8000   45.2350 C   0  0  2  0  0  0  0  0  0  0  0  0
   58.3220   27.6690   43.9760 C   0  0  0  0  0  0  0  0  0  0  0  0
   57.8860   29.1030   44.1690 C   0  0  0  0  0  0  0  0  0  0  0  0
   58.8190   30.0850   44.5410 C   0  0  0  0  0  0  0  0  0  0  0  0
   58.4160   31.4160   44.7020 C   0  0  0  0  0  0  0  0  0  0  0  0
   57.0790   31.7750   44.5020 C   0  0  0  0  0  0  0  0  0  0  0  0
   56.1440   30.8020   44.1460 C   0  0  0  0  0  0  0  0  0  0  0  0
   56.5420   29.4710   43.9840 C   0  0  0  0  0  0  0  0  0  0  0  0
   56.7020   26.9080   45.6600 N   0  0  0  0  0  0  0  0  0  0  0  0
   55.7700   25.8220   45.6590 C   0  0  0  0  0  0  0  0  0  0  0  0
   54.5700   26.0300   45.9840 O   0  0  0  0  0  0  0  0  0  0  0  0
   56.2190   24.4680   45.2480 C   0  0  0  0  0  0  0  0  0  0  0  0
   56.1170   24.1030   43.8900 C   0  0  0  0  0  0  0  0  0  0  0  0
   56.5390   22.8460   43.4550 C   0  0  0  0  0  0  0  0  0  0  0  0
   57.0750   21.9330   44.3620 C   0  0  0  0  0  0  0  0  0  0  0  0
   57.1890   22.2760   45.7110 C   0  0  0  0  0  0  0  0  0  0  0  0
   56.7670   23.5340   46.1640 C   0  0  0  0  0  0  0  0  0  0  0  0
   57.0180   23.9020   47.8690 Cl  0  0  0  0  0  0  0  0  0  0  0  0
   58.9970   28.4610   46.8980 N   0  0  0  0  0  0  0  0  0  0  0  0
   58.1970   30.7410   48.0610 H   0  0  0  0  0  0  0  0  0  0  0  0
   57.7222   30.2695   51.1164 H   0  0  0  0  0  0  0  0  0  0  0  0
   57.4408   31.8742   53.0033 H   0  0  0  0  0  0  0  0  0  0  0  0
   58.4109   34.1669   52.8525 H   0  0  0  0  0  0  0  0  0  0  0  0
   59.7005   34.8477   50.8299 H   0  0  0  0  0  0  0  0  0  0  0  0
   58.5840   33.7751   47.4674 H   0  0  0  0  0  0  0  0  0  0  0  0
   59.6663   35.1756   47.8734 H   0  0  0  0  0  0  0  0  0  0  0  0
   59.7014   33.4552   45.5387 H   0  0  0  0  0  0  0  0  0  0  0  0
   60.7040   34.9316   45.9378 H   0  0  0  0  0  0  0  0  0  0  0  0
   63.3513   33.1615   47.3655 H   0  0  0  0  0  0  0  0  0  0  0  0
   62.4171   34.6870   47.4119 H   0  0  0  0  0  0  0  0  0  0  0  0
   61.9074   32.0811   48.9173 H   0  0  0  0  0  0  0  0  0  0  0  0
   62.0963   33.7514   49.5717 H   0  0  0  0  0  0  0  0  0  0  0  0
   61.5529   27.4220   48.8319 H   0  0  0  0  0  0  0  0  0  0  0  0
   58.3324   25.7572   44.9769 H   0  0  0  0  0  0  0  0  0  0  0  0
   59.3938   27.6577   43.7287 H   0  0  0  0  0  0  0  0  0  0  0  0
   57.7121   27.2433   43.1656 H   0  0  0  0  0  0  0  0  0  0  0  0
   59.8704   29.8071   44.7065 H   0  0  0  0  0  0  0  0  0  0  0  0
   59.1528   32.1816   44.9866 H   0  0  0  0  0  0  0  0  0  0  0  0
   56.7652   32.8221   44.6251 H   0  0  0  0  0  0  0  0  0  0  0  0
   55.0915   31.0826   43.9924 H   0  0  0  0  0  0  0  0  0  0  0  0
   55.7989   28.7076   43.7102 H   0  0  0  0  0  0  0  0  0  0  0  0
   55.6999   24.8174   43.1649 H   0  0  0  0  0  0  0  0  0  0  0  0
   56.4484   22.5746   42.3929 H   0  0  0  0  0  0  0  0  0  0  0  0
   57.4078   20.9435   44.0155 H   0  0  0  0  0  0  0  0  0  0  0  0
   57.6132   21.5535   46.4238 H   0  0  0  0  0  0  0  0  0  0  0  0
  1  2  2  0
  2  3  1  0
  3  4  1  0
  4  5  2  0
  5  6  1  0
  6  7  2  0
  7  8  1  0
  8  9  2  0
  9 10  1  0
 10 11  1  0
 11 12  1  0
 12 13  1  0
 13 14  1  0
 14 15  1  0
  2 16  1  0
 16 17  2  0
 17 18  1  0
 18 19  1  0
 19 20  1  0
 20 21  1  0
 21 22  1  0
 22 23  2  0
 23 24  1  0
 24 25  2  0
 25 26  1  0
 26 27  2  0
 20 28  1  0
 28 29  1  0
 29 30  2  0
 29 31  1  0
 31 32  2  0
 32 33  1  0
 33 34  2  0
 34 35  1  0
 35 36  2  0
 36 37  1  0
 19 38  2  0
  9  4  1  0
 15 10  1  0
 38 16  1  0
 27 22  1  0
 36 31  1  0
  3 39  1  0
  5 40  1  0
  6 41  1  0
  7 42  1  0
  8 43  1  0
 11 44  1  0
 11 45  1  0
 12 46  1  0
 12 47  1  0
 14 48  1  0
 14 49  1  0
 15 50  1  0
 15 51  1  0
 17 52  1  0
 20 53  1  6
 21 54  1  0
 21 55  1  0
 23 56  1  0
 24 57  1  0
 25 58  1  0
 26 59  1  0
 27 60  1  0
 32 61  1  0
 33 62  1  0
 34 63  1  0
 35 64  1  0
M  CHG  1  28  -1
M  END
>  <UniqueID>  (82) 
75

>  <SMILES>  (82) 
O=C(Nc1ccccc1N1CCOCC1)c1csc([C@H](Cc2ccccc2)[N-]C(=O)c2ccccc2Cl)n1

>  <Energy>  (82) 
111.13745502745893

>  <Genealogy>  (82) 
O=C(Nc1ccccc1N1CCOCC1)c1csc(C(Cc2ccccc2)[N-]C(=O)c2ccccc2Cl)n1 (protonated)
O=C(Nc1ccccc1N1CCOCC1)c1csc([C@H](Cc2ccccc2)[N-]C(=O)c2ccccc2Cl)n1 (chirality)
O=C(Nc1ccccc1N1CCOCC1)c1csc([C@H](Cc2ccccc2)[N-]C(=O)c2ccccc2Cl)n1 (3D coordinates assigned)
O=C(Nc1ccccc1N1CCOCC1)c1csc([C@H](Cc2ccccc2)[N-]C(=O)c2ccccc2Cl)n1 (nonaromatic ring conformer: 111.13745502745893 kcal/mol)

>  <smiles>  (82) 
O=C(Nc1ccccc1N1CCOCC1)c1csc(C(Cc2ccccc2)NC(=O)c2ccccc2Cl)n1

>  <score_type>  (82) 
oracle

>  <origin>  (82) 
adg

>  <m_score__min__energy>  (82) 
-12.83

>  <m_primary>  (82) 
energy

$$$$
82:0
     RDKit          3D

 45 47  0  0  0  0  0  0  0  0999 V2000
   54.3540   25.1130   45.6170 C   0  0  0  0  0  0  0  0  0  0  0  0
   55.0270   26.3230   45.9520 O   0  0  0  0  0  0  0  0  0  0  0  0
   56.4180   26.4460   46.0940 C   0  0  0  0  0  0  0  0  0  0  0  0
   57.2140   25.3990   46.6000 C   0  0  0  0  0  0  0  0  0  0  0  0
   58.5950   25.5610   46.7290 C   0  0  0  0  0  0  0  0  0  0  0  0
   59.1950   26.7620   46.3530 C   0  0  0  0  0  0  0  0  0  0  0  0
   58.4180   27.8070   45.8490 C   0  0  0  0  0  0  0  0  0  0  0  0
   57.0220   27.6580   45.7200 C   0  0  0  0  0  0  0  0  0  0  0  0
   56.2010   28.6840   45.2230 O   0  0  0  0  0  0  0  0  0  0  0  0
   56.4710   29.4720   44.0620 C   0  0  0  0  0  0  0  0  0  0  0  0
   57.2140   30.7290   44.4300 C   0  0  0  0  0  0  0  0  0  0  0  0
   57.4040   31.7360   43.4760 C   0  0  0  0  0  0  0  0  0  0  0  0
   58.0920   32.9050   43.8100 C   0  0  0  0  0  0  0  0  0  0  0  0
   58.6140   33.0950   45.1060 C   0  0  0  0  0  0  0  0  0  0  0  0
   59.3470   34.3680   45.4150 C   0  0  0  0  0  0  0  0  0  0  0  0
   59.2570   35.3150   44.5840 O   0  0  0  0  0  0  0  0  0  0  0  0
   60.1660   34.5780   46.5980 N   0  0  0  0  0  0  0  0  0  0  0  0
   61.2550   33.5990   46.7210 C   0  0  0  0  0  0  0  0  0  0  0  0
   61.4770   33.3690   48.2050 C   0  0  0  0  0  0  0  0  0  0  0  0
   60.1610   33.7230   48.8680 C   0  0  0  0  0  0  0  0  0  0  0  0
   59.4150   34.6020   47.8680 C   0  0  0  0  0  0  0  0  0  0  0  0
   58.4320   32.0650   46.0520 C   0  0  0  0  0  0  0  0  0  0  0  0
   57.7440   30.8960   45.7150 C   0  0  0  0  0  0  0  0  0  0  0  0
   54.0622   24.5884   46.5388 H   0  0  0  0  0  0  0  0  0  0  0  0
   53.4551   25.3447   45.0268 H   0  0  0  0  0  0  0  0  0  0  0  0
   55.0250   24.4716   45.0268 H   0  0  0  0  0  0  0  0  0  0  0  0
   56.7449   24.4488   46.8950 H   0  0  0  0  0  0  0  0  0  0  0  0
   59.2098   24.7405   47.1275 H   0  0  0  0  0  0  0  0  0  0  0  0
   60.2833   26.8867   46.4536 H   0  0  0  0  0  0  0  0  0  0  0  0
   58.8975   28.7511   45.5511 H   0  0  0  0  0  0  0  0  0  0  0  0
   57.0818   28.8841   43.3611 H   0  0  0  0  0  0  0  0  0  0  0  0
   55.5149   29.7513   43.5952 H   0  0  0  0  0  0  0  0  0  0  0  0
   57.0092   31.6059   42.4576 H   0  0  0  0  0  0  0  0  0  0  0  0
   58.2286   33.6890   43.0506 H   0  0  0  0  0  0  0  0  0  0  0  0
   60.6200   35.5200   46.5020 H   0  0  0  0  0  0  0  0  0  0  0  0
   60.9728   32.6558   46.2303 H   0  0  0  0  0  0  0  0  0  0  0  0
   62.1721   33.9682   46.2387 H   0  0  0  0  0  0  0  0  0  0  0  0
   61.7341   32.3169   48.3972 H   0  0  0  0  0  0  0  0  0  0  0  0
   62.3075   33.9767   48.5936 H   0  0  0  0  0  0  0  0  0  0  0  0
   59.5831   32.8120   49.0830 H   0  0  0  0  0  0  0  0  0  0  0  0
   60.3166   34.2414   49.8256 H   0  0  0  0  0  0  0  0  0  0  0  0
   58.3996   34.2098   47.7097 H   0  0  0  0  0  0  0  0  0  0  0  0
   59.3340   35.6315   48.2470 H   0  0  0  0  0  0  0  0  0  0  0  0
   58.8367   32.1832   47.0680 H   0  0  0  0  0  0  0  0  0  0  0  0
   57.6180   30.1013   46.4650 H   0  0  0  0  0  0  0  0  0  0  0  0
  1  2  1  0
  2  3  1  0
  3  4  2  0
  4  5  1  0
  5  6  2  0
  6  7  1  0
  7  8  2  0
  8  9  1  0
  9 10  1  0
 10 11  1  0
 11 12  2  0
 12 13  1  0
 13 14  2  0
 14 15  1  0
 15 16  2  0
 15 17  1  0
 17 18  1  0
 18 19  1  0
 19 20  1  0
 20 21  1  0
 14 22  1  0
 22 23  2  0
  8  3  1  0
 23 11  1  0
 21 17  1  0
  1 24  1  0
  1 25  1  0
  1 26  1  0
  4 27  1  0
  5 28  1  0
  6 29  1  0
  7 30  1  0
 10 31  1  0
 10 32  1  0
 12 33  1  0
 13 34  1  0
 17 35  1  0
 18 36  1  0
 18 37  1  0
 19 38  1  0
 19 39  1  0
 20 40  1  0
 20 41  1  0
 21 42  1  0
 21 43  1  0
 22 44  1  0
 23 45  1  0
M  CHG  1  17   1
M  END
>  <UniqueID>  (83) 
76

>  <SMILES>  (83) 
COc1ccccc1OCc1ccc(C(=O)[NH+]2CCCC2)cc1

>  <Energy>  (83) 
56.35696545935449

>  <Genealogy>  (83) 
COc1ccccc1OCc1ccc(C(=O)[NH+]2CCCC2)cc1 (protonated)
COc1ccccc1OCc1ccc(C(=O)[NH+]2CCCC2)cc1 (3D coordinates assigned)
COc1ccccc1OCc1ccc(C(=O)[NH+]2CCCC2)cc1 (nonaromatic ring conformer: 56.35696545935449 kcal/mol)

>  <smiles>  (83) 
COc1ccccc1OCc1ccc(C(=O)N2CCCC2)cc1

>  <score_type>  (83) 
oracle

>  <origin>  (83) 
adg

>  <m_score__min__energy>  (83) 
-7.0300000000000002

>  <m_primary>  (83) 
energy

$$$$
83:0
     RDKit          3D

 38 41  0  0  0  0  0  0  0  0999 V2000
   56.2780   28.2098   45.5777 H   0  0  0  0  0  0  0  0  0  0  0  0
   56.9170   29.0840   45.3840 C   0  0  0  0  0  0  0  0  0  0  0  0
   56.4300   30.2440   44.8680 N   0  0  0  0  0  0  0  0  0  0  0  0
   57.4050   31.1680   44.7230 C   0  0  0  0  0  0  0  0  0  0  0  0
   57.2190   32.3660   44.2530 N   0  0  0  0  0  0  0  0  0  0  0  0
   57.3780   33.5970   44.9790 C   0  0  0  0  0  0  0  0  0  0  0  0
   56.6490   34.5940   44.7220 O   0  0  0  0  0  0  0  0  0  0  0  0
   58.3970   33.7050   46.0390 C   0  0  0  0  0  0  0  0  0  0  0  0
   58.2320   33.0080   47.1970 N   0  0  0  0  0  0  0  0  0  0  0  0
   59.1380   33.0600   48.2100 C   0  0  0  0  0  0  0  0  0  0  0  0
   58.9260   32.3270   49.3820 C   0  0  0  0  0  0  0  0  0  0  0  0
   58.0211   31.7108   49.4889 H   0  0  0  0  0  0  0  0  0  0  0  0
   59.8630   32.3770   50.4170 C   0  0  0  0  0  0  0  0  0  0  0  0
   59.6881   31.8049   51.3401 H   0  0  0  0  0  0  0  0  0  0  0  0
   61.0290   33.1540   50.2870 C   0  0  0  0  0  0  0  0  0  0  0  0
   61.9810   33.2360   51.3140 O   0  0  0  0  0  0  0  0  0  0  0  0
   63.3720   33.2470   51.1310 C   0  0  0  0  0  0  0  0  0  0  0  0
   64.0100   32.3880   50.2170 C   0  0  0  0  0  0  0  0  0  0  0  0
   63.4154   31.6698   49.6334 H   0  0  0  0  0  0  0  0  0  0  0  0
   65.3960   32.4440   50.0480 C   0  0  0  0  0  0  0  0  0  0  0  0
   65.8902   31.7656   49.3370 H   0  0  0  0  0  0  0  0  0  0  0  0
   66.1570   33.3620   50.7820 C   0  0  0  0  0  0  0  0  0  0  0  0
   67.5850   33.4190   50.6060 C   0  0  0  0  0  0  0  0  0  0  0  0
   68.7330   33.4650   50.4650 N   0  0  0  0  0  0  0  0  0  0  0  0
   65.5240   34.2310   51.6800 C   0  0  0  0  0  0  0  0  0  0  0  0
   66.1185   34.9571   52.2540 H   0  0  0  0  0  0  0  0  0  0  0  0
   64.1380   34.1760   51.8470 C   0  0  0  0  0  0  0  0  0  0  0  0
   63.6445   34.8673   52.5459 H   0  0  0  0  0  0  0  0  0  0  0  0
   61.2300   33.9060   49.1230 C   0  0  0  0  0  0  0  0  0  0  0  0
   62.1250   34.5384   49.0278 H   0  0  0  0  0  0  0  0  0  0  0  0
   60.2960   33.8570   48.0780 C   0  0  0  0  0  0  0  0  0  0  0  0
   60.4860   34.5840   46.8970 C   0  0  0  0  0  0  0  0  0  0  0  0
   61.3804   35.2125   46.7748 H   0  0  0  0  0  0  0  0  0  0  0  0
   59.5380   34.5100   45.8740 C   0  0  0  0  0  0  0  0  0  0  0  0
   59.6833   35.0787   44.9437 H   0  0  0  0  0  0  0  0  0  0  0  0
   58.8990   30.5910   45.2220 S   0  0  0  0  0  0  0  0  0  0  0  0
   58.2830   29.0840   45.6490 C   0  0  0  0  0  0  0  0  0  0  0  0
   58.8599   28.2450   46.0652 H   0  0  0  0  0  0  0  0  0  0  0  0
  1  2  1  0
  2  3  1  0
  3  4  1  0
  4  5  2  0
  5  6  1  0
  6  7  2  0
  6  8  1  0
  8  9  2  0
  9 10  1  0
 10 11  2  0
 11 12  1  0
 11 13  1  0
 13 14  1  0
 13 15  2  0
 15 16  1  0
 16 17  1  0
 17 18  2  0
 18 19  1  0
 18 20  1  0
 20 21  1  0
 20 22  2  0
 22 23  1  0
 23 24  3  0
 22 25  1  0
 25 26  1  0
 25 27  2  0
 27 28  1  0
 15 29  1  0
 29 30  1  0
 29 31  2  0
 31 32  1  0
 32 33  1  0
 32 34  2  0
 34 35  1  0
  4 36  1  0
 36 37  1  0
 37 38  1  0
 37  2  2  0
 34  8  1  0
 31 10  1  0
 27 17  1  0
M  CHG  1   3  -1
M  END
>  <UniqueID>  (84) 
77

>  <SMILES>  (84) 
N#Cc1ccc(Oc2ccc3nc(C(=O)/N=c4\[n-]ccs4)ccc3c2)cc1

>  <Energy>  (84) 
83.69069278206328

>  <Genealogy>  (84) 
N#Cc1ccc(Oc2ccc3nc(C(=O)N=c4[n-]ccs4)ccc3c2)cc1 (protonated)
N#Cc1ccc(Oc2ccc3nc(C(=O)/N=c4\[n-]ccs4)ccc3c2)cc1 (cis-trans isomerization)
N#Cc1ccc(Oc2ccc3nc(C(=O)/N=c4\[n-]ccs4)ccc3c2)cc1 (3D coordinates assigned)
N#Cc1ccc(Oc2ccc3nc(C(=O)/N=c4\[n-]ccs4)ccc3c2)cc1 (optimized conformer: 83.69069278206328 kcal/mol)

>  <smiles>  (84) 
N#Cc1ccc(Oc2ccc3nc(C(=O)N=c4[nH]ccs4)ccc3c2)cc1

>  <score_type>  (84) 
oracle

>  <origin>  (84) 
adg

>  <m_score__min__energy>  (84) 
-10.42

>  <m_primary>  (84) 
energy

$$$$
84:0
     RDKit          3D

 56 59  0  0  0  0  0  0  0  0999 V2000
   55.1600   29.3670   44.8040 N   0  0  0  0  0  0  0  0  0  0  0  0
   56.0790   29.6370   43.7460 C   0  0  0  0  0  0  0  0  0  0  0  0
   55.6460   29.8730   42.5880 O   0  0  0  0  0  0  0  0  0  0  0  0
   57.5550   29.6710   44.0270 C   0  0  0  0  0  0  0  0  0  0  0  0
   57.9560   28.9680   45.3460 C   0  0  1  0  0  0  0  0  0  0  0  0
   57.5480   27.5070   45.3340 C   0  0  0  0  0  0  0  0  0  0  0  0
   56.5460   27.1420   46.0120 O   0  0  0  0  0  0  0  0  0  0  0  0
   58.2820   26.5370   44.5650 N   0  0  0  0  0  0  0  0  0  0  0  0
   57.9240   25.1490   44.5190 C   0  0  0  0  0  0  0  0  0  0  0  0
   57.0110   24.6930   43.5610 C   0  0  0  0  0  0  0  0  0  0  0  0
   56.6800   23.3380   43.5000 C   0  0  0  0  0  0  0  0  0  0  0  0
   57.2450   22.4520   44.4200 C   0  0  0  0  0  0  0  0  0  0  0  0
   56.9210   21.0910   44.3500 O   0  0  0  0  0  0  0  0  0  0  0  0
   56.6190   20.2900   45.4930 C   0  0  0  0  0  0  0  0  0  0  0  0
   55.8630   21.0800   46.5300 C   0  0  0  0  0  0  0  0  0  0  0  0
   56.4520   21.3740   47.7720 C   0  0  0  0  0  0  0  0  0  0  0  0
   55.7400   22.0950   48.7340 C   0  0  0  0  0  0  0  0  0  0  0  0
   54.4400   22.5310   48.4650 C   0  0  0  0  0  0  0  0  0  0  0  0
   53.7530   23.2280   49.4040 F   0  0  0  0  0  0  0  0  0  0  0  0
   53.8480   22.2490   47.2290 C   0  0  0  0  0  0  0  0  0  0  0  0
   52.5870   22.6790   46.9650 F   0  0  0  0  0  0  0  0  0  0  0  0
   54.5570   21.5270   46.2630 C   0  0  0  0  0  0  0  0  0  0  0  0
   58.1040   22.9190   45.3660 N   0  0  0  0  0  0  0  0  0  0  0  0
   58.4550   24.2300   45.4360 C   0  0  0  0  0  0  0  0  0  0  0  0
   59.4530   29.1700   45.7150 C   0  0  0  0  0  0  0  0  0  0  0  0
   59.3680   29.9260   47.0050 C   0  0  0  0  0  0  0  0  0  0  0  0
   60.5290   30.3700   47.8160 C   0  0  0  0  0  0  0  0  0  0  0  0
   60.7920   29.7820   49.0670 C   0  0  0  0  0  0  0  0  0  0  0  0
   61.8820   30.2020   49.8300 C   0  0  0  0  0  0  0  0  0  0  0  0
   62.7180   31.2180   49.3650 C   0  0  0  0  0  0  0  0  0  0  0  0
   62.4740   31.8280   48.1200 C   0  0  0  0  0  0  0  0  0  0  0  0
   63.3550   32.9180   47.6340 C   0  0  0  0  0  0  0  0  0  0  0  0
   64.0190   33.7810   48.5560 N   0  0  0  0  0  0  0  0  0  0  0  0
   63.5260   33.0950   46.3970 O   0  0  0  0  0  0  0  0  0  0  0  0
   61.3780   31.3930   47.3510 C   0  0  0  0  0  0  0  0  0  0  0  0
   58.1500   30.1570   47.3490 N   0  0  0  0  0  0  0  0  0  0  0  0
   57.2920   29.6270   46.4210 O   0  0  0  0  0  0  0  0  0  0  0  0
   55.4380   28.7660   45.6100 H   0  0  0  0  0  0  0  0  0  0  0  0
   58.0777   29.1742   43.1964 H   0  0  0  0  0  0  0  0  0  0  0  0
   57.8374   30.7292   44.1293 H   0  0  0  0  0  0  0  0  0  0  0  0
   59.1880   26.8180   44.1280 H   0  0  0  0  0  0  0  0  0  0  0  0
   56.5540   25.4027   42.8557 H   0  0  0  0  0  0  0  0  0  0  0  0
   55.9805   22.9715   42.7342 H   0  0  0  0  0  0  0  0  0  0  0  0
   56.0058   19.4328   45.1781 H   0  0  0  0  0  0  0  0  0  0  0  0
   57.5653   19.9486   45.9379 H   0  0  0  0  0  0  0  0  0  0  0  0
   57.4763   21.0355   47.9871 H   0  0  0  0  0  0  0  0  0  0  0  0
   56.2041   22.3200   49.7056 H   0  0  0  0  0  0  0  0  0  0  0  0
   54.0910   21.3082   45.2909 H   0  0  0  0  0  0  0  0  0  0  0  0
   59.1560   24.5707   46.2123 H   0  0  0  0  0  0  0  0  0  0  0  0
   59.9626   28.2049   45.8524 H   0  0  0  0  0  0  0  0  0  0  0  0
   60.0304   29.6916   44.9375 H   0  0  0  0  0  0  0  0  0  0  0  0
   60.1340   28.9861   49.4459 H   0  0  0  0  0  0  0  0  0  0  0  0
   62.0834   29.7299   50.8029 H   0  0  0  0  0  0  0  0  0  0  0  0
   63.5731   31.5443   49.9752 H   0  0  0  0  0  0  0  0  0  0  0  0
   63.5030   34.5500   49.0400 H   0  0  0  0  0  0  0  0  0  0  0  0
   61.1821   31.8584   46.3737 H   0  0  0  0  0  0  0  0  0  0  0  0
  1  2  1  0
  2  3  2  0
  2  4  1  0
  5  4  1  6
  5  6  1  0
  6  7  2  0
  6  8  1  0
  8  9  1  0
  9 10  2  0
 10 11  1  0
 11 12  2  0
 12 13  1  0
 13 14  1  0
 14 15  1  0
 15 16  2  0
 16 17  1  0
 17 18  2  0
 18 19  1  0
 18 20  1  0
 20 21  1  0
 20 22  2  0
 12 23  1  0
 23 24  2  0
  5 25  1  0
 25 26  1  0
 26 27  1  0
 27 28  2  0
 28 29  1  0
 29 30  2  0
 30 31  1  0
 31 32  1  0
 32 33  1  0
 32 34  2  0
 31 35  2  0
 26 36  2  0
 36 37  1  0
 37  5  1  0
 24  9  1  0
 35 27  1  0
 22 15  1  0
  1 38  1  0
  4 39  1  0
  4 40  1  0
  8 41  1  0
 10 42  1  0
 11 43  1  0
 14 44  1  0
 14 45  1  0
 16 46  1  0
 17 47  1  0
 22 48  1  0
 24 49  1  0
 25 50  1  0
 25 51  1  0
 28 52  1  0
 29 53  1  0
 30 54  1  0
 33 55  1  0
 35 56  1  0
M  CHG  2   1  -1  33  -1
M  END
>  <UniqueID>  (85) 
78

>  <SMILES>  (85) 
[NH-]C(=O)C[C@@]1(C(=O)Nc2ccc(OCc3ccc(F)c(F)c3)nc2)CC(c2cccc(C([NH-])=O)c2)=NO1

>  <Energy>  (85) 
77.3385170693358

>  <Genealogy>  (85) 
[NH-]C(=O)CC1(C(=O)Nc2ccc(OCc3ccc(F)c(F)c3)nc2)CC(c2cccc(C([NH-])=O)c2)=NO1 (protonated)
[NH-]C(=O)C[C@@]1(C(=O)Nc2ccc(OCc3ccc(F)c(F)c3)nc2)CC(c2cccc(C([NH-])=O)c2)=NO1 (chirality)
[NH-]C(=O)C[C@@]1(C(=O)Nc2ccc(OCc3ccc(F)c(F)c3)nc2)CC(c2cccc(C([NH-])=O)c2)=NO1 (3D coordinates assigned)
[NH-]C(=O)C[C@@]1(C(=O)Nc2ccc(OCc3ccc(F)c(F)c3)nc2)CC(c2cccc(C([NH-])=O)c2)=NO1 (nonaromatic ring conformer: 77.3385170693358 kcal/mol)

>  <smiles>  (85) 
NC(=O)CC1(C(=O)Nc2ccc(OCc3ccc(F)c(F)c3)nc2)CC(c2cccc(C(N)=O)c2)=NO1

>  <score_type>  (85) 
oracle

>  <origin>  (85) 
adg

>  <m_score__min__energy>  (85) 
-12.68

>  <m_primary>  (85) 
energy

$$$$
85:0
     RDKit          3D

 48 50  0  0  1  0  0  0  0  0999 V2000
   57.8570   32.2150   42.4530 C   0  0  0  0  0  0  0  0  0  0  0  0
   57.2250   30.8070   43.3150 S   0  0  0  0  0  0  0  0  0  0  0  0
   56.2080   31.2930   44.3390 O   0  0  0  0  0  0  0  0  0  0  0  0
   56.4850   29.9520   42.3290 O   0  0  0  0  0  0  0  0  0  0  0  0
   58.4010   29.9320   44.1830 N   0  0  0  0  0  0  0  0  0  0  0  0
   58.3010   30.3210   45.6000 C   0  0  0  0  0  0  0  0  0  0  0  0
   57.4910   29.3020   46.3670 C   0  0  0  0  0  0  0  0  0  0  0  0
   58.2300   27.9650   46.4770 C   0  0  0  0  0  0  0  0  0  0  0  0
   57.2270   26.9660   46.5980 N   0  0  0  0  0  0  0  0  0  0  0  0
   57.1960   25.7630   46.2350 C   0  0  0  0  0  0  0  0  0  0  0  0
   57.4290   24.6780   46.9680 N   0  0  0  0  0  0  0  0  0  0  0  0
   57.3740   23.4210   46.4950 C   0  0  0  0  0  0  0  0  0  0  0  0
   57.0620   23.1940   45.1780 C   0  0  0  0  0  0  0  0  0  0  0  0
   56.9730   21.8930   44.5540 C   0  0  0  0  0  0  0  0  0  0  0  0
   57.7130   20.8230   45.1090 O   0  0  0  0  0  0  0  0  0  0  0  0
   56.2810   21.5920   43.5270 N   0  0  0  0  0  0  0  0  0  0  0  0
   56.2090   20.3620   42.9600 O   0  0  0  0  0  0  0  0  0  0  0  0
   56.8180   24.3010   44.4020 C   0  0  0  0  0  0  0  0  0  0  0  0
   56.8850   25.5310   44.9210 N   0  0  0  0  0  0  0  0  0  0  0  0
   59.1370   27.9890   47.6510 C   0  0  0  0  0  0  0  0  0  0  0  0
   59.2840   29.0220   48.5240 C   0  0  0  0  0  0  0  0  0  0  0  0
   60.1620   28.9350   49.6000 C   0  0  0  0  0  0  0  0  0  0  0  0
   60.9090   27.7910   49.8050 C   0  0  0  0  0  0  0  0  0  0  0  0
   60.7680   26.7320   48.9190 C   0  0  0  0  0  0  0  0  0  0  0  0
   59.8940   26.8370   47.8610 C   0  0  0  0  0  0  0  0  0  0  0  0
   59.0410   27.8790   45.1880 C   0  0  0  0  0  0  0  0  0  0  0  0
   58.2310   28.4980   44.0750 C   0  0  0  0  0  0  0  0  0  0  0  0
   58.1952   32.9684   43.1796 H   0  0  0  0  0  0  0  0  0  0  0  0
   58.7039   31.9086   41.8215 H   0  0  0  0  0  0  0  0  0  0  0  0
   57.0652   32.6442   41.8215 H   0  0  0  0  0  0  0  0  0  0  0  0
   59.3108   30.3816   46.0319 H   0  0  0  0  0  0  0  0  0  0  0  0
   57.8029   31.2994   45.6684 H   0  0  0  0  0  0  0  0  0  0  0  0
   57.2973   29.6876   47.3788 H   0  0  0  0  0  0  0  0  0  0  0  0
   56.5487   29.1319   45.8257 H   0  0  0  0  0  0  0  0  0  0  0  0
   57.5794   22.5729   47.1647 H   0  0  0  0  0  0  0  0  0  0  0  0
   57.7950   19.9450   44.6090 H   0  0  0  0  0  0  0  0  0  0  0  0
   56.8070   19.5800   43.2120 H   0  0  0  0  0  0  0  0  0  0  0  0
   56.5641   24.1735   43.3393 H   0  0  0  0  0  0  0  0  0  0  0  0
   56.6920   26.3270   44.2920 H   0  0  0  0  0  0  0  0  0  0  0  0
   58.6988   29.9417   48.3768 H   0  0  0  0  0  0  0  0  0  0  0  0
   60.2621   29.7836   50.2927 H   0  0  0  0  0  0  0  0  0  0  0  0
   61.6032   27.7207   50.6554 H   0  0  0  0  0  0  0  0  0  0  0  0
   61.3530   25.8115   49.0620 H   0  0  0  0  0  0  0  0  0  0  0  0
   59.7902   25.9920   47.1645 H   0  0  0  0  0  0  0  0  0  0  0  0
   59.9878   28.4261   45.3073 H   0  0  0  0  0  0  0  0  0  0  0  0
   59.2672   26.8286   44.9525 H   0  0  0  0  0  0  0  0  0  0  0  0
   58.5965   28.1455   43.0992 H   0  0  0  0  0  0  0  0  0  0  0  0
   57.1701   28.2186   44.1558 H   0  0  0  0  0  0  0  0  0  0  0  0
  1  2  1  0
  2  3  2  0
  2  4  2  0
  2  5  1  0
  5  6  1  0
  6  7  1  0
  7  8  1  0
  8  9  1  0
  9 10  2  3
 10 11  1  0
 11 12  2  0
 12 13  1  0
 13 14  1  0
 14 15  1  0
 14 16  2  0
 16 17  1  0
 13 18  2  0
 18 19  1  0
  8 20  1  0
 20 21  2  0
 21 22  1  0
 22 23  2  0
 23 24  1  0
 24 25  2  0
  8 26  1  0
 26 27  1  0
 27  5  1  0
 19 10  1  0
 25 20  1  0
  1 28  1  0
  1 29  1  0
  1 30  1  0
  6 31  1  0
  6 32  1  0
  7 33  1  0
  7 34  1  0
 12 35  1  0
 15 36  1  0
 17 37  1  0
 18 38  1  0
 19 39  1  0
 21 40  1  0
 22 41  1  0
 23 42  1  0
 24 43  1  0
 25 44  1  0
 26 45  1  0
 26 46  1  0
 27 47  1  0
 27 48  1  0
M  END
>  <smiles>  (86) 
CS(=O)(=O)N1CCC(N=c2ncc(C(O)=NO)c[nH]2)(c2ccccc2)CC1

>  <score_type>  (86) 
oracle

>  <origin>  (86) 
adg

>  <m_score__min__energy>  (86) 
-8.8000000000000007

>  <m_primary>  (86) 
energy

$$$$
86:0
     RDKit          3D

 22 23  0  0  0  0  0  0  0  0999 V2000
   63.1380   34.2070   51.9700 N   0  0  0  0  0  0  0  0  0  0  0  0
   63.0420   33.9770   50.8400 C   0  0  0  0  0  0  0  0  0  0  0  0
   62.9220   33.6930   49.4340 C   0  0  0  0  0  0  0  0  0  0  0  0
   61.7180   33.8430   48.8250 N   0  0  0  0  0  0  0  0  0  0  0  0
   61.5450   33.5920   47.4970 C   0  0  0  0  0  0  0  0  0  0  0  0
   60.2000   33.7710   46.8890 C   0  0  0  0  0  0  0  0  0  0  0  0
   59.0590   33.2960   47.5640 C   0  0  0  0  0  0  0  0  0  0  0  0
   57.7870   33.4610   47.0090 C   0  0  0  0  0  0  0  0  0  0  0  0
   57.6350   34.1070   45.7800 C   0  0  0  0  0  0  0  0  0  0  0  0
   56.4000   34.2670   45.2450 F   0  0  0  0  0  0  0  0  0  0  0  0
   58.7570   34.5940   45.1070 C   0  0  0  0  0  0  0  0  0  0  0  0
   60.0340   34.4310   45.6550 C   0  0  0  0  0  0  0  0  0  0  0  0
   62.6500   33.1530   46.7480 C   0  0  0  0  0  0  0  0  0  0  0  0
   63.8590   33.0020   47.3530 N   0  0  0  0  0  0  0  0  0  0  0  0
   64.0220   33.2640   48.6790 C   0  0  0  0  0  0  0  0  0  0  0  0
   65.1550   33.1160   49.2140 O   0  0  0  0  0  0  0  0  0  0  0  0
   59.1697   32.7914   48.5352 H   0  0  0  0  0  0  0  0  0  0  0  0
   56.9028   33.0809   47.5417 H   0  0  0  0  0  0  0  0  0  0  0  0
   58.6366   35.1080   44.1419 H   0  0  0  0  0  0  0  0  0  0  0  0
   60.9128   34.8200   45.1199 H   0  0  0  0  0  0  0  0  0  0  0  0
   62.5377   32.9322   45.6762 H   0  0  0  0  0  0  0  0  0  0  0  0
   64.6720   32.6720   46.7850 H   0  0  0  0  0  0  0  0  0  0  0  0
  1  2  3  0
  2  3  1  0
  3  4  2  0
  4  5  1  0
  5  6  1  0
  6  7  2  0
  7  8  1  0
  8  9  2  0
  9 10  1  0
  9 11  1  0
 11 12  2  0
  5 13  2  0
 13 14  1  0
 14 15  1  0
 15 16  2  0
 15  3  1  0
 12  6  1  0
  7 17  1  0
  8 18  1  0
 11 19  1  0
 12 20  1  0
 13 21  1  0
 14 22  1  0
M  END
>  <UniqueID>  (87) 
79

>  <SMILES>  (87) 
N#Cc1nc(-c2ccc(F)cc2)c[nH]c1=O

>  <Energy>  (87) 
28.0110998934294

>  <Genealogy>  (87) 
N#Cc1nc(-c2ccc(F)cc2)c[nH]c1=O (3D coordinates assigned)
N#Cc1nc(-c2ccc(F)cc2)c[nH]c1=O (optimized conformer: 28.0110998934294 kcal/mol)

>  <smiles>  (87) 
N#Cc1nc(-c2ccc(F)cc2)c[nH]c1=O

>  <score_type>  (87) 
oracle

>  <origin>  (87) 
adg

>  <m_score__min__energy>  (87) 
-5.4400000000000004

>  <m_primary>  (87) 
energy

$$$$
87:0
     RDKit          3D

 48 51  0  0  0  0  0  0  0  0999 V2000
   57.9110   26.7610   42.5280 C   0  0  0  0  0  0  0  0  0  0  0  0
   57.8640   26.5520   43.9830 N   0  0  0  0  0  0  0  0  0  0  0  0
   58.3700   27.5460   44.9030 C   0  0  0  0  0  0  0  0  0  0  0  0
   59.3380   28.4890   44.5100 C   0  0  0  0  0  0  0  0  0  0  0  0
   59.8280   29.4250   45.4230 C   0  0  0  0  0  0  0  0  0  0  0  0
   59.3750   29.4370   46.7440 C   0  0  0  0  0  0  0  0  0  0  0  0
   59.8940   30.4050   47.6150 O   0  0  0  0  0  0  0  0  0  0  0  0
   61.0710   31.1700   47.3650 C   0  0  0  0  0  0  0  0  0  0  0  0
   60.7100   32.6410   47.1480 C   0  0  0  0  0  0  0  0  0  0  0  0
   59.7260   32.8700   45.9850 C   0  0  0  0  0  0  0  0  0  0  0  0
   58.2750   33.1170   46.4330 C   0  0  0  0  0  0  0  0  0  0  0  0
   57.4230   31.9550   46.1700 N   0  0  0  0  0  0  0  0  0  0  0  0
   57.1620   31.4720   44.9910 C   0  0  0  0  0  0  0  0  0  0  0  0
   57.6950   32.0720   43.8940 N   0  0  0  0  0  0  0  0  0  0  0  0
   57.4450   31.5980   42.6450 C   0  0  0  0  0  0  0  0  0  0  0  0
   56.6290   30.4810   42.4760 C   0  0  0  0  0  0  0  0  0  0  0  0
   56.0870   29.8770   43.6090 C   0  0  0  0  0  0  0  0  0  0  0  0
   56.3610   30.3800   44.8410 N   0  0  0  0  0  0  0  0  0  0  0  0
   58.4230   28.4860   47.1520 C   0  0  0  0  0  0  0  0  0  0  0  0
   57.9320   27.5340   46.2480 C   0  0  0  0  0  0  0  0  0  0  0  0
   56.8880   26.5450   46.7160 C   0  0  0  0  0  0  0  0  0  0  0  0
   56.6880   25.4660   45.7470 N   0  0  0  0  0  0  0  0  0  0  0  0
   55.4590   24.7780   45.5430 C   0  0  0  0  0  0  0  0  0  0  0  0
   54.5090   24.7980   46.3690 O   0  0  0  0  0  0  0  0  0  0  0  0
   55.3890   24.0850   44.3090 N   0  0  0  0  0  0  0  0  0  0  0  0
   56.6520   24.3700   43.7190 C   0  0  0  0  0  0  0  0  0  0  0  0
   57.0220   23.8480   42.6340 O   0  0  0  0  0  0  0  0  0  0  0  0
   57.5260   25.2480   44.5750 C   0  0  1  0  0  0  0  0  0  0  0  0
   58.1478   27.8141   42.3163 H   0  0  0  0  0  0  0  0  0  0  0  0
   58.6864   26.1155   42.0897 H   0  0  0  0  0  0  0  0  0  0  0  0
   56.9339   26.5096   42.0897 H   0  0  0  0  0  0  0  0  0  0  0  0
   59.7115   28.4887   43.4754 H   0  0  0  0  0  0  0  0  0  0  0  0
   60.5787   30.1606   45.0984 H   0  0  0  0  0  0  0  0  0  0  0  0
   61.7489   31.0858   48.2272 H   0  0  0  0  0  0  0  0  0  0  0  0
   61.5638   30.7845   46.4603 H   0  0  0  0  0  0  0  0  0  0  0  0
   60.2529   33.0266   48.0712 H   0  0  0  0  0  0  0  0  0  0  0  0
   61.6412   33.1669   46.8906 H   0  0  0  0  0  0  0  0  0  0  0  0
   60.0651   33.7458   45.4122 H   0  0  0  0  0  0  0  0  0  0  0  0
   59.7215   31.9478   45.3854 H   0  0  0  0  0  0  0  0  0  0  0  0
   58.2661   33.3289   47.5124 H   0  0  0  0  0  0  0  0  0  0  0  0
   57.8794   33.9695   45.8613 H   0  0  0  0  0  0  0  0  0  0  0  0
   57.8862   32.0954   41.7687 H   0  0  0  0  0  0  0  0  0  0  0  0
   56.4176   30.0852   41.4717 H   0  0  0  0  0  0  0  0  0  0  0  0
   55.4385   28.9945   43.5060 H   0  0  0  0  0  0  0  0  0  0  0  0
   58.0602   28.4892   48.1904 H   0  0  0  0  0  0  0  0  0  0  0  0
   57.2137   26.1091   47.6720 H   0  0  0  0  0  0  0  0  0  0  0  0
   55.9351   27.0824   46.8307 H   0  0  0  0  0  0  0  0  0  0  0  0
   58.5015   24.7709   44.7504 H   0  0  0  0  0  0  0  0  0  0  0  0
  1  2  1  0
  2  3  1  0
  3  4  2  0
  4  5  1  0
  5  6  2  0
  6  7  1  0
  7  8  1  0
  8  9  1  0
  9 10  1  0
 10 11  1  0
 11 12  1  0
 12 13  2  3
 13 14  1  0
 14 15  2  0
 15 16  1  0
 16 17  2  0
 17 18  1  0
  6 19  1  0
 19 20  2  0
 20 21  1  0
 21 22  1  0
 22 23  1  0
 23 24  2  0
 23 25  1  0
 25 26  1  0
 26 27  2  0
 26 28  1  0
 28  2  1  0
 20  3  1  0
 28 22  1  0
 18 13  1  0
  1 29  1  0
  1 30  1  0
  1 31  1  0
  4 32  1  0
  5 33  1  0
  8 34  1  0
  8 35  1  0
  9 36  1  0
  9 37  1  0
 10 38  1  0
 10 39  1  0
 11 40  1  0
 11 41  1  0
 15 42  1  0
 16 43  1  0
 17 44  1  0
 19 45  1  0
 21 46  1  0
 21 47  1  0
 28 48  1  1
M  CHG  2  18  -1  25  -1
M  END
>  <UniqueID>  (88) 
80

>  <SMILES>  (88) 
CN1c2ccc(OCCCCN=c3nccc[n-]3)cc2CN2C(=O)[N-]C(=O)[C@H]21

>  <Energy>  (88) 
73.72679967370388

>  <Genealogy>  (88) 
CN1c2ccc(OCCCCN=c3nccc[n-]3)cc2CN2C(=O)[N-]C(=O)C21 (protonated)
CN1c2ccc(OCCCCN=c3nccc[n-]3)cc2CN2C(=O)[N-]C(=O)[C@H]21 (chirality)
CN1c2ccc(OCCCCN=c3nccc[n-]3)cc2CN2C(=O)[N-]C(=O)[C@H]21 (3D coordinates assigned)
CN1c2ccc(OCCCCN=c3nccc[n-]3)cc2CN2C(=O)[N-]C(=O)[C@H]21 (nonaromatic ring conformer: 73.72679967370388 kcal/mol)

>  <smiles>  (88) 
CN1c2ccc(OCCCCN=c3nccc[nH]3)cc2CN2C(=O)NC(=O)C21

>  <score_type>  (88) 
oracle

>  <origin>  (88) 
adg

>  <m_score__min__energy>  (88) 
-10.27

>  <m_primary>  (88) 
energy

$$$$
88:0
     RDKit          3D

 29 31  0  0  0  0  0  0  0  0999 V2000
   55.7930   28.5440   45.2170 O   0  0  0  0  0  0  0  0  0  0  0  0
   57.0150   28.2600   45.3390 C   0  0  0  0  0  0  0  0  0  0  0  0
   57.4650   26.8420   45.1990 C   0  0  0  0  0  0  0  0  0  0  0  0
   56.9170   25.8440   46.6280 S   0  0  0  0  0  0  0  0  0  0  0  0
   55.7040   24.8970   45.7030 C   0  0  0  0  0  0  0  0  0  0  0  0
   54.3690   25.0730   45.9320 N   0  0  0  0  0  0  0  0  0  0  0  0
   53.4250   24.3440   45.2520 C   0  0  0  0  0  0  0  0  0  0  0  0
   53.8030   23.4180   44.3190 N   0  0  0  0  0  0  0  0  0  0  0  0
   55.1270   23.2490   44.0880 C   0  0  0  0  0  0  0  0  0  0  0  0
   55.6900   22.3900   43.2240 N   0  0  0  0  0  0  0  0  0  0  0  0
   57.0070   22.5510   43.3310 N   0  0  0  0  0  0  0  0  0  0  0  0
   57.2730   23.5040   44.2590 C   0  0  0  0  0  0  0  0  0  0  0  0
   56.0730   23.9590   44.7480 C   0  0  0  0  0  0  0  0  0  0  0  0
   57.9830   29.2820   45.6100 N   0  0  0  0  0  0  0  0  0  0  0  0
   58.0280   30.5880   45.0180 C   0  0  0  0  0  0  0  0  0  0  0  0
   58.2650   31.6920   45.8460 C   0  0  0  0  0  0  0  0  0  0  0  0
   58.2770   32.9870   45.3150 C   0  0  0  0  0  0  0  0  0  0  0  0
   58.5860   34.3610   46.3600 Cl  0  0  0  0  0  0  0  0  0  0  0  0
   58.0350   33.1840   43.9530 C   0  0  0  0  0  0  0  0  0  0  0  0
   57.7730   32.0910   43.1220 C   0  0  0  0  0  0  0  0  0  0  0  0
   57.4390   32.3430   41.4190 Cl  0  0  0  0  0  0  0  0  0  0  0  0
   57.7640   30.7950   43.6510 C   0  0  0  0  0  0  0  0  0  0  0  0
   57.0389   26.4176   44.2780 H   0  0  0  0  0  0  0  0  0  0  0  0
   58.5640   26.8232   45.1562 H   0  0  0  0  0  0  0  0  0  0  0  0
   52.3568   24.5058   45.4590 H   0  0  0  0  0  0  0  0  0  0  0  0
   58.2712   23.8504   44.5651 H   0  0  0  0  0  0  0  0  0  0  0  0
   58.4429   31.5406   46.9209 H   0  0  0  0  0  0  0  0  0  0  0  0
   58.0507   34.2010   43.5340 H   0  0  0  0  0  0  0  0  0  0  0  0
   57.5502   29.9367   42.9971 H   0  0  0  0  0  0  0  0  0  0  0  0
  1  2  2  0
  2  3  1  0
  3  4  1  0
  4  5  1  0
  5  6  2  0
  6  7  1  0
  7  8  2  0
  8  9  1  0
  9 10  1  0
 10 11  1  0
 11 12  2  0
 12 13  1  0
  2 14  1  0
 14 15  1  0
 15 16  2  0
 16 17  1  0
 17 18  1  0
 17 19  2  0
 19 20  1  0
 20 21  1  0
 20 22  2  0
 13  5  1  0
 22 15  1  0
 13  9  2  0
  3 23  1  0
  3 24  1  0
  7 25  1  0
 12 26  1  0
 16 27  1  0
 19 28  1  0
 22 29  1  0
M  CHG  2  10  -1  14  -1
M  END
>  <UniqueID>  (89) 
81

>  <SMILES>  (89) 
O=C(CSc1ncnc2[n-]ncc12)[N-]c1cc(Cl)cc(Cl)c1

>  <Energy>  (89) 
70.05051807521748

>  <Genealogy>  (89) 
O=C(CSc1ncnc2[n-]ncc12)[N-]c1cc(Cl)cc(Cl)c1 (protonated)
O=C(CSc1ncnc2[n-]ncc12)[N-]c1cc(Cl)cc(Cl)c1 (3D coordinates assigned)
O=C(CSc1ncnc2[n-]ncc12)[N-]c1cc(Cl)cc(Cl)c1 (optimized conformer: 70.05051807521748 kcal/mol)

>  <smiles>  (89) 
O=C(CSc1ncnc2[nH]ncc12)Nc1cc(Cl)cc(Cl)c1

>  <score_type>  (89) 
oracle

>  <origin>  (89) 
adg

>  <m_score__min__energy>  (89) 
-11.57

>  <m_primary>  (89) 
energy

$$$$
89:0
     RDKit          3D

 58 62  0  0  0  0  0  0  0  0999 V2000
   63.3690   33.8720   46.3870 C   0  0  0  0  0  0  0  0  0  0  0  0
   62.9920   33.9080   47.8650 C   0  0  0  0  0  0  0  0  0  0  0  0
   62.0760   32.7640   48.2090 C   0  0  0  0  0  0  0  0  0  0  0  0
   61.0590   32.9320   49.1620 C   0  0  0  0  0  0  0  0  0  0  0  0
   60.2300   31.8610   49.5040 C   0  0  0  0  0  0  0  0  0  0  0  0
   60.4110   30.6090   48.9020 C   0  0  0  0  0  0  0  0  0  0  0  0
   59.3790   29.2590   49.3610 S   0  0  0  0  0  0  0  0  0  0  0  0
   58.2200   29.7440   50.1860 O   0  0  0  0  0  0  0  0  0  0  0  0
   60.1700   28.2890   50.1950 O   0  0  0  0  0  0  0  0  0  0  0  0
   58.7830   28.4700   47.8960 C   0  0  0  0  0  0  0  0  0  0  0  0
   58.5690   27.0930   47.8920 C   0  0  0  0  0  0  0  0  0  0  0  0
   58.1360   26.4530   46.7270 C   0  0  0  0  0  0  0  0  0  0  0  0
   57.9270   25.0610   46.6710 C   0  0  0  0  0  0  0  0  0  0  0  0
   58.1280   24.3600   47.7050 O   0  0  0  0  0  0  0  0  0  0  0  0
   57.5110   24.4720   45.5030 N   0  0  0  0  0  0  0  0  0  0  0  0
   57.3050   23.1150   45.4360 C   0  0  0  0  0  0  0  0  0  0  0  0
   56.8830   22.5130   44.2480 C   0  0  0  0  0  0  0  0  0  0  0  0
   56.6700   23.2980   43.1190 C   0  0  0  0  0  0  0  0  0  0  0  0
   56.8780   24.6730   43.1840 C   0  0  0  0  0  0  0  0  0  0  0  0
   57.3000   25.2510   44.3860 C   0  0  0  0  0  0  0  0  0  0  0  0
   57.4970   26.5920   44.4370 N   0  0  0  0  0  0  0  0  0  0  0  0
   57.9020   27.2210   45.5710 C   0  0  0  0  0  0  0  0  0  0  0  0
   58.0740   28.5870   45.5890 N   0  0  0  0  0  0  0  0  0  0  0  0
   57.7620   29.3820   44.3780 C   0  0  0  0  0  0  0  0  0  0  0  0
   56.4450   30.1140   44.5040 C   0  0  0  0  0  0  0  0  0  0  0  0
   55.3950   29.4470   44.6910 O   0  0  0  0  0  0  0  0  0  0  0  0
   56.3530   31.5450   44.4610 N   0  0  0  0  0  0  0  0  0  0  0  0
   57.3550   32.4510   44.9320 C   0  0  0  0  0  0  0  0  0  0  0  0
   57.3820   32.7950   46.2900 C   0  0  0  0  0  0  0  0  0  0  0  0
   58.3590   33.6690   46.7750 C   0  0  0  0  0  0  0  0  0  0  0  0
   59.2990   34.2220   45.9000 C   0  0  0  0  0  0  0  0  0  0  0  0
   59.2600   33.9050   44.5380 C   0  0  0  0  0  0  0  0  0  0  0  0
   58.2870   33.0250   44.0510 C   0  0  0  0  0  0  0  0  0  0  0  0
   58.2420   32.7490   42.7230 F   0  0  0  0  0  0  0  0  0  0  0  0
   58.5540   29.2060   46.7220 C   0  0  0  0  0  0  0  0  0  0  0  0
   58.7940   30.4440   46.7200 O   0  0  0  0  0  0  0  0  0  0  0  0
   61.4380   30.4310   47.9670 C   0  0  0  0  0  0  0  0  0  0  0  0
   62.2680   31.5020   47.6220 C   0  0  0  0  0  0  0  0  0  0  0  0
   64.4597   33.7679   46.2892 H   0  0  0  0  0  0  0  0  0  0  0  0
   62.8742   33.0170   45.9031 H   0  0  0  0  0  0  0  0  0  0  0  0
   63.0449   34.8052   45.9031 H   0  0  0  0  0  0  0  0  0  0  0  0
   63.9060   33.8339   48.4726 H   0  0  0  0  0  0  0  0  0  0  0  0
   62.4702   34.8536   48.0737 H   0  0  0  0  0  0  0  0  0  0  0  0
   60.9143   33.9113   49.6415 H   0  0  0  0  0  0  0  0  0  0  0  0
   59.4324   32.0011   50.2485 H   0  0  0  0  0  0  0  0  0  0  0  0
   58.7412   26.5083   48.8077 H   0  0  0  0  0  0  0  0  0  0  0  0
   57.4745   22.4951   46.3288 H   0  0  0  0  0  0  0  0  0  0  0  0
   56.7202   21.4259   44.2054 H   0  0  0  0  0  0  0  0  0  0  0  0
   56.3384   22.8338   42.1785 H   0  0  0  0  0  0  0  0  0  0  0  0
   56.7116   25.3007   42.2962 H   0  0  0  0  0  0  0  0  0  0  0  0
   58.5638   30.1184   44.2204 H   0  0  0  0  0  0  0  0  0  0  0  0
   57.6851   28.6888   43.5273 H   0  0  0  0  0  0  0  0  0  0  0  0
   56.6318   32.3758   46.9767 H   0  0  0  0  0  0  0  0  0  0  0  0
   58.3884   33.9218   47.8452 H   0  0  0  0  0  0  0  0  0  0  0  0
   60.0699   34.9069   46.2829 H   0  0  0  0  0  0  0  0  0  0  0  0
   59.9947   34.3478   43.8494 H   0  0  0  0  0  0  0  0  0  0  0  0
   61.5922   29.4458   47.5026 H   0  0  0  0  0  0  0  0  0  0  0  0
   63.0744   31.3560   46.8882 H   0  0  0  0  0  0  0  0  0  0  0  0
  1  2  1  0
  2  3  1  0
  3  4  2  0
  4  5  1  0
  5  6  2  0
  6  7  1  0
  7  8  2  0
  7  9  2  0
  7 10  1  0
 10 11  2  0
 11 12  1  0
 12 13  1  0
 13 14  2  0
 13 15  1  0
 15 16  1  0
 16 17  2  0
 17 18  1  0
 18 19  2  0
 19 20  1  0
 20 21  2  0
 21 22  1  0
 22 23  1  0
 23 24  1  0
 24 25  1  0
 25 26  2  0
 25 27  1  0
 27 28  1  0
 28 29  2  0
 29 30  1  0
 30 31  2  0
 31 32  1  0
 32 33  2  0
 33 34  1  0
 23 35  1  0
 35 36  2  0
  6 37  1  0
 37 38  2  0
 38  3  1  0
 35 10  1  0
 22 12  2  0
 33 28  1  0
 20 15  1  0
  1 39  1  0
  1 40  1  0
  1 41  1  0
  2 42  1  0
  2 43  1  0
  4 44  1  0
  5 45  1  0
 11 46  1  0
 16 47  1  0
 17 48  1  0
 18 49  1  0
 19 50  1  0
 24 51  1  0
 24 52  1  0
 29 53  1  0
 30 54  1  0
 31 55  1  0
 32 56  1  0
 37 57  1  0
 38 58  1  0
M  CHG  1  27  -1
M  END
>  <UniqueID>  (90) 
82

>  <SMILES>  (90) 
CCc1ccc(S(=O)(=O)c2cc3c(=O)n4ccccc4nc3n(CC(=O)[N-]c3ccccc3F)c2=O)cc1

>  <Energy>  (90) 
81.07053657397185

>  <Genealogy>  (90) 
CCc1ccc(S(=O)(=O)c2cc3c(=O)n4ccccc4nc3n(CC(=O)[N-]c3ccccc3F)c2=O)cc1 (protonated)
CCc1ccc(S(=O)(=O)c2cc3c(=O)n4ccccc4nc3n(CC(=O)[N-]c3ccccc3F)c2=O)cc1 (3D coordinates assigned)
CCc1ccc(S(=O)(=O)c2cc3c(=O)n4ccccc4nc3n(CC(=O)[N-]c3ccccc3F)c2=O)cc1 (optimized conformer: 81.07053657397185 kcal/mol)

>  <smiles>  (90) 
CCc1ccc(S(=O)(=O)c2cc3c(=O)n4ccccc4nc3n(CC(=O)Nc3ccccc3F)c2=O)cc1

>  <score_type>  (90) 
oracle

>  <origin>  (90) 
adg

>  <m_score__min__energy>  (90) 
-11.19

>  <m_primary>  (90) 
energy

$$$$
90:0
     RDKit          3D

 25 26  0  0  0  0  0  0  0  0999 V2000
   56.8800   19.9370   43.0920 H   0  0  0  0  0  0  0  0  0  0  0  0
   56.3090   20.7720   43.0220 O   0  0  0  0  0  0  0  0  0  0  0  0
   56.5290   21.8750   43.8430 C   0  0  0  0  0  0  0  0  0  0  0  0
   56.7250   21.6860   45.2150 C   0  0  0  0  0  0  0  0  0  0  0  0
   56.7036   20.6703   45.6368 H   0  0  0  0  0  0  0  0  0  0  0  0
   56.9480   22.7830   46.0520 C   0  0  0  0  0  0  0  0  0  0  0  0
   57.1008   22.6267   47.1301 H   0  0  0  0  0  0  0  0  0  0  0  0
   56.9780   24.0850   45.5230 C   0  0  0  0  0  0  0  0  0  0  0  0
   57.2340   25.2730   46.4160 C   0  0  0  0  0  0  0  0  0  0  0  0
   58.2861   25.5768   46.3126 H   0  0  0  0  0  0  0  0  0  0  0  0
   57.0092   24.9787   47.4518 H   0  0  0  0  0  0  0  0  0  0  0  0
   56.3500   26.4410   46.0560 C   0  0  0  0  0  0  0  0  0  0  0  0
   55.1050   26.2700   45.9830 O   0  0  0  0  0  0  0  0  0  0  0  0
   56.8640   27.7770   45.9890 N   0  0  0  0  0  0  0  0  0  0  0  0
   56.6740   28.6280   45.0240 C   0  0  0  0  0  0  0  0  0  0  0  0
   55.5190   29.3120   44.8890 N   0  0  0  0  0  0  0  0  0  0  0  0
   55.5290   30.1040   43.7840 C   0  0  0  0  0  0  0  0  0  0  0  0
   54.6782   30.7456   43.5110 H   0  0  0  0  0  0  0  0  0  0  0  0
   56.6910   30.0450   43.0240 C   0  0  0  0  0  0  0  0  0  0  0  0
   56.8886   30.6096   42.1008 H   0  0  0  0  0  0  0  0  0  0  0  0
   57.7420   28.9600   43.7620 S   0  0  0  0  0  0  0  0  0  0  0  0
   56.7770   24.2680   44.1450 C   0  0  0  0  0  0  0  0  0  0  0  0
   56.7945   25.2826   43.7203 H   0  0  0  0  0  0  0  0  0  0  0  0
   56.5550   23.1700   43.3100 C   0  0  0  0  0  0  0  0  0  0  0  0
   56.4003   23.3229   42.2317 H   0  0  0  0  0  0  0  0  0  0  0  0
  1  2  1  0
  2  3  1  0
  3  4  2  0
  4  5  1  0
  4  6  1  0
  6  7  1  0
  6  8  2  0
  8  9  1  0
  9 10  1  0
  9 11  1  0
  9 12  1  0
 12 13  2  0
 12 14  1  0
 14 15  2  0
 15 16  1  0
 16 17  1  0
 17 18  1  0
 17 19  2  0
 19 20  1  0
 19 21  1  0
  8 22  1  0
 22 23  1  0
 22 24  2  0
 24 25  1  0
 24  3  1  0
 21 15  1  0
M  CHG  1  16  -1
M  END
>  <UniqueID>  (91) 
83

>  <SMILES>  (91) 
O=C(Cc1ccc(O)cc1)/N=c1/[n-]ccs1

>  <Energy>  (91) 
61.86470824790213

>  <Genealogy>  (91) 
O=C(Cc1ccc(O)cc1)N=c1[n-]ccs1 (protonated)
O=C(Cc1ccc(O)cc1)/N=c1/[n-]ccs1 (cis-trans isomerization)
O=C(Cc1ccc(O)cc1)/N=c1/[n-]ccs1 (3D coordinates assigned)
O=C(Cc1ccc(O)cc1)/N=c1/[n-]ccs1 (optimized conformer: 61.86470824790213 kcal/mol)

>  <smiles>  (91) 
O=C(Cc1ccc(O)cc1)N=c1[nH]ccs1

>  <score_type>  (91) 
oracle

>  <origin>  (91) 
adg

>  <m_score__min__energy>  (91) 
-8.8100000000000005

>  <m_primary>  (91) 
energy

$$$$
91:0
     RDKit          3D

 43 45  0  0  0  0  0  0  0  0999 V2000
   60.5530   26.7380   47.5940 C   0  0  0  0  0  0  0  0  0  0  0  0
   59.5880   26.7870   46.5480 O   0  0  0  0  0  0  0  0  0  0  0  0
   58.9350   27.9530   46.1230 C   0  0  0  0  0  0  0  0  0  0  0  0
   59.6620   29.1470   46.0980 C   0  0  0  0  0  0  0  0  0  0  0  0
   59.0600   30.3350   45.6840 C   0  0  0  0  0  0  0  0  0  0  0  0
   57.7180   30.3460   45.2690 C   0  0  0  0  0  0  0  0  0  0  0  0
   57.0740   31.5650   44.8710 N   0  0  0  0  0  0  0  0  0  0  0  0
   57.3760   32.8830   45.3480 C   0  0  0  0  0  0  0  0  0  0  0  0
   56.7570   33.3190   46.3540 O   0  0  0  0  0  0  0  0  0  0  0  0
   58.3800   33.7650   44.6590 C   0  0  0  0  0  0  0  0  0  0  0  0
   59.2020   34.8790   45.8540 S   0  0  0  0  0  0  0  0  0  0  0  0
   59.9570   33.5660   46.8190 C   0  0  0  0  0  0  0  0  0  0  0  0
   61.3510   33.3620   46.7490 C   0  0  0  0  0  0  0  0  0  0  0  0
   61.9280   32.3280   47.5070 C   0  0  0  0  0  0  0  0  0  0  0  0
   63.4070   32.0800   47.4860 C   0  0  0  0  0  0  0  0  0  0  0  0
   61.1040   31.5900   48.2960 N   0  0  0  0  0  0  0  0  0  0  0  0
   61.4400   30.5930   49.0970 N   0  0  0  0  0  0  0  0  0  0  0  0
   60.2870   30.1790   49.6700 C   0  0  0  0  0  0  0  0  0  0  0  0
   60.2280   29.2350   50.5000 O   0  0  0  0  0  0  0  0  0  0  0  0
   59.1970   30.9210   49.2330 C   0  0  0  0  0  0  0  0  0  0  0  0
   59.7830   31.8060   48.3560 C   0  0  0  0  0  0  0  0  0  0  0  0
   59.1860   32.7850   47.6330 N   0  0  0  0  0  0  0  0  0  0  0  0
   56.9670   29.1610   45.3120 C   0  0  0  0  0  0  0  0  0  0  0  0
   55.6170   29.2100   44.9300 O   0  0  0  0  0  0  0  0  0  0  0  0
   55.1460   29.7310   43.6910 C   0  0  0  0  0  0  0  0  0  0  0  0
   57.5820   27.9630   45.7310 C   0  0  0  0  0  0  0  0  0  0  0  0
   60.0407   26.7640   48.5671 H   0  0  0  0  0  0  0  0  0  0  0  0
   61.1363   25.8091   47.5115 H   0  0  0  0  0  0  0  0  0  0  0  0
   61.2274   27.6031   47.5115 H   0  0  0  0  0  0  0  0  0  0  0  0
   60.7176   29.1494   46.4074 H   0  0  0  0  0  0  0  0  0  0  0  0
   59.6400   31.2697   45.6824 H   0  0  0  0  0  0  0  0  0  0  0  0
   59.1395   33.1346   44.1736 H   0  0  0  0  0  0  0  0  0  0  0  0
   57.8541   34.3782   43.9124 H   0  0  0  0  0  0  0  0  0  0  0  0
   61.9774   34.0025   46.1107 H   0  0  0  0  0  0  0  0  0  0  0  0
   63.7829   32.0170   48.5179 H   0  0  0  0  0  0  0  0  0  0  0  0
   63.6129   31.1348   46.9624 H   0  0  0  0  0  0  0  0  0  0  0  0
   63.9100   32.9064   46.9624 H   0  0  0  0  0  0  0  0  0  0  0  0
   58.1380   30.8260   49.5151 H   0  0  0  0  0  0  0  0  0  0  0  0
   58.1560   32.9440   47.7060 H   0  0  0  0  0  0  0  0  0  0  0  0
   54.4197   30.5344   43.8835 H   0  0  0  0  0  0  0  0  0  0  0  0
   55.9935   30.1328   43.1163 H   0  0  0  0  0  0  0  0  0  0  0  0
   54.6610   28.9282   43.1163 H   0  0  0  0  0  0  0  0  0  0  0  0
   57.0008   27.0293   45.7519 H   0  0  0  0  0  0  0  0  0  0  0  0
  1  2  1  0
  2  3  1  0
  3  4  2  0
  4  5  1  0
  5  6  2  0
  6  7  1  0
  7  8  1  0
  8  9  2  0
  8 10  1  0
 10 11  1  0
 11 12  1  0
 12 13  1  0
 13 14  2  0
 14 15  1  0
 14 16  1  0
 16 17  1  0
 17 18  1  0
 18 19  2  0
 18 20  1  0
 20 21  2  0
 21 22  1  0
  6 23  1  0
 23 24  1  0
 24 25  1  0
 23 26  2  0
 26  3  1  0
 22 12  2  0
 21 16  1  0
  1 27  1  0
  1 28  1  0
  1 29  1  0
  4 30  1  0
  5 31  1  0
 10 32  1  0
 10 33  1  0
 13 34  1  0
 15 35  1  0
 15 36  1  0
 15 37  1  0
 20 38  1  0
 22 39  1  0
 25 40  1  0
 25 41  1  0
 25 42  1  0
 26 43  1  0
M  CHG  3   7  -1  17  -1  22   1
M  END
>  <UniqueID>  (92) 
84

>  <SMILES>  (92) 
COc1ccc([N-]C(=O)CSc2cc(C)n3[n-]c(=O)cc3[nH+]2)c(OC)c1

>  <Energy>  (92) 
82.26766208727169

>  <Genealogy>  (92) 
COc1ccc([N-]C(=O)CSc2cc(C)n3[n-]c(=O)cc3[nH+]2)c(OC)c1 (protonated)
COc1ccc([N-]C(=O)CSc2cc(C)n3[n-]c(=O)cc3[nH+]2)c(OC)c1 (3D coordinates assigned)
COc1ccc([N-]C(=O)CSc2cc(C)n3[n-]c(=O)cc3[nH+]2)c(OC)c1 (optimized conformer: 82.26766208727169 kcal/mol)

>  <smiles>  (92) 
COc1ccc(NC(=O)CSc2cc(C)n3[nH]c(=O)cc3n2)c(OC)c1

>  <score_type>  (92) 
oracle

>  <origin>  (92) 
adg

>  <m_score__min__energy>  (92) 
-8.6199999999999992

>  <m_primary>  (92) 
energy

$$$$
92:0
     RDKit          3D

 45 47  0  0  0  0  0  0  0  0999 V2000
   64.5690   33.5350   50.8920 C   0  0  0  0  0  0  0  0  0  0  0  0
   63.1700   33.0780   50.8200 N   0  0  0  0  0  0  0  0  0  0  0  0
   63.0930   31.6810   50.3040 C   0  0  0  0  0  0  0  0  0  0  0  0
   62.6440   31.5980   48.8380 C   0  0  0  0  0  0  0  0  0  0  0  0
   61.3570   32.2880   48.6700 N   0  0  0  0  0  0  0  0  0  0  0  0
   60.4250   31.8730   47.6470 C   0  0  0  0  0  0  0  0  0  0  0  0
   59.1530   32.4600   47.5560 C   0  0  0  0  0  0  0  0  0  0  0  0
   58.2540   32.0540   46.5680 C   0  0  0  0  0  0  0  0  0  0  0  0
   58.6000   31.0470   45.6530 C   0  0  0  0  0  0  0  0  0  0  0  0
   57.6800   30.6980   44.6060 N   0  0  0  0  0  0  0  0  0  0  0  0
   56.5990   30.1380   44.8830 O   0  0  0  0  0  0  0  0  0  0  0  0
   57.8790   31.1620   43.3270 O   0  0  0  0  0  0  0  0  0  0  0  0
   59.8610   30.4220   45.7650 C   0  0  0  0  0  0  0  0  0  0  0  0
   60.3300   29.0210   44.7320 S   0  0  0  0  0  0  0  0  0  0  0  0
   59.1580   27.9050   45.5260 C   0  0  0  0  0  0  0  0  0  0  0  0
   59.4910   27.3680   46.7790 C   0  0  0  0  0  0  0  0  0  0  0  0
   58.5940   26.5420   47.4570 C   0  0  0  0  0  0  0  0  0  0  0  0
   57.3590   26.2350   46.8850 C   0  0  0  0  0  0  0  0  0  0  0  0
   57.0250   26.7430   45.6290 C   0  0  0  0  0  0  0  0  0  0  0  0
   57.9210   27.5690   44.9320 C   0  0  0  0  0  0  0  0  0  0  0  0
   57.5700   28.0310   43.6230 N   0  0  0  0  0  0  0  0  0  0  0  0
   60.7700   30.8590   46.7380 C   0  0  0  0  0  0  0  0  0  0  0  0
   61.0590   33.4450   49.5240 C   0  0  0  0  0  0  0  0  0  0  0  0
   62.3580   34.0590   50.0550 C   0  0  0  0  0  0  0  0  0  0  0  0
   64.8690   33.6330   51.9458 H   0  0  0  0  0  0  0  0  0  0  0  0
   65.2201   32.8028   50.3920 H   0  0  0  0  0  0  0  0  0  0  0  0
   64.6623   34.5103   50.3920 H   0  0  0  0  0  0  0  0  0  0  0  0
   62.8050   33.0710   51.8030 H   0  0  0  0  0  0  0  0  0  0  0  0
   64.0887   31.2216   50.3906 H   0  0  0  0  0  0  0  0  0  0  0  0
   62.3387   31.1529   50.9058 H   0  0  0  0  0  0  0  0  0  0  0  0
   63.4002   32.0751   48.1972 H   0  0  0  0  0  0  0  0  0  0  0  0
   62.5289   30.5417   48.5534 H   0  0  0  0  0  0  0  0  0  0  0  0
   58.8624   33.2459   48.2687 H   0  0  0  0  0  0  0  0  0  0  0  0
   57.2635   32.5284   46.5058 H   0  0  0  0  0  0  0  0  0  0  0  0
   60.4670   27.6001   47.2302 H   0  0  0  0  0  0  0  0  0  0  0  0
   58.8605   26.1328   48.4426 H   0  0  0  0  0  0  0  0  0  0  0  0
   56.6481   25.5920   47.4246 H   0  0  0  0  0  0  0  0  0  0  0  0
   56.0515   26.4942   45.1813 H   0  0  0  0  0  0  0  0  0  0  0  0
   57.7860   29.0090   43.3300 H   0  0  0  0  0  0  0  0  0  0  0  0
   57.0230   27.4410   42.9600 H   0  0  0  0  0  0  0  0  0  0  0  0
   61.7688   30.4011   46.7908 H   0  0  0  0  0  0  0  0  0  0  0  0
   60.5140   34.1990   48.9371 H   0  0  0  0  0  0  0  0  0  0  0  0
   60.4443   33.1147   50.3743 H   0  0  0  0  0  0  0  0  0  0  0  0
   62.9518   34.4232   49.2036 H   0  0  0  0  0  0  0  0  0  0  0  0
   62.0900   34.8801   50.7361 H   0  0  0  0  0  0  0  0  0  0  0  0
  1  2  1  0
  2  3  1  0
  3  4  1  0
  4  5  1  0
  5  6  1  0
  6  7  2  0
  7  8  1  0
  8  9  2  0
  9 10  1  0
 10 11  2  0
 10 12  1  0
  9 13  1  0
 13 14  1  0
 14 15  1  0
 15 16  2  0
 16 17  1  0
 17 18  2  0
 18 19  1  0
 19 20  2  0
 20 21  1  0
 13 22  2  0
  5 23  1  0
 23 24  1  0
 24  2  1  0
 22  6  1  0
 20 15  1  0
  1 25  1  0
  1 26  1  0
  1 27  1  0
  2 28  1  0
  3 29  1  0
  3 30  1  0
  4 31  1  0
  4 32  1  0
  7 33  1  0
  8 34  1  0
 16 35  1  0
 17 36  1  0
 18 37  1  0
 19 38  1  0
 21 39  1  0
 21 40  1  0
 22 41  1  0
 23 42  1  0
 23 43  1  0
 24 44  1  0
 24 45  1  0
M  CHG  3   2   1  10   1  12  -1
M  END
>  <UniqueID>  (93) 
85

>  <SMILES>  (93) 
C[NH+]1CCN(c2ccc([N+](=O)[O-])c(Sc3ccccc3N)c2)CC1

>  <Energy>  (93) 
57.31711672581467

>  <Genealogy>  (93) 
C[NH+]1CCN(c2ccc([N+](=O)[O-])c(Sc3ccccc3N)c2)CC1 (protonated)
C[NH+]1CCN(c2ccc([N+](=O)[O-])c(Sc3ccccc3N)c2)CC1 (3D coordinates assigned)
C[NH+]1CCN(c2ccc([N+](=O)[O-])c(Sc3ccccc3N)c2)CC1 (nonaromatic ring conformer: 57.31711672581467 kcal/mol)

>  <smiles>  (93) 
CN1CCN(c2ccc([N+](=O)[O-])c(Sc3ccccc3N)c2)CC1

>  <score_type>  (93) 
oracle

>  <origin>  (93) 
adg

>  <m_score__min__energy>  (93) 
-6.4199999999999999

>  <m_primary>  (93) 
energy

$$$$
93:0
     RDKit          3D

 38 40  0  0  0  0  0  0  0  0999 V2000
   51.0980   32.6770   49.4330 O   0  0  0  0  0  0  0  0  0  0  0  0
   51.3990   32.1440   50.5310 C   0  0  0  0  0  0  0  0  0  0  0  0
   50.6360   32.3610   51.6250 N   0  0  0  0  0  0  0  0  0  0  0  0
   50.9490   31.8000   52.7920 N   0  0  0  0  0  0  0  0  0  0  0  0
   52.0340   30.9940   52.9360 C   0  0  0  0  0  0  0  0  0  0  0  0
   52.2850   30.3450   54.5470 Cl  0  0  0  0  0  0  0  0  0  0  0  0
   52.8490   30.7540   51.7940 C   0  0  0  0  0  0  0  0  0  0  0  0
   53.9210   30.0070   51.7670 N   0  0  0  0  0  0  0  0  0  0  0  0
   55.2850   29.8860   52.8340 S   0  0  0  0  0  0  0  0  0  0  0  0
   55.0550   30.6960   54.0790 O   0  0  0  0  0  0  0  0  0  0  0  0
   55.5470   28.4500   53.1950 O   0  0  0  0  0  0  0  0  0  0  0  0
   56.6940   30.5270   51.9930 C   0  0  0  0  0  0  0  0  0  0  0  0
   57.7590   29.6830   51.6560 C   0  0  0  0  0  0  0  0  0  0  0  0
   58.8710   30.1890   50.9780 C   0  0  0  0  0  0  0  0  0  0  0  0
   58.9350   31.5460   50.6240 C   0  0  0  0  0  0  0  0  0  0  0  0
   60.0980   32.0350   49.9340 N   0  0  0  0  0  0  0  0  0  0  0  0
   60.0370   33.1310   48.5890 S   0  0  0  0  0  0  0  0  0  0  0  0
   61.4400   33.4760   48.1730 O   0  0  0  0  0  0  0  0  0  0  0  0
   59.3270   34.3880   49.0060 O   0  0  0  0  0  0  0  0  0  0  0  0
   59.1520   32.3990   47.2540 C   0  0  0  0  0  0  0  0  0  0  0  0
   59.2110   31.0150   47.0380 C   0  0  0  0  0  0  0  0  0  0  0  0
   58.4940   30.4380   45.9840 C   0  0  0  0  0  0  0  0  0  0  0  0
   57.7190   31.2420   45.1400 C   0  0  0  0  0  0  0  0  0  0  0  0
   56.7380   30.4540   43.7030 Br  0  0  0  0  0  0  0  0  0  0  0  0
   57.6630   32.6240   45.3510 C   0  0  0  0  0  0  0  0  0  0  0  0
   58.3790   33.2020   46.4040 C   0  0  0  0  0  0  0  0  0  0  0  0
   57.8530   32.3860   50.9490 C   0  0  0  0  0  0  0  0  0  0  0  0
   56.7410   31.8770   51.6270 C   0  0  0  0  0  0  0  0  0  0  0  0
   52.4910   31.3480   50.6250 N   0  0  0  0  0  0  0  0  0  0  0  0
   57.7202   28.6174   51.9260 H   0  0  0  0  0  0  0  0  0  0  0  0
   59.7036   29.5182   50.7193 H   0  0  0  0  0  0  0  0  0  0  0  0
   61.0460   31.7880   50.2990 H   0  0  0  0  0  0  0  0  0  0  0  0
   59.8219   30.3817   47.6981 H   0  0  0  0  0  0  0  0  0  0  0  0
   58.5394   29.3515   45.8185 H   0  0  0  0  0  0  0  0  0  0  0  0
   57.0549   33.2567   44.6877 H   0  0  0  0  0  0  0  0  0  0  0  0
   58.3355   34.2892   46.5656 H   0  0  0  0  0  0  0  0  0  0  0  0
   57.8825   33.4491   50.6679 H   0  0  0  0  0  0  0  0  0  0  0  0
   55.8993   32.5408   51.8738 H   0  0  0  0  0  0  0  0  0  0  0  0
  1  2  2  0
  2  3  1  0
  3  4  1  0
  4  5  2  0
  5  6  1  0
  5  7  1  0
  7  8  2  3
  8  9  1  0
  9 10  2  0
  9 11  2  0
  9 12  1  0
 12 13  2  0
 13 14  1  0
 14 15  2  0
 15 16  1  0
 16 17  1  0
 17 18  2  0
 17 19  2  0
 17 20  1  0
 20 21  2  0
 21 22  1  0
 22 23  2  0
 23 24  1  0
 23 25  1  0
 25 26  2  0
 15 27  1  0
 27 28  2  0
  7 29  1  0
 29  2  1  0
 28 12  1  0
 26 20  1  0
 13 30  1  0
 14 31  1  0
 16 32  1  0
 21 33  1  0
 22 34  1  0
 25 35  1  0
 26 36  1  0
 27 37  1  0
 28 38  1  0
M  CHG  2   3  -1  29  -1
M  END
>  <UniqueID>  (94) 
86

>  <SMILES>  (94) 
O=c1[n-]nc(Cl)c(=NS(=O)(=O)c2ccc(NS(=O)(=O)c3ccc(Br)cc3)cc2)[n-]1

>  <Energy>  (94) 
61.19180782675832

>  <Genealogy>  (94) 
O=c1[n-]nc(Cl)c(=NS(=O)(=O)c2ccc(NS(=O)(=O)c3ccc(Br)cc3)cc2)[n-]1 (protonated)
O=c1[n-]nc(Cl)c(=NS(=O)(=O)c2ccc(NS(=O)(=O)c3ccc(Br)cc3)cc2)[n-]1 (3D coordinates assigned)
O=c1[n-]nc(Cl)c(=NS(=O)(=O)c2ccc(NS(=O)(=O)c3ccc(Br)cc3)cc2)[n-]1 (optimized conformer: 61.19180782675832 kcal/mol)

>  <smiles>  (94) 
O=c1[nH]nc(Cl)c(=NS(=O)(=O)c2ccc(NS(=O)(=O)c3ccc(Br)cc3)cc2)[nH]1

>  <score_type>  (94) 
oracle

>  <origin>  (94) 
adg

>  <m_score__min__energy>  (94) 
-13.630000000000001

>  <m_primary>  (94) 
energy

$$$$
94:0
     RDKit          3D

 29 30  0  0  0  0  0  0  0  0999 V2000
   55.1370   29.3340   44.8300 N   0  0  0  0  0  0  0  0  0  0  0  0
   56.7670   29.7890   44.4810 S   0  0  0  0  0  0  0  0  0  0  0  0
   56.7840   30.6640   43.2590 O   0  0  0  0  0  0  0  0  0  0  0  0
   57.5830   28.5500   44.2350 O   0  0  0  0  0  0  0  0  0  0  0  0
   57.4120   30.6580   45.8350 N   0  0  0  0  0  0  0  0  0  0  0  0
   58.1080   31.9090   45.7580 C   0  0  0  0  0  0  0  0  0  0  0  0
   57.6240   32.9890   44.9990 C   0  0  0  0  0  0  0  0  0  0  0  0
   58.3440   34.1840   44.9380 C   0  0  0  0  0  0  0  0  0  0  0  0
   59.5450   34.3160   45.6390 C   0  0  0  0  0  0  0  0  0  0  0  0
   60.0300   33.2590   46.4210 C   0  0  0  0  0  0  0  0  0  0  0  0
   61.2810   33.4120   47.1170 N   0  0  0  0  0  0  0  0  0  0  0  0
   61.3940   33.9040   48.4620 C   0  0  0  0  0  0  0  0  0  0  0  0
   60.4190   34.4950   49.0030 O   0  0  0  0  0  0  0  0  0  0  0  0
   62.6640   33.7560   49.2070 C   0  0  0  0  0  0  0  0  0  0  0  0
   62.8000   34.2440   50.5160 C   0  0  0  0  0  0  0  0  0  0  0  0
   64.0180   34.0720   51.1710 C   0  0  0  0  0  0  0  0  0  0  0  0
   65.0430   33.4420   50.5440 N   0  0  0  0  0  0  0  0  0  0  0  0
   64.9010   32.9710   49.2780 C   0  0  0  0  0  0  0  0  0  0  0  0
   63.7220   33.1300   48.6220 N   0  0  0  0  0  0  0  0  0  0  0  0
   59.3130   32.0500   46.4600 C   0  0  0  0  0  0  0  0  0  0  0  0
   55.1720   28.6600   45.6280 H   0  0  0  0  0  0  0  0  0  0  0  0
   56.6749   32.8923   44.4513 H   0  0  0  0  0  0  0  0  0  0  0  0
   57.9645   35.0232   44.3366 H   0  0  0  0  0  0  0  0  0  0  0  0
   60.1137   35.2555   45.5768 H   0  0  0  0  0  0  0  0  0  0  0  0
   62.1590   33.2410   46.5770 H   0  0  0  0  0  0  0  0  0  0  0  0
   61.9617   34.7522   51.0150 H   0  0  0  0  0  0  0  0  0  0  0  0
   64.1484   34.4472   52.1968 H   0  0  0  0  0  0  0  0  0  0  0  0
   65.7408   32.4607   48.7837 H   0  0  0  0  0  0  0  0  0  0  0  0
   59.7020   31.2056   47.0479 H   0  0  0  0  0  0  0  0  0  0  0  0
  1  2  1  0
  2  3  2  0
  2  4  2  0
  2  5  1  0
  5  6  1  0
  6  7  2  0
  7  8  1  0
  8  9  2  0
  9 10  1  0
 10 11  1  0
 11 12  1  0
 12 13  2  0
 12 14  1  0
 14 15  2  0
 15 16  1  0
 16 17  2  0
 17 18  1  0
 18 19  2  0
 10 20  2  0
 20  6  1  0
 19 14  1  0
  1 21  1  0
  7 22  1  0
  8 23  1  0
  9 24  1  0
 11 25  1  0
 15 26  1  0
 16 27  1  0
 18 28  1  0
 20 29  1  0
M  CHG  2   1  -1   5  -1
M  END
>  <UniqueID>  (95) 
87

>  <SMILES>  (95) 
[NH-]S(=O)(=O)[N-]c1cccc(NC(=O)c2ccncn2)c1

>  <Energy>  (95) 
35.910012640058895

>  <Genealogy>  (95) 
[NH-]S(=O)(=O)[N-]c1cccc(NC(=O)c2ccncn2)c1 (protonated)
[NH-]S(=O)(=O)[N-]c1cccc(NC(=O)c2ccncn2)c1 (3D coordinates assigned)
[NH-]S(=O)(=O)[N-]c1cccc(NC(=O)c2ccncn2)c1 (optimized conformer: 35.910012640058895 kcal/mol)

>  <smiles>  (95) 
NS(=O)(=O)Nc1cccc(NC(=O)c2ccncn2)c1

>  <score_type>  (95) 
oracle

>  <origin>  (95) 
adg

>  <m_score__min__energy>  (95) 
-11.32

>  <m_primary>  (95) 
energy

$$$$
95:0
     RDKit          3D

 36 36  0  0  0  0  0  0  0  0999 V2000
   58.2310   33.1950   47.6480 C   0  0  0  0  0  0  0  0  0  0  0  0
   58.5050   34.1190   46.4540 C   0  0  0  0  0  0  0  0  0  0  0  0
   60.0050   34.1590   46.1280 C   0  0  0  0  0  0  0  0  0  0  0  0
   57.6550   33.7440   45.2200 C   0  0  0  0  0  0  0  0  0  0  0  0
   57.3500   32.2740   45.1350 C   0  0  0  0  0  0  0  0  0  0  0  0
   56.1740   31.9030   44.8690 O   0  0  0  0  0  0  0  0  0  0  0  0
   58.3890   31.3090   45.3640 N   0  0  0  0  0  0  0  0  0  0  0  0
   58.2800   29.9060   45.0680 C   0  0  0  0  0  0  0  0  0  0  0  0
   57.3510   29.3970   43.8060 S   0  0  0  0  0  0  0  0  0  0  0  0
   59.2260   29.0020   45.6610 N   0  0  0  0  0  0  0  0  0  0  0  0
   58.9990   27.5940   45.8450 C   0  0  0  0  0  0  0  0  0  0  0  0
   60.0930   26.7430   46.0640 C   0  0  0  0  0  0  0  0  0  0  0  0
   59.8940   25.3760   46.2720 C   0  0  0  0  0  0  0  0  0  0  0  0
   58.6010   24.8470   46.2750 C   0  0  0  0  0  0  0  0  0  0  0  0
   57.4980   25.6870   46.0730 C   0  0  0  0  0  0  0  0  0  0  0  0
   55.8600   25.0390   46.1010 S   0  0  0  0  0  0  0  0  0  0  0  0
   54.7230   26.3360   45.9890 N   0  0  0  0  0  0  0  0  0  0  0  0
   55.6250   24.2830   47.3780 O   0  0  0  0  0  0  0  0  0  0  0  0
   55.6730   24.1000   44.9420 O   0  0  0  0  0  0  0  0  0  0  0  0
   57.6980   27.0600   45.8730 C   0  0  0  0  0  0  0  0  0  0  0  0
   58.3950   33.7479   48.5847 H   0  0  0  0  0  0  0  0  0  0  0  0
   57.1897   32.8427   47.6076 H   0  0  0  0  0  0  0  0  0  0  0  0
   58.9119   32.3320   47.6076 H   0  0  0  0  0  0  0  0  0  0  0  0
   58.1974   35.1348   46.7431 H   0  0  0  0  0  0  0  0  0  0  0  0
   60.5833   34.1744   47.0636 H   0  0  0  0  0  0  0  0  0  0  0  0
   60.2771   33.2678   45.5434 H   0  0  0  0  0  0  0  0  0  0  0  0
   60.2292   35.0634   45.5434 H   0  0  0  0  0  0  0  0  0  0  0  0
   56.7047   34.2959   45.2693 H   0  0  0  0  0  0  0  0  0  0  0  0
   58.2407   34.0084   44.3272 H   0  0  0  0  0  0  0  0  0  0  0  0
   59.2670   31.6400   45.8230 H   0  0  0  0  0  0  0  0  0  0  0  0
   60.1400   29.3960   45.9800 H   0  0  0  0  0  0  0  0  0  0  0  0
   61.1131   27.1546   46.0719 H   0  0  0  0  0  0  0  0  0  0  0  0
   60.7577   24.7143   46.4339 H   0  0  0  0  0  0  0  0  0  0  0  0
   58.4487   23.7696   46.4362 H   0  0  0  0  0  0  0  0  0  0  0  0
   55.2680   27.2260   46.0520 H   0  0  0  0  0  0  0  0  0  0  0  0
   56.8318   27.7242   45.7371 H   0  0  0  0  0  0  0  0  0  0  0  0
  1  2  1  0
  2  3  1  0
  2  4  1  0
  4  5  1  0
  5  6  2  0
  5  7  1  0
  7  8  1  0
  8  9  2  0
  8 10  1  0
 10 11  1  0
 11 12  2  0
 12 13  1  0
 13 14  2  0
 14 15  1  0
 15 16  1  0
 16 17  1  0
 16 18  2  0
 16 19  2  0
 15 20  2  0
 20 11  1  0
  1 21  1  0
  1 22  1  0
  1 23  1  0
  2 24  1  0
  3 25  1  0
  3 26  1  0
  3 27  1  0
  4 28  1  0
  4 29  1  0
  7 30  1  0
 10 31  1  0
 12 32  1  0
 13 33  1  0
 14 34  1  0
 17 35  1  0
 20 36  1  0
M  CHG  1  17  -1
M  END
>  <UniqueID>  (96) 
88

>  <SMILES>  (96) 
CC(C)CC(=O)NC(=S)Nc1cccc(S([NH-])(=O)=O)c1

>  <Energy>  (96) 
34.35721077259856

>  <Genealogy>  (96) 
CC(C)CC(=O)NC(=S)Nc1cccc(S([NH-])(=O)=O)c1 (protonated)
CC(C)CC(=O)NC(=S)Nc1cccc(S([NH-])(=O)=O)c1 (3D coordinates assigned)
CC(C)CC(=O)NC(=S)Nc1cccc(S([NH-])(=O)=O)c1 (optimized conformer: 34.35721077259856 kcal/mol)

>  <smiles>  (96) 
CC(C)CC(=O)NC(=S)Nc1cccc(S(N)(=O)=O)c1

>  <score_type>  (96) 
oracle

>  <origin>  (96) 
adg

>  <m_score__min__energy>  (96) 
-10.77

>  <m_primary>  (96) 
energy

$$$$
96:0
     RDKit          3D

 52 54  0  0  0  0  0  0  0  0999 V2000
   64.2480   33.4660   49.2000 C   0  0  0  0  0  0  0  0  0  0  0  0
   63.5040   34.0750   48.1680 O   0  0  0  0  0  0  0  0  0  0  0  0
   63.3010   33.1630   47.1080 C   0  0  0  0  0  0  0  0  0  0  0  0
   62.4130   32.0400   47.5550 C   0  0  0  0  0  0  0  0  0  0  0  0
   62.2970   31.0210   46.8210 O   0  0  0  0  0  0  0  0  0  0  0  0
   61.6490   32.1620   48.7650 N   0  0  0  0  0  0  0  0  0  0  0  0
   60.8340   31.1010   49.3000 C   0  0  0  0  0  0  0  0  0  0  0  0
   61.3980   29.8440   49.5790 C   0  0  0  0  0  0  0  0  0  0  0  0
   60.6160   28.8180   50.1090 C   0  0  0  0  0  0  0  0  0  0  0  0
   59.2670   29.0370   50.3740 C   0  0  0  0  0  0  0  0  0  0  0  0
   58.6940   30.2860   50.1230 C   0  0  0  0  0  0  0  0  0  0  0  0
   59.4730   31.3380   49.5940 C   0  0  0  0  0  0  0  0  0  0  0  0
   58.9350   32.6490   49.3290 N   0  0  0  0  0  0  0  0  0  0  0  0
   59.4130   33.7030   48.4780 C   0  0  0  0  0  0  0  0  0  0  0  0
   60.1380   34.6250   48.9360 O   0  0  0  0  0  0  0  0  0  0  0  0
   59.0710   33.6930   47.0360 C   0  0  0  0  0  0  0  0  0  0  0  0
   59.3050   34.8320   46.2440 C   0  0  0  0  0  0  0  0  0  0  0  0
   59.0250   34.8120   44.8760 C   0  0  0  0  0  0  0  0  0  0  0  0
   58.5160   33.6580   44.2810 C   0  0  0  0  0  0  0  0  0  0  0  0
   58.2760   32.5140   45.0520 C   0  0  0  0  0  0  0  0  0  0  0  0
   57.6390   31.0540   44.2870 S   0  0  0  0  0  0  0  0  0  0  0  0
   56.2840   30.7600   44.8680 O   0  0  0  0  0  0  0  0  0  0  0  0
   57.4510   31.3400   42.8230 O   0  0  0  0  0  0  0  0  0  0  0  0
   58.6940   29.6560   44.4330 N   0  0  0  0  0  0  0  0  0  0  0  0
   59.6010   29.7140   45.5950 C   0  0  0  0  0  0  0  0  0  0  0  0
   58.9600   29.1430   46.8760 C   0  0  0  0  0  0  0  0  0  0  0  0
   58.4170   27.8580   46.6540 O   0  0  0  0  0  0  0  0  0  0  0  0
   57.4000   27.9370   45.6780 C   0  0  0  0  0  0  0  0  0  0  0  0
   57.9930   28.3640   44.3330 C   0  0  0  0  0  0  0  0  0  0  0  0
   58.5350   32.5410   46.4320 C   0  0  0  0  0  0  0  0  0  0  0  0
   63.8542   33.7883   50.1752 H   0  0  0  0  0  0  0  0  0  0  0  0
   64.1661   32.3724   49.1148 H   0  0  0  0  0  0  0  0  0  0  0  0
   65.3039   33.7624   49.1148 H   0  0  0  0  0  0  0  0  0  0  0  0
   62.8283   33.6863   46.2638 H   0  0  0  0  0  0  0  0  0  0  0  0
   64.2725   32.7510   46.7974 H   0  0  0  0  0  0  0  0  0  0  0  0
   61.6170   33.0960   49.2310 H   0  0  0  0  0  0  0  0  0  0  0  0
   62.4650   29.6681   49.3776 H   0  0  0  0  0  0  0  0  0  0  0  0
   61.0651   27.8358   50.3176 H   0  0  0  0  0  0  0  0  0  0  0  0
   58.6498   28.2233   50.7827 H   0  0  0  0  0  0  0  0  0  0  0  0
   57.6281   30.4511   50.3391 H   0  0  0  0  0  0  0  0  0  0  0  0
   59.7112   35.7443   46.7053 H   0  0  0  0  0  0  0  0  0  0  0  0
   59.2065   35.7092   44.2660 H   0  0  0  0  0  0  0  0  0  0  0  0
   58.3023   33.6464   43.2020 H   0  0  0  0  0  0  0  0  0  0  0  0
   60.5062   29.1330   45.3648 H   0  0  0  0  0  0  0  0  0  0  0  0
   59.8352   30.7723   45.7826 H   0  0  0  0  0  0  0  0  0  0  0  0
   59.7279   29.0760   47.6608 H   0  0  0  0  0  0  0  0  0  0  0  0
   58.1444   29.8143   47.1829 H   0  0  0  0  0  0  0  0  0  0  0  0
   56.9232   26.9517   45.5689 H   0  0  0  0  0  0  0  0  0  0  0  0
   56.6543   28.6809   45.9949 H   0  0  0  0  0  0  0  0  0  0  0  0
   58.7060   27.5964   43.9978 H   0  0  0  0  0  0  0  0  0  0  0  0
   57.1680   28.4758   43.6141 H   0  0  0  0  0  0  0  0  0  0  0  0
   58.3170   31.6544   47.0455 H   0  0  0  0  0  0  0  0  0  0  0  0
  1  2  1  0
  2  3  1  0
  3  4  1  0
  4  5  2  0
  4  6  1  0
  6  7  1  0
  7  8  2  0
  8  9  1  0
  9 10  2  0
 10 11  1  0
 11 12  2  0
 12 13  1  0
 13 14  1  0
 14 15  2  0
 14 16  1  0
 16 17  2  0
 17 18  1  0
 18 19  2  0
 19 20  1  0
 20 21  1  0
 21 22  2  0
 21 23  2  0
 21 24  1  0
 24 25  1  0
 25 26  1  0
 26 27  1  0
 27 28  1  0
 28 29  1  0
 20 30  2  0
 12  7  1  0
 30 16  1  0
 29 24  1  0
  1 31  1  0
  1 32  1  0
  1 33  1  0
  3 34  1  0
  3 35  1  0
  6 36  1  0
  8 37  1  0
  9 38  1  0
 10 39  1  0
 11 40  1  0
 17 41  1  0
 18 42  1  0
 19 43  1  0
 25 44  1  0
 25 45  1  0
 26 46  1  0
 26 47  1  0
 28 48  1  0
 28 49  1  0
 29 50  1  0
 29 51  1  0
 30 52  1  0
M  CHG  1  13  -1
M  END
>  <UniqueID>  (97) 
89

>  <SMILES>  (97) 
COCC(=O)Nc1ccccc1[N-]C(=O)c1cccc(S(=O)(=O)N2CCOCC2)c1

>  <Energy>  (97) 
67.20786668488608

>  <Genealogy>  (97) 
COCC(=O)Nc1ccccc1[N-]C(=O)c1cccc(S(=O)(=O)N2CCOCC2)c1 (protonated)
COCC(=O)Nc1ccccc1[N-]C(=O)c1cccc(S(=O)(=O)N2CCOCC2)c1 (3D coordinates assigned)
COCC(=O)Nc1ccccc1[N-]C(=O)c1cccc(S(=O)(=O)N2CCOCC2)c1 (nonaromatic ring conformer: 67.20786668488608 kcal/mol)

>  <smiles>  (97) 
COCC(=O)Nc1ccccc1NC(=O)c1cccc(S(=O)(=O)N2CCOCC2)c1

>  <score_type>  (97) 
oracle

>  <origin>  (97) 
adg

>  <m_score__min__energy>  (97) 
-11.07

>  <m_primary>  (97) 
energy

$$$$
