0:0
     RDKit          3D

 36 38  0  0  0  0  0  0  0  0999 V2000
   57.4859   33.0920   43.1949 H   0  0  0  0  0  0  0  0  0  0  0  0
   57.4420   32.0980   43.6640 C   0  0  0  0  0  0  0  0  0  0  0  0
   57.8360   31.9350   44.9950 C   0  0  0  0  0  0  0  0  0  0  0  0
   58.1859   32.8021   45.5744 H   0  0  0  0  0  0  0  0  0  0  0  0
   57.7860   30.6710   45.5910 C   0  0  0  0  0  0  0  0  0  0  0  0
   58.0861   30.5493   46.6422 H   0  0  0  0  0  0  0  0  0  0  0  0
   57.3540   29.5550   44.8530 C   0  0  0  0  0  0  0  0  0  0  0  0
   57.2700   28.2130   45.4760 C   0  0  0  0  0  0  0  0  0  0  0  0
   56.0670   27.5800   45.4780 N   0  0  0  0  0  0  0  0  0  0  0  0
   55.8970   26.3520   46.0290 C   0  0  0  0  0  0  0  0  0  0  0  0
   54.7110   25.8120   45.9900 N   0  0  0  0  0  0  0  0  0  0  0  0
   54.3930   24.3840   45.9620 C   0  0  0  0  0  0  0  0  0  0  0  0
   54.3787   23.9982   46.9920 H   0  0  0  0  0  0  0  0  0  0  0  0
   53.4090   24.2529   45.4882 H   0  0  0  0  0  0  0  0  0  0  0  0
   55.4170   23.6190   45.1630 C   0  0  0  0  0  0  0  0  0  0  0  0
   56.3580   22.8050   45.8170 C   0  0  0  0  0  0  0  0  0  0  0  0
   56.3414   22.7208   46.9136 H   0  0  0  0  0  0  0  0  0  0  0  0
   57.3150   22.1020   45.0790 C   0  0  0  0  0  0  0  0  0  0  0  0
   58.0436   21.4600   45.5957 H   0  0  0  0  0  0  0  0  0  0  0  0
   57.3480   22.2130   43.6870 C   0  0  0  0  0  0  0  0  0  0  0  0
   58.1001   21.6567   43.1084 H   0  0  0  0  0  0  0  0  0  0  0  0
   56.4240   23.0320   43.0290 C   0  0  0  0  0  0  0  0  0  0  0  0
   56.4522   23.1220   41.9331 H   0  0  0  0  0  0  0  0  0  0  0  0
   55.4650   23.7360   43.7630 C   0  0  0  0  0  0  0  0  0  0  0  0
   54.7447   24.3844   43.2427 H   0  0  0  0  0  0  0  0  0  0  0  0
   56.9640   25.7190   46.6050 N   0  0  0  0  0  0  0  0  0  0  0  0
   56.8620   24.7800   47.0490 H   0  0  0  0  0  0  0  0  0  0  0  0
   58.1960   26.2960   46.6140 C   0  0  0  0  0  0  0  0  0  0  0  0
   59.1670   25.6810   47.1360 O   0  0  0  0  0  0  0  0  0  0  0  0
   58.3860   27.5630   46.0420 C   0  0  0  0  0  0  0  0  0  0  0  0
   59.7110   28.1400   45.9890 C   0  0  0  0  0  0  0  0  0  0  0  0
   60.7710   28.6030   45.9460 N   0  0  0  0  0  0  0  0  0  0  0  0
   56.9410   29.7320   43.5220 C   0  0  0  0  0  0  0  0  0  0  0  0
   56.5756   28.8708   42.9434 H   0  0  0  0  0  0  0  0  0  0  0  0
   56.9920   30.9970   42.9290 C   0  0  0  0  0  0  0  0  0  0  0  0
   56.6777   31.1263   41.8828 H   0  0  0  0  0  0  0  0  0  0  0  0
  1  2  1  0
  2  3  2  0
  3  4  1  0
  3  5  1  0
  5  6  1  0
  5  7  2  0
  7  8  1  0
  8  9  1  0
  9 10  1  0
 10 11  2  0
 11 12  1  0
 12 13  1  0
 12 14  1  0
 12 15  1  0
 15 16  2  0
 16 17  1  0
 16 18  1  0
 18 19  1  0
 18 20  2  0
 20 21  1  0
 20 22  1  0
 22 23  1  0
 22 24  2  0
 24 25  1  0
 10 26  1  0
 26 27  1  0
 26 28  1  0
 28 29  2  0
 28 30  1  0
 30 31  1  0
 31 32  3  0
  7 33  1  0
 33 34  1  0
 33 35  2  0
 35 36  1  0
 35  2  1  0
 30  8  2  0
 24 15  1  0
M  CHG  1   9  -1
M  END
>  <UniqueID>  (1) 
1

>  <SMILES>  (1) 
N#Cc1c(-c2ccccc2)[n-]/c(=N/Cc2ccccc2)[nH]c1=O

>  <Energy>  (1) 
47.97911812038391

>  <Genealogy>  (1) 
N#Cc1c(-c2ccccc2)[n-]c(=NCc2ccccc2)[nH]c1=O (protonated)
N#Cc1c(-c2ccccc2)[n-]/c(=N/Cc2ccccc2)[nH]c1=O (cis-trans isomerization)
N#Cc1c(-c2ccccc2)[n-]/c(=N/Cc2ccccc2)[nH]c1=O (3D coordinates assigned)
N#Cc1c(-c2ccccc2)[n-]/c(=N/Cc2ccccc2)[nH]c1=O (optimized conformer: 47.97911812038391 kcal/mol)

>  <smiles>  (1) 
N#Cc1c(-c2ccccc2)[nH]c(=NCc2ccccc2)[nH]c1=O

>  <score_type>  (1) 
oracle

>  <origin>  (1) 
adg

>  <m_score__min__energy>  (1) 
-8.9399999999999995

>  <m_primary>  (1) 
energy

$$$$
1:0
     RDKit          3D

 62 66  0  0  0  0  0  0  0  0999 V2000
   61.6630   33.5270   49.9000 H   0  0  0  0  0  0  0  0  0  0  0  0
   61.3120   32.9840   49.0780 N   0  0  0  0  0  0  0  0  0  0  0  0
   59.7220   33.5680   48.7270 S   0  0  0  0  0  0  0  0  0  0  0  0
   59.5650   34.9400   49.3200 O   0  0  0  0  0  0  0  0  0  0  0  0
   58.7170   32.6350   49.3430 O   0  0  0  0  0  0  0  0  0  0  0  0
   59.4590   33.6510   46.9850 C   0  0  0  0  0  0  0  0  0  0  0  0
   59.8780   34.7720   46.2430 C   0  0  0  0  0  0  0  0  0  0  0  0
   60.3787   35.6081   46.7532 H   0  0  0  0  0  0  0  0  0  0  0  0
   59.6610   34.8310   44.8530 C   0  0  0  0  0  0  0  0  0  0  0  0
   59.9967   35.7114   44.2854 H   0  0  0  0  0  0  0  0  0  0  0  0
   59.0200   33.7760   44.1860 C   0  0  0  0  0  0  0  0  0  0  0  0
   58.8513   33.8209   43.0999 H   0  0  0  0  0  0  0  0  0  0  0  0
   58.6000   32.6680   44.9250 C   0  0  0  0  0  0  0  0  0  0  0  0
   57.9460   31.5430   44.4110 C   0  0  0  0  0  0  0  0  0  0  0  0
   57.6920   31.4174   43.3481 H   0  0  0  0  0  0  0  0  0  0  0  0
   57.6510   30.5970   45.3950 C   0  0  0  0  0  0  0  0  0  0  0  0
   56.9710   29.3090   45.1650 C   0  0  0  0  0  0  0  0  0  0  0  0
   55.7180   29.2920   45.0310 O   0  0  0  0  0  0  0  0  0  0  0  0
   57.7290   28.0920   45.0520 N   0  0  0  0  0  0  0  0  0  0  0  0
   58.7550   28.1630   44.8700 H   0  0  0  0  0  0  0  0  0  0  0  0
   57.1370   26.7820   45.0260 C   0  0  0  0  0  0  0  0  0  0  0  0
   56.3110   26.3300   46.0690 C   0  0  0  0  0  0  0  0  0  0  0  0
   56.0976   26.9893   46.9233 H   0  0  0  0  0  0  0  0  0  0  0  0
   55.7590   25.0460   46.0260 C   0  0  0  0  0  0  0  0  0  0  0  0
   55.1215   24.6964   46.8515 H   0  0  0  0  0  0  0  0  0  0  0  0
   56.0150   24.1990   44.9320 C   0  0  0  0  0  0  0  0  0  0  0  0
   55.4650   22.8730   44.8560 N   0  0  0  0  0  0  0  0  0  0  0  0
   54.3130   22.4900   45.3250 C   0  0  0  0  0  0  0  0  0  0  0  0
   54.2280   21.6350   46.3780 N   0  0  0  0  0  0  0  0  0  0  0  0
   53.0170   21.2740   46.8790 C   0  0  0  0  0  0  0  0  0  0  0  0
   52.9250   20.4590   47.8870 N   0  0  0  0  0  0  0  0  0  0  0  0
   52.5280   20.8480   49.2410 C   0  0  0  0  0  0  0  0  0  0  0  0
   51.4336   20.9504   49.2820 H   0  0  0  0  0  0  0  0  0  0  0  0
   52.8629   20.0733   49.9465 H   0  0  0  0  0  0  0  0  0  0  0  0
   53.1730   22.1800   49.6260 C   0  0  0  0  0  0  0  0  0  0  0  0
   52.6418   23.0000   49.1206 H   0  0  0  0  0  0  0  0  0  0  0  0
   53.1099   22.3064   50.7169 H   0  0  0  0  0  0  0  0  0  0  0  0
   54.5210   22.1960   49.2420 O   0  0  0  0  0  0  0  0  0  0  0  0
   54.5630   21.7910   48.3360 H   0  0  0  0  0  0  0  0  0  0  0  0
   51.8890   21.7840   46.3280 N   0  0  0  0  0  0  0  0  0  0  0  0
   51.9620   22.6520   45.2830 C   0  0  0  0  0  0  0  0  0  0  0  0
   50.8890   23.1340   44.7270 N   0  0  0  0  0  0  0  0  0  0  0  0
   50.7070   23.4620   43.3380 C   0  0  0  0  0  0  0  0  0  0  0  0
   50.0980   22.5710   42.4340 C   0  0  0  0  0  0  0  0  0  0  0  0
   49.7723   21.5782   42.7780 H   0  0  0  0  0  0  0  0  0  0  0  0
   49.9060   22.9440   41.1010 C   0  0  0  0  0  0  0  0  0  0  0  0
   49.4425   22.2387   40.3954 H   0  0  0  0  0  0  0  0  0  0  0  0
   50.3010   24.2100   40.6620 C   0  0  0  0  0  0  0  0  0  0  0  0
   50.1570   24.4954   39.6095 H   0  0  0  0  0  0  0  0  0  0  0  0
   50.8800   25.1170   41.5590 C   0  0  0  0  0  0  0  0  0  0  0  0
   51.2700   26.4200   41.1160 N   0  0  0  0  0  0  0  0  0  0  0  0
   51.4340   27.1910   41.8010 H   0  0  0  0  0  0  0  0  0  0  0  0
   51.4000   26.6220   40.0990 H   0  0  0  0  0  0  0  0  0  0  0  0
   51.0720   24.7410   42.8970 C   0  0  0  0  0  0  0  0  0  0  0  0
   51.5131   25.4568   43.6063 H   0  0  0  0  0  0  0  0  0  0  0  0
   53.1760   22.9960   44.7840 N   0  0  0  0  0  0  0  0  0  0  0  0
   56.8890   24.6280   43.9270 C   0  0  0  0  0  0  0  0  0  0  0  0
   57.1400   23.9523   43.0961 H   0  0  0  0  0  0  0  0  0  0  0  0
   57.4450   25.9090   43.9720 C   0  0  0  0  0  0  0  0  0  0  0  0
   58.1293   26.2354   43.1750 H   0  0  0  0  0  0  0  0  0  0  0  0
   58.2000   31.1680   46.8900 S   0  0  0  0  0  0  0  0  0  0  0  0
   58.8180   32.6160   46.2950 C   0  0  0  0  0  0  0  0  0  0  0  0
  1  2  1  0
  2  3  1  0
  3  4  2  0
  3  5  2  0
  3  6  1  0
  6  7  2  0
  7  8  1  0
  7  9  1  0
  9 10  1  0
  9 11  2  0
 11 12  1  0
 11 13  1  0
 13 14  1  0
 14 15  1  0
 14 16  2  0
 16 17  1  0
 17 18  2  0
 17 19  1  0
 19 20  1  0
 19 21  1  0
 21 22  2  0
 22 23  1  0
 22 24  1  0
 24 25  1  0
 24 26  2  0
 26 27  1  0
 27 28  2  3
 28 29  1  0
 29 30  1  0
 30 31  2  3
 31 32  1  0
 32 33  1  0
 32 34  1  0
 32 35  1  0
 35 36  1  0
 35 37  1  0
 35 38  1  0
 38 39  1  0
 30 40  1  0
 40 41  1  0
 41 42  2  0
 42 43  1  0
 43 44  2  0
 44 45  1  0
 44 46  1  0
 46 47  1  0
 46 48  2  0
 48 49  1  0
 48 50  1  0
 50 51  1  0
 51 52  1  0
 51 53  1  0
 50 54  2  0
 54 55  1  0
 41 56  1  0
 26 57  1  0
 57 58  1  0
 57 59  2  0
 59 60  1  0
 16 61  1  0
 61 62  1  0
 62  6  1  0
 62 13  2  0
 59 21  1  0
 56 28  1  0
 54 43  1  0
M  CHG  4   2  -1  29  -1  40  -1  56  -1
M  END
>  <UniqueID>  (2) 
2

>  <SMILES>  (2) 
[NH-]S(=O)(=O)c1cccc2cc(C(=O)Nc3ccc(N=c4[n-]c(=NCCO)[n-]/c(=N\c5cccc(N)c5)[n-]4)cc3)sc12

>  <Energy>  (2) 
111.27807220233234

>  <Genealogy>  (2) 
[NH-]S(=O)(=O)c1cccc2cc(C(=O)Nc3ccc(N=c4[n-]c(=NCCO)[n-]c(=Nc5cccc(N)c5)[n-]4)cc3)sc12 (protonated)
[NH-]S(=O)(=O)c1cccc2cc(C(=O)Nc3ccc(N=c4[n-]c(=NCCO)[n-]/c(=N\c5cccc(N)c5)[n-]4)cc3)sc12 (cis-trans isomerization)
[NH-]S(=O)(=O)c1cccc2cc(C(=O)Nc3ccc(N=c4[n-]c(=NCCO)[n-]/c(=N\c5cccc(N)c5)[n-]4)cc3)sc12 (3D coordinates assigned)
[NH-]S(=O)(=O)c1cccc2cc(C(=O)Nc3ccc(N=c4[n-]c(=NCCO)[n-]/c(=N\c5cccc(N)c5)[n-]4)cc3)sc12 (optimized conformer: 111.27807220233234 kcal/mol)

>  <smiles>  (2) 
Nc1cccc(N=c2[nH]c(=NCCO)[nH]c(=Nc3ccc(NC(=O)c4cc5cccc(S(N)(=O)=O)c5s4)cc3)[nH]2)c1

>  <score_type>  (2) 
oracle

>  <origin>  (2) 
adg

>  <m_score__min__energy>  (2) 
-13.24

>  <m_primary>  (2) 
energy

$$$$
2:0
     RDKit          3D

 51 53  0  0  0  0  0  0  0  0999 V2000
   59.8260   22.1300   45.2020 N   0  0  0  0  0  0  0  0  0  0  0  0
   58.1070   22.2650   45.3180 S   0  0  0  0  0  0  0  0  0  0  0  0
   57.4730   21.7030   44.0760 O   0  0  0  0  0  0  0  0  0  0  0  0
   57.6260   21.4760   46.5040 O   0  0  0  0  0  0  0  0  0  0  0  0
   57.6560   23.9590   45.4940 C   0  0  0  0  0  0  0  0  0  0  0  0
   57.1920   24.4500   46.7210 C   0  0  0  0  0  0  0  0  0  0  0  0
   56.8420   25.7980   46.8510 C   0  0  0  0  0  0  0  0  0  0  0  0
   56.9720   26.6730   45.7660 C   0  0  0  0  0  0  0  0  0  0  0  0
   56.5820   28.0440   45.9360 N   0  0  0  0  0  0  0  0  0  0  0  0
   56.3790   29.0050   44.8920 C   0  0  0  0  0  0  0  0  0  0  0  0
   55.2170   29.3050   44.5070 O   0  0  0  0  0  0  0  0  0  0  0  0
   57.5660   29.5810   44.1860 C   0  0  0  0  0  0  0  0  0  0  0  0
   58.5710   30.0330   45.1500 N   0  0  0  0  0  0  0  0  0  0  0  0
   59.1590   29.1900   46.1640 C   0  0  0  0  0  0  0  0  0  0  0  0
   59.8230   28.0230   45.7510 C   0  0  0  0  0  0  0  0  0  0  0  0
   60.4230   27.1570   46.6790 C   0  0  0  0  0  0  0  0  0  0  0  0
   61.0910   25.9610   46.2350 N   0  0  0  0  0  0  0  0  0  0  0  0
   62.3170   25.9660   46.0010 O   0  0  0  0  0  0  0  0  0  0  0  0
   60.3910   24.7880   46.0690 O   0  0  0  0  0  0  0  0  0  0  0  0
   60.3550   27.4740   48.0430 C   0  0  0  0  0  0  0  0  0  0  0  0
   59.7120   28.6340   48.4710 C   0  0  0  0  0  0  0  0  0  0  0  0
   59.1170   29.5130   47.5430 C   0  0  0  0  0  0  0  0  0  0  0  0
   58.5020   30.7050   47.9590 O   0  0  0  0  0  0  0  0  0  0  0  0
   59.1560   31.9610   48.1540 C   0  0  0  0  0  0  0  0  0  0  0  0
   58.8570   32.8970   47.0140 C   0  0  0  0  0  0  0  0  0  0  0  0
   59.7940   33.8760   46.6440 C   0  0  0  0  0  0  0  0  0  0  0  0
   59.5250   34.7440   45.5800 C   0  0  0  0  0  0  0  0  0  0  0  0
   58.3240   34.6340   44.8740 C   0  0  0  0  0  0  0  0  0  0  0  0
   57.3920   33.6540   45.2280 C   0  0  0  0  0  0  0  0  0  0  0  0
   57.6570   32.7850   46.2910 C   0  0  0  0  0  0  0  0  0  0  0  0
   57.4240   26.1750   44.5310 C   0  0  0  0  0  0  0  0  0  0  0  0
   57.7700   24.8260   44.4000 C   0  0  0  0  0  0  0  0  0  0  0  0
   60.2280   22.6220   46.0310 H   0  0  0  0  0  0  0  0  0  0  0  0
   60.0600   21.1180   45.3100 H   0  0  0  0  0  0  0  0  0  0  0  0
   57.1027   23.7741   47.5842 H   0  0  0  0  0  0  0  0  0  0  0  0
   56.4619   26.1732   47.8126 H   0  0  0  0  0  0  0  0  0  0  0  0
   58.0087   28.8114   43.5366 H   0  0  0  0  0  0  0  0  0  0  0  0
   57.2376   30.4428   43.5864 H   0  0  0  0  0  0  0  0  0  0  0  0
   58.9780   30.9890   45.0230 H   0  0  0  0  0  0  0  0  0  0  0  0
   59.8739   27.7828   44.6788 H   0  0  0  0  0  0  0  0  0  0  0  0
   60.8135   26.8008   48.7823 H   0  0  0  0  0  0  0  0  0  0  0  0
   59.6682   28.8665   49.5453 H   0  0  0  0  0  0  0  0  0  0  0  0
   58.8020   32.4108   49.0933 H   0  0  0  0  0  0  0  0  0  0  0  0
   60.2420   31.7920   48.1984 H   0  0  0  0  0  0  0  0  0  0  0  0
   60.7434   33.9606   47.1931 H   0  0  0  0  0  0  0  0  0  0  0  0
   60.2593   35.5134   45.2991 H   0  0  0  0  0  0  0  0  0  0  0  0
   58.1120   35.3187   44.0396 H   0  0  0  0  0  0  0  0  0  0  0  0
   56.4485   33.5663   44.6693 H   0  0  0  0  0  0  0  0  0  0  0  0
   56.9238   32.0111   46.5622 H   0  0  0  0  0  0  0  0  0  0  0  0
   57.5057   26.8485   43.6651 H   0  0  0  0  0  0  0  0  0  0  0  0
   58.1330   24.4447   43.4342 H   0  0  0  0  0  0  0  0  0  0  0  0
  1  2  1  0
  2  3  2  0
  2  4  2  0
  2  5  1  0
  5  6  2  0
  6  7  1  0
  7  8  2  0
  8  9  1  0
  9 10  1  0
 10 11  2  0
 10 12  1  0
 12 13  1  0
 13 14  1  0
 14 15  2  0
 15 16  1  0
 16 17  1  0
 17 18  2  0
 17 19  1  0
 16 20  2  0
 20 21  1  0
 21 22  2  0
 22 23  1  0
 23 24  1  0
 24 25  1  0
 25 26  2  0
 26 27  1  0
 27 28  2  0
 28 29  1  0
 29 30  2  0
  8 31  1  0
 31 32  2  0
 32  5  1  0
 22 14  1  0
 30 25  1  0
  1 33  1  0
  1 34  1  0
  6 35  1  0
  7 36  1  0
 12 37  1  0
 12 38  1  0
 13 39  1  0
 15 40  1  0
 20 41  1  0
 21 42  1  0
 24 43  1  0
 24 44  1  0
 26 45  1  0
 27 46  1  0
 28 47  1  0
 29 48  1  0
 30 49  1  0
 31 50  1  0
 32 51  1  0
M  CHG  3   9  -1  17   1  19  -1
M  END
>  <UniqueID>  (3) 
3

>  <SMILES>  (3) 
NS(=O)(=O)c1ccc([N-]C(=O)CNc2cc([N+](=O)[O-])ccc2OCc2ccccc2)cc1

>  <Energy>  (3) 
58.26689014513247

>  <Genealogy>  (3) 
NS(=O)(=O)c1ccc([N-]C(=O)CNc2cc([N+](=O)[O-])ccc2OCc2ccccc2)cc1 (protonated)
NS(=O)(=O)c1ccc([N-]C(=O)CNc2cc([N+](=O)[O-])ccc2OCc2ccccc2)cc1 (3D coordinates assigned)
NS(=O)(=O)c1ccc([N-]C(=O)CNc2cc([N+](=O)[O-])ccc2OCc2ccccc2)cc1 (optimized conformer: 58.26689014513247 kcal/mol)

>  <smiles>  (3) 
NS(=O)(=O)c1ccc(NC(=O)CNc2cc([N+](=O)[O-])ccc2OCc2ccccc2)cc1

>  <score_type>  (3) 
oracle

>  <origin>  (3) 
adg

>  <m_score__min__energy>  (3) 
-11.529999999999999

>  <m_primary>  (3) 
energy

$$$$
3:0
     RDKit          3D

 43 45  0  0  0  0  0  0  0  0999 V2000
   57.7340   32.2030   41.1260 N   0  0  0  0  0  0  0  0  0  0  0  0
   57.7460   32.3390   42.2750 C   0  0  0  0  0  0  0  0  0  0  0  0
   57.7620   32.5090   43.7070 C   0  0  0  0  0  0  0  0  0  0  0  0
   57.5780   33.7920   44.2400 C   0  0  0  0  0  0  0  0  0  0  0  0
   57.5730   33.9870   45.6230 C   0  0  0  0  0  0  0  0  0  0  0  0
   57.7570   32.9030   46.4820 C   0  0  0  0  0  0  0  0  0  0  0  0
   57.9400   31.6200   45.9620 C   0  0  0  0  0  0  0  0  0  0  0  0
   57.9300   31.4040   44.5710 C   0  0  0  0  0  0  0  0  0  0  0  0
   58.1460   30.0840   44.0370 N   0  0  0  0  0  0  0  0  0  0  0  0
   57.3010   28.9610   44.3280 C   0  0  0  0  0  0  0  0  0  0  0  0
   56.2010   29.1220   44.9250 O   0  0  0  0  0  0  0  0  0  0  0  0
   57.7260   27.5810   43.9280 C   0  0  0  0  0  0  0  0  0  0  0  0
   58.7800   27.0890   44.8170 N   0  0  0  0  0  0  0  0  0  0  0  0
   59.4450   27.9200   45.7870 C   0  0  0  0  0  0  0  0  0  0  0  0
   60.3860   28.8670   45.3500 C   0  0  0  0  0  0  0  0  0  0  0  0
   61.0450   29.6890   46.2680 C   0  0  0  0  0  0  0  0  0  0  0  0
   60.7700   29.5910   47.6350 C   0  0  0  0  0  0  0  0  0  0  0  0
   61.4630   30.4250   48.5240 O   0  0  0  0  0  0  0  0  0  0  0  0
   62.1320   31.6070   48.1750 C   0  0  0  0  0  0  0  0  0  0  0  0
   61.4590   32.5590   47.3980 C   0  0  0  0  0  0  0  0  0  0  0  0
   62.0880   33.7560   47.0430 C   0  0  0  0  0  0  0  0  0  0  0  0
   63.3910   34.0180   47.4760 C   0  0  0  0  0  0  0  0  0  0  0  0
   64.0640   33.0840   48.2690 C   0  0  0  0  0  0  0  0  0  0  0  0
   63.4380   31.8860   48.6240 C   0  0  0  0  0  0  0  0  0  0  0  0
   59.8460   28.6300   48.0820 C   0  0  0  0  0  0  0  0  0  0  0  0
   59.1850   27.8060   47.1660 C   0  0  0  0  0  0  0  0  0  0  0  0
   57.4368   34.6497   43.5658 H   0  0  0  0  0  0  0  0  0  0  0  0
   57.4239   34.9959   46.0353 H   0  0  0  0  0  0  0  0  0  0  0  0
   57.7579   33.0593   47.5708 H   0  0  0  0  0  0  0  0  0  0  0  0
   58.0932   30.7713   46.6448 H   0  0  0  0  0  0  0  0  0  0  0  0
   58.9280   29.9430   43.3580 H   0  0  0  0  0  0  0  0  0  0  0  0
   56.8600   26.9051   43.9852 H   0  0  0  0  0  0  0  0  0  0  0  0
   58.1156   27.6137   42.8998 H   0  0  0  0  0  0  0  0  0  0  0  0
   59.0720   26.0870   44.7450 H   0  0  0  0  0  0  0  0  0  0  0  0
   60.6059   28.9623   44.2764 H   0  0  0  0  0  0  0  0  0  0  0  0
   61.7864   30.4194   45.9119 H   0  0  0  0  0  0  0  0  0  0  0  0
   60.4290   32.3633   47.0651 H   0  0  0  0  0  0  0  0  0  0  0  0
   61.5569   34.4926   46.4222 H   0  0  0  0  0  0  0  0  0  0  0  0
   63.8864   34.9584   47.1929 H   0  0  0  0  0  0  0  0  0  0  0  0
   65.0875   33.2922   48.6140 H   0  0  0  0  0  0  0  0  0  0  0  0
   63.9670   31.1580   49.2565 H   0  0  0  0  0  0  0  0  0  0  0  0
   59.6421   28.5259   49.1579 H   0  0  0  0  0  0  0  0  0  0  0  0
   58.4570   27.0637   47.5252 H   0  0  0  0  0  0  0  0  0  0  0  0
  1  2  3  0
  2  3  1  0
  3  4  2  0
  4  5  1  0
  5  6  2  0
  6  7  1  0
  7  8  2  0
  8  9  1  0
  9 10  1  0
 10 11  2  0
 10 12  1  0
 12 13  1  0
 13 14  1  0
 14 15  2  0
 15 16  1  0
 16 17  2  0
 17 18  1  0
 18 19  1  0
 19 20  2  0
 20 21  1  0
 21 22  2  0
 22 23  1  0
 23 24  2  0
 17 25  1  0
 25 26  2  0
  8  3  1  0
 26 14  1  0
 24 19  1  0
  4 27  1  0
  5 28  1  0
  6 29  1  0
  7 30  1  0
  9 31  1  0
 12 32  1  0
 12 33  1  0
 13 34  1  0
 15 35  1  0
 16 36  1  0
 20 37  1  0
 21 38  1  0
 22 39  1  0
 23 40  1  0
 24 41  1  0
 25 42  1  0
 26 43  1  0
M  END
>  <UniqueID>  (4) 
4

>  <SMILES>  (4) 
N#Cc1ccccc1NC(=O)CNc1ccc(Oc2ccccc2)cc1

>  <Energy>  (4) 
54.70968562080174

>  <Genealogy>  (4) 
N#Cc1ccccc1NC(=O)CNc1ccc(Oc2ccccc2)cc1 (3D coordinates assigned)
N#Cc1ccccc1NC(=O)CNc1ccc(Oc2ccccc2)cc1 (optimized conformer: 54.70968562080174 kcal/mol)

>  <smiles>  (4) 
N#Cc1ccccc1NC(=O)CNc1ccc(Oc2ccccc2)cc1

>  <score_type>  (4) 
oracle

>  <origin>  (4) 
adg

>  <m_score__min__energy>  (4) 
-8.0600000000000005

>  <m_primary>  (4) 
energy

$$$$
4:0
     RDKit          3D

 36 38  0  0  0  0  0  0  0  0999 V2000
   63.7330   33.4660   47.5940 C   0  0  0  0  0  0  0  0  0  0  0  0
   62.4660   32.7680   47.1950 C   0  0  0  0  0  0  0  0  0  0  0  0
   62.4090   31.3720   47.1710 C   0  0  0  0  0  0  0  0  0  0  0  0
   61.2410   30.7200   46.7740 C   0  0  0  0  0  0  0  0  0  0  0  0
   60.1040   31.4500   46.3790 C   0  0  0  0  0  0  0  0  0  0  0  0
   58.8790   30.6980   46.0030 C   0  0  0  0  0  0  0  0  0  0  0  0
   58.7270   29.3950   46.3620 N   0  0  0  0  0  0  0  0  0  0  0  0
   57.6250   28.6760   46.0150 C   0  0  0  0  0  0  0  0  0  0  0  0
   57.5210   27.2670   46.4600 C   0  0  0  0  0  0  0  0  0  0  0  0
   56.5170   26.4250   45.9470 C   0  0  0  0  0  0  0  0  0  0  0  0
   56.4070   25.1040   46.3900 C   0  0  0  0  0  0  0  0  0  0  0  0
   57.2900   24.6110   47.3530 C   0  0  0  0  0  0  0  0  0  0  0  0
   58.2820   25.4410   47.8800 C   0  0  0  0  0  0  0  0  0  0  0  0
   58.3990   26.7650   47.4420 C   0  0  0  0  0  0  0  0  0  0  0  0
   59.3790   27.5460   47.9620 F   0  0  0  0  0  0  0  0  0  0  0  0
   56.6290   29.2910   45.2380 C   0  0  0  0  0  0  0  0  0  0  0  0
   55.5050   28.5880   44.8110 O   0  0  0  0  0  0  0  0  0  0  0  0
   56.7990   30.6290   44.8710 C   0  0  0  0  0  0  0  0  0  0  0  0
   55.9270   31.2150   44.1770 O   0  0  0  0  0  0  0  0  0  0  0  0
   57.9140   31.3000   45.2560 N   0  0  0  0  0  0  0  0  0  0  0  0
   60.1740   32.8700   46.3540 C   0  0  0  0  0  0  0  0  0  0  0  0
   59.0250   33.7250   45.8820 C   0  0  0  0  0  0  0  0  0  0  0  0
   61.3550   33.5100   46.7740 C   0  0  0  0  0  0  0  0  0  0  0  0
   63.8011   33.5035   48.6913 H   0  0  0  0  0  0  0  0  0  0  0  0
   64.5967   32.9164   47.1916 H   0  0  0  0  0  0  0  0  0  0  0  0
   63.7300   34.4898   47.1916 H   0  0  0  0  0  0  0  0  0  0  0  0
   63.2901   30.7836   47.4668 H   0  0  0  0  0  0  0  0  0  0  0  0
   61.2082   29.6205   46.7696 H   0  0  0  0  0  0  0  0  0  0  0  0
   55.8144   26.8089   45.1927 H   0  0  0  0  0  0  0  0  0  0  0  0
   55.6229   24.4510   45.9791 H   0  0  0  0  0  0  0  0  0  0  0  0
   57.2043   23.5695   47.6963 H   0  0  0  0  0  0  0  0  0  0  0  0
   58.9738   25.0527   48.6420 H   0  0  0  0  0  0  0  0  0  0  0  0
   58.4852   34.1267   46.7522 H   0  0  0  0  0  0  0  0  0  0  0  0
   59.4120   34.5565   45.2747 H   0  0  0  0  0  0  0  0  0  0  0  0
   58.3397   33.1155   45.2747 H   0  0  0  0  0  0  0  0  0  0  0  0
   61.4063   34.6088   46.7716 H   0  0  0  0  0  0  0  0  0  0  0  0
  1  2  1  0
  2  3  2  0
  3  4  1  0
  4  5  2  0
  5  6  1  0
  6  7  2  0
  7  8  1  0
  8  9  1  0
  9 10  2  0
 10 11  1  0
 11 12  2  0
 12 13  1  0
 13 14  2  0
 14 15  1  0
  8 16  2  0
 16 17  1  0
 16 18  1  0
 18 19  2  0
 18 20  1  0
  5 21  1  0
 21 22  1  0
 21 23  2  0
 23  2  1  0
 20  6  1  0
 14  9  1  0
  1 24  1  0
  1 25  1  0
  1 26  1  0
  3 27  1  0
  4 28  1  0
 10 29  1  0
 11 30  1  0
 12 31  1  0
 13 32  1  0
 22 33  1  0
 22 34  1  0
 22 35  1  0
 23 36  1  0
M  CHG  2  17  -1  20  -1
M  END
>  <UniqueID>  (5) 
5

>  <SMILES>  (5) 
Cc1ccc(-c2nc(-c3ccccc3F)c([O-])c(=O)[n-]2)c(C)c1

>  <Energy>  (5) 
50.603658612728424

>  <Genealogy>  (5) 
Cc1ccc(-c2nc(-c3ccccc3F)c([O-])c(=O)[n-]2)c(C)c1 (protonated)
Cc1ccc(-c2nc(-c3ccccc3F)c([O-])c(=O)[n-]2)c(C)c1 (3D coordinates assigned)
Cc1ccc(-c2nc(-c3ccccc3F)c([O-])c(=O)[n-]2)c(C)c1 (optimized conformer: 50.603658612728424 kcal/mol)

>  <smiles>  (5) 
Cc1ccc(-c2nc(-c3ccccc3F)c(O)c(=O)[nH]2)c(C)c1

>  <score_type>  (5) 
oracle

>  <origin>  (5) 
adg

>  <m_score__min__energy>  (5) 
-11.01

>  <m_primary>  (5) 
energy

$$$$
5:0
     RDKit          3D

 56 58  0  0  0  0  0  0  0  0999 V2000
   54.7470   22.9630   47.7700 C   0  0  0  0  0  0  0  0  0  0  0  0
   55.9910   23.4990   47.2140 N   0  0  0  0  0  0  0  0  0  0  0  0
   57.0330   23.9930   48.1160 C   0  0  0  0  0  0  0  0  0  0  0  0
   56.2120   23.4500   45.7930 C   0  0  0  0  0  0  0  0  0  0  0  0
   56.0340   22.2380   45.1060 C   0  0  0  0  0  0  0  0  0  0  0  0
   56.2390   22.1680   43.7270 C   0  0  0  0  0  0  0  0  0  0  0  0
   56.6380   23.3050   43.0220 C   0  0  0  0  0  0  0  0  0  0  0  0
   56.8250   24.5160   43.6920 C   0  0  0  0  0  0  0  0  0  0  0  0
   56.5970   24.6050   45.0790 C   0  0  0  0  0  0  0  0  0  0  0  0
   56.8440   25.8260   45.7940 N   0  0  0  0  0  0  0  0  0  0  0  0
   58.1190   26.4440   46.0010 C   0  0  0  0  0  0  0  0  0  0  0  0
   58.8780   26.6910   45.0230 O   0  0  0  0  0  0  0  0  0  0  0  0
   58.5030   26.8280   47.3250 N   0  0  0  0  0  0  0  0  0  0  0  0
   59.8410   27.3230   47.6410 C   0  0  0  0  0  0  0  0  0  0  0  0
   59.8350   28.8260   47.6900 C   0  0  0  0  0  0  0  0  0  0  0  0
   60.5020   29.5610   46.6990 C   0  0  0  0  0  0  0  0  0  0  0  0
   60.4560   30.9590   46.7060 C   0  0  0  0  0  0  0  0  0  0  0  0
   59.7350   31.6400   47.6990 C   0  0  0  0  0  0  0  0  0  0  0  0
   59.6740   33.0780   47.6960 N   0  0  0  0  0  0  0  0  0  0  0  0
   59.6200   33.8010   48.9700 C   0  0  0  0  0  0  0  0  0  0  0  0
   59.4940   33.7980   46.4600 C   0  0  0  0  0  0  0  0  0  0  0  0
   60.4430   34.4800   45.9850 O   0  0  0  0  0  0  0  0  0  0  0  0
   58.2460   33.7160   45.7550 N   0  0  0  0  0  0  0  0  0  0  0  0
   57.8750   32.7320   44.7780 C   0  0  0  0  0  0  0  0  0  0  0  0
   57.9310   32.9930   43.3960 C   0  0  0  0  0  0  0  0  0  0  0  0
   57.5340   32.0130   42.4790 C   0  0  0  0  0  0  0  0  0  0  0  0
   57.6100   32.3420   40.7580 Cl  0  0  0  0  0  0  0  0  0  0  0  0
   57.0660   30.7760   42.9340 C   0  0  0  0  0  0  0  0  0  0  0  0
   56.9860   30.5190   44.3060 C   0  0  0  0  0  0  0  0  0  0  0  0
   56.3890   28.9720   44.8760 Cl  0  0  0  0  0  0  0  0  0  0  0  0
   57.3820   31.4980   45.2240 C   0  0  0  0  0  0  0  0  0  0  0  0
   59.0740   30.9040   48.6950 C   0  0  0  0  0  0  0  0  0  0  0  0
   59.1200   29.5070   48.6870 C   0  0  0  0  0  0  0  0  0  0  0  0
   54.7972   22.9846   48.8686 H   0  0  0  0  0  0  0  0  0  0  0  0
   53.8993   23.5757   47.4295 H   0  0  0  0  0  0  0  0  0  0  0  0
   54.6100   21.9260   47.4295 H   0  0  0  0  0  0  0  0  0  0  0  0
   56.7166   23.8430   49.1588 H   0  0  0  0  0  0  0  0  0  0  0  0
   57.9674   23.4420   47.9335 H   0  0  0  0  0  0  0  0  0  0  0  0
   57.1979   25.0651   47.9335 H   0  0  0  0  0  0  0  0  0  0  0  0
   55.7306   21.3368   45.6590 H   0  0  0  0  0  0  0  0  0  0  0  0
   56.0862   21.2170   43.1958 H   0  0  0  0  0  0  0  0  0  0  0  0
   56.8055   23.2469   41.9364 H   0  0  0  0  0  0  0  0  0  0  0  0
   57.1522   25.4053   43.1333 H   0  0  0  0  0  0  0  0  0  0  0  0
   57.8170   26.7030   48.1030 H   0  0  0  0  0  0  0  0  0  0  0  0
   60.1541   26.9279   48.6187 H   0  0  0  0  0  0  0  0  0  0  0  0
   60.5426   26.9899   46.8620 H   0  0  0  0  0  0  0  0  0  0  0  0
   61.0639   29.0356   45.9127 H   0  0  0  0  0  0  0  0  0  0  0  0
   60.9878   31.5277   45.9290 H   0  0  0  0  0  0  0  0  0  0  0  0
   59.6736   33.0830   49.8016 H   0  0  0  0  0  0  0  0  0  0  0  0
   60.4686   34.4982   49.0322 H   0  0  0  0  0  0  0  0  0  0  0  0
   58.6773   34.3644   49.0322 H   0  0  0  0  0  0  0  0  0  0  0  0
   58.2876   33.9693   43.0359 H   0  0  0  0  0  0  0  0  0  0  0  0
   56.7606   30.0046   42.2117 H   0  0  0  0  0  0  0  0  0  0  0  0
   57.3059   31.2979   46.3030 H   0  0  0  0  0  0  0  0  0  0  0  0
   58.5174   31.4290   49.4853 H   0  0  0  0  0  0  0  0  0  0  0  0
   58.5926   28.9381   49.4669 H   0  0  0  0  0  0  0  0  0  0  0  0
  1  2  1  0
  2  3  1  0
  2  4  1  0
  4  5  2  0
  5  6  1  0
  6  7  2  0
  7  8  1  0
  8  9  2  0
  9 10  1  0
 10 11  1  0
 11 12  2  0
 11 13  1  0
 13 14  1  0
 14 15  1  0
 15 16  2  0
 16 17  1  0
 17 18  2  0
 18 19  1  0
 19 20  1  0
 19 21  1  0
 21 22  2  0
 21 23  1  0
 23 24  1  0
 24 25  2  0
 25 26  1  0
 26 27  1  0
 26 28  2  0
 28 29  1  0
 29 30  1  0
 29 31  2  0
 18 32  1  0
 32 33  2  0
  9  4  1  0
 33 15  1  0
 31 24  1  0
  1 34  1  0
  1 35  1  0
  1 36  1  0
  3 37  1  0
  3 38  1  0
  3 39  1  0
  5 40  1  0
  6 41  1  0
  7 42  1  0
  8 43  1  0
 13 44  1  0
 14 45  1  0
 14 46  1  0
 16 47  1  0
 17 48  1  0
 20 49  1  0
 20 50  1  0
 20 51  1  0
 25 52  1  0
 28 53  1  0
 31 54  1  0
 32 55  1  0
 33 56  1  0
M  CHG  2  10  -1  23  -1
M  END
>  <UniqueID>  (6) 
6

>  <SMILES>  (6) 
CN(C)c1ccccc1[N-]C(=O)NCc1ccc(N(C)C(=O)[N-]c2cc(Cl)cc(Cl)c2)cc1

>  <Energy>  (6) 
69.57551559839403

>  <Genealogy>  (6) 
CN(C)c1ccccc1[N-]C(=O)NCc1ccc(N(C)C(=O)[N-]c2cc(Cl)cc(Cl)c2)cc1 (protonated)
CN(C)c1ccccc1[N-]C(=O)NCc1ccc(N(C)C(=O)[N-]c2cc(Cl)cc(Cl)c2)cc1 (3D coordinates assigned)
CN(C)c1ccccc1[N-]C(=O)NCc1ccc(N(C)C(=O)[N-]c2cc(Cl)cc(Cl)c2)cc1 (optimized conformer: 69.57551559839403 kcal/mol)

>  <smiles>  (6) 
CN(C)c1ccccc1NC(=O)NCc1ccc(N(C)C(=O)Nc2cc(Cl)cc(Cl)c2)cc1

>  <score_type>  (6) 
oracle

>  <origin>  (6) 
adg

>  <m_score__min__energy>  (6) 
-11.25

>  <m_primary>  (6) 
energy

$$$$
6:0
     RDKit          3D

 62 65  0  0  0  0  0  0  0  0999 V2000
   58.8950   30.1700   49.0520 C   0  0  0  0  0  0  0  0  0  0  0  0
   58.9190   30.1090   50.5750 C   0  0  0  0  0  0  0  0  0  0  0  0
   59.7920   31.1700   51.1180 N   0  0  0  0  0  0  0  0  0  0  0  0
   59.1270   32.4960   51.1460 C   0  0  0  0  0  0  0  0  0  0  0  0
   59.6570   33.4940   50.1040 C   0  0  0  0  0  0  0  0  0  0  0  0
   60.4120   30.7840   52.4080 C   0  0  0  0  0  0  0  0  0  0  0  0
   61.1040   29.4210   52.3160 C   0  0  0  0  0  0  0  0  0  0  0  0
   62.9190   29.6190   52.2940 S   0  0  0  0  0  0  0  0  0  0  0  0
   62.8820   30.8290   50.9780 C   0  0  0  0  0  0  0  0  0  0  0  0
   63.3900   32.0720   51.1830 N   0  0  0  0  0  0  0  0  0  0  0  0
   63.3830   33.0030   50.1940 C   0  0  0  0  0  0  0  0  0  0  0  0
   63.8800   34.1410   50.4050 O   0  0  0  0  0  0  0  0  0  0  0  0
   62.8450   32.6820   48.9430 C   0  0  0  0  0  0  0  0  0  0  0  0
   62.2910   31.4070   48.7620 C   0  0  0  0  0  0  0  0  0  0  0  0
   62.3270   30.5090   49.7810 N   0  0  0  0  0  0  0  0  0  0  0  0
   61.5620   31.0970   47.5670 N   0  0  0  0  0  0  0  0  0  0  0  0
   60.8710   32.1410   46.8580 C   0  0  0  0  0  0  0  0  0  0  0  0
   59.6540   31.8650   46.2170 C   0  0  0  0  0  0  0  0  0  0  0  0
   58.8950   32.9080   45.6640 C   0  0  0  0  0  0  0  0  0  0  0  0
   57.3650   32.5710   44.8560 S   0  0  0  0  0  0  0  0  0  0  0  0
   56.3290   33.5830   45.2610 O   0  0  0  0  0  0  0  0  0  0  0  0
   57.5690   32.6730   43.3720 O   0  0  0  0  0  0  0  0  0  0  0  0
   56.8160   30.9650   45.2400 N   0  0  0  0  0  0  0  0  0  0  0  0
   56.2210   30.3030   44.0760 C   0  0  0  0  0  0  0  0  0  0  0  0
   57.0310   29.0710   43.6560 C   0  0  0  0  0  0  0  0  0  0  0  0
   58.0520   28.6960   44.6980 C   0  0  0  0  0  0  0  0  0  0  0  0
   59.4110   28.9920   44.4980 C   0  0  0  0  0  0  0  0  0  0  0  0
   60.3620   28.6220   45.4540 C   0  0  0  0  0  0  0  0  0  0  0  0
   59.9630   27.9490   46.6130 C   0  0  0  0  0  0  0  0  0  0  0  0
   58.6130   27.6410   46.8150 C   0  0  0  0  0  0  0  0  0  0  0  0
   57.6610   28.0100   45.8600 C   0  0  0  0  0  0  0  0  0  0  0  0
   59.3570   34.2270   45.7560 C   0  0  0  0  0  0  0  0  0  0  0  0
   60.5760   34.5040   46.3810 C   0  0  0  0  0  0  0  0  0  0  0  0
   61.3420   33.4640   46.9160 C   0  0  0  0  0  0  0  0  0  0  0  0
   62.9910   33.8020   47.5430 S   0  0  0  0  0  0  0  0  0  0  0  0
   58.5099   31.1489   48.7303 H   0  0  0  0  0  0  0  0  0  0  0  0
   59.9147   30.0314   48.6634 H   0  0  0  0  0  0  0  0  0  0  0  0
   58.2431   29.3738   48.6634 H   0  0  0  0  0  0  0  0  0  0  0  0
   57.8978   30.2474   50.9596 H   0  0  0  0  0  0  0  0  0  0  0  0
   59.3104   29.1296   50.8873 H   0  0  0  0  0  0  0  0  0  0  0  0
   58.0527   32.3461   50.9635 H   0  0  0  0  0  0  0  0  0  0  0  0
   59.3373   32.9320   52.1338 H   0  0  0  0  0  0  0  0  0  0  0  0
   60.1132   34.3530   50.6179 H   0  0  0  0  0  0  0  0  0  0  0  0
   60.4118   33.0004   49.4742 H   0  0  0  0  0  0  0  0  0  0  0  0
   58.8253   33.8429   49.4742 H   0  0  0  0  0  0  0  0  0  0  0  0
   61.1564   31.5440   52.6877 H   0  0  0  0  0  0  0  0  0  0  0  0
   59.6167   30.7154   53.1648 H   0  0  0  0  0  0  0  0  0  0  0  0
   60.8178   28.8113   53.1857 H   0  0  0  0  0  0  0  0  0  0  0  0
   60.7907   28.9275   51.3842 H   0  0  0  0  0  0  0  0  0  0  0  0
   61.2830   30.1040   47.4030 H   0  0  0  0  0  0  0  0  0  0  0  0
   59.2936   30.8280   46.1476 H   0  0  0  0  0  0  0  0  0  0  0  0
   55.1973   29.9890   44.3278 H   0  0  0  0  0  0  0  0  0  0  0  0
   56.2168   31.0157   43.2381 H   0  0  0  0  0  0  0  0  0  0  0  0
   56.3435   28.2249   43.5094 H   0  0  0  0  0  0  0  0  0  0  0  0
   57.5635   29.3112   42.7239 H   0  0  0  0  0  0  0  0  0  0  0  0
   59.7282   29.5173   43.5851 H   0  0  0  0  0  0  0  0  0  0  0  0
   61.4239   28.8603   45.2944 H   0  0  0  0  0  0  0  0  0  0  0  0
   60.7110   27.6615   47.3666 H   0  0  0  0  0  0  0  0  0  0  0  0
   58.3008   27.1084   47.7254 H   0  0  0  0  0  0  0  0  0  0  0  0
   56.6012   27.7621   46.0191 H   0  0  0  0  0  0  0  0  0  0  0  0
   58.7582   35.0480   45.3348 H   0  0  0  0  0  0  0  0  0  0  0  0
   60.9333   35.5419   46.4521 H   0  0  0  0  0  0  0  0  0  0  0  0
  1  2  1  0
  2  3  1  0
  3  4  1  0
  4  5  1  0
  3  6  1  0
  6  7  1  0
  7  8  1  0
  8  9  1  0
  9 10  2  0
 10 11  1  0
 11 12  2  0
 11 13  1  0
 13 14  2  0
 14 15  1  0
 14 16  1  0
 16 17  1  0
 17 18  2  0
 18 19  1  0
 19 20  1  0
 20 21  2  0
 20 22  2  0
 20 23  1  0
 23 24  1  0
 24 25  1  0
 25 26  1  0
 26 27  2  0
 27 28  1  0
 28 29  2  0
 29 30  1  0
 30 31  2  0
 19 32  2  0
 32 33  1  0
 33 34  2  0
 34 35  1  0
 15  9  1  0
 34 17  1  0
 35 13  1  0
 31 26  1  0
  1 36  1  0
  1 37  1  0
  1 38  1  0
  2 39  1  0
  2 40  1  0
  4 41  1  0
  4 42  1  0
  5 43  1  0
  5 44  1  0
  5 45  1  0
  6 46  1  0
  6 47  1  0
  7 48  1  0
  7 49  1  0
 16 50  1  0
 18 51  1  0
 24 52  1  0
 24 53  1  0
 25 54  1  0
 25 55  1  0
 27 56  1  0
 28 57  1  0
 29 58  1  0
 30 59  1  0
 31 60  1  0
 32 61  1  0
 33 62  1  0
M  CHG  2  15  -1  23  -1
M  END
>  <UniqueID>  (7) 
7

>  <SMILES>  (7) 
CCN(CC)CCSc1nc(=O)c2c([n-]1)Nc1cc(S(=O)(=O)[N-]CCc3ccccc3)ccc1S2

>  <Energy>  (7) 
74.93137234694473

>  <Genealogy>  (7) 
CCN(CC)CCSc1nc(=O)c2c([n-]1)Nc1cc(S(=O)(=O)[N-]CCc3ccccc3)ccc1S2 (protonated)
CCN(CC)CCSc1nc(=O)c2c([n-]1)Nc1cc(S(=O)(=O)[N-]CCc3ccccc3)ccc1S2 (3D coordinates assigned)
CCN(CC)CCSc1nc(=O)c2c([n-]1)Nc1cc(S(=O)(=O)[N-]CCc3ccccc3)ccc1S2 (nonaromatic ring conformer: 74.93137234694473 kcal/mol)

>  <smiles>  (7) 
CCN(CC)CCSc1nc(=O)c2c([nH]1)Nc1cc(S(=O)(=O)NCCc3ccccc3)ccc1S2

>  <score_type>  (7) 
oracle

>  <origin>  (7) 
adg

>  <m_score__min__energy>  (7) 
-12.369999999999999

>  <m_primary>  (7) 
energy

$$$$
7:0
     RDKit          3D

 49 51  0  0  0  0  0  0  0  0999 V2000
   61.0000   33.4670   50.8460 C   0  0  0  0  0  0  0  0  0  0  0  0
   61.4740   33.6690   49.5170 O   0  0  0  0  0  0  0  0  0  0  0  0
   60.6580   33.6920   48.3750 C   0  0  0  0  0  0  0  0  0  0  0  0
   59.2600   33.5290   48.4530 C   0  0  0  0  0  0  0  0  0  0  0  0
   58.4810   33.5550   47.2950 C   0  0  0  0  0  0  0  0  0  0  0  0
   59.0790   33.7500   46.0420 C   0  0  0  0  0  0  0  0  0  0  0  0
   58.2420   33.7360   44.7890 C   0  0  0  0  0  0  0  0  0  0  0  0
   57.1920   32.6200   44.8280 C   0  0  0  0  0  0  0  0  0  0  0  0
   57.8130   31.3050   44.6920 N   0  0  0  0  0  0  0  0  0  0  0  0
   57.0710   30.0880   44.5710 C   0  0  0  0  0  0  0  0  0  0  0  0
   55.8380   30.0580   44.8370 O   0  0  0  0  0  0  0  0  0  0  0  0
   57.7480   28.8590   44.0630 C   0  0  0  0  0  0  0  0  0  0  0  0
   58.5740   28.0160   45.4480 S   0  0  0  0  0  0  0  0  0  0  0  0
   57.1780   26.9410   45.7820 C   0  0  0  0  0  0  0  0  0  0  0  0
   55.8940   27.3200   45.6310 N   0  0  0  0  0  0  0  0  0  0  0  0
   55.1400   26.2960   46.0110 N   0  0  0  0  0  0  0  0  0  0  0  0
   55.9860   25.3190   46.3880 C   0  0  0  0  0  0  0  0  0  0  0  0
   55.6080   24.2040   46.8320 O   0  0  0  0  0  0  0  0  0  0  0  0
   57.2730   25.6800   46.2470 N   0  0  0  0  0  0  0  0  0  0  0  0
   58.4710   24.9370   46.6330 C   0  0  0  0  0  0  0  0  0  0  0  0
   58.6830   23.7920   45.6940 C   0  0  0  0  0  0  0  0  0  0  0  0
   57.7430   23.2770   44.8240 C   0  0  0  0  0  0  0  0  0  0  0  0
   58.3640   22.2190   44.1940 C   0  0  0  0  0  0  0  0  0  0  0  0
   59.6390   22.1510   44.7230 C   0  0  0  0  0  0  0  0  0  0  0  0
   59.7980   23.1000   45.6170 O   0  0  0  0  0  0  0  0  0  0  0  0
   60.4710   33.9040   45.9600 C   0  0  0  0  0  0  0  0  0  0  0  0
   61.2660   33.8800   47.1230 C   0  0  0  0  0  0  0  0  0  0  0  0
   62.6610   34.0360   47.0760 O   0  0  0  0  0  0  0  0  0  0  0  0
   63.5950   32.9630   47.1170 C   0  0  0  0  0  0  0  0  0  0  0  0
   61.7676   33.7941   51.5628 H   0  0  0  0  0  0  0  0  0  0  0  0
   60.0812   34.0517   51.0004 H   0  0  0  0  0  0  0  0  0  0  0  0
   60.7854   32.3992   51.0004 H   0  0  0  0  0  0  0  0  0  0  0  0
   58.7803   33.3805   49.4317 H   0  0  0  0  0  0  0  0  0  0  0  0
   57.3914   33.4217   47.3660 H   0  0  0  0  0  0  0  0  0  0  0  0
   57.7306   34.7048   44.6898 H   0  0  0  0  0  0  0  0  0  0  0  0
   58.9068   33.5549   43.9316 H   0  0  0  0  0  0  0  0  0  0  0  0
   56.6553   32.6658   45.7871 H   0  0  0  0  0  0  0  0  0  0  0  0
   56.4977   32.7657   43.9874 H   0  0  0  0  0  0  0  0  0  0  0  0
   57.0018   28.1863   43.6150 H   0  0  0  0  0  0  0  0  0  0  0  0
   58.4920   29.1347   43.3012 H   0  0  0  0  0  0  0  0  0  0  0  0
   59.3433   25.6061   46.5955 H   0  0  0  0  0  0  0  0  0  0  0  0
   58.3440   24.5495   47.6546 H   0  0  0  0  0  0  0  0  0  0  0  0
   56.7150   23.6352   44.6664 H   0  0  0  0  0  0  0  0  0  0  0  0
   57.9316   21.5616   43.4253 H   0  0  0  0  0  0  0  0  0  0  0  0
   60.4044   21.4140   44.4385 H   0  0  0  0  0  0  0  0  0  0  0  0
   60.9464   34.0449   44.9781 H   0  0  0  0  0  0  0  0  0  0  0  0
   63.8160   32.7091   48.1642 H   0  0  0  0  0  0  0  0  0  0  0  0
   63.1680   32.0856   46.6092 H   0  0  0  0  0  0  0  0  0  0  0  0
   64.5229   33.2650   46.6092 H   0  0  0  0  0  0  0  0  0  0  0  0
  1  2  1  0
  2  3  1  0
  3  4  2  0
  4  5  1  0
  5  6  2  0
  6  7  1  0
  7  8  1  0
  8  9  1  0
  9 10  1  0
 10 11  2  0
 10 12  1  0
 12 13  1  0
 13 14  1  0
 14 15  2  0
 15 16  1  0
 16 17  1  0
 17 18  2  0
 17 19  1  0
 19 20  1  0
 20 21  1  0
 21 22  2  0
 22 23  1  0
 23 24  2  0
 24 25  1  0
  6 26  1  0
 26 27  2  0
 27 28  1  0
 28 29  1  0
 27  3  1  0
 19 14  1  0
 25 21  1  0
  1 30  1  0
  1 31  1  0
  1 32  1  0
  4 33  1  0
  5 34  1  0
  7 35  1  0
  7 36  1  0
  8 37  1  0
  8 38  1  0
 12 39  1  0
 12 40  1  0
 20 41  1  0
 20 42  1  0
 22 43  1  0
 23 44  1  0
 24 45  1  0
 26 46  1  0
 29 47  1  0
 29 48  1  0
 29 49  1  0
M  CHG  2   9  -1  16  -1
M  END
>  <UniqueID>  (8) 
8

>  <SMILES>  (8) 
COc1ccc(CC[N-]C(=O)CSc2n[n-]c(=O)n2Cc2ccco2)cc1OC

>  <Energy>  (8) 
99.63038622766409

>  <Genealogy>  (8) 
COc1ccc(CC[N-]C(=O)CSc2n[n-]c(=O)n2Cc2ccco2)cc1OC (protonated)
COc1ccc(CC[N-]C(=O)CSc2n[n-]c(=O)n2Cc2ccco2)cc1OC (3D coordinates assigned)
COc1ccc(CC[N-]C(=O)CSc2n[n-]c(=O)n2Cc2ccco2)cc1OC (optimized conformer: 99.63038622766409 kcal/mol)

>  <smiles>  (8) 
COc1ccc(CCNC(=O)CSc2n[nH]c(=O)n2Cc2ccco2)cc1OC

>  <score_type>  (8) 
oracle

>  <origin>  (8) 
adg

>  <m_score__min__energy>  (8) 
-11.630000000000001

>  <m_primary>  (8) 
energy

$$$$
8:0
     RDKit          3D

 58 62  0  0  1  0  0  0  0  0999 V2000
   55.5230   30.8540   44.4830 N   0  0  0  0  0  0  0  0  0  0  0  0
   56.8350   30.2510   43.5350 S   0  0  0  0  0  0  0  0  0  0  0  0
   57.4830   31.3430   42.7200 O   0  0  0  0  0  0  0  0  0  0  0  0
   56.2820   29.2480   42.5880 O   0  0  0  0  0  0  0  0  0  0  0  0
   58.0570   29.4680   44.5460 C   0  0  0  0  0  0  0  0  0  0  0  0
   58.6730   28.2910   44.1450 C   0  0  0  0  0  0  0  0  0  0  0  0
   59.6290   27.6840   44.9410 C   0  0  0  0  0  0  0  0  0  0  0  0
   59.9680   28.2680   46.1570 C   0  0  0  0  0  0  0  0  0  0  0  0
   59.3780   29.4330   46.5860 C   0  0  0  0  0  0  0  0  0  0  0  0
   58.4170   30.0380   45.7780 C   0  0  0  0  0  0  0  0  0  0  0  0
   57.7820   31.2520   46.1010 N   0  0  0  0  0  0  0  0  0  0  0  0
   58.3780   32.1460   46.7830 C   0  0  0  0  0  0  0  0  0  0  0  0
   58.8340   31.7560   48.0120 N   0  0  0  0  0  0  0  0  0  0  0  0
   59.4750   32.5990   48.8370 C   0  0  0  0  0  0  0  0  0  0  0  0
   59.8880   32.1950   49.9830 N   0  0  0  0  0  0  0  0  0  0  0  0
   59.0290   32.1830   51.1270 C   0  0  0  0  0  0  0  0  0  0  0  0
   59.3100   33.0350   52.1750 C   0  0  0  0  0  0  0  0  0  0  0  0
   58.4740   33.0060   53.2610 C   0  0  0  0  0  0  0  0  0  0  0  0
   57.3890   32.1570   53.3120 C   0  0  0  0  0  0  0  0  0  0  0  0
   57.0810   31.2830   52.2640 C   0  0  0  0  0  0  0  0  0  0  0  0
   55.9670   30.4160   52.3230 N   0  0  0  0  0  0  0  0  0  0  0  0
   56.0360   29.0360   52.7630 C   0  0  0  0  0  0  0  0  0  0  0  0
   54.7360   28.6140   53.4590 C   0  0  0  0  0  0  0  0  0  0  0  0
   53.6800   28.7100   52.4840 N   0  0  0  0  0  0  0  0  0  0  0  0
   53.6880   29.8520   51.6260 C   0  0  0  0  0  0  0  0  0  0  0  0
   52.8750   29.9090   50.6690 O   0  0  0  0  0  0  0  0  0  0  0  0
   54.6760   30.9290   51.9220 C   0  0  0  0  0  0  0  0  0  0  0  0
   57.9420   31.3350   51.1830 C   0  0  0  0  0  0  0  0  0  0  0  0
   59.6690   33.8640   48.4280 N   0  0  0  0  0  0  0  0  0  0  0  0
   59.2340   34.2850   47.2250 C   0  0  0  0  0  0  0  0  0  0  0  0
   58.5620   33.4330   46.3410 C   0  0  0  0  0  0  0  0  0  0  0  0
   58.2300   34.1970   45.1230 C   0  0  0  0  0  0  0  0  0  0  0  0
   59.3150   35.3110   45.1870 C   0  0  0  0  0  0  0  0  0  0  0  0
   59.3300   35.5640   46.6110 N   0  0  0  0  0  0  0  0  0  0  0  0
   54.8770   30.0860   44.7160 H   0  0  0  0  0  0  0  0  0  0  0  0
   55.8050   31.4760   45.2480 H   0  0  0  0  0  0  0  0  0  0  0  0
   58.3982   27.8347   43.1826 H   0  0  0  0  0  0  0  0  0  0  0  0
   60.1143   26.7519   44.6161 H   0  0  0  0  0  0  0  0  0  0  0  0
   60.7268   27.7858   46.7908 H   0  0  0  0  0  0  0  0  0  0  0  0
   59.6596   29.8802   47.5507 H   0  0  0  0  0  0  0  0  0  0  0  0
   58.6910   30.7680   48.3490 H   0  0  0  0  0  0  0  0  0  0  0  0
   60.1748   33.7140   52.1404 H   0  0  0  0  0  0  0  0  0  0  0  0
   58.6734   33.6752   54.1109 H   0  0  0  0  0  0  0  0  0  0  0  0
   56.7457   32.1671   54.2042 H   0  0  0  0  0  0  0  0  0  0  0  0
   56.2029   28.3882   51.8898 H   0  0  0  0  0  0  0  0  0  0  0  0
   56.8644   28.9384   53.4801 H   0  0  0  0  0  0  0  0  0  0  0  0
   54.8214   27.5789   53.8213 H   0  0  0  0  0  0  0  0  0  0  0  0
   54.5286   29.2610   54.3241 H   0  0  0  0  0  0  0  0  0  0  0  0
   52.9460   27.9670   52.4190 H   0  0  0  0  0  0  0  0  0  0  0  0
   54.8076   31.5421   51.0182 H   0  0  0  0  0  0  0  0  0  0  0  0
   54.2798   31.5173   52.7628 H   0  0  0  0  0  0  0  0  0  0  0  0
   57.7514   30.6694   50.3282 H   0  0  0  0  0  0  0  0  0  0  0  0
   60.1740   34.4970   49.0990 H   0  0  0  0  0  0  0  0  0  0  0  0
   58.3316   33.5819   44.2167 H   0  0  0  0  0  0  0  0  0  0  0  0
   57.1945   34.5656   45.0795 H   0  0  0  0  0  0  0  0  0  0  0  0
   60.2901   34.9526   44.8256 H   0  0  0  0  0  0  0  0  0  0  0  0
   59.1118   36.1927   44.5615 H   0  0  0  0  0  0  0  0  0  0  0  0
   59.3970   36.4790   47.1000 H   0  0  0  0  0  0  0  0  0  0  0  0
  1  2  1  0
  2  3  2  0
  2  4  2  0
  2  5  1  0
  5  6  2  0
  6  7  1  0
  7  8  2  0
  8  9  1  0
  9 10  2  0
 10 11  1  0
 11 12  2  0
 12 13  1  0
 13 14  1  0
 14 15  2  0
 15 16  1  0
 16 17  2  0
 17 18  1  0
 18 19  2  0
 19 20  1  0
 20 21  1  0
 21 22  1  0
 22 23  1  0
 23 24  1  0
 24 25  1  0
 25 26  2  0
 25 27  1  0
 20 28  2  0
 14 29  1  0
 29 30  1  0
 30 31  2  0
 31 32  1  0
 32 33  1  0
 33 34  1  0
 10  5  1  0
 31 12  1  0
 28 16  1  0
 34 30  1  0
 27 21  1  0
  1 35  1  0
  1 36  1  0
  6 37  1  0
  7 38  1  0
  8 39  1  0
  9 40  1  0
 13 41  1  0
 17 42  1  0
 18 43  1  0
 19 44  1  0
 22 45  1  0
 22 46  1  0
 23 47  1  0
 23 48  1  0
 24 49  1  0
 27 50  1  0
 27 51  1  0
 28 52  1  0
 29 53  1  0
 32 54  1  0
 32 55  1  0
 33 56  1  0
 33 57  1  0
 34 58  1  0
M  END
>  <smiles>  (9) 
NS(=O)(=O)c1ccccc1N=c1[nH]c(=Nc2cccc(N3CCNC(=O)C3)c2)[nH]c2c1CCN2

>  <score_type>  (9) 
oracle

>  <origin>  (9) 
adg

>  <m_score__min__energy>  (9) 
-10.65

>  <m_primary>  (9) 
energy

$$$$
9:0
     RDKit          3D

 76 80  0  0  0  0  0  0  0  0999 V2000
   63.9110   34.7990   54.5720 C   0  0  0  0  0  0  0  0  0  0  0  0
   63.3770   33.3830   54.4000 C   0  0  0  0  0  0  0  0  0  0  0  0
   62.1030   33.3880   53.6170 C   0  0  0  0  0  0  0  0  0  0  0  0
   61.7890   32.5360   52.5750 C   0  0  0  0  0  0  0  0  0  0  0  0
   60.5010   32.8870   52.2230 C   0  0  0  0  0  0  0  0  0  0  0  0
   59.6810   32.2190   51.1860 C   0  0  0  0  0  0  0  0  0  0  0  0
   58.8900   32.9030   50.4800 O   0  0  0  0  0  0  0  0  0  0  0  0
   59.7360   30.7940   50.9970 N   0  0  0  0  0  0  0  0  0  0  0  0
   58.4910   30.0400   50.8170 C   0  0  0  0  0  0  0  0  0  0  0  0
   58.5300   29.3120   49.4740 C   0  0  0  0  0  0  0  0  0  0  0  0
   59.7820   28.5530   49.3180 N   0  0  0  0  0  0  0  0  0  0  0  0
   59.8600   27.5300   48.3090 C   0  0  0  0  0  0  0  0  0  0  0  0
   60.4090   26.4260   48.5720 O   0  0  0  0  0  0  0  0  0  0  0  0
   59.3000   27.7560   46.9660 C   0  0  0  0  0  0  0  0  0  0  0  0
   58.8280   26.6690   46.2150 C   0  0  0  0  0  0  0  0  0  0  0  0
   58.2940   26.8740   44.9420 C   0  0  0  0  0  0  0  0  0  0  0  0
   58.2520   28.1590   44.3970 C   0  0  0  0  0  0  0  0  0  0  0  0
   58.7430   29.2540   45.1270 C   0  0  0  0  0  0  0  0  0  0  0  0
   58.7850   30.6270   44.5020 C   0  0  0  0  0  0  0  0  0  0  0  0
   58.6360   31.7730   45.4920 C   0  0  0  0  0  0  0  0  0  0  0  0
   57.4900   32.5940   45.4580 C   0  0  0  0  0  0  0  0  0  0  0  0
   57.3490   33.6580   46.3460 C   0  0  0  0  0  0  0  0  0  0  0  0
   58.3440   33.9310   47.2770 C   0  0  0  0  0  0  0  0  0  0  0  0
   59.5190   33.1670   47.3080 C   0  0  0  0  0  0  0  0  0  0  0  0
   60.5160   33.4350   48.3080 N   0  0  0  0  0  0  0  0  0  0  0  0
   61.8790   33.7700   47.9940 C   0  0  0  0  0  0  0  0  0  0  0  0
   62.1900   34.1150   46.8220 O   0  0  0  0  0  0  0  0  0  0  0  0
   62.9300   33.7050   49.0350 C   0  0  0  0  0  0  0  0  0  0  0  0
   62.8930   34.5860   50.1290 C   0  0  0  0  0  0  0  0  0  0  0  0
   63.8900   34.5400   51.1090 C   0  0  0  0  0  0  0  0  0  0  0  0
   64.9360   33.6180   51.0030 C   0  0  0  0  0  0  0  0  0  0  0  0
   64.9880   32.7450   49.9140 C   0  0  0  0  0  0  0  0  0  0  0  0
   63.9940   32.7890   48.9310 C   0  0  0  0  0  0  0  0  0  0  0  0
   59.6900   32.1000   46.3900 C   0  0  0  0  0  0  0  0  0  0  0  0
   60.9820   31.3120   46.3820 C   0  0  0  0  0  0  0  0  0  0  0  0
   59.2350   29.0500   46.4270 C   0  0  0  0  0  0  0  0  0  0  0  0
   60.8500   28.6720   50.3220 C   0  0  0  0  0  0  0  0  0  0  0  0
   61.0320   30.1410   50.7360 C   0  0  0  0  0  0  0  0  0  0  0  0
   60.0910   33.8870   53.0390 N   0  0  0  0  0  0  0  0  0  0  0  0
   58.7870   34.5430   53.0530 C   0  0  0  0  0  0  0  0  0  0  0  0
   61.0560   34.1870   53.8920 N   0  0  0  0  0  0  0  0  0  0  0  0
   63.9982   35.0303   55.6439 H   0  0  0  0  0  0  0  0  0  0  0  0
   64.9006   34.8778   54.0982 H   0  0  0  0  0  0  0  0  0  0  0  0
   63.2198   35.5116   54.0982 H   0  0  0  0  0  0  0  0  0  0  0  0
   64.1253   32.7775   53.8676 H   0  0  0  0  0  0  0  0  0  0  0  0
   63.1781   32.9577   55.3948 H   0  0  0  0  0  0  0  0  0  0  0  0
   62.4218   31.7553   52.1276 H   0  0  0  0  0  0  0  0  0  0  0  0
   58.3853   29.3062   51.6296 H   0  0  0  0  0  0  0  0  0  0  0  0
   57.6358   30.7316   50.8361 H   0  0  0  0  0  0  0  0  0  0  0  0
   57.6792   28.6170   49.4174 H   0  0  0  0  0  0  0  0  0  0  0  0
   58.4727   30.0601   48.6696 H   0  0  0  0  0  0  0  0  0  0  0  0
   58.8790   25.6519   46.6309 H   0  0  0  0  0  0  0  0  0  0  0  0
   57.9051   26.0211   44.3664 H   0  0  0  0  0  0  0  0  0  0  0  0
   57.8327   28.3143   43.3920 H   0  0  0  0  0  0  0  0  0  0  0  0
   59.7500   30.7410   43.9864 H   0  0  0  0  0  0  0  0  0  0  0  0
   57.9245   30.6878   43.8195 H   0  0  0  0  0  0  0  0  0  0  0  0
   56.6982   32.3919   44.7217 H   0  0  0  0  0  0  0  0  0  0  0  0
   56.4459   34.2850   46.3101 H   0  0  0  0  0  0  0  0  0  0  0  0
   58.2085   34.7530   47.9953 H   0  0  0  0  0  0  0  0  0  0  0  0
   60.2490   33.2880   49.3070 H   0  0  0  0  0  0  0  0  0  0  0  0
   62.0750   35.3163   50.2153 H   0  0  0  0  0  0  0  0  0  0  0  0
   63.8512   35.2303   51.9646 H   0  0  0  0  0  0  0  0  0  0  0  0
   65.7171   33.5803   51.7766 H   0  0  0  0  0  0  0  0  0  0  0  0
   65.8122   32.0215   49.8293 H   0  0  0  0  0  0  0  0  0  0  0  0
   64.0439   32.1040   48.0718 H   0  0  0  0  0  0  0  0  0  0  0  0
   61.2997   31.1182   47.4171 H   0  0  0  0  0  0  0  0  0  0  0  0
   60.8250   30.3557   45.8615 H   0  0  0  0  0  0  0  0  0  0  0  0
   61.7604   31.8893   45.8615 H   0  0  0  0  0  0  0  0  0  0  0  0
   59.5712   29.9094   47.0257 H   0  0  0  0  0  0  0  0  0  0  0  0
   60.5838   28.0758   51.2073 H   0  0  0  0  0  0  0  0  0  0  0  0
   61.7913   28.3033   49.8884 H   0  0  0  0  0  0  0  0  0  0  0  0
   61.6431   30.1817   51.6498 H   0  0  0  0  0  0  0  0  0  0  0  0
   61.5263   30.6734   49.9100 H   0  0  0  0  0  0  0  0  0  0  0  0
   58.4683   34.7033   54.0936 H   0  0  0  0  0  0  0  0  0  0  0  0
   58.8586   35.5123   52.5380 H   0  0  0  0  0  0  0  0  0  0  0  0
   58.0514   33.9077   52.5380 H   0  0  0  0  0  0  0  0  0  0  0  0
  1  2  1  0
  2  3  1  0
  3  4  1  0
  4  5  2  0
  5  6  1  0
  6  7  2  0
  6  8  1  0
  8  9  1  0
  9 10  1  0
 10 11  1  0
 11 12  1  0
 12 13  2  0
 12 14  1  0
 14 15  2  0
 15 16  1  0
 16 17  2  0
 17 18  1  0
 18 19  1  0
 19 20  1  0
 20 21  2  0
 21 22  1  0
 22 23  2  0
 23 24  1  0
 24 25  1  0
 25 26  1  0
 26 27  2  0
 26 28  1  0
 28 29  2  0
 29 30  1  0
 30 31  2  0
 31 32  1  0
 32 33  2  0
 24 34  2  0
 34 35  1  0
 18 36  2  0
 11 37  1  0
 37 38  1  0
  5 39  1  0
 39 40  1  0
 39 41  1  0
 41  3  2  0
 38  8  1  0
 36 14  1  0
 34 20  1  0
 33 28  1  0
  1 42  1  0
  1 43  1  0
  1 44  1  0
  2 45  1  0
  2 46  1  0
  4 47  1  0
  9 48  1  0
  9 49  1  0
 10 50  1  0
 10 51  1  0
 15 52  1  0
 16 53  1  0
 17 54  1  0
 19 55  1  0
 19 56  1  0
 21 57  1  0
 22 58  1  0
 23 59  1  0
 25 60  1  0
 29 61  1  0
 30 62  1  0
 31 63  1  0
 32 64  1  0
 33 65  1  0
 35 66  1  0
 35 67  1  0
 35 68  1  0
 36 69  1  0
 37 70  1  0
 37 71  1  0
 38 72  1  0
 38 73  1  0
 40 74  1  0
 40 75  1  0
 40 76  1  0
M  END
>  <UniqueID>  (10) 
9

>  <SMILES>  (10) 
CCc1cc(C(=O)N2CCN(C(=O)c3cccc(Cc4cccc(NC(=O)c5ccccc5)c4C)c3)CC2)n(C)n1

>  <Energy>  (10) 
129.61654421250782

>  <Genealogy>  (10) 
CCc1cc(C(=O)N2CCN(C(=O)c3cccc(Cc4cccc(NC(=O)c5ccccc5)c4C)c3)CC2)n(C)n1 (3D coordinates assigned)
CCc1cc(C(=O)N2CCN(C(=O)c3cccc(Cc4cccc(NC(=O)c5ccccc5)c4C)c3)CC2)n(C)n1 (nonaromatic ring conformer: 129.61654421250782 kcal/mol)

>  <smiles>  (10) 
CCc1cc(C(=O)N2CCN(C(=O)c3cccc(Cc4cccc(NC(=O)c5ccccc5)c4C)c3)CC2)n(C)n1

>  <score_type>  (10) 
oracle

>  <origin>  (10) 
adg

>  <m_score__min__energy>  (10) 
-10.470000000000001

>  <m_primary>  (10) 
energy

$$$$
10:0
     RDKit          3D

 41 43  0  0  0  0  0  0  0  0999 V2000
   53.9370   26.7040   46.3680 H   0  0  0  0  0  0  0  0  0  0  0  0
   54.7490   26.3040   45.8460 N   0  0  0  0  0  0  0  0  0  0  0  0
   55.9920   26.0610   46.5020 C   0  0  0  0  0  0  0  0  0  0  0  0
   56.1820   24.9590   47.0820 O   0  0  0  0  0  0  0  0  0  0  0  0
   57.0420   27.0970   46.4930 C   0  0  0  0  0  0  0  0  0  0  0  0
   58.1420   26.9370   47.2760 N   0  0  0  0  0  0  0  0  0  0  0  0
   59.1380   27.8580   47.2950 C   0  0  0  0  0  0  0  0  0  0  0  0
   60.1740   27.6640   48.0520 N   0  0  0  0  0  0  0  0  0  0  0  0
   60.3950   28.3420   49.3260 C   0  0  0  0  0  0  0  0  0  0  0  0
   61.4591   28.2763   49.5970 H   0  0  0  0  0  0  0  0  0  0  0  0
   59.7882   27.8620   50.1079 H   0  0  0  0  0  0  0  0  0  0  0  0
   59.9980   29.7870   49.1980 C   0  0  0  0  0  0  0  0  0  0  0  0
   60.7480   30.6460   48.3810 C   0  0  0  0  0  0  0  0  0  0  0  0
   61.6090   30.2542   47.8197 H   0  0  0  0  0  0  0  0  0  0  0  0
   60.4070   31.9950   48.2770 C   0  0  0  0  0  0  0  0  0  0  0  0
   60.9949   32.6601   47.6273 H   0  0  0  0  0  0  0  0  0  0  0  0
   59.3230   32.5040   48.9940 C   0  0  0  0  0  0  0  0  0  0  0  0
   59.0575   33.5677   48.9041 H   0  0  0  0  0  0  0  0  0  0  0  0
   58.5680   31.6610   49.8320 C   0  0  0  0  0  0  0  0  0  0  0  0
   57.4750   32.1310   50.5770 O   0  0  0  0  0  0  0  0  0  0  0  0
   57.3620   32.0280   51.9930 C   0  0  0  0  0  0  0  0  0  0  0  0
   58.0949   32.6961   52.4689 H   0  0  0  0  0  0  0  0  0  0  0  0
   56.3469   32.3180   52.3019 H   0  0  0  0  0  0  0  0  0  0  0  0
   57.5569   30.9904   52.3019 H   0  0  0  0  0  0  0  0  0  0  0  0
   58.9140   30.3040   49.9340 C   0  0  0  0  0  0  0  0  0  0  0  0
   58.1770   29.4740   50.7740 O   0  0  0  0  0  0  0  0  0  0  0  0
   59.0390   28.9720   46.5180 N   0  0  0  0  0  0  0  0  0  0  0  0
   57.9600   29.1950   45.7190 C   0  0  0  0  0  0  0  0  0  0  0  0
   57.9130   30.4270   44.8910 C   0  0  0  0  0  0  0  0  0  0  0  0
   57.4490   30.3600   43.5640 C   0  0  0  0  0  0  0  0  0  0  0  0
   57.1185   29.3963   43.1493 H   0  0  0  0  0  0  0  0  0  0  0  0
   57.4050   31.5090   42.7690 C   0  0  0  0  0  0  0  0  0  0  0  0
   57.0343   31.4467   41.7352 H   0  0  0  0  0  0  0  0  0  0  0  0
   57.8300   32.7350   43.2830 C   0  0  0  0  0  0  0  0  0  0  0  0
   57.7918   33.6377   42.6556 H   0  0  0  0  0  0  0  0  0  0  0  0
   58.3040   32.8150   44.5950 C   0  0  0  0  0  0  0  0  0  0  0  0
   58.8540   34.3540   45.2340 Cl  0  0  0  0  0  0  0  0  0  0  0  0
   58.3500   31.6680   45.3960 C   0  0  0  0  0  0  0  0  0  0  0  0
   58.7297   31.7357   46.4262 H   0  0  0  0  0  0  0  0  0  0  0  0
   56.9310   28.2400   45.6880 C   0  0  0  0  0  0  0  0  0  0  0  0
   56.0521   28.3860   45.0428 H   0  0  0  0  0  0  0  0  0  0  0  0
  1  2  1  0
  2  3  1  0
  3  4  2  0
  3  5  1  0
  5  6  2  0
  6  7  1  0
  7  8  2  0
  8  9  1  0
  9 10  1  0
  9 11  1  0
  9 12  1  0
 12 13  2  0
 13 14  1  0
 13 15  1  0
 15 16  1  0
 15 17  2  0
 17 18  1  0
 17 19  1  0
 19 20  1  0
 20 21  1  0
 21 22  1  0
 21 23  1  0
 21 24  1  0
 19 25  2  0
 25 26  1  0
  7 27  1  0
 27 28  1  0
 28 29  1  0
 29 30  2  0
 30 31  1  0
 30 32  1  0
 32 33  1  0
 32 34  2  0
 34 35  1  0
 34 36  1  0
 36 37  1  0
 36 38  2  0
 38 39  1  0
 28 40  2  0
 40 41  1  0
 40  5  1  0
 25 12  1  0
 38 29  1  0
M  CHG  3   2  -1  26  -1  27  -1
M  END
>  <UniqueID>  (11) 
10

>  <SMILES>  (11) 
COc1cccc(C/N=c2/nc(C([NH-])=O)cc(-c3cccc(Cl)c3)[n-]2)c1[O-]

>  <Energy>  (11) 
46.32927787274247

>  <Genealogy>  (11) 
COc1cccc(CN=c2nc(C([NH-])=O)cc(-c3cccc(Cl)c3)[n-]2)c1[O-] (protonated)
COc1cccc(C/N=c2/nc(C([NH-])=O)cc(-c3cccc(Cl)c3)[n-]2)c1[O-] (cis-trans isomerization)
COc1cccc(C/N=c2/nc(C([NH-])=O)cc(-c3cccc(Cl)c3)[n-]2)c1[O-] (3D coordinates assigned)
COc1cccc(C/N=c2/nc(C([NH-])=O)cc(-c3cccc(Cl)c3)[n-]2)c1[O-] (optimized conformer: 46.32927787274247 kcal/mol)

>  <smiles>  (11) 
COc1cccc(CN=c2nc(C(N)=O)cc(-c3cccc(Cl)c3)[nH]2)c1O

>  <score_type>  (11) 
oracle

>  <origin>  (11) 
adg

>  <m_score__min__energy>  (11) 
-14.66

>  <m_primary>  (11) 
energy

$$$$
11:0
     RDKit          3D

 63 67  0  0  0  0  0  0  0  0999 V2000
   61.7330   31.6920   48.2940 H   0  0  0  0  0  0  0  0  0  0  0  0
   61.7700   31.2480   49.1810 O   0  0  0  0  0  0  0  0  0  0  0  0
   62.3250   32.1560   50.1000 C   0  0  2  0  0  0  0  0  0  0  0  0
   63.1011   31.6450   50.6886 H   0  0  0  0  0  0  0  0  0  0  0  0
   61.2420   32.6380   51.0480 C   0  0  0  0  0  0  0  0  0  0  0  0
   61.2610   32.2930   52.4110 C   0  0  0  0  0  0  0  0  0  0  0  0
   62.0585   31.6413   52.7974 H   0  0  0  0  0  0  0  0  0  0  0  0
   60.3040   32.7570   53.2540 N   0  0  0  0  0  0  0  0  0  0  0  0
   59.3140   33.5750   52.8200 C   0  0  0  0  0  0  0  0  0  0  0  0
   58.5473   33.9301   53.5244 H   0  0  0  0  0  0  0  0  0  0  0  0
   59.2650   33.9680   51.4810 C   0  0  0  0  0  0  0  0  0  0  0  0
   58.4675   34.6382   51.1277 H   0  0  0  0  0  0  0  0  0  0  0  0
   60.2380   33.5020   50.5950 C   0  0  0  0  0  0  0  0  0  0  0  0
   60.2158   33.8139   49.5404 H   0  0  0  0  0  0  0  0  0  0  0  0
   63.0320   33.3360   49.3740 C   0  0  0  0  0  0  0  0  0  0  0  0
   63.9838   33.5378   49.8873 H   0  0  0  0  0  0  0  0  0  0  0  0
   62.3421   34.1920   49.4104 H   0  0  0  0  0  0  0  0  0  0  0  0
   63.3180   33.0780   47.9510 N   0  0  0  0  0  0  0  0  0  0  0  0
   63.1870   32.0550   47.7720 H   0  0  0  0  0  0  0  0  0  0  0  0
   62.4820   33.8290   46.9980 C   0  0  0  0  0  0  0  0  0  0  0  0
   62.3652   33.2310   46.0822 H   0  0  0  0  0  0  0  0  0  0  0  0
   62.9836   34.7859   46.7914 H   0  0  0  0  0  0  0  0  0  0  0  0
   61.0850   34.1420   47.5670 C   0  0  0  0  0  0  0  0  0  0  0  0
   60.8447   35.1935   47.3513 H   0  0  0  0  0  0  0  0  0  0  0  0
   61.1152   33.9452   48.6488 H   0  0  0  0  0  0  0  0  0  0  0  0
   60.0060   33.2690   46.9750 C   0  0  0  0  0  0  0  0  0  0  0  0
   58.6660   33.6860   46.9990 C   0  0  0  0  0  0  0  0  0  0  0  0
   58.3933   34.6195   47.5131 H   0  0  0  0  0  0  0  0  0  0  0  0
   57.6760   32.9230   46.3740 C   0  0  0  0  0  0  0  0  0  0  0  0
   56.6311   33.2667   46.3855 H   0  0  0  0  0  0  0  0  0  0  0  0
   58.0090   31.7190   45.7310 C   0  0  0  0  0  0  0  0  0  0  0  0
   57.0510   30.9700   44.9690 N   0  0  0  0  0  0  0  0  0  0  0  0
   56.6390   29.6160   45.1950 C   0  0  0  0  0  0  0  0  0  0  0  0
   55.4120   29.3250   45.1860 O   0  0  0  0  0  0  0  0  0  0  0  0
   57.6490   28.5670   45.4880 C   0  0  0  0  0  0  0  0  0  0  0  0
   57.8820   27.5410   44.5560 C   0  0  0  0  0  0  0  0  0  0  0  0
   57.3035   27.5115   43.6208 H   0  0  0  0  0  0  0  0  0  0  0  0
   58.8420   26.5590   44.8080 C   0  0  0  0  0  0  0  0  0  0  0  0
   59.0137   25.7589   44.0729 H   0  0  0  0  0  0  0  0  0  0  0  0
   59.5850   26.5890   45.9900 C   0  0  0  0  0  0  0  0  0  0  0  0
   60.3393   25.8125   46.1851 H   0  0  0  0  0  0  0  0  0  0  0  0
   59.3710   27.6030   46.9230 C   0  0  0  0  0  0  0  0  0  0  0  0
   58.4130   28.5920   46.6760 C   0  0  0  0  0  0  0  0  0  0  0  0
   58.2510   29.6120   47.6100 O   0  0  0  0  0  0  0  0  0  0  0  0
   58.9380   29.6530   48.8260 C   0  0  0  0  0  0  0  0  0  0  0  0
   58.6860   30.6980   49.6300 C   0  0  0  0  0  0  0  0  0  0  0  0
   58.9373   31.6910   49.2291 H   0  0  0  0  0  0  0  0  0  0  0  0
   58.1090   30.6700   50.9940 C   0  0  0  0  0  0  0  0  0  0  0  0
   58.5200   29.6820   52.2970 S   0  0  0  0  0  0  0  0  0  0  0  0
   57.3390   30.2420   53.3520 C   0  0  0  0  0  0  0  0  0  0  0  0
   57.1855   29.9048   54.3877 H   0  0  0  0  0  0  0  0  0  0  0  0
   56.5910   31.2040   52.6890 C   0  0  0  0  0  0  0  0  0  0  0  0
   55.7426   31.7299   53.1513 H   0  0  0  0  0  0  0  0  0  0  0  0
   57.0160   31.4430   51.3780 C   0  0  0  0  0  0  0  0  0  0  0  0
   56.5322   32.1732   50.7126 H   0  0  0  0  0  0  0  0  0  0  0  0
   59.8880   28.5330   49.1840 C   0  0  0  0  0  0  0  0  0  0  0  0
   60.8447   28.9723   49.5029 H   0  0  0  0  0  0  0  0  0  0  0  0
   59.4197   27.9463   49.9881 H   0  0  0  0  0  0  0  0  0  0  0  0
   60.1350   27.6450   48.0920 O   0  0  0  0  0  0  0  0  0  0  0  0
   59.3410   31.2890   45.7350 C   0  0  0  0  0  0  0  0  0  0  0  0
   59.6110   30.3466   45.2360 H   0  0  0  0  0  0  0  0  0  0  0  0
   60.3320   32.0470   46.3680 C   0  0  0  0  0  0  0  0  0  0  0  0
   61.3700   31.6837   46.3898 H   0  0  0  0  0  0  0  0  0  0  0  0
  1  2  1  0
  2  3  1  0
  3  4  1  1
  3  5  1  0
  5  6  2  0
  6  7  1  0
  6  8  1  0
  8  9  2  0
  9 10  1  0
  9 11  1  0
 11 12  1  0
 11 13  2  0
 13 14  1  0
  3 15  1  0
 15 16  1  0
 15 17  1  0
 15 18  1  0
 18 19  1  0
 18 20  1  0
 20 21  1  0
 20 22  1  0
 20 23  1  0
 23 24  1  0
 23 25  1  0
 23 26  1  0
 26 27  2  0
 27 28  1  0
 27 29  1  0
 29 30  1  0
 29 31  2  0
 31 32  1  0
 32 33  1  0
 33 34  2  0
 33 35  1  0
 35 36  2  0
 36 37  1  0
 36 38  1  0
 38 39  1  0
 38 40  2  0
 40 41  1  0
 40 42  1  0
 42 43  2  0
 43 44  1  0
 44 45  1  0
 45 46  2  0
 46 47  1  0
 46 48  1  0
 48 49  1  0
 49 50  1  0
 50 51  1  0
 50 52  2  0
 52 53  1  0
 52 54  1  0
 54 55  1  0
 45 56  1  0
 56 57  1  0
 56 58  1  0
 56 59  1  0
 31 60  1  0
 60 61  1  0
 60 62  2  0
 62 63  1  0
 13  5  1  0
 62 26  1  0
 43 35  1  0
 54 48  2  0
 59 42  1  0
M  CHG  1  32  -1
M  END
>  <UniqueID>  (12) 
11

>  <SMILES>  (12) 
O=C([N-]c1ccc(CCNC[C@H](O)c2cccnc2)cc1)c1cccc2c1O/C(=C/c1cccs1)CO2

>  <Energy>  (12) 
108.87263992978609

>  <Genealogy>  (12) 
O=C([N-]c1ccc(CCNCC(O)c2cccnc2)cc1)c1cccc2c1OC(=Cc1cccs1)CO2 (protonated)
O=C([N-]c1ccc(CCNC[C@H](O)c2cccnc2)cc1)c1cccc2c1OC(=Cc1cccs1)CO2 (chirality)
O=C([N-]c1ccc(CCNC[C@H](O)c2cccnc2)cc1)c1cccc2c1O/C(=C/c1cccs1)CO2 (cis-trans isomerization)
O=C([N-]c1ccc(CCNC[C@H](O)c2cccnc2)cc1)c1cccc2c1O/C(=C/c1cccs1)CO2 (3D coordinates assigned)
O=C([N-]c1ccc(CCNC[C@H](O)c2cccnc2)cc1)c1cccc2c1O/C(=C/c1cccs1)CO2 (nonaromatic ring conformer: 108.87263992978609 kcal/mol)

>  <smiles>  (12) 
O=C(Nc1ccc(CCNCC(O)c2cccnc2)cc1)c1cccc2c1OC(=Cc1cccs1)CO2

>  <score_type>  (12) 
oracle

>  <origin>  (12) 
adg

>  <m_score__min__energy>  (12) 
-10.5

>  <m_primary>  (12) 
energy

$$$$
12:0
     RDKit          3D

 38 40  0  0  0  0  0  0  0  0999 V2000
   63.8700   31.9120   47.1340 N   0  0  0  0  0  0  0  0  0  0  0  0
   63.0340   33.4220   47.2230 S   0  0  0  0  0  0  0  0  0  0  0  0
   63.3180   34.2250   45.9850 O   0  0  0  0  0  0  0  0  0  0  0  0
   63.5200   34.1940   48.4180 O   0  0  0  0  0  0  0  0  0  0  0  0
   61.3030   33.1310   47.3650 C   0  0  0  0  0  0  0  0  0  0  0  0
   60.3880   34.1020   46.9360 C   0  0  0  0  0  0  0  0  0  0  0  0
   59.0140   33.8670   47.0450 C   0  0  0  0  0  0  0  0  0  0  0  0
   58.5480   32.6620   47.5750 C   0  0  0  0  0  0  0  0  0  0  0  0
   59.4550   31.6730   47.9860 C   0  0  0  0  0  0  0  0  0  0  0  0
   58.9570   30.3900   48.5840 C   0  0  0  0  0  0  0  0  0  0  0  0
   59.8700   29.3080   48.2350 N   0  0  0  0  0  0  0  0  0  0  0  0
   59.6950   28.4440   47.1080 C   0  0  0  0  0  0  0  0  0  0  0  0
   60.6790   27.7780   46.6900 O   0  0  0  0  0  0  0  0  0  0  0  0
   58.3900   28.3120   46.4270 C   0  0  0  0  0  0  0  0  0  0  0  0
   57.5950   27.1920   46.7100 C   0  0  0  0  0  0  0  0  0  0  0  0
   56.3460   27.0530   46.1040 C   0  0  0  0  0  0  0  0  0  0  0  0
   55.6300   26.0480   46.3560 O   0  0  0  0  0  0  0  0  0  0  0  0
   55.8970   28.0000   45.2410 N   0  0  0  0  0  0  0  0  0  0  0  0
   56.6330   29.1030   44.9390 C   0  0  0  0  0  0  0  0  0  0  0  0
   56.1240   30.0480   44.0410 C   0  0  0  0  0  0  0  0  0  0  0  0
   56.8760   31.1780   43.7130 C   0  0  0  0  0  0  0  0  0  0  0  0
   58.1390   31.3690   44.2760 C   0  0  0  0  0  0  0  0  0  0  0  0
   58.6570   30.4330   45.1760 C   0  0  0  0  0  0  0  0  0  0  0  0
   57.9080   29.2900   45.5260 C   0  0  0  0  0  0  0  0  0  0  0  0
   60.8350   31.9180   47.8890 C   0  0  0  0  0  0  0  0  0  0  0  0
   64.5170   31.9690   46.3170 H   0  0  0  0  0  0  0  0  0  0  0  0
   64.4700   31.8440   47.9870 H   0  0  0  0  0  0  0  0  0  0  0  0
   60.7512   35.0502   46.5130 H   0  0  0  0  0  0  0  0  0  0  0  0
   58.2983   34.6333   46.7124 H   0  0  0  0  0  0  0  0  0  0  0  0
   57.4662   32.4873   47.6707 H   0  0  0  0  0  0  0  0  0  0  0  0
   58.9072   30.4899   49.6783 H   0  0  0  0  0  0  0  0  0  0  0  0
   57.9540   30.1661   48.1917 H   0  0  0  0  0  0  0  0  0  0  0  0
   57.9559   26.4235   47.4094 H   0  0  0  0  0  0  0  0  0  0  0  0
   55.1303   29.9005   43.5930 H   0  0  0  0  0  0  0  0  0  0  0  0
   56.4718   31.9200   43.0087 H   0  0  0  0  0  0  0  0  0  0  0  0
   58.7286   32.2589   44.0106 H   0  0  0  0  0  0  0  0  0  0  0  0
   59.6541   30.5887   45.6136 H   0  0  0  0  0  0  0  0  0  0  0  0
   61.5516   31.1544   48.2258 H   0  0  0  0  0  0  0  0  0  0  0  0
  1  2  1  0
  2  3  2  0
  2  4  2  0
  2  5  1  0
  5  6  2  0
  6  7  1  0
  7  8  2  0
  8  9  1  0
  9 10  1  0
 10 11  1  0
 11 12  1  0
 12 13  2  0
 12 14  1  0
 14 15  2  0
 15 16  1  0
 16 17  2  0
 16 18  1  0
 18 19  1  0
 19 20  2  0
 20 21  1  0
 21 22  2  0
 22 23  1  0
 23 24  2  0
  9 25  2  0
 25  5  1  0
 24 14  1  0
 24 19  1  0
  1 26  1  0
  1 27  1  0
  6 28  1  0
  7 29  1  0
  8 30  1  0
 10 31  1  0
 10 32  1  0
 15 33  1  0
 20 34  1  0
 21 35  1  0
 22 36  1  0
 23 37  1  0
 25 38  1  0
M  CHG  2  11  -1  18  -1
M  END
>  <UniqueID>  (13) 
12

>  <SMILES>  (13) 
NS(=O)(=O)c1cccc(C[N-]C(=O)c2cc(=O)[n-]c3ccccc23)c1

>  <Energy>  (13) 
48.27716665643652

>  <Genealogy>  (13) 
NS(=O)(=O)c1cccc(C[N-]C(=O)c2cc(=O)[n-]c3ccccc23)c1 (protonated)
NS(=O)(=O)c1cccc(C[N-]C(=O)c2cc(=O)[n-]c3ccccc23)c1 (3D coordinates assigned)
NS(=O)(=O)c1cccc(C[N-]C(=O)c2cc(=O)[n-]c3ccccc23)c1 (optimized conformer: 48.27716665643652 kcal/mol)

>  <smiles>  (13) 
NS(=O)(=O)c1cccc(CNC(=O)c2cc(=O)[nH]c3ccccc23)c1

>  <score_type>  (13) 
oracle

>  <origin>  (13) 
adg

>  <m_score__min__energy>  (13) 
-11.83

>  <m_primary>  (13) 
energy

$$$$
13:0
     RDKit          3D

 39 41  0  0  0  0  0  0  0  0999 V2000
   57.3380   23.2070   47.7300 O   0  0  0  0  0  0  0  0  0  0  0  0
   57.1070   24.2530   47.0710 C   0  0  0  0  0  0  0  0  0  0  0  0
   55.8850   24.8220   46.9970 N   0  0  0  0  0  0  0  0  0  0  0  0
   55.9160   25.9410   46.2270 C   0  0  0  0  0  0  0  0  0  0  0  0
   54.7740   26.6990   45.9960 O   0  0  0  0  0  0  0  0  0  0  0  0
   57.1640   26.2650   45.6950 C   0  0  0  0  0  0  0  0  0  0  0  0
   57.4810   27.4240   44.8030 C   0  0  0  0  0  0  0  0  0  0  0  0
   58.2040   28.4950   45.5720 C   0  0  0  0  0  0  0  0  0  0  0  0
   59.4900   28.2550   46.0840 C   0  0  0  0  0  0  0  0  0  0  0  0
   60.1750   29.2640   46.7650 C   0  0  0  0  0  0  0  0  0  0  0  0
   59.5940   30.5250   46.9190 C   0  0  0  0  0  0  0  0  0  0  0  0
   58.3260   30.7850   46.3820 C   0  0  0  0  0  0  0  0  0  0  0  0
   57.7340   32.0820   46.4800 N   0  0  0  0  0  0  0  0  0  0  0  0
   57.9780   33.3150   45.2870 S   0  0  0  0  0  0  0  0  0  0  0  0
   56.7020   34.0600   45.0060 O   0  0  0  0  0  0  0  0  0  0  0  0
   58.4310   32.6590   44.0140 O   0  0  0  0  0  0  0  0  0  0  0  0
   59.2280   34.3960   45.8190 N   0  0  0  0  0  0  0  0  0  0  0  0
   60.2470   34.0920   46.7810 C   0  0  0  0  0  0  0  0  0  0  0  0
   61.5460   33.8370   46.3260 C   0  0  0  0  0  0  0  0  0  0  0  0
   62.5700   33.5320   47.2280 C   0  0  0  0  0  0  0  0  0  0  0  0
   62.3060   33.4690   48.6070 C   0  0  0  0  0  0  0  0  0  0  0  0
   63.4060   33.2020   49.6040 C   0  0  0  0  0  0  0  0  0  0  0  0
   63.2190   31.9600   50.1880 F   0  0  0  0  0  0  0  0  0  0  0  0
   63.3730   34.1720   50.5890 F   0  0  0  0  0  0  0  0  0  0  0  0
   64.6510   33.2190   48.9990 F   0  0  0  0  0  0  0  0  0  0  0  0
   61.0100   33.7540   49.0650 C   0  0  0  0  0  0  0  0  0  0  0  0
   59.9900   34.0680   48.1620 C   0  0  0  0  0  0  0  0  0  0  0  0
   57.6250   29.7640   45.7320 C   0  0  0  0  0  0  0  0  0  0  0  0
   58.2690   25.0920   46.1910 S   0  0  0  0  0  0  0  0  0  0  0  0
   58.1177   27.0802   43.9745 H   0  0  0  0  0  0  0  0  0  0  0  0
   56.5412   27.8395   44.4103 H   0  0  0  0  0  0  0  0  0  0  0  0
   59.9590   27.2693   45.9482 H   0  0  0  0  0  0  0  0  0  0  0  0
   61.1738   29.0653   47.1808 H   0  0  0  0  0  0  0  0  0  0  0  0
   60.1327   31.3151   47.4626 H   0  0  0  0  0  0  0  0  0  0  0  0
   61.7633   33.8769   45.2484 H   0  0  0  0  0  0  0  0  0  0  0  0
   63.5874   33.3404   46.8564 H   0  0  0  0  0  0  0  0  0  0  0  0
   60.7952   33.7301   50.1436 H   0  0  0  0  0  0  0  0  0  0  0  0
   58.9808   34.2975   48.5347 H   0  0  0  0  0  0  0  0  0  0  0  0
   56.6139   29.9564   45.3438 H   0  0  0  0  0  0  0  0  0  0  0  0
  1  2  2  0
  2  3  1  0
  3  4  1  0
  4  5  1  0
  4  6  2  0
  6  7  1  0
  7  8  1  0
  8  9  2  0
  9 10  1  0
 10 11  2  0
 11 12  1  0
 12 13  1  0
 13 14  1  0
 14 15  2  0
 14 16  2  0
 14 17  1  0
 17 18  1  0
 18 19  2  0
 19 20  1  0
 20 21  2  0
 21 22  1  0
 22 23  1  0
 22 24  1  0
 22 25  1  0
 21 26  1  0
 26 27  2  0
 12 28  2  0
  6 29  1  0
 29  2  1  0
 28  8  1  0
 27 18  1  0
  7 30  1  0
  7 31  1  0
  9 32  1  0
 10 33  1  0
 11 34  1  0
 19 35  1  0
 20 36  1  0
 26 37  1  0
 27 38  1  0
 28 39  1  0
M  CHG  4   3  -1   5  -1  13  -1  17  -1
M  END
>  <UniqueID>  (14) 
13

>  <SMILES>  (14) 
O=c1[n-]c([O-])c(Cc2cccc([N-]S(=O)(=O)[N-]c3ccc(C(F)(F)F)cc3)c2)s1

>  <Energy>  (14) 
77.37998129009816

>  <Genealogy>  (14) 
O=c1[n-]c([O-])c(Cc2cccc([N-]S(=O)(=O)[N-]c3ccc(C(F)(F)F)cc3)c2)s1 (protonated)
O=c1[n-]c([O-])c(Cc2cccc([N-]S(=O)(=O)[N-]c3ccc(C(F)(F)F)cc3)c2)s1 (3D coordinates assigned)
O=c1[n-]c([O-])c(Cc2cccc([N-]S(=O)(=O)[N-]c3ccc(C(F)(F)F)cc3)c2)s1 (optimized conformer: 77.37998129009816 kcal/mol)

>  <smiles>  (14) 
O=c1[nH]c(O)c(Cc2cccc(NS(=O)(=O)Nc3ccc(C(F)(F)F)cc3)c2)s1

>  <score_type>  (14) 
oracle

>  <origin>  (14) 
adg

>  <m_score__min__energy>  (14) 
-16.41

>  <m_primary>  (14) 
energy

$$$$
14:0
     RDKit          3D

 40 42  0  0  0  0  0  0  0  0999 V2000
   59.6220   27.3320   48.6110 C   0  0  0  0  0  0  0  0  0  0  0  0
   59.6290   28.1130   47.3560 N   0  0  1  0  0  0  0  0  0  0  0  0
   60.5080   27.4900   46.3430 C   0  0  0  0  0  0  0  0  0  0  0  0
   59.9390   26.1790   45.7750 C   0  0  0  0  0  0  0  0  0  0  0  0
   58.4050   26.1650   45.6900 C   0  0  0  0  0  0  0  0  0  0  0  0
   57.7890   27.5810   45.6170 C   0  0  1  0  0  0  0  0  0  0  0  0
   58.3220   28.4770   44.0840 S   0  0  0  0  0  0  0  0  0  0  0  0
   58.2040   30.1700   44.6860 C   0  0  0  0  0  0  0  0  0  0  0  0
   57.1080   30.9650   44.3290 C   0  0  0  0  0  0  0  0  0  0  0  0
   57.0190   32.2870   44.7720 C   0  0  0  0  0  0  0  0  0  0  0  0
   58.0390   32.8340   45.5630 C   0  0  0  0  0  0  0  0  0  0  0  0
   57.9620   34.1600   46.0170 C   0  0  0  0  0  0  0  0  0  0  0  0
   58.9890   34.6950   46.7990 C   0  0  0  0  0  0  0  0  0  0  0  0
   60.0990   33.9150   47.1320 C   0  0  0  0  0  0  0  0  0  0  0  0
   60.1900   32.5940   46.6860 C   0  0  0  0  0  0  0  0  0  0  0  0
   59.1640   32.0430   45.9010 C   0  0  0  0  0  0  0  0  0  0  0  0
   59.2430   30.7180   45.4480 C   0  0  0  0  0  0  0  0  0  0  0  0
   56.2720   27.5190   45.6210 C   0  0  0  0  0  0  0  0  0  0  0  0
   55.6610   26.4850   46.0090 O   0  0  0  0  0  0  0  0  0  0  0  0
   55.5350   28.6000   45.1540 O   0  0  0  0  0  0  0  0  0  0  0  0
   58.2470   28.4000   46.8680 C   0  0  0  0  0  0  0  0  0  0  0  0
   59.6282   28.0187   49.4703 H   0  0  0  0  0  0  0  0  0  0  0  0
   58.7182   26.7061   48.6483 H   0  0  0  0  0  0  0  0  0  0  0  0
   60.5144   26.6900   48.6483 H   0  0  0  0  0  0  0  0  0  0  0  0
   60.0680   29.0330   47.5980 H   0  0  0  0  0  0  0  0  0  0  0  0
   60.6453   28.2002   45.5143 H   0  0  0  0  0  0  0  0  0  0  0  0
   61.4593   27.2470   46.8390 H   0  0  0  0  0  0  0  0  0  0  0  0
   60.3455   26.0320   44.7635 H   0  0  0  0  0  0  0  0  0  0  0  0
   60.2332   25.3727   46.4630 H   0  0  0  0  0  0  0  0  0  0  0  0
   58.1093   25.6077   44.7889 H   0  0  0  0  0  0  0  0  0  0  0  0
   58.0298   25.6909   46.6089 H   0  0  0  0  0  0  0  0  0  0  0  0
   56.3121   30.5460   43.6958 H   0  0  0  0  0  0  0  0  0  0  0  0
   56.1470   32.8998   44.4996 H   0  0  0  0  0  0  0  0  0  0  0  0
   57.0911   34.7794   45.7565 H   0  0  0  0  0  0  0  0  0  0  0  0
   58.9232   35.7342   47.1537 H   0  0  0  0  0  0  0  0  0  0  0  0
   60.9043   34.3423   47.7475 H   0  0  0  0  0  0  0  0  0  0  0  0
   61.0668   31.9845   46.9502 H   0  0  0  0  0  0  0  0  0  0  0  0
   60.1245   30.1070   45.6923 H   0  0  0  0  0  0  0  0  0  0  0  0
   58.1937   29.4683   46.6113 H   0  0  0  0  0  0  0  0  0  0  0  0
   57.5719   28.1049   47.6848 H   0  0  0  0  0  0  0  0  0  0  0  0
  1  2  1  0
  2  3  1  0
  3  4  1  0
  4  5  1  0
  5  6  1  0
  6  7  1  6
  7  8  1  0
  8  9  2  0
  9 10  1  0
 10 11  2  0
 11 12  1  0
 12 13  2  0
 13 14  1  0
 14 15  2  0
 15 16  1  0
 16 17  2  0
  6 18  1  0
 18 19  2  0
 18 20  1  0
  6 21  1  0
 21  2  1  0
 17  8  1  0
 16 11  1  0
  1 22  1  0
  1 23  1  0
  1 24  1  0
  2 25  1  1
  3 26  1  0
  3 27  1  0
  4 28  1  0
  4 29  1  0
  5 30  1  0
  5 31  1  0
  9 32  1  0
 10 33  1  0
 12 34  1  0
 13 35  1  0
 14 36  1  0
 15 37  1  0
 17 38  1  0
 21 39  1  0
 21 40  1  0
M  CHG  2   2   1  20  -1
M  END
>  <UniqueID>  (15) 
14

>  <SMILES>  (15) 
C[N@H+]1CCC[C@@](Sc2ccc3ccccc3c2)(C(=O)[O-])C1

>  <Energy>  (15) 
55.38456734843808

>  <Genealogy>  (15) 
C[NH+]1CCCC(Sc2ccc3ccccc3c2)(C(=O)[O-])C1 (protonated)
C[N@H+]1CCC[C@@](Sc2ccc3ccccc3c2)(C(=O)[O-])C1 (chirality)
C[N@H+]1CCC[C@@](Sc2ccc3ccccc3c2)(C(=O)[O-])C1 (3D coordinates assigned)
C[N@H+]1CCC[C@@](Sc2ccc3ccccc3c2)(C(=O)[O-])C1 (nonaromatic ring conformer: 55.38456734843808 kcal/mol)

>  <smiles>  (15) 
CN1CCCC(Sc2ccc3ccccc3c2)(C(=O)O)C1

>  <score_type>  (15) 
oracle

>  <origin>  (15) 
adg

>  <m_score__min__energy>  (15) 
-8.9600000000000009

>  <m_primary>  (15) 
energy

$$$$
16:0
     RDKit          3D

 63 65  0  0  0  0  0  0  0  0999 V2000
   60.8200   34.2070   48.8870 C   0  0  0  0  0  0  0  0  0  0  0  0
   60.4340   32.7750   48.6570 C   0  0  0  0  0  0  0  0  0  0  0  0
   60.9730   31.6740   49.3050 C   0  0  0  0  0  0  0  0  0  0  0  0
   61.9580   31.7020   50.4430 C   0  0  0  0  0  0  0  0  0  0  0  0
   63.3130   31.4090   49.9740 N   0  0  0  0  0  0  0  0  0  0  0  0
   64.0460   32.8020   49.2290 S   0  0  0  0  0  0  0  0  0  0  0  0
   63.6850   32.8480   47.4840 C   0  0  0  0  0  0  0  0  0  0  0  0
   63.5540   34.0640   49.8790 O   0  0  0  0  0  0  0  0  0  0  0  0
   65.5360   32.7120   49.4070 O   0  0  0  0  0  0  0  0  0  0  0  0
   60.4290   30.5510   48.6970 C   0  0  0  0  0  0  0  0  0  0  0  0
   60.7390   29.1340   49.0980 C   0  0  0  0  0  0  0  0  0  0  0  0
   59.6060   30.9220   47.6840 N   0  0  0  0  0  0  0  0  0  0  0  0
   58.8000   30.0290   46.8370 C   0  0  0  0  0  0  0  0  0  0  0  0
   59.0080   30.3390   45.3500 C   0  0  0  0  0  0  0  0  0  0  0  0
   57.9850   29.7030   44.5260 N   0  0  0  0  0  0  0  0  0  0  0  0
   56.5910   29.7150   44.8390 C   0  0  0  0  0  0  0  0  0  0  0  0
   55.9500   30.8010   44.8390 O   0  0  0  0  0  0  0  0  0  0  0  0
   55.9510   28.4870   45.2050 N   0  0  0  0  0  0  0  0  0  0  0  0
   56.5810   27.3100   45.7360 C   0  0  0  0  0  0  0  0  0  0  0  0
   57.9690   27.2460   45.9510 C   0  0  0  0  0  0  0  0  0  0  0  0
   58.5400   26.1040   46.5130 C   0  0  0  0  0  0  0  0  0  0  0  0
   57.7390   25.0190   46.8660 C   0  0  0  0  0  0  0  0  0  0  0  0
   56.3560   25.0570   46.6570 C   0  0  0  0  0  0  0  0  0  0  0  0
   55.5880   23.9120   47.0560 N   0  0  0  0  0  0  0  0  0  0  0  0
   56.1630   22.5490   47.9650 S   0  0  0  0  0  0  0  0  0  0  0  0
   54.7940   21.6200   48.6230 C   0  0  0  0  0  0  0  0  0  0  0  0
   57.0010   23.0530   49.1040 O   0  0  0  0  0  0  0  0  0  0  0  0
   57.0200   21.6690   47.0980 O   0  0  0  0  0  0  0  0  0  0  0  0
   55.7720   26.2250   46.1180 C   0  0  0  0  0  0  0  0  0  0  0  0
   54.3950   26.3360   45.9850 O   0  0  0  0  0  0  0  0  0  0  0  0
   59.6110   32.2800   47.6550 C   0  0  0  0  0  0  0  0  0  0  0  0
   58.8670   33.1070   46.6830 C   0  0  0  0  0  0  0  0  0  0  0  0
   59.5550   33.9590   45.8050 C   0  0  0  0  0  0  0  0  0  0  0  0
   58.8490   34.7360   44.8820 C   0  0  0  0  0  0  0  0  0  0  0  0
   57.4530   34.6800   44.8420 C   0  0  0  0  0  0  0  0  0  0  0  0
   56.7620   33.8510   45.7290 C   0  0  0  0  0  0  0  0  0  0  0  0
   57.4650   33.0660   46.6470 C   0  0  0  0  0  0  0  0  0  0  0  0
   60.8729   34.4034   49.9680 H   0  0  0  0  0  0  0  0  0  0  0  0
   61.8022   34.3998   48.4308 H   0  0  0  0  0  0  0  0  0  0  0  0
   60.0678   34.8673   48.4308 H   0  0  0  0  0  0  0  0  0  0  0  0
   61.9456   32.7004   50.9045 H   0  0  0  0  0  0  0  0  0  0  0  0
   61.6679   30.9341   51.1753 H   0  0  0  0  0  0  0  0  0  0  0  0
   62.6036   32.9858   47.3368 H   0  0  0  0  0  0  0  0  0  0  0  0
   64.2278   33.6842   47.0192 H   0  0  0  0  0  0  0  0  0  0  0  0
   64.0008   31.9024   47.0192 H   0  0  0  0  0  0  0  0  0  0  0  0
   60.7555   29.0587   50.1953 H   0  0  0  0  0  0  0  0  0  0  0  0
   59.9667   28.4618   48.6959 H   0  0  0  0  0  0  0  0  0  0  0  0
   61.7215   28.8457   48.6959 H   0  0  0  0  0  0  0  0  0  0  0  0
   59.0951   28.9873   47.0311 H   0  0  0  0  0  0  0  0  0  0  0  0
   57.7382   30.1828   47.0799 H   0  0  0  0  0  0  0  0  0  0  0  0
   58.9615   31.4279   45.2014 H   0  0  0  0  0  0  0  0  0  0  0  0
   59.9900   29.9458   45.0481 H   0  0  0  0  0  0  0  0  0  0  0  0
   58.6065   28.0989   45.6752 H   0  0  0  0  0  0  0  0  0  0  0  0
   59.6266   26.0595   46.6783 H   0  0  0  0  0  0  0  0  0  0  0  0
   58.1983   24.1250   47.3129 H   0  0  0  0  0  0  0  0  0  0  0  0
   54.8292   21.6439   49.7222 H   0  0  0  0  0  0  0  0  0  0  0  0
   53.8492   22.0643   48.2767 H   0  0  0  0  0  0  0  0  0  0  0  0
   54.8578   20.5779   48.2767 H   0  0  0  0  0  0  0  0  0  0  0  0
   60.6529   34.0154   45.8433 H   0  0  0  0  0  0  0  0  0  0  0  0
   59.3927   35.3922   44.1864 H   0  0  0  0  0  0  0  0  0  0  0  0
   56.8986   35.2885   44.1123 H   0  0  0  0  0  0  0  0  0  0  0  0
   55.6628   33.8160   45.7049 H   0  0  0  0  0  0  0  0  0  0  0  0
   56.9175   32.4140   47.3435 H   0  0  0  0  0  0  0  0  0  0  0  0
  1  2  1  0
  2  3  1  0
  3  4  1  0
  4  5  1  0
  5  6  1  0
  6  7  1  0
  6  8  2  0
  6  9  2  0
  3 10  2  0
 10 11  1  0
 10 12  1  0
 12 13  1  0
 13 14  1  0
 14 15  1  0
 15 16  1  0
 16 17  2  0
 16 18  1  0
 18 19  1  0
 19 20  2  0
 20 21  1  0
 21 22  2  0
 22 23  1  0
 23 24  1  0
 24 25  1  0
 25 26  1  0
 25 27  2  0
 25 28  2  0
 23 29  2  0
 29 30  1  0
 12 31  1  0
 31 32  1  0
 32 33  2  0
 33 34  1  0
 34 35  2  0
 35 36  1  0
 36 37  2  0
 31  2  2  0
 37 32  1  0
 29 19  1  0
  1 38  1  0
  1 39  1  0
  1 40  1  0
  4 41  1  0
  4 42  1  0
  7 43  1  0
  7 44  1  0
  7 45  1  0
 11 46  1  0
 11 47  1  0
 11 48  1  0
 13 49  1  0
 13 50  1  0
 14 51  1  0
 14 52  1  0
 20 53  1  0
 21 54  1  0
 22 55  1  0
 26 56  1  0
 26 57  1  0
 26 58  1  0
 33 59  1  0
 34 60  1  0
 35 61  1  0
 36 62  1  0
 37 63  1  0
M  CHG  5   5  -1  15  -1  18  -1  24  -1  30  -1
M  END
>  <UniqueID>  (16) 
15

>  <SMILES>  (16) 
Cc1c(C[N-]S(C)(=O)=O)c(C)n(CC[N-]C(=O)[N-]c2cccc([N-]S(C)(=O)=O)c2[O-])c1-c1ccccc1

>  <Energy>  (16) 
90.17484427997536

>  <Genealogy>  (16) 
Cc1c(C[N-]S(C)(=O)=O)c(C)n(CC[N-]C(=O)[N-]c2cccc([N-]S(C)(=O)=O)c2[O-])c1-c1ccccc1 (protonated)
Cc1c(C[N-]S(C)(=O)=O)c(C)n(CC[N-]C(=O)[N-]c2cccc([N-]S(C)(=O)=O)c2[O-])c1-c1ccccc1 (3D coordinates assigned)
Cc1c(C[N-]S(C)(=O)=O)c(C)n(CC[N-]C(=O)[N-]c2cccc([N-]S(C)(=O)=O)c2[O-])c1-c1ccccc1 (optimized conformer: 90.17484427997536 kcal/mol)

>  <smiles>  (16) 
Cc1c(CNS(C)(=O)=O)c(C)n(CCNC(=O)Nc2cccc(NS(C)(=O)=O)c2O)c1-c1ccccc1

>  <score_type>  (16) 
oracle

>  <origin>  (16) 
adg

>  <m_score__min__energy>  (16) 
-20.34

>  <m_primary>  (16) 
energy

$$$$
17:0
     RDKit          3D

 40 41  0  0  0  0  0  0  0  0999 V2000
   57.6530   21.8070   44.2710 C   0  0  0  0  0  0  0  0  0  0  0  0
   56.5010   22.8120   44.3900 C   0  0  0  0  0  0  0  0  0  0  0  0
   56.6070   23.8890   43.3040 C   0  0  0  0  0  0  0  0  0  0  0  0
   56.3830   23.4130   45.8120 C   0  0  0  0  0  0  0  0  0  0  0  0
   56.9130   24.8310   45.9360 C   0  0  0  0  0  0  0  0  0  0  0  0
   56.0370   25.9330   45.9710 C   0  0  0  0  0  0  0  0  0  0  0  0
   54.6610   25.7510   45.8690 O   0  0  0  0  0  0  0  0  0  0  0  0
   56.5350   27.1900   46.0990 N   0  0  0  0  0  0  0  0  0  0  0  0
   57.8700   27.4140   46.1830 C   0  0  0  0  0  0  0  0  0  0  0  0
   58.4820   29.0870   46.3330 S   0  0  0  0  0  0  0  0  0  0  0  0
   57.9230   29.5770   44.6660 C   0  0  0  0  0  0  0  0  0  0  0  0
   56.5450   30.1660   44.7430 C   0  0  0  0  0  0  0  0  0  0  0  0
   55.5580   29.3920   44.8490 O   0  0  0  0  0  0  0  0  0  0  0  0
   56.3210   31.5830   44.7810 N   0  0  0  0  0  0  0  0  0  0  0  0
   57.2770   32.5900   45.1420 C   0  0  0  0  0  0  0  0  0  0  0  0
   57.4280   33.0170   46.4730 C   0  0  0  0  0  0  0  0  0  0  0  0
   58.3750   33.9910   46.7990 C   0  0  0  0  0  0  0  0  0  0  0  0
   59.1970   34.5280   45.8040 C   0  0  0  0  0  0  0  0  0  0  0  0
   59.0770   34.0830   44.4840 C   0  0  0  0  0  0  0  0  0  0  0  0
   58.1270   33.1110   44.1540 C   0  0  0  0  0  0  0  0  0  0  0  0
   58.0210   32.6860   42.8700 F   0  0  0  0  0  0  0  0  0  0  0  0
   58.7370   26.3730   46.1320 N   0  0  0  0  0  0  0  0  0  0  0  0
   58.2950   25.0950   46.0080 C   0  0  0  0  0  0  0  0  0  0  0  0
   59.1350   24.1570   45.9520 O   0  0  0  0  0  0  0  0  0  0  0  0
   57.9891   21.5138   45.2765 H   0  0  0  0  0  0  0  0  0  0  0  0
   57.3077   20.9163   43.7256 H   0  0  0  0  0  0  0  0  0  0  0  0
   58.4886   22.2699   43.7256 H   0  0  0  0  0  0  0  0  0  0  0  0
   55.5625   22.2631   44.2229 H   0  0  0  0  0  0  0  0  0  0  0  0
   56.7043   24.8777   43.7763 H   0  0  0  0  0  0  0  0  0  0  0  0
   57.4902   23.6931   42.6782 H   0  0  0  0  0  0  0  0  0  0  0  0
   55.7025   23.8690   42.6782 H   0  0  0  0  0  0  0  0  0  0  0  0
   55.3208   23.4157   46.0980 H   0  0  0  0  0  0  0  0  0  0  0  0
   57.0011   22.7863   46.4717 H   0  0  0  0  0  0  0  0  0  0  0  0
   54.0180   26.3420   46.3830 H   0  0  0  0  0  0  0  0  0  0  0  0
   58.6168   30.3244   44.2535 H   0  0  0  0  0  0  0  0  0  0  0  0
   57.9024   28.6903   44.0153 H   0  0  0  0  0  0  0  0  0  0  0  0
   56.7971   32.5818   47.2620 H   0  0  0  0  0  0  0  0  0  0  0  0
   58.4738   34.3354   47.8390 H   0  0  0  0  0  0  0  0  0  0  0  0
   59.9377   35.3001   46.0594 H   0  0  0  0  0  0  0  0  0  0  0  0
   59.7312   34.4983   43.7033 H   0  0  0  0  0  0  0  0  0  0  0  0
  1  2  1  0
  2  3  1  0
  2  4  1  0
  4  5  1  0
  5  6  2  0
  6  7  1  0
  6  8  1  0
  8  9  1  0
  9 10  1  0
 10 11  1  0
 11 12  1  0
 12 13  2  0
 12 14  1  0
 14 15  1  0
 15 16  2  0
 16 17  1  0
 17 18  2  0
 18 19  1  0
 19 20  2  0
 20 21  1  0
  9 22  2  0
 22 23  1  0
 23 24  2  0
 23  5  1  0
 20 15  1  0
  1 25  1  0
  1 26  1  0
  1 27  1  0
  2 28  1  0
  3 29  1  0
  3 30  1  0
  3 31  1  0
  4 32  1  0
  4 33  1  0
  7 34  1  0
 11 35  1  0
 11 36  1  0
 16 37  1  0
 17 38  1  0
 18 39  1  0
 19 40  1  0
M  CHG  2   8  -1  14  -1
M  END
>  <UniqueID>  (17) 
16

>  <SMILES>  (17) 
CC(C)Cc1c(O)[n-]c(SCC(=O)[N-]c2ccccc2F)nc1=O

>  <Energy>  (17) 
37.36003538799626

>  <Genealogy>  (17) 
CC(C)Cc1c(O)[n-]c(SCC(=O)[N-]c2ccccc2F)nc1=O (protonated)
CC(C)Cc1c(O)[n-]c(SCC(=O)[N-]c2ccccc2F)nc1=O (3D coordinates assigned)
CC(C)Cc1c(O)[n-]c(SCC(=O)[N-]c2ccccc2F)nc1=O (optimized conformer: 37.36003538799626 kcal/mol)

>  <smiles>  (17) 
CC(C)Cc1c(O)[nH]c(SCC(=O)Nc2ccccc2F)nc1=O

>  <score_type>  (17) 
oracle

>  <origin>  (17) 
adg

>  <m_score__min__energy>  (17) 
-12.08

>  <m_primary>  (17) 
energy

$$$$
18:0
     RDKit          3D

 44 47  0  0  0  0  0  0  0  0999 V2000
   59.3010   29.3010   49.4330 O   0  0  0  0  0  0  0  0  0  0  0  0
   59.1570   29.7340   48.2580 C   0  0  0  0  0  0  0  0  0  0  0  0
   59.2500   31.1890   48.0040 C   0  0  0  0  0  0  0  0  0  0  0  0
   59.3860   32.0880   49.0790 C   0  0  0  0  0  0  0  0  0  0  0  0
   59.4950   33.4630   48.8440 C   0  0  0  0  0  0  0  0  0  0  0  0
   59.4800   33.9480   47.5350 C   0  0  0  0  0  0  0  0  0  0  0  0
   59.3310   33.0630   46.4590 C   0  0  0  0  0  0  0  0  0  0  0  0
   59.2370   31.6880   46.6900 C   0  0  0  0  0  0  0  0  0  0  0  0
   59.2830   33.5770   45.1600 O   0  0  0  0  0  0  0  0  0  0  0  0
   59.0990   34.9750   44.9240 C   0  0  0  0  0  0  0  0  0  0  0  0
   59.8850   35.7950   45.9560 C   0  0  0  0  0  0  0  0  0  0  0  0
   59.6170   35.3160   47.2770 O   0  0  0  0  0  0  0  0  0  0  0  0
   58.9010   28.8050   47.1910 N   0  0  0  0  0  0  0  0  0  0  0  0
   59.6540   27.5480   47.1180 C   0  0  0  0  0  0  0  0  0  0  0  0
   58.6840   26.3640   47.0630 C   0  0  0  0  0  0  0  0  0  0  0  0
   57.6290   26.5820   46.0600 N   0  0  0  0  0  0  0  0  0  0  0  0
   56.8370   25.4640   45.6200 C   0  0  0  0  0  0  0  0  0  0  0  0
   57.4680   24.2860   45.1840 C   0  0  0  0  0  0  0  0  0  0  0  0
   56.7080   23.1900   44.7660 C   0  0  0  0  0  0  0  0  0  0  0  0
   55.3140   23.2600   44.7760 C   0  0  0  0  0  0  0  0  0  0  0  0
   54.6760   24.4280   45.2000 C   0  0  0  0  0  0  0  0  0  0  0  0
   55.4300   25.5310   45.6170 C   0  0  0  0  0  0  0  0  0  0  0  0
   54.7740   26.6950   46.0040 O   0  0  0  0  0  0  0  0  0  0  0  0
   57.5510   27.8550   45.3300 C   0  0  0  0  0  0  0  0  0  0  0  0
   57.7600   29.0340   46.2880 C   0  0  0  0  0  0  0  0  0  0  0  0
   59.4067   31.7068   50.1106 H   0  0  0  0  0  0  0  0  0  0  0  0
   59.5923   34.1605   49.6890 H   0  0  0  0  0  0  0  0  0  0  0  0
   59.1526   30.9939   45.8408 H   0  0  0  0  0  0  0  0  0  0  0  0
   59.4570   35.2231   43.9139 H   0  0  0  0  0  0  0  0  0  0  0  0
   58.0295   35.2162   45.0133 H   0  0  0  0  0  0  0  0  0  0  0  0
   60.9614   35.7043   45.7483 H   0  0  0  0  0  0  0  0  0  0  0  0
   59.5761   36.8485   45.8872 H   0  0  0  0  0  0  0  0  0  0  0  0
   60.2800   27.5494   46.2135 H   0  0  0  0  0  0  0  0  0  0  0  0
   60.2911   27.4542   48.0098 H   0  0  0  0  0  0  0  0  0  0  0  0
   59.2440   25.4540   46.8017 H   0  0  0  0  0  0  0  0  0  0  0  0
   58.2085   26.2591   48.0493 H   0  0  0  0  0  0  0  0  0  0  0  0
   58.5663   24.2264   45.1717 H   0  0  0  0  0  0  0  0  0  0  0  0
   57.2093   22.2708   44.4286 H   0  0  0  0  0  0  0  0  0  0  0  0
   54.7177   22.3951   44.4499 H   0  0  0  0  0  0  0  0  0  0  0  0
   53.5773   24.4811   45.2062 H   0  0  0  0  0  0  0  0  0  0  0  0
   58.3302   27.8761   44.5538 H   0  0  0  0  0  0  0  0  0  0  0  0
   56.5560   27.9417   44.8691 H   0  0  0  0  0  0  0  0  0  0  0  0
   57.9485   29.9435   45.6986 H   0  0  0  0  0  0  0  0  0  0  0  0
   56.8533   29.1432   46.9011 H   0  0  0  0  0  0  0  0  0  0  0  0
  1  2  2  0
  2  3  1  0
  3  4  2  0
  4  5  1  0
  5  6  2  0
  6  7  1  0
  7  8  2  0
  7  9  1  0
  9 10  1  0
 10 11  1  0
 11 12  1  0
  2 13  1  0
 13 14  1  0
 14 15  1  0
 15 16  1  0
 16 17  1  0
 17 18  2  0
 18 19  1  0
 19 20  2  0
 20 21  1  0
 21 22  2  0
 22 23  1  0
 16 24  1  0
 24 25  1  0
  8  3  1  0
 25 13  1  0
 12  6  1  0
 22 17  1  0
  4 26  1  0
  5 27  1  0
  8 28  1  0
 10 29  1  0
 10 30  1  0
 11 31  1  0
 11 32  1  0
 14 33  1  0
 14 34  1  0
 15 35  1  0
 15 36  1  0
 18 37  1  0
 19 38  1  0
 20 39  1  0
 21 40  1  0
 24 41  1  0
 24 42  1  0
 25 43  1  0
 25 44  1  0
M  CHG  1  23  -1
M  END
>  <UniqueID>  (18) 
17

>  <SMILES>  (18) 
O=C(c1ccc2c(c1)OCCO2)N1CCN(c2ccccc2[O-])CC1

>  <Energy>  (18) 
58.982170539842315

>  <Genealogy>  (18) 
O=C(c1ccc2c(c1)OCCO2)N1CCN(c2ccccc2[O-])CC1 (protonated)
O=C(c1ccc2c(c1)OCCO2)N1CCN(c2ccccc2[O-])CC1 (3D coordinates assigned)
O=C(c1ccc2c(c1)OCCO2)N1CCN(c2ccccc2[O-])CC1 (nonaromatic ring conformer: 58.982170539842315 kcal/mol)

>  <smiles>  (18) 
O=C(c1ccc2c(c1)OCCO2)N1CCN(c2ccccc2O)CC1

>  <score_type>  (18) 
oracle

>  <origin>  (18) 
adg

>  <m_score__min__energy>  (18) 
-10.73

>  <m_primary>  (18) 
energy

$$$$
19:0
     RDKit          3D

 54 58  0  0  0  0  0  0  0  0999 V2000
   55.8920   30.4810   43.9350 C   0  0  0  0  0  0  0  0  0  0  0  0
   56.3090   29.9320   45.1810 O   0  0  0  0  0  0  0  0  0  0  0  0
   57.2670   28.9160   45.3220 C   0  0  0  0  0  0  0  0  0  0  0  0
   57.0000   27.5780   44.9710 C   0  0  0  0  0  0  0  0  0  0  0  0
   57.9780   26.5820   45.1370 C   0  0  0  0  0  0  0  0  0  0  0  0
   57.6930   25.1740   44.7600 C   0  0  0  0  0  0  0  0  0  0  0  0
   57.2920   24.8540   43.4520 C   0  0  0  0  0  0  0  0  0  0  0  0
   57.0160   23.5320   43.1020 C   0  0  0  0  0  0  0  0  0  0  0  0
   57.1400   22.5130   44.0480 C   0  0  0  0  0  0  0  0  0  0  0  0
   57.5520   22.8040   45.3600 C   0  0  0  0  0  0  0  0  0  0  0  0
   57.6750   21.7110   46.3550 C   0  0  0  0  0  0  0  0  0  0  0  0
   58.1490   20.4140   45.9840 N   0  0  0  0  0  0  0  0  0  0  0  0
   57.3430   21.9180   47.5530 O   0  0  0  0  0  0  0  0  0  0  0  0
   57.8170   24.1410   45.7090 C   0  0  0  0  0  0  0  0  0  0  0  0
   59.2300   26.9370   45.6660 C   0  0  0  0  0  0  0  0  0  0  0  0
   59.5020   28.2610   46.0140 C   0  0  0  0  0  0  0  0  0  0  0  0
   58.5330   29.2540   45.8300 C   0  0  0  0  0  0  0  0  0  0  0  0
   58.8260   30.6050   46.2060 N   0  0  0  0  0  0  0  0  0  0  0  0
   58.8900   31.6450   45.3410 C   0  0  0  0  0  0  0  0  0  0  0  0
   59.2700   32.8050   46.0010 C   0  0  0  0  0  0  0  0  0  0  0  0
   59.4360   32.4370   47.3190 C   0  0  0  0  0  0  0  0  0  0  0  0
   59.8030   33.2090   48.4160 C   0  0  0  0  0  0  0  0  0  0  0  0
   59.8770   32.5810   49.6730 C   0  0  0  0  0  0  0  0  0  0  0  0
   60.3020   33.5030   51.1100 S   0  0  0  0  0  0  0  0  0  0  0  0
   59.2870   34.5910   51.3110 O   0  0  0  0  0  0  0  0  0  0  0  0
   60.3130   32.6220   52.3280 O   0  0  0  0  0  0  0  0  0  0  0  0
   61.8710   34.2130   50.9050 N   0  0  0  0  0  0  0  0  0  0  0  0
   62.6510   33.9290   49.9090 C   0  0  0  0  0  0  0  0  0  0  0  0
   62.4830   34.4060   48.6570 N   0  0  0  0  0  0  0  0  0  0  0  0
   63.4500   33.9490   47.8180 C   0  0  0  0  0  0  0  0  0  0  0  0
   64.3890   33.1060   48.4030 C   0  0  0  0  0  0  0  0  0  0  0  0
   63.9920   32.9280   50.0310 S   0  0  0  0  0  0  0  0  0  0  0  0
   59.5680   31.2070   49.7950 C   0  0  0  0  0  0  0  0  0  0  0  0
   59.1960   30.4450   48.6710 C   0  0  0  0  0  0  0  0  0  0  0  0
   58.7460   28.7620   48.9050 Cl  0  0  0  0  0  0  0  0  0  0  0  0
   59.1550   31.0950   47.4240 C   0  0  0  0  0  0  0  0  0  0  0  0
   55.2357   31.3450   44.1163 H   0  0  0  0  0  0  0  0  0  0  0  0
   56.7743   30.8043   43.3631 H   0  0  0  0  0  0  0  0  0  0  0  0
   55.3438   29.7178   43.3631 H   0  0  0  0  0  0  0  0  0  0  0  0
   56.0147   27.3095   44.5623 H   0  0  0  0  0  0  0  0  0  0  0  0
   57.1951   25.6505   42.6995 H   0  0  0  0  0  0  0  0  0  0  0  0
   56.6994   23.2916   42.0763 H   0  0  0  0  0  0  0  0  0  0  0  0
   56.9136   21.4745   43.7646 H   0  0  0  0  0  0  0  0  0  0  0  0
   58.2860   20.1430   44.9870 H   0  0  0  0  0  0  0  0  0  0  0  0
   58.2820   19.6810   46.7160 H   0  0  0  0  0  0  0  0  0  0  0  0
   58.1252   24.3826   46.7369 H   0  0  0  0  0  0  0  0  0  0  0  0
   60.0017   26.1659   45.8070 H   0  0  0  0  0  0  0  0  0  0  0  0
   60.4832   28.5254   46.4351 H   0  0  0  0  0  0  0  0  0  0  0  0
   58.6712   31.5794   44.2650 H   0  0  0  0  0  0  0  0  0  0  0  0
   59.4092   33.8053   45.5652 H   0  0  0  0  0  0  0  0  0  0  0  0
   60.0289   34.2797   48.3042 H   0  0  0  0  0  0  0  0  0  0  0  0
   63.4872   34.2257   46.7540 H   0  0  0  0  0  0  0  0  0  0  0  0
   65.2426   32.6369   47.8917 H   0  0  0  0  0  0  0  0  0  0  0  0
   59.6189   30.7259   50.7829 H   0  0  0  0  0  0  0  0  0  0  0  0
  1  2  1  0
  2  3  1  0
  3  4  2  0
  4  5  1  0
  5  6  1  0
  6  7  2  0
  7  8  1  0
  8  9  2  0
  9 10  1  0
 10 11  1  0
 11 12  1  0
 11 13  2  0
 10 14  2  0
  5 15  2  0
 15 16  1  0
 16 17  2  0
 17 18  1  0
 18 19  1  0
 19 20  2  0
 20 21  1  0
 21 22  2  0
 22 23  1  0
 23 24  1  0
 24 25  2  0
 24 26  2  0
 24 27  1  0
 27 28  2  3
 28 29  1  0
 29 30  1  0
 30 31  2  0
 31 32  1  0
 23 33  2  0
 33 34  1  0
 34 35  1  0
 34 36  2  0
 17  3  1  0
 36 18  1  0
 14  6  1  0
 36 21  1  0
 32 28  1  0
  1 37  1  0
  1 38  1  0
  1 39  1  0
  4 40  1  0
  7 41  1  0
  8 42  1  0
  9 43  1  0
 12 44  1  0
 12 45  1  0
 14 46  1  0
 15 47  1  0
 16 48  1  0
 19 49  1  0
 20 50  1  0
 22 51  1  0
 30 52  1  0
 31 53  1  0
 33 54  1  0
M  CHG  1  29  -1
M  END
>  <UniqueID>  (19) 
18

>  <SMILES>  (19) 
COc1cc(-c2cccc(C(N)=O)c2)ccc1-n1ccc2cc(S(=O)(=O)N=c3[n-]ccs3)cc(Cl)c21

>  <Energy>  (19) 
141.1158906284082

>  <Genealogy>  (19) 
COc1cc(-c2cccc(C(N)=O)c2)ccc1-n1ccc2cc(S(=O)(=O)N=c3[n-]ccs3)cc(Cl)c21 (protonated)
COc1cc(-c2cccc(C(N)=O)c2)ccc1-n1ccc2cc(S(=O)(=O)N=c3[n-]ccs3)cc(Cl)c21 (3D coordinates assigned)
COc1cc(-c2cccc(C(N)=O)c2)ccc1-n1ccc2cc(S(=O)(=O)N=c3[n-]ccs3)cc(Cl)c21 (optimized conformer: 141.1158906284082 kcal/mol)

>  <smiles>  (19) 
COc1cc(-c2cccc(C(N)=O)c2)ccc1-n1ccc2cc(S(=O)(=O)N=c3[nH]ccs3)cc(Cl)c21

>  <score_type>  (19) 
oracle

>  <origin>  (19) 
adg

>  <m_score__min__energy>  (19) 
-12.039999999999999

>  <m_primary>  (19) 
energy

$$$$
20:0
     RDKit          3D

 30 31  0  0  0  0  0  0  0  0999 V2000
   58.7966   33.0644   48.7483 H   0  0  0  0  0  0  0  0  0  0  0  0
   58.8190   33.4490   47.7180 C   0  0  0  0  0  0  0  0  0  0  0  0
   59.5590   34.5490   47.4210 N   0  0  0  0  0  0  0  0  0  0  0  0
   59.6130   35.0530   46.1590 C   0  0  0  0  0  0  0  0  0  0  0  0
   60.2230   35.9440   45.9491 H   0  0  0  0  0  0  0  0  0  0  0  0
   58.8950   34.4410   45.1290 C   0  0  0  0  0  0  0  0  0  0  0  0
   58.9408   34.8435   44.1063 H   0  0  0  0  0  0  0  0  0  0  0  0
   58.1150   33.3090   45.4090 C   0  0  0  0  0  0  0  0  0  0  0  0
   57.3580   32.6120   44.3070 C   0  0  0  0  0  0  0  0  0  0  0  0
   57.5871   33.1028   43.3496 H   0  0  0  0  0  0  0  0  0  0  0  0
   56.2830   32.6763   44.5313 H   0  0  0  0  0  0  0  0  0  0  0  0
   57.7440   31.1290   44.2130 C   0  0  0  0  0  0  0  0  0  0  0  0
   58.7185   30.9815   44.7015 H   0  0  0  0  0  0  0  0  0  0  0  0
   57.7935   30.8516   43.1497 H   0  0  0  0  0  0  0  0  0  0  0  0
   56.7510   30.2750   44.8650 N   0  0  0  0  0  0  0  0  0  0  0  0
   56.9520   29.1280   45.4510 C   0  0  0  0  0  0  0  0  0  0  0  0
   58.1020   28.9510   46.1460 N   0  0  0  0  0  0  0  0  0  0  0  0
   58.3860   27.7840   46.7750 C   0  0  0  0  0  0  0  0  0  0  0  0
   59.4700   27.6750   47.4060 O   0  0  0  0  0  0  0  0  0  0  0  0
   57.4700   26.7170   46.7150 C   0  0  0  0  0  0  0  0  0  0  0  0
   57.7170   25.4570   47.3580 N   0  0  0  0  0  0  0  0  0  0  0  0
   56.8130   24.7800   47.8910 O   0  0  0  0  0  0  0  0  0  0  0  0
   56.2790   26.9130   45.9960 C   0  0  0  0  0  0  0  0  0  0  0  0
   55.3020   25.8670   45.9000 N   0  0  0  0  0  0  0  0  0  0  0  0
   55.1080   25.2490   46.7180 H   0  0  0  0  0  0  0  0  0  0  0  0
   54.7650   25.6960   45.0220 H   0  0  0  0  0  0  0  0  0  0  0  0
   56.0430   28.1080   45.3840 N   0  0  0  0  0  0  0  0  0  0  0  0
   55.1420   28.2220   44.8700 H   0  0  0  0  0  0  0  0  0  0  0  0
   58.0860   32.8050   46.7170 C   0  0  0  0  0  0  0  0  0  0  0  0
   57.4914   31.9103   46.9535 H   0  0  0  0  0  0  0  0  0  0  0  0
  1  2  1  0
  2  3  2  0
  3  4  1  0
  4  5  1  0
  4  6  2  0
  6  7  1  0
  6  8  1  0
  8  9  1  0
  9 10  1  0
  9 11  1  0
  9 12  1  0
 12 13  1  0
 12 14  1  0
 12 15  1  0
 15 16  2  0
 16 17  1  0
 17 18  1  0
 18 19  2  0
 18 20  1  0
 20 21  1  0
 21 22  2  0
 20 23  2  0
 23 24  1  0
 24 25  1  0
 24 26  1  0
 23 27  1  0
 27 28  1  0
  8 29  2  0
 29 30  1  0
 29  2  1  0
 27 16  1  0
M  CHG  1  17  -1
M  END
>  <UniqueID>  (20) 
19

>  <SMILES>  (20) 
Nc1[nH]/c(=N\CCc2ccncc2)[n-]c(=O)c1N=O

>  <Energy>  (20) 
33.31739061871274

>  <Genealogy>  (20) 
Nc1[nH]c(=NCCc2ccncc2)[n-]c(=O)c1N=O (protonated)
Nc1[nH]/c(=N\CCc2ccncc2)[n-]c(=O)c1N=O (cis-trans isomerization)
Nc1[nH]/c(=N\CCc2ccncc2)[n-]c(=O)c1N=O (3D coordinates assigned)
Nc1[nH]/c(=N\CCc2ccncc2)[n-]c(=O)c1N=O (optimized conformer: 33.31739061871274 kcal/mol)

>  <smiles>  (20) 
Nc1[nH]c(=NCCc2ccncc2)[nH]c(=O)c1N=O

>  <score_type>  (20) 
oracle

>  <origin>  (20) 
adg

>  <m_score__min__energy>  (20) 
-8.2799999999999994

>  <m_primary>  (20) 
energy

$$$$
21:0
     RDKit          3D

 63 66  0  0  0  0  0  0  0  0999 V2000
   56.2750   29.3690   42.3120 C   0  0  0  0  0  0  0  0  0  0  0  0
   56.9620   29.9490   43.5110 C   0  0  0  0  0  0  0  0  0  0  0  0
   56.9550   29.4250   44.7900 C   0  0  0  0  0  0  0  0  0  0  0  0
   56.1570   28.3400   45.2610 N   0  0  0  0  0  0  0  0  0  0  0  0
   56.8630   26.7990   45.6170 S   0  0  0  0  0  0  0  0  0  0  0  0
   57.1850   26.1000   44.3260 O   0  0  0  0  0  0  0  0  0  0  0  0
   55.8820   25.9620   46.3890 O   0  0  0  0  0  0  0  0  0  0  0  0
   58.3360   27.0080   46.5600 C   0  0  0  0  0  0  0  0  0  0  0  0
   59.5200   26.3610   46.1830 C   0  0  0  0  0  0  0  0  0  0  0  0
   60.7000   26.5880   46.8930 C   0  0  0  0  0  0  0  0  0  0  0  0
   60.7120   27.4740   47.9740 C   0  0  0  0  0  0  0  0  0  0  0  0
   59.5340   28.1360   48.3620 C   0  0  0  0  0  0  0  0  0  0  0  0
   59.5440   29.0970   49.4860 C   0  0  0  0  0  0  0  0  0  0  0  0
   60.5130   29.1130   50.2950 O   0  0  0  0  0  0  0  0  0  0  0  0
   58.4810   29.9950   49.6450 O   0  0  0  0  0  0  0  0  0  0  0  0
   58.5250   31.3430   49.1860 C   0  0  0  0  0  0  0  0  0  0  0  0
   59.4180   32.1610   50.0650 C   0  0  0  0  0  0  0  0  0  0  0  0
   59.7280   33.3330   49.7180 O   0  0  0  0  0  0  0  0  0  0  0  0
   59.9390   31.5990   51.2780 N   0  0  0  0  0  0  0  0  0  0  0  0
   60.9090   32.3010   52.1150 C   0  0  0  0  0  0  0  0  0  0  0  0
   62.2100   32.4750   51.3810 C   0  0  0  0  0  0  0  0  0  0  0  0
   62.9250   33.6800   51.4940 C   0  0  0  0  0  0  0  0  0  0  0  0
   64.1260   33.8550   50.7980 C   0  0  0  0  0  0  0  0  0  0  0  0
   64.6190   32.8320   49.9820 C   0  0  0  0  0  0  0  0  0  0  0  0
   65.7820   33.0050   49.3070 F   0  0  0  0  0  0  0  0  0  0  0  0
   63.9090   31.6330   49.8600 C   0  0  0  0  0  0  0  0  0  0  0  0
   62.7080   31.4550   50.5540 C   0  0  0  0  0  0  0  0  0  0  0  0
   58.3440   27.8850   47.6550 C   0  0  0  0  0  0  0  0  0  0  0  0
   57.6340   30.3440   45.5560 C   0  0  0  0  0  0  0  0  0  0  0  0
   57.7960   30.2880   46.8030 O   0  0  0  0  0  0  0  0  0  0  0  0
   58.0500   31.3630   44.7730 N   0  0  0  0  0  0  0  0  0  0  0  0
   58.6930   32.5630   45.2380 C   0  0  0  0  0  0  0  0  0  0  0  0
   58.3160   33.8140   44.7220 C   0  0  0  0  0  0  0  0  0  0  0  0
   58.9680   34.9760   45.1440 C   0  0  0  0  0  0  0  0  0  0  0  0
   60.0060   34.8970   46.0780 C   0  0  0  0  0  0  0  0  0  0  0  0
   60.3960   33.6560   46.5890 C   0  0  0  0  0  0  0  0  0  0  0  0
   59.7440   32.4920   46.1690 C   0  0  0  0  0  0  0  0  0  0  0  0
   57.6590   31.1130   43.5250 N   0  0  0  0  0  0  0  0  0  0  0  0
   57.8960   31.9810   42.3670 C   0  0  0  0  0  0  0  0  0  0  0  0
   55.4729   28.6918   42.6408 H   0  0  0  0  0  0  0  0  0  0  0  0
   55.8445   30.1810   41.7076 H   0  0  0  0  0  0  0  0  0  0  0  0
   57.0033   28.8084   41.7076 H   0  0  0  0  0  0  0  0  0  0  0  0
   59.5197   25.6723   45.3252 H   0  0  0  0  0  0  0  0  0  0  0  0
   61.6240   26.0677   46.6007 H   0  0  0  0  0  0  0  0  0  0  0  0
   61.6476   27.6542   48.5237 H   0  0  0  0  0  0  0  0  0  0  0  0
   58.9114   31.3635   48.1563 H   0  0  0  0  0  0  0  0  0  0  0  0
   57.5095   31.7648   49.2153 H   0  0  0  0  0  0  0  0  0  0  0  0
   59.6590   30.6280   51.5470 H   0  0  0  0  0  0  0  0  0  0  0  0
   60.5085   33.2903   52.3812 H   0  0  0  0  0  0  0  0  0  0  0  0
   61.0898   31.7080   53.0236 H   0  0  0  0  0  0  0  0  0  0  0  0
   62.5388   34.4885   52.1321 H   0  0  0  0  0  0  0  0  0  0  0  0
   64.6832   34.7987   50.8928 H   0  0  0  0  0  0  0  0  0  0  0  0
   64.2960   30.8287   49.2171 H   0  0  0  0  0  0  0  0  0  0  0  0
   62.1510   30.5120   50.4517 H   0  0  0  0  0  0  0  0  0  0  0  0
   57.4117   28.3807   47.9634 H   0  0  0  0  0  0  0  0  0  0  0  0
   57.5042   33.8793   43.9826 H   0  0  0  0  0  0  0  0  0  0  0  0
   58.6645   35.9535   44.7412 H   0  0  0  0  0  0  0  0  0  0  0  0
   60.5162   35.8129   46.4109 H   0  0  0  0  0  0  0  0  0  0  0  0
   61.2150   33.5947   47.3208 H   0  0  0  0  0  0  0  0  0  0  0  0
   60.0553   31.5158   46.5693 H   0  0  0  0  0  0  0  0  0  0  0  0
   58.1710   32.9880   42.7138 H   0  0  0  0  0  0  0  0  0  0  0  0
   58.7138   31.5665   41.7593 H   0  0  0  0  0  0  0  0  0  0  0  0
   56.9810   32.0396   41.7593 H   0  0  0  0  0  0  0  0  0  0  0  0
  1  2  1  0
  2  3  2  0
  3  4  1  0
  4  5  1  0
  5  6  2  0
  5  7  2  0
  5  8  1  0
  8  9  2  0
  9 10  1  0
 10 11  2  0
 11 12  1  0
 12 13  1  0
 13 14  2  0
 13 15  1  0
 15 16  1  0
 16 17  1  0
 17 18  2  0
 17 19  1  0
 19 20  1  0
 20 21  1  0
 21 22  2  0
 22 23  1  0
 23 24  2  0
 24 25  1  0
 24 26  1  0
 26 27  2  0
 12 28  2  0
  3 29  1  0
 29 30  2  0
 29 31  1  0
 31 32  1  0
 32 33  2  0
 33 34  1  0
 34 35  2  0
 35 36  1  0
 36 37  2  0
 31 38  1  0
 38 39  1  0
 38  2  1  0
 28  8  1  0
 37 32  1  0
 27 21  1  0
  1 40  1  0
  1 41  1  0
  1 42  1  0
  9 43  1  0
 10 44  1  0
 11 45  1  0
 16 46  1  0
 16 47  1  0
 19 48  1  0
 20 49  1  0
 20 50  1  0
 22 51  1  0
 23 52  1  0
 26 53  1  0
 27 54  1  0
 28 55  1  0
 33 56  1  0
 34 57  1  0
 35 58  1  0
 36 59  1  0
 37 60  1  0
 39 61  1  0
 39 62  1  0
 39 63  1  0
M  CHG  1   4  -1
M  END
>  <UniqueID>  (21) 
20

>  <SMILES>  (21) 
Cc1c([N-]S(=O)(=O)c2cccc(C(=O)OCC(=O)NCc3ccc(F)cc3)c2)c(=O)n(-c2ccccc2)n1C

>  <Energy>  (21) 
109.54547776872309

>  <Genealogy>  (21) 
Cc1c([N-]S(=O)(=O)c2cccc(C(=O)OCC(=O)NCc3ccc(F)cc3)c2)c(=O)n(-c2ccccc2)n1C (protonated)
Cc1c([N-]S(=O)(=O)c2cccc(C(=O)OCC(=O)NCc3ccc(F)cc3)c2)c(=O)n(-c2ccccc2)n1C (3D coordinates assigned)
Cc1c([N-]S(=O)(=O)c2cccc(C(=O)OCC(=O)NCc3ccc(F)cc3)c2)c(=O)n(-c2ccccc2)n1C (optimized conformer: 109.54547776872309 kcal/mol)

>  <smiles>  (21) 
Cc1c(NS(=O)(=O)c2cccc(C(=O)OCC(=O)NCc3ccc(F)cc3)c2)c(=O)n(-c2ccccc2)n1C

>  <score_type>  (21) 
oracle

>  <origin>  (21) 
adg

>  <m_score__min__energy>  (21) 
-10.42

>  <m_primary>  (21) 
energy

$$$$
22:0
     RDKit          3D

 50 53  0  0  0  0  0  0  0  0999 V2000
   54.7520   26.2960   45.9860 N   0  0  0  0  0  0  0  0  0  0  0  0
   55.2020   24.6270   46.0700 S   0  0  0  0  0  0  0  0  0  0  0  0
   54.0220   23.8280   46.5450 O   0  0  0  0  0  0  0  0  0  0  0  0
   56.3330   24.4610   47.0470 O   0  0  0  0  0  0  0  0  0  0  0  0
   55.6660   24.0620   44.4940 N   0  0  0  0  0  0  0  0  0  0  0  0
   57.1190   24.1240   44.3440 C   0  0  0  0  0  0  0  0  0  0  0  0
   57.5550   25.5560   44.0320 C   0  0  0  0  0  0  0  0  0  0  0  0
   58.2880   26.1700   45.1980 C   0  0  0  0  0  0  0  0  0  0  0  0
   59.4090   25.5260   45.7410 C   0  0  0  0  0  0  0  0  0  0  0  0
   60.0570   26.0580   46.8560 C   0  0  0  0  0  0  0  0  0  0  0  0
   59.6020   27.2500   47.4500 C   0  0  0  0  0  0  0  0  0  0  0  0
   60.2840   27.7770   48.6580 C   0  0  0  0  0  0  0  0  0  0  0  0
   60.5830   27.0210   49.7980 C   0  0  0  0  0  0  0  0  0  0  0  0
   61.3670   28.0220   50.9040 S   0  0  0  0  0  0  0  0  0  0  0  0
   61.3040   29.3570   49.8930 C   0  0  0  0  0  0  0  0  0  0  0  0
   61.7630   30.5310   50.2120 N   0  0  0  0  0  0  0  0  0  0  0  0
   61.8670   31.6640   49.3310 C   0  0  0  0  0  0  0  0  0  0  0  0
   63.0470   32.4160   49.3370 C   0  0  0  0  0  0  0  0  0  0  0  0
   63.1810   33.5250   48.4970 C   0  0  0  0  0  0  0  0  0  0  0  0
   62.1430   33.8840   47.6350 C   0  0  0  0  0  0  0  0  0  0  0  0
   60.9610   33.1230   47.5880 C   0  0  0  0  0  0  0  0  0  0  0  0
   59.8510   33.4990   46.6740 C   0  0  0  0  0  0  0  0  0  0  0  0
   58.6660   32.7390   46.6400 C   0  0  0  0  0  0  0  0  0  0  0  0
   57.6220   33.0920   45.7780 C   0  0  0  0  0  0  0  0  0  0  0  0
   57.7490   34.2040   44.9430 C   0  0  0  0  0  0  0  0  0  0  0  0
   58.9190   34.9670   44.9690 C   0  0  0  0  0  0  0  0  0  0  0  0
   59.9650   34.6190   45.8290 C   0  0  0  0  0  0  0  0  0  0  0  0
   60.8410   32.0010   48.4270 C   0  0  0  0  0  0  0  0  0  0  0  0
   60.6810   29.0770   48.7290 N   0  0  0  0  0  0  0  0  0  0  0  0
   58.4760   27.8940   46.9020 C   0  0  0  0  0  0  0  0  0  0  0  0
   57.8230   27.3540   45.7890 C   0  0  0  0  0  0  0  0  0  0  0  0
   53.7060   26.3410   45.9680 H   0  0  0  0  0  0  0  0  0  0  0  0
   57.5956   23.7942   45.2790 H   0  0  0  0  0  0  0  0  0  0  0  0
   57.4236   23.4667   43.5162 H   0  0  0  0  0  0  0  0  0  0  0  0
   58.2198   25.5456   43.1557 H   0  0  0  0  0  0  0  0  0  0  0  0
   56.6562   26.1573   43.8304 H   0  0  0  0  0  0  0  0  0  0  0  0
   59.7796   24.5960   45.2852 H   0  0  0  0  0  0  0  0  0  0  0  0
   60.9325   25.5405   47.2752 H   0  0  0  0  0  0  0  0  0  0  0  0
   60.3468   25.9569   49.9461 H   0  0  0  0  0  0  0  0  0  0  0  0
   63.8731   32.1330   50.0060 H   0  0  0  0  0  0  0  0  0  0  0  0
   64.1078   34.1172   48.5151 H   0  0  0  0  0  0  0  0  0  0  0  0
   62.2503   34.7675   46.9886 H   0  0  0  0  0  0  0  0  0  0  0  0
   58.5604   31.8620   47.2955 H   0  0  0  0  0  0  0  0  0  0  0  0
   56.6998   32.4927   45.7580 H   0  0  0  0  0  0  0  0  0  0  0  0
   56.9278   34.4792   44.2648 H   0  0  0  0  0  0  0  0  0  0  0  0
   59.0175   35.8434   44.3115 H   0  0  0  0  0  0  0  0  0  0  0  0
   60.8832   35.2245   45.8454 H   0  0  0  0  0  0  0  0  0  0  0  0
   59.9351   31.3791   48.3767 H   0  0  0  0  0  0  0  0  0  0  0  0
   58.1076   28.8277   47.3520 H   0  0  0  0  0  0  0  0  0  0  0  0
   56.9392   27.8611   45.3746 H   0  0  0  0  0  0  0  0  0  0  0  0
  1  2  1  0
  2  3  2  0
  2  4  2  0
  2  5  1  0
  5  6  1  0
  6  7  1  0
  7  8  1  0
  8  9  2  0
  9 10  1  0
 10 11  2  0
 11 12  1  0
 12 13  2  0
 13 14  1  0
 14 15  1  0
 15 16  2  3
 16 17  1  0
 17 18  2  0
 18 19  1  0
 19 20  2  0
 20 21  1  0
 21 22  1  0
 22 23  2  0
 23 24  1  0
 24 25  2  0
 25 26  1  0
 26 27  2  0
 21 28  2  0
 15 29  1  0
 11 30  1  0
 30 31  2  0
 31  8  1  0
 29 12  1  0
 28 17  1  0
 27 22  1  0
  1 32  1  0
  6 33  1  0
  6 34  1  0
  7 35  1  0
  7 36  1  0
  9 37  1  0
 10 38  1  0
 13 39  1  0
 18 40  1  0
 19 41  1  0
 20 42  1  0
 23 43  1  0
 24 44  1  0
 25 45  1  0
 26 46  1  0
 27 47  1  0
 28 48  1  0
 30 49  1  0
 31 50  1  0
M  CHG  3   1  -1   5  -1  29  -1
M  END
>  <UniqueID>  (22) 
21

>  <SMILES>  (22) 
[NH-]S(=O)(=O)[N-]CCc1ccc(-c2csc(=Nc3cccc(-c4ccccc4)c3)[n-]2)cc1

>  <Energy>  (22) 
89.83716222116149

>  <Genealogy>  (22) 
[NH-]S(=O)(=O)[N-]CCc1ccc(-c2csc(=Nc3cccc(-c4ccccc4)c3)[n-]2)cc1 (protonated)
[NH-]S(=O)(=O)[N-]CCc1ccc(-c2csc(=Nc3cccc(-c4ccccc4)c3)[n-]2)cc1 (3D coordinates assigned)
[NH-]S(=O)(=O)[N-]CCc1ccc(-c2csc(=Nc3cccc(-c4ccccc4)c3)[n-]2)cc1 (optimized conformer: 89.83716222116149 kcal/mol)

>  <smiles>  (22) 
NS(=O)(=O)NCCc1ccc(-c2csc(=Nc3cccc(-c4ccccc4)c3)[nH]2)cc1

>  <score_type>  (22) 
oracle

>  <origin>  (22) 
adg

>  <m_score__min__energy>  (22) 
-15.76

>  <m_primary>  (22) 
energy

$$$$
23:0
     RDKit          3D

 38 40  0  0  0  0  0  0  0  0999 V2000
   53.9860   25.9210   45.6990 N   0  0  0  0  0  0  0  0  0  0  0  0
   55.3500   24.8840   45.9220 S   0  0  0  0  0  0  0  0  0  0  0  0
   55.4930   23.9820   44.7290 O   0  0  0  0  0  0  0  0  0  0  0  0
   55.1420   24.0370   47.1470 O   0  0  0  0  0  0  0  0  0  0  0  0
   56.8050   25.8590   46.1120 C   0  0  0  0  0  0  0  0  0  0  0  0
   57.8290   25.4380   46.9710 C   0  0  0  0  0  0  0  0  0  0  0  0
   58.9890   26.2070   47.1100 C   0  0  0  0  0  0  0  0  0  0  0  0
   59.1350   27.4080   46.4030 C   0  0  0  0  0  0  0  0  0  0  0  0
   60.3490   28.1660   46.5380 N   0  0  0  0  0  0  0  0  0  0  0  0
   60.4310   29.4900   47.0890 C   0  0  0  0  0  0  0  0  0  0  0  0
   59.3170   30.0120   48.1850 S   0  0  0  0  0  0  0  0  0  0  0  0
   61.5390   30.3270   46.7120 N   0  0  0  0  0  0  0  0  0  0  0  0
   61.9230   31.5210   47.4160 C   0  0  0  0  0  0  0  0  0  0  0  0
   63.2000   31.6020   47.9930 C   0  0  0  0  0  0  0  0  0  0  0  0
   63.6170   32.7650   48.6390 C   0  0  0  0  0  0  0  0  0  0  0  0
   62.7720   33.8720   48.7090 C   0  0  0  0  0  0  0  0  0  0  0  0
   61.4950   33.8220   48.1310 C   0  0  0  0  0  0  0  0  0  0  0  0
   60.6450   34.9380   48.2010 C   0  0  0  0  0  0  0  0  0  0  0  0
   59.3700   34.8870   47.6350 C   0  0  0  0  0  0  0  0  0  0  0  0
   58.9310   33.7260   46.9980 C   0  0  0  0  0  0  0  0  0  0  0  0
   59.7640   32.6070   46.9190 C   0  0  0  0  0  0  0  0  0  0  0  0
   61.0590   32.6400   47.4750 C   0  0  0  0  0  0  0  0  0  0  0  0
   58.1190   27.8090   45.5170 C   0  0  0  0  0  0  0  0  0  0  0  0
   56.9600   27.0410   45.3770 C   0  0  0  0  0  0  0  0  0  0  0  0
   54.0890   26.7110   46.3750 H   0  0  0  0  0  0  0  0  0  0  0  0
   57.7203   24.5011   47.5370 H   0  0  0  0  0  0  0  0  0  0  0  0
   59.7927   25.8664   47.7794 H   0  0  0  0  0  0  0  0  0  0  0  0
   61.2420   27.7110   46.2420 H   0  0  0  0  0  0  0  0  0  0  0  0
   62.0910   30.0540   45.8700 H   0  0  0  0  0  0  0  0  0  0  0  0
   63.8791   30.7386   47.9349 H   0  0  0  0  0  0  0  0  0  0  0  0
   64.6169   32.8095   49.0954 H   0  0  0  0  0  0  0  0  0  0  0  0
   63.1078   34.7870   49.2189 H   0  0  0  0  0  0  0  0  0  0  0  0
   60.9852   35.8554   48.7036 H   0  0  0  0  0  0  0  0  0  0  0  0
   58.7095   35.7648   47.6914 H   0  0  0  0  0  0  0  0  0  0  0  0
   57.9244   33.6914   46.5559 H   0  0  0  0  0  0  0  0  0  0  0  0
   59.4069   31.6942   46.4196 H   0  0  0  0  0  0  0  0  0  0  0  0
   58.2374   28.7323   44.9310 H   0  0  0  0  0  0  0  0  0  0  0  0
   56.1670   27.3658   44.6874 H   0  0  0  0  0  0  0  0  0  0  0  0
  1  2  1  0
  2  3  2  0
  2  4  2  0
  2  5  1  0
  5  6  2  0
  6  7  1  0
  7  8  2  0
  8  9  1  0
  9 10  1  0
 10 11  2  0
 10 12  1  0
 12 13  1  0
 13 14  2  0
 14 15  1  0
 15 16  2  0
 16 17  1  0
 17 18  2  0
 18 19  1  0
 19 20  2  0
 20 21  1  0
 21 22  2  0
  8 23  1  0
 23 24  2  0
 24  5  1  0
 22 13  1  0
 22 17  1  0
  1 25  1  0
  6 26  1  0
  7 27  1  0
  9 28  1  0
 12 29  1  0
 14 30  1  0
 15 31  1  0
 16 32  1  0
 18 33  1  0
 19 34  1  0
 20 35  1  0
 21 36  1  0
 23 37  1  0
 24 38  1  0
M  CHG  1   1  -1
M  END
>  <UniqueID>  (23) 
22

>  <SMILES>  (23) 
[NH-]S(=O)(=O)c1ccc(NC(=S)Nc2cccc3ccccc23)cc1

>  <Energy>  (23) 
56.03062871020276

>  <Genealogy>  (23) 
[NH-]S(=O)(=O)c1ccc(NC(=S)Nc2cccc3ccccc23)cc1 (protonated)
[NH-]S(=O)(=O)c1ccc(NC(=S)Nc2cccc3ccccc23)cc1 (3D coordinates assigned)
[NH-]S(=O)(=O)c1ccc(NC(=S)Nc2cccc3ccccc23)cc1 (optimized conformer: 56.03062871020276 kcal/mol)

>  <smiles>  (23) 
NS(=O)(=O)c1ccc(NC(=S)Nc2cccc3ccccc23)cc1

>  <score_type>  (23) 
oracle

>  <origin>  (23) 
adg

>  <m_score__min__energy>  (23) 
-10.390000000000001

>  <m_primary>  (23) 
energy

$$$$
24:0
     RDKit          3D

 50 53  0  0  0  0  0  0  0  0999 V2000
   56.1870   25.6780   46.7670 O   0  0  0  0  0  0  0  0  0  0  0  0
   56.6600   26.5260   45.9570 C   0  0  0  0  0  0  0  0  0  0  0  0
   58.0250   26.3220   45.3790 C   0  0  0  0  0  0  0  0  0  0  0  0
   59.0730   26.2600   46.4950 C   0  0  0  0  0  0  0  0  0  0  0  0
   59.6530   27.6270   46.7490 C   0  0  0  0  0  0  0  0  0  0  0  0
   59.5400   28.2170   48.0190 C   0  0  0  0  0  0  0  0  0  0  0  0
   60.0430   29.5040   48.2480 C   0  0  0  0  0  0  0  0  0  0  0  0
   60.6560   30.2100   47.2090 C   0  0  0  0  0  0  0  0  0  0  0  0
   60.7570   29.6390   45.9380 C   0  0  0  0  0  0  0  0  0  0  0  0
   60.2530   28.3530   45.7050 C   0  0  0  0  0  0  0  0  0  0  0  0
   55.8970   27.6760   45.5670 N   0  0  0  0  0  0  0  0  0  0  0  0
   56.4240   28.9560   45.1880 C   0  0  0  0  0  0  0  0  0  0  0  0
   56.0750   29.4920   43.9440 C   0  0  0  0  0  0  0  0  0  0  0  0
   56.5850   30.7290   43.5440 C   0  0  0  0  0  0  0  0  0  0  0  0
   57.4570   31.4200   44.3890 C   0  0  0  0  0  0  0  0  0  0  0  0
   57.9460   32.6670   43.9860 O   0  0  0  0  0  0  0  0  0  0  0  0
   58.6020   33.5720   44.8270 C   0  0  0  0  0  0  0  0  0  0  0  0
   58.9630   33.2690   46.0910 N   0  0  0  0  0  0  0  0  0  0  0  0
   59.5670   34.3560   46.5470 N   0  0  0  0  0  0  0  0  0  0  0  0
   60.1140   34.4950   47.8960 C   0  0  0  0  0  0  0  0  0  0  0  0
   61.3880   33.6950   48.0250 C   0  0  0  0  0  0  0  0  0  0  0  0
   62.3470   33.7600   47.0000 C   0  0  0  0  0  0  0  0  0  0  0  0
   63.5500   33.0620   47.1080 C   0  0  0  0  0  0  0  0  0  0  0  0
   63.8150   32.2940   48.2420 C   0  0  0  0  0  0  0  0  0  0  0  0
   62.8770   32.2200   49.2780 C   0  0  0  0  0  0  0  0  0  0  0  0
   63.2610   31.2440   50.6930 Cl  0  0  0  0  0  0  0  0  0  0  0  0
   61.6630   32.9260   49.1810 C   0  0  0  0  0  0  0  0  0  0  0  0
   60.5040   32.8520   50.5100 Cl  0  0  0  0  0  0  0  0  0  0  0  0
   59.5340   35.2750   45.5670 C   0  0  0  0  0  0  0  0  0  0  0  0
   59.9990   36.4420   45.6610 O   0  0  0  0  0  0  0  0  0  0  0  0
   58.9450   34.8020   44.4960 O   0  0  0  0  0  0  0  0  0  0  0  0
   57.8090   30.8700   45.5860 N   0  0  0  0  0  0  0  0  0  0  0  0
   57.3260   29.6660   45.9980 C   0  0  0  0  0  0  0  0  0  0  0  0
   58.0418   25.3789   44.8130 H   0  0  0  0  0  0  0  0  0  0  0  0
   58.2610   27.1658   44.7140 H   0  0  0  0  0  0  0  0  0  0  0  0
   58.5994   25.8905   47.4165 H   0  0  0  0  0  0  0  0  0  0  0  0
   59.8820   25.5814   46.1868 H   0  0  0  0  0  0  0  0  0  0  0  0
   59.0542   27.6656   48.8375 H   0  0  0  0  0  0  0  0  0  0  0  0
   59.9556   29.9592   49.2456 H   0  0  0  0  0  0  0  0  0  0  0  0
   61.0595   31.2168   47.3924 H   0  0  0  0  0  0  0  0  0  0  0  0
   61.2326   30.1996   45.1197 H   0  0  0  0  0  0  0  0  0  0  0  0
   60.3269   27.9093   44.7012 H   0  0  0  0  0  0  0  0  0  0  0  0
   55.3968   28.9375   43.2788 H   0  0  0  0  0  0  0  0  0  0  0  0
   56.3022   31.1562   42.5706 H   0  0  0  0  0  0  0  0  0  0  0  0
   60.3289   35.5555   48.0938 H   0  0  0  0  0  0  0  0  0  0  0  0
   59.3785   34.1199   48.6228 H   0  0  0  0  0  0  0  0  0  0  0  0
   62.1473   34.3667   46.1044 H   0  0  0  0  0  0  0  0  0  0  0  0
   64.2913   33.1173   46.2972 H   0  0  0  0  0  0  0  0  0  0  0  0
   64.7646   31.7446   48.3222 H   0  0  0  0  0  0  0  0  0  0  0  0
   57.6420   29.2487   46.9655 H   0  0  0  0  0  0  0  0  0  0  0  0
  1  2  2  0
  2  3  1  0
  3  4  1  0
  4  5  1  0
  5  6  2  0
  6  7  1  0
  7  8  2  0
  8  9  1  0
  9 10  2  0
  2 11  1  0
 11 12  1  0
 12 13  2  0
 13 14  1  0
 14 15  2  0
 15 16  1  0
 16 17  1  0
 17 18  2  0
 18 19  1  0
 19 20  1  0
 20 21  1  0
 21 22  2  0
 22 23  1  0
 23 24  2  0
 24 25  1  0
 25 26  1  0
 25 27  2  0
 27 28  1  0
 19 29  1  0
 29 30  2  0
 29 31  1  0
 15 32  1  0
 32 33  2  0
 10  5  1  0
 33 12  1  0
 31 17  1  0
 27 21  1  0
  3 34  1  0
  3 35  1  0
  4 36  1  0
  4 37  1  0
  6 38  1  0
  7 39  1  0
  8 40  1  0
  9 41  1  0
 10 42  1  0
 13 43  1  0
 14 44  1  0
 20 45  1  0
 20 46  1  0
 22 47  1  0
 23 48  1  0
 24 49  1  0
 33 50  1  0
M  CHG  1  11  -1
M  END
>  <UniqueID>  (24) 
23

>  <SMILES>  (24) 
O=C(CCc1ccccc1)[N-]c1ccc(Oc2nn(Cc3cccc(Cl)c3Cl)c(=O)o2)nc1

>  <Energy>  (24) 
94.71556691988086

>  <Genealogy>  (24) 
O=C(CCc1ccccc1)[N-]c1ccc(Oc2nn(Cc3cccc(Cl)c3Cl)c(=O)o2)nc1 (protonated)
O=C(CCc1ccccc1)[N-]c1ccc(Oc2nn(Cc3cccc(Cl)c3Cl)c(=O)o2)nc1 (3D coordinates assigned)
O=C(CCc1ccccc1)[N-]c1ccc(Oc2nn(Cc3cccc(Cl)c3Cl)c(=O)o2)nc1 (optimized conformer: 94.71556691988086 kcal/mol)

>  <smiles>  (24) 
O=C(CCc1ccccc1)Nc1ccc(Oc2nn(Cc3cccc(Cl)c3Cl)c(=O)o2)nc1

>  <score_type>  (24) 
oracle

>  <origin>  (24) 
adg

>  <m_score__min__energy>  (24) 
-12.24

>  <m_primary>  (24) 
energy

$$$$
25:0
     RDKit          3D

 48 51  0  0  0  0  0  0  0  0999 V2000
   57.0670   31.9830   52.9880 C   0  0  0  0  0  0  0  0  0  0  0  0
   57.9920   32.1330   51.8160 C   0  0  0  0  0  0  0  0  0  0  0  0
   58.0970   31.1140   50.8600 C   0  0  0  0  0  0  0  0  0  0  0  0
   58.9860   31.2400   49.7900 C   0  0  0  0  0  0  0  0  0  0  0  0
   59.7920   32.3850   49.6590 C   0  0  0  0  0  0  0  0  0  0  0  0
   60.7180   32.5080   48.5560 N   0  0  0  0  0  0  0  0  0  0  0  0
   61.8090   31.6180   48.3420 C   0  0  0  0  0  0  0  0  0  0  0  0
   61.8730   30.4880   48.8950 O   0  0  0  0  0  0  0  0  0  0  0  0
   62.8360   32.0650   47.3740 C   0  0  0  0  0  0  0  0  0  0  0  0
   62.4170   33.7810   46.9270 S   0  0  0  0  0  0  0  0  0  0  0  0
   60.7490   33.6730   47.6740 C   0  0  1  0  0  0  0  0  0  0  0  0
   59.7210   33.5710   46.5710 C   0  0  0  0  0  0  0  0  0  0  0  0
   59.2950   34.7090   45.8620 C   0  0  0  0  0  0  0  0  0  0  0  0
   58.3240   34.5970   44.8640 C   0  0  0  0  0  0  0  0  0  0  0  0
   57.7560   33.3550   44.5740 C   0  0  0  0  0  0  0  0  0  0  0  0
   58.1540   32.2170   45.2860 C   0  0  0  0  0  0  0  0  0  0  0  0
   57.4030   30.6590   44.9580 S   0  0  0  0  0  0  0  0  0  0  0  0
   55.9700   30.8410   44.5410 O   0  0  0  0  0  0  0  0  0  0  0  0
   58.1570   29.9800   43.8500 O   0  0  0  0  0  0  0  0  0  0  0  0
   57.4570   29.6570   46.3730 N   0  0  0  0  0  0  0  0  0  0  0  0
   58.5280   28.7690   46.7180 C   0  0  0  0  0  0  0  0  0  0  0  0
   59.0900   27.9730   45.7120 C   0  0  0  0  0  0  0  0  0  0  0  0
   60.1480   27.1070   46.0000 C   0  0  0  0  0  0  0  0  0  0  0  0
   60.6560   27.0320   47.3000 C   0  0  0  0  0  0  0  0  0  0  0  0
   60.1020   27.8190   48.3140 C   0  0  0  0  0  0  0  0  0  0  0  0
   60.7410   27.7270   49.9440 Cl  0  0  0  0  0  0  0  0  0  0  0  0
   59.0370   28.6810   48.0280 C   0  0  0  0  0  0  0  0  0  0  0  0
   59.1380   32.3270   46.2780 C   0  0  0  0  0  0  0  0  0  0  0  0
   59.7030   33.3900   50.6380 C   0  0  0  0  0  0  0  0  0  0  0  0
   58.8140   33.2640   51.7080 C   0  0  0  0  0  0  0  0  0  0  0  0
   57.6405   32.0760   53.9220 H   0  0  0  0  0  0  0  0  0  0  0  0
   56.2974   32.7681   52.9506 H   0  0  0  0  0  0  0  0  0  0  0  0
   56.5850   30.9950   52.9506 H   0  0  0  0  0  0  0  0  0  0  0  0
   57.4764   30.2105   50.9526 H   0  0  0  0  0  0  0  0  0  0  0  0
   59.0563   30.4359   49.0427 H   0  0  0  0  0  0  0  0  0  0  0  0
   63.8343   32.0255   47.8343 H   0  0  0  0  0  0  0  0  0  0  0  0
   62.8533   31.4163   46.4858 H   0  0  0  0  0  0  0  0  0  0  0  0
   60.5159   34.5688   48.2683 H   0  0  0  0  0  0  0  0  0  0  0  0
   59.7290   35.6926   46.0948 H   0  0  0  0  0  0  0  0  0  0  0  0
   58.0061   35.4896   44.3052 H   0  0  0  0  0  0  0  0  0  0  0  0
   56.9945   33.2704   43.7848 H   0  0  0  0  0  0  0  0  0  0  0  0
   58.6953   28.0300   44.6868 H   0  0  0  0  0  0  0  0  0  0  0  0
   60.5812   26.4841   45.2035 H   0  0  0  0  0  0  0  0  0  0  0  0
   61.4920   26.3535   47.5253 H   0  0  0  0  0  0  0  0  0  0  0  0
   58.5960   29.2919   48.8295 H   0  0  0  0  0  0  0  0  0  0  0  0
   59.4565   31.4315   46.8318 H   0  0  0  0  0  0  0  0  0  0  0  0
   60.3394   34.2839   50.5607 H   0  0  0  0  0  0  0  0  0  0  0  0
   58.7584   34.0558   52.4696 H   0  0  0  0  0  0  0  0  0  0  0  0
  1  2  1  0
  2  3  2  0
  3  4  1  0
  4  5  2  0
  5  6  1  0
  6  7  1  0
  7  8  2  0
  7  9  1  0
  9 10  1  0
 10 11  1  0
 11 12  1  0
 12 13  2  0
 13 14  1  0
 14 15  2  0
 15 16  1  0
 16 17  1  0
 17 18  2  0
 17 19  2  0
 17 20  1  0
 20 21  1  0
 21 22  2  0
 22 23  1  0
 23 24  2  0
 24 25  1  0
 25 26  1  0
 25 27  2  0
 16 28  2  0
  5 29  1  0
 29 30  2  0
 30  2  1  0
 11  6  1  0
 28 12  1  0
 27 21  1  0
  1 31  1  0
  1 32  1  0
  1 33  1  0
  3 34  1  0
  4 35  1  0
  9 36  1  0
  9 37  1  0
 11 38  1  1
 13 39  1  0
 14 40  1  0
 15 41  1  0
 22 42  1  0
 23 43  1  0
 24 44  1  0
 27 45  1  0
 28 46  1  0
 29 47  1  0
 30 48  1  0
M  CHG  1  20  -1
M  END
>  <UniqueID>  (25) 
24

>  <SMILES>  (25) 
Cc1ccc(N2C(=O)CS[C@H]2c2cccc(S(=O)(=O)[N-]c3cccc(Cl)c3)c2)cc1

>  <Energy>  (25) 
56.84206242477676

>  <Genealogy>  (25) 
Cc1ccc(N2C(=O)CSC2c2cccc(S(=O)(=O)[N-]c3cccc(Cl)c3)c2)cc1 (protonated)
Cc1ccc(N2C(=O)CS[C@H]2c2cccc(S(=O)(=O)[N-]c3cccc(Cl)c3)c2)cc1 (chirality)
Cc1ccc(N2C(=O)CS[C@H]2c2cccc(S(=O)(=O)[N-]c3cccc(Cl)c3)c2)cc1 (3D coordinates assigned)
Cc1ccc(N2C(=O)CS[C@H]2c2cccc(S(=O)(=O)[N-]c3cccc(Cl)c3)c2)cc1 (nonaromatic ring conformer: 56.84206242477676 kcal/mol)

>  <smiles>  (25) 
Cc1ccc(N2C(=O)CSC2c2cccc(S(=O)(=O)Nc3cccc(Cl)c3)c2)cc1

>  <score_type>  (25) 
oracle

>  <origin>  (25) 
adg

>  <m_score__min__energy>  (25) 
-11.27

>  <m_primary>  (25) 
energy

$$$$
26:0
     RDKit          3D

 60 64  0  0  0  0  0  0  0  0999 V2000
   54.7860   29.8080   43.8670 O   0  0  0  0  0  0  0  0  0  0  0  0
   55.9580   29.7170   44.3240 C   0  0  0  0  0  0  0  0  0  0  0  0
   56.3770   28.4720   44.9000 N   0  0  0  0  0  0  0  0  0  0  0  0
   57.4710   28.2930   45.8110 C   0  0  0  0  0  0  0  0  0  0  0  0
   57.4140   27.3470   46.8460 C   0  0  0  0  0  0  0  0  0  0  0  0
   58.4990   27.1860   47.7100 C   0  0  0  0  0  0  0  0  0  0  0  0
   59.6410   27.9830   47.5730 C   0  0  0  0  0  0  0  0  0  0  0  0
   60.7030   27.8260   48.5200 N   0  0  0  0  0  0  0  0  0  0  0  0
   60.7120   28.6380   50.0510 S   0  0  0  0  0  0  0  0  0  0  0  0
   61.7380   29.7360   50.0340 O   0  0  0  0  0  0  0  0  0  0  0  0
   61.0360   27.6670   51.1520 O   0  0  0  0  0  0  0  0  0  0  0  0
   59.1060   29.3590   50.3430 C   0  0  0  0  0  0  0  0  0  0  0  0
   59.2500   30.6700   51.0670 C   0  0  0  0  0  0  0  0  0  0  0  0
   58.4210   31.7550   50.7380 C   0  0  0  0  0  0  0  0  0  0  0  0
   58.5180   32.9580   51.4500 C   0  0  0  0  0  0  0  0  0  0  0  0
   59.4400   33.0810   52.4960 C   0  0  0  0  0  0  0  0  0  0  0  0
   60.2590   32.0030   52.8370 C   0  0  0  0  0  0  0  0  0  0  0  0
   60.1670   30.8000   52.1250 C   0  0  0  0  0  0  0  0  0  0  0  0
   59.7080   28.9350   46.5310 C   0  0  0  0  0  0  0  0  0  0  0  0
   60.9490   29.6890   46.2580 C   0  0  0  0  0  0  0  0  0  0  0  0
   61.6530   29.3490   45.2680 O   0  0  0  0  0  0  0  0  0  0  0  0
   61.3770   30.8310   47.1040 C   0  0  0  0  0  0  0  0  0  0  0  0
   62.7270   31.2310   47.1200 C   0  0  0  0  0  0  0  0  0  0  0  0
   63.1440   32.2910   47.9310 C   0  0  0  0  0  0  0  0  0  0  0  0
   62.2220   32.9600   48.7400 C   0  0  0  0  0  0  0  0  0  0  0  0
   60.8810   32.5700   48.7370 C   0  0  0  0  0  0  0  0  0  0  0  0
   60.4560   31.5110   47.9280 C   0  0  0  0  0  0  0  0  0  0  0  0
   58.6080   29.0940   45.6710 C   0  0  0  0  0  0  0  0  0  0  0  0
   56.8340   30.9120   44.3360 C   0  0  0  0  0  0  0  0  0  0  0  0
   57.3900   31.4160   43.1470 C   0  0  0  0  0  0  0  0  0  0  0  0
   58.1850   32.5630   43.1860 C   0  0  0  0  0  0  0  0  0  0  0  0
   58.4350   33.2000   44.4070 C   0  0  0  0  0  0  0  0  0  0  0  0
   59.2280   34.3540   44.4790 C   0  0  0  0  0  0  0  0  0  0  0  0
   59.4580   34.9660   45.7160 C   0  0  0  0  0  0  0  0  0  0  0  0
   58.9130   34.4240   46.8840 C   0  0  0  0  0  0  0  0  0  0  0  0
   58.1190   33.2700   46.8230 C   0  0  0  0  0  0  0  0  0  0  0  0
   57.5630   32.7330   47.9840 O   0  0  0  0  0  0  0  0  0  0  0  0
   57.8700   32.6620   45.5850 C   0  0  0  0  0  0  0  0  0  0  0  0
   57.0850   31.5550   45.5100 N   0  0  0  0  0  0  0  0  0  0  0  0
   56.5123   26.7308   46.9769 H   0  0  0  0  0  0  0  0  0  0  0  0
   58.4557   26.4266   48.5047 H   0  0  0  0  0  0  0  0  0  0  0  0
   58.6033   29.5291   49.3795 H   0  0  0  0  0  0  0  0  0  0  0  0
   58.5101   28.6709   50.9606 H   0  0  0  0  0  0  0  0  0  0  0  0
   57.6932   31.6601   49.9187 H   0  0  0  0  0  0  0  0  0  0  0  0
   57.8691   33.8063   51.1867 H   0  0  0  0  0  0  0  0  0  0  0  0
   59.5193   34.0280   53.0499 H   0  0  0  0  0  0  0  0  0  0  0  0
   60.9768   32.0983   53.6651 H   0  0  0  0  0  0  0  0  0  0  0  0
   60.8151   29.9532   52.3949 H   0  0  0  0  0  0  0  0  0  0  0  0
   63.4593   30.7055   46.4895 H   0  0  0  0  0  0  0  0  0  0  0  0
   64.2001   32.5988   47.9321 H   0  0  0  0  0  0  0  0  0  0  0  0
   62.5519   33.7928   49.3785 H   0  0  0  0  0  0  0  0  0  0  0  0
   60.1558   33.0979   49.3736 H   0  0  0  0  0  0  0  0  0  0  0  0
   59.3988   31.2071   47.9344 H   0  0  0  0  0  0  0  0  0  0  0  0
   58.6421   29.8569   44.8793 H   0  0  0  0  0  0  0  0  0  0  0  0
   57.1994   30.9086   42.1898 H   0  0  0  0  0  0  0  0  0  0  0  0
   58.6149   32.9661   42.2572 H   0  0  0  0  0  0  0  0  0  0  0  0
   59.6686   34.7776   43.5644 H   0  0  0  0  0  0  0  0  0  0  0  0
   60.0706   35.8780   45.7699 H   0  0  0  0  0  0  0  0  0  0  0  0
   59.1078   34.9046   47.8541 H   0  0  0  0  0  0  0  0  0  0  0  0
   57.4310   31.7340   48.1010 H   0  0  0  0  0  0  0  0  0  0  0  0
  1  2  2  0
  2  3  1  0
  3  4  1  0
  4  5  2  0
  5  6  1  0
  6  7  2  0
  7  8  1  0
  8  9  1  0
  9 10  2  0
  9 11  2  0
  9 12  1  0
 12 13  1  0
 13 14  2  0
 14 15  1  0
 15 16  2  0
 16 17  1  0
 17 18  2  0
  7 19  1  0
 19 20  1  0
 20 21  2  0
 20 22  1  0
 22 23  2  0
 23 24  1  0
 24 25  2  0
 25 26  1  0
 26 27  2  0
 19 28  2  0
  2 29  1  0
 29 30  2  0
 30 31  1  0
 31 32  2  0
 32 33  1  0
 33 34  2  0
 34 35  1  0
 35 36  2  0
 36 37  1  0
 36 38  1  0
 38 39  2  0
 28  4  1  0
 39 29  1  0
 18 13  1  0
 27 22  1  0
 38 32  1  0
  5 40  1  0
  6 41  1  0
 12 42  1  0
 12 43  1  0
 14 44  1  0
 15 45  1  0
 16 46  1  0
 17 47  1  0
 18 48  1  0
 23 49  1  0
 24 50  1  0
 25 51  1  0
 26 52  1  0
 27 53  1  0
 28 54  1  0
 30 55  1  0
 31 56  1  0
 33 57  1  0
 34 58  1  0
 35 59  1  0
 37 60  1  0
M  CHG  2   3  -1   8  -1
M  END
>  <UniqueID>  (26) 
25

>  <SMILES>  (26) 
O=C([N-]c1ccc([N-]S(=O)(=O)Cc2ccccc2)c(C(=O)c2ccccc2)c1)c1ccc2cccc(O)c2n1

>  <Energy>  (26) 
85.63356660750475

>  <Genealogy>  (26) 
O=C([N-]c1ccc([N-]S(=O)(=O)Cc2ccccc2)c(C(=O)c2ccccc2)c1)c1ccc2cccc(O)c2n1 (protonated)
O=C([N-]c1ccc([N-]S(=O)(=O)Cc2ccccc2)c(C(=O)c2ccccc2)c1)c1ccc2cccc(O)c2n1 (3D coordinates assigned)
O=C([N-]c1ccc([N-]S(=O)(=O)Cc2ccccc2)c(C(=O)c2ccccc2)c1)c1ccc2cccc(O)c2n1 (optimized conformer: 85.63356660750475 kcal/mol)

>  <smiles>  (26) 
O=C(Nc1ccc(NS(=O)(=O)Cc2ccccc2)c(C(=O)c2ccccc2)c1)c1ccc2cccc(O)c2n1

>  <score_type>  (26) 
oracle

>  <origin>  (26) 
adg

>  <m_score__min__energy>  (26) 
-14.390000000000001

>  <m_primary>  (26) 
energy

$$$$
27:0
     RDKit          3D

 38 40  0  0  0  0  0  0  0  0999 V2000
   64.2490   33.1030   47.1360 N   0  0  0  0  0  0  0  0  0  0  0  0
   62.9860   33.2170   48.3130 S   0  0  0  0  0  0  0  0  0  0  0  0
   63.0570   34.5500   49.0030 O   0  0  0  0  0  0  0  0  0  0  0  0
   63.1590   32.1330   49.3390 O   0  0  0  0  0  0  0  0  0  0  0  0
   61.4270   33.0410   47.5160 C   0  0  0  0  0  0  0  0  0  0  0  0
   60.4790   32.1350   48.0080 C   0  0  0  0  0  0  0  0  0  0  0  0
   59.2450   31.9880   47.3680 C   0  0  0  0  0  0  0  0  0  0  0  0
   58.9420   32.7410   46.2180 C   0  0  0  0  0  0  0  0  0  0  0  0
   57.6340   32.5840   45.5390 C   0  0  0  0  0  0  0  0  0  0  0  0
   57.0650   33.5920   45.0350 O   0  0  0  0  0  0  0  0  0  0  0  0
   57.0220   31.2850   45.4560 N   0  0  0  0  0  0  0  0  0  0  0  0
   57.6210   30.1710   45.1590 C   0  0  0  0  0  0  0  0  0  0  0  0
   57.0040   28.9730   45.0660 N   0  0  0  0  0  0  0  0  0  0  0  0
   57.8720   27.9750   44.7380 C   0  0  0  0  0  0  0  0  0  0  0  0
   57.4110   26.5690   44.5880 C   0  0  0  0  0  0  0  0  0  0  0  0
   57.7570   25.7950   43.4660 C   0  0  0  0  0  0  0  0  0  0  0  0
   57.3110   24.4750   43.3450 C   0  0  0  0  0  0  0  0  0  0  0  0
   56.5070   23.8980   44.3400 C   0  0  0  0  0  0  0  0  0  0  0  0
   56.0510   22.5390   44.2120 N   0  0  0  0  0  0  0  0  0  0  0  0
   55.9200   22.0140   43.0870 O   0  0  0  0  0  0  0  0  0  0  0  0
   55.7500   21.7940   45.3290 O   0  0  0  0  0  0  0  0  0  0  0  0
   56.1550   24.6700   45.4600 C   0  0  0  0  0  0  0  0  0  0  0  0
   56.6000   25.9890   45.5820 C   0  0  0  0  0  0  0  0  0  0  0  0
   59.1970   28.3960   44.5760 C   0  0  0  0  0  0  0  0  0  0  0  0
   59.2630   30.0560   44.8480 S   0  0  0  0  0  0  0  0  0  0  0  0
   59.9030   33.6430   45.7240 C   0  0  0  0  0  0  0  0  0  0  0  0
   61.1360   33.7890   46.3680 C   0  0  0  0  0  0  0  0  0  0  0  0
   64.3490   32.0920   46.8930 H   0  0  0  0  0  0  0  0  0  0  0  0
   65.1340   33.3890   47.6120 H   0  0  0  0  0  0  0  0  0  0  0  0
   60.7066   31.5363   48.9023 H   0  0  0  0  0  0  0  0  0  0  0  0
   58.5049   31.2783   47.7662 H   0  0  0  0  0  0  0  0  0  0  0  0
   58.3848   26.2322   42.6756 H   0  0  0  0  0  0  0  0  0  0  0  0
   57.5931   23.8835   42.4615 H   0  0  0  0  0  0  0  0  0  0  0  0
   55.5238   24.2324   46.2474 H   0  0  0  0  0  0  0  0  0  0  0  0
   56.3136   26.5805   46.4641 H   0  0  0  0  0  0  0  0  0  0  0  0
   60.0498   27.7520   44.3154 H   0  0  0  0  0  0  0  0  0  0  0  0
   59.6828   34.2374   44.8250 H   0  0  0  0  0  0  0  0  0  0  0  0
   61.8807   34.4946   45.9711 H   0  0  0  0  0  0  0  0  0  0  0  0
  1  2  1  0
  2  3  2  0
  2  4  2  0
  2  5  1  0
  5  6  2  0
  6  7  1  0
  7  8  2  0
  8  9  1  0
  9 10  2  0
  9 11  1  0
 11 12  2  3
 12 13  1  0
 13 14  1  0
 14 15  1  0
 15 16  2  0
 16 17  1  0
 17 18  2  0
 18 19  1  0
 19 20  2  0
 19 21  1  0
 18 22  1  0
 22 23  2  0
 14 24  2  0
 24 25  1  0
  8 26  1  0
 26 27  2  0
 27  5  1  0
 25 12  1  0
 23 15  1  0
  1 28  1  0
  1 29  1  0
  6 30  1  0
  7 31  1  0
 16 32  1  0
 17 33  1  0
 22 34  1  0
 23 35  1  0
 24 36  1  0
 26 37  1  0
 27 38  1  0
M  CHG  3  13  -1  19   1  21  -1
M  END
>  <UniqueID>  (27) 
26

>  <SMILES>  (27) 
NS(=O)(=O)c1ccc(C(=O)N=c2[n-]c(-c3ccc([N+](=O)[O-])cc3)cs2)cc1

>  <Energy>  (27) 
75.81039748490393

>  <Genealogy>  (27) 
NS(=O)(=O)c1ccc(C(=O)N=c2[n-]c(-c3ccc([N+](=O)[O-])cc3)cs2)cc1 (protonated)
NS(=O)(=O)c1ccc(C(=O)N=c2[n-]c(-c3ccc([N+](=O)[O-])cc3)cs2)cc1 (3D coordinates assigned)
NS(=O)(=O)c1ccc(C(=O)N=c2[n-]c(-c3ccc([N+](=O)[O-])cc3)cs2)cc1 (optimized conformer: 75.81039748490393 kcal/mol)

>  <smiles>  (27) 
NS(=O)(=O)c1ccc(C(=O)N=c2[nH]c(-c3ccc([N+](=O)[O-])cc3)cs2)cc1

>  <score_type>  (27) 
oracle

>  <origin>  (27) 
adg

>  <m_score__min__energy>  (27) 
-10.23

>  <m_primary>  (27) 
energy

$$$$
28:0
     RDKit          3D

 30 31  0  0  0  0  0  0  0  0999 V2000
   53.7700   24.3120   45.3780 C   0  0  0  0  0  0  0  0  0  0  0  0
   54.7560   25.1540   45.9400 O   0  0  0  0  0  0  0  0  0  0  0  0
   56.0880   24.8020   45.8200 C   0  0  0  0  0  0  0  0  0  0  0  0
   56.4470   23.4790   45.7340 C   0  0  0  0  0  0  0  0  0  0  0  0
   57.7420   23.0420   45.6140 C   0  0  0  0  0  0  0  0  0  0  0  0
   58.7210   24.0270   45.5800 C   0  0  0  0  0  0  0  0  0  0  0  0
   58.3560   25.3760   45.6680 C   0  0  0  0  0  0  0  0  0  0  0  0
   57.0590   25.7920   45.7870 C   0  0  0  0  0  0  0  0  0  0  0  0
   56.6290   27.1330   45.8790 N   0  0  0  0  0  0  0  0  0  0  0  0
   57.1970   28.2280   45.1810 C   0  0  0  0  0  0  0  0  0  0  0  0
   58.1510   28.1450   44.3950 O   0  0  0  0  0  0  0  0  0  0  0  0
   56.6490   29.5520   45.3750 N   0  0  0  0  0  0  0  0  0  0  0  0
   57.2640   30.6120   44.6430 C   0  0  0  0  0  0  0  0  0  0  0  0
   57.4370   31.9360   45.0520 C   0  0  0  0  0  0  0  0  0  0  0  0
   58.0740   32.5460   44.0000 C   0  0  0  0  0  0  0  0  0  0  0  0
   58.4120   33.7740   43.9830 O   0  0  0  0  0  0  0  0  0  0  0  0
   58.2750   31.6370   43.0050 N   0  0  0  0  0  0  0  0  0  0  0  0
   57.7830   30.4660   43.3990 N   0  0  0  0  0  0  0  0  0  0  0  0
   53.2005   23.8257   46.1837 H   0  0  0  0  0  0  0  0  0  0  0  0
   53.0877   24.9104   44.7564 H   0  0  0  0  0  0  0  0  0  0  0  0
   54.2542   23.5444   44.7564 H   0  0  0  0  0  0  0  0  0  0  0  0
   55.6476   22.7239   45.7631 H   0  0  0  0  0  0  0  0  0  0  0  0
   57.9909   21.9725   45.5484 H   0  0  0  0  0  0  0  0  0  0  0  0
   59.7807   23.7478   45.4842 H   0  0  0  0  0  0  0  0  0  0  0  0
   59.1500   26.1368   45.6401 H   0  0  0  0  0  0  0  0  0  0  0  0
   55.8250   27.3670   46.5090 H   0  0  0  0  0  0  0  0  0  0  0  0
   55.8470   29.7240   46.0160 H   0  0  0  0  0  0  0  0  0  0  0  0
   57.1306   32.3897   46.0061 H   0  0  0  0  0  0  0  0  0  0  0  0
   58.7440   31.8150   42.0690 H   0  0  0  0  0  0  0  0  0  0  0  0
   57.8230   29.6230   42.8050 H   0  0  0  0  0  0  0  0  0  0  0  0
  1  2  1  0
  2  3  1  0
  3  4  2  0
  4  5  1  0
  5  6  2  0
  6  7  1  0
  7  8  2  0
  8  9  1  0
  9 10  1  0
 10 11  2  0
 10 12  1  0
 12 13  1  0
 13 14  2  0
 14 15  1  0
 15 16  2  0
 15 17  1  0
 17 18  1  0
  8  3  1  0
 18 13  1  0
  1 19  1  0
  1 20  1  0
  1 21  1  0
  4 22  1  0
  5 23  1  0
  6 24  1  0
  7 25  1  0
  9 26  1  0
 12 27  1  0
 14 28  1  0
 17 29  1  0
 18 30  1  0
M  END
>  <smiles>  (28) 
COc1ccccc1NC(=O)Nc1cc(=O)[nH][nH]1

>  <score_type>  (28) 
oracle

>  <origin>  (28) 
adg

>  <m_score__min__energy>  (28) 
-6.1900000000000004

>  <m_primary>  (28) 
energy

$$$$
29:0
     RDKit          3D

 70 74  0  0  0  0  0  0  0  0999 V2000
   57.8200   34.2110   47.0080 O   0  0  0  0  0  0  0  0  0  0  0  0
   59.0940   34.0030   46.2400 S   0  0  0  0  0  0  0  0  0  0  0  0
   59.5150   35.3310   45.6760 O   0  0  0  0  0  0  0  0  0  0  0  0
   58.8440   32.8930   44.9290 N   0  0  0  0  0  0  0  0  0  0  0  0
   57.9740   31.7460   45.0020 C   0  0  0  0  0  0  0  0  0  0  0  0
   56.9030   31.5670   44.1050 C   0  0  0  0  0  0  0  0  0  0  0  0
   56.0930   30.4300   44.1890 C   0  0  0  0  0  0  0  0  0  0  0  0
   56.3420   29.4590   45.1640 C   0  0  0  0  0  0  0  0  0  0  0  0
   55.5370   28.3270   45.2400 O   0  0  0  0  0  0  0  0  0  0  0  0
   57.4060   29.6240   46.0550 C   0  0  0  0  0  0  0  0  0  0  0  0
   58.2230   30.7570   45.9700 C   0  0  0  0  0  0  0  0  0  0  0  0
   60.3720   33.4010   47.2950 C   0  0  0  0  0  0  0  0  0  0  0  0
   60.2860   33.5620   48.6820 C   0  0  0  0  0  0  0  0  0  0  0  0
   61.2890   33.0570   49.5140 C   0  0  0  0  0  0  0  0  0  0  0  0
   62.4050   32.3910   48.9700 C   0  0  0  0  0  0  0  0  0  0  0  0
   63.4730   31.8470   49.8540 C   0  0  0  0  0  0  0  0  0  0  0  0
   63.1590   30.9360   50.8800 C   0  0  0  0  0  0  0  0  0  0  0  0
   64.1610   30.4210   51.7090 C   0  0  0  0  0  0  0  0  0  0  0  0
   65.4980   30.8260   51.5400 C   0  0  0  0  0  0  0  0  0  0  0  0
   66.5350   30.3710   52.3660 O   0  0  0  0  0  0  0  0  0  0  0  0
   67.7860   29.8720   51.9040 C   0  0  0  0  0  0  0  0  0  0  0  0
   67.6030   28.4790   51.3910 C   0  0  0  0  0  0  0  0  0  0  0  0
   68.6090   27.7800   50.2360 S   0  0  0  0  0  0  0  0  0  0  0  0
   67.7670   26.3330   50.0920 C   0  0  0  0  0  0  0  0  0  0  0  0
   66.6760   26.3780   50.9470 C   0  0  0  0  0  0  0  0  0  0  0  0
   66.5860   27.5600   51.6940 C   0  0  0  0  0  0  0  0  0  0  0  0
   65.5410   27.7370   52.6170 O   0  0  0  0  0  0  0  0  0  0  0  0
   64.1760   27.3650   52.4080 C   0  0  1  0  0  0  0  0  0  0  0  0
   64.0770   25.9560   52.4380 O   0  0  0  0  0  0  0  0  0  0  0  0
   62.8190   25.5040   51.9360 C   0  0  1  0  0  0  0  0  0  0  0  0
   62.6000   24.0710   52.4460 C   0  0  0  0  0  0  0  0  0  0  0  0
   63.3930   23.8470   53.5810 O   0  0  0  0  0  0  0  0  0  0  0  0
   61.6210   26.4510   52.3010 C   0  0  1  0  0  0  0  0  0  0  0  0
   60.4060   25.7540   52.4160 O   0  0  0  0  0  0  0  0  0  0  0  0
   61.9140   27.2000   53.6090 C   0  0  2  0  0  0  0  0  0  0  0  0
   60.8710   28.1020   53.8740 O   0  0  0  0  0  0  0  0  0  0  0  0
   63.2660   27.9600   53.5160 C   0  0  1  0  0  0  0  0  0  0  0  0
   63.9120   27.9520   54.7660 O   0  0  0  0  0  0  0  0  0  0  0  0
   65.8130   31.7290   50.5180 C   0  0  0  0  0  0  0  0  0  0  0  0
   64.8160   32.2320   49.6790 C   0  0  0  0  0  0  0  0  0  0  0  0
   62.4850   32.2400   47.5730 C   0  0  0  0  0  0  0  0  0  0  0  0
   61.4730   32.7330   46.7460 C   0  0  0  0  0  0  0  0  0  0  0  0
   59.4960   32.9750   44.1160 H   0  0  0  0  0  0  0  0  0  0  0  0
   56.7025   32.3257   43.3341 H   0  0  0  0  0  0  0  0  0  0  0  0
   55.2573   30.2991   43.4858 H   0  0  0  0  0  0  0  0  0  0  0  0
   57.6015   28.8623   46.8241 H   0  0  0  0  0  0  0  0  0  0  0  0
   59.0667   30.8748   46.6660 H   0  0  0  0  0  0  0  0  0  0  0  0
   59.4250   34.0884   49.1197 H   0  0  0  0  0  0  0  0  0  0  0  0
   61.2063   33.1807   50.6039 H   0  0  0  0  0  0  0  0  0  0  0  0
   62.1146   30.6258   51.0315 H   0  0  0  0  0  0  0  0  0  0  0  0
   63.9030   29.6969   52.4958 H   0  0  0  0  0  0  0  0  0  0  0  0
   68.1621   30.5152   51.0948 H   0  0  0  0  0  0  0  0  0  0  0  0
   68.5098   29.8677   52.7323 H   0  0  0  0  0  0  0  0  0  0  0  0
   68.0351   25.4942   49.4328 H   0  0  0  0  0  0  0  0  0  0  0  0
   65.9465   25.5590   51.0312 H   0  0  0  0  0  0  0  0  0  0  0  0
   63.8465   27.7562   51.4341 H   0  0  0  0  0  0  0  0  0  0  0  0
   62.8484   25.5194   50.8365 H   0  0  0  0  0  0  0  0  0  0  0  0
   61.5403   23.9338   52.7074 H   0  0  0  0  0  0  0  0  0  0  0  0
   62.8815   23.3568   51.6581 H   0  0  0  0  0  0  0  0  0  0  0  0
   63.9620   24.6550   53.6840 H   0  0  0  0  0  0  0  0  0  0  0  0
   61.5159   27.1705   51.4756 H   0  0  0  0  0  0  0  0  0  0  0  0
   59.8870   26.2000   53.1370 H   0  0  0  0  0  0  0  0  0  0  0  0
   61.9860   26.4701   54.4288 H   0  0  0  0  0  0  0  0  0  0  0  0
   60.0600   27.7390   53.4270 H   0  0  0  0  0  0  0  0  0  0  0  0
   63.0578   29.0036   53.2374 H   0  0  0  0  0  0  0  0  0  0  0  0
   64.8100   27.5490   54.6370 H   0  0  0  0  0  0  0  0  0  0  0  0
   66.8565   32.0458   50.3741 H   0  0  0  0  0  0  0  0  0  0  0  0
   65.0821   32.9343   48.8753 H   0  0  0  0  0  0  0  0  0  0  0  0
   63.3520   31.7293   47.1286 H   0  0  0  0  0  0  0  0  0  0  0  0
   61.5416   32.5955   45.6568 H   0  0  0  0  0  0  0  0  0  0  0  0
  1  2  2  0
  2  3  2  0
  2  4  1  0
  4  5  1  0
  5  6  2  0
  6  7  1  0
  7  8  2  0
  8  9  1  0
  8 10  1  0
 10 11  2  0
  2 12  1  0
 12 13  2  0
 13 14  1  0
 14 15  2  0
 15 16  1  0
 16 17  2  0
 17 18  1  0
 18 19  2  0
 19 20  1  0
 20 21  1  0
 21 22  1  0
 22 23  1  0
 23 24  1  0
 24 25  2  0
 25 26  1  0
 26 27  1  0
 27 28  1  0
 28 29  1  0
 29 30  1  0
 30 31  1  0
 31 32  1  0
 30 33  1  0
 33 34  1  0
 33 35  1  0
 35 36  1  0
 35 37  1  0
 37 38  1  0
 19 39  1  0
 39 40  2  0
 15 41  1  0
 41 42  2  0
 11  5  1  0
 42 12  1  0
 40 16  1  0
 26 22  2  0
 37 28  1  0
  4 43  1  0
  6 44  1  0
  7 45  1  0
 10 46  1  0
 11 47  1  0
 13 48  1  0
 14 49  1  0
 17 50  1  0
 18 51  1  0
 21 52  1  0
 21 53  1  0
 24 54  1  0
 25 55  1  0
 28 56  1  6
 30 57  1  6
 31 58  1  0
 31 59  1  0
 32 60  1  0
 33 61  1  6
 34 62  1  0
 35 63  1  1
 36 64  1  0
 37 65  1  6
 38 66  1  0
 39 67  1  0
 40 68  1  0
 41 69  1  0
 42 70  1  0
M  CHG  1   9  -1
M  END
>  <UniqueID>  (29) 
27

>  <SMILES>  (29) 
O=S(=O)(Nc1ccc([O-])cc1)c1ccc(-c2ccc(OCc3sccc3O[C@H]3O[C@@H](CO)C(O)C(O)C3O)cc2)cc1

>  <Energy>  (29) 
121.83202603009137

>  <Genealogy>  (29) 
O=S(=O)(Nc1ccc([O-])cc1)c1ccc(-c2ccc(OCc3sccc3OC3OC(CO)C(O)C(O)C3O)cc2)cc1 (protonated)
O=S(=O)(Nc1ccc([O-])cc1)c1ccc(-c2ccc(OCc3sccc3O[C@H]3O[C@@H](CO)C(O)C(O)C3O)cc2)cc1 (chirality)
O=S(=O)(Nc1ccc([O-])cc1)c1ccc(-c2ccc(OCc3sccc3O[C@H]3O[C@@H](CO)C(O)C(O)C3O)cc2)cc1 (3D coordinates assigned)
O=S(=O)(Nc1ccc([O-])cc1)c1ccc(-c2ccc(OCc3sccc3O[C@H]3O[C@@H](CO)C(O)C(O)C3O)cc2)cc1 (nonaromatic ring conformer: 121.83202603009137 kcal/mol)

>  <smiles>  (29) 
O=S(=O)(Nc1ccc(O)cc1)c1ccc(-c2ccc(OCc3sccc3OC3OC(CO)C(O)C(O)C3O)cc2)cc1

>  <score_type>  (29) 
oracle

>  <origin>  (29) 
adg

>  <m_score__min__energy>  (29) 
-13.4

>  <m_primary>  (29) 
energy

$$$$
30:0
     RDKit          3D

 50 52  0  0  0  0  0  0  0  0999 V2000
   55.1430   23.5090   46.9160 C   0  0  0  0  0  0  0  0  0  0  0  0
   54.4730   24.5580   45.6410 S   0  0  0  0  0  0  0  0  0  0  0  0
   52.9830   24.3790   45.5240 O   0  0  0  0  0  0  0  0  0  0  0  0
   55.1030   24.1690   44.3340 O   0  0  0  0  0  0  0  0  0  0  0  0
   54.8600   26.2200   45.9600 N   0  0  0  0  0  0  0  0  0  0  0  0
   56.1200   26.8980   45.8110 C   0  0  0  0  0  0  0  0  0  0  0  0
   57.2730   26.1910   46.1820 C   0  0  0  0  0  0  0  0  0  0  0  0
   58.5380   26.7730   46.0700 C   0  0  0  0  0  0  0  0  0  0  0  0
   58.6750   28.0760   45.5760 C   0  0  0  0  0  0  0  0  0  0  0  0
   60.0440   28.6880   45.4380 C   0  0  0  0  0  0  0  0  0  0  0  0
   60.1160   29.9470   46.1750 N   0  0  0  0  0  0  0  0  0  0  0  0
   59.8300   30.0400   47.5760 C   0  0  0  0  0  0  0  0  0  0  0  0
   59.5630   29.0020   48.2380 O   0  0  0  0  0  0  0  0  0  0  0  0
   59.8990   31.3180   48.2180 N   0  0  0  0  0  0  0  0  0  0  0  0
   59.5320   32.5850   47.6510 C   0  0  0  0  0  0  0  0  0  0  0  0
   58.2980   32.7690   46.9960 C   0  0  0  0  0  0  0  0  0  0  0  0
   57.9900   33.9940   46.4020 C   0  0  0  0  0  0  0  0  0  0  0  0
   58.9120   35.0420   46.4380 C   0  0  0  0  0  0  0  0  0  0  0  0
   60.1470   34.8650   47.0640 C   0  0  0  0  0  0  0  0  0  0  0  0
   60.4660   33.6410   47.6710 C   0  0  0  0  0  0  0  0  0  0  0  0
   61.7380   33.4700   48.3160 N   0  0  0  0  0  0  0  0  0  0  0  0
   62.7880   32.6970   47.6490 C   0  0  0  0  0  0  0  0  0  0  0  0
   64.1590   33.1750   48.1370 C   0  0  0  0  0  0  0  0  0  0  0  0
   64.2250   33.1540   49.5520 O   0  0  0  0  0  0  0  0  0  0  0  0
   63.3060   34.0900   50.0880 C   0  0  0  0  0  0  0  0  0  0  0  0
   61.8640   33.6900   49.7570 C   0  0  0  0  0  0  0  0  0  0  0  0
   57.5300   28.7880   45.1920 C   0  0  0  0  0  0  0  0  0  0  0  0
   56.2590   28.2100   45.3010 C   0  0  0  0  0  0  0  0  0  0  0  0
   55.1660   28.9550   44.8840 O   0  0  0  0  0  0  0  0  0  0  0  0
   54.8814   23.9186   47.9028 H   0  0  0  0  0  0  0  0  0  0  0  0
   54.7237   22.4970   46.8161 H   0  0  0  0  0  0  0  0  0  0  0  0
   56.2375   23.4639   46.8161 H   0  0  0  0  0  0  0  0  0  0  0  0
   57.1800   25.1645   46.5663 H   0  0  0  0  0  0  0  0  0  0  0  0
   59.4306   26.2051   46.3713 H   0  0  0  0  0  0  0  0  0  0  0  0
   60.7947   27.9905   45.8380 H   0  0  0  0  0  0  0  0  0  0  0  0
   60.2406   28.8859   44.3740 H   0  0  0  0  0  0  0  0  0  0  0  0
   60.3890   30.8150   45.6600 H   0  0  0  0  0  0  0  0  0  0  0  0
   57.5733   31.9426   46.9526 H   0  0  0  0  0  0  0  0  0  0  0  0
   57.0190   34.1341   45.9045 H   0  0  0  0  0  0  0  0  0  0  0  0
   58.6650   36.0077   45.9728 H   0  0  0  0  0  0  0  0  0  0  0  0
   60.8744   35.6900   47.0815 H   0  0  0  0  0  0  0  0  0  0  0  0
   62.6654   31.6300   47.8866 H   0  0  0  0  0  0  0  0  0  0  0  0
   62.7148   32.8401   46.5608 H   0  0  0  0  0  0  0  0  0  0  0  0
   64.9375   32.5131   47.7299 H   0  0  0  0  0  0  0  0  0  0  0  0
   64.3155   34.2078   47.7921 H   0  0  0  0  0  0  0  0  0  0  0  0
   63.4274   34.1290   51.1806 H   0  0  0  0  0  0  0  0  0  0  0  0
   63.5085   35.0758   49.6440 H   0  0  0  0  0  0  0  0  0  0  0  0
   61.6079   32.7643   50.2931 H   0  0  0  0  0  0  0  0  0  0  0  0
   61.1800   34.4939   50.0666 H   0  0  0  0  0  0  0  0  0  0  0  0
   57.6309   29.8112   44.8011 H   0  0  0  0  0  0  0  0  0  0  0  0
  1  2  1  0
  2  3  2  0
  2  4  2  0
  2  5  1  0
  5  6  1  0
  6  7  2  0
  7  8  1  0
  8  9  2  0
  9 10  1  0
 10 11  1  0
 11 12  1  0
 12 13  2  0
 12 14  1  0
 14 15  1  0
 15 16  2  0
 16 17  1  0
 17 18  2  0
 18 19  1  0
 19 20  2  0
 20 21  1  0
 21 22  1  0
 22 23  1  0
 23 24  1  0
 24 25  1  0
 25 26  1  0
  9 27  1  0
 27 28  2  0
 28 29  1  0
 28  6  1  0
 20 15  1  0
 26 21  1  0
  1 30  1  0
  1 31  1  0
  1 32  1  0
  7 33  1  0
  8 34  1  0
 10 35  1  0
 10 36  1  0
 11 37  1  0
 16 38  1  0
 17 39  1  0
 18 40  1  0
 19 41  1  0
 22 42  1  0
 22 43  1  0
 23 44  1  0
 23 45  1  0
 25 46  1  0
 25 47  1  0
 26 48  1  0
 26 49  1  0
 27 50  1  0
M  CHG  3   5  -1  14  -1  29  -1
M  END
>  <UniqueID>  (30) 
28

>  <SMILES>  (30) 
CS(=O)(=O)[N-]c1ccc(CNC(=O)[N-]c2ccccc2N2CCOCC2)cc1[O-]

>  <Energy>  (30) 
60.71284790342345

>  <Genealogy>  (30) 
CS(=O)(=O)[N-]c1ccc(CNC(=O)[N-]c2ccccc2N2CCOCC2)cc1[O-] (protonated)
CS(=O)(=O)[N-]c1ccc(CNC(=O)[N-]c2ccccc2N2CCOCC2)cc1[O-] (3D coordinates assigned)
CS(=O)(=O)[N-]c1ccc(CNC(=O)[N-]c2ccccc2N2CCOCC2)cc1[O-] (nonaromatic ring conformer: 60.71284790342345 kcal/mol)

>  <smiles>  (30) 
CS(=O)(=O)Nc1ccc(CNC(=O)Nc2ccccc2N2CCOCC2)cc1O

>  <score_type>  (30) 
oracle

>  <origin>  (30) 
adg

>  <m_score__min__energy>  (30) 
-15.65

>  <m_primary>  (30) 
energy

$$$$
31:0
     RDKit          3D

 51 54  0  0  0  0  0  0  0  0999 V2000
   61.3580   34.5290   49.2630 C   0  0  0  0  0  0  0  0  0  0  0  0
   59.9930   33.8810   49.0000 C   0  0  0  0  0  0  0  0  0  0  0  0
   59.2680   34.5690   47.8380 C   0  0  0  0  0  0  0  0  0  0  0  0
   60.1300   32.3960   48.7570 C   0  0  0  0  0  0  0  0  0  0  0  0
   59.0050   31.5590   48.6730 C   0  0  0  0  0  0  0  0  0  0  0  0
   59.1800   30.1920   48.4510 C   0  0  0  0  0  0  0  0  0  0  0  0
   60.4710   29.6640   48.3120 C   0  0  0  0  0  0  0  0  0  0  0  0
   60.6830   28.1880   48.0960 C   0  0  0  0  0  0  0  0  0  0  0  0
   60.9330   27.8820   46.6680 N   0  0  0  0  0  0  0  0  0  0  0  0
   60.9410   26.4370   46.3550 C   0  0  0  0  0  0  0  0  0  0  0  0
   59.5830   25.7710   46.6180 C   0  0  0  0  0  0  0  0  0  0  0  0
   58.4080   26.6200   46.1740 C   0  0  0  0  0  0  0  0  0  0  0  0
   58.6020   27.9710   45.8050 C   0  0  0  0  0  0  0  0  0  0  0  0
   57.5130   28.7360   45.3670 C   0  0  0  0  0  0  0  0  0  0  0  0
   56.2310   28.1890   45.3280 C   0  0  0  0  0  0  0  0  0  0  0  0
   55.1640   28.9640   44.8900 O   0  0  0  0  0  0  0  0  0  0  0  0
   56.0190   26.8690   45.7320 C   0  0  0  0  0  0  0  0  0  0  0  0
   54.7290   26.3440   45.7070 O   0  0  0  0  0  0  0  0  0  0  0  0
   57.0980   26.0820   46.1710 C   0  0  0  0  0  0  0  0  0  0  0  0
   56.8370   24.7060   46.6390 C   0  0  0  0  0  0  0  0  0  0  0  0
   56.5550   24.5100   47.8510 O   0  0  0  0  0  0  0  0  0  0  0  0
   56.9220   23.5650   45.7120 C   0  0  0  0  0  0  0  0  0  0  0  0
   56.3840   23.5150   44.4310 C   0  0  0  0  0  0  0  0  0  0  0  0
   56.6170   22.2970   43.7790 C   0  0  0  0  0  0  0  0  0  0  0  0
   57.3320   21.3830   44.5420 C   0  0  0  0  0  0  0  0  0  0  0  0
   57.6750   22.0900   46.0270 S   0  0  0  0  0  0  0  0  0  0  0  0
   59.9830   28.5860   45.7860 C   0  0  0  0  0  0  0  0  0  0  0  0
   61.5670   30.5310   48.4040 C   0  0  0  0  0  0  0  0  0  0  0  0
   61.3730   31.8590   48.6210 N   0  0  0  0  0  0  0  0  0  0  0  0
   61.5237   34.6076   50.3476 H   0  0  0  0  0  0  0  0  0  0  0  0
   62.1498   33.9107   48.8150 H   0  0  0  0  0  0  0  0  0  0  0  0
   61.3795   35.5334   48.8150 H   0  0  0  0  0  0  0  0  0  0  0  0
   59.3796   34.0156   49.9031 H   0  0  0  0  0  0  0  0  0  0  0  0
   58.5242   35.2748   48.2363 H   0  0  0  0  0  0  0  0  0  0  0  0
   59.9980   35.1145   47.2219 H   0  0  0  0  0  0  0  0  0  0  0  0
   58.7615   33.8115   47.2219 H   0  0  0  0  0  0  0  0  0  0  0  0
   57.9936   31.9777   48.7814 H   0  0  0  0  0  0  0  0  0  0  0  0
   58.3047   29.5291   48.3851 H   0  0  0  0  0  0  0  0  0  0  0  0
   61.5492   27.8600   48.6894 H   0  0  0  0  0  0  0  0  0  0  0  0
   59.7720   27.6574   48.4098 H   0  0  0  0  0  0  0  0  0  0  0  0
   61.1977   26.3075   45.2932 H   0  0  0  0  0  0  0  0  0  0  0  0
   61.6815   25.9569   47.0116 H   0  0  0  0  0  0  0  0  0  0  0  0
   59.5503   24.8158   46.0734 H   0  0  0  0  0  0  0  0  0  0  0  0
   59.4926   25.6288   47.7050 H   0  0  0  0  0  0  0  0  0  0  0  0
   57.6708   29.7777   45.0510 H   0  0  0  0  0  0  0  0  0  0  0  0
   55.8304   24.3489   43.9747 H   0  0  0  0  0  0  0  0  0  0  0  0
   56.2664   22.0845   42.7582 H   0  0  0  0  0  0  0  0  0  0  0  0
   57.6237   20.3699   44.2279 H   0  0  0  0  0  0  0  0  0  0  0  0
   60.3685   28.5531   44.7563 H   0  0  0  0  0  0  0  0  0  0  0  0
   59.8914   29.6186   46.1539 H   0  0  0  0  0  0  0  0  0  0  0  0
   62.5884   30.1361   48.3003 H   0  0  0  0  0  0  0  0  0  0  0  0
  1  2  1  0
  2  3  1  0
  2  4  1  0
  4  5  2  0
  5  6  1  0
  6  7  2  0
  7  8  1  0
  8  9  1  0
  9 10  1  0
 10 11  1  0
 11 12  1  0
 12 13  2  0
 13 14  1  0
 14 15  2  0
 15 16  1  0
 15 17  1  0
 17 18  1  0
 17 19  2  0
 19 20  1  0
 20 21  2  0
 20 22  1  0
 22 23  2  0
 23 24  1  0
 24 25  2  0
 25 26  1  0
 13 27  1  0
  7 28  1  0
 28 29  2  0
 29  4  1  0
 27  9  1  0
 19 12  1  0
 26 22  1  0
  1 30  1  0
  1 31  1  0
  1 32  1  0
  2 33  1  0
  3 34  1  0
  3 35  1  0
  3 36  1  0
  5 37  1  0
  6 38  1  0
  8 39  1  0
  8 40  1  0
 10 41  1  0
 10 42  1  0
 11 43  1  0
 11 44  1  0
 14 45  1  0
 23 46  1  0
 24 47  1  0
 25 48  1  0
 27 49  1  0
 27 50  1  0
 28 51  1  0
M  CHG  2  16  -1  18  -1
M  END
>  <UniqueID>  (31) 
29

>  <SMILES>  (31) 
CC(C)c1ccc(CN2CCc3c(cc([O-])c([O-])c3C(=O)c3cccs3)C2)cn1

>  <Energy>  (31) 
90.43369611630308

>  <Genealogy>  (31) 
CC(C)c1ccc(CN2CCc3c(cc([O-])c([O-])c3C(=O)c3cccs3)C2)cn1 (protonated)
CC(C)c1ccc(CN2CCc3c(cc([O-])c([O-])c3C(=O)c3cccs3)C2)cn1 (3D coordinates assigned)
CC(C)c1ccc(CN2CCc3c(cc([O-])c([O-])c3C(=O)c3cccs3)C2)cn1 (nonaromatic ring conformer: 90.43369611630308 kcal/mol)

>  <smiles>  (31) 
CC(C)c1ccc(CN2CCc3c(cc(O)c(O)c3C(=O)c3cccs3)C2)cn1

>  <score_type>  (31) 
oracle

>  <origin>  (31) 
adg

>  <m_score__min__energy>  (31) 
-14.84

>  <m_primary>  (31) 
energy

$$$$
32:0
     RDKit          3D

 68 71  0  0  0  0  0  0  0  0999 V2000
   57.0559   33.1264   43.1021 H   0  0  0  0  0  0  0  0  0  0  0  0
   57.6940   32.5160   43.7580 C   0  0  0  0  0  0  0  0  0  0  0  0
   57.9570   31.2610   43.3750 C   0  0  0  0  0  0  0  0  0  0  0  0
   58.7970   31.1092   42.6813 H   0  0  0  0  0  0  0  0  0  0  0  0
   57.0620   29.8270   43.8950 S   0  0  0  0  0  0  0  0  0  0  0  0
   56.3160   30.0950   45.1720 O   0  0  0  0  0  0  0  0  0  0  0  0
   56.0580   29.4940   42.8280 O   0  0  0  0  0  0  0  0  0  0  0  0
   58.1490   28.4270   44.1150 C   0  0  0  0  0  0  0  0  0  0  0  0
   58.8283   28.3558   43.2527 H   0  0  0  0  0  0  0  0  0  0  0  0
   57.5433   27.5122   44.1936 H   0  0  0  0  0  0  0  0  0  0  0  0
   58.9580   28.5880   45.3720 C   0  0  0  0  0  0  0  0  0  0  0  0
   59.3100   27.4660   46.1330 C   0  0  0  0  0  0  0  0  0  0  0  0
   59.0459   26.4589   45.7781 H   0  0  0  0  0  0  0  0  0  0  0  0
   59.9940   27.6200   47.3390 C   0  0  0  0  0  0  0  0  0  0  0  0
   60.2868   26.7317   47.9180 H   0  0  0  0  0  0  0  0  0  0  0  0
   60.3120   28.9030   47.8200 C   0  0  0  0  0  0  0  0  0  0  0  0
   61.0200   29.0860   49.0590 N   0  0  0  0  0  0  0  0  0  0  0  0
   60.7560   28.5100   50.1950 C   0  0  0  0  0  0  0  0  0  0  0  0
   59.9450   29.1000   51.1140 N   0  0  0  0  0  0  0  0  0  0  0  0
   59.6950   28.5200   52.3160 C   0  0  0  0  0  0  0  0  0  0  0  0
   58.8240   29.1640   53.2060 O   0  0  0  0  0  0  0  0  0  0  0  0
   57.5520   29.6570   52.8830 C   0  0  0  0  0  0  0  0  0  0  0  0
   56.3810   28.9220   53.1390 C   0  0  0  0  0  0  0  0  0  0  0  0
   56.4499   27.9232   53.5947 H   0  0  0  0  0  0  0  0  0  0  0  0
   55.1300   29.4550   52.8170 C   0  0  0  0  0  0  0  0  0  0  0  0
   54.2205   28.8688   53.0149 H   0  0  0  0  0  0  0  0  0  0  0  0
   55.0240   30.7280   52.2450 C   0  0  0  0  0  0  0  0  0  0  0  0
   53.7470   31.2140   51.9320 O   0  0  0  0  0  0  0  0  0  0  0  0
   52.7710   30.4920   51.1860 C   0  0  0  0  0  0  0  0  0  0  0  0
   52.0833   29.9833   51.8776 H   0  0  0  0  0  0  0  0  0  0  0  0
   52.2040   31.1897   50.5522 H   0  0  0  0  0  0  0  0  0  0  0  0
   53.2722   29.7456   50.5522 H   0  0  0  0  0  0  0  0  0  0  0  0
   56.1960   31.4720   52.0070 C   0  0  0  0  0  0  0  0  0  0  0  0
   56.1264   32.4766   51.5644 H   0  0  0  0  0  0  0  0  0  0  0  0
   57.4480   30.9390   52.3310 C   0  0  0  0  0  0  0  0  0  0  0  0
   58.3571   31.5315   52.1507 H   0  0  0  0  0  0  0  0  0  0  0  0
   60.2740   27.2790   52.6140 C   0  0  0  0  0  0  0  0  0  0  0  0
   60.0671   26.7819   53.5732 H   0  0  0  0  0  0  0  0  0  0  0  0
   61.1240   26.6790   51.6670 C   0  0  0  0  0  0  0  0  0  0  0  0
   61.7650   25.4050   51.9170 N   0  0  0  0  0  0  0  0  0  0  0  0
   60.9980   24.2430   52.3820 C   0  0  0  0  0  0  0  0  0  0  0  0
   60.9874   24.2269   53.4818 H   0  0  0  0  0  0  0  0  0  0  0  0
   59.9663   24.3104   52.0063 H   0  0  0  0  0  0  0  0  0  0  0  0
   61.4655   23.3209   52.0063 H   0  0  0  0  0  0  0  0  0  0  0  0
   63.2090   25.2790   51.6900 C   0  0  0  0  0  0  0  0  0  0  0  0
   63.7297   25.2336   52.6579 H   0  0  0  0  0  0  0  0  0  0  0  0
   63.4119   24.3597   51.1210 H   0  0  0  0  0  0  0  0  0  0  0  0
   63.5680   26.1492   51.1210 H   0  0  0  0  0  0  0  0  0  0  0  0
   61.3410   27.3200   50.4850 N   0  0  0  0  0  0  0  0  0  0  0  0
   59.9910   30.0320   47.0480 C   0  0  0  0  0  0  0  0  0  0  0  0
   60.3580   31.2990   47.5310 O   0  0  0  0  0  0  0  0  0  0  0  0
   61.6840   31.8180   47.5100 C   0  0  0  0  0  0  0  0  0  0  0  0
   62.0396   31.9572   48.5416 H   0  0  0  0  0  0  0  0  0  0  0  0
   62.3456   31.1125   46.9861 H   0  0  0  0  0  0  0  0  0  0  0  0
   61.6909   32.7852   46.9861 H   0  0  0  0  0  0  0  0  0  0  0  0
   59.3030   29.8690   45.8300 C   0  0  0  0  0  0  0  0  0  0  0  0
   59.0339   30.7527   45.2329 H   0  0  0  0  0  0  0  0  0  0  0  0
   58.1970   33.1390   44.9940 C   0  0  0  0  0  0  0  0  0  0  0  0
   59.1510   34.1680   44.9470 C   0  0  0  0  0  0  0  0  0  0  0  0
   59.5485   34.5038   43.9779 H   0  0  0  0  0  0  0  0  0  0  0  0
   59.5970   34.7670   46.1290 C   0  0  0  0  0  0  0  0  0  0  0  0
   60.3572   35.5611   46.0893 H   0  0  0  0  0  0  0  0  0  0  0  0
   59.0780   34.3580   47.3620 C   0  0  0  0  0  0  0  0  0  0  0  0
   59.5090   34.9410   48.5060 F   0  0  0  0  0  0  0  0  0  0  0  0
   58.1070   33.3530   47.4120 C   0  0  0  0  0  0  0  0  0  0  0  0
   57.6939   33.0358   48.3809 H   0  0  0  0  0  0  0  0  0  0  0  0
   57.6600   32.7500   46.2300 C   0  0  0  0  0  0  0  0  0  0  0  0
   56.8860   31.9695   46.2708 H   0  0  0  0  0  0  0  0  0  0  0  0
  1  2  1  0
  2  3  2  0
  3  4  1  0
  3  5  1  0
  5  6  2  0
  5  7  2  0
  5  8  1  0
  8  9  1  0
  8 10  1  0
  8 11  1  0
 11 12  2  0
 12 13  1  0
 12 14  1  0
 14 15  1  0
 14 16  2  0
 16 17  1  0
 17 18  2  3
 18 19  1  0
 19 20  2  0
 20 21  1  0
 21 22  1  0
 22 23  2  0
 23 24  1  0
 23 25  1  0
 25 26  1  0
 25 27  2  0
 27 28  1  0
 28 29  1  0
 29 30  1  0
 29 31  1  0
 29 32  1  0
 27 33  1  0
 33 34  1  0
 33 35  2  0
 35 36  1  0
 20 37  1  0
 37 38  1  0
 37 39  2  0
 39 40  1  0
 40 41  1  0
 41 42  1  0
 41 43  1  0
 41 44  1  0
 40 45  1  0
 45 46  1  0
 45 47  1  0
 45 48  1  0
 39 49  1  0
 16 50  1  0
 50 51  1  0
 51 52  1  0
 52 53  1  0
 52 54  1  0
 52 55  1  0
 50 56  2  0
 56 57  1  0
  2 58  1  0
 58 59  2  0
 59 60  1  0
 59 61  1  0
 61 62  1  0
 61 63  2  0
 63 64  1  0
 63 65  1  0
 65 66  1  0
 65 67  2  0
 67 68  1  0
 56 11  1  0
 67 58  1  0
 49 18  1  0
 35 22  1  0
M  CHG  1  49  -1
M  END
>  <UniqueID>  (32) 
30

>  <SMILES>  (32) 
COc1ccc(Oc2cc(N(C)C)[n-]c(=Nc3ccc(CS(=O)(=O)/C=C\c4ccc(F)cc4)cc3OC)n2)cc1

>  <Energy>  (32) 
86.84267849145685

>  <Genealogy>  (32) 
COc1ccc(Oc2cc(N(C)C)[n-]c(=Nc3ccc(CS(=O)(=O)C=Cc4ccc(F)cc4)cc3OC)n2)cc1 (protonated)
COc1ccc(Oc2cc(N(C)C)[n-]c(=Nc3ccc(CS(=O)(=O)/C=C\c4ccc(F)cc4)cc3OC)n2)cc1 (cis-trans isomerization)
COc1ccc(Oc2cc(N(C)C)[n-]c(=Nc3ccc(CS(=O)(=O)/C=C\c4ccc(F)cc4)cc3OC)n2)cc1 (3D coordinates assigned)
COc1ccc(Oc2cc(N(C)C)[n-]c(=Nc3ccc(CS(=O)(=O)/C=C\c4ccc(F)cc4)cc3OC)n2)cc1 (optimized conformer: 86.84267849145685 kcal/mol)

>  <smiles>  (32) 
COc1ccc(Oc2cc(N(C)C)[nH]c(=Nc3ccc(CS(=O)(=O)C=Cc4ccc(F)cc4)cc3OC)n2)cc1

>  <score_type>  (32) 
oracle

>  <origin>  (32) 
adg

>  <m_score__min__energy>  (32) 
-11.140000000000001

>  <m_primary>  (32) 
energy

$$$$
33:0
     RDKit          3D

 32 33  0  0  0  0  0  0  0  0999 V2000
   53.6510   25.8050   46.3930 H   0  0  0  0  0  0  0  0  0  0  0  0
   54.4850   26.1370   45.9260 O   0  0  0  0  0  0  0  0  0  0  0  0
   55.5300   25.2750   45.6910 N   0  0  0  0  0  0  0  0  0  0  0  0
   56.7060   25.5170   46.1730 C   0  0  0  0  0  0  0  0  0  0  0  0
   57.2764   24.7005   46.6399 H   0  0  0  0  0  0  0  0  0  0  0  0
   57.2980   26.8710   46.1080 C   0  0  0  0  0  0  0  0  0  0  0  0
   56.5940   27.9430   45.5270 C   0  0  0  0  0  0  0  0  0  0  0  0
   55.5912   27.7729   45.1081 H   0  0  0  0  0  0  0  0  0  0  0  0
   57.1620   29.2320   45.4770 C   0  0  0  0  0  0  0  0  0  0  0  0
   56.4950   30.3340   44.9170 O   0  0  0  0  0  0  0  0  0  0  0  0
   57.0410   31.2190   43.9390 C   0  0  0  0  0  0  0  0  0  0  0  0
   56.2291   31.5963   43.2999 H   0  0  0  0  0  0  0  0  0  0  0  0
   57.7771   30.6684   43.3348 H   0  0  0  0  0  0  0  0  0  0  0  0
   57.7290   32.3800   44.6000 C   0  0  0  0  0  0  0  0  0  0  0  0
   57.5870   32.5690   45.9410 N   0  0  0  0  0  0  0  0  0  0  0  0
   58.1950   33.5960   46.5910 C   0  0  0  0  0  0  0  0  0  0  0  0
   58.0470   33.7237   47.6735 H   0  0  0  0  0  0  0  0  0  0  0  0
   59.0100   34.4930   45.8870 C   0  0  0  0  0  0  0  0  0  0  0  0
   59.6480   35.6550   46.5870 C   0  0  0  0  0  0  0  0  0  0  0  0
   59.5710   35.5147   47.6753 H   0  0  0  0  0  0  0  0  0  0  0  0
   60.7079   35.7192   46.2997 H   0  0  0  0  0  0  0  0  0  0  0  0
   59.1333   36.5837   46.2997 H   0  0  0  0  0  0  0  0  0  0  0  0
   59.1630   34.3220   44.5040 C   0  0  0  0  0  0  0  0  0  0  0  0
   59.7800   35.0268   43.9274 H   0  0  0  0  0  0  0  0  0  0  0  0
   58.5320   33.2570   43.8590 C   0  0  0  0  0  0  0  0  0  0  0  0
   58.6642   33.1074   42.7773 H   0  0  0  0  0  0  0  0  0  0  0  0
   58.4440   29.4330   46.0020 C   0  0  0  0  0  0  0  0  0  0  0  0
   58.8992   30.4336   45.9616 H   0  0  0  0  0  0  0  0  0  0  0  0
   59.1490   28.3750   46.5760 C   0  0  0  0  0  0  0  0  0  0  0  0
   60.1551   28.5462   46.9864 H   0  0  0  0  0  0  0  0  0  0  0  0
   58.5830   27.0990   46.6320 C   0  0  0  0  0  0  0  0  0  0  0  0
   59.2900   26.0880   47.1990 F   0  0  0  0  0  0  0  0  0  0  0  0
  1  2  1  0
  2  3  1  0
  3  4  2  0
  4  5  1  0
  4  6  1  0
  6  7  2  0
  7  8  1  0
  7  9  1  0
  9 10  1  0
 10 11  1  0
 11 12  1  0
 11 13  1  0
 11 14  1  0
 14 15  2  0
 15 16  1  0
 16 17  1  0
 16 18  2  0
 18 19  1  0
 19 20  1  0
 19 21  1  0
 19 22  1  0
 18 23  1  0
 23 24  1  0
 23 25  2  0
 25 26  1  0
  9 27  2  0
 27 28  1  0
 27 29  1  0
 29 30  1  0
 29 31  2  0
 31 32  1  0
 31  6  1  0
 25 14  1  0
M  END
>  <UniqueID>  (33) 
31

>  <SMILES>  (33) 
Cc1ccc(COc2ccc(F)c(/C=N/O)c2)nc1

>  <Energy>  (33) 
30.746213346818525

>  <Genealogy>  (33) 
Cc1ccc(COc2ccc(F)c(/C=N/O)c2)nc1 (cis-trans isomerization)
Cc1ccc(COc2ccc(F)c(/C=N/O)c2)nc1 (3D coordinates assigned)
Cc1ccc(COc2ccc(F)c(/C=N/O)c2)nc1 (optimized conformer: 30.746213346818525 kcal/mol)

>  <smiles>  (33) 
Cc1ccc(COc2ccc(F)c(C=NO)c2)nc1

>  <score_type>  (33) 
oracle

>  <origin>  (33) 
adg

>  <m_score__min__energy>  (33) 
-8.3399999999999999

>  <m_primary>  (33) 
energy

$$$$
34:0
     RDKit          3D

 22 23  0  0  0  0  0  0  0  0999 V2000
   59.4290   25.9630   46.1150 O   0  0  0  0  0  0  0  0  0  0  0  0
   58.1960   26.2100   46.0660 C   0  0  0  0  0  0  0  0  0  0  0  0
   57.7460   27.4690   45.6630 C   0  0  0  0  0  0  0  0  0  0  0  0
   56.3650   27.7040   45.6120 C   0  0  0  0  0  0  0  0  0  0  0  0
   55.8340   28.9850   45.2390 N   0  0  0  0  0  0  0  0  0  0  0  0
   56.5480   29.9780   44.4820 C   0  0  0  0  0  0  0  0  0  0  0  0
   56.3290   30.1430   43.1020 C   0  0  0  0  0  0  0  0  0  0  0  0
   57.0140   31.1350   42.3940 C   0  0  0  0  0  0  0  0  0  0  0  0
   57.9090   31.9780   43.0570 C   0  0  0  0  0  0  0  0  0  0  0  0
   58.1150   31.8360   44.4310 C   0  0  0  0  0  0  0  0  0  0  0  0
   57.4320   30.8460   45.1440 C   0  0  0  0  0  0  0  0  0  0  0  0
   55.5090   26.7170   45.9900 N   0  0  0  0  0  0  0  0  0  0  0  0
   55.9640   25.4990   46.3810 C   0  0  0  0  0  0  0  0  0  0  0  0
   55.1510   24.6000   46.7150 O   0  0  0  0  0  0  0  0  0  0  0  0
   57.2990   25.2510   46.4150 N   0  0  0  0  0  0  0  0  0  0  0  0
   58.4605   28.2600   45.3912 H   0  0  0  0  0  0  0  0  0  0  0  0
   54.8550   29.2060   45.5350 H   0  0  0  0  0  0  0  0  0  0  0  0
   55.6162   29.4891   42.5782 H   0  0  0  0  0  0  0  0  0  0  0  0
   56.8479   31.2519   41.3129 H   0  0  0  0  0  0  0  0  0  0  0  0
   58.4516   32.7538   42.4968 H   0  0  0  0  0  0  0  0  0  0  0  0
   58.8157   32.5041   44.9531 H   0  0  0  0  0  0  0  0  0  0  0  0
   57.5876   30.7464   46.2284 H   0  0  0  0  0  0  0  0  0  0  0  0
  1  2  2  0
  2  3  1  0
  3  4  2  0
  4  5  1  0
  5  6  1  0
  6  7  2  0
  7  8  1  0
  8  9  2  0
  9 10  1  0
 10 11  2  0
  4 12  1  0
 12 13  1  0
 13 14  2  0
 13 15  1  0
 15  2  1  0
 11  6  1  0
  3 16  1  0
  5 17  1  0
  7 18  1  0
  8 19  1  0
  9 20  1  0
 10 21  1  0
 11 22  1  0
M  CHG  2  12  -1  15  -1
M  END
>  <UniqueID>  (34) 
32

>  <SMILES>  (34) 
O=c1cc(Nc2ccccc2)[n-]c(=O)[n-]1

>  <Energy>  (34) 
29.317970062393623

>  <Genealogy>  (34) 
O=c1cc(Nc2ccccc2)[n-]c(=O)[n-]1 (protonated)
O=c1cc(Nc2ccccc2)[n-]c(=O)[n-]1 (3D coordinates assigned)
O=c1cc(Nc2ccccc2)[n-]c(=O)[n-]1 (optimized conformer: 29.317970062393623 kcal/mol)

>  <smiles>  (34) 
O=c1cc(Nc2ccccc2)[nH]c(=O)[nH]1

>  <score_type>  (34) 
oracle

>  <origin>  (34) 
adg

>  <m_score__min__energy>  (34) 
-10.369999999999999

>  <m_primary>  (34) 
energy

$$$$
35:0
     RDKit          3D

 38 40  0  0  0  0  0  0  0  0999 V2000
   60.2310   34.9590   48.5390 N   0  0  0  0  0  0  0  0  0  0  0  0
   59.6590   34.0320   47.8390 C   0  0  0  0  0  0  0  0  0  0  0  0
   58.3850   34.2030   47.4010 N   0  0  0  0  0  0  0  0  0  0  0  0
   57.7590   33.2650   46.6440 C   0  0  0  0  0  0  0  0  0  0  0  0
   58.4370   32.0840   46.3000 C   0  0  0  0  0  0  0  0  0  0  0  0
   57.8030   31.0110   45.4890 C   0  0  0  0  0  0  0  0  0  0  0  0
   57.4130   31.2740   44.1620 C   0  0  0  0  0  0  0  0  0  0  0  0
   56.8390   30.2720   43.3770 C   0  0  0  0  0  0  0  0  0  0  0  0
   56.6530   28.9930   43.9000 C   0  0  0  0  0  0  0  0  0  0  0  0
   57.0410   28.7080   45.2160 C   0  0  0  0  0  0  0  0  0  0  0  0
   56.8250   27.0940   45.8850 S   0  0  0  0  0  0  0  0  0  0  0  0
   55.1420   26.7160   45.9610 N   0  0  0  0  0  0  0  0  0  0  0  0
   57.4020   27.0260   47.2710 O   0  0  0  0  0  0  0  0  0  0  0  0
   57.5310   26.0920   45.0180 O   0  0  0  0  0  0  0  0  0  0  0  0
   57.6170   29.7140   46.0030 C   0  0  0  0  0  0  0  0  0  0  0  0
   59.7190   31.9270   46.7280 N   0  0  0  0  0  0  0  0  0  0  0  0
   60.3500   32.8570   47.4930 C   0  0  0  0  0  0  0  0  0  0  0  0
   61.7050   32.6180   47.9120 N   0  0  0  0  0  0  0  0  0  0  0  0
   61.9710   31.6900   49.0110 C   0  0  0  0  0  0  0  0  0  0  0  0
   63.1930   32.1660   49.8000 C   0  0  0  0  0  0  0  0  0  0  0  0
   64.2900   32.3950   48.9360 O   0  0  0  0  0  0  0  0  0  0  0  0
   63.9970   33.4630   48.0570 C   0  0  0  0  0  0  0  0  0  0  0  0
   62.8400   33.1000   47.1200 C   0  0  0  0  0  0  0  0  0  0  0  0
   59.6830   35.5790   49.1780 H   0  0  0  0  0  0  0  0  0  0  0  0
   56.7265   33.4294   46.3021 H   0  0  0  0  0  0  0  0  0  0  0  0
   57.5619   32.2786   43.7395 H   0  0  0  0  0  0  0  0  0  0  0  0
   56.5329   30.4922   42.3437 H   0  0  0  0  0  0  0  0  0  0  0  0
   56.2008   28.2062   43.2784 H   0  0  0  0  0  0  0  0  0  0  0  0
   54.7770   27.0910   46.8650 H   0  0  0  0  0  0  0  0  0  0  0  0
   57.9272   29.4877   47.0338 H   0  0  0  0  0  0  0  0  0  0  0  0
   61.0969   31.6518   49.6777 H   0  0  0  0  0  0  0  0  0  0  0  0
   62.1671   30.6873   48.6033 H   0  0  0  0  0  0  0  0  0  0  0  0
   62.9434   33.1016   50.3220 H   0  0  0  0  0  0  0  0  0  0  0  0
   63.4710   31.3863   50.5244 H   0  0  0  0  0  0  0  0  0  0  0  0
   63.7181   34.3485   48.6470 H   0  0  0  0  0  0  0  0  0  0  0  0
   64.8893   33.6715   47.4484 H   0  0  0  0  0  0  0  0  0  0  0  0
   62.5373   33.9900   46.5488 H   0  0  0  0  0  0  0  0  0  0  0  0
   63.1639   32.3117   46.4246 H   0  0  0  0  0  0  0  0  0  0  0  0
  1  2  2  3
  2  3  1  0
  3  4  1  0
  4  5  2  0
  5  6  1  0
  6  7  2  0
  7  8  1  0
  8  9  2  0
  9 10  1  0
 10 11  1  0
 11 12  1  0
 11 13  2  0
 11 14  2  0
 10 15  2  0
  5 16  1  0
 16 17  2  0
 17 18  1  0
 18 19  1  0
 19 20  1  0
 20 21  1  0
 21 22  1  0
 22 23  1  0
 17  2  1  0
 23 18  1  0
 15  6  1  0
  1 24  1  0
  4 25  1  0
  7 26  1  0
  8 27  1  0
  9 28  1  0
 12 29  1  0
 15 30  1  0
 19 31  1  0
 19 32  1  0
 20 33  1  0
 20 34  1  0
 22 35  1  0
 22 36  1  0
 23 37  1  0
 23 38  1  0
M  CHG  2   3  -1  12  -1
M  END
>  <UniqueID>  (35) 
33

>  <SMILES>  (35) 
N=c1[n-]cc(-c2cccc(S([NH-])(=O)=O)c2)nc1N1CCOCC1

>  <Energy>  (35) 
51.500342204384594

>  <Genealogy>  (35) 
N=c1[n-]cc(-c2cccc(S([NH-])(=O)=O)c2)nc1N1CCOCC1 (protonated)
N=c1[n-]cc(-c2cccc(S([NH-])(=O)=O)c2)nc1N1CCOCC1 (3D coordinates assigned)
N=c1[n-]cc(-c2cccc(S([NH-])(=O)=O)c2)nc1N1CCOCC1 (nonaromatic ring conformer: 51.500342204384594 kcal/mol)

>  <smiles>  (35) 
N=c1[nH]cc(-c2cccc(S(N)(=O)=O)c2)nc1N1CCOCC1

>  <score_type>  (35) 
oracle

>  <origin>  (35) 
adg

>  <m_score__min__energy>  (35) 
-11.65

>  <m_primary>  (35) 
energy

$$$$
36:0
     RDKit          3D

 36 38  0  0  0  0  0  0  0  0999 V2000
   55.1410   27.9900   44.8950 H   0  0  0  0  0  0  0  0  0  0  0  0
   55.1760   28.9970   44.7910 O   0  0  0  0  0  0  0  0  0  0  0  0
   56.3780   29.6790   44.6190 C   0  0  0  0  0  0  0  0  0  0  0  0
   56.4510   31.0250   44.7860 N   0  0  0  0  0  0  0  0  0  0  0  0
   57.7000   31.4850   44.5470 C   0  0  0  0  0  0  0  0  0  0  0  0
   58.0540   32.7300   44.6640 N   0  0  0  0  0  0  0  0  0  0  0  0
   58.5610   33.3440   45.8590 C   0  0  0  0  0  0  0  0  0  0  0  0
   58.5420   32.6110   47.0530 C   0  0  0  0  0  0  0  0  0  0  0  0
   58.1264   31.5926   47.0627 H   0  0  0  0  0  0  0  0  0  0  0  0
   59.0480   33.1660   48.2320 C   0  0  0  0  0  0  0  0  0  0  0  0
   59.0146   32.5903   49.1687 H   0  0  0  0  0  0  0  0  0  0  0  0
   59.5960   34.4510   48.2220 C   0  0  0  0  0  0  0  0  0  0  0  0
   59.9846   34.8910   49.1523 H   0  0  0  0  0  0  0  0  0  0  0  0
   59.6500   35.1770   47.0290 C   0  0  0  0  0  0  0  0  0  0  0  0
   60.0912   36.1846   47.0202 H   0  0  0  0  0  0  0  0  0  0  0  0
   59.1450   34.6270   45.8460 C   0  0  0  0  0  0  0  0  0  0  0  0
   59.2770   35.3220   44.6880 F   0  0  0  0  0  0  0  0  0  0  0  0
   58.7660   30.2540   44.1370 S   0  0  0  0  0  0  0  0  0  0  0  0
   57.5820   29.0610   44.2650 C   0  0  0  0  0  0  0  0  0  0  0  0
   57.7960   27.6120   43.9570 C   0  0  0  0  0  0  0  0  0  0  0  0
   58.8372   27.4574   43.6378 H   0  0  0  0  0  0  0  0  0  0  0  0
   57.1101   27.3088   43.1522 H   0  0  0  0  0  0  0  0  0  0  0  0
   57.5230   26.7860   45.1710 C   0  0  0  0  0  0  0  0  0  0  0  0
   57.3890   25.5370   45.0610 O   0  0  0  0  0  0  0  0  0  0  0  0
   57.3910   27.4280   46.4450 N   0  0  0  0  0  0  0  0  0  0  0  0
   58.4610   27.9140   47.2680 C   0  0  0  0  0  0  0  0  0  0  0  0
   58.6010   29.2790   47.5810 C   0  0  0  0  0  0  0  0  0  0  0  0
   57.8879   30.0106   47.1733 H   0  0  0  0  0  0  0  0  0  0  0  0
   59.6440   29.7090   48.4090 C   0  0  0  0  0  0  0  0  0  0  0  0
   59.7556   30.7782   48.6421 H   0  0  0  0  0  0  0  0  0  0  0  0
   60.5440   28.7810   48.9400 C   0  0  0  0  0  0  0  0  0  0  0  0
   61.5520   29.1980   49.7450 F   0  0  0  0  0  0  0  0  0  0  0  0
   60.3950   27.4210   48.6540 C   0  0  0  0  0  0  0  0  0  0  0  0
   61.0983   26.6898   49.0792 H   0  0  0  0  0  0  0  0  0  0  0  0
   59.3530   26.9890   47.8280 C   0  0  0  0  0  0  0  0  0  0  0  0
   59.2324   25.9163   47.6162 H   0  0  0  0  0  0  0  0  0  0  0  0
  1  2  1  0
  2  3  1  0
  3  4  1  0
  4  5  1  0
  5  6  2  0
  6  7  1  0
  7  8  2  0
  8  9  1  0
  8 10  1  0
 10 11  1  0
 10 12  2  0
 12 13  1  0
 12 14  1  0
 14 15  1  0
 14 16  2  0
 16 17  1  0
  5 18  1  0
 18 19  1  0
 19 20  1  0
 20 21  1  0
 20 22  1  0
 20 23  1  0
 23 24  2  0
 23 25  1  0
 25 26  1  0
 26 27  2  0
 27 28  1  0
 27 29  1  0
 29 30  1  0
 29 31  2  0
 31 32  1  0
 31 33  1  0
 33 34  1  0
 33 35  2  0
 35 36  1  0
 19  3  2  0
 35 26  1  0
 16  7  1  0
M  CHG  2   4  -1  25  -1
M  END
>  <UniqueID>  (36) 
34

>  <SMILES>  (36) 
O=C(Cc1s/c(=N/c2ccccc2F)[n-]c1O)[N-]c1ccc(F)cc1

>  <Energy>  (36) 
76.9629731354811

>  <Genealogy>  (36) 
O=C(Cc1sc(=Nc2ccccc2F)[n-]c1O)[N-]c1ccc(F)cc1 (protonated)
O=C(Cc1s/c(=N/c2ccccc2F)[n-]c1O)[N-]c1ccc(F)cc1 (cis-trans isomerization)
O=C(Cc1s/c(=N/c2ccccc2F)[n-]c1O)[N-]c1ccc(F)cc1 (3D coordinates assigned)
O=C(Cc1s/c(=N/c2ccccc2F)[n-]c1O)[N-]c1ccc(F)cc1 (optimized conformer: 76.9629731354811 kcal/mol)

>  <smiles>  (36) 
O=C(Cc1sc(=Nc2ccccc2F)[nH]c1O)Nc1ccc(F)cc1

>  <score_type>  (36) 
oracle

>  <origin>  (36) 
adg

>  <m_score__min__energy>  (36) 
-11.630000000000001

>  <m_primary>  (36) 
energy

$$$$
37:0
     RDKit          3D

 30 31  0  0  0  0  0  0  0  0999 V2000
   54.7670   26.3470   45.9930 N   0  0  0  0  0  0  0  0  0  0  0  0
   56.0740   25.2420   46.2300 S   0  0  0  0  0  0  0  0  0  0  0  0
   55.8940   24.5230   47.5370 O   0  0  0  0  0  0  0  0  0  0  0  0
   56.0780   24.2280   45.1200 O   0  0  0  0  0  0  0  0  0  0  0  0
   57.5960   26.1250   46.2410 C   0  0  0  0  0  0  0  0  0  0  0  0
   58.8100   25.4430   46.0930 C   0  0  0  0  0  0  0  0  0  0  0  0
   60.0150   26.1500   46.0730 C   0  0  0  0  0  0  0  0  0  0  0  0
   60.0140   27.5410   46.2050 C   0  0  0  0  0  0  0  0  0  0  0  0
   58.8080   28.2390   46.3680 C   0  0  0  0  0  0  0  0  0  0  0  0
   58.8300   29.6730   46.4760 N   0  0  0  0  0  0  0  0  0  0  0  0
   57.9750   30.5420   45.7130 C   0  0  0  0  0  0  0  0  0  0  0  0
   56.8880   30.1020   45.2480 O   0  0  0  0  0  0  0  0  0  0  0  0
   58.3080   31.9650   45.5050 C   0  0  0  0  0  0  0  0  0  0  0  0
   57.6680   32.7290   44.6060 C   0  0  0  0  0  0  0  0  0  0  0  0
   57.9890   34.0880   44.4920 O   0  0  0  0  0  0  0  0  0  0  0  0
   58.7760   34.7560   45.4780 C   0  0  0  0  0  0  0  0  0  0  0  0
   59.8730   33.8200   45.9820 C   0  0  0  0  0  0  0  0  0  0  0  0
   59.3110   32.5450   46.2950 O   0  0  0  0  0  0  0  0  0  0  0  0
   57.5960   27.5220   46.3650 C   0  0  0  0  0  0  0  0  0  0  0  0
   55.1560   27.3090   46.1110 H   0  0  0  0  0  0  0  0  0  0  0  0
   58.8150   24.3476   45.9922 H   0  0  0  0  0  0  0  0  0  0  0  0
   60.9661   25.6106   45.9531 H   0  0  0  0  0  0  0  0  0  0  0  0
   60.9654   28.0926   46.1810 H   0  0  0  0  0  0  0  0  0  0  0  0
   59.4130   30.0950   47.2320 H   0  0  0  0  0  0  0  0  0  0  0  0
   56.8935   32.2893   43.9604 H   0  0  0  0  0  0  0  0  0  0  0  0
   59.2350   35.6517   45.0342 H   0  0  0  0  0  0  0  0  0  0  0  0
   58.1323   35.0496   46.3203 H   0  0  0  0  0  0  0  0  0  0  0  0
   60.6389   33.7005   45.2015 H   0  0  0  0  0  0  0  0  0  0  0  0
   60.3307   34.2484   46.8859 H   0  0  0  0  0  0  0  0  0  0  0  0
   56.6422   28.0616   46.4606 H   0  0  0  0  0  0  0  0  0  0  0  0
  1  2  1  0
  2  3  2  0
  2  4  2  0
  2  5  1  0
  5  6  2  0
  6  7  1  0
  7  8  2  0
  8  9  1  0
  9 10  1  0
 10 11  1  0
 11 12  2  0
 11 13  1  0
 13 14  2  0
 14 15  1  0
 15 16  1  0
 16 17  1  0
 17 18  1  0
  9 19  2  0
 19  5  1  0
 18 13  1  0
  1 20  1  0
  6 21  1  0
  7 22  1  0
  8 23  1  0
 10 24  1  0
 14 25  1  0
 16 26  1  0
 16 27  1  0
 17 28  1  0
 17 29  1  0
 19 30  1  0
M  CHG  1   1  -1
M  END
>  <UniqueID>  (37) 
35

>  <SMILES>  (37) 
[NH-]S(=O)(=O)c1cccc(NC(=O)C2=COCCO2)c1

>  <Energy>  (37) 
33.85430292077474

>  <Genealogy>  (37) 
[NH-]S(=O)(=O)c1cccc(NC(=O)C2=COCCO2)c1 (protonated)
[NH-]S(=O)(=O)c1cccc(NC(=O)C2=COCCO2)c1 (3D coordinates assigned)
[NH-]S(=O)(=O)c1cccc(NC(=O)C2=COCCO2)c1 (nonaromatic ring conformer: 33.85430292077474 kcal/mol)

>  <smiles>  (37) 
NS(=O)(=O)c1cccc(NC(=O)C2=COCCO2)c1

>  <score_type>  (37) 
oracle

>  <origin>  (37) 
adg

>  <m_score__min__energy>  (37) 
-9.5500000000000007

>  <m_primary>  (37) 
energy

$$$$
38:0
     RDKit          3D

 40 42  0  0  0  0  0  0  0  0999 V2000
   56.1590   30.7470   44.8360 O   0  0  0  0  0  0  0  0  0  0  0  0
   57.2260   30.2240   44.4150 C   0  0  0  0  0  0  0  0  0  0  0  0
   57.8630   30.7420   43.2380 N   0  0  0  0  0  0  0  0  0  0  0  0
   57.7410   32.1160   42.8400 C   0  0  0  0  0  0  0  0  0  0  0  0
   57.7590   32.4940   41.2480 S   0  0  0  0  0  0  0  0  0  0  0  0
   57.6260   33.1680   43.8120 N   0  0  0  0  0  0  0  0  0  0  0  0
   58.1970   33.0840   45.1280 C   0  0  0  0  0  0  0  0  0  0  0  0
   57.4080   32.7520   46.2390 C   0  0  0  0  0  0  0  0  0  0  0  0
   57.9590   32.7500   47.5210 C   0  0  0  0  0  0  0  0  0  0  0  0
   59.3110   33.0650   47.7130 C   0  0  0  0  0  0  0  0  0  0  0  0
   59.9490   33.1570   49.3580 S   0  0  0  0  0  0  0  0  0  0  0  0
   59.9360   34.5880   49.8210 O   0  0  0  0  0  0  0  0  0  0  0  0
   61.3670   32.6590   49.4040 O   0  0  0  0  0  0  0  0  0  0  0  0
   58.9560   32.1460   50.4020 C   0  0  0  0  0  0  0  0  0  0  0  0
   58.9400   30.7580   50.2060 C   0  0  0  0  0  0  0  0  0  0  0  0
   58.1430   29.9440   51.0150 C   0  0  0  0  0  0  0  0  0  0  0  0
   57.3570   30.5120   52.0240 C   0  0  0  0  0  0  0  0  0  0  0  0
   56.3540   29.4890   53.0370 Cl  0  0  0  0  0  0  0  0  0  0  0  0
   57.3700   31.8980   52.2220 C   0  0  0  0  0  0  0  0  0  0  0  0
   58.1670   32.7140   51.4130 C   0  0  0  0  0  0  0  0  0  0  0  0
   60.1160   33.3660   46.5940 C   0  0  0  0  0  0  0  0  0  0  0  0
   61.8150   33.7990   46.7560 Cl  0  0  0  0  0  0  0  0  0  0  0  0
   59.5580   33.3580   45.3110 C   0  0  0  0  0  0  0  0  0  0  0  0
   57.8120   29.0970   45.1550 C   0  0  0  0  0  0  0  0  0  0  0  0
   58.7320   28.1890   44.6720 C   0  0  0  0  0  0  0  0  0  0  0  0
   59.0090   27.3450   45.7250 C   0  0  0  0  0  0  0  0  0  0  0  0
   58.2430   27.7880   46.7830 C   0  0  0  0  0  0  0  0  0  0  0  0
   57.5410   28.8350   46.4130 O   0  0  0  0  0  0  0  0  0  0  0  0
   58.3900   30.0860   42.6190 H   0  0  0  0  0  0  0  0  0  0  0  0
   57.0910   34.0270   43.5540 H   0  0  0  0  0  0  0  0  0  0  0  0
   56.3485   32.4916   46.0989 H   0  0  0  0  0  0  0  0  0  0  0  0
   57.3280   32.4995   48.3865 H   0  0  0  0  0  0  0  0  0  0  0  0
   59.5564   30.3086   49.4134 H   0  0  0  0  0  0  0  0  0  0  0  0
   58.1333   28.8552   50.8586 H   0  0  0  0  0  0  0  0  0  0  0  0
   56.7526   32.3455   53.0148 H   0  0  0  0  0  0  0  0  0  0  0  0
   58.1752   33.8027   51.5697 H   0  0  0  0  0  0  0  0  0  0  0  0
   60.1939   33.5688   44.4385 H   0  0  0  0  0  0  0  0  0  0  0  0
   59.1558   28.1477   43.6578 H   0  0  0  0  0  0  0  0  0  0  0  0
   59.7014   26.4902   45.7225 H   0  0  0  0  0  0  0  0  0  0  0  0
   58.2229   27.3336   47.7846 H   0  0  0  0  0  0  0  0  0  0  0  0
  1  2  2  0
  2  3  1  0
  3  4  1  0
  4  5  2  0
  4  6  1  0
  6  7  1  0
  7  8  2  0
  8  9  1  0
  9 10  2  0
 10 11  1  0
 11 12  2  0
 11 13  2  0
 11 14  1  0
 14 15  2  0
 15 16  1  0
 16 17  2  0
 17 18  1  0
 17 19  1  0
 19 20  2  0
 10 21  1  0
 21 22  1  0
 21 23  2  0
  2 24  1  0
 24 25  2  0
 25 26  1  0
 26 27  2  0
 27 28  1  0
 23  7  1  0
 28 24  1  0
 20 14  1  0
  3 29  1  0
  6 30  1  0
  8 31  1  0
  9 32  1  0
 15 33  1  0
 16 34  1  0
 19 35  1  0
 20 36  1  0
 23 37  1  0
 25 38  1  0
 26 39  1  0
 27 40  1  0
M  END
>  <UniqueID>  (38) 
36

>  <SMILES>  (38) 
O=C(NC(=S)Nc1ccc(S(=O)(=O)c2ccc(Cl)cc2)c(Cl)c1)c1ccco1

>  <Energy>  (38) 
75.00911168067059

>  <Genealogy>  (38) 
O=C(NC(=S)Nc1ccc(S(=O)(=O)c2ccc(Cl)cc2)c(Cl)c1)c1ccco1 (3D coordinates assigned)
O=C(NC(=S)Nc1ccc(S(=O)(=O)c2ccc(Cl)cc2)c(Cl)c1)c1ccco1 (optimized conformer: 75.00911168067059 kcal/mol)

>  <smiles>  (38) 
O=C(NC(=S)Nc1ccc(S(=O)(=O)c2ccc(Cl)cc2)c(Cl)c1)c1ccco1

>  <score_type>  (38) 
oracle

>  <origin>  (38) 
adg

>  <m_score__min__energy>  (38) 
-9.7200000000000006

>  <m_primary>  (38) 
energy

$$$$
39:0
     RDKit          3D

 39 40  0  0  0  0  0  0  0  0999 V2000
   58.8919   33.7917   44.6242 H   0  0  0  0  0  0  0  0  0  0  0  0
   58.7370   32.7990   45.0720 C   0  0  0  0  0  0  0  0  0  0  0  0
   57.9960   31.8330   44.3830 C   0  0  0  0  0  0  0  0  0  0  0  0
   57.5811   32.0645   43.3909 H   0  0  0  0  0  0  0  0  0  0  0  0
   57.7810   30.5720   44.9530 C   0  0  0  0  0  0  0  0  0  0  0  0
   56.8370   29.3550   44.0980 S   0  0  0  0  0  0  0  0  0  0  0  0
   55.9140   30.0030   43.1030 O   0  0  0  0  0  0  0  0  0  0  0  0
   57.7740   28.4350   43.3690 O   0  0  0  0  0  0  0  0  0  0  0  0
   55.8940   28.4310   45.2250 N   0  0  0  0  0  0  0  0  0  0  0  0
   56.1900   27.2270   45.6140 C   0  0  0  0  0  0  0  0  0  0  0  0
   55.2680   26.3630   46.0750 N   0  0  0  0  0  0  0  0  0  0  0  0
   55.9040   25.2640   46.3620 O   0  0  0  0  0  0  0  0  0  0  0  0
   57.1890   25.3810   46.1110 C   0  0  0  0  0  0  0  0  0  0  0  0
   58.1930   24.2970   46.3120 C   0  0  0  0  0  0  0  0  0  0  0  0
   58.3449   24.1330   47.3891 H   0  0  0  0  0  0  0  0  0  0  0  0
   57.8284   23.3689   45.8476 H   0  0  0  0  0  0  0  0  0  0  0  0
   59.1463   24.5895   45.8476 H   0  0  0  0  0  0  0  0  0  0  0  0
   57.4440   26.6420   45.6160 C   0  0  0  0  0  0  0  0  0  0  0  0
   58.4048   27.0752   45.3011 H   0  0  0  0  0  0  0  0  0  0  0  0
   58.3100   30.2840   46.2170 C   0  0  0  0  0  0  0  0  0  0  0  0
   58.1427   29.2953   46.6691 H   0  0  0  0  0  0  0  0  0  0  0  0
   59.0500   31.2490   46.9060 C   0  0  0  0  0  0  0  0  0  0  0  0
   59.4511   31.0194   47.9042 H   0  0  0  0  0  0  0  0  0  0  0  0
   59.2850   32.5080   46.3340 C   0  0  0  0  0  0  0  0  0  0  0  0
   60.0260   33.4920   47.0750 N   0  0  0  0  0  0  0  0  0  0  0  0
   60.5850   34.1810   46.5260 H   0  0  0  0  0  0  0  0  0  0  0  0
   59.9410   33.6500   48.5040 C   0  0  0  0  0  0  0  0  0  0  0  0
   59.0180   33.0860   49.1480 O   0  0  0  0  0  0  0  0  0  0  0  0
   60.8810   34.4590   49.2220 N   0  0  0  0  0  0  0  0  0  0  0  0
   62.3310   34.4130   49.0630 C   0  0  0  0  0  0  0  0  0  0  0  0
   62.8063   34.4796   50.0528 H   0  0  0  0  0  0  0  0  0  0  0  0
   62.6477   35.2578   48.4337 H   0  0  0  0  0  0  0  0  0  0  0  0
   62.7530   33.1060   48.3880 C   0  0  0  0  0  0  0  0  0  0  0  0
   61.8637   32.4766   48.2366 H   0  0  0  0  0  0  0  0  0  0  0  0
   63.4812   32.5973   49.0368 H   0  0  0  0  0  0  0  0  0  0  0  0
   63.4110   33.3720   47.0370 C   0  0  0  0  0  0  0  0  0  0  0  0
   64.4203   33.7800   47.1947 H   0  0  0  0  0  0  0  0  0  0  0  0
   63.4801   32.4312   46.4712 H   0  0  0  0  0  0  0  0  0  0  0  0
   62.8069   34.0965   46.4712 H   0  0  0  0  0  0  0  0  0  0  0  0
  1  2  1  0
  2  3  2  0
  3  4  1  0
  3  5  1  0
  5  6  1  0
  6  7  2  0
  6  8  2  0
  6  9  1  0
  9 10  2  0
 10 11  1  0
 11 12  1  0
 12 13  1  0
 13 14  1  0
 14 15  1  0
 14 16  1  0
 14 17  1  0
 13 18  2  0
 18 19  1  0
  5 20  2  0
 20 21  1  0
 20 22  1  0
 22 23  1  0
 22 24  2  0
 24 25  1  0
 25 26  1  0
 25 27  1  0
 27 28  2  0
 27 29  1  0
 29 30  1  0
 30 31  1  0
 30 32  1  0
 30 33  1  0
 33 34  1  0
 33 35  1  0
 33 36  1  0
 36 37  1  0
 36 38  1  0
 36 39  1  0
 24  2  1  0
 18 10  1  0
M  CHG  2  11  -1  29  -1
M  END
>  <UniqueID>  (39) 
37

>  <SMILES>  (39) 
CCC[N-]C(=O)Nc1ccc(S(=O)(=O)/N=c2\cc(C)o[n-]2)cc1

>  <Energy>  (39) 
69.16159812971937

>  <Genealogy>  (39) 
CCC[N-]C(=O)Nc1ccc(S(=O)(=O)N=c2cc(C)o[n-]2)cc1 (protonated)
CCC[N-]C(=O)Nc1ccc(S(=O)(=O)/N=c2\cc(C)o[n-]2)cc1 (cis-trans isomerization)
CCC[N-]C(=O)Nc1ccc(S(=O)(=O)/N=c2\cc(C)o[n-]2)cc1 (3D coordinates assigned)
CCC[N-]C(=O)Nc1ccc(S(=O)(=O)/N=c2\cc(C)o[n-]2)cc1 (optimized conformer: 69.16159812971937 kcal/mol)

>  <smiles>  (39) 
CCCNC(=O)Nc1ccc(S(=O)(=O)N=c2cc(C)o[nH]2)cc1

>  <score_type>  (39) 
oracle

>  <origin>  (39) 
adg

>  <m_score__min__energy>  (39) 
-10.890000000000001

>  <m_primary>  (39) 
energy

$$$$
40:0
     RDKit          3D

 57 61  0  0  0  0  0  0  0  0999 V2000
   57.1860   33.3530   47.8450 O   0  0  0  0  0  0  0  0  0  0  0  0
   57.6000   33.5420   46.6680 C   0  0  0  0  0  0  0  0  0  0  0  0
   57.0150   32.7700   45.5270 C   0  0  0  0  0  0  0  0  0  0  0  0
   58.0360   32.5690   44.4870 N   0  0  0  0  0  0  0  0  0  0  0  0
   57.9570   31.3960   43.6580 C   0  0  0  0  0  0  0  0  0  0  0  0
   57.6730   31.5210   42.4350 O   0  0  0  0  0  0  0  0  0  0  0  0
   58.1780   30.0430   44.2170 C   0  0  0  0  0  0  0  0  0  0  0  0
   57.2350   29.0260   43.9920 C   0  0  0  0  0  0  0  0  0  0  0  0
   57.4160   27.7570   44.5470 C   0  0  0  0  0  0  0  0  0  0  0  0
   58.5250   27.4850   45.3560 C   0  0  0  0  0  0  0  0  0  0  0  0
   58.6530   26.1720   45.9150 N   0  0  0  0  0  0  0  0  0  0  0  0
   57.3670   25.1510   46.4850 S   0  0  0  0  0  0  0  0  0  0  0  0
   57.7920   24.5060   47.7770 O   0  0  0  0  0  0  0  0  0  0  0  0
   56.1030   25.9230   46.7370 O   0  0  0  0  0  0  0  0  0  0  0  0
   57.0500   23.9230   45.2550 C   0  0  0  0  0  0  0  0  0  0  0  0
   56.6310   24.3010   43.9600 C   0  0  0  0  0  0  0  0  0  0  0  0
   56.3480   23.3270   42.9820 C   0  0  0  0  0  0  0  0  0  0  0  0
   56.4790   21.9620   43.2780 C   0  0  0  0  0  0  0  0  0  0  0  0
   56.8900   21.6060   44.5600 C   0  0  0  0  0  0  0  0  0  0  0  0
   57.1100   20.0660   45.1930 S   0  0  0  0  0  0  0  0  0  0  0  0
   57.5540   20.6590   46.7150 C   0  0  0  0  0  0  0  0  0  0  0  0
   57.5350   22.0140   46.7410 N   0  0  0  0  0  0  0  0  0  0  0  0
   57.1680   22.5490   45.5420 C   0  0  0  0  0  0  0  0  0  0  0  0
   59.4830   28.4920   45.5680 C   0  0  0  0  0  0  0  0  0  0  0  0
   59.2990   29.7660   45.0180 C   0  0  0  0  0  0  0  0  0  0  0  0
   58.9820   33.6440   44.1200 C   0  0  0  0  0  0  0  0  0  0  0  0
   58.8130   34.8980   44.9930 C   0  0  0  0  0  0  0  0  0  0  0  0
   58.6220   34.5090   46.3920 N   0  0  0  0  0  0  0  0  0  0  0  0
   59.5650   34.9300   47.4360 C   0  0  0  0  0  0  0  0  0  0  0  0
   60.7410   33.9880   47.4630 C   0  0  0  0  0  0  0  0  0  0  0  0
   60.7670   32.9170   48.3740 C   0  0  0  0  0  0  0  0  0  0  0  0
   61.8870   32.0820   48.4510 C   0  0  0  0  0  0  0  0  0  0  0  0
   62.9930   32.3140   47.6270 C   0  0  0  0  0  0  0  0  0  0  0  0
   64.0780   31.5060   47.7040 F   0  0  0  0  0  0  0  0  0  0  0  0
   62.9800   33.3830   46.7270 C   0  0  0  0  0  0  0  0  0  0  0  0
   61.8600   34.2210   46.6460 C   0  0  0  0  0  0  0  0  0  0  0  0
   56.6648   31.7921   45.8890 H   0  0  0  0  0  0  0  0  0  0  0  0
   56.1699   33.3322   45.1030 H   0  0  0  0  0  0  0  0  0  0  0  0
   56.3480   29.2306   43.3745 H   0  0  0  0  0  0  0  0  0  0  0  0
   56.6802   26.9643   44.3463 H   0  0  0  0  0  0  0  0  0  0  0  0
   56.5245   25.3675   43.7124 H   0  0  0  0  0  0  0  0  0  0  0  0
   56.0219   23.6392   41.9789 H   0  0  0  0  0  0  0  0  0  0  0  0
   56.2633   21.1951   42.5194 H   0  0  0  0  0  0  0  0  0  0  0  0
   57.8235   20.0257   47.5731 H   0  0  0  0  0  0  0  0  0  0  0  0
   57.7710   22.5620   47.5980 H   0  0  0  0  0  0  0  0  0  0  0  0
   60.3799   28.2781   46.1679 H   0  0  0  0  0  0  0  0  0  0  0  0
   60.0379   30.5568   45.2144 H   0  0  0  0  0  0  0  0  0  0  0  0
   60.0084   33.2668   44.2388 H   0  0  0  0  0  0  0  0  0  0  0  0
   58.7754   33.9307   43.0783 H   0  0  0  0  0  0  0  0  0  0  0  0
   59.7126   35.5254   44.9084 H   0  0  0  0  0  0  0  0  0  0  0  0
   57.9329   35.4620   44.6504 H   0  0  0  0  0  0  0  0  0  0  0  0
   59.9174   35.9498   47.2217 H   0  0  0  0  0  0  0  0  0  0  0  0
   59.0603   34.9132   48.4132 H   0  0  0  0  0  0  0  0  0  0  0  0
   59.9025   32.7348   49.0293 H   0  0  0  0  0  0  0  0  0  0  0  0
   61.8977   31.2417   49.1608 H   0  0  0  0  0  0  0  0  0  0  0  0
   63.8509   33.5670   46.0808 H   0  0  0  0  0  0  0  0  0  0  0  0
   61.8568   35.0646   45.9400 H   0  0  0  0  0  0  0  0  0  0  0  0
  1  2  2  0
  2  3  1  0
  3  4  1  0
  4  5  1  0
  5  6  2  0
  5  7  1  0
  7  8  2  0
  8  9  1  0
  9 10  2  0
 10 11  1  0
 11 12  1  0
 12 13  2  0
 12 14  2  0
 12 15  1  0
 15 16  2  0
 16 17  1  0
 17 18  2  0
 18 19  1  0
 19 20  1  0
 20 21  1  0
 21 22  2  0
 22 23  1  0
 10 24  1  0
 24 25  2  0
  4 26  1  0
 26 27  1  0
 27 28  1  0
 28 29  1  0
 29 30  1  0
 30 31  2  0
 31 32  1  0
 32 33  2  0
 33 34  1  0
 33 35  1  0
 35 36  2  0
 28  2  1  0
 36 30  1  0
 25  7  1  0
 23 15  1  0
 23 19  2  0
  3 37  1  0
  3 38  1  0
  8 39  1  0
  9 40  1  0
 16 41  1  0
 17 42  1  0
 18 43  1  0
 21 44  1  0
 22 45  1  0
 24 46  1  0
 25 47  1  0
 26 48  1  0
 26 49  1  0
 27 50  1  0
 27 51  1  0
 29 52  1  0
 29 53  1  0
 31 54  1  0
 32 55  1  0
 35 56  1  0
 36 57  1  0
M  CHG  2  11  -1  22   1
M  END
>  <UniqueID>  (40) 
38

>  <SMILES>  (40) 
O=C1CN(C(=O)c2ccc([N-]S(=O)(=O)c3cccc4sc[nH+]c34)cc2)CCN1Cc1ccc(F)cc1

>  <Energy>  (40) 
106.95674134486323

>  <Genealogy>  (40) 
O=C1CN(C(=O)c2ccc([N-]S(=O)(=O)c3cccc4sc[nH+]c34)cc2)CCN1Cc1ccc(F)cc1 (protonated)
O=C1CN(C(=O)c2ccc([N-]S(=O)(=O)c3cccc4sc[nH+]c34)cc2)CCN1Cc1ccc(F)cc1 (3D coordinates assigned)
O=C1CN(C(=O)c2ccc([N-]S(=O)(=O)c3cccc4sc[nH+]c34)cc2)CCN1Cc1ccc(F)cc1 (nonaromatic ring conformer: 106.95674134486323 kcal/mol)

>  <smiles>  (40) 
O=C1CN(C(=O)c2ccc(NS(=O)(=O)c3cccc4scnc34)cc2)CCN1Cc1ccc(F)cc1

>  <score_type>  (40) 
oracle

>  <origin>  (40) 
adg

>  <m_score__min__energy>  (40) 
-9.8399999999999999

>  <m_primary>  (40) 
energy

$$$$
41:0
     RDKit          3D

 41 43  0  0  0  0  0  0  0  0999 V2000
   60.0680   35.4671   48.6387 H   0  0  0  0  0  0  0  0  0  0  0  0
   60.3720   34.6020   48.0310 C   0  0  0  0  0  0  0  0  0  0  0  0
   59.9170   34.4780   46.8220 N   0  0  0  0  0  0  0  0  0  0  0  0
   59.2050   33.3490   46.2870 C   0  0  0  0  0  0  0  0  0  0  0  0
   59.3190   32.0490   46.8210 C   0  0  0  0  0  0  0  0  0  0  0  0
   59.9679   31.8695   47.6909 H   0  0  0  0  0  0  0  0  0  0  0  0
   58.6110   30.9870   46.2500 C   0  0  0  0  0  0  0  0  0  0  0  0
   58.6966   29.9781   46.6798 H   0  0  0  0  0  0  0  0  0  0  0  0
   57.7930   31.2020   45.1330 C   0  0  0  0  0  0  0  0  0  0  0  0
   56.8900   29.8670   44.4280 S   0  0  0  0  0  0  0  0  0  0  0  0
   55.4520   29.9480   44.8580 O   0  0  0  0  0  0  0  0  0  0  0  0
   56.9610   29.9470   42.9280 O   0  0  0  0  0  0  0  0  0  0  0  0
   57.5820   28.3740   44.9700 N   0  0  0  0  0  0  0  0  0  0  0  0
   56.8670   27.4280   45.4930 C   0  0  0  0  0  0  0  0  0  0  0  0
   55.5610   27.4560   45.6180 O   0  0  0  0  0  0  0  0  0  0  0  0
   55.1280   26.3520   46.1620 N   0  0  0  0  0  0  0  0  0  0  0  0
   56.2080   25.5770   46.3950 C   0  0  0  0  0  0  0  0  0  0  0  0
   56.1400   24.2150   47.0050 C   0  0  0  0  0  0  0  0  0  0  0  0
   56.1444   24.3037   48.1014 H   0  0  0  0  0  0  0  0  0  0  0  0
   55.2157   23.7140   46.6814 H   0  0  0  0  0  0  0  0  0  0  0  0
   57.0098   23.6245   46.6814 H   0  0  0  0  0  0  0  0  0  0  0  0
   57.3520   26.2420   45.9950 C   0  0  0  0  0  0  0  0  0  0  0  0
   58.7620   25.7390   45.9850 C   0  0  0  0  0  0  0  0  0  0  0  0
   59.1139   25.6135   47.0196 H   0  0  0  0  0  0  0  0  0  0  0  0
   58.8023   24.7710   45.4640 H   0  0  0  0  0  0  0  0  0  0  0  0
   59.4059   26.4629   45.4640 H   0  0  0  0  0  0  0  0  0  0  0  0
   57.6830   32.4900   44.5960 C   0  0  0  0  0  0  0  0  0  0  0  0
   57.0381   32.6664   43.7225 H   0  0  0  0  0  0  0  0  0  0  0  0
   58.3900   33.5530   45.1660 C   0  0  0  0  0  0  0  0  0  0  0  0
   58.3055   34.5594   44.7300 H   0  0  0  0  0  0  0  0  0  0  0  0
   61.2960   33.5940   48.6050 C   0  0  0  0  0  0  0  0  0  0  0  0
   60.9520   32.9430   49.8150 C   0  0  0  0  0  0  0  0  0  0  0  0
   59.4670   33.3170   50.6890 Cl  0  0  0  0  0  0  0  0  0  0  0  0
   61.8140   31.9930   50.3730 C   0  0  0  0  0  0  0  0  0  0  0  0
   61.5420   31.4961   51.3159 H   0  0  0  0  0  0  0  0  0  0  0  0
   63.0130   31.6720   49.7440 C   0  0  0  0  0  0  0  0  0  0  0  0
   63.6869   30.9277   50.1933 H   0  0  0  0  0  0  0  0  0  0  0  0
   63.3610   32.2920   48.5460 C   0  0  0  0  0  0  0  0  0  0  0  0
   64.3078   32.0301   48.0510 H   0  0  0  0  0  0  0  0  0  0  0  0
   62.5150   33.2460   47.9670 C   0  0  0  0  0  0  0  0  0  0  0  0
   63.0040   33.9140   46.4110 Cl  0  0  0  0  0  0  0  0  0  0  0  0
  1  2  1  0
  2  3  2  3
  3  4  1  0
  4  5  2  0
  5  6  1  0
  5  7  1  0
  7  8  1  0
  7  9  2  0
  9 10  1  0
 10 11  2  0
 10 12  2  0
 10 13  1  0
 13 14  2  0
 14 15  1  0
 15 16  1  0
 16 17  1  0
 17 18  1  0
 18 19  1  0
 18 20  1  0
 18 21  1  0
 17 22  2  0
 22 23  1  0
 23 24  1  0
 23 25  1  0
 23 26  1  0
  9 27  1  0
 27 28  1  0
 27 29  2  0
 29 30  1  0
  2 31  1  0
 31 32  2  0
 32 33  1  0
 32 34  1  0
 34 35  1  0
 34 36  2  0
 36 37  1  0
 36 38  1  0
 38 39  1  0
 38 40  2  0
 40 41  1  0
 29  4  1  0
 40 31  1  0
 22 14  1  0
M  CHG  1  16  -1
M  END
>  <UniqueID>  (41) 
39

>  <SMILES>  (41) 
Cc1[n-]o/c(=N\S(=O)(=O)c2ccc(N=Cc3c(Cl)cccc3Cl)cc2)c1C

>  <Energy>  (41) 
85.18100970703107

>  <Genealogy>  (41) 
Cc1[n-]oc(=NS(=O)(=O)c2ccc(N=Cc3c(Cl)cccc3Cl)cc2)c1C (protonated)
Cc1[n-]o/c(=N\S(=O)(=O)c2ccc(N=Cc3c(Cl)cccc3Cl)cc2)c1C (cis-trans isomerization)
Cc1[n-]o/c(=N\S(=O)(=O)c2ccc(N=Cc3c(Cl)cccc3Cl)cc2)c1C (3D coordinates assigned)
Cc1[n-]o/c(=N\S(=O)(=O)c2ccc(N=Cc3c(Cl)cccc3Cl)cc2)c1C (optimized conformer: 85.18100970703107 kcal/mol)

>  <smiles>  (41) 
Cc1[nH]oc(=NS(=O)(=O)c2ccc(N=Cc3c(Cl)cccc3Cl)cc2)c1C

>  <score_type>  (41) 
oracle

>  <origin>  (41) 
adg

>  <m_score__min__energy>  (41) 
-13.09

>  <m_primary>  (41) 
energy

$$$$
42:0
     RDKit          3D

 48 50  0  0  0  0  0  0  0  0999 V2000
   63.0690   30.8590   50.4570 C   0  0  0  0  0  0  0  0  0  0  0  0
   62.8430   31.6050   49.1700 C   0  0  0  0  0  0  0  0  0  0  0  0
   63.7020   32.6560   48.8110 C   0  0  0  0  0  0  0  0  0  0  0  0
   63.5040   33.3560   47.6190 C   0  0  0  0  0  0  0  0  0  0  0  0
   62.4440   33.0160   46.7780 C   0  0  0  0  0  0  0  0  0  0  0  0
   61.5850   31.9690   47.1200 C   0  0  0  0  0  0  0  0  0  0  0  0
   61.7860   31.2390   48.3070 C   0  0  0  0  0  0  0  0  0  0  0  0
   60.9060   30.1690   48.6900 N   0  0  0  0  0  0  0  0  0  0  0  0
   59.4830   30.2390   48.8550 C   0  0  0  0  0  0  0  0  0  0  0  0
   58.7470   29.2620   48.5470 O   0  0  0  0  0  0  0  0  0  0  0  0
   58.8760   31.4470   49.4920 C   0  0  0  0  0  0  0  0  0  0  0  0
   58.7730   32.5530   48.4940 C   0  0  0  0  0  0  0  0  0  0  0  0
   58.1230   32.4330   47.3170 N   0  0  0  0  0  0  0  0  0  0  0  0
   58.2460   33.5540   46.5540 C   0  0  0  0  0  0  0  0  0  0  0  0
   57.6760   33.6320   45.1720 C   0  0  0  0  0  0  0  0  0  0  0  0
   57.9410   32.4260   44.4600 O   0  0  0  0  0  0  0  0  0  0  0  0
   57.2270   31.2380   44.6690 C   0  0  0  0  0  0  0  0  0  0  0  0
   55.9780   31.2150   44.5010 O   0  0  0  0  0  0  0  0  0  0  0  0
   57.9400   30.0140   45.0940 C   0  0  0  0  0  0  0  0  0  0  0  0
   59.3390   30.0090   45.2210 C   0  0  0  0  0  0  0  0  0  0  0  0
   60.0080   28.8500   45.6150 C   0  0  0  0  0  0  0  0  0  0  0  0
   59.2970   27.6790   45.8910 C   0  0  0  0  0  0  0  0  0  0  0  0
   60.2010   26.2530   46.3930 Cl  0  0  0  0  0  0  0  0  0  0  0  0
   57.8930   27.6650   45.7680 C   0  0  0  0  0  0  0  0  0  0  0  0
   56.9620   26.2040   46.1220 S   0  0  0  0  0  0  0  0  0  0  0  0
   55.2630   26.5120   46.0080 N   0  0  0  0  0  0  0  0  0  0  0  0
   57.2780   25.7430   47.5170 O   0  0  0  0  0  0  0  0  0  0  0  0
   57.3270   25.1250   45.1420 O   0  0  0  0  0  0  0  0  0  0  0  0
   57.2250   28.8360   45.3710 C   0  0  0  0  0  0  0  0  0  0  0  0
   59.0220   34.5670   47.1120 C   0  0  0  0  0  0  0  0  0  0  0  0
   59.5560   34.0350   48.6150 S   0  0  0  0  0  0  0  0  0  0  0  0
   62.8669   31.5262   51.3079 H   0  0  0  0  0  0  0  0  0  0  0  0
   62.3931   29.9923   50.5020 H   0  0  0  0  0  0  0  0  0  0  0  0
   64.1122   30.5131   50.5020 H   0  0  0  0  0  0  0  0  0  0  0  0
   64.5366   32.9299   49.4732 H   0  0  0  0  0  0  0  0  0  0  0  0
   64.1839   34.1756   47.3431 H   0  0  0  0  0  0  0  0  0  0  0  0
   62.2844   33.5738   45.8434 H   0  0  0  0  0  0  0  0  0  0  0  0
   60.7454   31.7129   46.4571 H   0  0  0  0  0  0  0  0  0  0  0  0
   57.8713   31.1969   49.8637 H   0  0  0  0  0  0  0  0  0  0  0  0
   59.5124   31.7729   50.3279 H   0  0  0  0  0  0  0  0  0  0  0  0
   56.5885   33.7845   45.2359 H   0  0  0  0  0  0  0  0  0  0  0  0
   58.1432   34.4730   44.6387 H   0  0  0  0  0  0  0  0  0  0  0  0
   59.9105   30.9246   45.0085 H   0  0  0  0  0  0  0  0  0  0  0  0
   61.1039   28.8579   45.7092 H   0  0  0  0  0  0  0  0  0  0  0  0
   55.1500   27.4210   45.5070 H   0  0  0  0  0  0  0  0  0  0  0  0
   54.9130   26.6620   46.9820 H   0  0  0  0  0  0  0  0  0  0  0  0
   56.1291   28.8306   45.2759 H   0  0  0  0  0  0  0  0  0  0  0  0
   59.2455   35.5408   46.6518 H   0  0  0  0  0  0  0  0  0  0  0  0
  1  2  1  0
  2  3  2  0
  3  4  1  0
  4  5  2  0
  5  6  1  0
  6  7  2  0
  7  8  1  0
  8  9  1  0
  9 10  2  0
  9 11  1  0
 11 12  1  0
 12 13  2  0
 13 14  1  0
 14 15  1  0
 15 16  1  0
 16 17  1  0
 17 18  2  0
 17 19  1  0
 19 20  2  0
 20 21  1  0
 21 22  2  0
 22 23  1  0
 22 24  1  0
 24 25  1  0
 25 26  1  0
 25 27  2  0
 25 28  2  0
 24 29  2  0
 14 30  2  0
 30 31  1  0
  7  2  1  0
 31 12  1  0
 29 19  1  0
  1 32  1  0
  1 33  1  0
  1 34  1  0
  3 35  1  0
  4 36  1  0
  5 37  1  0
  6 38  1  0
 11 39  1  0
 11 40  1  0
 15 41  1  0
 15 42  1  0
 20 43  1  0
 21 44  1  0
 26 45  1  0
 26 46  1  0
 29 47  1  0
 30 48  1  0
M  CHG  1   8  -1
M  END
>  <UniqueID>  (42) 
40

>  <SMILES>  (42) 
Cc1ccccc1[N-]C(=O)Cc1nc(COC(=O)c2ccc(Cl)c(S(N)(=O)=O)c2)cs1

>  <Energy>  (42) 
77.78957079909365

>  <Genealogy>  (42) 
Cc1ccccc1[N-]C(=O)Cc1nc(COC(=O)c2ccc(Cl)c(S(N)(=O)=O)c2)cs1 (protonated)
Cc1ccccc1[N-]C(=O)Cc1nc(COC(=O)c2ccc(Cl)c(S(N)(=O)=O)c2)cs1 (3D coordinates assigned)
Cc1ccccc1[N-]C(=O)Cc1nc(COC(=O)c2ccc(Cl)c(S(N)(=O)=O)c2)cs1 (optimized conformer: 77.78957079909365 kcal/mol)

>  <smiles>  (42) 
Cc1ccccc1NC(=O)Cc1nc(COC(=O)c2ccc(Cl)c(S(N)(=O)=O)c2)cs1

>  <score_type>  (42) 
oracle

>  <origin>  (42) 
adg

>  <m_score__min__energy>  (42) 
-11.029999999999999

>  <m_primary>  (42) 
energy

$$$$
43:0
     RDKit          3D

 44 45  0  0  0  0  0  0  0  0999 V2000
   54.4410   29.0380   44.1240 H   0  0  0  0  0  0  0  0  0  0  0  0
   55.1830   29.3610   44.7830 N   0  0  0  0  0  0  0  0  0  0  0  0
   56.5760   29.7330   43.8310 S   0  0  0  0  0  0  0  0  0  0  0  0
   57.4350   28.5060   43.7020 O   0  0  0  0  0  0  0  0  0  0  0  0
   56.1450   30.1660   42.4570 O   0  0  0  0  0  0  0  0  0  0  0  0
   57.4890   31.0240   44.6050 C   0  0  0  0  0  0  0  0  0  0  0  0
   57.9310   32.1220   43.8550 C   0  0  0  0  0  0  0  0  0  0  0  0
   57.7168   32.1712   42.7772 H   0  0  0  0  0  0  0  0  0  0  0  0
   58.6430   33.1550   44.4710 C   0  0  0  0  0  0  0  0  0  0  0  0
   58.9852   34.0156   43.8774 H   0  0  0  0  0  0  0  0  0  0  0  0
   58.9220   33.0970   45.8430 C   0  0  0  0  0  0  0  0  0  0  0  0
   59.7960   34.4140   46.6190 S   0  0  0  0  0  0  0  0  0  0  0  0
   59.3330   34.5480   48.0430 O   0  0  0  0  0  0  0  0  0  0  0  0
   59.5320   35.7120   45.9080 O   0  0  0  0  0  0  0  0  0  0  0  0
   61.4920   34.0760   46.6020 N   0  0  0  0  0  0  0  0  0  0  0  0
   62.0150   33.1910   47.3910 C   0  0  0  0  0  0  0  0  0  0  0  0
   62.9913   33.3921   47.8563 H   0  0  0  0  0  0  0  0  0  0  0  0
   61.3240   31.9170   47.6770 C   0  0  0  0  0  0  0  0  0  0  0  0
   61.3650   30.8440   46.7740 C   0  0  0  0  0  0  0  0  0  0  0  0
   61.9218   30.9506   45.8313 H   0  0  0  0  0  0  0  0  0  0  0  0
   60.7040   29.6320   47.0560 C   0  0  0  0  0  0  0  0  0  0  0  0
   60.7480   28.5610   46.1500 O   0  0  0  0  0  0  0  0  0  0  0  0
   60.3400   28.6230   44.7870 C   0  0  0  0  0  0  0  0  0  0  0  0
   59.2536   28.7881   44.7366 H   0  0  0  0  0  0  0  0  0  0  0  0
   60.8605   29.4524   44.2858 H   0  0  0  0  0  0  0  0  0  0  0  0
   60.5907   27.6765   44.2858 H   0  0  0  0  0  0  0  0  0  0  0  0
   59.9880   29.5010   48.2740 C   0  0  0  0  0  0  0  0  0  0  0  0
   59.2940   28.3350   48.6520 O   0  0  0  0  0  0  0  0  0  0  0  0
   58.5840   27.4520   47.7910 C   0  0  0  0  0  0  0  0  0  0  0  0
   58.0079   26.7355   48.3949 H   0  0  0  0  0  0  0  0  0  0  0  0
   57.8977   28.0318   47.1563 H   0  0  0  0  0  0  0  0  0  0  0  0
   59.2976   26.9062   47.1563 H   0  0  0  0  0  0  0  0  0  0  0  0
   59.9480   30.5770   49.1770 C   0  0  0  0  0  0  0  0  0  0  0  0
   59.2300   30.4120   50.3730 O   0  0  0  0  0  0  0  0  0  0  0  0
   58.2640   31.3300   50.8720 C   0  0  0  0  0  0  0  0  0  0  0  0
   58.2787   31.3160   51.9718 H   0  0  0  0  0  0  0  0  0  0  0  0
   58.5020   32.3429   50.5150 H   0  0  0  0  0  0  0  0  0  0  0  0
   57.2646   31.0408   50.5150 H   0  0  0  0  0  0  0  0  0  0  0  0
   60.6150   31.7770   48.8730 C   0  0  0  0  0  0  0  0  0  0  0  0
   60.5782   32.6150   49.5847 H   0  0  0  0  0  0  0  0  0  0  0  0
   58.4690   32.0070   46.5970 C   0  0  0  0  0  0  0  0  0  0  0  0
   58.6750   31.9630   47.6766 H   0  0  0  0  0  0  0  0  0  0  0  0
   57.7550   30.9740   45.9800 C   0  0  0  0  0  0  0  0  0  0  0  0
   57.4013   30.1199   46.5761 H   0  0  0  0  0  0  0  0  0  0  0  0
  1  2  1  0
  2  3  1  0
  3  4  2  0
  3  5  2  0
  3  6  1  0
  6  7  2  0
  7  8  1  0
  7  9  1  0
  9 10  1  0
  9 11  2  0
 11 12  1  0
 12 13  2  0
 12 14  2  0
 12 15  1  0
 15 16  2  0
 16 17  1  0
 16 18  1  0
 18 19  2  0
 19 20  1  0
 19 21  1  0
 21 22  1  0
 22 23  1  0
 23 24  1  0
 23 25  1  0
 23 26  1  0
 21 27  2  0
 27 28  1  0
 28 29  1  0
 29 30  1  0
 29 31  1  0
 29 32  1  0
 27 33  1  0
 33 34  1  0
 34 35  1  0
 35 36  1  0
 35 37  1  0
 35 38  1  0
 33 39  2  0
 39 40  1  0
 11 41  1  0
 41 42  1  0
 41 43  2  0
 43 44  1  0
 43  6  1  0
 39 18  1  0
M  CHG  1   2  -1
M  END
>  <UniqueID>  (43) 
41

>  <SMILES>  (43) 
COc1cc(/C=N/S(=O)(=O)c2ccc(S([NH-])(=O)=O)cc2)cc(OC)c1OC

>  <Energy>  (43) 
47.102161241218504

>  <Genealogy>  (43) 
COc1cc(C=NS(=O)(=O)c2ccc(S([NH-])(=O)=O)cc2)cc(OC)c1OC (protonated)
COc1cc(/C=N/S(=O)(=O)c2ccc(S([NH-])(=O)=O)cc2)cc(OC)c1OC (cis-trans isomerization)
COc1cc(/C=N/S(=O)(=O)c2ccc(S([NH-])(=O)=O)cc2)cc(OC)c1OC (3D coordinates assigned)
COc1cc(/C=N/S(=O)(=O)c2ccc(S([NH-])(=O)=O)cc2)cc(OC)c1OC (optimized conformer: 47.102161241218504 kcal/mol)

>  <smiles>  (43) 
COc1cc(C=NS(=O)(=O)c2ccc(S(N)(=O)=O)cc2)cc(OC)c1OC

>  <score_type>  (43) 
oracle

>  <origin>  (43) 
adg

>  <m_score__min__energy>  (43) 
-10.51

>  <m_primary>  (43) 
energy

$$$$
44:0
     RDKit          3D

 43 46  0  0  1  0  0  0  0  0999 V2000
   57.4710   28.5440   43.6200 N   0  0  0  0  0  0  0  0  0  0  0  0
   56.5840   30.0070   43.6790 S   0  0  0  0  0  0  0  0  0  0  0  0
   55.3680   29.8450   44.5300 O   0  0  0  0  0  0  0  0  0  0  0  0
   56.2870   30.4840   42.2980 O   0  0  0  0  0  0  0  0  0  0  0  0
   57.6160   31.2220   44.4420 C   0  0  0  0  0  0  0  0  0  0  0  0
   57.7180   32.5020   43.9030 C   0  0  0  0  0  0  0  0  0  0  0  0
   58.5410   33.4240   44.5370 C   0  0  0  0  0  0  0  0  0  0  0  0
   59.2480   33.0740   45.6830 C   0  0  0  0  0  0  0  0  0  0  0  0
   60.0650   34.0990   46.2530 N   0  0  0  0  0  0  0  0  0  0  0  0
   60.8750   33.8820   47.2260 C   0  0  0  0  0  0  0  0  0  0  0  0
   62.2230   33.8320   46.9360 C   0  0  0  0  0  0  0  0  0  0  0  0
   63.1230   33.6000   47.9650 C   0  0  0  0  0  0  0  0  0  0  0  0
   62.6130   33.4350   49.2010 N   0  0  0  0  0  0  0  0  0  0  0  0
   61.2910   33.4910   49.4480 C   0  0  0  0  0  0  0  0  0  0  0  0
   60.7490   33.3170   50.7580 N   0  0  0  0  0  0  0  0  0  0  0  0
   59.5790   32.8410   50.9990 C   0  0  0  0  0  0  0  0  0  0  0  0
   59.2070   32.3440   52.2370 C   0  0  0  0  0  0  0  0  0  0  0  0
   57.8980   31.9290   52.1130 C   0  0  0  0  0  0  0  0  0  0  0  0
   57.0020   31.3160   53.1330 C   0  0  0  0  0  0  0  0  0  0  0  0
   55.7130   30.7280   52.7440 C   0  0  0  0  0  0  0  0  0  0  0  0
   56.8950   29.7940   53.1290 C   0  0  0  0  0  0  0  0  0  0  0  0
   57.4980   32.1690   50.8440 N   0  0  0  0  0  0  0  0  0  0  0  0
   58.5240   32.7160   50.1980 N   0  0  0  0  0  0  0  0  0  0  0  0
   60.3780   33.7170   48.4650 N   0  0  0  0  0  0  0  0  0  0  0  0
   59.1570   31.8130   46.2240 C   0  0  0  0  0  0  0  0  0  0  0  0
   58.3310   30.8890   45.5900 C   0  0  0  0  0  0  0  0  0  0  0  0
   58.2800   28.6190   42.9580 H   0  0  0  0  0  0  0  0  0  0  0  0
   56.9050   27.7080   43.4030 H   0  0  0  0  0  0  0  0  0  0  0  0
   57.1596   32.7766   42.9959 H   0  0  0  0  0  0  0  0  0  0  0  0
   58.6347   34.4412   44.1289 H   0  0  0  0  0  0  0  0  0  0  0  0
   62.5782   33.9740   45.9046 H   0  0  0  0  0  0  0  0  0  0  0  0
   64.2063   33.5527   47.7802 H   0  0  0  0  0  0  0  0  0  0  0  0
   63.2880   33.2610   49.9770 H   0  0  0  0  0  0  0  0  0  0  0  0
   59.8322   32.2909   53.1405 H   0  0  0  0  0  0  0  0  0  0  0  0
   57.2712   32.0833   53.8738 H   0  0  0  0  0  0  0  0  0  0  0  0
   54.8447   30.8182   53.4132 H   0  0  0  0  0  0  0  0  0  0  0  0
   55.0516   30.8204   51.8699 H   0  0  0  0  0  0  0  0  0  0  0  0
   56.8780   29.2331   54.0751 H   0  0  0  0  0  0  0  0  0  0  0  0
   57.4357   28.9600   52.6576 H   0  0  0  0  0  0  0  0  0  0  0  0
   56.5590   31.9740   50.4120 H   0  0  0  0  0  0  0  0  0  0  0  0
   58.5130   33.0080   49.2060 H   0  0  0  0  0  0  0  0  0  0  0  0
   59.7196   31.5428   47.1298 H   0  0  0  0  0  0  0  0  0  0  0  0
   58.2411   29.8741   46.0046 H   0  0  0  0  0  0  0  0  0  0  0  0
  1  2  1  0
  2  3  2  0
  2  4  2  0
  2  5  1  0
  5  6  2  0
  6  7  1  0
  7  8  2  0
  8  9  1  0
  9 10  2  0
 10 11  1  0
 11 12  2  0
 12 13  1  0
 13 14  1  0
 14 15  1  0
 15 16  2  0
 16 17  1  0
 17 18  2  0
 18 19  1  0
 19 20  1  0
 20 21  1  0
 18 22  1  0
 22 23  1  0
 14 24  2  0
  8 25  1  0
 25 26  2  0
 26  5  1  0
 24 10  1  0
 23 16  1  0
 21 19  1  0
  1 27  1  0
  1 28  1  0
  6 29  1  0
  7 30  1  0
 11 31  1  0
 12 32  1  0
 13 33  1  0
 17 34  1  0
 19 35  1  0
 20 36  1  0
 20 37  1  0
 21 38  1  0
 21 39  1  0
 22 40  1  0
 23 41  1  0
 25 42  1  0
 26 43  1  0
M  END
>  <smiles>  (44) 
NS(=O)(=O)c1ccc(N=c2cc[nH]c(N=c3cc(C4CC4)[nH][nH]3)n2)cc1

>  <score_type>  (44) 
oracle

>  <origin>  (44) 
adg

>  <m_score__min__energy>  (44) 
-9.1699999999999999

>  <m_primary>  (44) 
energy

$$$$
45:0
     RDKit          3D

 47 49  0  0  0  0  0  0  0  0999 V2000
   58.8220   28.2100   48.1130 C   0  0  0  0  0  0  0  0  0  0  0  0
   58.8990   29.6980   48.4420 C   0  0  0  0  0  0  0  0  0  0  0  0
   60.1830   30.3280   47.9780 C   0  0  0  0  0  0  0  0  0  0  0  0
   60.7450   30.1300   46.7660 N   0  0  0  0  0  0  0  0  0  0  0  0
   61.8820   30.8140   46.7440 N   0  0  0  0  0  0  0  0  0  0  0  0
   62.0030   31.4130   47.9440 C   0  0  0  0  0  0  0  0  0  0  0  0
   63.4010   32.4330   48.4140 S   0  0  0  0  0  0  0  0  0  0  0  0
   62.4920   34.0110   48.2590 C   0  0  0  0  0  0  0  0  0  0  0  0
   61.5340   34.2010   49.3940 C   0  0  0  0  0  0  0  0  0  0  0  0
   61.9650   34.2050   50.5770 O   0  0  0  0  0  0  0  0  0  0  0  0
   60.1340   34.3420   49.1240 N   0  0  0  0  0  0  0  0  0  0  0  0
   59.4860   34.0930   47.8690 C   0  0  0  0  0  0  0  0  0  0  0  0
   58.4690   33.1350   47.7350 C   0  0  0  0  0  0  0  0  0  0  0  0
   57.8540   32.9290   46.4960 C   0  0  0  0  0  0  0  0  0  0  0  0
   58.2370   33.6770   45.3770 C   0  0  0  0  0  0  0  0  0  0  0  0
   57.5950   33.4180   44.1540 O   0  0  0  0  0  0  0  0  0  0  0  0
   57.9280   32.3600   43.2570 C   0  0  0  0  0  0  0  0  0  0  0  0
   57.6020   31.0240   43.8660 C   0  0  0  0  0  0  0  0  0  0  0  0
   56.2700   30.5900   43.9680 C   0  0  0  0  0  0  0  0  0  0  0  0
   55.9770   29.3570   44.5500 C   0  0  0  0  0  0  0  0  0  0  0  0
   57.0080   28.5540   45.0470 C   0  0  0  0  0  0  0  0  0  0  0  0
   58.3340   28.9810   44.9560 C   0  0  0  0  0  0  0  0  0  0  0  0
   58.6320   30.2110   44.3670 C   0  0  0  0  0  0  0  0  0  0  0  0
   59.2360   34.6580   45.5190 C   0  0  0  0  0  0  0  0  0  0  0  0
   59.8480   34.8660   46.7580 C   0  0  0  0  0  0  0  0  0  0  0  0
   60.9580   31.1240   48.7330 N   0  0  0  0  0  0  0  0  0  0  0  0
   60.7430   31.5280   50.0610 N   0  0  0  0  0  0  0  0  0  0  0  0
   58.7919   27.6291   49.0466 H   0  0  0  0  0  0  0  0  0  0  0  0
   57.9123   28.0105   47.5276 H   0  0  0  0  0  0  0  0  0  0  0  0
   59.7062   27.9177   47.5276 H   0  0  0  0  0  0  0  0  0  0  0  0
   58.0580   30.2109   47.9523 H   0  0  0  0  0  0  0  0  0  0  0  0
   58.8550   29.7995   49.5364 H   0  0  0  0  0  0  0  0  0  0  0  0
   63.2135   34.8413   48.2563 H   0  0  0  0  0  0  0  0  0  0  0  0
   61.9186   33.9905   47.3205 H   0  0  0  0  0  0  0  0  0  0  0  0
   58.1545   32.5440   48.6078 H   0  0  0  0  0  0  0  0  0  0  0  0
   57.0618   32.1719   46.4001 H   0  0  0  0  0  0  0  0  0  0  0  0
   57.3548   32.4820   42.3261 H   0  0  0  0  0  0  0  0  0  0  0  0
   59.0074   32.3997   43.0487 H   0  0  0  0  0  0  0  0  0  0  0  0
   55.4558   31.2244   43.5878 H   0  0  0  0  0  0  0  0  0  0  0  0
   54.9335   29.0158   44.6181 H   0  0  0  0  0  0  0  0  0  0  0  0
   56.7740   27.5842   45.5105 H   0  0  0  0  0  0  0  0  0  0  0  0
   59.1438   28.3483   45.3483 H   0  0  0  0  0  0  0  0  0  0  0  0
   59.6776   30.5449   44.2949 H   0  0  0  0  0  0  0  0  0  0  0  0
   59.5364   35.2635   44.6512 H   0  0  0  0  0  0  0  0  0  0  0  0
   60.6200   35.6427   46.8618 H   0  0  0  0  0  0  0  0  0  0  0  0
   60.5810   32.5320   50.2920 H   0  0  0  0  0  0  0  0  0  0  0  0
   60.7430   30.8340   50.8390 H   0  0  0  0  0  0  0  0  0  0  0  0
  1  2  1  0
  2  3  1  0
  3  4  2  0
  4  5  1  0
  5  6  2  0
  6  7  1  0
  7  8  1  0
  8  9  1  0
  9 10  2  0
  9 11  1  0
 11 12  1  0
 12 13  2  0
 13 14  1  0
 14 15  2  0
 15 16  1  0
 16 17  1  0
 17 18  1  0
 18 19  2  0
 19 20  1  0
 20 21  2  0
 21 22  1  0
 22 23  2  0
 15 24  1  0
 24 25  2  0
  6 26  1  0
 26 27  1  0
 26  3  1  0
 25 12  1  0
 23 18  1  0
  1 28  1  0
  1 29  1  0
  1 30  1  0
  2 31  1  0
  2 32  1  0
  8 33  1  0
  8 34  1  0
 13 35  1  0
 14 36  1  0
 17 37  1  0
 17 38  1  0
 19 39  1  0
 20 40  1  0
 21 41  1  0
 22 42  1  0
 23 43  1  0
 24 44  1  0
 25 45  1  0
 27 46  1  0
 27 47  1  0
M  CHG  1  11  -1
M  END
>  <UniqueID>  (45) 
42

>  <SMILES>  (45) 
CCc1nnc(SCC(=O)[N-]c2ccc(OCc3ccccc3)cc2)n1N

>  <Energy>  (45) 
81.04244422858508

>  <Genealogy>  (45) 
CCc1nnc(SCC(=O)[N-]c2ccc(OCc3ccccc3)cc2)n1N (protonated)
CCc1nnc(SCC(=O)[N-]c2ccc(OCc3ccccc3)cc2)n1N (3D coordinates assigned)
CCc1nnc(SCC(=O)[N-]c2ccc(OCc3ccccc3)cc2)n1N (optimized conformer: 81.04244422858508 kcal/mol)

>  <smiles>  (45) 
CCc1nnc(SCC(=O)Nc2ccc(OCc3ccccc3)cc2)n1N

>  <score_type>  (45) 
oracle

>  <origin>  (45) 
adg

>  <m_score__min__energy>  (45) 
-10.17

>  <m_primary>  (45) 
energy

$$$$
46:0
     RDKit          3D

 60 62  0  0  0  0  0  0  0  0999 V2000
   63.6460   33.1550   47.4580 C   0  0  0  0  0  0  0  0  0  0  0  0
   62.5230   33.8240   48.0210 O   0  0  0  0  0  0  0  0  0  0  0  0
   61.2190   33.7530   47.5100 C   0  0  0  0  0  0  0  0  0  0  0  0
   60.1710   33.4960   48.4020 C   0  0  0  0  0  0  0  0  0  0  0  0
   58.8520   33.4250   47.9440 C   0  0  0  0  0  0  0  0  0  0  0  0
   58.5630   33.6180   46.5850 C   0  0  0  0  0  0  0  0  0  0  0  0
   57.1480   33.5120   46.0900 C   0  0  0  0  0  0  0  0  0  0  0  0
   57.0740   32.6030   44.8600 C   0  0  0  0  0  0  0  0  0  0  0  0
   57.0450   31.1960   45.2530 N   0  0  0  0  0  0  0  0  0  0  0  0
   58.1300   30.2670   45.1170 C   0  0  0  0  0  0  0  0  0  0  0  0
   58.6780   30.1370   43.9930 O   0  0  0  0  0  0  0  0  0  0  0  0
   58.6490   29.4980   46.2680 C   0  0  0  0  0  0  0  0  0  0  0  0
   59.6820   30.0600   47.0360 C   0  0  0  0  0  0  0  0  0  0  0  0
   60.1770   29.3930   48.1560 C   0  0  0  0  0  0  0  0  0  0  0  0
   59.6530   28.1530   48.5180 C   0  0  0  0  0  0  0  0  0  0  0  0
   58.6400   27.5710   47.7550 C   0  0  0  0  0  0  0  0  0  0  0  0
   58.1360   28.2220   46.6150 C   0  0  0  0  0  0  0  0  0  0  0  0
   56.8360   27.4510   45.6860 S   0  0  0  0  0  0  0  0  0  0  0  0
   55.8870   28.5080   45.1960 O   0  0  0  0  0  0  0  0  0  0  0  0
   57.4120   26.7180   44.5050 O   0  0  0  0  0  0  0  0  0  0  0  0
   55.9470   26.3350   46.6840 N   0  0  0  0  0  0  0  0  0  0  0  0
   56.3430   24.9630   46.3730 C   0  0  0  0  0  0  0  0  0  0  0  0
   56.7550   24.2390   47.6550 C   0  0  0  0  0  0  0  0  0  0  0  0
   57.3580   22.9760   47.3680 O   0  0  0  0  0  0  0  0  0  0  0  0
   57.4530   22.3800   46.0980 C   0  0  0  0  0  0  0  0  0  0  0  0
   56.4110   21.6110   45.5420 C   0  0  0  0  0  0  0  0  0  0  0  0
   56.5560   21.0320   44.2800 C   0  0  0  0  0  0  0  0  0  0  0  0
   57.7330   21.2170   43.5570 C   0  0  0  0  0  0  0  0  0  0  0  0
   58.7670   21.9880   44.0890 C   0  0  0  0  0  0  0  0  0  0  0  0
   58.6350   22.5750   45.3620 C   0  0  0  0  0  0  0  0  0  0  0  0
   59.6480   23.3620   45.9300 O   0  0  0  0  0  0  0  0  0  0  0  0
   59.6240   24.7860   45.9970 C   0  0  0  0  0  0  0  0  0  0  0  0
   59.6120   33.8570   45.6860 C   0  0  0  0  0  0  0  0  0  0  0  0
   60.9310   33.9310   46.1430 C   0  0  0  0  0  0  0  0  0  0  0  0
   64.2878   32.7727   48.2655 H   0  0  0  0  0  0  0  0  0  0  0  0
   63.2994   32.3160   46.8367 H   0  0  0  0  0  0  0  0  0  0  0  0
   64.2188   33.8592   46.8367 H   0  0  0  0  0  0  0  0  0  0  0  0
   60.3869   33.3489   49.4705 H   0  0  0  0  0  0  0  0  0  0  0  0
   58.0369   33.2168   48.6527 H   0  0  0  0  0  0  0  0  0  0  0  0
   56.5165   33.0934   46.8874 H   0  0  0  0  0  0  0  0  0  0  0  0
   56.7937   34.5154   45.8113 H   0  0  0  0  0  0  0  0  0  0  0  0
   56.1610   32.8376   44.2931 H   0  0  0  0  0  0  0  0  0  0  0  0
   57.9660   32.7767   44.2402 H   0  0  0  0  0  0  0  0  0  0  0  0
   60.1043   31.0350   46.7514 H   0  0  0  0  0  0  0  0  0  0  0  0
   60.9815   29.8456   48.7543 H   0  0  0  0  0  0  0  0  0  0  0  0
   60.0388   27.6323   49.4068 H   0  0  0  0  0  0  0  0  0  0  0  0
   58.2314   26.5927   48.0483 H   0  0  0  0  0  0  0  0  0  0  0  0
   55.4961   24.4343   45.9113 H   0  0  0  0  0  0  0  0  0  0  0  0
   57.1940   24.9800   45.6763 H   0  0  0  0  0  0  0  0  0  0  0  0
   57.4756   24.8636   48.2033 H   0  0  0  0  0  0  0  0  0  0  0  0
   55.8528   24.0633   48.2593 H   0  0  0  0  0  0  0  0  0  0  0  0
   55.4777   21.4661   46.1059 H   0  0  0  0  0  0  0  0  0  0  0  0
   55.7399   20.4288   43.8556 H   0  0  0  0  0  0  0  0  0  0  0  0
   57.8469   20.7545   42.5655 H   0  0  0  0  0  0  0  0  0  0  0  0
   59.6906   22.1381   43.5106 H   0  0  0  0  0  0  0  0  0  0  0  0
   59.6187   25.1035   47.0502 H   0  0  0  0  0  0  0  0  0  0  0  0
   60.5154   25.1917   45.4963 H   0  0  0  0  0  0  0  0  0  0  0  0
   58.7194   25.1614   45.4963 H   0  0  0  0  0  0  0  0  0  0  0  0
   59.3959   33.9870   44.6153 H   0  0  0  0  0  0  0  0  0  0  0  0
   61.7469   34.1290   45.4323 H   0  0  0  0  0  0  0  0  0  0  0  0
  1  2  1  0
  2  3  1  0
  3  4  2  0
  4  5  1  0
  5  6  2  0
  6  7  1  0
  7  8  1  0
  8  9  1  0
  9 10  1  0
 10 11  2  0
 10 12  1  0
 12 13  2  0
 13 14  1  0
 14 15  2  0
 15 16  1  0
 16 17  2  0
 17 18  1  0
 18 19  2  0
 18 20  2  0
 18 21  1  0
 21 22  1  0
 22 23  1  0
 23 24  1  0
 24 25  1  0
 25 26  2  0
 26 27  1  0
 27 28  2  0
 28 29  1  0
 29 30  2  0
 30 31  1  0
 31 32  1  0
  6 33  1  0
 33 34  2  0
 34  3  1  0
 17 12  1  0
 30 25  1  0
  1 35  1  0
  1 36  1  0
  1 37  1  0
  4 38  1  0
  5 39  1  0
  7 40  1  0
  7 41  1  0
  8 42  1  0
  8 43  1  0
 13 44  1  0
 14 45  1  0
 15 46  1  0
 16 47  1  0
 22 48  1  0
 22 49  1  0
 23 50  1  0
 23 51  1  0
 26 52  1  0
 27 53  1  0
 28 54  1  0
 29 55  1  0
 32 56  1  0
 32 57  1  0
 32 58  1  0
 33 59  1  0
 34 60  1  0
M  CHG  2   9  -1  21  -1
M  END
>  <UniqueID>  (46) 
43

>  <SMILES>  (46) 
COc1ccc(CC[N-]C(=O)c2ccccc2S(=O)(=O)[N-]CCOc2ccccc2OC)cc1

>  <Energy>  (46) 
61.67931195777298

>  <Genealogy>  (46) 
COc1ccc(CC[N-]C(=O)c2ccccc2S(=O)(=O)[N-]CCOc2ccccc2OC)cc1 (protonated)
COc1ccc(CC[N-]C(=O)c2ccccc2S(=O)(=O)[N-]CCOc2ccccc2OC)cc1 (3D coordinates assigned)
COc1ccc(CC[N-]C(=O)c2ccccc2S(=O)(=O)[N-]CCOc2ccccc2OC)cc1 (optimized conformer: 61.67931195777298 kcal/mol)

>  <smiles>  (46) 
COc1ccc(CCNC(=O)c2ccccc2S(=O)(=O)NCCOc2ccccc2OC)cc1

>  <score_type>  (46) 
oracle

>  <origin>  (46) 
adg

>  <m_score__min__energy>  (46) 
-11.84

>  <m_primary>  (46) 
energy

$$$$
47:0
     RDKit          3D

 53 54  0  0  0  0  0  0  0  0999 V2000
   57.3930   25.5400   44.5470 C   0  0  0  0  0  0  0  0  0  0  0  0
   56.4460   26.3690   45.8080 S   0  0  0  0  0  0  0  0  0  0  0  0
   57.3090   26.5350   47.0260 O   0  0  0  0  0  0  0  0  0  0  0  0
   55.2390   25.5550   46.1770 O   0  0  0  0  0  0  0  0  0  0  0  0
   55.9580   27.9390   45.2530 N   0  0  0  0  0  0  0  0  0  0  0  0
   56.7260   29.1460   45.3650 C   0  0  0  0  0  0  0  0  0  0  0  0
   56.4450   30.1980   44.4880 C   0  0  0  0  0  0  0  0  0  0  0  0
   57.1630   31.3960   44.5590 C   0  0  0  0  0  0  0  0  0  0  0  0
   58.1760   31.5620   45.5210 C   0  0  0  0  0  0  0  0  0  0  0  0
   58.9500   32.8250   45.6090 C   0  0  0  0  0  0  0  0  0  0  0  0
   58.7290   33.7450   44.7730 O   0  0  0  0  0  0  0  0  0  0  0  0
   59.9550   33.0110   46.6170 N   0  0  0  0  0  0  0  0  0  0  0  0
   60.6050   34.3100   46.8080 C   0  0  0  0  0  0  0  0  0  0  0  0
   61.0700   34.5020   48.2580 C   0  0  0  0  0  0  0  0  0  0  0  0
   62.5160   34.0200   48.4640 C   0  0  0  0  0  0  0  0  0  0  0  0
   63.0140   33.1040   47.3310 C   0  0  0  0  0  0  0  0  0  0  0  0
   63.0890   31.6160   47.7140 C   0  0  0  0  0  0  0  0  0  0  0  0
   61.7850   30.9050   47.5250 C   0  0  0  0  0  0  0  0  0  0  0  0
   61.4520   30.4990   46.3780 O   0  0  0  0  0  0  0  0  0  0  0  0
   60.9290   30.6800   48.6510 N   0  0  0  0  0  0  0  0  0  0  0  0
   60.9640   29.4990   49.4590 C   0  0  0  0  0  0  0  0  0  0  0  0
   61.3780   29.6170   50.7920 C   0  0  0  0  0  0  0  0  0  0  0  0
   61.4700   28.4870   51.6080 C   0  0  0  0  0  0  0  0  0  0  0  0
   61.1380   27.2300   51.1010 C   0  0  0  0  0  0  0  0  0  0  0  0
   60.6960   27.1020   49.7810 C   0  0  0  0  0  0  0  0  0  0  0  0
   60.5890   28.2320   48.9540 C   0  0  0  0  0  0  0  0  0  0  0  0
   60.0460   28.0830   47.6360 N   0  0  0  0  0  0  0  0  0  0  0  0
   58.4680   30.4970   46.3910 C   0  0  0  0  0  0  0  0  0  0  0  0
   57.7480   29.3010   46.3170 C   0  0  0  0  0  0  0  0  0  0  0  0
   58.1402   24.8859   45.0201 H   0  0  0  0  0  0  0  0  0  0  0  0
   56.7202   24.9353   43.9212 H   0  0  0  0  0  0  0  0  0  0  0  0
   57.9033   26.2869   43.9212 H   0  0  0  0  0  0  0  0  0  0  0  0
   55.6516   30.0823   43.7350 H   0  0  0  0  0  0  0  0  0  0  0  0
   56.9344   32.2130   43.8588 H   0  0  0  0  0  0  0  0  0  0  0  0
   60.2700   32.1920   47.1820 H   0  0  0  0  0  0  0  0  0  0  0  0
   61.4781   34.3736   46.1419 H   0  0  0  0  0  0  0  0  0  0  0  0
   59.8739   35.0979   46.5742 H   0  0  0  0  0  0  0  0  0  0  0  0
   61.0116   35.5707   48.5119 H   0  0  0  0  0  0  0  0  0  0  0  0
   60.4149   33.9041   48.9086 H   0  0  0  0  0  0  0  0  0  0  0  0
   63.1741   34.8998   48.5178 H   0  0  0  0  0  0  0  0  0  0  0  0
   62.5369   33.4328   49.3939 H   0  0  0  0  0  0  0  0  0  0  0  0
   62.3284   33.2068   46.4770 H   0  0  0  0  0  0  0  0  0  0  0  0
   64.0396   33.4225   47.0930 H   0  0  0  0  0  0  0  0  0  0  0  0
   63.8498   31.1289   47.0864 H   0  0  0  0  0  0  0  0  0  0  0  0
   63.3466   31.5601   48.7820 H   0  0  0  0  0  0  0  0  0  0  0  0
   61.6325   30.6067   51.1991 H   0  0  0  0  0  0  0  0  0  0  0  0
   61.8044   28.5881   52.6510 H   0  0  0  0  0  0  0  0  0  0  0  0
   61.2242   26.3392   51.7405 H   0  0  0  0  0  0  0  0  0  0  0  0
   60.4303   26.1097   49.3875 H   0  0  0  0  0  0  0  0  0  0  0  0
   60.3290   28.7100   46.8530 H   0  0  0  0  0  0  0  0  0  0  0  0
   59.2840   27.3930   47.4520 H   0  0  0  0  0  0  0  0  0  0  0  0
   59.2698   30.6057   47.1362 H   0  0  0  0  0  0  0  0  0  0  0  0
   57.9826   28.4773   47.0073 H   0  0  0  0  0  0  0  0  0  0  0  0
  1  2  1  0
  2  3  2  0
  2  4  2  0
  2  5  1  0
  5  6  1  0
  6  7  2  0
  7  8  1  0
  8  9  2  0
  9 10  1  0
 10 11  2  0
 10 12  1  0
 12 13  1  0
 13 14  1  0
 14 15  1  0
 15 16  1  0
 16 17  1  0
 17 18  1  0
 18 19  2  0
 18 20  1  0
 20 21  1  0
 21 22  2  0
 22 23  1  0
 23 24  2  0
 24 25  1  0
 25 26  2  0
 26 27  1  0
  9 28  1  0
 28 29  2  0
 29  6  1  0
 26 21  1  0
  1 30  1  0
  1 31  1  0
  1 32  1  0
  7 33  1  0
  8 34  1  0
 12 35  1  0
 13 36  1  0
 13 37  1  0
 14 38  1  0
 14 39  1  0
 15 40  1  0
 15 41  1  0
 16 42  1  0
 16 43  1  0
 17 44  1  0
 17 45  1  0
 22 46  1  0
 23 47  1  0
 24 48  1  0
 25 49  1  0
 27 50  1  0
 27 51  1  0
 28 52  1  0
 29 53  1  0
M  CHG  2   5  -1  20  -1
M  END
>  <UniqueID>  (47) 
44

>  <SMILES>  (47) 
CS(=O)(=O)[N-]c1ccc(C(=O)NCCCCCC(=O)[N-]c2ccccc2N)cc1

>  <Energy>  (47) 
52.03788932375382

>  <Genealogy>  (47) 
CS(=O)(=O)[N-]c1ccc(C(=O)NCCCCCC(=O)[N-]c2ccccc2N)cc1 (protonated)
CS(=O)(=O)[N-]c1ccc(C(=O)NCCCCCC(=O)[N-]c2ccccc2N)cc1 (3D coordinates assigned)
CS(=O)(=O)[N-]c1ccc(C(=O)NCCCCCC(=O)[N-]c2ccccc2N)cc1 (optimized conformer: 52.03788932375382 kcal/mol)

>  <smiles>  (47) 
CS(=O)(=O)Nc1ccc(C(=O)NCCCCCC(=O)Nc2ccccc2N)cc1

>  <score_type>  (47) 
oracle

>  <origin>  (47) 
adg

>  <m_score__min__energy>  (47) 
-11.33

>  <m_primary>  (47) 
energy

$$$$
48:0
     RDKit          3D

 46 48  0  0  0  0  0  0  0  0999 V2000
   62.3520   34.1070   46.1050 O   0  0  0  0  0  0  0  0  0  0  0  0
   61.2850   34.2310   46.7650 C   0  0  0  0  0  0  0  0  0  0  0  0
   60.0320   34.4190   46.0940 N   0  0  0  0  0  0  0  0  0  0  0  0
   59.1070   33.3940   45.7040 C   0  0  0  0  0  0  0  0  0  0  0  0
   58.6560   32.4130   46.6050 C   0  0  0  0  0  0  0  0  0  0  0  0
   57.7690   31.4200   46.1790 C   0  0  0  0  0  0  0  0  0  0  0  0
   57.3440   31.3730   44.8440 C   0  0  0  0  0  0  0  0  0  0  0  0
   56.3950   30.3280   44.4100 C   0  0  0  0  0  0  0  0  0  0  0  0
   55.8560   30.4250   43.2770 O   0  0  0  0  0  0  0  0  0  0  0  0
   56.0420   29.2230   45.2490 N   0  0  0  0  0  0  0  0  0  0  0  0
   56.6880   27.9140   45.2200 C   0  0  0  0  0  0  0  0  0  0  0  0
   57.4130   27.6540   46.5420 C   0  0  0  0  0  0  0  0  0  0  0  0
   58.6640   28.4850   46.6550 C   0  0  0  0  0  0  0  0  0  0  0  0
   59.4900   28.6760   45.5350 C   0  0  0  0  0  0  0  0  0  0  0  0
   60.6670   29.4220   45.6450 C   0  0  0  0  0  0  0  0  0  0  0  0
   61.0320   29.9770   46.8760 C   0  0  0  0  0  0  0  0  0  0  0  0
   62.1750   30.6980   46.9820 F   0  0  0  0  0  0  0  0  0  0  0  0
   60.2210   29.7820   47.9980 C   0  0  0  0  0  0  0  0  0  0  0  0
   59.0430   29.0370   47.8910 C   0  0  0  0  0  0  0  0  0  0  0  0
   57.7960   32.3510   43.9450 C   0  0  0  0  0  0  0  0  0  0  0  0
   58.6830   33.3440   44.3710 C   0  0  0  0  0  0  0  0  0  0  0  0
   61.3050   34.1760   48.1980 N   0  0  0  0  0  0  0  0  0  0  0  0
   62.4510   33.7940   48.9780 C   0  0  0  0  0  0  0  0  0  0  0  0
   62.7240   34.3870   50.2240 C   0  0  0  0  0  0  0  0  0  0  0  0
   63.8600   34.0150   50.9500 C   0  0  0  0  0  0  0  0  0  0  0  0
   64.7380   33.0590   50.4340 C   0  0  0  0  0  0  0  0  0  0  0  0
   64.4870   32.4800   49.1870 C   0  0  0  0  0  0  0  0  0  0  0  0
   63.3530   32.8510   48.4590 C   0  0  0  0  0  0  0  0  0  0  0  0
   59.0025   32.4270   47.6489 H   0  0  0  0  0  0  0  0  0  0  0  0
   57.4022   30.6707   46.8960 H   0  0  0  0  0  0  0  0  0  0  0  0
   55.9261   27.1360   45.0642 H   0  0  0  0  0  0  0  0  0  0  0  0
   57.4196   27.8925   44.3988 H   0  0  0  0  0  0  0  0  0  0  0  0
   56.7398   27.9054   47.3749 H   0  0  0  0  0  0  0  0  0  0  0  0
   57.6982   26.5922   46.5776 H   0  0  0  0  0  0  0  0  0  0  0  0
   59.2092   28.2363   44.5666 H   0  0  0  0  0  0  0  0  0  0  0  0
   61.3066   29.5727   44.7629 H   0  0  0  0  0  0  0  0  0  0  0  0
   60.5104   30.2156   48.9667 H   0  0  0  0  0  0  0  0  0  0  0  0
   58.4102   28.8821   48.7773 H   0  0  0  0  0  0  0  0  0  0  0  0
   57.4509   32.3363   42.9006 H   0  0  0  0  0  0  0  0  0  0  0  0
   59.0506   34.0919   43.6530 H   0  0  0  0  0  0  0  0  0  0  0  0
   60.4580   34.5240   48.7030 H   0  0  0  0  0  0  0  0  0  0  0  0
   62.0403   35.1474   50.6295 H   0  0  0  0  0  0  0  0  0  0  0  0
   64.0622   34.4757   51.9282 H   0  0  0  0  0  0  0  0  0  0  0  0
   65.6272   32.7618   51.0093 H   0  0  0  0  0  0  0  0  0  0  0  0
   65.1822   31.7319   48.7783 H   0  0  0  0  0  0  0  0  0  0  0  0
   63.1658   32.4013   47.4728 H   0  0  0  0  0  0  0  0  0  0  0  0
  1  2  2  0
  2  3  1  0
  3  4  1  0
  4  5  2  0
  5  6  1  0
  6  7  2  0
  7  8  1  0
  8  9  2  0
  8 10  1  0
 10 11  1  0
 11 12  1  0
 12 13  1  0
 13 14  2  0
 14 15  1  0
 15 16  2  0
 16 17  1  0
 16 18  1  0
 18 19  2  0
  7 20  1  0
 20 21  2  0
  2 22  1  0
 22 23  1  0
 23 24  2  0
 24 25  1  0
 25 26  2  0
 26 27  1  0
 27 28  2  0
 21  4  1  0
 28 23  1  0
 19 13  1  0
  5 29  1  0
  6 30  1  0
 11 31  1  0
 11 32  1  0
 12 33  1  0
 12 34  1  0
 14 35  1  0
 15 36  1  0
 18 37  1  0
 19 38  1  0
 20 39  1  0
 21 40  1  0
 22 41  1  0
 24 42  1  0
 25 43  1  0
 26 44  1  0
 27 45  1  0
 28 46  1  0
M  CHG  2   3  -1  10  -1
M  END
>  <UniqueID>  (48) 
45

>  <SMILES>  (48) 
O=C([N-]c1ccc(C(=O)[N-]CCc2ccc(F)cc2)cc1)Nc1ccccc1

>  <Energy>  (48) 
56.702308915406235

>  <Genealogy>  (48) 
O=C([N-]c1ccc(C(=O)[N-]CCc2ccc(F)cc2)cc1)Nc1ccccc1 (protonated)
O=C([N-]c1ccc(C(=O)[N-]CCc2ccc(F)cc2)cc1)Nc1ccccc1 (3D coordinates assigned)
O=C([N-]c1ccc(C(=O)[N-]CCc2ccc(F)cc2)cc1)Nc1ccccc1 (optimized conformer: 56.702308915406235 kcal/mol)

>  <smiles>  (48) 
O=C(Nc1ccccc1)Nc1ccc(C(=O)NCCc2ccc(F)cc2)cc1

>  <score_type>  (48) 
oracle

>  <origin>  (48) 
adg

>  <m_score__min__energy>  (48) 
-10.869999999999999

>  <m_primary>  (48) 
energy

$$$$
49:0
     RDKit          3D

 33 34  0  0  0  0  0  0  0  0999 V2000
   55.1450   27.4960   45.3740 H   0  0  0  0  0  0  0  0  0  0  0  0
   55.0780   26.6960   45.9920 O   0  0  0  0  0  0  0  0  0  0  0  0
   56.1120   25.7670   46.1020 C   0  0  0  0  0  0  0  0  0  0  0  0
   55.8580   24.5050   46.6600 C   0  0  0  0  0  0  0  0  0  0  0  0
   54.8447   24.2533   47.0062 H   0  0  0  0  0  0  0  0  0  0  0  0
   56.8870   23.5660   46.7780 C   0  0  0  0  0  0  0  0  0  0  0  0
   56.6819   22.5777   47.2153 H   0  0  0  0  0  0  0  0  0  0  0  0
   58.1750   23.8820   46.3410 C   0  0  0  0  0  0  0  0  0  0  0  0
   58.9837   23.1423   46.4348 H   0  0  0  0  0  0  0  0  0  0  0  0
   58.4380   25.1360   45.7850 C   0  0  0  0  0  0  0  0  0  0  0  0
   59.4552   25.3802   45.4449 H   0  0  0  0  0  0  0  0  0  0  0  0
   57.4120   26.0880   45.6570 C   0  0  0  0  0  0  0  0  0  0  0  0
   57.7340   27.4380   45.0690 C   0  0  0  0  0  0  0  0  0  0  0  0
   57.7901   27.3527   43.9737 H   0  0  0  0  0  0  0  0  0  0  0  0
   58.6987   27.7821   45.4701 H   0  0  0  0  0  0  0  0  0  0  0  0
   56.7010   28.4040   45.4240 N   0  0  0  0  0  0  0  0  0  0  0  0
   56.0730   29.2840   44.4850 C   0  0  0  0  0  0  0  0  0  0  0  0
   54.8310   29.4850   44.5440 O   0  0  0  0  0  0  0  0  0  0  0  0
   56.8660   30.0220   43.4830 C   0  0  0  0  0  0  0  0  0  0  0  0
   57.3197   29.4363   42.6699 H   0  0  0  0  0  0  0  0  0  0  0  0
   57.0810   31.3470   43.4790 C   0  0  0  0  0  0  0  0  0  0  0  0
   56.7978   31.9019   42.5724 H   0  0  0  0  0  0  0  0  0  0  0  0
   57.6670   32.1210   44.5930 C   0  0  0  0  0  0  0  0  0  0  0  0
   58.2740   31.4780   45.6870 C   0  0  0  0  0  0  0  0  0  0  0  0
   58.2922   30.3792   45.7351 H   0  0  0  0  0  0  0  0  0  0  0  0
   58.8540   32.2290   46.7130 C   0  0  0  0  0  0  0  0  0  0  0  0
   59.3099   31.7214   47.5758 H   0  0  0  0  0  0  0  0  0  0  0  0
   58.8550   33.6260   46.6430 C   0  0  0  0  0  0  0  0  0  0  0  0
   59.5860   34.5680   47.9320 Cl  0  0  0  0  0  0  0  0  0  0  0  0
   58.2840   34.2710   45.5430 C   0  0  0  0  0  0  0  0  0  0  0  0
   58.2928   35.3694   45.4851 H   0  0  0  0  0  0  0  0  0  0  0  0
   57.7010   33.5220   44.5150 C   0  0  0  0  0  0  0  0  0  0  0  0
   57.2677   34.0330   43.6425 H   0  0  0  0  0  0  0  0  0  0  0  0
  1  2  1  0
  2  3  1  0
  3  4  2  0
  4  5  1  0
  4  6  1  0
  6  7  1  0
  6  8  2  0
  8  9  1  0
  8 10  1  0
 10 11  1  0
 10 12  2  0
 12 13  1  0
 13 14  1  0
 13 15  1  0
 13 16  1  0
 16 17  1  0
 17 18  2  0
 17 19  1  0
 19 20  1  0
 19 21  2  0
 21 22  1  0
 21 23  1  0
 23 24  2  0
 24 25  1  0
 24 26  1  0
 26 27  1  0
 26 28  2  0
 28 29  1  0
 28 30  1  0
 30 31  1  0
 30 32  2  0
 32 33  1  0
 12  3  1  0
 32 23  1  0
M  CHG  1  16  -1
M  END
>  <UniqueID>  (49) 
46

>  <SMILES>  (49) 
O=C(/C=C\c1ccc(Cl)cc1)[N-]Cc1ccccc1O

>  <Energy>  (49) 
38.84532476698021

>  <Genealogy>  (49) 
O=C(C=Cc1ccc(Cl)cc1)[N-]Cc1ccccc1O (protonated)
O=C(/C=C\c1ccc(Cl)cc1)[N-]Cc1ccccc1O (cis-trans isomerization)
O=C(/C=C\c1ccc(Cl)cc1)[N-]Cc1ccccc1O (3D coordinates assigned)
O=C(/C=C\c1ccc(Cl)cc1)[N-]Cc1ccccc1O (optimized conformer: 38.84532476698021 kcal/mol)

>  <smiles>  (49) 
O=C(C=Cc1ccc(Cl)cc1)NCc1ccccc1O

>  <score_type>  (49) 
oracle

>  <origin>  (49) 
adg

>  <m_score__min__energy>  (49) 
-11.029999999999999

>  <m_primary>  (49) 
energy

$$$$
50:0
     RDKit          3D

 36 37  0  0  0  0  0  0  0  0999 V2000
   57.4460   26.4510   44.9060 C   0  0  0  0  0  0  0  0  0  0  0  0
   57.2210   27.4340   45.9100 O   0  0  0  0  0  0  0  0  0  0  0  0
   58.1870   28.3470   46.3650 C   0  0  0  0  0  0  0  0  0  0  0  0
   58.8040   28.2030   47.6230 C   0  0  0  0  0  0  0  0  0  0  0  0
   59.7670   29.1170   48.0480 C   0  0  0  0  0  0  0  0  0  0  0  0
   60.1260   30.1970   47.2390 C   0  0  0  0  0  0  0  0  0  0  0  0
   61.1300   31.1050   47.7130 N   0  0  0  0  0  0  0  0  0  0  0  0
   61.1880   32.8050   47.3700 S   0  0  0  0  0  0  0  0  0  0  0  0
   61.4530   33.5490   48.6480 O   0  0  0  0  0  0  0  0  0  0  0  0
   62.3070   33.0730   46.4040 O   0  0  0  0  0  0  0  0  0  0  0  0
   59.6730   33.3400   46.6490 C   0  0  0  0  0  0  0  0  0  0  0  0
   58.4520   33.0540   47.2770 C   0  0  0  0  0  0  0  0  0  0  0  0
   57.2490   33.4680   46.6940 C   0  0  0  0  0  0  0  0  0  0  0  0
   57.2620   34.1670   45.4850 C   0  0  0  0  0  0  0  0  0  0  0  0
   58.4750   34.4560   44.8560 C   0  0  0  0  0  0  0  0  0  0  0  0
   59.6790   34.0470   45.4360 C   0  0  0  0  0  0  0  0  0  0  0  0
   59.5050   30.3560   45.9900 C   0  0  0  0  0  0  0  0  0  0  0  0
   58.5470   29.4300   45.5350 C   0  0  0  0  0  0  0  0  0  0  0  0
   57.9280   29.5750   44.2410 N   0  0  0  0  0  0  0  0  0  0  0  0
   56.3290   30.2080   44.0000 S   0  0  0  0  0  0  0  0  0  0  0  0
   55.1810   29.2420   44.8590 N   0  0  0  0  0  0  0  0  0  0  0  0
   56.2670   31.6310   44.4790 O   0  0  0  0  0  0  0  0  0  0  0  0
   56.0030   30.1750   42.5330 O   0  0  0  0  0  0  0  0  0  0  0  0
   57.6672   25.4844   45.3822 H   0  0  0  0  0  0  0  0  0  0  0  0
   56.5468   26.3540   44.2798 H   0  0  0  0  0  0  0  0  0  0  0  0
   58.2978   26.7547   44.2798 H   0  0  0  0  0  0  0  0  0  0  0  0
   58.5238   27.3627   48.2752 H   0  0  0  0  0  0  0  0  0  0  0  0
   60.2480   28.9864   49.0286 H   0  0  0  0  0  0  0  0  0  0  0  0
   58.4399   32.5034   48.2292 H   0  0  0  0  0  0  0  0  0  0  0  0
   56.2925   33.2427   47.1883 H   0  0  0  0  0  0  0  0  0  0  0  0
   56.3154   34.4904   45.0275 H   0  0  0  0  0  0  0  0  0  0  0  0
   58.4828   35.0059   43.9034 H   0  0  0  0  0  0  0  0  0  0  0  0
   60.6334   34.2795   44.9411 H   0  0  0  0  0  0  0  0  0  0  0  0
   59.7706   31.2162   45.3579 H   0  0  0  0  0  0  0  0  0  0  0  0
   58.4740   29.3540   43.3790 H   0  0  0  0  0  0  0  0  0  0  0  0
   55.5170   28.2540   44.8140 H   0  0  0  0  0  0  0  0  0  0  0  0
  1  2  1  0
  2  3  1  0
  3  4  2  0
  4  5  1  0
  5  6  2  0
  6  7  1  0
  7  8  1  0
  8  9  2  0
  8 10  2  0
  8 11  1  0
 11 12  2  0
 12 13  1  0
 13 14  2  0
 14 15  1  0
 15 16  2  0
  6 17  1  0
 17 18  2  0
 18 19  1  0
 19 20  1  0
 20 21  1  0
 20 22  2  0
 20 23  2  0
 18  3  1  0
 16 11  1  0
  1 24  1  0
  1 25  1  0
  1 26  1  0
  4 27  1  0
  5 28  1  0
 12 29  1  0
 13 30  1  0
 14 31  1  0
 15 32  1  0
 16 33  1  0
 17 34  1  0
 19 35  1  0
 21 36  1  0
M  CHG  2   7  -1  21  -1
M  END
>  <UniqueID>  (50) 
47

>  <SMILES>  (50) 
COc1ccc([N-]S(=O)(=O)c2ccccc2)cc1NS([NH-])(=O)=O

>  <Energy>  (50) 
38.99159914891723

>  <Genealogy>  (50) 
COc1ccc([N-]S(=O)(=O)c2ccccc2)cc1NS([NH-])(=O)=O (protonated)
COc1ccc([N-]S(=O)(=O)c2ccccc2)cc1NS([NH-])(=O)=O (3D coordinates assigned)
COc1ccc([N-]S(=O)(=O)c2ccccc2)cc1NS([NH-])(=O)=O (optimized conformer: 38.99159914891723 kcal/mol)

>  <smiles>  (50) 
COc1ccc(NS(=O)(=O)c2ccccc2)cc1NS(N)(=O)=O

>  <score_type>  (50) 
oracle

>  <origin>  (50) 
adg

>  <m_score__min__energy>  (50) 
-12.1

>  <m_primary>  (50) 
energy

$$$$
51:0
     RDKit          3D

 41 43  0  0  0  0  0  0  0  0999 V2000
   55.1920   30.5380   44.4940 O   0  0  0  0  0  0  0  0  0  0  0  0
   56.3580   30.7490   44.0610 C   0  0  0  0  0  0  0  0  0  0  0  0
   56.7460   30.1900   42.7230 C   0  0  0  0  0  0  0  0  0  0  0  0
   57.0100   28.6850   42.8260 C   0  0  0  0  0  0  0  0  0  0  0  0
   57.6780   28.3540   44.1360 C   0  0  0  0  0  0  0  0  0  0  0  0
   59.0800   28.2830   44.2050 C   0  0  0  0  0  0  0  0  0  0  0  0
   59.7120   27.9420   45.4050 C   0  0  0  0  0  0  0  0  0  0  0  0
   58.9500   27.6630   46.5420 C   0  0  0  0  0  0  0  0  0  0  0  0
   57.5550   27.7170   46.4800 C   0  0  0  0  0  0  0  0  0  0  0  0
   56.9160   28.0550   45.2830 C   0  0  0  0  0  0  0  0  0  0  0  0
   55.5260   28.0900   45.2410 O   0  0  0  0  0  0  0  0  0  0  0  0
   57.2640   31.5550   44.8330 N   0  0  0  0  0  0  0  0  0  0  0  0
   57.0390   32.9760   45.1050 C   0  0  0  0  0  0  0  0  0  0  0  0
   58.2200   33.3540   45.9150 C   0  0  0  0  0  0  0  0  0  0  0  0
   58.5250   34.6030   46.4520 C   0  0  0  0  0  0  0  0  0  0  0  0
   59.7070   34.7440   47.1980 C   0  0  0  0  0  0  0  0  0  0  0  0
   60.5700   33.6430   47.4010 C   0  0  0  0  0  0  0  0  0  0  0  0
   61.7710   33.8300   48.1710 N   0  0  0  0  0  0  0  0  0  0  0  0
   63.3380   33.2870   47.6680 S   0  0  0  0  0  0  0  0  0  0  0  0
   63.2950   31.8160   47.3620 O   0  0  0  0  0  0  0  0  0  0  0  0
   63.7470   34.0340   46.4300 O   0  0  0  0  0  0  0  0  0  0  0  0
   64.4600   33.5890   48.8820 O   0  0  0  0  0  0  0  0  0  0  0  0
   60.2310   32.3890   46.8420 C   0  0  0  0  0  0  0  0  0  0  0  0
   59.0520   32.2770   46.1040 C   0  0  0  0  0  0  0  0  0  0  0  0
   58.5070   31.0690   45.4400 C   0  0  0  0  0  0  0  0  0  0  0  0
   55.9299   30.3661   42.0068 H   0  0  0  0  0  0  0  0  0  0  0  0
   57.6647   30.6896   42.3818 H   0  0  0  0  0  0  0  0  0  0  0  0
   56.0541   28.1446   42.7605 H   0  0  0  0  0  0  0  0  0  0  0  0
   57.6737   28.3833   42.0023 H   0  0  0  0  0  0  0  0  0  0  0  0
   59.6833   28.4968   43.3104 H   0  0  0  0  0  0  0  0  0  0  0  0
   60.8099   27.8934   45.4536 H   0  0  0  0  0  0  0  0  0  0  0  0
   59.4484   27.4006   47.4868 H   0  0  0  0  0  0  0  0  0  0  0  0
   56.9575   27.4928   47.3759 H   0  0  0  0  0  0  0  0  0  0  0  0
   56.9990   33.5554   44.1708 H   0  0  0  0  0  0  0  0  0  0  0  0
   56.0842   33.1728   45.6145 H   0  0  0  0  0  0  0  0  0  0  0  0
   57.8543   35.4607   46.2951 H   0  0  0  0  0  0  0  0  0  0  0  0
   59.9640   35.7228   47.6293 H   0  0  0  0  0  0  0  0  0  0  0  0
   61.7090   34.2980   49.1030 H   0  0  0  0  0  0  0  0  0  0  0  0
   60.8855   31.5168   46.9865 H   0  0  0  0  0  0  0  0  0  0  0  0
   59.2003   30.6933   44.6731 H   0  0  0  0  0  0  0  0  0  0  0  0
   58.3502   30.2288   46.1324 H   0  0  0  0  0  0  0  0  0  0  0  0
  1  2  2  0
  2  3  1  0
  3  4  1  0
  4  5  1  0
  5  6  2  0
  6  7  1  0
  7  8  2  0
  8  9  1  0
  9 10  2  0
 10 11  1  0
  2 12  1  0
 12 13  1  0
 13 14  1  0
 14 15  2  0
 15 16  1  0
 16 17  2  0
 17 18  1  0
 18 19  1  0
 19 20  2  0
 19 21  2  0
 19 22  1  0
 17 23  1  0
 23 24  2  0
 24 25  1  0
 10  5  1  0
 25 12  1  0
 24 14  1  0
  3 26  1  0
  3 27  1  0
  4 28  1  0
  4 29  1  0
  6 30  1  0
  7 31  1  0
  8 32  1  0
  9 33  1  0
 13 34  1  0
 13 35  1  0
 15 36  1  0
 16 37  1  0
 18 38  1  0
 23 39  1  0
 25 40  1  0
 25 41  1  0
M  CHG  2  11  -1  22  -1
M  END
>  <UniqueID>  (51) 
48

>  <SMILES>  (51) 
O=C(CCc1ccccc1[O-])N1Cc2ccc(NS(=O)(=O)[O-])cc2C1

>  <Energy>  (51) 
50.583920180245855

>  <Genealogy>  (51) 
O=C(CCc1ccccc1[O-])N1Cc2ccc(NS(=O)(=O)[O-])cc2C1 (protonated)
O=C(CCc1ccccc1[O-])N1Cc2ccc(NS(=O)(=O)[O-])cc2C1 (3D coordinates assigned)
O=C(CCc1ccccc1[O-])N1Cc2ccc(NS(=O)(=O)[O-])cc2C1 (nonaromatic ring conformer: 50.583920180245855 kcal/mol)

>  <smiles>  (51) 
O=C(CCc1ccccc1O)N1Cc2ccc(NS(=O)(=O)O)cc2C1

>  <score_type>  (51) 
oracle

>  <origin>  (51) 
adg

>  <m_score__min__energy>  (51) 
-13.02

>  <m_primary>  (51) 
energy

$$$$
52:0
     RDKit          3D

 42 44  0  0  0  0  0  0  0  0999 V2000
   57.3850   25.6100   44.1620 N   0  0  0  0  0  0  0  0  0  0  0  0
   56.6300   25.9600   45.6780 S   0  0  0  0  0  0  0  0  0  0  0  0
   55.6150   24.9020   46.0110 O   0  0  0  0  0  0  0  0  0  0  0  0
   57.6790   25.9770   46.7520 O   0  0  0  0  0  0  0  0  0  0  0  0
   55.8670   27.5180   45.6240 N   0  0  0  0  0  0  0  0  0  0  0  0
   56.3960   28.6930   44.9950 C   0  0  0  0  0  0  0  0  0  0  0  0
   57.7700   28.9430   45.0990 C   0  0  0  0  0  0  0  0  0  0  0  0
   58.3320   30.0800   44.5140 C   0  0  0  0  0  0  0  0  0  0  0  0
   57.5250   30.9840   43.8040 C   0  0  0  0  0  0  0  0  0  0  0  0
   58.1280   32.2300   43.2040 C   0  0  0  0  0  0  0  0  0  0  0  0
   57.9590   33.4570   44.1070 C   0  0  0  0  0  0  0  0  0  0  0  0
   59.2470   33.9150   44.6250 N   0  0  0  0  0  0  0  0  0  0  0  0
   59.5340   34.2880   45.9800 C   0  0  0  0  0  0  0  0  0  0  0  0
   59.7440   35.5020   46.2400 O   0  0  0  0  0  0  0  0  0  0  0  0
   59.5990   33.2990   47.0760 C   0  0  0  0  0  0  0  0  0  0  0  0
   59.8450   31.9520   46.7720 C   0  0  0  0  0  0  0  0  0  0  0  0
   59.8740   30.9950   47.7930 C   0  0  0  0  0  0  0  0  0  0  0  0
   60.0740   29.6370   47.5100 C   0  0  0  0  0  0  0  0  0  0  0  0
   60.0600   28.6960   48.5440 C   0  0  0  0  0  0  0  0  0  0  0  0
   60.2990   26.8440   48.1470 Br  0  0  0  0  0  0  0  0  0  0  0  0
   59.8650   29.1120   49.8670 C   0  0  0  0  0  0  0  0  0  0  0  0
   59.6810   30.4660   50.1580 C   0  0  0  0  0  0  0  0  0  0  0  0
   59.6810   31.4120   49.1260 C   0  0  0  0  0  0  0  0  0  0  0  0
   59.5030   32.7290   49.4060 N   0  0  0  0  0  0  0  0  0  0  0  0
   59.4740   33.6760   48.4280 C   0  0  0  0  0  0  0  0  0  0  0  0
   59.3520   34.8870   48.7490 O   0  0  0  0  0  0  0  0  0  0  0  0
   56.1510   30.7280   43.6850 C   0  0  0  0  0  0  0  0  0  0  0  0
   55.5880   29.5940   44.2800 C   0  0  0  0  0  0  0  0  0  0  0  0
   56.8810   26.1640   43.4340 H   0  0  0  0  0  0  0  0  0  0  0  0
   58.3600   25.9800   44.2010 H   0  0  0  0  0  0  0  0  0  0  0  0
   58.4124   28.2375   45.6464 H   0  0  0  0  0  0  0  0  0  0  0  0
   59.4115   30.2683   44.6098 H   0  0  0  0  0  0  0  0  0  0  0  0
   59.2020   32.0582   43.0395 H   0  0  0  0  0  0  0  0  0  0  0  0
   57.6020   32.4347   42.2598 H   0  0  0  0  0  0  0  0  0  0  0  0
   57.4970   34.2688   43.5261 H   0  0  0  0  0  0  0  0  0  0  0  0
   57.3214   33.1770   44.9585 H   0  0  0  0  0  0  0  0  0  0  0  0
   60.0155   31.6471   45.7290 H   0  0  0  0  0  0  0  0  0  0  0  0
   60.2422   29.3110   46.4730 H   0  0  0  0  0  0  0  0  0  0  0  0
   59.8567   28.3705   50.6794 H   0  0  0  0  0  0  0  0  0  0  0  0
   59.5359   30.7892   51.1994 H   0  0  0  0  0  0  0  0  0  0  0  0
   55.5123   31.4232   43.1204 H   0  0  0  0  0  0  0  0  0  0  0  0
   54.5080   29.4065   44.1879 H   0  0  0  0  0  0  0  0  0  0  0  0
  1  2  1  0
  2  3  2  0
  2  4  2  0
  2  5  1  0
  5  6  1  0
  6  7  2  0
  7  8  1  0
  8  9  2  0
  9 10  1  0
 10 11  1  0
 11 12  1  0
 12 13  1  0
 13 14  2  0
 13 15  1  0
 15 16  2  0
 16 17  1  0
 17 18  2  0
 18 19  1  0
 19 20  1  0
 19 21  2  0
 21 22  1  0
 22 23  2  0
 23 24  1  0
 24 25  1  0
 25 26  2  0
  9 27  1  0
 27 28  2  0
 28  6  1  0
 25 15  1  0
 23 17  1  0
  1 29  1  0
  1 30  1  0
  7 31  1  0
  8 32  1  0
 10 33  1  0
 10 34  1  0
 11 35  1  0
 11 36  1  0
 16 37  1  0
 18 38  1  0
 21 39  1  0
 22 40  1  0
 27 41  1  0
 28 42  1  0
M  CHG  3   5  -1  12  -1  24  -1
M  END
>  <UniqueID>  (52) 
49

>  <SMILES>  (52) 
NS(=O)(=O)[N-]c1ccc(CC[N-]C(=O)c2cc3cc(Br)ccc3[n-]c2=O)cc1

>  <Energy>  (52) 
46.011136372505845

>  <Genealogy>  (52) 
NS(=O)(=O)[N-]c1ccc(CC[N-]C(=O)c2cc3cc(Br)ccc3[n-]c2=O)cc1 (protonated)
NS(=O)(=O)[N-]c1ccc(CC[N-]C(=O)c2cc3cc(Br)ccc3[n-]c2=O)cc1 (3D coordinates assigned)
NS(=O)(=O)[N-]c1ccc(CC[N-]C(=O)c2cc3cc(Br)ccc3[n-]c2=O)cc1 (optimized conformer: 46.011136372505845 kcal/mol)

>  <smiles>  (52) 
NS(=O)(=O)Nc1ccc(CCNC(=O)c2cc3cc(Br)ccc3[nH]c2=O)cc1

>  <score_type>  (52) 
oracle

>  <origin>  (52) 
adg

>  <m_score__min__energy>  (52) 
-12.73

>  <m_primary>  (52) 
energy

$$$$
53:0
     RDKit          3D

 50 52  0  0  0  0  0  0  0  0999 V2000
   61.7780   33.7400   46.7150 C   0  0  0  0  0  0  0  0  0  0  0  0
   60.4350   34.4540   46.8030 C   0  0  0  0  0  0  0  0  0  0  0  0
   59.3340   33.5870   46.2560 C   0  0  0  0  0  0  0  0  0  0  0  0
   59.2820   32.2210   46.5750 C   0  0  0  0  0  0  0  0  0  0  0  0
   58.2830   31.4060   46.0320 C   0  0  0  0  0  0  0  0  0  0  0  0
   57.3180   31.9490   45.1640 C   0  0  0  0  0  0  0  0  0  0  0  0
   56.2980   31.1420   44.5580 N   0  0  0  0  0  0  0  0  0  0  0  0
   56.3300   29.7230   44.3650 C   0  0  0  0  0  0  0  0  0  0  0  0
   55.5580   28.9640   45.0110 O   0  0  0  0  0  0  0  0  0  0  0  0
   57.2640   29.1450   43.3560 C   0  0  0  0  0  0  0  0  0  0  0  0
   58.7480   28.5170   44.2070 S   0  0  0  0  0  0  0  0  0  0  0  0
   57.9620   26.9770   44.7070 C   0  0  0  0  0  0  0  0  0  0  0  0
   57.7500   26.0490   43.7390 N   0  0  0  0  0  0  0  0  0  0  0  0
   57.1560   24.8630   44.0060 C   0  0  0  0  0  0  0  0  0  0  0  0
   56.9590   23.9320   42.9790 C   0  0  0  0  0  0  0  0  0  0  0  0
   56.3420   22.7080   43.2560 C   0  0  0  0  0  0  0  0  0  0  0  0
   55.9230   22.4110   44.5570 C   0  0  0  0  0  0  0  0  0  0  0  0
   56.1180   23.3380   45.5860 C   0  0  0  0  0  0  0  0  0  0  0  0
   56.7360   24.5750   45.3160 C   0  0  0  0  0  0  0  0  0  0  0  0
   56.9520   25.5410   46.3130 C   0  0  0  0  0  0  0  0  0  0  0  0
   56.5690   25.3110   47.4950 O   0  0  0  0  0  0  0  0  0  0  0  0
   57.5720   26.7310   46.0050 N   0  0  0  0  0  0  0  0  0  0  0  0
   57.7700   27.7390   47.0710 C   0  0  0  0  0  0  0  0  0  0  0  0
   59.2220   27.7440   47.5650 C   0  0  0  0  0  0  0  0  0  0  0  0
   59.7890   26.4520   47.4710 O   0  0  0  0  0  0  0  0  0  0  0  0
   60.7760   26.4200   46.4640 C   0  0  0  0  0  0  0  0  0  0  0  0
   57.3920   33.3050   44.8230 C   0  0  0  0  0  0  0  0  0  0  0  0
   58.3890   34.1220   45.3650 C   0  0  0  0  0  0  0  0  0  0  0  0
   62.1541   33.5400   47.7292 H   0  0  0  0  0  0  0  0  0  0  0  0
   61.6532   32.7892   46.1761 H   0  0  0  0  0  0  0  0  0  0  0  0
   62.4964   34.3753   46.1761 H   0  0  0  0  0  0  0  0  0  0  0  0
   60.2197   34.6895   47.8557 H   0  0  0  0  0  0  0  0  0  0  0  0
   60.4862   35.3775   46.2076 H   0  0  0  0  0  0  0  0  0  0  0  0
   60.0306   31.7892   47.2555 H   0  0  0  0  0  0  0  0  0  0  0  0
   58.2518   30.3359   46.2848 H   0  0  0  0  0  0  0  0  0  0  0  0
   56.7673   28.3198   42.8246 H   0  0  0  0  0  0  0  0  0  0  0  0
   57.5529   29.9208   42.6316 H   0  0  0  0  0  0  0  0  0  0  0  0
   57.2892   24.1631   41.9555 H   0  0  0  0  0  0  0  0  0  0  0  0
   56.1858   21.9771   42.4489 H   0  0  0  0  0  0  0  0  0  0  0  0
   55.4392   21.4466   44.7713 H   0  0  0  0  0  0  0  0  0  0  0  0
   55.7882   23.1008   46.6082 H   0  0  0  0  0  0  0  0  0  0  0  0
   57.5223   28.7346   46.6742 H   0  0  0  0  0  0  0  0  0  0  0  0
   57.1145   27.4853   47.9171 H   0  0  0  0  0  0  0  0  0  0  0  0
   59.8097   28.4414   46.9500 H   0  0  0  0  0  0  0  0  0  0  0  0
   59.2347   28.0587   48.6189 H   0  0  0  0  0  0  0  0  0  0  0  0
   61.7727   26.3877   46.9283 H   0  0  0  0  0  0  0  0  0  0  0  0
   60.6335   25.5260   45.8391 H   0  0  0  0  0  0  0  0  0  0  0  0
   60.6917   27.3214   45.8391 H   0  0  0  0  0  0  0  0  0  0  0  0
   56.6591   33.7315   44.1223 H   0  0  0  0  0  0  0  0  0  0  0  0
   58.4334   35.1869   45.0928 H   0  0  0  0  0  0  0  0  0  0  0  0
  1  2  1  0
  2  3  1  0
  3  4  2  0
  4  5  1  0
  5  6  2  0
  6  7  1  0
  7  8  1  0
  8  9  2  0
  8 10  1  0
 10 11  1  0
 11 12  1  0
 12 13  2  0
 13 14  1  0
 14 15  2  0
 15 16  1  0
 16 17  2  0
 17 18  1  0
 18 19  2  0
 19 20  1  0
 20 21  2  0
 20 22  1  0
 22 23  1  0
 23 24  1  0
 24 25  1  0
 25 26  1  0
  6 27  1  0
 27 28  2  0
 28  3  1  0
 22 12  1  0
 19 14  1  0
  1 29  1  0
  1 30  1  0
  1 31  1  0
  2 32  1  0
  2 33  1  0
  4 34  1  0
  5 35  1  0
 10 36  1  0
 10 37  1  0
 15 38  1  0
 16 39  1  0
 17 40  1  0
 18 41  1  0
 23 42  1  0
 23 43  1  0
 24 44  1  0
 24 45  1  0
 26 46  1  0
 26 47  1  0
 26 48  1  0
 27 49  1  0
 28 50  1  0
M  CHG  1   7  -1
M  END
>  <UniqueID>  (53) 
50

>  <SMILES>  (53) 
CCc1ccc([N-]C(=O)CSc2nc3ccccc3c(=O)n2CCOC)cc1

>  <Energy>  (53) 
55.15350408168441

>  <Genealogy>  (53) 
CCc1ccc([N-]C(=O)CSc2nc3ccccc3c(=O)n2CCOC)cc1 (protonated)
CCc1ccc([N-]C(=O)CSc2nc3ccccc3c(=O)n2CCOC)cc1 (3D coordinates assigned)
CCc1ccc([N-]C(=O)CSc2nc3ccccc3c(=O)n2CCOC)cc1 (optimized conformer: 55.15350408168441 kcal/mol)

>  <smiles>  (53) 
CCc1ccc(NC(=O)CSc2nc3ccccc3c(=O)n2CCOC)cc1

>  <score_type>  (53) 
oracle

>  <origin>  (53) 
adg

>  <m_score__min__energy>  (53) 
-9.9499999999999993

>  <m_primary>  (53) 
energy

$$$$
54:0
     RDKit          3D

 43 45  0  0  0  0  0  0  0  0999 V2000
   58.1410   29.9800   42.7720 H   0  0  0  0  0  0  0  0  0  0  0  0
   57.7740   30.5440   43.5660 N   0  0  0  0  0  0  0  0  0  0  0  0
   58.2510   30.4950   44.7730 C   0  0  0  0  0  0  0  0  0  0  0  0
   58.9650   29.4340   45.2330 N   0  0  0  0  0  0  0  0  0  0  0  0
   59.3960   28.2480   44.4890 C   0  0  0  0  0  0  0  0  0  0  0  0
   60.0141   28.5609   43.6346 H   0  0  0  0  0  0  0  0  0  0  0  0
   59.9785   27.5985   45.1590 H   0  0  0  0  0  0  0  0  0  0  0  0
   58.2050   27.4850   43.9850 C   0  0  0  0  0  0  0  0  0  0  0  0
   57.3730   27.2726   44.6725 H   0  0  0  0  0  0  0  0  0  0  0  0
   58.1320   27.0580   42.7210 C   0  0  0  0  0  0  0  0  0  0  0  0
   57.2472   26.5011   42.3788 H   0  0  0  0  0  0  0  0  0  0  0  0
   58.9567   27.2633   42.0226 H   0  0  0  0  0  0  0  0  0  0  0  0
   59.2390   29.7490   46.5140 C   0  0  0  0  0  0  0  0  0  0  0  0
   59.9570   29.0110   47.4590 C   0  0  0  0  0  0  0  0  0  0  0  0
   60.3998   28.0371   47.2032 H   0  0  0  0  0  0  0  0  0  0  0  0
   60.0940   29.5560   48.7480 C   0  0  0  0  0  0  0  0  0  0  0  0
   60.6546   29.0051   49.5176 H   0  0  0  0  0  0  0  0  0  0  0  0
   59.5160   30.8070   49.0610 C   0  0  0  0  0  0  0  0  0  0  0  0
   59.6254   31.2202   50.0745 H   0  0  0  0  0  0  0  0  0  0  0  0
   58.8020   31.5280   48.0870 C   0  0  0  0  0  0  0  0  0  0  0  0
   58.3448   32.5004   48.3223 H   0  0  0  0  0  0  0  0  0  0  0  0
   58.6920   30.9690   46.8100 C   0  0  0  0  0  0  0  0  0  0  0  0
   58.0720   31.4650   45.7160 N   0  0  0  0  0  0  0  0  0  0  0  0
   57.4170   32.7760   45.5940 C   0  0  0  0  0  0  0  0  0  0  0  0
   56.3579   32.6231   45.3390 H   0  0  0  0  0  0  0  0  0  0  0  0
   57.5189   33.3012   46.5551 H   0  0  0  0  0  0  0  0  0  0  0  0
   58.0730   33.6400   44.5030 C   0  0  0  0  0  0  0  0  0  0  0  0
   58.7683   33.0066   43.9326 H   0  0  0  0  0  0  0  0  0  0  0  0
   57.2573   34.0412   43.8836 H   0  0  0  0  0  0  0  0  0  0  0  0
   58.8550   34.8500   45.0440 C   0  0  0  0  0  0  0  0  0  0  0  0
   59.5129   35.2245   44.2459 H   0  0  0  0  0  0  0  0  0  0  0  0
   58.1140   35.5992   45.3598 H   0  0  0  0  0  0  0  0  0  0  0  0
   59.7040   34.5280   46.2520 C   0  0  0  0  0  0  0  0  0  0  0  0
   60.9070   33.8170   46.1000 C   0  0  0  0  0  0  0  0  0  0  0  0
   61.2382   33.5120   45.0964 H   0  0  0  0  0  0  0  0  0  0  0  0
   61.6850   33.4950   47.2150 C   0  0  0  0  0  0  0  0  0  0  0  0
   62.6344   32.9549   47.0848 H   0  0  0  0  0  0  0  0  0  0  0  0
   61.2590   33.8580   48.4950 C   0  0  0  0  0  0  0  0  0  0  0  0
   61.8760   33.6105   49.3714 H   0  0  0  0  0  0  0  0  0  0  0  0
   60.0480   34.5360   48.6610 C   0  0  0  0  0  0  0  0  0  0  0  0
   59.7079   34.8136   49.6696 H   0  0  0  0  0  0  0  0  0  0  0  0
   59.2680   34.8620   47.5470 C   0  0  0  0  0  0  0  0  0  0  0  0
   58.3086   35.3823   47.6841 H   0  0  0  0  0  0  0  0  0  0  0  0
  1  2  1  0
  2  3  2  0
  3  4  1  0
  4  5  1  0
  5  6  1  0
  5  7  1  0
  5  8  1  0
  8  9  1  0
  8 10  2  0
 10 11  1  0
 10 12  1  0
  4 13  1  0
 13 14  2  0
 14 15  1  0
 14 16  1  0
 16 17  1  0
 16 18  2  0
 18 19  1  0
 18 20  1  0
 20 21  1  0
 20 22  2  0
 22 23  1  0
 23 24  1  0
 24 25  1  0
 24 26  1  0
 24 27  1  0
 27 28  1  0
 27 29  1  0
 27 30  1  0
 30 31  1  0
 30 32  1  0
 30 33  1  0
 33 34  2  0
 34 35  1  0
 34 36  1  0
 36 37  1  0
 36 38  2  0
 38 39  1  0
 38 40  1  0
 40 41  1  0
 40 42  2  0
 42 43  1  0
 23  3  1  0
 42 33  1  0
 22 13  1  0
M  END
>  <UniqueID>  (54) 
51

>  <SMILES>  (54) 
[H]/N=c1/n(CC=C)c2ccccc2n1CCCc1ccccc1

>  <Energy>  (54) 
79.73060298169939

>  <Genealogy>  (54) 
[H]/N=c1/n(CC=C)c2ccccc2n1CCCc1ccccc1 (cis-trans isomerization)
[H]/N=c1/n(CC=C)c2ccccc2n1CCCc1ccccc1 (3D coordinates assigned)
[H]/N=c1/n(CC=C)c2ccccc2n1CCCc1ccccc1 (optimized conformer: 79.73060298169939 kcal/mol)

>  <smiles>  (54) 
C=CCn1c(=N)n(CCCc2ccccc2)c2ccccc21

>  <score_type>  (54) 
oracle

>  <origin>  (54) 
adg

>  <m_score__min__energy>  (54) 
-7

>  <m_primary>  (54) 
energy

$$$$
55:0
     RDKit          3D

 39 40  0  0  0  0  0  0  0  0999 V2000
   55.0710   26.2200   45.9380 N   0  0  0  0  0  0  0  0  0  0  0  0
   56.7980   26.1920   45.9340 S   0  0  0  0  0  0  0  0  0  0  0  0
   57.2820   25.5370   47.1980 O   0  0  0  0  0  0  0  0  0  0  0  0
   57.2870   25.4000   44.7540 O   0  0  0  0  0  0  0  0  0  0  0  0
   57.4050   27.8410   45.8250 C   0  0  0  0  0  0  0  0  0  0  0  0
   58.5850   28.2170   46.4820 C   0  0  0  0  0  0  0  0  0  0  0  0
   59.0510   29.5340   46.3930 C   0  0  0  0  0  0  0  0  0  0  0  0
   58.3330   30.4960   45.6570 C   0  0  0  0  0  0  0  0  0  0  0  0
   58.7940   31.8540   45.5380 N   0  0  0  0  0  0  0  0  0  0  0  0
   57.9280   32.9980   45.4270 C   0  0  0  0  0  0  0  0  0  0  0  0
   56.6900   32.8490   45.2340 O   0  0  0  0  0  0  0  0  0  0  0  0
   58.4970   34.3860   45.5510 C   0  0  0  0  0  0  0  0  0  0  0  0
   59.5770   34.4730   46.6320 C   0  0  0  0  0  0  0  0  0  0  0  0
   60.7870   33.7830   46.2010 N   0  0  0  0  0  0  0  0  0  0  0  0
   61.4200   32.7670   46.9900 C   0  0  0  0  0  0  0  0  0  0  0  0
   61.2020   31.5530   46.7250 O   0  0  0  0  0  0  0  0  0  0  0  0
   62.3170   33.1400   48.1110 C   0  0  0  0  0  0  0  0  0  0  0  0
   63.6850   32.8070   48.0620 C   0  0  0  0  0  0  0  0  0  0  0  0
   64.5400   33.1480   49.1160 C   0  0  0  0  0  0  0  0  0  0  0  0
   64.0440   33.8350   50.2260 C   0  0  0  0  0  0  0  0  0  0  0  0
   62.6930   34.1840   50.2840 C   0  0  0  0  0  0  0  0  0  0  0  0
   61.8290   33.8440   49.2370 C   0  0  0  0  0  0  0  0  0  0  0  0
   60.5250   34.2090   49.3280 F   0  0  0  0  0  0  0  0  0  0  0  0
   57.1720   30.1020   44.9740 C   0  0  0  0  0  0  0  0  0  0  0  0
   56.7080   28.7860   45.0620 C   0  0  0  0  0  0  0  0  0  0  0  0
   54.7820   27.0800   46.4550 H   0  0  0  0  0  0  0  0  0  0  0  0
   59.1462   27.4751   47.0690 H   0  0  0  0  0  0  0  0  0  0  0  0
   59.9839   29.8192   46.9012 H   0  0  0  0  0  0  0  0  0  0  0  0
   59.8190   32.0110   45.4220 H   0  0  0  0  0  0  0  0  0  0  0  0
   58.9377   34.6759   44.5857 H   0  0  0  0  0  0  0  0  0  0  0  0
   57.6781   35.0627   45.8362 H   0  0  0  0  0  0  0  0  0  0  0  0
   59.8121   35.5302   46.8246 H   0  0  0  0  0  0  0  0  0  0  0  0
   59.2021   33.9950   47.5490 H   0  0  0  0  0  0  0  0  0  0  0  0
   64.0849   32.2739   47.1869 H   0  0  0  0  0  0  0  0  0  0  0  0
   65.6045   32.8745   49.0701 H   0  0  0  0  0  0  0  0  0  0  0  0
   64.7171   34.1011   51.0543 H   0  0  0  0  0  0  0  0  0  0  0  0
   62.3059   34.7291   51.1575 H   0  0  0  0  0  0  0  0  0  0  0  0
   56.6226   30.8345   44.3645 H   0  0  0  0  0  0  0  0  0  0  0  0
   55.7915   28.4917   44.5296 H   0  0  0  0  0  0  0  0  0  0  0  0
  1  2  1  0
  2  3  2  0
  2  4  2  0
  2  5  1  0
  5  6  2  0
  6  7  1  0
  7  8  2  0
  8  9  1  0
  9 10  1  0
 10 11  2  0
 10 12  1  0
 12 13  1  0
 13 14  1  0
 14 15  1  0
 15 16  2  0
 15 17  1  0
 17 18  2  0
 18 19  1  0
 19 20  2  0
 20 21  1  0
 21 22  2  0
 22 23  1  0
  8 24  1  0
 24 25  2  0
 25  5  1  0
 22 17  1  0
  1 26  1  0
  6 27  1  0
  7 28  1  0
  9 29  1  0
 12 30  1  0
 12 31  1  0
 13 32  1  0
 13 33  1  0
 18 34  1  0
 19 35  1  0
 20 36  1  0
 21 37  1  0
 24 38  1  0
 25 39  1  0
M  CHG  2   1  -1  14  -1
M  END
>  <UniqueID>  (55) 
52

>  <SMILES>  (55) 
[NH-]S(=O)(=O)c1ccc(NC(=O)CC[N-]C(=O)c2ccccc2F)cc1

>  <Energy>  (55) 
39.941027848750664

>  <Genealogy>  (55) 
[NH-]S(=O)(=O)c1ccc(NC(=O)CC[N-]C(=O)c2ccccc2F)cc1 (protonated)
[NH-]S(=O)(=O)c1ccc(NC(=O)CC[N-]C(=O)c2ccccc2F)cc1 (3D coordinates assigned)
[NH-]S(=O)(=O)c1ccc(NC(=O)CC[N-]C(=O)c2ccccc2F)cc1 (optimized conformer: 39.941027848750664 kcal/mol)

>  <smiles>  (55) 
NS(=O)(=O)c1ccc(NC(=O)CCNC(=O)c2ccccc2F)cc1

>  <score_type>  (55) 
oracle

>  <origin>  (55) 
adg

>  <m_score__min__energy>  (55) 
-11.25

>  <m_primary>  (55) 
energy

$$$$
56:0
     RDKit          3D

 51 54  0  0  0  0  0  0  0  0999 V2000
   59.6210   34.2050   48.7990 C   0  0  0  0  0  0  0  0  0  0  0  0
   59.2410   32.9300   48.0700 C   0  0  0  0  0  0  0  0  0  0  0  0
   59.3230   31.6630   48.7150 C   0  0  0  0  0  0  0  0  0  0  0  0
   59.7510   31.4840   50.4300 S   0  0  0  0  0  0  0  0  0  0  0  0
   60.7750   30.3990   50.6100 O   0  0  0  0  0  0  0  0  0  0  0  0
   60.3330   32.7790   50.9230 O   0  0  0  0  0  0  0  0  0  0  0  0
   58.3230   31.0420   51.3630 C   0  0  0  0  0  0  0  0  0  0  0  0
   57.4270   32.0370   51.7760 C   0  0  0  0  0  0  0  0  0  0  0  0
   56.3090   31.7010   52.5440 C   0  0  0  0  0  0  0  0  0  0  0  0
   56.0800   30.3670   52.9150 C   0  0  0  0  0  0  0  0  0  0  0  0
   54.9050   30.0020   53.7300 C   0  0  0  0  0  0  0  0  0  0  0  0
   54.4750   30.8220   54.5850 O   0  0  0  0  0  0  0  0  0  0  0  0
   54.2090   28.7620   53.5540 N   0  0  0  0  0  0  0  0  0  0  0  0
   52.7770   28.6410   53.3080 C   0  0  0  0  0  0  0  0  0  0  0  0
   52.3430   29.7210   52.3620 C   0  0  0  0  0  0  0  0  0  0  0  0
   52.0450   31.0060   52.8430 C   0  0  0  0  0  0  0  0  0  0  0  0
   51.6080   32.0030   51.9660 C   0  0  0  0  0  0  0  0  0  0  0  0
   51.4510   31.7230   50.6050 C   0  0  0  0  0  0  0  0  0  0  0  0
   51.0140   32.7250   49.7460 O   0  0  0  0  0  0  0  0  0  0  0  0
   51.7300   30.4350   50.1170 C   0  0  0  0  0  0  0  0  0  0  0  0
   51.5760   30.1270   48.7650 O   0  0  0  0  0  0  0  0  0  0  0  0
   52.1700   29.4390   50.9970 C   0  0  0  0  0  0  0  0  0  0  0  0
   56.9590   29.3690   52.4690 C   0  0  0  0  0  0  0  0  0  0  0  0
   58.0770   29.7050   51.7010 C   0  0  0  0  0  0  0  0  0  0  0  0
   59.0250   30.4980   47.9940 C   0  0  0  0  0  0  0  0  0  0  0  0
   58.6180   30.5590   46.6680 C   0  0  0  0  0  0  0  0  0  0  0  0
   58.4710   31.7920   46.0300 C   0  0  0  0  0  0  0  0  0  0  0  0
   58.0210   31.8370   44.6990 C   0  0  0  0  0  0  0  0  0  0  0  0
   57.8430   33.0620   44.0570 C   0  0  0  0  0  0  0  0  0  0  0  0
   58.1050   34.2500   44.7370 C   0  0  0  0  0  0  0  0  0  0  0  0
   58.5570   34.2230   46.0580 C   0  0  0  0  0  0  0  0  0  0  0  0
   58.7640   32.9940   46.7280 C   0  0  0  0  0  0  0  0  0  0  0  0
   59.5705   34.0356   49.8847 H   0  0  0  0  0  0  0  0  0  0  0  0
   60.6447   34.4954   48.5204 H   0  0  0  0  0  0  0  0  0  0  0  0
   58.9233   35.0085   48.5204 H   0  0  0  0  0  0  0  0  0  0  0  0
   57.6042   33.0856   51.4949 H   0  0  0  0  0  0  0  0  0  0  0  0
   55.6053   32.4855   52.8592 H   0  0  0  0  0  0  0  0  0  0  0  0
   52.5621   27.6570   52.8657 H   0  0  0  0  0  0  0  0  0  0  0  0
   52.2305   28.7415   54.2573 H   0  0  0  0  0  0  0  0  0  0  0  0
   52.1559   31.2291   53.9144 H   0  0  0  0  0  0  0  0  0  0  0  0
   51.3870   33.0107   52.3476 H   0  0  0  0  0  0  0  0  0  0  0  0
   51.4230   30.8430   48.0650 H   0  0  0  0  0  0  0  0  0  0  0  0
   52.3817   28.4287   50.6168 H   0  0  0  0  0  0  0  0  0  0  0  0
   56.7673   28.3166   52.7251 H   0  0  0  0  0  0  0  0  0  0  0  0
   58.7657   28.9176   51.3610 H   0  0  0  0  0  0  0  0  0  0  0  0
   59.1152   29.5190   48.4873 H   0  0  0  0  0  0  0  0  0  0  0  0
   58.4101   29.6301   46.1167 H   0  0  0  0  0  0  0  0  0  0  0  0
   57.8082   30.9013   44.1613 H   0  0  0  0  0  0  0  0  0  0  0  0
   57.4957   33.0907   43.0136 H   0  0  0  0  0  0  0  0  0  0  0  0
   57.9549   35.2146   44.2301 H   0  0  0  0  0  0  0  0  0  0  0  0
   58.7545   35.1686   46.5841 H   0  0  0  0  0  0  0  0  0  0  0  0
  1  2  1  0
  2  3  2  0
  3  4  1  0
  4  5  2  0
  4  6  2  0
  4  7  1  0
  7  8  2  0
  8  9  1  0
  9 10  2  0
 10 11  1  0
 11 12  2  0
 11 13  1  0
 13 14  1  0
 14 15  1  0
 15 16  2  0
 16 17  1  0
 17 18  2  0
 18 19  1  0
 18 20  1  0
 20 21  1  0
 20 22  2  0
 10 23  1  0
 23 24  2  0
  3 25  1  0
 25 26  2  0
 26 27  1  0
 27 28  2  0
 28 29  1  0
 29 30  2  0
 30 31  1  0
 31 32  2  0
 32  2  1  0
 24  7  1  0
 32 27  1  0
 22 15  1  0
  1 33  1  0
  1 34  1  0
  1 35  1  0
  8 36  1  0
  9 37  1  0
 14 38  1  0
 14 39  1  0
 16 40  1  0
 17 41  1  0
 21 42  1  0
 22 43  1  0
 23 44  1  0
 24 45  1  0
 25 46  1  0
 26 47  1  0
 28 48  1  0
 29 49  1  0
 30 50  1  0
 31 51  1  0
M  CHG  2  13  -1  19  -1
M  END
>  <UniqueID>  (56) 
53

>  <SMILES>  (56) 
Cc1c(S(=O)(=O)c2ccc(C(=O)[N-]Cc3ccc([O-])c(O)c3)cc2)ccc2ccccc12

>  <Energy>  (56) 
69.86166534108841

>  <Genealogy>  (56) 
Cc1c(S(=O)(=O)c2ccc(C(=O)[N-]Cc3ccc([O-])c(O)c3)cc2)ccc2ccccc12 (protonated)
Cc1c(S(=O)(=O)c2ccc(C(=O)[N-]Cc3ccc([O-])c(O)c3)cc2)ccc2ccccc12 (3D coordinates assigned)
Cc1c(S(=O)(=O)c2ccc(C(=O)[N-]Cc3ccc([O-])c(O)c3)cc2)ccc2ccccc12 (optimized conformer: 69.86166534108841 kcal/mol)

>  <smiles>  (56) 
Cc1c(S(=O)(=O)c2ccc(C(=O)NCc3ccc(O)c(O)c3)cc2)ccc2ccccc12

>  <score_type>  (56) 
oracle

>  <origin>  (56) 
adg

>  <m_score__min__energy>  (56) 
-15.33

>  <m_primary>  (56) 
energy

$$$$
57:0
     RDKit          3D

 57 60  0  0  0  0  0  0  0  0999 V2000
   55.3228   30.0080   44.3356 H   0  0  0  0  0  0  0  0  0  0  0  0
   56.3660   29.7130   44.5220 C   0  0  0  0  0  0  0  0  0  0  0  0
   57.4120   30.4970   44.0280 C   0  0  0  0  0  0  0  0  0  0  0  0
   57.1925   31.4119   43.4581 H   0  0  0  0  0  0  0  0  0  0  0  0
   58.7400   30.1170   44.2590 C   0  0  0  0  0  0  0  0  0  0  0  0
   59.5622   30.7366   43.8715 H   0  0  0  0  0  0  0  0  0  0  0  0
   59.0270   28.9470   44.9840 C   0  0  0  0  0  0  0  0  0  0  0  0
   60.4530   28.5580   45.2590 C   0  0  0  0  0  0  0  0  0  0  0  0
   60.9534   28.3033   44.3131 H   0  0  0  0  0  0  0  0  0  0  0  0
   60.4746   27.6858   45.9290 H   0  0  0  0  0  0  0  0  0  0  0  0
   61.1450   29.6780   45.8910 N   0  0  0  0  0  0  0  0  0  0  0  0
   60.7240   30.3560   46.9190 C   0  0  0  0  0  0  0  0  0  0  0  0
   59.8950   29.7440   47.8030 N   0  0  0  0  0  0  0  0  0  0  0  0
   59.4140   30.3930   48.8940 C   0  0  0  0  0  0  0  0  0  0  0  0
   58.5650   29.7280   49.7840 C   0  0  0  0  0  0  0  0  0  0  0  0
   58.2744   28.6857   49.5861 H   0  0  0  0  0  0  0  0  0  0  0  0
   58.0790   30.3840   50.9330 C   0  0  0  0  0  0  0  0  0  0  0  0
   57.2230   29.7490   51.8470 O   0  0  0  0  0  0  0  0  0  0  0  0
   57.5620   29.4570   53.2000 C   0  0  0  0  0  0  0  0  0  0  0  0
   56.9032   30.0245   53.8737 H   0  0  0  0  0  0  0  0  0  0  0  0
   57.4361   28.3801   53.3853 H   0  0  0  0  0  0  0  0  0  0  0  0
   58.6084   29.7411   53.3853 H   0  0  0  0  0  0  0  0  0  0  0  0
   58.4550   31.7130   51.1840 C   0  0  0  0  0  0  0  0  0  0  0  0
   57.9790   32.3290   52.3530 O   0  0  0  0  0  0  0  0  0  0  0  0
   58.2200   33.6880   52.7060 C   0  0  0  0  0  0  0  0  0  0  0  0
   58.2372   33.7847   53.8016 H   0  0  0  0  0  0  0  0  0  0  0  0
   59.1888   34.0075   52.2945 H   0  0  0  0  0  0  0  0  0  0  0  0
   57.4201   34.3211   52.2945 H   0  0  0  0  0  0  0  0  0  0  0  0
   59.2900   32.3880   50.2730 C   0  0  0  0  0  0  0  0  0  0  0  0
   59.5671   33.4361   50.4594 H   0  0  0  0  0  0  0  0  0  0  0  0
   59.7720   31.7320   49.1270 C   0  0  0  0  0  0  0  0  0  0  0  0
   60.6230   32.3590   48.1990 C   0  0  0  0  0  0  0  0  0  0  0  0
   61.0010   33.7360   48.3610 N   0  0  0  0  0  0  0  0  0  0  0  0
   62.2240   34.0520   49.1010 C   0  0  0  0  0  0  0  0  0  0  0  0
   62.0228   34.0000   50.1812 H   0  0  0  0  0  0  0  0  0  0  0  0
   63.0088   33.3271   48.8389 H   0  0  0  0  0  0  0  0  0  0  0  0
   62.5594   35.0663   48.8389 H   0  0  0  0  0  0  0  0  0  0  0  0
   60.0210   34.7920   48.0860 C   0  0  0  0  0  0  0  0  0  0  0  0
   59.3769   34.9296   48.9670 H   0  0  0  0  0  0  0  0  0  0  0  0
   60.5528   35.7286   47.8625 H   0  0  0  0  0  0  0  0  0  0  0  0
   59.1710   34.4110   46.9010 C   0  0  0  0  0  0  0  0  0  0  0  0
   57.9070   33.8250   47.0980 C   0  0  0  0  0  0  0  0  0  0  0  0
   57.5218   33.6843   48.1187 H   0  0  0  0  0  0  0  0  0  0  0  0
   57.1370   33.4200   46.0000 C   0  0  0  0  0  0  0  0  0  0  0  0
   56.1489   32.9637   46.1596 H   0  0  0  0  0  0  0  0  0  0  0  0
   57.6250   33.5960   44.6990 C   0  0  0  0  0  0  0  0  0  0  0  0
   57.0199   33.2774   43.8374 H   0  0  0  0  0  0  0  0  0  0  0  0
   58.8820   34.1770   44.4940 C   0  0  0  0  0  0  0  0  0  0  0  0
   59.2627   34.3171   43.4715 H   0  0  0  0  0  0  0  0  0  0  0  0
   59.6550   34.5800   45.5900 C   0  0  0  0  0  0  0  0  0  0  0  0
   60.6449   35.0307   45.4257 H   0  0  0  0  0  0  0  0  0  0  0  0
   61.0860   31.6600   47.1240 N   0  0  0  0  0  0  0  0  0  0  0  0
   61.7160   32.1560   46.4550 H   0  0  0  0  0  0  0  0  0  0  0  0
   57.9700   28.1730   45.4900 C   0  0  0  0  0  0  0  0  0  0  0  0
   58.1845   27.2656   46.0737 H   0  0  0  0  0  0  0  0  0  0  0  0
   56.6440   28.5540   45.2530 C   0  0  0  0  0  0  0  0  0  0  0  0
   55.8187   27.9400   45.6428 H   0  0  0  0  0  0  0  0  0  0  0  0
  1  2  1  0
  2  3  2  0
  3  4  1  0
  3  5  1  0
  5  6  1  0
  5  7  2  0
  7  8  1  0
  8  9  1  0
  8 10  1  0
  8 11  1  0
 11 12  2  0
 12 13  1  0
 13 14  2  0
 14 15  1  0
 15 16  1  0
 15 17  2  0
 17 18  1  0
 18 19  1  0
 19 20  1  0
 19 21  1  0
 19 22  1  0
 17 23  1  0
 23 24  1  0
 24 25  1  0
 25 26  1  0
 25 27  1  0
 25 28  1  0
 23 29  2  0
 29 30  1  0
 29 31  1  0
 31 32  2  0
 32 33  1  0
 33 34  1  0
 34 35  1  0
 34 36  1  0
 34 37  1  0
 33 38  1  0
 38 39  1  0
 38 40  1  0
 38 41  1  0
 41 42  2  0
 42 43  1  0
 42 44  1  0
 44 45  1  0
 44 46  2  0
 46 47  1  0
 46 48  1  0
 48 49  1  0
 48 50  2  0
 50 51  1  0
 32 52  1  0
 52 53  1  0
  7 54  1  0
 54 55  1  0
 54 56  2  0
 56 57  1  0
 56  2  1  0
 52 12  1  0
 31 14  1  0
 50 41  1  0
M  END
>  <UniqueID>  (57) 
54

>  <SMILES>  (57) 
COc1cc2n/c(=N/Cc3ccccc3)[nH]c(N(C)Cc3ccccc3)c2cc1OC

>  <Energy>  (57) 
66.47140356436877

>  <Genealogy>  (57) 
COc1cc2n/c(=N/Cc3ccccc3)[nH]c(N(C)Cc3ccccc3)c2cc1OC (cis-trans isomerization)
COc1cc2n/c(=N/Cc3ccccc3)[nH]c(N(C)Cc3ccccc3)c2cc1OC (3D coordinates assigned)
COc1cc2n/c(=N/Cc3ccccc3)[nH]c(N(C)Cc3ccccc3)c2cc1OC (optimized conformer: 66.47140356436877 kcal/mol)

>  <smiles>  (57) 
COc1cc2nc(=NCc3ccccc3)[nH]c(N(C)Cc3ccccc3)c2cc1OC

>  <score_type>  (57) 
oracle

>  <origin>  (57) 
adg

>  <m_score__min__energy>  (57) 
-7.9500000000000002

>  <m_primary>  (57) 
energy

$$$$
58:0
     RDKit          3D

 39 41  0  0  1  0  0  0  0  0999 V2000
   57.5630   28.3040   43.6480 N   0  0  0  0  0  0  0  0  0  0  0  0
   56.6430   29.7180   44.0170 S   0  0  0  0  0  0  0  0  0  0  0  0
   56.1480   30.4130   42.7740 O   0  0  0  0  0  0  0  0  0  0  0  0
   55.4410   29.4070   44.8670 O   0  0  0  0  0  0  0  0  0  0  0  0
   57.6210   30.8380   44.9520 C   0  0  0  0  0  0  0  0  0  0  0  0
   58.2230   30.4190   46.1330 C   0  0  0  0  0  0  0  0  0  0  0  0
   58.9950   31.2910   46.8850 C   0  0  0  0  0  0  0  0  0  0  0  0
   59.1970   32.5820   46.5010 C   0  0  0  0  0  0  0  0  0  0  0  0
   59.9480   33.5510   47.1890 N   0  0  0  0  0  0  0  0  0  0  0  0
   61.2260   33.4620   47.2290 C   0  0  0  0  0  0  0  0  0  0  0  0
   61.7560   32.7650   48.3110 C   0  0  0  0  0  0  0  0  0  0  0  0
   63.1400   32.5950   48.4590 C   0  0  0  0  0  0  0  0  0  0  0  0
   63.6180   31.8620   49.5580 N   0  0  0  0  0  0  0  0  0  0  0  0
   64.8880   31.9530   50.1560 C   0  0  0  0  0  0  0  0  0  0  0  0
   65.5980   33.1460   49.9560 C   0  0  0  0  0  0  0  0  0  0  0  0
   66.8600   33.3190   50.4880 C   0  0  0  0  0  0  0  0  0  0  0  0
   67.4660   32.3260   51.2350 C   0  0  0  0  0  0  0  0  0  0  0  0
   66.7790   31.1360   51.4450 C   0  0  0  0  0  0  0  0  0  0  0  0
   65.5050   30.9830   50.8970 C   0  0  0  0  0  0  0  0  0  0  0  0
   63.8920   33.1430   47.4980 N   0  0  0  0  0  0  0  0  0  0  0  0
   63.4000   33.8210   46.4420 C   0  0  0  0  0  0  0  0  0  0  0  0
   62.0680   33.9600   46.3410 N   0  0  0  0  0  0  0  0  0  0  0  0
   58.5880   32.9990   45.3070 C   0  0  0  0  0  0  0  0  0  0  0  0
   57.8180   32.1430   44.5530 C   0  0  0  0  0  0  0  0  0  0  0  0
   56.8910   27.6080   43.2270 H   0  0  0  0  0  0  0  0  0  0  0  0
   58.3100   28.5980   42.9680 H   0  0  0  0  0  0  0  0  0  0  0  0
   58.0851   29.3827   46.4750 H   0  0  0  0  0  0  0  0  0  0  0  0
   59.4565   30.9308   47.8163 H   0  0  0  0  0  0  0  0  0  0  0  0
   61.0764   32.3396   49.0641 H   0  0  0  0  0  0  0  0  0  0  0  0
   62.9530   31.1590   49.9960 H   0  0  0  0  0  0  0  0  0  0  0  0
   65.1426   33.9555   49.3667 H   0  0  0  0  0  0  0  0  0  0  0  0
   67.3937   34.2650   50.3142 H   0  0  0  0  0  0  0  0  0  0  0  0
   68.4718   32.4747   51.6548 H   0  0  0  0  0  0  0  0  0  0  0  0
   67.2333   30.3263   52.0349 H   0  0  0  0  0  0  0  0  0  0  0  0
   64.9712   30.0368   51.0692 H   0  0  0  0  0  0  0  0  0  0  0  0
   64.9270   33.0450   47.5320 H   0  0  0  0  0  0  0  0  0  0  0  0
   64.0716   34.2490   45.6832 H   0  0  0  0  0  0  0  0  0  0  0  0
   58.7296   34.0351   44.9657 H   0  0  0  0  0  0  0  0  0  0  0  0
   57.3551   32.5036   43.6226 H   0  0  0  0  0  0  0  0  0  0  0  0
  1  2  1  0
  2  3  2  0
  2  4  2  0
  2  5  1  0
  5  6  2  0
  6  7  1  0
  7  8  2  0
  8  9  1  0
  9 10  2  0
 10 11  1  0
 11 12  2  0
 12 13  1  0
 13 14  1  0
 14 15  2  0
 15 16  1  0
 16 17  2  0
 17 18  1  0
 18 19  2  0
 12 20  1  0
 20 21  1  0
 21 22  2  0
  8 23  1  0
 23 24  2  0
 24  5  1  0
 22 10  1  0
 19 14  1  0
  1 25  1  0
  1 26  1  0
  6 27  1  0
  7 28  1  0
 11 29  1  0
 13 30  1  0
 15 31  1  0
 16 32  1  0
 17 33  1  0
 18 34  1  0
 19 35  1  0
 20 36  1  0
 21 37  1  0
 23 38  1  0
 24 39  1  0
M  END
>  <smiles>  (58) 
NS(=O)(=O)c1ccc(N=c2cc(Nc3ccccc3)[nH]cn2)cc1

>  <score_type>  (58) 
oracle

>  <origin>  (58) 
adg

>  <m_score__min__energy>  (58) 
-8.7300000000000004

>  <m_primary>  (58) 
energy

$$$$
59:0
     RDKit          3D

 47 49  0  0  0  0  0  0  0  0999 V2000
   56.8320   21.6800   46.8880 C   0  0  0  0  0  0  0  0  0  0  0  0
   56.6370   22.0340   45.4380 C   0  0  0  0  0  0  0  0  0  0  0  0
   57.2100   21.2160   44.4490 C   0  0  0  0  0  0  0  0  0  0  0  0
   57.0440   21.5200   43.0950 C   0  0  0  0  0  0  0  0  0  0  0  0
   56.3100   22.6440   42.7150 C   0  0  0  0  0  0  0  0  0  0  0  0
   55.7490   23.4750   43.6890 C   0  0  0  0  0  0  0  0  0  0  0  0
   55.9270   23.1920   45.0500 C   0  0  0  0  0  0  0  0  0  0  0  0
   55.3400   24.0650   46.0210 N   0  0  0  0  0  0  0  0  0  0  0  0
   55.6770   25.4500   46.1740 C   0  0  0  0  0  0  0  0  0  0  0  0
   54.7810   26.3170   46.0030 O   0  0  0  0  0  0  0  0  0  0  0  0
   57.0730   25.8950   46.4980 C   0  0  0  0  0  0  0  0  0  0  0  0
   57.9830   26.2430   44.9590 S   0  0  0  0  0  0  0  0  0  0  0  0
   57.5190   27.9760   44.9260 C   0  0  0  0  0  0  0  0  0  0  0  0
   56.2510   28.4030   45.0620 N   0  0  0  0  0  0  0  0  0  0  0  0
   56.2720   29.7210   44.9200 N   0  0  0  0  0  0  0  0  0  0  0  0
   57.5550   30.0760   44.7030 C   0  0  0  0  0  0  0  0  0  0  0  0
   57.9750   31.4860   44.4160 C   0  0  0  0  0  0  0  0  0  0  0  0
   56.9600   32.4400   44.8600 N   0  0  0  0  0  0  0  0  0  0  0  0
   57.2660   33.6470   45.5670 C   0  0  0  0  0  0  0  0  0  0  0  0
   56.6620   34.7060   45.2510 O   0  0  0  0  0  0  0  0  0  0  0  0
   58.2960   33.6770   46.6270 C   0  0  0  0  0  0  0  0  0  0  0  0
   58.1720   32.8450   47.7530 C   0  0  0  0  0  0  0  0  0  0  0  0
   59.1140   32.9040   48.7840 C   0  0  0  0  0  0  0  0  0  0  0  0
   60.1950   33.7850   48.6960 C   0  0  0  0  0  0  0  0  0  0  0  0
   60.3420   34.5980   47.5700 C   0  0  0  0  0  0  0  0  0  0  0  0
   59.4050   34.5420   46.5330 C   0  0  0  0  0  0  0  0  0  0  0  0
   59.5540   35.3650   45.4640 F   0  0  0  0  0  0  0  0  0  0  0  0
   58.3640   28.9960   44.6870 N   0  0  0  0  0  0  0  0  0  0  0  0
   59.8200   28.9410   44.5660 C   0  0  0  0  0  0  0  0  0  0  0  0
   56.3975   22.4688   47.5197 H   0  0  0  0  0  0  0  0  0  0  0  0
   56.3338   20.7229   47.1020 H   0  0  0  0  0  0  0  0  0  0  0  0
   57.9072   21.5896   47.1020 H   0  0  0  0  0  0  0  0  0  0  0  0
   57.7930   20.3306   44.7426 H   0  0  0  0  0  0  0  0  0  0  0  0
   57.4928   20.8720   42.3277 H   0  0  0  0  0  0  0  0  0  0  0  0
   56.1727   22.8763   41.6486 H   0  0  0  0  0  0  0  0  0  0  0  0
   55.1645   24.3561   43.3855 H   0  0  0  0  0  0  0  0  0  0  0  0
   57.0323   26.8066   47.1122 H   0  0  0  0  0  0  0  0  0  0  0  0
   57.5889   25.0971   47.0523 H   0  0  0  0  0  0  0  0  0  0  0  0
   58.9180   31.6940   44.9429 H   0  0  0  0  0  0  0  0  0  0  0  0
   58.1057   31.5965   43.3294 H   0  0  0  0  0  0  0  0  0  0  0  0
   57.3282   32.1429   47.8233 H   0  0  0  0  0  0  0  0  0  0  0  0
   59.0041   32.2559   49.6660 H   0  0  0  0  0  0  0  0  0  0  0  0
   60.9297   33.8382   49.5130 H   0  0  0  0  0  0  0  0  0  0  0  0
   61.1980   35.2851   47.4984 H   0  0  0  0  0  0  0  0  0  0  0  0
   60.2709   28.9240   45.5692 H   0  0  0  0  0  0  0  0  0  0  0  0
   60.1084   28.0313   44.0189 H   0  0  0  0  0  0  0  0  0  0  0  0
   60.1762   29.8263   44.0189 H   0  0  0  0  0  0  0  0  0  0  0  0
  1  2  1  0
  2  3  2  0
  3  4  1  0
  4  5  2  0
  5  6  1  0
  6  7  2  0
  7  8  1  0
  8  9  1  0
  9 10  2  0
  9 11  1  0
 11 12  1  0
 12 13  1  0
 13 14  2  0
 14 15  1  0
 15 16  2  0
 16 17  1  0
 17 18  1  0
 18 19  1  0
 19 20  2  0
 19 21  1  0
 21 22  2  0
 22 23  1  0
 23 24  2  0
 24 25  1  0
 25 26  2  0
 26 27  1  0
 16 28  1  0
 28 29  1  0
  7  2  1  0
 28 13  1  0
 26 21  1  0
  1 30  1  0
  1 31  1  0
  1 32  1  0
  3 33  1  0
  4 34  1  0
  5 35  1  0
  6 36  1  0
 11 37  1  0
 11 38  1  0
 17 39  1  0
 17 40  1  0
 22 41  1  0
 23 42  1  0
 24 43  1  0
 25 44  1  0
 29 45  1  0
 29 46  1  0
 29 47  1  0
M  CHG  2   8  -1  18  -1
M  END
>  <UniqueID>  (59) 
55

>  <SMILES>  (59) 
Cc1ccccc1[N-]C(=O)CSc1nnc(C[N-]C(=O)c2ccccc2F)n1C

>  <Energy>  (59) 
88.03994471784304

>  <Genealogy>  (59) 
Cc1ccccc1[N-]C(=O)CSc1nnc(C[N-]C(=O)c2ccccc2F)n1C (protonated)
Cc1ccccc1[N-]C(=O)CSc1nnc(C[N-]C(=O)c2ccccc2F)n1C (3D coordinates assigned)
Cc1ccccc1[N-]C(=O)CSc1nnc(C[N-]C(=O)c2ccccc2F)n1C (optimized conformer: 88.03994471784304 kcal/mol)

>  <smiles>  (59) 
Cc1ccccc1NC(=O)CSc1nnc(CNC(=O)c2ccccc2F)n1C

>  <score_type>  (59) 
oracle

>  <origin>  (59) 
adg

>  <m_score__min__energy>  (59) 
-12.67

>  <m_primary>  (59) 
energy

$$$$
60:0
     RDKit          3D

 22 23  0  0  0  0  0  0  0  0999 V2000
   55.1370   29.3280   44.8670 O   0  0  0  0  0  0  0  0  0  0  0  0
   56.2360   29.8610   44.5640 C   0  0  0  0  0  0  0  0  0  0  0  0
   57.2740   30.0060   45.5100 N   0  0  0  0  0  0  0  0  0  0  0  0
   58.3530   30.7160   44.9300 C   0  0  0  0  0  0  0  0  0  0  0  0
   59.4290   30.8920   45.5610 O   0  0  0  0  0  0  0  0  0  0  0  0
   58.1490   31.2160   43.5300 C   0  0  2  0  0  0  0  0  0  0  0  0
   58.0610   32.7500   43.4720 C   0  0  0  0  0  0  0  0  0  0  0  0
   58.3550   33.3860   44.8080 C   0  0  0  0  0  0  0  0  0  0  0  0
   59.5660   34.0660   45.0150 C   0  0  0  0  0  0  0  0  0  0  0  0
   59.8490   34.6430   46.2570 C   0  0  0  0  0  0  0  0  0  0  0  0
   58.9260   34.5410   47.3020 C   0  0  0  0  0  0  0  0  0  0  0  0
   57.7200   33.8630   47.1060 C   0  0  0  0  0  0  0  0  0  0  0  0
   57.4330   33.2860   45.8650 C   0  0  0  0  0  0  0  0  0  0  0  0
   56.5680   30.4960   42.9300 S   0  0  0  0  0  0  0  0  0  0  0  0
   59.0049   30.9173   42.9070 H   0  0  0  0  0  0  0  0  0  0  0  0
   58.7895   33.1195   42.7352 H   0  0  0  0  0  0  0  0  0  0  0  0
   57.0334   33.0199   43.1871 H   0  0  0  0  0  0  0  0  0  0  0  0
   60.2959   34.1452   44.1959 H   0  0  0  0  0  0  0  0  0  0  0  0
   60.7980   35.1772   46.4117 H   0  0  0  0  0  0  0  0  0  0  0  0
   59.1492   34.9946   48.2789 H   0  0  0  0  0  0  0  0  0  0  0  0
   56.9951   33.7830   47.9294 H   0  0  0  0  0  0  0  0  0  0  0  0
   56.4830   32.7522   45.7152 H   0  0  0  0  0  0  0  0  0  0  0  0
  1  2  2  0
  2  3  1  0
  3  4  1  0
  4  5  2  0
  4  6  1  0
  6  7  1  0
  7  8  1  0
  8  9  2  0
  9 10  1  0
 10 11  2  0
 11 12  1  0
 12 13  2  0
  6 14  1  0
 14  2  1  0
 13  8  1  0
  6 15  1  6
  7 16  1  0
  7 17  1  0
  9 18  1  0
 10 19  1  0
 11 20  1  0
 12 21  1  0
 13 22  1  0
M  CHG  1   3  -1
M  END
>  <UniqueID>  (60) 
56

>  <SMILES>  (60) 
O=C1[N-]C(=O)[C@H](Cc2ccccc2)S1

>  <Energy>  (60) 
28.63588401230817

>  <Genealogy>  (60) 
O=C1[N-]C(=O)C(Cc2ccccc2)S1 (protonated)
O=C1[N-]C(=O)[C@H](Cc2ccccc2)S1 (chirality)
O=C1[N-]C(=O)[C@H](Cc2ccccc2)S1 (3D coordinates assigned)
O=C1[N-]C(=O)[C@H](Cc2ccccc2)S1 (nonaromatic ring conformer: 28.63588401230817 kcal/mol)

>  <smiles>  (60) 
O=C1NC(=O)C(Cc2ccccc2)S1

>  <score_type>  (60) 
oracle

>  <origin>  (60) 
adg

>  <m_score__min__energy>  (60) 
-8.5099999999999998

>  <m_primary>  (60) 
energy

$$$$
61:0
     RDKit          3D

 53 55  0  0  0  0  0  0  0  0999 V2000
   59.3460   33.1440   49.6050 C   0  0  0  0  0  0  0  0  0  0  0  0
   59.1110   32.5540   48.3300 O   0  0  0  0  0  0  0  0  0  0  0  0
   58.7500   33.2680   47.1760 C   0  0  0  0  0  0  0  0  0  0  0  0
   57.4090   33.3610   46.7490 C   0  0  0  0  0  0  0  0  0  0  0  0
   57.0800   34.0920   45.6050 C   0  0  0  0  0  0  0  0  0  0  0  0
   58.0780   34.7400   44.8770 C   0  0  0  0  0  0  0  0  0  0  0  0
   59.4100   34.6550   45.2860 C   0  0  0  0  0  0  0  0  0  0  0  0
   59.7580   33.9110   46.4260 C   0  0  0  0  0  0  0  0  0  0  0  0
   61.1940   33.8550   46.8690 C   0  0  0  0  0  0  0  0  0  0  0  0
   61.6750   32.4830   46.7800 N   0  0  0  0  0  0  0  0  0  0  0  0
   62.1900   31.7140   47.8740 C   0  0  0  0  0  0  0  0  0  0  0  0
   63.2330   32.1120   48.4540 O   0  0  0  0  0  0  0  0  0  0  0  0
   61.5210   30.4470   48.3610 C   0  0  0  0  0  0  0  0  0  0  0  0
   60.4070   30.0390   47.4740 N   0  0  0  0  0  0  0  0  0  0  0  0
   59.4690   29.1140   48.1680 C   0  0  0  0  0  0  0  0  0  0  0  0
   58.7830   28.1050   47.2200 C   0  0  0  0  0  0  0  0  0  0  0  0
   58.5540   28.6660   45.8750 N   0  0  0  0  0  0  0  0  0  0  0  0
   57.4760   29.6770   45.8640 C   0  0  0  0  0  0  0  0  0  0  0  0
   57.4320   30.3740   44.5300 C   0  0  0  0  0  0  0  0  0  0  0  0
   56.6360   29.8560   43.4950 C   0  0  0  0  0  0  0  0  0  0  0  0
   56.6010   30.4890   42.2500 C   0  0  0  0  0  0  0  0  0  0  0  0
   57.3590   31.6420   42.0270 C   0  0  0  0  0  0  0  0  0  0  0  0
   57.3140   32.4350   40.4630 Cl  0  0  0  0  0  0  0  0  0  0  0  0
   58.1560   32.1630   43.0520 C   0  0  0  0  0  0  0  0  0  0  0  0
   58.1940   31.5320   44.2990 C   0  0  0  0  0  0  0  0  0  0  0  0
   59.8080   29.1390   45.2340 C   0  0  0  0  0  0  0  0  0  0  0  0
   60.9420   29.4330   46.2390 C   0  0  0  0  0  0  0  0  0  0  0  0
   59.0630   32.4335   50.3956 H   0  0  0  0  0  0  0  0  0  0  0  0
   60.4126   33.3947   49.7020 H   0  0  0  0  0  0  0  0  0  0  0  0
   58.7439   34.0594   49.7020 H   0  0  0  0  0  0  0  0  0  0  0  0
   56.6171   32.8547   47.3205 H   0  0  0  0  0  0  0  0  0  0  0  0
   56.0319   34.1568   45.2776 H   0  0  0  0  0  0  0  0  0  0  0  0
   57.8150   35.3188   43.9793 H   0  0  0  0  0  0  0  0  0  0  0  0
   60.1921   35.1737   44.7122 H   0  0  0  0  0  0  0  0  0  0  0  0
   61.8037   34.5004   46.2197 H   0  0  0  0  0  0  0  0  0  0  0  0
   61.2714   34.2046   47.9091 H   0  0  0  0  0  0  0  0  0  0  0  0
   62.2669   29.6391   48.3909 H   0  0  0  0  0  0  0  0  0  0  0  0
   61.1085   30.6405   49.3622 H   0  0  0  0  0  0  0  0  0  0  0  0
   59.8880   30.9060   47.1980 H   0  0  0  0  0  0  0  0  0  0  0  0
   60.0328   28.5510   48.9264 H   0  0  0  0  0  0  0  0  0  0  0  0
   58.6746   29.7322   48.6117 H   0  0  0  0  0  0  0  0  0  0  0  0
   59.4230   27.2151   47.1277 H   0  0  0  0  0  0  0  0  0  0  0  0
   57.8027   27.8524   47.6503 H   0  0  0  0  0  0  0  0  0  0  0  0
   56.5111   29.1817   46.0474 H   0  0  0  0  0  0  0  0  0  0  0  0
   57.6718   30.4198   46.6514 H   0  0  0  0  0  0  0  0  0  0  0  0
   56.0380   28.9486   43.6654 H   0  0  0  0  0  0  0  0  0  0  0  0
   55.9755   30.0790   41.4434 H   0  0  0  0  0  0  0  0  0  0  0  0
   58.7533   33.0699   42.8766 H   0  0  0  0  0  0  0  0  0  0  0  0
   58.8227   31.9435   45.1024 H   0  0  0  0  0  0  0  0  0  0  0  0
   60.1551   28.3640   44.5348 H   0  0  0  0  0  0  0  0  0  0  0  0
   59.5735   30.0859   44.7256 H   0  0  0  0  0  0  0  0  0  0  0  0
   61.4525   28.4919   46.4914 H   0  0  0  0  0  0  0  0  0  0  0  0
   61.6466   30.1402   45.7770 H   0  0  0  0  0  0  0  0  0  0  0  0
  1  2  1  0
  2  3  1  0
  3  4  2  0
  4  5  1  0
  5  6  2  0
  6  7  1  0
  7  8  2  0
  8  9  1  0
  9 10  1  0
 10 11  1  0
 11 12  2  0
 11 13  1  0
 13 14  1  0
 14 15  1  0
 15 16  1  0
 16 17  1  0
 17 18  1  0
 18 19  1  0
 19 20  2  0
 20 21  1  0
 21 22  2  0
 22 23  1  0
 22 24  1  0
 24 25  2  0
 17 26  1  0
 26 27  1  0
  8  3  1  0
 27 14  1  0
 25 19  1  0
  1 28  1  0
  1 29  1  0
  1 30  1  0
  4 31  1  0
  5 32  1  0
  6 33  1  0
  7 34  1  0
  9 35  1  0
  9 36  1  0
 13 37  1  0
 13 38  1  0
 14 39  1  0
 15 40  1  0
 15 41  1  0
 16 42  1  0
 16 43  1  0
 18 44  1  0
 18 45  1  0
 20 46  1  0
 21 47  1  0
 24 48  1  0
 25 49  1  0
 26 50  1  0
 26 51  1  0
 27 52  1  0
 27 53  1  0
M  CHG  2  10  -1  14   1
M  END
>  <UniqueID>  (61) 
57

>  <SMILES>  (61) 
COc1ccccc1C[N-]C(=O)C[NH+]1CCN(Cc2ccc(Cl)cc2)CC1

>  <Energy>  (61) 
64.87005336060874

>  <Genealogy>  (61) 
COc1ccccc1C[N-]C(=O)C[NH+]1CCN(Cc2ccc(Cl)cc2)CC1 (protonated)
COc1ccccc1C[N-]C(=O)C[NH+]1CCN(Cc2ccc(Cl)cc2)CC1 (3D coordinates assigned)
COc1ccccc1C[N-]C(=O)C[NH+]1CCN(Cc2ccc(Cl)cc2)CC1 (nonaromatic ring conformer: 64.87005336060874 kcal/mol)

>  <smiles>  (61) 
COc1ccccc1CNC(=O)CN1CCN(Cc2ccc(Cl)cc2)CC1

>  <score_type>  (61) 
oracle

>  <origin>  (61) 
adg

>  <m_score__min__energy>  (61) 
-8.6400000000000006

>  <m_primary>  (61) 
energy

$$$$
62:0
     RDKit          3D

 47 49  0  0  0  0  0  0  0  0999 V2000
   57.5620   28.4990   43.8060 C   0  0  0  0  0  0  0  0  0  0  0  0
   56.5160   29.8700   44.2480 S   0  0  0  0  0  0  0  0  0  0  0  0
   55.1600   29.3400   44.6160 O   0  0  0  0  0  0  0  0  0  0  0  0
   56.3670   30.8140   43.0880 O   0  0  0  0  0  0  0  0  0  0  0  0
   57.1750   30.7070   45.6160 N   0  0  0  0  0  0  0  0  0  0  0  0
   57.7890   32.0060   45.6070 C   0  0  0  0  0  0  0  0  0  0  0  0
   57.6210   32.8810   44.5190 C   0  0  0  0  0  0  0  0  0  0  0  0
   58.1870   34.1520   44.5370 C   0  0  0  0  0  0  0  0  0  0  0  0
   58.9270   34.5740   45.6370 C   0  0  0  0  0  0  0  0  0  0  0  0
   59.1050   33.7300   46.7440 C   0  0  0  0  0  0  0  0  0  0  0  0
   59.9430   34.1570   47.8330 N   0  0  0  0  0  0  0  0  0  0  0  0
   61.3250   33.7820   47.9810 C   0  0  0  0  0  0  0  0  0  0  0  0
   62.0230   34.1660   49.1360 C   0  0  0  0  0  0  0  0  0  0  0  0
   63.3720   33.8310   49.2900 C   0  0  0  0  0  0  0  0  0  0  0  0
   64.0360   33.1190   48.2880 C   0  0  0  0  0  0  0  0  0  0  0  0
   63.3550   32.7480   47.1270 C   0  0  0  0  0  0  0  0  0  0  0  0
   62.0060   33.0810   46.9670 C   0  0  0  0  0  0  0  0  0  0  0  0
   58.5400   32.4300   46.7310 C   0  0  0  0  0  0  0  0  0  0  0  0
   58.7130   31.5320   47.8990 C   0  0  0  0  0  0  0  0  0  0  0  0
   59.1160   30.3490   47.7240 O   0  0  0  0  0  0  0  0  0  0  0  0
   58.4690   32.0230   49.2240 N   0  0  0  0  0  0  0  0  0  0  0  0
   59.4460   32.2120   50.2570 C   0  0  0  0  0  0  0  0  0  0  0  0
   59.2440   33.2350   51.1900 C   0  0  0  0  0  0  0  0  0  0  0  0
   60.1690   33.4490   52.2140 C   0  0  0  0  0  0  0  0  0  0  0  0
   61.2920   32.6270   52.3290 C   0  0  0  0  0  0  0  0  0  0  0  0
   61.4860   31.5600   51.4350 C   0  0  0  0  0  0  0  0  0  0  0  0
   62.7110   30.6860   51.5390 C   0  0  0  0  0  0  0  0  0  0  0  0
   63.5250   30.8460   50.4310 F   0  0  0  0  0  0  0  0  0  0  0  0
   62.3200   29.3620   51.6230 F   0  0  0  0  0  0  0  0  0  0  0  0
   63.4460   31.0110   52.6650 F   0  0  0  0  0  0  0  0  0  0  0  0
   60.5640   31.3670   50.3890 C   0  0  0  0  0  0  0  0  0  0  0  0
   57.9336   28.0119   44.7196 H   0  0  0  0  0  0  0  0  0  0  0  0
   56.9853   27.7742   43.2127 H   0  0  0  0  0  0  0  0  0  0  0  0
   58.4134   28.8638   43.2127 H   0  0  0  0  0  0  0  0  0  0  0  0
   57.0364   32.5575   43.6452 H   0  0  0  0  0  0  0  0  0  0  0  0
   58.0489   34.8256   43.6784 H   0  0  0  0  0  0  0  0  0  0  0  0
   59.3765   35.5780   45.6390 H   0  0  0  0  0  0  0  0  0  0  0  0
   59.5120   34.7530   48.5760 H   0  0  0  0  0  0  0  0  0  0  0  0
   61.5066   34.7334   49.9243 H   0  0  0  0  0  0  0  0  0  0  0  0
   63.9111   34.1286   50.2015 H   0  0  0  0  0  0  0  0  0  0  0  0
   65.0953   32.8507   48.4138 H   0  0  0  0  0  0  0  0  0  0  0  0
   63.8806   32.1925   46.3363 H   0  0  0  0  0  0  0  0  0  0  0  0
   61.4756   32.7946   46.0468 H   0  0  0  0  0  0  0  0  0  0  0  0
   58.3517   33.8741   51.1164 H   0  0  0  0  0  0  0  0  0  0  0  0
   60.0126   34.2674   52.9321 H   0  0  0  0  0  0  0  0  0  0  0  0
   62.0288   32.8156   53.1237 H   0  0  0  0  0  0  0  0  0  0  0  0
   60.7184   30.5496   49.6693 H   0  0  0  0  0  0  0  0  0  0  0  0
  1  2  1  0
  2  3  2  0
  2  4  2  0
  2  5  1  0
  5  6  1  0
  6  7  2  0
  7  8  1  0
  8  9  2  0
  9 10  1  0
 10 11  1  0
 11 12  1  0
 12 13  2  0
 13 14  1  0
 14 15  2  0
 15 16  1  0
 16 17  2  0
 10 18  2  0
 18 19  1  0
 19 20  2  0
 19 21  1  0
 21 22  1  0
 22 23  2  0
 23 24  1  0
 24 25  2  0
 25 26  1  0
 26 27  1  0
 27 28  1  0
 27 29  1  0
 27 30  1  0
 26 31  2  0
 18  6  1  0
 31 22  1  0
 17 12  1  0
  1 32  1  0
  1 33  1  0
  1 34  1  0
  7 35  1  0
  8 36  1  0
  9 37  1  0
 11 38  1  0
 13 39  1  0
 14 40  1  0
 15 41  1  0
 16 42  1  0
 17 43  1  0
 23 44  1  0
 24 45  1  0
 25 46  1  0
 31 47  1  0
M  CHG  2   5  -1  21  -1
M  END
>  <UniqueID>  (62) 
58

>  <SMILES>  (62) 
CS(=O)(=O)[N-]c1cccc(Nc2ccccc2)c1C(=O)[N-]c1cccc(C(F)(F)F)c1

>  <Energy>  (62) 
64.1963696246386

>  <Genealogy>  (62) 
CS(=O)(=O)[N-]c1cccc(Nc2ccccc2)c1C(=O)[N-]c1cccc(C(F)(F)F)c1 (protonated)
CS(=O)(=O)[N-]c1cccc(Nc2ccccc2)c1C(=O)[N-]c1cccc(C(F)(F)F)c1 (3D coordinates assigned)
CS(=O)(=O)[N-]c1cccc(Nc2ccccc2)c1C(=O)[N-]c1cccc(C(F)(F)F)c1 (optimized conformer: 64.1963696246386 kcal/mol)

>  <smiles>  (62) 
CS(=O)(=O)Nc1cccc(Nc2ccccc2)c1C(=O)Nc1cccc(C(F)(F)F)c1

>  <score_type>  (62) 
oracle

>  <origin>  (62) 
adg

>  <m_score__min__energy>  (62) 
-11.699999999999999

>  <m_primary>  (62) 
energy

$$$$
63:0
     RDKit          3D

 33 33  0  0  0  0  0  0  0  0999 V2000
   56.5810   27.6660   45.2750 N   0  0  0  0  0  0  0  0  0  0  0  0
   56.5450   26.0270   45.8280 S   0  0  0  0  0  0  0  0  0  0  0  0
   56.8510   25.1090   44.6790 O   0  0  0  0  0  0  0  0  0  0  0  0
   55.1760   25.7200   46.3680 O   0  0  0  0  0  0  0  0  0  0  0  0
   57.7730   25.8170   47.1090 C   0  0  0  0  0  0  0  0  0  0  0  0
   59.1920   25.7660   46.5430 C   0  0  0  0  0  0  0  0  0  0  0  0
   59.4040   26.8640   45.6090 N   0  0  0  0  0  0  0  0  0  0  0  0
   60.0960   28.0630   45.9690 C   0  0  0  0  0  0  0  0  0  0  0  0
   60.7010   28.1410   47.0730 O   0  0  0  0  0  0  0  0  0  0  0  0
   60.1580   29.2010   44.9990 C   0  0  0  0  0  0  0  0  0  0  0  0
   58.8580   29.4130   44.3590 N   0  0  0  0  0  0  0  0  0  0  0  0
   57.7460   30.1990   45.4430 S   0  0  0  0  0  0  0  0  0  0  0  0
   56.3550   30.0990   44.8830 O   0  0  0  0  0  0  0  0  0  0  0  0
   57.7680   29.4970   46.7730 O   0  0  0  0  0  0  0  0  0  0  0  0
   58.1670   31.9050   45.6410 C   0  0  0  0  0  0  0  0  0  0  0  0
   58.4870   32.3920   46.9190 C   0  0  0  0  0  0  0  0  0  0  0  0
   58.8230   33.7360   47.1010 C   0  0  0  0  0  0  0  0  0  0  0  0
   58.8570   34.6030   46.0090 C   0  0  0  0  0  0  0  0  0  0  0  0
   58.5450   34.1310   44.7330 C   0  0  0  0  0  0  0  0  0  0  0  0
   58.1940   32.7890   44.5400 C   0  0  0  0  0  0  0  0  0  0  0  0
   57.7690   32.2230   42.7560 Br  0  0  0  0  0  0  0  0  0  0  0  0
   56.1510   28.2500   46.0260 H   0  0  0  0  0  0  0  0  0  0  0  0
   57.5870   27.9450   45.2150 H   0  0  0  0  0  0  0  0  0  0  0  0
   57.7013   26.6610   47.8108 H   0  0  0  0  0  0  0  0  0  0  0  0
   57.5753   24.8599   47.6139 H   0  0  0  0  0  0  0  0  0  0  0  0
   59.9149   25.8469   47.3682 H   0  0  0  0  0  0  0  0  0  0  0  0
   59.3312   24.8128   46.0120 H   0  0  0  0  0  0  0  0  0  0  0  0
   60.4489   30.1162   45.5355 H   0  0  0  0  0  0  0  0  0  0  0  0
   60.8977   28.9602   44.2213 H   0  0  0  0  0  0  0  0  0  0  0  0
   58.4730   31.7107   47.7825 H   0  0  0  0  0  0  0  0  0  0  0  0
   59.0611   34.1110   48.1073 H   0  0  0  0  0  0  0  0  0  0  0  0
   59.1297   35.6588   46.1534 H   0  0  0  0  0  0  0  0  0  0  0  0
   58.5750   34.8172   43.8738 H   0  0  0  0  0  0  0  0  0  0  0  0
  1  2  1  0
  2  3  2  0
  2  4  2  0
  2  5  1  0
  5  6  1  0
  6  7  1  0
  7  8  1  0
  8  9  2  0
  8 10  1  0
 10 11  1  0
 11 12  1  0
 12 13  2  0
 12 14  2  0
 12 15  1  0
 15 16  2  0
 16 17  1  0
 17 18  2  0
 18 19  1  0
 19 20  2  0
 20 21  1  0
 20 15  1  0
  1 22  1  0
  1 23  1  0
  5 24  1  0
  5 25  1  0
  6 26  1  0
  6 27  1  0
 10 28  1  0
 10 29  1  0
 16 30  1  0
 17 31  1  0
 18 32  1  0
 19 33  1  0
M  CHG  2   7  -1  11  -1
M  END
>  <UniqueID>  (63) 
59

>  <SMILES>  (63) 
NS(=O)(=O)CC[N-]C(=O)C[N-]S(=O)(=O)c1ccccc1Br

>  <Energy>  (63) 
17.713260923904322

>  <Genealogy>  (63) 
NS(=O)(=O)CC[N-]C(=O)C[N-]S(=O)(=O)c1ccccc1Br (protonated)
NS(=O)(=O)CC[N-]C(=O)C[N-]S(=O)(=O)c1ccccc1Br (3D coordinates assigned)
NS(=O)(=O)CC[N-]C(=O)C[N-]S(=O)(=O)c1ccccc1Br (optimized conformer: 17.713260923904322 kcal/mol)

>  <smiles>  (63) 
NS(=O)(=O)CCNC(=O)CNS(=O)(=O)c1ccccc1Br

>  <score_type>  (63) 
oracle

>  <origin>  (63) 
adg

>  <m_score__min__energy>  (63) 
-10.779999999999999

>  <m_primary>  (63) 
energy

$$$$
64:0
     RDKit          3D

 36 38  0  0  0  0  0  0  0  0999 V2000
   59.9740   34.6650   49.4600 O   0  0  0  0  0  0  0  0  0  0  0  0
   60.6020   34.1670   48.4890 C   0  0  0  0  0  0  0  0  0  0  0  0
   59.8820   33.8470   47.2920 N   0  0  0  0  0  0  0  0  0  0  0  0
   59.6810   32.5330   46.7530 C   0  0  0  0  0  0  0  0  0  0  0  0
   60.7180   31.5980   46.8380 C   0  0  0  0  0  0  0  0  0  0  0  0
   60.5480   30.3060   46.3320 C   0  0  0  0  0  0  0  0  0  0  0  0
   59.3390   29.9300   45.7350 C   0  0  0  0  0  0  0  0  0  0  0  0
   59.2060   28.6240   45.2450 O   0  0  0  0  0  0  0  0  0  0  0  0
   58.3800   27.6280   45.7910 C   0  0  0  0  0  0  0  0  0  0  0  0
   58.9340   26.5920   46.5670 C   0  0  0  0  0  0  0  0  0  0  0  0
   58.1200   25.6000   47.1090 C   0  0  0  0  0  0  0  0  0  0  0  0
   56.7440   25.6340   46.9000 C   0  0  0  0  0  0  0  0  0  0  0  0
   56.1680   26.6680   46.1550 C   0  0  0  0  0  0  0  0  0  0  0  0
   54.7860   26.6770   45.9970 O   0  0  0  0  0  0  0  0  0  0  0  0
   56.9760   27.6840   45.5940 C   0  0  0  0  0  0  0  0  0  0  0  0
   56.3620   28.7830   44.7990 C   0  0  0  0  0  0  0  0  0  0  0  0
   56.9340   29.2330   43.7710 O   0  0  0  0  0  0  0  0  0  0  0  0
   55.1440   29.3360   45.1740 O   0  0  0  0  0  0  0  0  0  0  0  0
   58.2800   30.8550   45.6890 C   0  0  0  0  0  0  0  0  0  0  0  0
   58.4480   32.1460   46.1970 C   0  0  0  0  0  0  0  0  0  0  0  0
   62.0430   33.8790   48.6340 C   0  0  0  0  0  0  0  0  0  0  0  0
   62.7080   33.7250   49.8360 C   0  0  0  0  0  0  0  0  0  0  0  0
   64.0210   33.4400   49.5190 C   0  0  0  0  0  0  0  0  0  0  0  0
   64.0990   33.4220   48.1410 C   0  0  0  0  0  0  0  0  0  0  0  0
   62.8930   33.6840   47.6060 N   0  0  0  0  0  0  0  0  0  0  0  0
   61.6726   31.8810   47.3056 H   0  0  0  0  0  0  0  0  0  0  0  0
   61.3706   29.5792   46.4035 H   0  0  0  0  0  0  0  0  0  0  0  0
   60.0189   26.5657   46.7468 H   0  0  0  0  0  0  0  0  0  0  0  0
   58.5652   24.7884   47.7032 H   0  0  0  0  0  0  0  0  0  0  0  0
   56.1066   24.8436   47.3230 H   0  0  0  0  0  0  0  0  0  0  0  0
   57.3149   30.5606   45.2510 H   0  0  0  0  0  0  0  0  0  0  0  0
   57.6135   32.8618   46.1620 H   0  0  0  0  0  0  0  0  0  0  0  0
   62.2769   33.8122   50.8442 H   0  0  0  0  0  0  0  0  0  0  0  0
   64.8443   33.2620   50.2264 H   0  0  0  0  0  0  0  0  0  0  0  0
   65.0142   33.2224   47.5643 H   0  0  0  0  0  0  0  0  0  0  0  0
   62.6680   33.7020   46.5870 H   0  0  0  0  0  0  0  0  0  0  0  0
  1  2  2  0
  2  3  1  0
  3  4  1  0
  4  5  2  0
  5  6  1  0
  6  7  2  0
  7  8  1  0
  8  9  1  0
  9 10  2  0
 10 11  1  0
 11 12  2  0
 12 13  1  0
 13 14  1  0
 13 15  2  0
 15 16  1  0
 16 17  2  0
 16 18  1  0
  7 19  1  0
 19 20  2  0
  2 21  1  0
 21 22  2  0
 22 23  1  0
 23 24  2  0
 24 25  1  0
 20  4  1  0
 25 21  1  0
 15  9  1  0
  5 26  1  0
  6 27  1  0
 10 28  1  0
 11 29  1  0
 12 30  1  0
 19 31  1  0
 20 32  1  0
 22 33  1  0
 23 34  1  0
 24 35  1  0
 25 36  1  0
M  CHG  3   3  -1  14  -1  18  -1
M  END
>  <UniqueID>  (64) 
60

>  <SMILES>  (64) 
O=C([N-]c1ccc(Oc2cccc([O-])c2C(=O)[O-])cc1)c1ccc[nH]1

>  <Energy>  (64) 
79.75825111086776

>  <Genealogy>  (64) 
O=C([N-]c1ccc(Oc2cccc([O-])c2C(=O)[O-])cc1)c1ccc[nH]1 (protonated)
O=C([N-]c1ccc(Oc2cccc([O-])c2C(=O)[O-])cc1)c1ccc[nH]1 (3D coordinates assigned)
O=C([N-]c1ccc(Oc2cccc([O-])c2C(=O)[O-])cc1)c1ccc[nH]1 (optimized conformer: 79.75825111086776 kcal/mol)

>  <smiles>  (64) 
O=C(Nc1ccc(Oc2cccc(O)c2C(=O)O)cc1)c1ccc[nH]1

>  <score_type>  (64) 
oracle

>  <origin>  (64) 
adg

>  <m_score__min__energy>  (64) 
-14.119999999999999

>  <m_primary>  (64) 
energy

$$$$
65:0
     RDKit          3D

 53 55  0  0  0  0  0  0  0  0999 V2000
   58.4480   34.2150   45.6800 C   0  0  0  0  0  0  0  0  0  0  0  0
   59.4910   33.1500   46.0150 C   0  0  0  0  0  0  0  0  0  0  0  0
   58.9570   32.0760   46.9750 C   0  0  0  0  0  0  0  0  0  0  0  0
   59.1710   30.6500   46.4420 C   0  0  0  0  0  0  0  0  0  0  0  0
   58.0620   29.6890   46.9030 C   0  0  0  0  0  0  0  0  0  0  0  0
   57.5890   28.8420   45.7980 N   0  0  0  0  0  0  0  0  0  0  0  0
   56.6610   29.3700   44.8230 C   0  0  0  0  0  0  0  0  0  0  0  0
   55.4650   28.9710   44.8220 O   0  0  0  0  0  0  0  0  0  0  0  0
   57.0710   30.3920   43.8360 C   0  0  0  0  0  0  0  0  0  0  0  0
   56.6270   30.4740   42.5310 C   0  0  0  0  0  0  0  0  0  0  0  0
   57.2570   31.5750   41.9910 C   0  0  0  0  0  0  0  0  0  0  0  0
   58.0420   32.0980   42.9960 C   0  0  0  0  0  0  0  0  0  0  0  0
   57.9090   31.3730   44.0820 O   0  0  0  0  0  0  0  0  0  0  0  0
   57.9720   27.4550   45.7600 C   0  0  0  0  0  0  0  0  0  0  0  0
   57.0090   26.4310   45.8530 C   0  0  0  0  0  0  0  0  0  0  0  0
   55.6220   26.7900   46.0000 N   0  0  0  0  0  0  0  0  0  0  0  0
   57.4130   25.1110   45.8590 N   0  0  0  0  0  0  0  0  0  0  0  0
   56.4290   24.0200   46.0480 C   0  0  0  0  0  0  0  0  0  0  0  0
   56.5320   22.9990   44.9390 C   0  0  0  0  0  0  0  0  0  0  0  0
   56.3470   23.3810   43.5980 C   0  0  0  0  0  0  0  0  0  0  0  0
   56.4360   22.4310   42.5750 C   0  0  0  0  0  0  0  0  0  0  0  0
   56.6950   21.0940   42.8820 C   0  0  0  0  0  0  0  0  0  0  0  0
   56.8600   20.7020   44.2140 C   0  0  0  0  0  0  0  0  0  0  0  0
   56.7740   21.6480   45.2390 C   0  0  0  0  0  0  0  0  0  0  0  0
   58.7520   24.8100   45.7590 C   0  0  0  0  0  0  0  0  0  0  0  0
   59.1460   23.6100   45.7620 O   0  0  0  0  0  0  0  0  0  0  0  0
   59.6800   25.7980   45.6710 N   0  0  0  0  0  0  0  0  0  0  0  0
   59.3210   27.1040   45.6830 C   0  0  0  0  0  0  0  0  0  0  0  0
   60.2080   27.9970   45.6190 O   0  0  0  0  0  0  0  0  0  0  0  0
   58.0386   34.6330   46.6115 H   0  0  0  0  0  0  0  0  0  0  0  0
   58.9189   35.0178   45.0937 H   0  0  0  0  0  0  0  0  0  0  0  0
   57.6356   33.7609   45.0937 H   0  0  0  0  0  0  0  0  0  0  0  0
   59.8070   32.6614   45.0815 H   0  0  0  0  0  0  0  0  0  0  0  0
   60.3307   33.6542   46.5157 H   0  0  0  0  0  0  0  0  0  0  0  0
   59.4780   32.1741   47.9388 H   0  0  0  0  0  0  0  0  0  0  0  0
   57.8736   32.2332   47.0826 H   0  0  0  0  0  0  0  0  0  0  0  0
   59.1805   30.6797   45.3424 H   0  0  0  0  0  0  0  0  0  0  0  0
   60.1277   30.2794   46.8388 H   0  0  0  0  0  0  0  0  0  0  0  0
   58.4566   29.0454   47.7030 H   0  0  0  0  0  0  0  0  0  0  0  0
   57.2141   30.2889   47.2653 H   0  0  0  0  0  0  0  0  0  0  0  0
   55.9180   29.8007   42.0270 H   0  0  0  0  0  0  0  0  0  0  0  0
   57.1540   31.9586   40.9652 H   0  0  0  0  0  0  0  0  0  0  0  0
   58.6824   32.9875   42.9022 H   0  0  0  0  0  0  0  0  0  0  0  0
   55.1430   27.4710   45.3750 H   0  0  0  0  0  0  0  0  0  0  0  0
   55.0340   26.3790   46.7580 H   0  0  0  0  0  0  0  0  0  0  0  0
   56.6214   23.5251   47.0114 H   0  0  0  0  0  0  0  0  0  0  0  0
   55.4181   24.4535   46.0321 H   0  0  0  0  0  0  0  0  0  0  0  0
   56.1314   24.4314   43.3526 H   0  0  0  0  0  0  0  0  0  0  0  0
   56.3017   22.7379   41.5272 H   0  0  0  0  0  0  0  0  0  0  0  0
   56.7693   20.3490   42.0761 H   0  0  0  0  0  0  0  0  0  0  0  0
   57.0578   19.6472   44.4555 H   0  0  0  0  0  0  0  0  0  0  0  0
   56.8964   21.3333   46.2859 H   0  0  0  0  0  0  0  0  0  0  0  0
   60.6920   25.5480   45.6040 H   0  0  0  0  0  0  0  0  0  0  0  0
  1  2  1  0
  2  3  1  0
  3  4  1  0
  4  5  1  0
  5  6  1  0
  6  7  1  0
  7  8  2  0
  7  9  1  0
  9 10  2  0
 10 11  1  0
 11 12  2  0
 12 13  1  0
  6 14  1  0
 14 15  2  0
 15 16  1  0
 15 17  1  0
 17 18  1  0
 18 19  1  0
 19 20  2  0
 20 21  1  0
 21 22  2  0
 22 23  1  0
 23 24  2  0
 17 25  1  0
 25 26  2  0
 25 27  1  0
 27 28  1  0
 28 29  2  0
 13  9  1  0
 28 14  1  0
 24 19  1  0
  1 30  1  0
  1 31  1  0
  1 32  1  0
  2 33  1  0
  2 34  1  0
  3 35  1  0
  3 36  1  0
  4 37  1  0
  4 38  1  0
  5 39  1  0
  5 40  1  0
 10 41  1  0
 11 42  1  0
 12 43  1  0
 16 44  1  0
 16 45  1  0
 18 46  1  0
 18 47  1  0
 20 48  1  0
 21 49  1  0
 22 50  1  0
 23 51  1  0
 24 52  1  0
 27 53  1  0
M  END
>  <UniqueID>  (65) 
61

>  <SMILES>  (65) 
CCCCCN(C(=O)c1ccco1)c1c(N)n(Cc2ccccc2)c(=O)[nH]c1=O

>  <Energy>  (65) 
85.96172569751764

>  <Genealogy>  (65) 
CCCCCN(C(=O)c1ccco1)c1c(N)n(Cc2ccccc2)c(=O)[nH]c1=O (3D coordinates assigned)
CCCCCN(C(=O)c1ccco1)c1c(N)n(Cc2ccccc2)c(=O)[nH]c1=O (optimized conformer: 85.96172569751764 kcal/mol)

>  <smiles>  (65) 
CCCCCN(C(=O)c1ccco1)c1c(N)n(Cc2ccccc2)c(=O)[nH]c1=O

>  <score_type>  (65) 
oracle

>  <origin>  (65) 
adg

>  <m_score__min__energy>  (65) 
-7.7599999999999998

>  <m_primary>  (65) 
energy

$$$$
66:0
     RDKit          3D

 42 46  0  0  0  0  0  0  0  0999 V2000
   55.1450   29.3850   44.5430 O   0  0  0  0  0  0  0  0  0  0  0  0
   56.0910   28.8250   45.1550 C   0  0  0  0  0  0  0  0  0  0  0  0
   55.9220   27.4850   45.6250 N   0  0  0  0  0  0  0  0  0  0  0  0
   56.9850   26.5300   45.7220 C   0  0  0  0  0  0  0  0  0  0  0  0
   58.2870   26.9950   45.9540 C   0  0  0  0  0  0  0  0  0  0  0  0
   59.3530   26.0970   46.0460 C   0  0  0  0  0  0  0  0  0  0  0  0
   59.1230   24.7250   45.9250 C   0  0  0  0  0  0  0  0  0  0  0  0
   57.8260   24.2470   45.7260 C   0  0  0  0  0  0  0  0  0  0  0  0
   56.7500   25.1400   45.6330 C   0  0  0  0  0  0  0  0  0  0  0  0
   55.1250   24.4790   45.4960 Cl  0  0  0  0  0  0  0  0  0  0  0  0
   57.2940   29.5460   45.4610 N   0  0  0  0  0  0  0  0  0  0  0  0
   57.6710   30.8420   44.9750 C   0  0  0  0  0  0  0  0  0  0  0  0
   57.3760   31.2850   43.6640 C   0  0  0  0  0  0  0  0  0  0  0  0
   57.7660   32.5720   43.2370 C   0  0  0  0  0  0  0  0  0  0  0  0
   58.4730   33.4280   44.0980 C   0  0  0  0  0  0  0  0  0  0  0  0
   58.7990   32.9580   45.3650 C   0  0  0  0  0  0  0  0  0  0  0  0
   58.4080   31.6980   45.7970 C   0  0  0  0  0  0  0  0  0  0  0  0
   58.8120   31.5530   47.2000 C   0  0  0  0  0  0  0  0  0  0  0  0
   58.5160   30.6070   47.9740 O   0  0  0  0  0  0  0  0  0  0  0  0
   59.5140   32.7890   47.5470 C   0  0  0  0  0  0  0  0  0  0  0  0
   59.4800   33.6210   46.4710 C   0  0  0  0  0  0  0  0  0  0  0  0
   59.3560   34.9000   46.8640 N   0  0  0  0  0  0  0  0  0  0  0  0
   59.3680   34.9050   48.1940 N   0  0  0  0  0  0  0  0  0  0  0  0
   59.4310   33.6280   48.6420 C   0  0  0  0  0  0  0  0  0  0  0  0
   59.2870   33.2420   50.0620 C   0  0  0  0  0  0  0  0  0  0  0  0
   60.1200   33.7990   51.0480 C   0  0  0  0  0  0  0  0  0  0  0  0
   59.9700   33.4320   52.3900 C   0  0  0  0  0  0  0  0  0  0  0  0
   58.9840   32.5150   52.7600 C   0  0  0  0  0  0  0  0  0  0  0  0
   58.1410   31.9670   51.7890 C   0  0  0  0  0  0  0  0  0  0  0  0
   58.2860   32.3300   50.4470 C   0  0  0  0  0  0  0  0  0  0  0  0
   58.4704   28.0740   46.0643 H   0  0  0  0  0  0  0  0  0  0  0  0
   60.3739   26.4707   46.2138 H   0  0  0  0  0  0  0  0  0  0  0  0
   59.9648   24.0196   45.9865 H   0  0  0  0  0  0  0  0  0  0  0  0
   57.6482   23.1647   45.6419 H   0  0  0  0  0  0  0  0  0  0  0  0
   56.8381   30.6205   42.9719 H   0  0  0  0  0  0  0  0  0  0  0  0
   57.5141   32.9083   42.2204 H   0  0  0  0  0  0  0  0  0  0  0  0
   58.7602   34.4407   43.7788 H   0  0  0  0  0  0  0  0  0  0  0  0
   60.8937   34.5271   50.7631 H   0  0  0  0  0  0  0  0  0  0  0  0
   60.6301   33.8667   53.1550 H   0  0  0  0  0  0  0  0  0  0  0  0
   58.8708   32.2241   53.8148 H   0  0  0  0  0  0  0  0  0  0  0  0
   57.3615   31.2482   52.0817 H   0  0  0  0  0  0  0  0  0  0  0  0
   57.6149   31.9011   49.6882 H   0  0  0  0  0  0  0  0  0  0  0  0
  1  2  2  0
  2  3  1  0
  3  4  1  0
  4  5  2  0
  5  6  1  0
  6  7  2  0
  7  8  1  0
  8  9  2  0
  9 10  1  0
  2 11  1  0
 11 12  1  0
 12 13  2  0
 13 14  1  0
 14 15  2  0
 15 16  1  0
 16 17  2  0
 17 18  1  0
 18 19  2  0
 18 20  1  0
 20 21  1  0
 21 22  2  0
 22 23  1  0
 23 24  1  0
 24 25  1  0
 25 26  2  0
 26 27  1  0
 27 28  2  0
 28 29  1  0
 29 30  2  0
  9  4  1  0
 17 12  1  0
 24 20  2  0
 30 25  1  0
 21 16  1  0
  5 31  1  0
  6 32  1  0
  7 33  1  0
  8 34  1  0
 13 35  1  0
 14 36  1  0
 15 37  1  0
 26 38  1  0
 27 39  1  0
 28 40  1  0
 29 41  1  0
 30 42  1  0
M  CHG  3   3  -1  11  -1  23  -1
M  END
>  <UniqueID>  (66) 
62

>  <SMILES>  (66) 
O=C([N-]c1ccccc1Cl)[N-]c1cccc2c1C(=O)c1c-2n[n-]c1-c1ccccc1

>  <Energy>  (66) 
145.02440688232113

>  <Genealogy>  (66) 
O=C([N-]c1ccccc1Cl)[N-]c1cccc2c1C(=O)c1c-2n[n-]c1-c1ccccc1 (protonated)
O=C([N-]c1ccccc1Cl)[N-]c1cccc2c1C(=O)c1c-2n[n-]c1-c1ccccc1 (3D coordinates assigned)
O=C([N-]c1ccccc1Cl)[N-]c1cccc2c1C(=O)c1c-2n[n-]c1-c1ccccc1 (nonaromatic ring conformer: 145.02440688232113 kcal/mol)

>  <smiles>  (66) 
O=C(Nc1ccccc1Cl)Nc1cccc2c1C(=O)c1c-2n[nH]c1-c1ccccc1

>  <score_type>  (66) 
oracle

>  <origin>  (66) 
adg

>  <m_score__min__energy>  (66) 
-14.380000000000001

>  <m_primary>  (66) 
energy

$$$$
67:0
     RDKit          3D

 36 37  0  0  0  0  0  0  0  0999 V2000
   61.1800   33.8364   45.0661 H   0  0  0  0  0  0  0  0  0  0  0  0
   61.2480   33.8440   46.1640 C   0  0  0  0  0  0  0  0  0  0  0  0
   62.4260   33.4260   46.7920 C   0  0  0  0  0  0  0  0  0  0  0  0
   63.2812   33.0933   46.1854 H   0  0  0  0  0  0  0  0  0  0  0  0
   62.5220   33.4290   48.1910 C   0  0  0  0  0  0  0  0  0  0  0  0
   63.7710   32.9430   48.8640 C   0  0  0  0  0  0  0  0  0  0  0  0
   63.6426   32.9929   49.9553 H   0  0  0  0  0  0  0  0  0  0  0  0
   63.9675   31.9028   48.5651 H   0  0  0  0  0  0  0  0  0  0  0  0
   64.6189   33.5768   48.5651 H   0  0  0  0  0  0  0  0  0  0  0  0
   61.4110   33.8160   48.9560 C   0  0  0  0  0  0  0  0  0  0  0  0
   61.4667   33.7905   50.0543 H   0  0  0  0  0  0  0  0  0  0  0  0
   60.2330   34.2340   48.3280 C   0  0  0  0  0  0  0  0  0  0  0  0
   59.3663   34.5332   48.9357 H   0  0  0  0  0  0  0  0  0  0  0  0
   60.1500   34.2740   46.9310 C   0  0  0  0  0  0  0  0  0  0  0  0
   58.9180   34.6870   46.3240 N   0  0  0  0  0  0  0  0  0  0  0  0
   57.9990   33.8340   45.6340 C   0  0  0  0  0  0  0  0  0  0  0  0
   56.7800   34.1500   45.5990 O   0  0  0  0  0  0  0  0  0  0  0  0
   58.4750   32.7360   44.8470 N   0  0  0  0  0  0  0  0  0  0  0  0
   57.8630   31.6380   44.4910 C   0  0  0  0  0  0  0  0  0  0  0  0
   57.3520   31.5940   43.1880 C   0  0  0  0  0  0  0  0  0  0  0  0
   57.5191   32.4408   42.5061 H   0  0  0  0  0  0  0  0  0  0  0  0
   56.6340   30.4850   42.7510 C   0  0  0  0  0  0  0  0  0  0  0  0
   56.2146   30.4699   41.7342 H   0  0  0  0  0  0  0  0  0  0  0  0
   56.4490   29.4220   43.5740 N   0  0  0  0  0  0  0  0  0  0  0  0
   55.8980   28.6060   43.2270 H   0  0  0  0  0  0  0  0  0  0  0  0
   56.9860   29.3880   44.8240 C   0  0  0  0  0  0  0  0  0  0  0  0
   56.8100   28.2470   45.6120 O   0  0  0  0  0  0  0  0  0  0  0  0
   57.6480   27.1000   45.4860 C   0  0  0  0  0  0  0  0  0  0  0  0
   57.0741   26.2036   45.7637 H   0  0  0  0  0  0  0  0  0  0  0  0
   58.5147   27.2260   46.1515 H   0  0  0  0  0  0  0  0  0  0  0  0
   58.1540   26.9440   44.0570 C   0  0  0  0  0  0  0  0  0  0  0  0
   59.2051   26.6200   44.0735 H   0  0  0  0  0  0  0  0  0  0  0  0
   57.5465   26.1914   43.5330 H   0  0  0  0  0  0  0  0  0  0  0  0
   58.0757   27.9080   43.5330 H   0  0  0  0  0  0  0  0  0  0  0  0
   57.7090   30.4900   45.3200 C   0  0  0  0  0  0  0  0  0  0  0  0
   58.5110   30.2810   46.8800 Cl  0  0  0  0  0  0  0  0  0  0  0  0
  1  2  1  0
  2  3  2  0
  3  4  1  0
  3  5  1  0
  5  6  1  0
  6  7  1  0
  6  8  1  0
  6  9  1  0
  5 10  2  0
 10 11  1  0
 10 12  1  0
 12 13  1  0
 12 14  2  0
 14 15  1  0
 15 16  1  0
 16 17  2  0
 16 18  1  0
 18 19  2  0
 19 20  1  0
 20 21  1  0
 20 22  2  0
 22 23  1  0
 22 24  1  0
 24 25  1  0
 24 26  1  0
 26 27  1  0
 27 28  1  0
 28 29  1  0
 28 30  1  0
 28 31  1  0
 31 32  1  0
 31 33  1  0
 31 34  1  0
 26 35  2  0
 35 36  1  0
 14  2  1  0
 35 19  1  0
M  CHG  1  15  -1
M  END
>  <UniqueID>  (67) 
63

>  <SMILES>  (67) 
CCOc1[nH]cc/c(=N/C(=O)[N-]c2ccc(C)cc2)c1Cl

>  <Energy>  (67) 
58.50227804834709

>  <Genealogy>  (67) 
CCOc1[nH]ccc(=NC(=O)[N-]c2ccc(C)cc2)c1Cl (protonated)
CCOc1[nH]cc/c(=N/C(=O)[N-]c2ccc(C)cc2)c1Cl (cis-trans isomerization)
CCOc1[nH]cc/c(=N/C(=O)[N-]c2ccc(C)cc2)c1Cl (3D coordinates assigned)
CCOc1[nH]cc/c(=N/C(=O)[N-]c2ccc(C)cc2)c1Cl (optimized conformer: 58.50227804834709 kcal/mol)

>  <smiles>  (67) 
CCOc1[nH]ccc(=NC(=O)Nc2ccc(C)cc2)c1Cl

>  <score_type>  (67) 
oracle

>  <origin>  (67) 
adg

>  <m_score__min__energy>  (67) 
-8.1400000000000006

>  <m_primary>  (67) 
energy

$$$$
68:0
     RDKit          3D

 49 51  0  0  1  0  0  0  0  0999 V2000
   67.5280   33.5030   50.5080 C   0  0  0  0  0  0  0  0  0  0  0  0
   66.6470   32.6090   50.1460 C   0  0  0  0  0  0  0  0  0  0  0  0
   65.1990   32.8770   50.0400 C   0  0  0  0  0  0  0  0  0  0  0  0
   64.5630   32.9180   51.1000 O   0  0  0  0  0  0  0  0  0  0  0  0
   64.5630   33.0760   48.7990 N   0  0  0  0  0  0  0  0  0  0  0  0
   63.2010   33.3360   48.5770 C   0  0  0  0  0  0  0  0  0  0  0  0
   62.3630   34.0250   49.4170 C   0  0  0  0  0  0  0  0  0  0  0  0
   58.8620   29.4470   44.8760 C   0  0  0  0  0  0  0  0  0  0  0  0
   57.5010   29.6040   45.0710 C   0  0  0  0  0  0  0  0  0  0  0  0
   59.1040   33.9430   47.5860 N   0  0  0  0  0  0  0  0  0  0  0  0
   58.7620   33.5190   46.4160 C   0  0  0  0  0  0  0  0  0  0  0  0
   59.1680   34.2190   45.3490 N   0  0  0  0  0  0  0  0  0  0  0  0
   58.8510   33.8400   44.0920 C   0  0  0  0  0  0  0  0  0  0  0  0
   58.0840   32.6990   43.8800 C   0  0  0  0  0  0  0  0  0  0  0  0
   57.6010   32.1070   42.1410 Br  0  0  0  0  0  0  0  0  0  0  0  0
   57.6680   31.9810   44.9850 C   0  0  0  0  0  0  0  0  0  0  0  0
   56.9480   30.9040   44.8710 N   0  0  0  0  0  0  0  0  0  0  0  0
   60.4620   33.7680   47.9620 C   0  0  0  0  0  0  0  0  0  0  0  0
   61.2870   33.0720   47.1030 C   0  0  0  0  0  0  0  0  0  0  0  0
   59.4570   28.2140   45.0530 C   0  0  0  0  0  0  0  0  0  0  0  0
   58.6530   27.1370   45.4320 C   0  0  0  0  0  0  0  0  0  0  0  0
   57.2950   27.2760   45.6300 C   0  0  0  0  0  0  0  0  0  0  0  0
   56.4270   26.1730   46.0260 C   0  0  0  0  0  0  0  0  0  0  0  0
   55.1540   26.2980   46.0230 O   0  0  0  0  0  0  0  0  0  0  0  0
   56.9150   24.9050   46.4340 N   0  0  0  0  0  0  0  0  0  0  0  0
   56.0340   23.8220   46.8240 C   0  0  0  0  0  0  0  0  0  0  0  0
   56.7310   28.5170   45.4460 C   0  0  0  0  0  0  0  0  0  0  0  0
   58.0190   32.4150   46.2150 N   0  0  0  0  0  0  0  0  0  0  0  0
   61.0110   34.2410   49.1210 C   0  0  0  0  0  0  0  0  0  0  0  0
   62.6160   32.8620   47.4000 C   0  0  0  0  0  0  0  0  0  0  0  0
   68.5930   33.2338   50.5657 H   0  0  0  0  0  0  0  0  0  0  0  0
   67.2049   34.5250   50.7552 H   0  0  0  0  0  0  0  0  0  0  0  0
   67.0051   31.5970   49.9060 H   0  0  0  0  0  0  0  0  0  0  0  0
   65.1840   33.0220   47.9490 H   0  0  0  0  0  0  0  0  0  0  0  0
   62.7684   34.4230   50.3589 H   0  0  0  0  0  0  0  0  0  0  0  0
   59.4741   30.3109   44.5778 H   0  0  0  0  0  0  0  0  0  0  0  0
   59.7500   35.0880   45.4840 H   0  0  0  0  0  0  0  0  0  0  0  0
   59.1998   34.4344   43.2347 H   0  0  0  0  0  0  0  0  0  0  0  0
   60.8758   32.6769   46.1624 H   0  0  0  0  0  0  0  0  0  0  0  0
   60.5383   28.0830   44.8992 H   0  0  0  0  0  0  0  0  0  0  0  0
   59.1158   26.1496   45.5768 H   0  0  0  0  0  0  0  0  0  0  0  0
   57.9420   24.7250   46.4630 H   0  0  0  0  0  0  0  0  0  0  0  0
   55.9872   23.7645   47.9215 H   0  0  0  0  0  0  0  0  0  0  0  0
   55.0264   24.0066   46.4232 H   0  0  0  0  0  0  0  0  0  0  0  0
   56.4198   22.8730   46.4232 H   0  0  0  0  0  0  0  0  0  0  0  0
   55.6496   28.6476   45.5995 H   0  0  0  0  0  0  0  0  0  0  0  0
   57.6930   31.8560   47.0290 H   0  0  0  0  0  0  0  0  0  0  0  0
   60.3826   34.7988   49.8309 H   0  0  0  0  0  0  0  0  0  0  0  0
   63.2377   32.3020   46.6860 H   0  0  0  0  0  0  0  0  0  0  0  0
  1  2  2  0
  2  3  1  0
  3  4  2  0
  3  5  1  0
  5  6  1  0
  6  7  2  0
  7  8  1  0
  8  9  2  0
  9 10  1  0
 10 11  2  0
 11 12  1  0
 12 13  1  0
 13 14  2  0
 14 15  1  0
 14 16  1  0
 16 17  2  0
 17 18  1  0
 18 19  2  0
 19 20  1  0
 20 21  2  0
 21 22  1  0
 22 23  1  0
 23 24  2  0
 23 25  1  0
 25 26  1  0
 22 27  2  0
 16 28  1  0
  9 29  1  0
 29 30  2  0
 30  6  1  0
 28 11  1  0
 27 18  1  0
  1 31  1  0
  1 32  1  0
  2 33  1  0
  5 34  1  0
  7 35  1  0
  8 36  1  0
 12 37  1  0
 13 38  1  0
 19 39  1  0
 20 40  1  0
 21 41  1  0
 25 42  1  0
 26 43  1  0
 26 44  1  0
 26 45  1  0
 27 46  1  0
 28 47  1  0
 29 48  1  0
 30 49  1  0
M  END
>  <smiles>  (68) 
C=CC(=O)Nc1ccc(N=c2[nH]cc(Br)c(=Nc3cccc(C(=O)NC)c3)[nH]2)cc1

>  <score_type>  (68) 
oracle

>  <origin>  (68) 
adg

>  <m_score__min__energy>  (68) 
-9.9199999999999999

>  <m_primary>  (68) 
energy

$$$$
69:0
     RDKit          3D

 44 47  0  0  0  0  0  0  0  0999 V2000
   61.1280   30.1270   48.3580 C   0  0  0  0  0  0  0  0  0  0  0  0
   61.6450   31.4320   47.8290 C   0  0  0  0  0  0  0  0  0  0  0  0
   63.0130   31.5980   47.5690 C   0  0  0  0  0  0  0  0  0  0  0  0
   63.4870   32.8000   47.0420 C   0  0  0  0  0  0  0  0  0  0  0  0
   62.6000   33.8430   46.7590 C   0  0  0  0  0  0  0  0  0  0  0  0
   61.2220   33.6860   47.0010 C   0  0  0  0  0  0  0  0  0  0  0  0
   60.2860   34.6980   46.7330 O   0  0  0  0  0  0  0  0  0  0  0  0
   58.8690   34.5230   46.7060 C   0  0  0  0  0  0  0  0  0  0  0  0
   58.4710   33.5850   45.6090 C   0  0  0  0  0  0  0  0  0  0  0  0
   57.8260   32.3680   45.7790 C   0  0  0  0  0  0  0  0  0  0  0  0
   57.7030   31.8880   44.4900 C   0  0  0  0  0  0  0  0  0  0  0  0
   58.2130   32.7860   43.6360 N   0  0  0  0  0  0  0  0  0  0  0  0
   58.7050   33.8180   44.2990 N   0  0  0  0  0  0  0  0  0  0  0  0
   58.2160   32.6290   42.1880 C   0  0  0  0  0  0  0  0  0  0  0  0
   57.0210   31.7600   41.7670 C   0  0  0  0  0  0  0  0  0  0  0  0
   56.9640   30.4530   42.5820 C   0  0  0  0  0  0  0  0  0  0  0  0
   57.0330   30.6970   44.0350 N   0  0  0  0  0  0  0  0  0  0  0  0
   56.6360   29.6440   44.9320 C   0  0  0  0  0  0  0  0  0  0  0  0
   55.4100   29.3710   45.0550 O   0  0  0  0  0  0  0  0  0  0  0  0
   57.6740   28.8330   45.6700 C   0  0  0  0  0  0  0  0  0  0  0  0
   58.4460   27.8510   44.8010 C   0  0  0  0  0  0  0  0  0  0  0  0
   59.1350   29.1010   45.3250 C   0  0  0  0  0  0  0  0  0  0  0  0
   60.7550   32.4740   47.5260 C   0  0  0  0  0  0  0  0  0  0  0  0
   61.1363   30.1480   49.4578 H   0  0  0  0  0  0  0  0  0  0  0  0
   60.0993   29.9688   48.0021 H   0  0  0  0  0  0  0  0  0  0  0  0
   61.7693   29.3072   48.0021 H   0  0  0  0  0  0  0  0  0  0  0  0
   63.7148   30.7779   47.7812 H   0  0  0  0  0  0  0  0  0  0  0  0
   64.5623   32.9274   46.8485 H   0  0  0  0  0  0  0  0  0  0  0  0
   62.9799   34.7891   46.3460 H   0  0  0  0  0  0  0  0  0  0  0  0
   58.5378   34.1112   47.6707 H   0  0  0  0  0  0  0  0  0  0  0  0
   58.3961   35.4994   46.5245 H   0  0  0  0  0  0  0  0  0  0  0  0
   57.4926   31.8982   46.7161 H   0  0  0  0  0  0  0  0  0  0  0  0
   58.1372   33.6173   41.7114 H   0  0  0  0  0  0  0  0  0  0  0  0
   59.1520   32.1447   41.8726 H   0  0  0  0  0  0  0  0  0  0  0  0
   56.0916   32.3252   41.9308 H   0  0  0  0  0  0  0  0  0  0  0  0
   57.1372   31.5015   40.7041 H   0  0  0  0  0  0  0  0  0  0  0  0
   56.0207   29.9349   42.3545 H   0  0  0  0  0  0  0  0  0  0  0  0
   57.8349   29.8425   42.3011 H   0  0  0  0  0  0  0  0  0  0  0  0
   57.1052   28.7836   46.6103 H   0  0  0  0  0  0  0  0  0  0  0  0
   58.7217   26.8635   45.1996 H   0  0  0  0  0  0  0  0  0  0  0  0
   58.2931   27.4075   43.8061 H   0  0  0  0  0  0  0  0  0  0  0  0
   59.9082   29.0178   46.1030 H   0  0  0  0  0  0  0  0  0  0  0  0
   59.6859   29.9358   44.8671 H   0  0  0  0  0  0  0  0  0  0  0  0
   59.6779   32.3374   47.7028 H   0  0  0  0  0  0  0  0  0  0  0  0
  1  2  1  0
  2  3  2  0
  3  4  1  0
  4  5  2  0
  5  6  1  0
  6  7  1  0
  7  8  1  0
  8  9  1  0
  9 10  1  0
 10 11  2  0
 11 12  1  0
 12 13  1  0
 12 14  1  0
 14 15  1  0
 15 16  1  0
 16 17  1  0
 17 18  1  0
 18 19  2  0
 18 20  1  0
 20 21  1  0
 21 22  1  0
  6 23  2  0
 23  2  1  0
 13  9  2  0
 22 20  1  0
 17 11  1  0
  1 24  1  0
  1 25  1  0
  1 26  1  0
  3 27  1  0
  4 28  1  0
  5 29  1  0
  8 30  1  0
  8 31  1  0
 10 32  1  0
 14 33  1  0
 14 34  1  0
 15 35  1  0
 15 36  1  0
 16 37  1  0
 16 38  1  0
 20 39  1  0
 21 40  1  0
 21 41  1  0
 22 42  1  0
 22 43  1  0
 23 44  1  0
M  END
>  <UniqueID>  (69) 
64

>  <SMILES>  (69) 
Cc1cccc(OCc2cc3n(n2)CCCN3C(=O)C2CC2)c1

>  <Energy>  (69) 
344.1872281248249

>  <Genealogy>  (69) 
Cc1cccc(OCc2cc3n(n2)CCCN3C(=O)C2CC2)c1 (3D coordinates assigned)
Cc1cccc(OCc2cc3n(n2)CCCN3C(=O)C2CC2)c1 (nonaromatic ring conformer: 344.1872281248249 kcal/mol)

>  <smiles>  (69) 
Cc1cccc(OCc2cc3n(n2)CCCN3C(=O)C2CC2)c1

>  <score_type>  (69) 
oracle

>  <origin>  (69) 
adg

>  <m_score__min__energy>  (69) 
-8.1500000000000004

>  <m_primary>  (69) 
energy

$$$$
70:0
     RDKit          3D

 62 65  0  0  0  0  0  0  0  0999 V2000
   55.1480   29.3040   44.7890 N   0  0  0  0  0  0  0  0  0  0  0  0
   56.7730   29.8460   44.5700 S   0  0  0  0  0  0  0  0  0  0  0  0
   57.1870   29.6350   43.1410 O   0  0  0  0  0  0  0  0  0  0  0  0
   56.8620   31.3130   44.8870 O   0  0  0  0  0  0  0  0  0  0  0  0
   57.8380   28.9380   45.6370 C   0  0  0  0  0  0  0  0  0  0  0  0
   57.3840   27.7670   46.2590 C   0  0  0  0  0  0  0  0  0  0  0  0
   58.2380   27.0380   47.0910 C   0  0  0  0  0  0  0  0  0  0  0  0
   59.5490   27.4730   47.3200 C   0  0  0  0  0  0  0  0  0  0  0  0
   60.4110   26.6690   48.1370 N   0  0  0  0  0  0  0  0  0  0  0  0
   60.7480   26.9340   49.5040 C   0  0  0  0  0  0  0  0  0  0  0  0
   61.0240   25.9900   50.2920 O   0  0  0  0  0  0  0  0  0  0  0  0
   60.8000   28.3490   49.9900 C   0  0  0  0  0  0  0  0  0  0  0  0
   59.5450   29.0400   49.6900 N   0  0  0  0  0  0  0  0  0  0  0  0
   59.3720   30.4760   49.7220 C   0  0  0  0  0  0  0  0  0  0  0  0
   59.9880   31.3070   48.7640 C   0  0  0  0  0  0  0  0  0  0  0  0
   59.7710   32.6900   48.7630 C   0  0  0  0  0  0  0  0  0  0  0  0
   60.5390   33.7060   47.5380 S   0  0  0  0  0  0  0  0  0  0  0  0
   60.3870   33.0570   46.1900 O   0  0  0  0  0  0  0  0  0  0  0  0
   59.8430   35.0380   47.4930 O   0  0  0  0  0  0  0  0  0  0  0  0
   62.2370   33.9520   47.8770 N   0  0  0  0  0  0  0  0  0  0  0  0
   63.0960   33.0790   47.0460 C   0  0  0  0  0  0  0  0  0  0  0  0
   63.6710   31.9000   47.8510 C   0  0  0  0  0  0  0  0  0  0  0  0
   64.4430   32.3080   48.9720 O   0  0  0  0  0  0  0  0  0  0  0  0
   63.9850   33.5120   49.5780 C   0  0  0  0  0  0  0  0  0  0  0  0
   62.5000   33.8140   49.3230 C   0  0  0  0  0  0  0  0  0  0  0  0
   58.9370   33.2580   49.7310 C   0  0  0  0  0  0  0  0  0  0  0  0
   58.3350   32.4540   50.6970 C   0  0  0  0  0  0  0  0  0  0  0  0
   58.5490   31.0700   50.7050 C   0  0  0  0  0  0  0  0  0  0  0  0
   57.9340   30.2760   51.7260 N   0  0  0  0  0  0  0  0  0  0  0  0
   56.5490   30.4340   52.1250 C   0  0  0  0  0  0  0  0  0  0  0  0
   56.4090   29.6400   53.4180 C   0  0  0  0  0  0  0  0  0  0  0  0
   57.6450   28.7450   53.5000 C   0  0  0  0  0  0  0  0  0  0  0  0
   58.6820   29.3810   52.5850 C   0  0  0  0  0  0  0  0  0  0  0  0
   60.0110   28.6330   46.6740 C   0  0  0  0  0  0  0  0  0  0  0  0
   59.1570   29.3620   45.8410 C   0  0  0  0  0  0  0  0  0  0  0  0
   55.1430   28.6800   45.6270 H   0  0  0  0  0  0  0  0  0  0  0  0
   56.3533   27.4210   46.0919 H   0  0  0  0  0  0  0  0  0  0  0  0
   57.8775   26.1155   47.5696 H   0  0  0  0  0  0  0  0  0  0  0  0
   60.9642   28.3525   51.0777 H   0  0  0  0  0  0  0  0  0  0  0  0
   61.6239   28.8703   49.4807 H   0  0  0  0  0  0  0  0  0  0  0  0
   58.7390   28.4350   49.4170 H   0  0  0  0  0  0  0  0  0  0  0  0
   60.6491   30.8619   48.0059 H   0  0  0  0  0  0  0  0  0  0  0  0
   62.4978   32.6817   46.2127 H   0  0  0  0  0  0  0  0  0  0  0  0
   63.9391   33.6826   46.6787 H   0  0  0  0  0  0  0  0  0  0  0  0
   62.8351   31.2813   48.2094 H   0  0  0  0  0  0  0  0  0  0  0  0
   64.3409   31.3430   47.1795 H   0  0  0  0  0  0  0  0  0  0  0  0
   64.1406   33.4336   50.6641 H   0  0  0  0  0  0  0  0  0  0  0  0
   64.5593   34.3343   49.1263 H   0  0  0  0  0  0  0  0  0  0  0  0
   61.8900   32.9912   49.7242 H   0  0  0  0  0  0  0  0  0  0  0  0
   62.2404   34.7595   49.8217 H   0  0  0  0  0  0  0  0  0  0  0  0
   58.7555   34.3429   49.7300 H   0  0  0  0  0  0  0  0  0  0  0  0
   57.6864   32.9101   51.4594 H   0  0  0  0  0  0  0  0  0  0  0  0
   56.3166   31.4952   52.2976 H   0  0  0  0  0  0  0  0  0  0  0  0
   55.8558   30.0782   51.3486 H   0  0  0  0  0  0  0  0  0  0  0  0
   56.3718   30.3201   54.2818 H   0  0  0  0  0  0  0  0  0  0  0  0
   55.4820   29.0479   53.4283 H   0  0  0  0  0  0  0  0  0  0  0  0
   58.0200   28.7043   54.5333 H   0  0  0  0  0  0  0  0  0  0  0  0
   57.4170   27.7127   53.1960 H   0  0  0  0  0  0  0  0  0  0  0  0
   59.4235   29.9414   53.1734 H   0  0  0  0  0  0  0  0  0  0  0  0
   59.2382   28.6274   52.0082 H   0  0  0  0  0  0  0  0  0  0  0  0
   61.0478   28.9682   46.8244 H   0  0  0  0  0  0  0  0  0  0  0  0
   59.5227   30.2725   45.3437 H   0  0  0  0  0  0  0  0  0  0  0  0
  1  2  1  0
  2  3  2  0
  2  4  2  0
  2  5  1  0
  5  6  2  0
  6  7  1  0
  7  8  2  0
  8  9  1  0
  9 10  1  0
 10 11  2  0
 10 12  1  0
 12 13  1  0
 13 14  1  0
 14 15  2  0
 15 16  1  0
 16 17  1  0
 17 18  2  0
 17 19  2  0
 17 20  1  0
 20 21  1  0
 21 22  1  0
 22 23  1  0
 23 24  1  0
 24 25  1  0
 16 26  2  0
 26 27  1  0
 27 28  2  0
 28 29  1  0
 29 30  1  0
 30 31  1  0
 31 32  1  0
 32 33  1  0
  8 34  1  0
 34 35  2  0
 35  5  1  0
 28 14  1  0
 33 29  1  0
 25 20  1  0
  1 36  1  0
  6 37  1  0
  7 38  1  0
 12 39  1  0
 12 40  1  0
 13 41  1  0
 15 42  1  0
 21 43  1  0
 21 44  1  0
 22 45  1  0
 22 46  1  0
 24 47  1  0
 24 48  1  0
 25 49  1  0
 25 50  1  0
 26 51  1  0
 27 52  1  0
 30 53  1  0
 30 54  1  0
 31 55  1  0
 31 56  1  0
 32 57  1  0
 32 58  1  0
 33 59  1  0
 33 60  1  0
 34 61  1  0
 35 62  1  0
M  CHG  2   1  -1   9  -1
M  END
>  <UniqueID>  (70) 
65

>  <SMILES>  (70) 
[NH-]S(=O)(=O)c1ccc([N-]C(=O)CNc2cc(S(=O)(=O)N3CCOCC3)ccc2N2CCCC2)cc1

>  <Energy>  (70) 
81.89529472941129

>  <Genealogy>  (70) 
[NH-]S(=O)(=O)c1ccc([N-]C(=O)CNc2cc(S(=O)(=O)N3CCOCC3)ccc2N2CCCC2)cc1 (protonated)
[NH-]S(=O)(=O)c1ccc([N-]C(=O)CNc2cc(S(=O)(=O)N3CCOCC3)ccc2N2CCCC2)cc1 (3D coordinates assigned)
[NH-]S(=O)(=O)c1ccc([N-]C(=O)CNc2cc(S(=O)(=O)N3CCOCC3)ccc2N2CCCC2)cc1 (nonaromatic ring conformer: 81.89529472941129 kcal/mol)

>  <smiles>  (70) 
NS(=O)(=O)c1ccc(NC(=O)CNc2cc(S(=O)(=O)N3CCOCC3)ccc2N2CCCC2)cc1

>  <score_type>  (70) 
oracle

>  <origin>  (70) 
adg

>  <m_score__min__energy>  (70) 
-13.02

>  <m_primary>  (70) 
energy

$$$$
71:0
     RDKit          3D

 52 55  0  0  0  0  0  0  0  0999 V2000
   55.1530   29.1450   44.5440 O   0  0  0  0  0  0  0  0  0  0  0  0
   56.2460   29.7490   44.7090 C   0  0  0  0  0  0  0  0  0  0  0  0
   56.2740   31.1740   44.5390 N   0  0  0  0  0  0  0  0  0  0  0  0
   57.2950   32.0630   45.0150 C   0  0  0  0  0  0  0  0  0  0  0  0
   57.7780   33.0590   44.1580 C   0  0  0  0  0  0  0  0  0  0  0  0
   58.7650   33.9480   44.5930 C   0  0  0  0  0  0  0  0  0  0  0  0
   59.2790   33.8550   45.8960 C   0  0  0  0  0  0  0  0  0  0  0  0
   60.3130   34.8360   46.3760 C   0  0  0  0  0  0  0  0  0  0  0  0
   61.3070   34.1450   47.2720 C   0  0  0  0  0  0  0  0  0  0  0  0
   62.4170   33.4850   46.7220 C   0  0  0  0  0  0  0  0  0  0  0  0
   63.3600   32.8760   47.5550 C   0  0  0  0  0  0  0  0  0  0  0  0
   63.2110   32.9290   48.9530 C   0  0  0  0  0  0  0  0  0  0  0  0
   64.1560   32.3210   49.8440 N   0  0  0  0  0  0  0  0  0  0  0  0
   63.7500   31.4150   51.2640 S   0  0  0  0  0  0  0  0  0  0  0  0
   64.9700   30.7130   51.7930 O   0  0  0  0  0  0  0  0  0  0  0  0
   63.2090   32.3420   52.3150 O   0  0  0  0  0  0  0  0  0  0  0  0
   62.5380   30.2110   50.8390 C   0  0  0  0  0  0  0  0  0  0  0  0
   62.5080   28.9880   51.5230 C   0  0  0  0  0  0  0  0  0  0  0  0
   61.5550   28.0200   51.1930 C   0  0  0  0  0  0  0  0  0  0  0  0
   60.6280   28.2680   50.1760 C   0  0  0  0  0  0  0  0  0  0  0  0
   60.6540   29.4860   49.4870 C   0  0  0  0  0  0  0  0  0  0  0  0
   59.4920   29.7960   48.2090 Cl  0  0  0  0  0  0  0  0  0  0  0  0
   61.6080   30.4570   49.8170 C   0  0  0  0  0  0  0  0  0  0  0  0
   62.1090   33.5990   49.4980 C   0  0  0  0  0  0  0  0  0  0  0  0
   61.1660   34.2070   48.6670 C   0  0  0  0  0  0  0  0  0  0  0  0
   58.7690   32.8800   46.7670 C   0  0  0  0  0  0  0  0  0  0  0  0
   57.7810   31.9910   46.3320 C   0  0  0  0  0  0  0  0  0  0  0  0
   57.4670   28.9690   45.0210 C   0  0  0  0  0  0  0  0  0  0  0  0
   58.7080   29.3620   44.4920 C   0  0  0  0  0  0  0  0  0  0  0  0
   59.8640   28.6300   44.7810 C   0  0  0  0  0  0  0  0  0  0  0  0
   59.7930   27.5060   45.6070 C   0  0  0  0  0  0  0  0  0  0  0  0
   58.5670   27.1150   46.1530 C   0  0  0  0  0  0  0  0  0  0  0  0
   58.4800   25.7100   47.2000 Cl  0  0  0  0  0  0  0  0  0  0  0  0
   57.4100   27.8470   45.8680 C   0  0  0  0  0  0  0  0  0  0  0  0
   57.3785   33.1425   43.1365 H   0  0  0  0  0  0  0  0  0  0  0  0
   59.1410   34.7246   43.9107 H   0  0  0  0  0  0  0  0  0  0  0  0
   60.8396   35.2624   45.5095 H   0  0  0  0  0  0  0  0  0  0  0  0
   59.8140   35.6362   46.9423 H   0  0  0  0  0  0  0  0  0  0  0  0
   62.5454   33.4468   45.6302 H   0  0  0  0  0  0  0  0  0  0  0  0
   64.2223   32.3531   47.1156 H   0  0  0  0  0  0  0  0  0  0  0  0
   63.2370   28.7892   52.3224 H   0  0  0  0  0  0  0  0  0  0  0  0
   61.5343   27.0624   51.7339 H   0  0  0  0  0  0  0  0  0  0  0  0
   59.8782   27.5058   49.9174 H   0  0  0  0  0  0  0  0  0  0  0  0
   61.6284   31.4137   49.2744 H   0  0  0  0  0  0  0  0  0  0  0  0
   61.9851   33.6468   50.5900 H   0  0  0  0  0  0  0  0  0  0  0  0
   60.3087   34.7370   49.1076 H   0  0  0  0  0  0  0  0  0  0  0  0
   59.1484   32.8147   47.7974 H   0  0  0  0  0  0  0  0  0  0  0  0
   57.3829   31.2330   47.0226 H   0  0  0  0  0  0  0  0  0  0  0  0
   58.7706   30.2507   43.8468 H   0  0  0  0  0  0  0  0  0  0  0  0
   60.8306   28.9399   44.3572 H   0  0  0  0  0  0  0  0  0  0  0  0
   60.7024   26.9280   45.8280 H   0  0  0  0  0  0  0  0  0  0  0  0
   56.4490   27.5436   46.3089 H   0  0  0  0  0  0  0  0  0  0  0  0
  1  2  2  0
  2  3  1  0
  3  4  1  0
  4  5  2  0
  5  6  1  0
  6  7  2  0
  7  8  1  0
  8  9  1  0
  9 10  2  0
 10 11  1  0
 11 12  2  0
 12 13  1  0
 13 14  1  0
 14 15  2  0
 14 16  2  0
 14 17  1  0
 17 18  2  0
 18 19  1  0
 19 20  2  0
 20 21  1  0
 21 22  1  0
 21 23  2  0
 12 24  1  0
 24 25  2  0
  7 26  1  0
 26 27  2  0
  2 28  1  0
 28 29  2  0
 29 30  1  0
 30 31  2  0
 31 32  1  0
 32 33  1  0
 32 34  2  0
 27  4  1  0
 34 28  1  0
 25  9  1  0
 23 17  1  0
  5 35  1  0
  6 36  1  0
  8 37  1  0
  8 38  1  0
 10 39  1  0
 11 40  1  0
 18 41  1  0
 19 42  1  0
 20 43  1  0
 23 44  1  0
 24 45  1  0
 25 46  1  0
 26 47  1  0
 27 48  1  0
 29 49  1  0
 30 50  1  0
 31 51  1  0
 34 52  1  0
M  CHG  2   3  -1  13  -1
M  END
>  <UniqueID>  (71) 
66

>  <SMILES>  (71) 
O=C([N-]c1ccc(Cc2ccc([N-]S(=O)(=O)c3cccc(Cl)c3)cc2)cc1)c1cccc(Cl)c1

>  <Energy>  (71) 
66.07816248865316

>  <Genealogy>  (71) 
O=C([N-]c1ccc(Cc2ccc([N-]S(=O)(=O)c3cccc(Cl)c3)cc2)cc1)c1cccc(Cl)c1 (protonated)
O=C([N-]c1ccc(Cc2ccc([N-]S(=O)(=O)c3cccc(Cl)c3)cc2)cc1)c1cccc(Cl)c1 (3D coordinates assigned)
O=C([N-]c1ccc(Cc2ccc([N-]S(=O)(=O)c3cccc(Cl)c3)cc2)cc1)c1cccc(Cl)c1 (optimized conformer: 66.07816248865316 kcal/mol)

>  <smiles>  (71) 
O=C(Nc1ccc(Cc2ccc(NS(=O)(=O)c3cccc(Cl)c3)cc2)cc1)c1cccc(Cl)c1

>  <score_type>  (71) 
oracle

>  <origin>  (71) 
adg

>  <m_score__min__energy>  (71) 
-12.43

>  <m_primary>  (71) 
energy

$$$$
72:0
     RDKit          3D

 62 65  0  0  0  0  0  0  0  0999 V2000
   67.7785   32.1090   49.9774 H   0  0  0  0  0  0  0  0  0  0  0  0
   66.9420   31.7500   50.5950 C   0  0  0  0  0  0  0  0  0  0  0  0
   65.6270   32.3960   50.3980 C   0  0  0  0  0  0  0  0  0  0  0  0
   65.2430   33.3100   51.1770 O   0  0  0  0  0  0  0  0  0  0  0  0
   64.7810   31.9540   49.3260 N   0  0  0  0  0  0  0  0  0  0  0  0
   65.2090   31.3550   48.5830 H   0  0  0  0  0  0  0  0  0  0  0  0
   63.4350   32.4180   49.1270 C   0  0  0  0  0  0  0  0  0  0  0  0
   63.1550   33.7800   48.9290 C   0  0  0  0  0  0  0  0  0  0  0  0
   63.9761   34.5118   48.9173 H   0  0  0  0  0  0  0  0  0  0  0  0
   61.8390   34.2090   48.7470 C   0  0  0  0  0  0  0  0  0  0  0  0
   61.6292   35.2771   48.5885 H   0  0  0  0  0  0  0  0  0  0  0  0
   60.7870   33.2900   48.7650 C   0  0  0  0  0  0  0  0  0  0  0  0
   59.4820   33.7490   48.5490 O   0  0  0  0  0  0  0  0  0  0  0  0
   58.9090   33.8800   47.2760 C   0  0  0  0  0  0  0  0  0  0  0  0
   59.6070   34.4620   46.1990 C   0  0  0  0  0  0  0  0  0  0  0  0
   60.6287   34.8412   46.3486 H   0  0  0  0  0  0  0  0  0  0  0  0
   59.0050   34.5590   44.9410 C   0  0  0  0  0  0  0  0  0  0  0  0
   59.5542   35.0119   44.1024 H   0  0  0  0  0  0  0  0  0  0  0  0
   57.7060   34.0810   44.7480 C   0  0  0  0  0  0  0  0  0  0  0  0
   57.2356   34.1522   43.7562 H   0  0  0  0  0  0  0  0  0  0  0  0
   57.0050   33.5130   45.8140 C   0  0  0  0  0  0  0  0  0  0  0  0
   55.9824   33.1375   45.6613 H   0  0  0  0  0  0  0  0  0  0  0  0
   57.6020   33.4210   47.0760 C   0  0  0  0  0  0  0  0  0  0  0  0
   57.0409   32.9854   47.9159 H   0  0  0  0  0  0  0  0  0  0  0  0
   61.0500   31.9270   49.0160 C   0  0  0  0  0  0  0  0  0  0  0  0
   59.7330   30.7550   49.1270 S   0  0  0  0  0  0  0  0  0  0  0  0
   59.8680   29.9380   50.3820 O   0  0  0  0  0  0  0  0  0  0  0  0
   58.4300   31.5050   49.1690 O   0  0  0  0  0  0  0  0  0  0  0  0
   59.8070   29.7090   47.7410 N   0  0  0  0  0  0  0  0  0  0  0  0
   58.8240   29.3670   46.9560 C   0  0  0  0  0  0  0  0  0  0  0  0
   58.4380   27.9810   46.9680 N   0  0  0  0  0  0  0  0  0  0  0  0
   58.8660   27.3600   47.6910 H   0  0  0  0  0  0  0  0  0  0  0  0
   57.6490   27.3360   45.9260 C   0  0  0  0  0  0  0  0  0  0  0  0
   56.6061   27.6776   46.0006 H   0  0  0  0  0  0  0  0  0  0  0  0
   57.7075   26.2464   46.0649 H   0  0  0  0  0  0  0  0  0  0  0  0
   58.1920   27.6820   44.5350 C   0  0  0  0  0  0  0  0  0  0  0  0
   57.9471   26.8564   43.8506 H   0  0  0  0  0  0  0  0  0  0  0  0
   59.2770   27.8302   44.6394 H   0  0  0  0  0  0  0  0  0  0  0  0
   57.6130   28.9810   43.9560 C   0  0  0  0  0  0  0  0  0  0  0  0
   56.5438   29.0361   44.2084 H   0  0  0  0  0  0  0  0  0  0  0  0
   57.7658   28.9639   42.8668 H   0  0  0  0  0  0  0  0  0  0  0  0
   58.3170   30.2250   44.5120 C   0  0  0  0  0  0  0  0  0  0  0  0
   57.8911   31.1119   44.0200 H   0  0  0  0  0  0  0  0  0  0  0  0
   59.3906   30.1004   44.3072 H   0  0  0  0  0  0  0  0  0  0  0  0
   58.1720   30.4010   46.0400 C   0  0  0  0  0  0  0  0  0  0  0  0
   57.0955   30.4030   46.2663 H   0  0  0  0  0  0  0  0  0  0  0  0
   58.7133   31.3337   46.2571 H   0  0  0  0  0  0  0  0  0  0  0  0
   62.3740   31.5030   49.1940 C   0  0  0  0  0  0  0  0  0  0  0  0
   62.5834   30.4408   49.3884 H   0  0  0  0  0  0  0  0  0  0  0  0
   67.1990   30.7610   51.4660 C   0  0  0  0  0  0  0  0  0  0  0  0
   67.5949   31.0458   52.4520 H   0  0  0  0  0  0  0  0  0  0  0  0
   66.9930   29.3210   51.2070 C   0  0  0  0  0  0  0  0  0  0  0  0
   65.9930   28.5950   51.8800 C   0  0  0  0  0  0  0  0  0  0  0  0
   65.3204   29.1092   52.5823 H   0  0  0  0  0  0  0  0  0  0  0  0
   65.8520   27.2200   51.6580 C   0  0  0  0  0  0  0  0  0  0  0  0
   65.0579   26.6593   52.1727 H   0  0  0  0  0  0  0  0  0  0  0  0
   66.7180   26.5590   50.7840 C   0  0  0  0  0  0  0  0  0  0  0  0
   66.6029   25.4793   50.6079 H   0  0  0  0  0  0  0  0  0  0  0  0
   67.7310   27.2690   50.1330 C   0  0  0  0  0  0  0  0  0  0  0  0
   68.4164   26.7464   49.4495 H   0  0  0  0  0  0  0  0  0  0  0  0
   67.8740   28.6440   50.3500 C   0  0  0  0  0  0  0  0  0  0  0  0
   68.6808   29.1967   49.8464 H   0  0  0  0  0  0  0  0  0  0  0  0
  1  2  1  0
  2  3  1  0
  3  4  2  0
  3  5  1  0
  5  6  1  0
  5  7  1  0
  7  8  2  0
  8  9  1  0
  8 10  1  0
 10 11  1  0
 10 12  2  0
 12 13  1  0
 13 14  1  0
 14 15  2  0
 15 16  1  0
 15 17  1  0
 17 18  1  0
 17 19  2  0
 19 20  1  0
 19 21  1  0
 21 22  1  0
 21 23  2  0
 23 24  1  0
 12 25  1  0
 25 26  1  0
 26 27  2  0
 26 28  2  0
 26 29  1  0
 29 30  2  0
 30 31  1  0
 31 32  1  0
 31 33  1  0
 33 34  1  0
 33 35  1  0
 33 36  1  0
 36 37  1  0
 36 38  1  0
 36 39  1  0
 39 40  1  0
 39 41  1  0
 39 42  1  0
 42 43  1  0
 42 44  1  0
 42 45  1  0
 45 46  1  0
 45 47  1  0
 25 48  2  0
 48 49  1  0
  2 50  2  0
 50 51  1  0
 50 52  1  0
 52 53  2  0
 53 54  1  0
 53 55  1  0
 55 56  1  0
 55 57  2  0
 57 58  1  0
 57 59  1  0
 59 60  1  0
 59 61  2  0
 61 62  1  0
 48  7  1  0
 61 52  1  0
 23 14  1  0
 45 30  1  0
M  END
>  <UniqueID>  (72) 
67

>  <SMILES>  (72) 
O=C(/C=C\c1ccccc1)Nc1ccc(Oc2ccccc2)c(S(=O)(=O)/N=C2\CCCCCN2)c1

>  <Energy>  (72) 
91.56049810358198

>  <Genealogy>  (72) 
O=C(/C=C\c1ccccc1)Nc1ccc(Oc2ccccc2)c(S(=O)(=O)/N=C2\CCCCCN2)c1 (cis-trans isomerization)
O=C(/C=C\c1ccccc1)Nc1ccc(Oc2ccccc2)c(S(=O)(=O)/N=C2\CCCCCN2)c1 (3D coordinates assigned)
O=C(/C=C\c1ccccc1)Nc1ccc(Oc2ccccc2)c(S(=O)(=O)/N=C2\CCCCCN2)c1 (nonaromatic ring conformer: 91.56049810358198 kcal/mol)

>  <smiles>  (72) 
O=C(C=Cc1ccccc1)Nc1ccc(Oc2ccccc2)c(S(=O)(=O)N=C2CCCCCN2)c1

>  <score_type>  (72) 
oracle

>  <origin>  (72) 
adg

>  <m_score__min__energy>  (72) 
-7.9199999999999999

>  <m_primary>  (72) 
energy

$$$$
73:0
     RDKit          3D

 32 34  0  0  0  0  0  0  0  0999 V2000
   54.8290   27.0830   46.3810 H   0  0  0  0  0  0  0  0  0  0  0  0
   54.7700   26.2660   45.7340 N   0  0  0  0  0  0  0  0  0  0  0  0
   56.1590   25.2840   46.0340 S   0  0  0  0  0  0  0  0  0  0  0  0
   56.4030   24.3820   44.8560 O   0  0  0  0  0  0  0  0  0  0  0  0
   55.9220   24.4350   47.2510 O   0  0  0  0  0  0  0  0  0  0  0  0
   57.5590   26.3180   46.2930 C   0  0  0  0  0  0  0  0  0  0  0  0
   58.8660   25.7920   46.1410 C   0  0  0  0  0  0  0  0  0  0  0  0
   59.0003   24.7394   45.8512 H   0  0  0  0  0  0  0  0  0  0  0  0
   59.9940   26.6060   46.3580 C   0  0  0  0  0  0  0  0  0  0  0  0
   61.0133   26.2092   46.2417 H   0  0  0  0  0  0  0  0  0  0  0  0
   59.7740   27.9310   46.7250 C   0  0  0  0  0  0  0  0  0  0  0  0
   60.6930   28.8730   46.9860 N   0  0  0  0  0  0  0  0  0  0  0  0
   59.9240   29.9500   47.2870 C   0  0  0  0  0  0  0  0  0  0  0  0
   60.4520   31.0860   47.6370 N   0  0  0  0  0  0  0  0  0  0  0  0
   60.0770   32.3900   47.1550 C   0  0  0  0  0  0  0  0  0  0  0  0
   58.7320   32.7110   46.8820 C   0  0  0  0  0  0  0  0  0  0  0  0
   57.9452   31.9632   47.0603 H   0  0  0  0  0  0  0  0  0  0  0  0
   58.3910   33.9710   46.3870 C   0  0  0  0  0  0  0  0  0  0  0  0
   57.3371   34.2168   46.1898 H   0  0  0  0  0  0  0  0  0  0  0  0
   59.3850   34.9190   46.1420 C   0  0  0  0  0  0  0  0  0  0  0  0
   59.1128   35.9143   45.7608 H   0  0  0  0  0  0  0  0  0  0  0  0
   60.7250   34.6060   46.3800 C   0  0  0  0  0  0  0  0  0  0  0  0
   61.5055   35.3543   46.1779 H   0  0  0  0  0  0  0  0  0  0  0  0
   61.0820   33.3410   46.8760 C   0  0  0  0  0  0  0  0  0  0  0  0
   62.5290   33.0150   47.1270 C   0  0  0  0  0  0  0  0  0  0  0  0
   62.7129   32.9736   48.2107 H   0  0  0  0  0  0  0  0  0  0  0  0
   62.7687   32.0403   46.6769 H   0  0  0  0  0  0  0  0  0  0  0  0
   63.1635   33.7927   46.6769 H   0  0  0  0  0  0  0  0  0  0  0  0
   58.5830   29.7260   47.2430 N   0  0  0  0  0  0  0  0  0  0  0  0
   58.5220   28.4380   46.8780 C   0  0  0  0  0  0  0  0  0  0  0  0
   57.3810   27.6640   46.6740 C   0  0  0  0  0  0  0  0  0  0  0  0
   56.3750   28.0890   46.8058 H   0  0  0  0  0  0  0  0  0  0  0  0
  1  2  1  0
  2  3  1  0
  3  4  2  0
  3  5  2  0
  3  6  1  0
  6  7  2  0
  7  8  1  0
  7  9  1  0
  9 10  1  0
  9 11  2  0
 11 12  1  0
 12 13  1  0
 13 14  2  0
 14 15  1  0
 15 16  2  0
 16 17  1  0
 16 18  1  0
 18 19  1  0
 18 20  2  0
 20 21  1  0
 20 22  1  0
 22 23  1  0
 22 24  2  0
 24 25  1  0
 25 26  1  0
 25 27  1  0
 25 28  1  0
 13 29  1  0
 29 30  1  0
 30 31  2  0
 31 32  1  0
 31  6  1  0
 30 11  1  0
 24 15  1  0
M  CHG  3   2  -1  12  -1  29  -1
M  END
>  <UniqueID>  (73) 
68

>  <SMILES>  (73) 
Cc1ccccc1/N=c1/[n-]c2ccc(S([NH-])(=O)=O)cc2[n-]1

>  <Energy>  (73) 
75.29908262913573

>  <Genealogy>  (73) 
Cc1ccccc1N=c1[n-]c2ccc(S([NH-])(=O)=O)cc2[n-]1 (protonated)
Cc1ccccc1/N=c1/[n-]c2ccc(S([NH-])(=O)=O)cc2[n-]1 (cis-trans isomerization)
Cc1ccccc1/N=c1/[n-]c2ccc(S([NH-])(=O)=O)cc2[n-]1 (3D coordinates assigned)
Cc1ccccc1/N=c1/[n-]c2ccc(S([NH-])(=O)=O)cc2[n-]1 (optimized conformer: 75.29908262913573 kcal/mol)

>  <smiles>  (73) 
Cc1ccccc1N=c1[nH]c2ccc(S(N)(=O)=O)cc2[nH]1

>  <score_type>  (73) 
oracle

>  <origin>  (73) 
adg

>  <m_score__min__energy>  (73) 
-11.880000000000001

>  <m_primary>  (73) 
energy

$$$$
74:0
     RDKit          3D

 34 36  0  0  0  0  0  0  0  0999 V2000
   58.9090   28.5860   46.9950 C   0  0  0  0  0  0  0  0  0  0  0  0
   57.3470   27.9770   46.2880 S   0  0  0  0  0  0  0  0  0  0  0  0
   57.3170   29.2210   45.0000 C   0  0  0  0  0  0  0  0  0  0  0  0
   57.5760   30.5170   45.3130 N   0  0  0  0  0  0  0  0  0  0  0  0
   57.5620   31.4900   44.3620 C   0  0  0  0  0  0  0  0  0  0  0  0
   57.8400   32.8480   44.7380 N   0  0  0  0  0  0  0  0  0  0  0  0
   56.9000   33.5670   45.5970 C   0  0  0  0  0  0  0  0  0  0  0  0
   57.3440   33.4240   47.0550 C   0  0  0  0  0  0  0  0  0  0  0  0
   58.8320   33.6390   47.2250 C   0  0  0  0  0  0  0  0  0  0  0  0
   59.3440   33.8590   48.5140 C   0  0  0  0  0  0  0  0  0  0  0  0
   60.7190   34.0010   48.7150 C   0  0  0  0  0  0  0  0  0  0  0  0
   61.5980   33.9160   47.6350 C   0  0  0  0  0  0  0  0  0  0  0  0
   61.1070   33.6850   46.3490 C   0  0  0  0  0  0  0  0  0  0  0  0
   59.7280   33.5280   46.1320 C   0  0  0  0  0  0  0  0  0  0  0  0
   59.2200   33.3390   44.7250 C   0  0  0  0  0  0  0  0  0  0  0  0
   57.2860   31.1470   43.0300 C   0  0  0  0  0  0  0  0  0  0  0  0
   57.3280   32.3370   41.7360 Cl  0  0  0  0  0  0  0  0  0  0  0  0
   57.0200   29.8100   42.7310 C   0  0  0  0  0  0  0  0  0  0  0  0
   57.0350   28.8740   43.7150 N   0  0  0  0  0  0  0  0  0  0  0  0
   58.8483   28.5623   48.0931 H   0  0  0  0  0  0  0  0  0  0  0  0
   59.7378   27.9451   46.6597 H   0  0  0  0  0  0  0  0  0  0  0  0
   59.0853   29.6187   46.6597 H   0  0  0  0  0  0  0  0  0  0  0  0
   56.8865   34.6311   45.3187 H   0  0  0  0  0  0  0  0  0  0  0  0
   55.8905   33.1478   45.4742 H   0  0  0  0  0  0  0  0  0  0  0  0
   56.8073   34.1673   47.6629 H   0  0  0  0  0  0  0  0  0  0  0  0
   57.1127   32.3984   47.3785 H   0  0  0  0  0  0  0  0  0  0  0  0
   58.6575   33.9199   49.3713 H   0  0  0  0  0  0  0  0  0  0  0  0
   61.1097   34.1803   49.7275 H   0  0  0  0  0  0  0  0  0  0  0  0
   62.6799   34.0312   47.7972 H   0  0  0  0  0  0  0  0  0  0  0  0
   61.8042   33.6255   45.5002 H   0  0  0  0  0  0  0  0  0  0  0  0
   59.2563   34.3021   44.1949 H   0  0  0  0  0  0  0  0  0  0  0  0
   59.8551   32.6001   44.2144 H   0  0  0  0  0  0  0  0  0  0  0  0
   56.7975   29.5134   41.6954 H   0  0  0  0  0  0  0  0  0  0  0  0
   56.8360   27.8770   43.4770 H   0  0  0  0  0  0  0  0  0  0  0  0
  1  2  1  0
  2  3  1  0
  3  4  2  0
  4  5  1  0
  5  6  1  0
  6  7  1  0
  7  8  1  0
  8  9  1  0
  9 10  2  0
 10 11  1  0
 11 12  2  0
 12 13  1  0
 13 14  2  0
 14 15  1  0
  5 16  2  0
 16 17  1  0
 16 18  1  0
 18 19  2  0
 19  3  1  0
 15  6  1  0
 14  9  1  0
  1 20  1  0
  1 21  1  0
  1 22  1  0
  7 23  1  0
  7 24  1  0
  8 25  1  0
  8 26  1  0
 10 27  1  0
 11 28  1  0
 12 29  1  0
 13 30  1  0
 15 31  1  0
 15 32  1  0
 18 33  1  0
 19 34  1  0
M  CHG  1  19   1
M  END
>  <UniqueID>  (74) 
69

>  <SMILES>  (74) 
CSc1nc(N2CCc3ccccc3C2)c(Cl)c[nH+]1

>  <Energy>  (74) 
39.11116337859557

>  <Genealogy>  (74) 
CSc1nc(N2CCc3ccccc3C2)c(Cl)c[nH+]1 (protonated)
CSc1nc(N2CCc3ccccc3C2)c(Cl)c[nH+]1 (3D coordinates assigned)
CSc1nc(N2CCc3ccccc3C2)c(Cl)c[nH+]1 (nonaromatic ring conformer: 39.11116337859557 kcal/mol)

>  <smiles>  (74) 
CSc1ncc(Cl)c(N2CCc3ccccc3C2)n1

>  <score_type>  (74) 
oracle

>  <origin>  (74) 
adg

>  <m_score__min__energy>  (74) 
-5.7400000000000002

>  <m_primary>  (74) 
energy

$$$$
75:0
     RDKit          3D

 24 25  0  0  0  0  0  0  0  0999 V2000
   56.5460   29.7440   42.6060 C   0  0  0  0  0  0  0  0  0  0  0  0
   57.1550   30.8300   43.4480 C   0  0  0  0  0  0  0  0  0  0  0  0
   57.6890   31.9710   42.8240 C   0  0  0  0  0  0  0  0  0  0  0  0
   58.2610   32.9930   43.5820 C   0  0  0  0  0  0  0  0  0  0  0  0
   58.3200   32.8840   44.9720 C   0  0  0  0  0  0  0  0  0  0  0  0
   59.0570   34.1630   45.9220 Cl  0  0  0  0  0  0  0  0  0  0  0  0
   57.8050   31.7510   45.6060 C   0  0  0  0  0  0  0  0  0  0  0  0
   57.2120   30.7180   44.8570 C   0  0  0  0  0  0  0  0  0  0  0  0
   56.7180   29.5390   45.5190 N   0  0  0  0  0  0  0  0  0  0  0  0
   57.4470   28.3020   45.5730 C   0  0  0  0  0  0  0  0  0  0  0  0
   58.6670   28.2720   45.2550 O   0  0  0  0  0  0  0  0  0  0  0  0
   56.8010   27.0610   46.0320 C   0  0  0  0  0  0  0  0  0  0  0  0
   57.3510   26.0510   46.7870 C   0  0  0  0  0  0  0  0  0  0  0  0
   56.3900   25.1290   46.9720 N   0  0  0  0  0  0  0  0  0  0  0  0
   55.3350   25.5840   46.3560 O   0  0  0  0  0  0  0  0  0  0  0  0
   55.5220   26.7350   45.7770 N   0  0  0  0  0  0  0  0  0  0  0  0
   56.1133   28.9724   43.2597 H   0  0  0  0  0  0  0  0  0  0  0  0
   55.7561   30.1717   41.9711 H   0  0  0  0  0  0  0  0  0  0  0  0
   57.3229   29.2931   41.9711 H   0  0  0  0  0  0  0  0  0  0  0  0
   57.6555   32.0587   41.7280 H   0  0  0  0  0  0  0  0  0  0  0  0
   58.6660   33.8859   43.0834 H   0  0  0  0  0  0  0  0  0  0  0  0
   57.8636   31.6655   46.7011 H   0  0  0  0  0  0  0  0  0  0  0  0
   55.8170   29.6070   46.0410 H   0  0  0  0  0  0  0  0  0  0  0  0
   58.3821   26.0062   47.1674 H   0  0  0  0  0  0  0  0  0  0  0  0
  1  2  1  0
  2  3  2  0
  3  4  1  0
  4  5  2  0
  5  6  1  0
  5  7  1  0
  7  8  2  0
  8  9  1  0
  9 10  1  0
 10 11  2  0
 10 12  1  0
 12 13  1  0
 13 14  2  0
 14 15  1  0
 15 16  1  0
  8  2  1  0
 16 12  2  0
  1 17  1  0
  1 18  1  0
  1 19  1  0
  3 20  1  0
  4 21  1  0
  7 22  1  0
  9 23  1  0
 13 24  1  0
M  END
>  <UniqueID>  (75) 
70

>  <SMILES>  (75) 
Cc1ccc(Cl)cc1NC(=O)c1cnon1

>  <Energy>  (75) 
62.06197415495532

>  <Genealogy>  (75) 
Cc1ccc(Cl)cc1NC(=O)c1cnon1 (3D coordinates assigned)
Cc1ccc(Cl)cc1NC(=O)c1cnon1 (optimized conformer: 62.06197415495532 kcal/mol)

>  <smiles>  (75) 
Cc1ccc(Cl)cc1NC(=O)c1cnon1

>  <score_type>  (75) 
oracle

>  <origin>  (75) 
adg

>  <m_score__min__energy>  (75) 
-7.1299999999999999

>  <m_primary>  (75) 
energy

$$$$
76:0
     RDKit          3D

 84 88  0  0  0  0  0  0  0  0999 V2000
   55.9330   25.2810   45.6220 C   0  0  0  0  0  0  0  0  0  0  0  0
   57.1860   25.9520   45.2490 N   0  0  0  0  0  0  0  0  0  0  0  0
   57.5610   25.6040   43.8650 C   0  0  0  0  0  0  0  0  0  0  0  0
   57.9880   26.8330   43.1140 C   0  0  0  0  0  0  0  0  0  0  0  0
   58.3090   26.7330   41.9010 O   0  0  0  0  0  0  0  0  0  0  0  0
   58.0610   28.1160   43.7490 N   0  0  0  0  0  0  0  0  0  0  0  0
   56.9200   29.0010   43.9470 C   0  0  0  0  0  0  0  0  0  0  0  0
   57.4100   30.4010   44.1770 C   0  0  0  0  0  0  0  0  0  0  0  0
   57.4190   31.3260   43.1200 C   0  0  0  0  0  0  0  0  0  0  0  0
   57.8580   32.6350   43.3360 C   0  0  0  0  0  0  0  0  0  0  0  0
   58.2850   33.0310   44.6090 C   0  0  0  0  0  0  0  0  0  0  0  0
   58.8460   34.6690   44.8770 Cl  0  0  0  0  0  0  0  0  0  0  0  0
   58.2680   32.1170   45.6690 C   0  0  0  0  0  0  0  0  0  0  0  0
   57.8290   30.8080   45.4550 C   0  0  0  0  0  0  0  0  0  0  0  0
   58.4500   25.4980   46.3740 S   0  0  0  0  0  0  0  0  0  0  0  0
   59.3740   24.5080   45.7210 O   0  0  0  0  0  0  0  0  0  0  0  0
   57.8420   24.8350   47.5780 O   0  0  0  0  0  0  0  0  0  0  0  0
   59.3890   26.9010   46.8940 C   0  0  0  0  0  0  0  0  0  0  0  0
   59.7870   27.8600   45.9600 C   0  0  0  0  0  0  0  0  0  0  0  0
   60.4610   29.0100   46.3690 C   0  0  0  0  0  0  0  0  0  0  0  0
   60.7560   29.2320   47.7350 C   0  0  0  0  0  0  0  0  0  0  0  0
   60.3800   28.2380   48.6780 C   0  0  0  0  0  0  0  0  0  0  0  0
   59.7010   27.0810   48.2450 C   0  0  0  0  0  0  0  0  0  0  0  0
   60.6750   28.4350   50.0380 C   0  0  0  0  0  0  0  0  0  0  0  0
   60.3680   27.5530   50.8900 O   0  0  0  0  0  0  0  0  0  0  0  0
   61.3180   29.6090   50.4520 C   0  0  0  0  0  0  0  0  0  0  0  0
   61.6010   29.8520   51.8880 C   0  0  0  0  0  0  0  0  0  0  0  0
   62.6560   30.4650   52.2040 O   0  0  0  0  0  0  0  0  0  0  0  0
   60.7100   29.4390   52.9360 N   0  0  0  0  0  0  0  0  0  0  0  0
   60.6610   29.9620   54.2980 C   0  0  0  0  0  0  0  0  0  0  0  0
   59.2020   30.1340   54.7300 C   0  0  0  0  0  0  0  0  0  0  0  0
   58.2140   29.6650   53.6530 C   0  0  0  0  0  0  0  0  0  0  0  0
   57.4000   30.7820   53.1170 N   0  0  0  0  0  0  0  0  0  0  0  0
   57.0650   30.6450   51.6800 C   0  0  0  0  0  0  0  0  0  0  0  0
   58.2730   30.8720   50.7580 C   0  0  0  0  0  0  0  0  0  0  0  0
   58.9710   32.1060   51.1300 N   0  0  0  0  0  0  0  0  0  0  0  0
   59.5970   32.9210   50.1220 C   0  0  0  0  0  0  0  0  0  0  0  0
   60.8490   33.5020   50.3760 C   0  0  0  0  0  0  0  0  0  0  0  0
   61.4610   34.3120   49.4130 C   0  0  0  0  0  0  0  0  0  0  0  0
   60.8270   34.5460   48.1910 C   0  0  0  0  0  0  0  0  0  0  0  0
   59.5820   33.9690   47.9270 C   0  0  0  0  0  0  0  0  0  0  0  0
   58.9650   33.1580   48.8860 C   0  0  0  0  0  0  0  0  0  0  0  0
   57.7690   32.5850   48.5970 F   0  0  0  0  0  0  0  0  0  0  0  0
   59.2680   32.3420   52.5460 C   0  0  0  0  0  0  0  0  0  0  0  0
   58.0110   32.1010   53.3910 C   0  0  0  0  0  0  0  0  0  0  0  0
   61.6270   30.5830   49.4950 C   0  0  0  0  0  0  0  0  0  0  0  0
   61.3740   30.3860   48.1660 N   0  0  0  0  0  0  0  0  0  0  0  0
   61.7590   31.4510   47.2240 C   0  0  0  0  0  0  0  0  0  0  0  0
   55.8524   25.2378   46.7182 H   0  0  0  0  0  0  0  0  0  0  0  0
   55.0803   25.8432   45.2135 H   0  0  0  0  0  0  0  0  0  0  0  0
   55.9283   24.2597   45.2135 H   0  0  0  0  0  0  0  0  0  0  0  0
   58.3924   24.8840   43.8848 H   0  0  0  0  0  0  0  0  0  0  0  0
   56.6900   25.1613   43.3596 H   0  0  0  0  0  0  0  0  0  0  0  0
   56.2786   28.9786   43.0536 H   0  0  0  0  0  0  0  0  0  0  0  0
   56.3416   28.6656   44.8205 H   0  0  0  0  0  0  0  0  0  0  0  0
   57.0796   31.0192   42.1196 H   0  0  0  0  0  0  0  0  0  0  0  0
   57.8681   33.3552   42.5046 H   0  0  0  0  0  0  0  0  0  0  0  0
   58.6001   32.4292   46.6701 H   0  0  0  0  0  0  0  0  0  0  0  0
   57.8113   30.0929   46.2906 H   0  0  0  0  0  0  0  0  0  0  0  0
   59.5670   27.7069   44.8932 H   0  0  0  0  0  0  0  0  0  0  0  0
   60.7675   29.7547   45.6197 H   0  0  0  0  0  0  0  0  0  0  0  0
   59.4138   26.3121   48.9773 H   0  0  0  0  0  0  0  0  0  0  0  0
   61.1638   29.2590   54.9784 H   0  0  0  0  0  0  0  0  0  0  0  0
   61.1699   30.9366   54.3336 H   0  0  0  0  0  0  0  0  0  0  0  0
   59.0327   29.5467   55.6446 H   0  0  0  0  0  0  0  0  0  0  0  0
   59.0271   31.2064   54.9016 H   0  0  0  0  0  0  0  0  0  0  0  0
   58.7800   29.2104   52.8265 H   0  0  0  0  0  0  0  0  0  0  0  0
   57.5292   28.9389   54.1154 H   0  0  0  0  0  0  0  0  0  0  0  0
   56.6766   29.6307   51.5057 H   0  0  0  0  0  0  0  0  0  0  0  0
   56.3187   31.4170   51.4409 H   0  0  0  0  0  0  0  0  0  0  0  0
   58.9648   30.0217   50.8501 H   0  0  0  0  0  0  0  0  0  0  0  0
   57.9199   30.9593   49.7199 H   0  0  0  0  0  0  0  0  0  0  0  0
   61.3519   33.3197   51.3372 H   0  0  0  0  0  0  0  0  0  0  0  0
   62.4422   34.7647   49.6187 H   0  0  0  0  0  0  0  0  0  0  0  0
   61.3079   35.1850   47.4357 H   0  0  0  0  0  0  0  0  0  0  0  0
   59.0856   34.1528   46.9627 H   0  0  0  0  0  0  0  0  0  0  0  0
   60.0632   31.6550   52.8712 H   0  0  0  0  0  0  0  0  0  0  0  0
   59.5985   33.3829   52.6778 H   0  0  0  0  0  0  0  0  0  0  0  0
   58.2843   32.1510   54.4553 H   0  0  0  0  0  0  0  0  0  0  0  0
   57.2747   32.8757   53.1309 H   0  0  0  0  0  0  0  0  0  0  0  0
   62.0842   31.5292   49.8201 H   0  0  0  0  0  0  0  0  0  0  0  0
   62.0803   32.3398   47.7868 H   0  0  0  0  0  0  0  0  0  0  0  0
   62.5867   31.0989   46.5909 H   0  0  0  0  0  0  0  0  0  0  0  0
   60.8974   31.7096   46.5909 H   0  0  0  0  0  0  0  0  0  0  0  0
  1  2  1  0
  2  3  1  0
  3  4  1  0
  4  5  2  0
  4  6  1  0
  6  7  1  0
  7  8  1  0
  8  9  2  0
  9 10  1  0
 10 11  2  0
 11 12  1  0
 11 13  1  0
 13 14  2  0
  2 15  1  0
 15 16  2  0
 15 17  2  0
 15 18  1  0
 18 19  2  0
 19 20  1  0
 20 21  2  0
 21 22  1  0
 22 23  2  0
 22 24  1  0
 24 25  2  0
 24 26  1  0
 26 27  1  0
 27 28  2  0
 27 29  1  0
 29 30  1  0
 30 31  1  0
 31 32  1  0
 32 33  1  0
 33 34  1  0
 34 35  1  0
 35 36  1  0
 36 37  1  0
 37 38  2  0
 38 39  1  0
 39 40  2  0
 40 41  1  0
 41 42  2  0
 42 43  1  0
 36 44  1  0
 44 45  1  0
 26 46  2  0
 46 47  1  0
 47 48  1  0
 14  8  1  0
 23 18  1  0
 45 33  1  0
 47 21  1  0
 42 37  1  0
  1 49  1  0
  1 50  1  0
  1 51  1  0
  3 52  1  0
  3 53  1  0
  7 54  1  0
  7 55  1  0
  9 56  1  0
 10 57  1  0
 13 58  1  0
 14 59  1  0
 19 60  1  0
 20 61  1  0
 23 62  1  0
 30 63  1  0
 30 64  1  0
 31 65  1  0
 31 66  1  0
 32 67  1  0
 32 68  1  0
 34 69  1  0
 34 70  1  0
 35 71  1  0
 35 72  1  0
 38 73  1  0
 39 74  1  0
 40 75  1  0
 41 76  1  0
 44 77  1  0
 44 78  1  0
 45 79  1  0
 45 80  1  0
 46 81  1  0
 48 82  1  0
 48 83  1  0
 48 84  1  0
M  CHG  2   6  -1  29  -1
M  END
>  <UniqueID>  (76) 
71

>  <SMILES>  (76) 
CN(CC(=O)[N-]Cc1ccc(Cl)cc1)S(=O)(=O)c1ccc2c(c1)c(=O)c(C(=O)[N-]CCCN1CCN(c3ccccc3F)CC1)cn2C

>  <Energy>  (76) 
105.87328525693005

>  <Genealogy>  (76) 
CN(CC(=O)[N-]Cc1ccc(Cl)cc1)S(=O)(=O)c1ccc2c(c1)c(=O)c(C(=O)[N-]CCCN1CCN(c3ccccc3F)CC1)cn2C (protonated)
CN(CC(=O)[N-]Cc1ccc(Cl)cc1)S(=O)(=O)c1ccc2c(c1)c(=O)c(C(=O)[N-]CCCN1CCN(c3ccccc3F)CC1)cn2C (3D coordinates assigned)
CN(CC(=O)[N-]Cc1ccc(Cl)cc1)S(=O)(=O)c1ccc2c(c1)c(=O)c(C(=O)[N-]CCCN1CCN(c3ccccc3F)CC1)cn2C (nonaromatic ring conformer: 105.87328525693005 kcal/mol)

>  <smiles>  (76) 
CN(CC(=O)NCc1ccc(Cl)cc1)S(=O)(=O)c1ccc2c(c1)c(=O)c(C(=O)NCCCN1CCN(c3ccccc3F)CC1)cn2C

>  <score_type>  (76) 
oracle

>  <origin>  (76) 
adg

>  <m_score__min__energy>  (76) 
-12.460000000000001

>  <m_primary>  (76) 
energy

$$$$
77:0
     RDKit          3D

 57 60  0  0  0  0  0  0  0  0999 V2000
   60.8009   28.4321   44.8176 H   0  0  0  0  0  0  0  0  0  0  0  0
   60.4780   28.7530   45.8190 C   0  0  0  0  0  0  0  0  0  0  0  0
   60.1090   30.0830   46.0430 C   0  0  0  0  0  0  0  0  0  0  0  0
   60.1507   30.8105   45.2190 H   0  0  0  0  0  0  0  0  0  0  0  0
   59.6870   30.4900   47.3130 C   0  0  0  0  0  0  0  0  0  0  0  0
   59.3977   31.5373   47.4847 H   0  0  0  0  0  0  0  0  0  0  0  0
   59.6310   29.5610   48.3760 C   0  0  0  0  0  0  0  0  0  0  0  0
   59.2170   29.9000   49.6750 O   0  0  0  0  0  0  0  0  0  0  0  0
   59.7900   29.4300   50.9000 C   0  0  0  0  0  0  0  0  0  0  0  0
   59.9211   28.3396   50.8372 H   0  0  0  0  0  0  0  0  0  0  0  0
   59.1101   29.6981   51.7221 H   0  0  0  0  0  0  0  0  0  0  0  0
   61.1570   30.0820   51.1750 C   0  0  2  0  0  0  0  0  0  0  0  0
   61.1391   30.4554   52.2095 H   0  0  0  0  0  0  0  0  0  0  0  0
   61.3810   31.2080   50.2630 N   0  0  0  0  0  0  0  0  0  0  0  0
   60.5590   31.6750   49.8190 H   0  0  0  0  0  0  0  0  0  0  0  0
   62.6980   31.6940   49.9610 C   0  0  0  0  0  0  0  0  0  0  0  0
   63.7070   31.0950   50.4210 O   0  0  0  0  0  0  0  0  0  0  0  0
   62.8840   32.8700   49.0870 C   0  0  0  0  0  0  0  0  0  0  0  0
   64.0010   33.0670   48.5420 O   0  0  0  0  0  0  0  0  0  0  0  0
   61.8450   33.8390   48.8980 N   0  0  0  0  0  0  0  0  0  0  0  0
   60.7850   33.7530   47.9360 C   0  0  0  0  0  0  0  0  0  0  0  0
   61.1060   33.5830   46.5840 C   0  0  0  0  0  0  0  0  0  0  0  0
   62.1602   33.5214   46.2760 H   0  0  0  0  0  0  0  0  0  0  0  0
   60.0950   33.4910   45.6230 C   0  0  0  0  0  0  0  0  0  0  0  0
   60.3563   33.3909   44.5592 H   0  0  0  0  0  0  0  0  0  0  0  0
   58.7500   33.5260   46.0120 C   0  0  0  0  0  0  0  0  0  0  0  0
   57.4640   33.4150   44.8120 S   0  0  0  0  0  0  0  0  0  0  0  0
   58.0860   33.3580   43.4470 O   0  0  0  0  0  0  0  0  0  0  0  0
   56.5730   34.6210   44.8930 O   0  0  0  0  0  0  0  0  0  0  0  0
   56.5100   31.9820   45.0440 N   0  0  0  0  0  0  0  0  0  0  0  0
   56.8160   30.7730   44.6690 C   0  0  0  0  0  0  0  0  0  0  0  0
   56.9290   29.8070   45.6190 N   0  0  0  0  0  0  0  0  0  0  0  0
   57.2380   28.5240   45.3010 C   0  0  0  0  0  0  0  0  0  0  0  0
   57.3440   27.5470   46.2960 C   0  0  0  0  0  0  0  0  0  0  0  0
   57.1840   27.8145   47.3509 H   0  0  0  0  0  0  0  0  0  0  0  0
   57.6540   26.2290   45.9460 C   0  0  0  0  0  0  0  0  0  0  0  0
   57.7249   25.4564   46.7258 H   0  0  0  0  0  0  0  0  0  0  0  0
   57.8740   25.8910   44.6070 C   0  0  0  0  0  0  0  0  0  0  0  0
   58.1281   24.8551   44.3379 H   0  0  0  0  0  0  0  0  0  0  0  0
   57.7720   26.8660   43.6080 C   0  0  0  0  0  0  0  0  0  0  0  0
   57.9463   26.5979   42.5555 H   0  0  0  0  0  0  0  0  0  0  0  0
   57.4480   28.1810   43.9520 C   0  0  0  0  0  0  0  0  0  0  0  0
   57.3380   29.1390   42.9960 N   0  0  0  0  0  0  0  0  0  0  0  0
   57.0240   30.4210   43.3180 C   0  0  0  0  0  0  0  0  0  0  0  0
   56.9322   31.1818   42.5288 H   0  0  0  0  0  0  0  0  0  0  0  0
   58.4260   33.6740   47.3660 C   0  0  0  0  0  0  0  0  0  0  0  0
   57.3711   33.7063   47.6761 H   0  0  0  0  0  0  0  0  0  0  0  0
   59.4370   33.7810   48.3260 C   0  0  0  0  0  0  0  0  0  0  0  0
   59.1753   33.8873   49.3891 H   0  0  0  0  0  0  0  0  0  0  0  0
   62.3060   29.0750   51.0720 C   0  0  0  0  0  0  0  0  0  0  0  0
   62.6336   28.7879   52.0821 H   0  0  0  0  0  0  0  0  0  0  0  0
   61.9629   28.1814   50.5300 H   0  0  0  0  0  0  0  0  0  0  0  0
   63.1469   29.5323   50.5300 H   0  0  0  0  0  0  0  0  0  0  0  0
   60.0140   28.2360   48.1380 C   0  0  0  0  0  0  0  0  0  0  0  0
   59.9827   27.5040   48.9585 H   0  0  0  0  0  0  0  0  0  0  0  0
   60.4360   27.8340   46.8670 C   0  0  0  0  0  0  0  0  0  0  0  0
   60.7357   26.7900   46.6933 H   0  0  0  0  0  0  0  0  0  0  0  0
  1  2  1  0
  2  3  2  0
  3  4  1  0
  3  5  1  0
  5  6  1  0
  5  7  2  0
  7  8  1  0
  8  9  1  0
  9 10  1  0
  9 11  1  0
  9 12  1  0
 12 13  1  1
 12 14  1  0
 14 15  1  0
 14 16  1  0
 16 17  2  0
 16 18  1  0
 18 19  2  0
 18 20  1  0
 20 21  1  0
 21 22  2  0
 22 23  1  0
 22 24  1  0
 24 25  1  0
 24 26  2  0
 26 27  1  0
 27 28  2  0
 27 29  2  0
 27 30  1  0
 30 31  2  0
 31 32  1  0
 32 33  1  0
 33 34  2  0
 34 35  1  0
 34 36  1  0
 36 37  1  0
 36 38  2  0
 38 39  1  0
 38 40  1  0
 40 41  1  0
 40 42  2  0
 42 43  1  0
 43 44  2  0
 44 45  1  0
 26 46  1  0
 46 47  1  0
 46 48  2  0
 48 49  1  0
 12 50  1  0
 50 51  1  0
 50 52  1  0
 50 53  1  0
  7 54  1  0
 54 55  1  0
 54 56  2  0
 56 57  1  0
 56  2  1  0
 48 21  1  0
 44 31  1  0
 42 33  1  0
M  CHG  2  20  -1  32  -1
M  END
>  <UniqueID>  (77) 
72

>  <SMILES>  (77) 
C[C@H](COc1ccccc1)NC(=O)C(=O)[N-]c1ccc(S(=O)(=O)/N=c2\cnc3ccccc3[n-]2)cc1

>  <Energy>  (77) 
73.24434391967705

>  <Genealogy>  (77) 
CC(COc1ccccc1)NC(=O)C(=O)[N-]c1ccc(S(=O)(=O)N=c2cnc3ccccc3[n-]2)cc1 (protonated)
C[C@H](COc1ccccc1)NC(=O)C(=O)[N-]c1ccc(S(=O)(=O)N=c2cnc3ccccc3[n-]2)cc1 (chirality)
C[C@H](COc1ccccc1)NC(=O)C(=O)[N-]c1ccc(S(=O)(=O)/N=c2\cnc3ccccc3[n-]2)cc1 (cis-trans isomerization)
C[C@H](COc1ccccc1)NC(=O)C(=O)[N-]c1ccc(S(=O)(=O)/N=c2\cnc3ccccc3[n-]2)cc1 (3D coordinates assigned)
C[C@H](COc1ccccc1)NC(=O)C(=O)[N-]c1ccc(S(=O)(=O)/N=c2\cnc3ccccc3[n-]2)cc1 (optimized conformer: 73.24434391967705 kcal/mol)

>  <smiles>  (77) 
CC(COc1ccccc1)NC(=O)C(=O)Nc1ccc(S(=O)(=O)N=c2cnc3ccccc3[nH]2)cc1

>  <score_type>  (77) 
oracle

>  <origin>  (77) 
adg

>  <m_score__min__energy>  (77) 
-11.140000000000001

>  <m_primary>  (77) 
energy

$$$$
78:0
     RDKit          3D

 71 74  0  0  0  0  0  0  0  0999 V2000
   63.9870   31.8680   53.6550 C   0  0  0  0  0  0  0  0  0  0  0  0
   63.7320   33.3340   53.7770 C   0  0  0  0  0  0  0  0  0  0  0  0
   62.5450   33.8220   53.0070 C   0  0  0  0  0  0  0  0  0  0  0  0
   62.4350   33.1540   51.7290 N   0  0  0  0  0  0  0  0  0  0  0  0
   61.4680   32.2270   51.5060 C   0  0  0  0  0  0  0  0  0  0  0  0
   60.6370   31.9120   52.3980 O   0  0  0  0  0  0  0  0  0  0  0  0
   61.3900   31.6090   50.2710 C   0  0  0  0  0  0  0  0  0  0  0  0
   60.5760   30.6730   49.7260 N   0  0  0  0  0  0  0  0  0  0  0  0
   60.9450   30.4260   48.4590 C   0  0  0  0  0  0  0  0  0  0  0  0
   60.3680   29.5060   47.4820 C   0  0  0  0  0  0  0  0  0  0  0  0
   60.6730   29.6360   46.1250 C   0  0  0  0  0  0  0  0  0  0  0  0
   60.1360   28.7840   45.1850 C   0  0  0  0  0  0  0  0  0  0  0  0
   59.2800   27.7830   45.6080 C   0  0  0  0  0  0  0  0  0  0  0  0
   58.7680   26.9500   44.5980 O   0  0  0  0  0  0  0  0  0  0  0  0
   57.7800   27.4080   43.7020 C   0  0  0  0  0  0  0  0  0  0  0  0
   57.0630   28.5710   44.2520 C   0  0  0  0  0  0  0  0  0  0  0  0
   56.2640   28.3820   45.1980 O   0  0  0  0  0  0  0  0  0  0  0  0
   57.2130   29.9040   43.7850 N   0  0  0  0  0  0  0  0  0  0  0  0
   56.4240   30.9230   44.4470 C   0  0  0  0  0  0  0  0  0  0  0  0
   57.2910   32.1080   44.6610 C   0  0  0  0  0  0  0  0  0  0  0  0
   57.2400   32.7270   45.9000 C   0  0  0  0  0  0  0  0  0  0  0  0
   57.9810   33.8220   46.2240 C   0  0  0  0  0  0  0  0  0  0  0  0
   58.8260   34.3310   45.2470 C   0  0  0  0  0  0  0  0  0  0  0  0
   58.8970   33.7310   43.9970 C   0  0  0  0  0  0  0  0  0  0  0  0
   58.1260   32.6070   43.6860 C   0  0  0  0  0  0  0  0  0  0  0  0
   58.1970   32.0180   42.4560 O   0  0  0  0  0  0  0  0  0  0  0  0
   58.2760   32.7250   41.2350 C   0  0  0  0  0  0  0  0  0  0  0  0
   57.0230   32.7020   40.4240 C   0  0  0  0  0  0  0  0  0  0  0  0
   58.9550   27.6210   46.9340 C   0  0  0  0  0  0  0  0  0  0  0  0
   59.5090   28.4960   47.8720 C   0  0  0  0  0  0  0  0  0  0  0  0
   62.0000   31.2230   48.2310 N   0  0  0  0  0  0  0  0  0  0  0  0
   62.2950   31.9590   49.3200 C   0  0  0  0  0  0  0  0  0  0  0  0
   63.2730   32.8890   49.5290 N   0  0  0  0  0  0  0  0  0  0  0  0
   64.1880   33.1940   48.4610 C   0  0  0  0  0  0  0  0  0  0  0  0
   63.6380   34.2090   47.4880 C   0  0  0  0  0  0  0  0  0  0  0  0
   62.7100   33.6040   46.4630 C   0  0  0  0  0  0  0  0  0  0  0  0
   63.3000   33.4510   50.7410 C   0  0  0  0  0  0  0  0  0  0  0  0
   64.1770   34.3110   50.9860 O   0  0  0  0  0  0  0  0  0  0  0  0
   64.0641   31.4245   54.6587 H   0  0  0  0  0  0  0  0  0  0  0  0
   63.1575   31.3958   53.1082 H   0  0  0  0  0  0  0  0  0  0  0  0
   64.9272   31.7036   53.1082 H   0  0  0  0  0  0  0  0  0  0  0  0
   63.5723   33.5680   54.8399 H   0  0  0  0  0  0  0  0  0  0  0  0
   64.6110   33.8416   53.3531 H   0  0  0  0  0  0  0  0  0  0  0  0
   61.6341   33.6276   53.5922 H   0  0  0  0  0  0  0  0  0  0  0  0
   62.6691   34.8997   52.8251 H   0  0  0  0  0  0  0  0  0  0  0  0
   59.7740   30.2120   50.2270 H   0  0  0  0  0  0  0  0  0  0  0  0
   61.3559   30.4349   45.8004 H   0  0  0  0  0  0  0  0  0  0  0  0
   60.3830   28.8974   44.1191 H   0  0  0  0  0  0  0  0  0  0  0  0
   58.2598   27.6967   42.7552 H   0  0  0  0  0  0  0  0  0  0  0  0
   57.0553   26.5971   43.5369 H   0  0  0  0  0  0  0  0  0  0  0  0
   57.8710   30.0910   43.0000 H   0  0  0  0  0  0  0  0  0  0  0  0
   55.5651   31.1978   43.8171 H   0  0  0  0  0  0  0  0  0  0  0  0
   56.0456   30.5478   45.4093 H   0  0  0  0  0  0  0  0  0  0  0  0
   56.5647   32.3112   46.6623 H   0  0  0  0  0  0  0  0  0  0  0  0
   57.9130   34.2848   47.2196 H   0  0  0  0  0  0  0  0  0  0  0  0
   59.4431   35.2152   45.4647 H   0  0  0  0  0  0  0  0  0  0  0  0
   59.5732   34.1482   43.2363 H   0  0  0  0  0  0  0  0  0  0  0  0
   58.5201   33.7736   41.4604 H   0  0  0  0  0  0  0  0  0  0  0  0
   59.0477   32.2235   40.6326 H   0  0  0  0  0  0  0  0  0  0  0  0
   56.1519   32.6860   41.0955 H   0  0  0  0  0  0  0  0  0  0  0  0
   56.9804   33.5995   39.7894 H   0  0  0  0  0  0  0  0  0  0  0  0
   57.0134   31.8035   39.7894 H   0  0  0  0  0  0  0  0  0  0  0  0
   58.2724   26.8185   47.2502 H   0  0  0  0  0  0  0  0  0  0  0  0
   59.2577   28.3792   48.9365 H   0  0  0  0  0  0  0  0  0  0  0  0
   65.1159   33.5926   48.8969 H   0  0  0  0  0  0  0  0  0  0  0  0
   64.3651   32.2632   47.9021 H   0  0  0  0  0  0  0  0  0  0  0  0
   63.0843   34.9725   48.0542 H   0  0  0  0  0  0  0  0  0  0  0  0
   64.4922   34.6385   46.9441 H   0  0  0  0  0  0  0  0  0  0  0  0
   61.8945   33.0724   46.9752 H   0  0  0  0  0  0  0  0  0  0  0  0
   62.2891   34.4017   45.8334 H   0  0  0  0  0  0  0  0  0  0  0  0
   63.2701   32.8970   45.8334 H   0  0  0  0  0  0  0  0  0  0  0  0
  1  2  1  0
  2  3  1  0
  3  4  1  0
  4  5  1  0
  5  6  2  0
  5  7  1  0
  7  8  1  0
  8  9  1  0
  9 10  1  0
 10 11  2  0
 11 12  1  0
 12 13  2  0
 13 14  1  0
 14 15  1  0
 15 16  1  0
 16 17  2  0
 16 18  1  0
 18 19  1  0
 19 20  1  0
 20 21  2  0
 21 22  1  0
 22 23  2  0
 23 24  1  0
 24 25  2  0
 25 26  1  0
 26 27  1  0
 27 28  1  0
 13 29  1  0
 29 30  2  0
  9 31  2  0
 31 32  1  0
 32 33  1  0
 33 34  1  0
 34 35  1  0
 35 36  1  0
 33 37  1  0
 37 38  2  0
 37  4  1  0
 32  7  2  0
 30 10  1  0
 25 20  1  0
  1 39  1  0
  1 40  1  0
  1 41  1  0
  2 42  1  0
  2 43  1  0
  3 44  1  0
  3 45  1  0
  8 46  1  0
 11 47  1  0
 12 48  1  0
 15 49  1  0
 15 50  1  0
 18 51  1  0
 19 52  1  0
 19 53  1  0
 21 54  1  0
 22 55  1  0
 23 56  1  0
 24 57  1  0
 27 58  1  0
 27 59  1  0
 28 60  1  0
 28 61  1  0
 28 62  1  0
 29 63  1  0
 30 64  1  0
 34 65  1  0
 34 66  1  0
 35 67  1  0
 35 68  1  0
 36 69  1  0
 36 70  1  0
 36 71  1  0
M  END
>  <smiles>  (78) 
CCCn1c(=O)c2[nH]c(-c3ccc(OCC(=O)NCc4ccccc4OCC)cc3)nc2n(CCC)c1=O

>  <score_type>  (78) 
oracle

>  <origin>  (78) 
adg

>  <m_score__min__energy>  (78) 
-7.8600000000000003

>  <m_primary>  (78) 
energy

$$$$
79:0
     RDKit          3D

 51 54  0  0  1  0  0  0  0  0999 V2000
   57.5540   32.3390   50.7230 N   0  0  0  0  0  0  0  0  0  0  0  0
   58.5230   31.9210   49.7700 C   0  0  0  0  0  0  0  0  0  0  0  0
   58.9530   30.7310   49.8510 O   0  0  0  0  0  0  0  0  0  0  0  0
   58.9910   32.8380   48.7460 C   0  0  0  0  0  0  0  0  0  0  0  0
   60.1620   33.5610   48.8450 C   0  0  0  0  0  0  0  0  0  0  0  0
   60.5570   34.4230   47.8330 C   0  0  0  0  0  0  0  0  0  0  0  0
   59.7960   34.5930   46.6830 C   0  0  0  0  0  0  0  0  0  0  0  0
   58.6240   33.8710   46.5790 C   0  0  0  0  0  0  0  0  0  0  0  0
   57.7580   33.9560   45.4530 N   0  0  0  0  0  0  0  0  0  0  0  0
   57.6080   32.9240   44.7200 C   0  0  0  0  0  0  0  0  0  0  0  0
   57.1500   31.7120   45.2000 C   0  0  0  0  0  0  0  0  0  0  0  0
   57.0250   30.6560   44.3130 C   0  0  0  0  0  0  0  0  0  0  0  0
   56.5710   29.4610   44.8050 O   0  0  0  0  0  0  0  0  0  0  0  0
   57.2690   28.6620   45.6720 C   0  0  0  0  0  0  0  0  0  0  0  0
   57.0490   27.3080   45.8380 C   0  0  0  0  0  0  0  0  0  0  0  0
   57.8020   26.5700   46.7380 C   0  0  0  0  0  0  0  0  0  0  0  0
   58.8060   27.1640   47.5070 C   0  0  0  0  0  0  0  0  0  0  0  0
   59.0250   28.5170   47.3390 C   0  0  0  0  0  0  0  0  0  0  0  0
   60.0150   29.2410   48.0600 N   0  0  0  0  0  0  0  0  0  0  0  0
   60.8870   30.1850   47.4500 C   0  0  0  0  0  0  0  0  0  0  0  0
   60.7890   30.3990   46.2150 O   0  0  0  0  0  0  0  0  0  0  0  0
   61.8940   30.9200   48.1900 C   0  0  0  0  0  0  0  0  0  0  0  0
   62.7290   31.7680   47.5000 C   0  0  0  0  0  0  0  0  0  0  0  0
   63.7200   32.5140   48.1010 C   0  0  0  0  0  0  0  0  0  0  0  0
   63.8640   32.3870   49.4720 C   0  0  0  0  0  0  0  0  0  0  0  0
   65.1040   33.3050   50.3150 Cl  0  0  0  0  0  0  0  0  0  0  0  0
   63.0350   31.5370   50.2080 C   0  0  0  0  0  0  0  0  0  0  0  0
   62.0660   30.8190   49.5510 C   0  0  0  0  0  0  0  0  0  0  0  0
   58.2690   29.2690   46.4320 C   0  0  0  0  0  0  0  0  0  0  0  0
   57.3300   30.7720   43.0160 N   0  0  0  0  0  0  0  0  0  0  0  0
   57.7710   31.9670   42.5830 C   0  0  0  0  0  0  0  0  0  0  0  0
   57.9130   33.0340   43.4070 N   0  0  0  0  0  0  0  0  0  0  0  0
   58.2460   33.0190   47.5950 C   0  0  0  0  0  0  0  0  0  0  0  0
   56.5230   32.2470   50.4840 H   0  0  0  0  0  0  0  0  0  0  0  0
   57.8010   32.7400   51.6610 H   0  0  0  0  0  0  0  0  0  0  0  0
   60.7918   33.4520   49.7402 H   0  0  0  0  0  0  0  0  0  0  0  0
   61.4956   34.9858   47.9434 H   0  0  0  0  0  0  0  0  0  0  0  0
   60.1159   35.2782   45.8842 H   0  0  0  0  0  0  0  0  0  0  0  0
   56.8907   31.5888   46.2619 H   0  0  0  0  0  0  0  0  0  0  0  0
   56.2659   26.8091   45.2482 H   0  0  0  0  0  0  0  0  0  0  0  0
   57.6048   25.4935   46.8491 H   0  0  0  0  0  0  0  0  0  0  0  0
   59.4007   26.5749   48.2207 H   0  0  0  0  0  0  0  0  0  0  0  0
   60.0780   29.0470   49.0830 H   0  0  0  0  0  0  0  0  0  0  0  0
   62.5989   31.8553   46.4112 H   0  0  0  0  0  0  0  0  0  0  0  0
   64.3691   33.1821   47.5159 H   0  0  0  0  0  0  0  0  0  0  0  0
   63.1565   31.4442   51.2973 H   0  0  0  0  0  0  0  0  0  0  0  0
   61.4121   30.1474   50.1266 H   0  0  0  0  0  0  0  0  0  0  0  0
   58.4647   30.3454   46.3178 H   0  0  0  0  0  0  0  0  0  0  0  0
   58.0262   32.0827   41.5193 H   0  0  0  0  0  0  0  0  0  0  0  0
   58.2580   33.9410   43.0290 H   0  0  0  0  0  0  0  0  0  0  0  0
   57.3072   32.4565   47.4848 H   0  0  0  0  0  0  0  0  0  0  0  0
  1  2  1  0
  2  3  2  0
  2  4  1  0
  4  5  2  0
  5  6  1  0
  6  7  2  0
  7  8  1  0
  8  9  1  0
  9 10  2  0
 10 11  1  0
 11 12  2  0
 12 13  1  0
 13 14  1  0
 14 15  2  0
 15 16  1  0
 16 17  2  0
 17 18  1  0
 18 19  1  0
 19 20  1  0
 20 21  2  0
 20 22  1  0
 22 23  2  0
 23 24  1  0
 24 25  2  0
 25 26  1  0
 25 27  1  0
 27 28  2  0
 18 29  2  0
 12 30  1  0
 30 31  2  0
 31 32  1  0
  8 33  2  0
 33  4  1  0
 32 10  1  0
 29 14  1  0
 28 22  1  0
  1 34  1  0
  1 35  1  0
  5 36  1  0
  6 37  1  0
  7 38  1  0
 11 39  1  0
 15 40  1  0
 16 41  1  0
 17 42  1  0
 19 43  1  0
 23 44  1  0
 24 45  1  0
 27 46  1  0
 28 47  1  0
 29 48  1  0
 31 49  1  0
 32 50  1  0
 33 51  1  0
M  END
>  <smiles>  (79) 
NC(=O)c1cccc(N=c2cc(Oc3cccc(NC(=O)c4ccc(Cl)cc4)c3)nc[nH]2)c1

>  <score_type>  (79) 
oracle

>  <origin>  (79) 
adg

>  <m_score__min__energy>  (79) 
-10.16

>  <m_primary>  (79) 
energy

$$$$
80:0
     RDKit          3D

 44 47  0  0  1  0  0  0  0  0999 V2000
   54.8220   25.0690   45.5960 C   0  0  0  0  0  0  0  0  0  0  0  0
   55.2070   26.3520   45.9940 O   0  0  0  0  0  0  0  0  0  0  0  0
   56.5180   26.7960   46.1090 C   0  0  0  0  0  0  0  0  0  0  0  0
   57.4290   26.2440   46.9860 C   0  0  0  0  0  0  0  0  0  0  0  0
   58.7200   26.7390   47.0480 C   0  0  0  0  0  0  0  0  0  0  0  0
   59.1570   27.7870   46.2560 C   0  0  0  0  0  0  0  0  0  0  0  0
   58.2290   28.3290   45.3820 C   0  0  0  0  0  0  0  0  0  0  0  0
   58.5610   29.4610   44.4680 C   0  0  0  0  0  0  0  0  0  0  0  0
   58.5460   30.7650   45.1790 C   0  0  0  0  0  0  0  0  0  0  0  0
   57.4370   31.5600   45.1440 N   0  0  0  0  0  0  0  0  0  0  0  0
   57.3860   32.7350   45.7690 C   0  0  0  0  0  0  0  0  0  0  0  0
   56.3360   33.4390   45.7080 O   0  0  0  0  0  0  0  0  0  0  0  0
   58.4820   33.1600   46.4720 C   0  0  0  0  0  0  0  0  0  0  0  0
   59.1290   34.0660   47.2470 N   0  0  0  0  0  0  0  0  0  0  0  0
   60.2030   33.2660   47.2660 N   0  0  0  0  0  0  0  0  0  0  0  0
   61.5150   33.3650   47.8810 C   0  0  1  0  0  0  0  0  0  0  0  0
   61.9470   31.9790   48.2520 C   0  0  0  0  0  0  0  0  0  0  0  0
   63.3200   31.9510   48.8860 C   0  0  0  0  0  0  0  0  0  0  0  0
   64.1620   33.1000   48.3560 C   0  0  0  0  0  0  0  0  0  0  0  0
   63.6510   33.4240   46.9730 C   0  0  0  0  0  0  0  0  0  0  0  0
   62.4130   34.0460   47.1020 O   0  0  0  0  0  0  0  0  0  0  0  0
   59.6100   32.3400   46.5030 C   0  0  0  0  0  0  0  0  0  0  0  0
   59.6460   31.1550   45.8650 N   0  0  0  0  0  0  0  0  0  0  0  0
   56.9260   27.8340   45.3140 C   0  0  0  0  0  0  0  0  0  0  0  0
   54.6361   24.4494   46.4857 H   0  0  0  0  0  0  0  0  0  0  0  0
   53.9032   25.1319   44.9945 H   0  0  0  0  0  0  0  0  0  0  0  0
   55.6237   24.6157   44.9945 H   0  0  0  0  0  0  0  0  0  0  0  0
   57.1288   25.4095   47.6367 H   0  0  0  0  0  0  0  0  0  0  0  0
   59.4274   26.2812   47.7551 H   0  0  0  0  0  0  0  0  0  0  0  0
   60.1867   28.1691   46.3175 H   0  0  0  0  0  0  0  0  0  0  0  0
   59.5637   29.2964   44.0467 H   0  0  0  0  0  0  0  0  0  0  0  0
   57.8001   29.4949   43.6744 H   0  0  0  0  0  0  0  0  0  0  0  0
   58.8480   34.9940   47.6380 H   0  0  0  0  0  0  0  0  0  0  0  0
   61.4654   33.9744   48.7955 H   0  0  0  0  0  0  0  0  0  0  0  0
   61.2205   31.5619   48.9650 H   0  0  0  0  0  0  0  0  0  0  0  0
   61.9932   31.3844   47.3277 H   0  0  0  0  0  0  0  0  0  0  0  0
   63.2192   32.0466   49.9772 H   0  0  0  0  0  0  0  0  0  0  0  0
   63.8122   30.9990   48.6383 H   0  0  0  0  0  0  0  0  0  0  0  0
   64.0586   33.9772   49.0115 H   0  0  0  0  0  0  0  0  0  0  0  0
   65.2263   32.8237   48.3253 H   0  0  0  0  0  0  0  0  0  0  0  0
   64.3554   34.0984   46.4642 H   0  0  0  0  0  0  0  0  0  0  0  0
   63.5539   32.5037   46.3784 H   0  0  0  0  0  0  0  0  0  0  0  0
   60.4540   30.5210   45.8620 H   0  0  0  0  0  0  0  0  0  0  0  0
   56.2132   28.2860   44.6086 H   0  0  0  0  0  0  0  0  0  0  0  0
  1  2  1  0
  2  3  1  0
  3  4  2  0
  4  5  1  0
  5  6  2  0
  6  7  1  0
  7  8  1  0
  8  9  1  0
  9 10  2  0
 10 11  1  0
 11 12  2  0
 11 13  1  0
 13 14  1  0
 14 15  1  0
 15 16  1  0
 16 17  1  0
 17 18  1  0
 18 19  1  0
 19 20  1  0
 20 21  1  0
 15 22  1  0
 22 23  1  0
  7 24  2  0
 24  3  1  0
 23  9  1  0
 22 13  2  0
 21 16  1  0
  1 25  1  0
  1 26  1  0
  1 27  1  0
  4 28  1  0
  5 29  1  0
  6 30  1  0
  8 31  1  0
  8 32  1  0
 14 33  1  0
 16 34  1  1
 17 35  1  0
 17 36  1  0
 18 37  1  0
 18 38  1  0
 19 39  1  0
 19 40  1  0
 20 41  1  0
 20 42  1  0
 23 43  1  0
 24 44  1  0
M  END
>  <smiles>  (80) 
COc1cccc(Cc2nc(=O)c3[nH]n(C4CCCCO4)c3[nH]2)c1

>  <score_type>  (80) 
oracle

>  <origin>  (80) 
adg

>  <m_score__min__energy>  (80) 
-7.9100000000000001

>  <m_primary>  (80) 
energy

$$$$
81:0
     RDKit          3D

 68 71  0  0  1  0  0  0  0  0999 V2000
   59.0770   34.2120   44.6710 C   0  0  0  0  0  0  0  0  0  0  0  0
   58.7140   33.0160   45.3720 N   0  0  0  0  0  0  0  0  0  0  0  0
   59.9230   32.4300   46.4350 S   0  0  0  0  0  0  0  0  0  0  0  0
   59.4160   32.4260   47.8500 O   0  0  0  0  0  0  0  0  0  0  0  0
   60.2890   31.0420   46.0060 O   0  0  0  0  0  0  0  0  0  0  0  0
   61.3940   33.4480   46.3580 C   0  0  0  0  0  0  0  0  0  0  0  0
   61.7140   33.9510   47.7770 C   0  0  0  0  0  0  0  0  0  0  0  0
   62.1840   29.9820   50.6430 N   0  0  0  0  0  0  0  0  0  0  0  0
   61.3030   29.6670   49.7690 C   0  0  0  0  0  0  0  0  0  0  0  0
   62.7470   31.8710   49.3570 N   0  0  0  0  0  0  0  0  0  0  0  0
   63.0660   31.0540   50.3850 C   0  0  0  0  0  0  0  0  0  0  0  0
   63.0900   33.6210   48.0060 N   0  0  0  0  0  0  0  0  0  0  0  0
   63.5010   32.9170   48.9990 C   0  0  0  0  0  0  0  0  0  0  0  0
   60.9590   28.3340   49.5300 C   0  0  0  0  0  0  0  0  0  0  0  0
   59.9820   28.3520   48.5310 C   0  0  0  0  0  0  0  0  0  0  0  0
   59.3110   27.2300   47.8970 C   0  0  0  0  0  0  0  0  0  0  0  0
   58.3350   27.5660   46.8480 C   0  0  0  0  0  0  0  0  0  0  0  0
   57.1880   27.0640   46.7500 O   0  0  0  0  0  0  0  0  0  0  0  0
   58.7280   28.5260   45.8800 N   0  0  0  0  0  0  0  0  0  0  0  0
   57.9300   28.9690   44.8030 C   0  0  0  0  0  0  0  0  0  0  0  0
   57.7920   28.2360   43.6440 C   0  0  0  0  0  0  0  0  0  0  0  0
   57.0050   28.7510   42.6420 C   0  0  0  0  0  0  0  0  0  0  0  0
   56.3500   29.9800   42.7640 C   0  0  0  0  0  0  0  0  0  0  0  0
   56.5040   30.7040   43.9450 C   0  0  0  0  0  0  0  0  0  0  0  0
   57.2920   30.2030   44.9670 C   0  0  0  0  0  0  0  0  0  0  0  0
   57.4430   30.9150   46.1290 O   0  0  0  0  0  0  0  0  0  0  0  0
   59.7790   29.6470   48.2180 N   0  0  0  0  0  0  0  0  0  0  0  0
   60.5660   30.4310   48.9550 N   0  0  0  0  0  0  0  0  0  0  0  0
   64.2150   31.3340   51.0700 C   0  0  0  0  0  0  0  0  0  0  0  0
   64.9840   32.4330   50.6740 C   0  0  0  0  0  0  0  0  0  0  0  0
   66.1820   32.7430   51.3780 N   0  0  0  0  0  0  0  0  0  0  0  0
   66.2210   33.4750   52.6170 C   0  0  0  0  0  0  0  0  0  0  0  0
   67.2180   34.6130   52.5130 C   0  0  0  0  0  0  0  0  0  0  0  0
   67.8390   34.7200   51.1390 C   0  0  0  0  0  0  0  0  0  0  0  0
   68.4410   33.4030   50.7070 C   0  0  0  0  0  0  0  0  0  0  0  0
   67.4380   32.2770   50.8220 C   0  0  0  0  0  0  0  0  0  0  0  0
   64.6370   33.2230   49.6480 N   0  0  0  0  0  0  0  0  0  0  0  0
   59.3172   35.0035   45.3962 H   0  0  0  0  0  0  0  0  0  0  0  0
   59.9556   34.0145   44.0394 H   0  0  0  0  0  0  0  0  0  0  0  0
   58.2368   34.5361   44.0394 H   0  0  0  0  0  0  0  0  0  0  0  0
   58.3630   32.2930   44.7360 H   0  0  0  0  0  0  0  0  0  0  0  0
   62.2371   32.8536   45.9760 H   0  0  0  0  0  0  0  0  0  0  0  0
   61.2273   34.3013   45.6841 H   0  0  0  0  0  0  0  0  0  0  0  0
   61.5651   35.0390   47.8406 H   0  0  0  0  0  0  0  0  0  0  0  0
   61.0561   33.4900   48.5284 H   0  0  0  0  0  0  0  0  0  0  0  0
   61.3748   27.4464   50.0292 H   0  0  0  0  0  0  0  0  0  0  0  0
   60.0825   26.5892   47.4450 H   0  0  0  0  0  0  0  0  0  0  0  0
   58.7304   26.7445   48.6952 H   0  0  0  0  0  0  0  0  0  0  0  0
   59.6940   28.9630   45.9450 H   0  0  0  0  0  0  0  0  0  0  0  0
   58.2974   27.2663   43.5244 H   0  0  0  0  0  0  0  0  0  0  0  0
   56.8863   28.1762   41.7117 H   0  0  0  0  0  0  0  0  0  0  0  0
   55.7261   30.3675   41.9451 H   0  0  0  0  0  0  0  0  0  0  0  0
   55.9992   31.6739   44.0650 H   0  0  0  0  0  0  0  0  0  0  0  0
   58.3740   31.1420   46.4420 H   0  0  0  0  0  0  0  0  0  0  0  0
   59.0990   30.0020   47.4930 H   0  0  0  0  0  0  0  0  0  0  0  0
   60.6290   31.4720   48.9330 H   0  0  0  0  0  0  0  0  0  0  0  0
   64.5291   30.7066   51.9171 H   0  0  0  0  0  0  0  0  0  0  0  0
   65.2223   33.8835   52.8309 H   0  0  0  0  0  0  0  0  0  0  0  0
   66.5274   32.7981   53.4281 H   0  0  0  0  0  0  0  0  0  0  0  0
   66.7001   35.5566   52.7397 H   0  0  0  0  0  0  0  0  0  0  0  0
   68.0282   34.4118   53.2293 H   0  0  0  0  0  0  0  0  0  0  0  0
   67.0633   35.0140   50.4166 H   0  0  0  0  0  0  0  0  0  0  0  0
   68.6398   35.4732   51.1765 H   0  0  0  0  0  0  0  0  0  0  0  0
   68.7693   33.4851   49.6603 H   0  0  0  0  0  0  0  0  0  0  0  0
   69.2931   33.1779   51.3653 H   0  0  0  0  0  0  0  0  0  0  0  0
   67.2534   31.8584   49.8217 H   0  0  0  0  0  0  0  0  0  0  0  0
   67.8520   31.5114   51.4947 H   0  0  0  0  0  0  0  0  0  0  0  0
   65.1670   34.0460   49.3140 H   0  0  0  0  0  0  0  0  0  0  0  0
  1  2  1  0
  2  3  1  0
  3  4  2  0
  3  5  2  0
  3  6  1  0
  6  7  1  0
  7  8  1  0
  8  9  2  0
  9 10  1  0
 10 11  2  0
 11 12  1  0
 12 13  2  0
 13 14  1  0
 14 15  2  0
 15 16  1  0
 16 17  1  0
 17 18  2  0
 17 19  1  0
 19 20  1  0
 20 21  2  0
 21 22  1  0
 22 23  2  0
 23 24  1  0
 24 25  2  0
 25 26  1  0
 15 27  1  0
 27 28  1  0
 11 29  1  0
 29 30  2  0
 30 31  1  0
 31 32  1  0
 32 33  1  0
 33 34  1  0
 34 35  1  0
 35 36  1  0
 30 37  1  0
 37  9  1  0
 28 13  1  0
 36 31  1  0
 25 20  1  0
  1 38  1  0
  1 39  1  0
  1 40  1  0
  2 41  1  0
  6 42  1  0
  6 43  1  0
  7 44  1  0
  7 45  1  0
 14 46  1  0
 16 47  1  0
 16 48  1  0
 19 49  1  0
 21 50  1  0
 22 51  1  0
 23 52  1  0
 24 53  1  0
 26 54  1  0
 27 55  1  0
 28 56  1  0
 29 57  1  0
 32 58  1  0
 32 59  1  0
 33 60  1  0
 33 61  1  0
 34 62  1  0
 34 63  1  0
 35 64  1  0
 35 65  1  0
 36 66  1  0
 36 67  1  0
 37 68  1  0
M  END
>  <smiles>  (81) 
CNS(=O)(=O)CCN=c1nc(N=c2cc(CC(=O)Nc3ccccc3O)[nH][nH]2)cc(N2CCCCC2)[nH]1

>  <score_type>  (81) 
oracle

>  <origin>  (81) 
adg

>  <m_score__min__energy>  (81) 
-9.4600000000000009

>  <m_primary>  (81) 
energy

$$$$
82:0
     RDKit          3D

 66 69  0  0  0  0  0  0  0  0999 V2000
   55.6420   31.5110   51.9780 N   0  0  0  0  0  0  0  0  0  0  0  0
   56.9180   30.9650   51.6490 C   0  0  0  0  0  0  0  0  0  0  0  0
   57.0900   29.7170   51.6750 O   0  0  0  0  0  0  0  0  0  0  0  0
   58.0490   31.8690   51.2540 C   0  0  0  0  0  0  0  0  0  0  0  0
   59.4140   31.1400   51.3140 C   0  0  2  0  0  0  0  0  0  0  0  0
   60.5570   32.0680   51.2550 N   0  0  0  0  0  0  0  0  0  0  0  0
   60.3300   33.4590   50.2240 S   0  0  0  0  0  0  0  0  0  0  0  0
   59.2920   34.3530   50.8390 O   0  0  0  0  0  0  0  0  0  0  0  0
   61.6080   34.2380   50.0820 O   0  0  0  0  0  0  0  0  0  0  0  0
   59.7520   32.9400   48.6430 C   0  0  0  0  0  0  0  0  0  0  0  0
   58.4910   33.3590   48.1980 C   0  0  0  0  0  0  0  0  0  0  0  0
   58.0070   32.9390   46.9570 C   0  0  0  0  0  0  0  0  0  0  0  0
   58.7850   32.1030   46.1400 C   0  0  0  0  0  0  0  0  0  0  0  0
   58.2500   31.6230   44.8180 C   0  0  0  0  0  0  0  0  0  0  0  0
   57.7050   30.2280   44.9370 C   0  0  0  0  0  0  0  0  0  0  0  0
   56.4610   30.0400   44.8470 O   0  0  0  0  0  0  0  0  0  0  0  0
   58.6020   29.1230   45.1470 N   0  0  0  0  0  0  0  0  0  0  0  0
   58.2270   27.7390   45.0210 C   0  0  0  0  0  0  0  0  0  0  0  0
   57.9720   27.2120   43.7450 C   0  0  0  0  0  0  0  0  0  0  0  0
   57.5770   25.8800   43.5930 C   0  0  0  0  0  0  0  0  0  0  0  0
   57.4330   25.0530   44.7170 C   0  0  0  0  0  0  0  0  0  0  0  0
   56.9980   23.6480   44.5610 C   0  0  0  0  0  0  0  0  0  0  0  0
   57.7550   22.8060   43.7300 C   0  0  0  0  0  0  0  0  0  0  0  0
   57.4080   21.4620   43.5740 C   0  0  0  0  0  0  0  0  0  0  0  0
   56.3010   20.9450   44.2450 C   0  0  0  0  0  0  0  0  0  0  0  0
   55.5290   21.7720   45.0630 C   0  0  0  0  0  0  0  0  0  0  0  0
   55.8560   23.1300   45.2230 C   0  0  0  0  0  0  0  0  0  0  0  0
   54.7880   24.1530   46.2020 S   0  0  0  0  0  0  0  0  0  0  0  0
   54.8280   25.7820   45.6210 N   0  0  0  0  0  0  0  0  0  0  0  0
   53.3730   23.6590   46.1040 O   0  0  0  0  0  0  0  0  0  0  0  0
   55.2170   24.1070   47.6410 O   0  0  0  0  0  0  0  0  0  0  0  0
   57.6460   25.5860   45.9970 C   0  0  0  0  0  0  0  0  0  0  0  0
   58.0370   26.9200   46.1500 C   0  0  0  0  0  0  0  0  0  0  0  0
   60.0460   31.6780   46.5890 C   0  0  0  0  0  0  0  0  0  0  0  0
   60.5290   32.0990   47.8330 C   0  0  0  0  0  0  0  0  0  0  0  0
   59.6110   29.9720   50.3550 C   0  0  0  0  0  0  0  0  0  0  0  0
   60.6190   29.0320   50.6460 C   0  0  0  0  0  0  0  0  0  0  0  0
   60.8590   27.9550   49.7890 C   0  0  0  0  0  0  0  0  0  0  0  0
   60.1020   27.8020   48.6260 C   0  0  0  0  0  0  0  0  0  0  0  0
   59.1040   28.7270   48.3180 C   0  0  0  0  0  0  0  0  0  0  0  0
   58.8560   29.8070   49.1720 C   0  0  0  0  0  0  0  0  0  0  0  0
   54.9030   31.6290   51.2490 H   0  0  0  0  0  0  0  0  0  0  0  0
   57.8794   32.2238   50.2267 H   0  0  0  0  0  0  0  0  0  0  0  0
   58.0785   32.7101   51.9623 H   0  0  0  0  0  0  0  0  0  0  0  0
   59.3809   30.6707   52.3083 H   0  0  0  0  0  0  0  0  0  0  0  0
   57.8798   34.0214   48.8286 H   0  0  0  0  0  0  0  0  0  0  0  0
   57.0123   33.2644   46.6183 H   0  0  0  0  0  0  0  0  0  0  0  0
   57.4459   32.2973   44.4883 H   0  0  0  0  0  0  0  0  0  0  0  0
   59.0712   31.6192   44.0861 H   0  0  0  0  0  0  0  0  0  0  0  0
   59.5580   29.3380   45.5150 H   0  0  0  0  0  0  0  0  0  0  0  0
   58.0840   27.8525   42.8578 H   0  0  0  0  0  0  0  0  0  0  0  0
   57.3783   25.4786   42.5883 H   0  0  0  0  0  0  0  0  0  0  0  0
   58.6291   23.2086   43.1972 H   0  0  0  0  0  0  0  0  0  0  0  0
   58.0086   20.8113   42.9214 H   0  0  0  0  0  0  0  0  0  0  0  0
   56.0353   19.8838   44.1298 H   0  0  0  0  0  0  0  0  0  0  0  0
   54.6559   21.3569   45.5877 H   0  0  0  0  0  0  0  0  0  0  0  0
   53.9380   26.2430   45.9130 H   0  0  0  0  0  0  0  0  0  0  0  0
   57.5048   24.9517   46.8845 H   0  0  0  0  0  0  0  0  0  0  0  0
   58.1969   27.3313   47.1576 H   0  0  0  0  0  0  0  0  0  0  0  0
   60.6559   31.0121   45.9608 H   0  0  0  0  0  0  0  0  0  0  0  0
   61.5207   31.7695   48.1765 H   0  0  0  0  0  0  0  0  0  0  0  0
   61.2236   29.1472   51.5577 H   0  0  0  0  0  0  0  0  0  0  0  0
   61.6463   27.2259   50.0312 H   0  0  0  0  0  0  0  0  0  0  0  0
   60.2922   26.9529   47.9531 H   0  0  0  0  0  0  0  0  0  0  0  0
   58.5098   28.6067   47.4001 H   0  0  0  0  0  0  0  0  0  0  0  0
   58.0682   30.5324   48.9209 H   0  0  0  0  0  0  0  0  0  0  0  0
  1  2  1  0
  2  3  2  0
  2  4  1  0
  4  5  1  0
  5  6  1  0
  6  7  1  0
  7  8  2  0
  7  9  2  0
  7 10  1  0
 10 11  2  0
 11 12  1  0
 12 13  2  0
 13 14  1  0
 14 15  1  0
 15 16  2  0
 15 17  1  0
 17 18  1  0
 18 19  2  0
 19 20  1  0
 20 21  2  0
 21 22  1  0
 22 23  2  0
 23 24  1  0
 24 25  2  0
 25 26  1  0
 26 27  2  0
 27 28  1  0
 28 29  1  0
 28 30  2  0
 28 31  2  0
 21 32  1  0
 32 33  2  0
 13 34  1  0
 34 35  2  0
  5 36  1  0
 36 37  2  0
 37 38  1  0
 38 39  2  0
 39 40  1  0
 40 41  2  0
 35 10  1  0
 41 36  1  0
 33 18  1  0
 27 22  1  0
  1 42  1  0
  4 43  1  0
  4 44  1  0
  5 45  1  1
 11 46  1  0
 12 47  1  0
 14 48  1  0
 14 49  1  0
 17 50  1  0
 19 51  1  0
 20 52  1  0
 23 53  1  0
 24 54  1  0
 25 55  1  0
 26 56  1  0
 29 57  1  0
 32 58  1  0
 33 59  1  0
 34 60  1  0
 35 61  1  0
 37 62  1  0
 38 63  1  0
 39 64  1  0
 40 65  1  0
 41 66  1  0
M  CHG  3   1  -1   6  -1  29  -1
M  END
>  <UniqueID>  (82) 
73

>  <SMILES>  (82) 
[NH-]C(=O)C[C@H]([N-]S(=O)(=O)c1ccc(CC(=O)Nc2ccc(-c3ccccc3S([NH-])(=O)=O)cc2)cc1)c1ccccc1

>  <Energy>  (82) 
84.83056591869457

>  <Genealogy>  (82) 
[NH-]C(=O)CC([N-]S(=O)(=O)c1ccc(CC(=O)Nc2ccc(-c3ccccc3S([NH-])(=O)=O)cc2)cc1)c1ccccc1 (protonated)
[NH-]C(=O)C[C@H]([N-]S(=O)(=O)c1ccc(CC(=O)Nc2ccc(-c3ccccc3S([NH-])(=O)=O)cc2)cc1)c1ccccc1 (chirality)
[NH-]C(=O)C[C@H]([N-]S(=O)(=O)c1ccc(CC(=O)Nc2ccc(-c3ccccc3S([NH-])(=O)=O)cc2)cc1)c1ccccc1 (3D coordinates assigned)
[NH-]C(=O)C[C@H]([N-]S(=O)(=O)c1ccc(CC(=O)Nc2ccc(-c3ccccc3S([NH-])(=O)=O)cc2)cc1)c1ccccc1 (optimized conformer: 84.83056591869457 kcal/mol)

>  <smiles>  (82) 
NC(=O)CC(NS(=O)(=O)c1ccc(CC(=O)Nc2ccc(-c3ccccc3S(N)(=O)=O)cc2)cc1)c1ccccc1

>  <score_type>  (82) 
oracle

>  <origin>  (82) 
adg

>  <m_score__min__energy>  (82) 
-16.489999999999998

>  <m_primary>  (82) 
energy

$$$$
83:0
     RDKit          3D

 52 55  0  0  0  0  0  0  0  0999 V2000
   61.1911   28.7630   47.2411 H   0  0  0  0  0  0  0  0  0  0  0  0
   60.7430   29.5740   47.8340 C   0  0  0  0  0  0  0  0  0  0  0  0
   59.9780   29.2800   48.9110 N   0  0  0  0  0  0  0  0  0  0  0  0
   59.3530   30.2460   49.6320 C   0  0  0  0  0  0  0  0  0  0  0  0
   58.5160   29.8670   50.6890 C   0  0  0  0  0  0  0  0  0  0  0  0
   58.4622   28.8116   50.9945 H   0  0  0  0  0  0  0  0  0  0  0  0
   57.7510   30.8230   51.3550 C   0  0  0  0  0  0  0  0  0  0  0  0
   56.6850   30.3410   52.6620 Cl  0  0  0  0  0  0  0  0  0  0  0  0
   57.7830   32.1510   50.9330 C   0  0  0  0  0  0  0  0  0  0  0  0
   57.1413   32.8972   51.4243 H   0  0  0  0  0  0  0  0  0  0  0  0
   58.6270   32.5390   49.8880 C   0  0  0  0  0  0  0  0  0  0  0  0
   58.6081   33.5808   49.5353 H   0  0  0  0  0  0  0  0  0  0  0  0
   59.5020   31.6160   49.2790 C   0  0  0  0  0  0  0  0  0  0  0  0
   60.4280   31.9470   48.2400 C   0  0  0  0  0  0  0  0  0  0  0  0
   60.9220   33.1340   47.9920 N   0  0  0  0  0  0  0  0  0  0  0  0
   61.3980   33.8040   46.7780 C   0  0  0  0  0  0  0  0  0  0  0  0
   61.8097   33.0523   46.0885 H   0  0  0  0  0  0  0  0  0  0  0  0
   62.1743   34.5317   47.0569 H   0  0  0  0  0  0  0  0  0  0  0  0
   60.2480   34.5500   46.0830 C   0  0  0  0  0  0  0  0  0  0  0  0
   60.0456   34.0570   45.1207 H   0  0  0  0  0  0  0  0  0  0  0  0
   60.5703   35.5945   45.9597 H   0  0  0  0  0  0  0  0  0  0  0  0
   58.9440   34.5750   46.9000 C   0  0  0  0  0  0  0  0  0  0  0  0
   58.4403   35.5375   46.7269 H   0  0  0  0  0  0  0  0  0  0  0  0
   59.2154   34.4378   47.9571 H   0  0  0  0  0  0  0  0  0  0  0  0
   57.9750   33.4390   46.5220 C   0  0  0  0  0  0  0  0  0  0  0  0
   57.1304   33.4449   47.2267 H   0  0  0  0  0  0  0  0  0  0  0  0
   58.5311   32.4912   46.5708 H   0  0  0  0  0  0  0  0  0  0  0  0
   57.4280   33.5920   45.0920 C   0  0  0  0  0  0  0  0  0  0  0  0
   57.2211   34.6553   44.9010 H   0  0  0  0  0  0  0  0  0  0  0  0
   56.5100   32.9917   45.0091 H   0  0  0  0  0  0  0  0  0  0  0  0
   58.4310   33.0830   44.0440 C   0  0  0  0  0  0  0  0  0  0  0  0
   59.4351   33.4489   44.3044 H   0  0  0  0  0  0  0  0  0  0  0  0
   58.1177   33.4587   43.0587 H   0  0  0  0  0  0  0  0  0  0  0  0
   58.4590   31.6240   43.9870 N   0  0  0  0  0  0  0  0  0  0  0  0
   57.6100   30.6650   44.2670 C   0  0  0  0  0  0  0  0  0  0  0  0
   56.2690   30.9740   43.9890 C   0  0  0  0  0  0  0  0  0  0  0  0
   56.0230   31.9366   43.5170 H   0  0  0  0  0  0  0  0  0  0  0  0
   55.2490   30.0870   44.2990 C   0  0  0  0  0  0  0  0  0  0  0  0
   54.2044   30.3535   44.0805 H   0  0  0  0  0  0  0  0  0  0  0  0
   55.5360   28.8960   44.8690 N   0  0  0  0  0  0  0  0  0  0  0  0
   56.8100   28.5170   45.1430 C   0  0  0  0  0  0  0  0  0  0  0  0
   57.0160   27.2580   45.7200 C   0  0  0  0  0  0  0  0  0  0  0  0
   56.1530   26.6206   45.9629 H   0  0  0  0  0  0  0  0  0  0  0  0
   58.3040   26.8080   45.9880 C   0  0  0  0  0  0  0  0  0  0  0  0
   58.5530   25.2270   46.7070 Cl  0  0  0  0  0  0  0  0  0  0  0  0
   59.3950   27.6100   45.6700 C   0  0  0  0  0  0  0  0  0  0  0  0
   60.4142   27.2485   45.8713 H   0  0  0  0  0  0  0  0  0  0  0  0
   59.2080   28.8710   45.0970 C   0  0  0  0  0  0  0  0  0  0  0  0
   60.0857   29.4835   44.8428 H   0  0  0  0  0  0  0  0  0  0  0  0
   57.9090   29.3760   44.8370 C   0  0  0  0  0  0  0  0  0  0  0  0
   60.9640   30.9010   47.4750 C   0  0  0  0  0  0  0  0  0  0  0  0
   61.5648   31.1311   46.5828 H   0  0  0  0  0  0  0  0  0  0  0  0
  1  2  1  0
  2  3  1  0
  3  4  1  0
  4  5  2  0
  5  6  1  0
  5  7  1  0
  7  8  1  0
  7  9  2  0
  9 10  1  0
  9 11  1  0
 11 12  1  0
 11 13  2  0
 13 14  1  0
 14 15  2  0
 15 16  1  0
 16 17  1  0
 16 18  1  0
 16 19  1  0
 19 20  1  0
 19 21  1  0
 19 22  1  0
 22 23  1  0
 22 24  1  0
 22 25  1  0
 25 26  1  0
 25 27  1  0
 25 28  1  0
 28 29  1  0
 28 30  1  0
 28 31  1  0
 31 32  1  0
 31 33  1  0
 31 34  1  0
 34 35  2  0
 35 36  1  0
 36 37  1  0
 36 38  2  0
 38 39  1  0
 38 40  1  0
 40 41  1  0
 41 42  2  0
 42 43  1  0
 42 44  1  0
 44 45  1  0
 44 46  2  0
 46 47  1  0
 46 48  1  0
 48 49  1  0
 48 50  2  0
 14 51  1  0
 51 52  1  0
 51  2  2  0
 13  4  1  0
 50 35  1  0
 50 41  1  0
M  CHG  2   3  -1  40  -1
M  END
>  <UniqueID>  (83) 
74

>  <SMILES>  (83) 
Clc1ccc2/c(=N\CCCCCC/N=c3/cc[n-]c4cc(Cl)ccc34)cc[n-]c2c1

>  <Energy>  (83) 
96.0188698635263

>  <Genealogy>  (83) 
Clc1ccc2c(=NCCCCCCN=c3cc[n-]c4cc(Cl)ccc34)cc[n-]c2c1 (protonated)
Clc1ccc2/c(=N\CCCCCC/N=c3/cc[n-]c4cc(Cl)ccc34)cc[n-]c2c1 (cis-trans isomerization)
Clc1ccc2/c(=N\CCCCCC/N=c3/cc[n-]c4cc(Cl)ccc34)cc[n-]c2c1 (3D coordinates assigned)
Clc1ccc2/c(=N\CCCCCC/N=c3/cc[n-]c4cc(Cl)ccc34)cc[n-]c2c1 (optimized conformer: 96.0188698635263 kcal/mol)

>  <smiles>  (83) 
Clc1ccc2c(=NCCCCCCN=c3cc[nH]c4cc(Cl)ccc34)cc[nH]c2c1

>  <score_type>  (83) 
oracle

>  <origin>  (83) 
adg

>  <m_score__min__energy>  (83) 
-11.210000000000001

>  <m_primary>  (83) 
energy

$$$$
84:0
     RDKit          3D

 49 51  0  0  0  0  0  0  0  0999 V2000
   54.1814   22.4128   44.1639 H   0  0  0  0  0  0  0  0  0  0  0  0
   55.1980   22.6920   44.4780 C   0  0  0  0  0  0  0  0  0  0  0  0
   56.0670   23.2940   43.5680 C   0  0  0  0  0  0  0  0  0  0  0  0
   55.7301   23.5012   42.5416 H   0  0  0  0  0  0  0  0  0  0  0  0
   57.3640   23.6340   43.9580 C   0  0  0  0  0  0  0  0  0  0  0  0
   58.0423   24.1150   43.2379 H   0  0  0  0  0  0  0  0  0  0  0  0
   57.8090   23.3660   45.2640 C   0  0  0  0  0  0  0  0  0  0  0  0
   59.2130   23.6800   45.6260 C   0  0  0  0  0  0  0  0  0  0  0  0
   60.0840   22.7730   45.5570 O   0  0  0  0  0  0  0  0  0  0  0  0
   59.6150   24.9950   46.0400 N   0  0  0  0  0  0  0  0  0  0  0  0
   58.8990   26.2040   45.7490 C   0  0  0  0  0  0  0  0  0  0  0  0
   58.5830   26.5090   44.4200 C   0  0  0  0  0  0  0  0  0  0  0  0
   58.9610   25.8723   43.6066 H   0  0  0  0  0  0  0  0  0  0  0  0
   57.7880   27.6210   44.1230 C   0  0  0  0  0  0  0  0  0  0  0  0
   57.5378   27.8518   43.0770 H   0  0  0  0  0  0  0  0  0  0  0  0
   57.3080   28.4440   45.1550 C   0  0  0  0  0  0  0  0  0  0  0  0
   56.3800   29.5580   44.8560 C   0  0  0  0  0  0  0  0  0  0  0  0
   55.1390   29.3410   44.8350 O   0  0  0  0  0  0  0  0  0  0  0  0
   56.8560   30.8780   44.5460 N   0  0  0  0  0  0  0  0  0  0  0  0
   57.7950   31.5060   45.1920 C   0  0  0  0  0  0  0  0  0  0  0  0
   58.8930   30.9130   45.7090 N   0  0  0  0  0  0  0  0  0  0  0  0
   59.7100   31.7680   46.3200 N   0  0  0  0  0  0  0  0  0  0  0  0
   59.2600   33.0460   46.3180 C   0  0  0  0  0  0  0  0  0  0  0  0
   60.0680   34.2190   46.8420 C   0  0  0  0  0  0  0  0  0  0  0  0
   59.7280   34.4820   48.3230 C   0  0  0  0  0  0  0  0  0  0  0  0
   60.4350   33.9351   48.9642 H   0  0  0  0  0  0  0  0  0  0  0  0
   59.8028   35.5596   48.5306 H   0  0  0  0  0  0  0  0  0  0  0  0
   58.7037   34.1388   48.5306 H   0  0  0  0  0  0  0  0  0  0  0  0
   59.7510   35.4900   46.0290 C   0  0  0  0  0  0  0  0  0  0  0  0
   59.5433   36.3229   46.7168 H   0  0  0  0  0  0  0  0  0  0  0  0
   60.6132   35.7443   45.3951 H   0  0  0  0  0  0  0  0  0  0  0  0
   58.8703   35.3096   45.3951 H   0  0  0  0  0  0  0  0  0  0  0  0
   61.5640   33.8840   46.7150 C   0  0  0  0  0  0  0  0  0  0  0  0
   62.0041   33.7854   47.7183 H   0  0  0  0  0  0  0  0  0  0  0  0
   61.6825   32.9371   46.1680 H   0  0  0  0  0  0  0  0  0  0  0  0
   62.0751   34.6899   46.1680 H   0  0  0  0  0  0  0  0  0  0  0  0
   57.7850   33.1590   45.4910 S   0  0  0  0  0  0  0  0  0  0  0  0
   57.7040   28.1860   46.4770 C   0  0  0  0  0  0  0  0  0  0  0  0
   57.3905   28.8642   47.2843 H   0  0  0  0  0  0  0  0  0  0  0  0
   58.4930   27.0740   46.7720 C   0  0  0  0  0  0  0  0  0  0  0  0
   58.7980   26.8786   47.8107 H   0  0  0  0  0  0  0  0  0  0  0  0
   56.9200   22.7880   46.1980 C   0  0  0  0  0  0  0  0  0  0  0  0
   57.3520   22.5850   47.5190 O   0  0  0  0  0  0  0  0  0  0  0  0
   56.4970   22.5660   48.6570 C   0  0  0  0  0  0  0  0  0  0  0  0
   57.1056   22.5795   49.5732 H   0  0  0  0  0  0  0  0  0  0  0  0
   55.8424   23.4498   48.6386 H   0  0  0  0  0  0  0  0  0  0  0  0
   55.8823   21.6540   48.6386 H   0  0  0  0  0  0  0  0  0  0  0  0
   55.6160   22.4430   45.7870 C   0  0  0  0  0  0  0  0  0  0  0  0
   54.9236   21.9747   46.5020 H   0  0  0  0  0  0  0  0  0  0  0  0
  1  2  1  0
  2  3  2  0
  3  4  1  0
  3  5  1  0
  5  6  1  0
  5  7  2  0
  7  8  1  0
  8  9  2  0
  8 10  1  0
 10 11  1  0
 11 12  2  0
 12 13  1  0
 12 14  1  0
 14 15  1  0
 14 16  2  0
 16 17  1  0
 17 18  2  0
 17 19  1  0
 19 20  2  0
 20 21  1  0
 21 22  1  0
 22 23  2  0
 23 24  1  0
 24 25  1  0
 25 26  1  0
 25 27  1  0
 25 28  1  0
 24 29  1  0
 29 30  1  0
 29 31  1  0
 29 32  1  0
 24 33  1  0
 33 34  1  0
 33 35  1  0
 33 36  1  0
 23 37  1  0
 16 38  1  0
 38 39  1  0
 38 40  2  0
 40 41  1  0
  7 42  1  0
 42 43  1  0
 43 44  1  0
 44 45  1  0
 44 46  1  0
 44 47  1  0
 42 48  2  0
 48 49  1  0
 48  2  1  0
 40 11  1  0
 37 20  1  0
M  CHG  2  10  -1  21  -1
M  END
>  <UniqueID>  (84) 
75

>  <SMILES>  (84) 
COc1ccccc1C(=O)[N-]c1ccc(C(=O)/N=c2\[n-]nc(C(C)(C)C)s2)cc1

>  <Energy>  (84) 
93.34072659826484

>  <Genealogy>  (84) 
COc1ccccc1C(=O)[N-]c1ccc(C(=O)N=c2[n-]nc(C(C)(C)C)s2)cc1 (protonated)
COc1ccccc1C(=O)[N-]c1ccc(C(=O)/N=c2\[n-]nc(C(C)(C)C)s2)cc1 (cis-trans isomerization)
COc1ccccc1C(=O)[N-]c1ccc(C(=O)/N=c2\[n-]nc(C(C)(C)C)s2)cc1 (3D coordinates assigned)
COc1ccccc1C(=O)[N-]c1ccc(C(=O)/N=c2\[n-]nc(C(C)(C)C)s2)cc1 (optimized conformer: 93.34072659826484 kcal/mol)

>  <smiles>  (84) 
COc1ccccc1C(=O)Nc1ccc(C(=O)N=c2[nH]nc(C(C)(C)C)s2)cc1

>  <score_type>  (84) 
oracle

>  <origin>  (84) 
adg

>  <m_score__min__energy>  (84) 
-11.82

>  <m_primary>  (84) 
energy

$$$$
85:0
     RDKit          3D

 43 45  0  0  0  0  0  0  0  0999 V2000
   61.6110   33.8010   47.7840 C   0  0  0  0  0  0  0  0  0  0  0  0
   60.8520   34.1070   46.5760 N   0  0  0  0  0  0  0  0  0  0  0  0
   59.7030   33.3530   46.1470 C   0  0  0  0  0  0  0  0  0  0  0  0
   59.2680   32.2060   46.8380 C   0  0  0  0  0  0  0  0  0  0  0  0
   58.1480   31.4950   46.3970 C   0  0  0  0  0  0  0  0  0  0  0  0
   57.4530   31.9080   45.2470 C   0  0  0  0  0  0  0  0  0  0  0  0
   56.2850   31.2200   44.7740 N   0  0  0  0  0  0  0  0  0  0  0  0
   56.1690   29.8160   44.5050 C   0  0  0  0  0  0  0  0  0  0  0  0
   55.1210   29.3590   43.9710 O   0  0  0  0  0  0  0  0  0  0  0  0
   57.2580   28.8920   44.9040 C   0  0  0  0  0  0  0  0  0  0  0  0
   58.5770   29.1180   44.4780 C   0  0  0  0  0  0  0  0  0  0  0  0
   59.6050   28.2570   44.8650 C   0  0  0  0  0  0  0  0  0  0  0  0
   59.3410   27.1530   45.6870 C   0  0  0  0  0  0  0  0  0  0  0  0
   60.4850   26.2730   46.1170 C   0  0  0  0  0  0  0  0  0  0  0  0
   58.0100   26.8890   46.0840 C   0  0  0  0  0  0  0  0  0  0  0  0
   57.6770   25.7540   46.8950 N   0  0  0  0  0  0  0  0  0  0  0  0
   56.4250   25.0620   46.7720 C   0  0  0  0  0  0  0  0  0  0  0  0
   55.5290   25.5050   46.0020 O   0  0  0  0  0  0  0  0  0  0  0  0
   56.1650   23.8460   47.5540 C   0  0  0  0  0  0  0  0  0  0  0  0
   54.9280   23.3330   47.7260 N   0  0  0  0  0  0  0  0  0  0  0  0
   55.1340   22.2410   48.4820 C   0  0  0  0  0  0  0  0  0  0  0  0
   56.4760   22.1200   48.7480 C   0  0  0  0  0  0  0  0  0  0  0  0
   57.1380   23.1330   48.1610 N   0  0  0  0  0  0  0  0  0  0  0  0
   56.9880   27.7740   45.7130 C   0  0  0  0  0  0  0  0  0  0  0  0
   57.8690   33.0630   44.5760 C   0  0  0  0  0  0  0  0  0  0  0  0
   58.9890   33.7740   45.0160 C   0  0  0  0  0  0  0  0  0  0  0  0
   61.0054   34.0452   48.6692 H   0  0  0  0  0  0  0  0  0  0  0  0
   61.8641   32.7306   47.7967 H   0  0  0  0  0  0  0  0  0  0  0  0
   62.5357   34.3966   47.7967 H   0  0  0  0  0  0  0  0  0  0  0  0
   61.1690   34.9180   45.9980 H   0  0  0  0  0  0  0  0  0  0  0  0
   59.8133   31.8669   47.7312 H   0  0  0  0  0  0  0  0  0  0  0  0
   57.8090   30.6082   46.9525 H   0  0  0  0  0  0  0  0  0  0  0  0
   58.8018   29.9809   43.8339 H   0  0  0  0  0  0  0  0  0  0  0  0
   60.6326   28.4468   44.5215 H   0  0  0  0  0  0  0  0  0  0  0  0
   60.5288   26.2393   47.2156 H   0  0  0  0  0  0  0  0  0  0  0  0
   60.3333   25.2566   45.7247 H   0  0  0  0  0  0  0  0  0  0  0  0
   61.4285   26.6804   45.7247 H   0  0  0  0  0  0  0  0  0  0  0  0
   58.2850   25.5490   47.7190 H   0  0  0  0  0  0  0  0  0  0  0  0
   54.3510   21.5525   48.8325 H   0  0  0  0  0  0  0  0  0  0  0  0
   56.9368   21.3206   49.3468 H   0  0  0  0  0  0  0  0  0  0  0  0
   55.9602   27.5912   46.0597 H   0  0  0  0  0  0  0  0  0  0  0  0
   57.3106   33.4141   43.6957 H   0  0  0  0  0  0  0  0  0  0  0  0
   59.3133   34.6721   44.4700 H   0  0  0  0  0  0  0  0  0  0  0  0
  1  2  1  0
  2  3  1  0
  3  4  2  0
  4  5  1  0
  5  6  2  0
  6  7  1  0
  7  8  1  0
  8  9  2  0
  8 10  1  0
 10 11  2  0
 11 12  1  0
 12 13  2  0
 13 14  1  0
 13 15  1  0
 15 16  1  0
 16 17  1  0
 17 18  2  0
 17 19  1  0
 19 20  2  0
 20 21  1  0
 21 22  2  0
 22 23  1  0
 15 24  2  0
  6 25  1  0
 25 26  2  0
 26  3  1  0
 24 10  1  0
 23 19  1  0
  1 27  1  0
  1 28  1  0
  1 29  1  0
  2 30  1  0
  4 31  1  0
  5 32  1  0
 11 33  1  0
 12 34  1  0
 14 35  1  0
 14 36  1  0
 14 37  1  0
 16 38  1  0
 21 39  1  0
 22 40  1  0
 24 41  1  0
 25 42  1  0
 26 43  1  0
M  CHG  2   7  -1  23  -1
M  END
>  <UniqueID>  (85) 
76

>  <SMILES>  (85) 
CNc1ccc([N-]C(=O)c2ccc(C)c(NC(=O)c3ncc[n-]3)c2)cc1

>  <Energy>  (85) 
80.24413054864584

>  <Genealogy>  (85) 
CNc1ccc([N-]C(=O)c2ccc(C)c(NC(=O)c3ncc[n-]3)c2)cc1 (protonated)
CNc1ccc([N-]C(=O)c2ccc(C)c(NC(=O)c3ncc[n-]3)c2)cc1 (3D coordinates assigned)
CNc1ccc([N-]C(=O)c2ccc(C)c(NC(=O)c3ncc[n-]3)c2)cc1 (optimized conformer: 80.24413054864584 kcal/mol)

>  <smiles>  (85) 
CNc1ccc(NC(=O)c2ccc(C)c(NC(=O)c3ncc[nH]3)c2)cc1

>  <score_type>  (85) 
oracle

>  <origin>  (85) 
adg

>  <m_score__min__energy>  (85) 
-11.85

>  <m_primary>  (85) 
energy

$$$$
86:0
     RDKit          3D

 59 62  0  0  0  0  0  0  0  0999 V2000
   60.8114   30.5022   47.5562 H   0  0  0  0  0  0  0  0  0  0  0  0
   60.3100   29.5250   47.4960 C   0  0  0  0  0  0  0  0  0  0  0  0
   59.7130   29.1020   46.3040 C   0  0  0  0  0  0  0  0  0  0  0  0
   59.7180   29.9770   45.0820 C   0  0  0  0  0  0  0  0  0  0  0  0
   59.3460   29.3972   44.2244 H   0  0  0  0  0  0  0  0  0  0  0  0
   60.7484   30.3182   44.9032 H   0  0  0  0  0  0  0  0  0  0  0  0
   58.8370   31.1950   45.2740 C   0  0  0  0  0  0  0  0  0  0  0  0
   59.4490   32.3760   45.7380 C   0  0  0  0  0  0  0  0  0  0  0  0
   60.5324   32.3866   45.9279 H   0  0  0  0  0  0  0  0  0  0  0  0
   58.7010   33.5320   45.9600 C   0  0  0  0  0  0  0  0  0  0  0  0
   59.1935   34.4439   46.3285 H   0  0  0  0  0  0  0  0  0  0  0  0
   57.3310   33.5310   45.7150 C   0  0  0  0  0  0  0  0  0  0  0  0
   56.7396   34.4392   45.9029 H   0  0  0  0  0  0  0  0  0  0  0  0
   56.7060   32.3820   45.2320 C   0  0  0  0  0  0  0  0  0  0  0  0
   55.6231   32.3938   45.0390 H   0  0  0  0  0  0  0  0  0  0  0  0
   57.4420   31.2070   44.9880 C   0  0  0  0  0  0  0  0  0  0  0  0
   56.5750   29.8120   44.3090 S   0  0  0  0  0  0  0  0  0  0  0  0
   57.1730   29.4250   42.9850 O   0  0  0  0  0  0  0  0  0  0  0  0
   55.1350   30.1730   44.0780 O   0  0  0  0  0  0  0  0  0  0  0  0
   56.6280   28.4700   45.4010 N   0  0  0  0  0  0  0  0  0  0  0  0
   56.1680   27.6570   44.9340 H   0  0  0  0  0  0  0  0  0  0  0  0
   57.6330   28.2220   45.5370 H   0  0  0  0  0  0  0  0  0  0  0  0
   59.1230   27.8790   46.2500 N   0  0  0  0  0  0  0  0  0  0  0  0
   59.0940   27.0580   47.3360 C   0  0  0  0  0  0  0  0  0  0  0  0
   58.5420   25.8820   47.2680 N   0  0  0  0  0  0  0  0  0  0  0  0
   57.1180   25.6180   47.4770 C   0  0  0  0  0  0  0  0  0  0  0  0
   56.9831   25.1008   48.4384 H   0  0  0  0  0  0  0  0  0  0  0  0
   56.5759   26.5752   47.4816 H   0  0  0  0  0  0  0  0  0  0  0  0
   56.5720   24.7540   46.3680 C   0  0  0  0  0  0  0  0  0  0  0  0
   57.1940   23.5330   46.0530 C   0  0  0  0  0  0  0  0  0  0  0  0
   58.0973   23.2225   46.5985 H   0  0  0  0  0  0  0  0  0  0  0  0
   56.6710   22.7120   45.0510 C   0  0  0  0  0  0  0  0  0  0  0  0
   57.1617   21.7571   44.8115 H   0  0  0  0  0  0  0  0  0  0  0  0
   55.5260   23.1020   44.3530 C   0  0  0  0  0  0  0  0  0  0  0  0
   55.1172   22.4555   43.5625 H   0  0  0  0  0  0  0  0  0  0  0  0
   54.9000   24.3120   44.6580 C   0  0  0  0  0  0  0  0  0  0  0  0
   53.9992   24.6173   44.1054 H   0  0  0  0  0  0  0  0  0  0  0  0
   55.4140   25.1380   45.6640 C   0  0  0  0  0  0  0  0  0  0  0  0
   54.7680   26.3340   45.9600 O   0  0  0  0  0  0  0  0  0  0  0  0
   59.6530   27.4670   48.5040 N   0  0  0  0  0  0  0  0  0  0  0  0
   60.2570   28.6830   48.6070 C   0  0  0  0  0  0  0  0  0  0  0  0
   60.8220   29.1070   49.8150 O   0  0  0  0  0  0  0  0  0  0  0  0
   60.9290   30.4760   50.1990 C   0  0  0  0  0  0  0  0  0  0  0  0
   60.2562   31.0789   49.5714 H   0  0  0  0  0  0  0  0  0  0  0  0
   60.6507   30.5643   51.2595 H   0  0  0  0  0  0  0  0  0  0  0  0
   62.3640   30.9860   50.0280 C   0  0  0  0  0  0  0  0  0  0  0  0
   62.6753   31.4966   50.9513 H   0  0  0  0  0  0  0  0  0  0  0  0
   63.0164   30.1249   49.8208 H   0  0  0  0  0  0  0  0  0  0  0  0
   62.4680   31.9500   48.8750 C   0  0  0  0  0  0  0  0  0  0  0  0
   63.5870   31.9230   48.0250 C   0  0  0  0  0  0  0  0  0  0  0  0
   64.3709   31.1661   48.1755 H   0  0  0  0  0  0  0  0  0  0  0  0
   63.7080   32.8530   46.9900 C   0  0  0  0  0  0  0  0  0  0  0  0
   64.5859   32.8260   46.3277 H   0  0  0  0  0  0  0  0  0  0  0  0
   62.7160   33.8180   46.7940 C   0  0  0  0  0  0  0  0  0  0  0  0
   62.8120   34.5483   45.9770 H   0  0  0  0  0  0  0  0  0  0  0  0
   61.6010   33.8540   47.6380 C   0  0  0  0  0  0  0  0  0  0  0  0
   60.8195   34.6124   47.4830 H   0  0  0  0  0  0  0  0  0  0  0  0
   61.4780   32.9280   48.6780 C   0  0  0  0  0  0  0  0  0  0  0  0
   60.6036   32.9649   49.3443 H   0  0  0  0  0  0  0  0  0  0  0  0
  1  2  1  0
  2  3  1  0
  3  4  1  0
  4  5  1  0
  4  6  1  0
  4  7  1  0
  7  8  2  0
  8  9  1  0
  8 10  1  0
 10 11  1  0
 10 12  2  0
 12 13  1  0
 12 14  1  0
 14 15  1  0
 14 16  2  0
 16 17  1  0
 17 18  2  0
 17 19  2  0
 17 20  1  0
 20 21  1  0
 20 22  1  0
  3 23  2  0
 23 24  1  0
 24 25  2  0
 25 26  1  0
 26 27  1  0
 26 28  1  0
 26 29  1  0
 29 30  2  0
 30 31  1  0
 30 32  1  0
 32 33  1  0
 32 34  2  0
 34 35  1  0
 34 36  1  0
 36 37  1  0
 36 38  2  0
 38 39  1  0
 24 40  1  0
 40 41  1  0
 41 42  1  0
 42 43  1  0
 43 44  1  0
 43 45  1  0
 43 46  1  0
 46 47  1  0
 46 48  1  0
 46 49  1  0
 49 50  2  0
 50 51  1  0
 50 52  1  0
 52 53  1  0
 52 54  2  0
 54 55  1  0
 54 56  1  0
 56 57  1  0
 56 58  2  0
 58 59  1  0
 41  2  2  0
 58 49  1  0
 16  7  1  0
 38 29  1  0
M  CHG  2  39  -1  40  -1
M  END
>  <UniqueID>  (86) 
77

>  <SMILES>  (86) 
NS(=O)(=O)c1ccccc1Cc1cc(OCCc2ccccc2)[n-]/c(=N/Cc2ccccc2[O-])n1

>  <Energy>  (86) 
59.39297970488023

>  <Genealogy>  (86) 
NS(=O)(=O)c1ccccc1Cc1cc(OCCc2ccccc2)[n-]c(=NCc2ccccc2[O-])n1 (protonated)
NS(=O)(=O)c1ccccc1Cc1cc(OCCc2ccccc2)[n-]/c(=N/Cc2ccccc2[O-])n1 (cis-trans isomerization)
NS(=O)(=O)c1ccccc1Cc1cc(OCCc2ccccc2)[n-]/c(=N/Cc2ccccc2[O-])n1 (3D coordinates assigned)
NS(=O)(=O)c1ccccc1Cc1cc(OCCc2ccccc2)[n-]/c(=N/Cc2ccccc2[O-])n1 (optimized conformer: 59.39297970488023 kcal/mol)

>  <smiles>  (86) 
NS(=O)(=O)c1ccccc1Cc1cc(OCCc2ccccc2)[nH]c(=NCc2ccccc2O)n1

>  <score_type>  (86) 
oracle

>  <origin>  (86) 
adg

>  <m_score__min__energy>  (86) 
-15.039999999999999

>  <m_primary>  (86) 
energy

$$$$
87:0
     RDKit          3D

 45 47  0  0  0  0  0  0  0  0999 V2000
   55.5090   24.1080   45.5480 C   0  0  0  0  0  0  0  0  0  0  0  0
   55.7640   25.5610   45.8220 C   0  0  0  0  0  0  0  0  0  0  0  0
   54.7710   26.3230   45.9780 O   0  0  0  0  0  0  0  0  0  0  0  0
   57.1420   26.1150   45.9100 C   0  0  0  0  0  0  0  0  0  0  0  0
   58.2680   25.2700   45.9560 C   0  0  0  0  0  0  0  0  0  0  0  0
   59.5530   25.8070   46.0580 C   0  0  0  0  0  0  0  0  0  0  0  0
   59.7360   27.1890   46.1050 C   0  0  0  0  0  0  0  0  0  0  0  0
   58.6350   28.0520   46.0340 C   0  0  0  0  0  0  0  0  0  0  0  0
   58.8490   29.4720   46.1070 N   0  0  0  0  0  0  0  0  0  0  0  0
   57.8950   30.4510   45.6540 C   0  0  0  0  0  0  0  0  0  0  0  0
   56.8370   30.0770   45.0770 O   0  0  0  0  0  0  0  0  0  0  0  0
   58.1300   31.9010   45.8470 C   0  0  0  0  0  0  0  0  0  0  0  0
   57.9750   32.7810   44.7620 C   0  0  0  0  0  0  0  0  0  0  0  0
   58.1940   34.1510   44.9250 C   0  0  0  0  0  0  0  0  0  0  0  0
   58.5820   34.6590   46.1640 C   0  0  0  0  0  0  0  0  0  0  0  0
   58.7650   33.7920   47.2580 C   0  0  0  0  0  0  0  0  0  0  0  0
   59.1730   34.2470   48.5240 O   0  0  0  0  0  0  0  0  0  0  0  0
   60.1330   33.6030   49.3620 C   0  0  0  0  0  0  0  0  0  0  0  0
   61.3630   33.2290   48.5790 C   0  0  0  0  0  0  0  0  0  0  0  0
   62.3500   34.1890   48.2960 C   0  0  0  0  0  0  0  0  0  0  0  0
   63.4950   33.8310   47.5770 C   0  0  0  0  0  0  0  0  0  0  0  0
   63.6660   32.5140   47.1430 C   0  0  0  0  0  0  0  0  0  0  0  0
   62.6950   31.5510   47.4320 C   0  0  0  0  0  0  0  0  0  0  0  0
   61.5490   31.9040   48.1500 C   0  0  0  0  0  0  0  0  0  0  0  0
   58.5360   32.4210   47.0900 C   0  0  0  0  0  0  0  0  0  0  0  0
   57.3400   27.5090   45.9580 C   0  0  0  0  0  0  0  0  0  0  0  0
   55.4139   23.5664   46.5007 H   0  0  0  0  0  0  0  0  0  0  0  0
   54.5784   24.0014   44.9712 H   0  0  0  0  0  0  0  0  0  0  0  0
   56.3477   23.6909   44.9712 H   0  0  0  0  0  0  0  0  0  0  0  0
   58.1341   24.1791   45.9113 H   0  0  0  0  0  0  0  0  0  0  0  0
   60.4246   25.1373   46.1015 H   0  0  0  0  0  0  0  0  0  0  0  0
   60.7506   27.6035   46.1983 H   0  0  0  0  0  0  0  0  0  0  0  0
   59.7770   29.7900   46.4650 H   0  0  0  0  0  0  0  0  0  0  0  0
   57.6793   32.3883   43.7780 H   0  0  0  0  0  0  0  0  0  0  0  0
   58.0597   34.8322   44.0718 H   0  0  0  0  0  0  0  0  0  0  0  0
   58.7455   35.7398   46.2871 H   0  0  0  0  0  0  0  0  0  0  0  0
   60.4177   34.2868   50.1753 H   0  0  0  0  0  0  0  0  0  0  0  0
   59.6840   32.6860   49.7712 H   0  0  0  0  0  0  0  0  0  0  0  0
   62.2214   35.2255   48.6412 H   0  0  0  0  0  0  0  0  0  0  0  0
   64.2618   34.5872   47.3529 H   0  0  0  0  0  0  0  0  0  0  0  0
   64.5649   32.2349   46.5738 H   0  0  0  0  0  0  0  0  0  0  0  0
   62.8330   30.5134   47.0937 H   0  0  0  0  0  0  0  0  0  0  0  0
   60.7900   31.1418   48.3801 H   0  0  0  0  0  0  0  0  0  0  0  0
   58.6756   31.7400   47.9425 H   0  0  0  0  0  0  0  0  0  0  0  0
   56.4700   28.1817   45.9357 H   0  0  0  0  0  0  0  0  0  0  0  0
  1  2  1  0
  2  3  2  0
  2  4  1  0
  4  5  2  0
  5  6  1  0
  6  7  2  0
  7  8  1  0
  8  9  1  0
  9 10  1  0
 10 11  2  0
 10 12  1  0
 12 13  2  0
 13 14  1  0
 14 15  2  0
 15 16  1  0
 16 17  1  0
 17 18  1  0
 18 19  1  0
 19 20  2  0
 20 21  1  0
 21 22  2  0
 22 23  1  0
 23 24  2  0
 16 25  2  0
  8 26  2  0
 26  4  1  0
 25 12  1  0
 24 19  1  0
  1 27  1  0
  1 28  1  0
  1 29  1  0
  5 30  1  0
  6 31  1  0
  7 32  1  0
  9 33  1  0
 13 34  1  0
 14 35  1  0
 15 36  1  0
 18 37  1  0
 18 38  1  0
 20 39  1  0
 21 40  1  0
 22 41  1  0
 23 42  1  0
 24 43  1  0
 25 44  1  0
 26 45  1  0
M  END
>  <UniqueID>  (87) 
78

>  <SMILES>  (87) 
CC(=O)c1cccc(NC(=O)c2cccc(OCc3ccccc3)c2)c1

>  <Energy>  (87) 
54.80045208406786

>  <Genealogy>  (87) 
CC(=O)c1cccc(NC(=O)c2cccc(OCc3ccccc3)c2)c1 (3D coordinates assigned)
CC(=O)c1cccc(NC(=O)c2cccc(OCc3ccccc3)c2)c1 (optimized conformer: 54.80045208406786 kcal/mol)

>  <smiles>  (87) 
CC(=O)c1cccc(NC(=O)c2cccc(OCc3ccccc3)c2)c1

>  <score_type>  (87) 
oracle

>  <origin>  (87) 
adg

>  <m_score__min__energy>  (87) 
-9.1400000000000006

>  <m_primary>  (87) 
energy

$$$$
88:0
     RDKit          3D

 44 45  0  0  0  0  0  0  0  0999 V2000
   56.7570   30.8110   43.8790 C   0  0  0  0  0  0  0  0  0  0  0  0
   56.7650   31.5840   45.0760 O   0  0  0  0  0  0  0  0  0  0  0  0
   57.7130   32.5760   45.3770 C   0  0  0  0  0  0  0  0  0  0  0  0
   57.8240   33.7550   44.6140 C   0  0  0  0  0  0  0  0  0  0  0  0
   58.7860   34.7160   44.9330 C   0  0  0  0  0  0  0  0  0  0  0  0
   59.6500   34.5110   46.0080 C   0  0  0  0  0  0  0  0  0  0  0  0
   59.5530   33.3480   46.7720 C   0  0  0  0  0  0  0  0  0  0  0  0
   58.5790   32.3800   46.4740 C   0  0  0  0  0  0  0  0  0  0  0  0
   58.5150   31.1080   47.2840 C   0  0  0  0  0  0  0  0  0  0  0  0
   58.0880   29.9910   46.4430 N   0  0  0  0  0  0  0  0  0  0  0  0
   58.9840   28.9300   46.0830 C   0  0  0  0  0  0  0  0  0  0  0  0
   60.0950   28.8200   46.6660 O   0  0  0  0  0  0  0  0  0  0  0  0
   58.6440   27.9890   45.0560 N   0  0  0  0  0  0  0  0  0  0  0  0
   57.8640   26.7720   45.2600 C   0  0  0  0  0  0  0  0  0  0  0  0
   56.4500   27.1140   45.6110 C   0  0  0  0  0  0  0  0  0  0  0  0
   56.0020   28.2610   45.3450 O   0  0  0  0  0  0  0  0  0  0  0  0
   55.6170   26.1280   46.2330 N   0  0  0  0  0  0  0  0  0  0  0  0
   55.8930   24.7230   46.3320 C   0  0  0  0  0  0  0  0  0  0  0  0
   56.0580   24.0850   47.5740 C   0  0  0  0  0  0  0  0  0  0  0  0
   56.3580   22.7210   47.6260 C   0  0  0  0  0  0  0  0  0  0  0  0
   56.5050   21.9880   46.4470 C   0  0  0  0  0  0  0  0  0  0  0  0
   56.3640   22.6190   45.2040 C   0  0  0  0  0  0  0  0  0  0  0  0
   56.5700   21.6860   43.7250 S   0  0  0  0  0  0  0  0  0  0  0  0
   55.8970   20.1090   43.9330 N   0  0  0  0  0  0  0  0  0  0  0  0
   58.0310   21.5580   43.3930 O   0  0  0  0  0  0  0  0  0  0  0  0
   55.8760   22.3860   42.5910 O   0  0  0  0  0  0  0  0  0  0  0  0
   56.0710   23.9890   45.1530 C   0  0  0  0  0  0  0  0  0  0  0  0
   56.7459   29.7409   44.1336 H   0  0  0  0  0  0  0  0  0  0  0  0
   55.8614   31.0570   43.2897 H   0  0  0  0  0  0  0  0  0  0  0  0
   57.6575   31.0384   43.2897 H   0  0  0  0  0  0  0  0  0  0  0  0
   57.1487   33.9198   43.7615 H   0  0  0  0  0  0  0  0  0  0  0  0
   58.8622   35.6362   44.3351 H   0  0  0  0  0  0  0  0  0  0  0  0
   60.4095   35.2678   46.2540 H   0  0  0  0  0  0  0  0  0  0  0  0
   60.2434   33.1876   47.6132 H   0  0  0  0  0  0  0  0  0  0  0  0
   59.5109   30.8907   47.6974 H   0  0  0  0  0  0  0  0  0  0  0  0
   57.7886   31.2396   48.0994 H   0  0  0  0  0  0  0  0  0  0  0  0
   57.0870   29.9350   46.1510 H   0  0  0  0  0  0  0  0  0  0  0  0
   57.8743   26.1752   44.3360 H   0  0  0  0  0  0  0  0  0  0  0  0
   58.3083   26.1964   46.0854 H   0  0  0  0  0  0  0  0  0  0  0  0
   55.9509   24.6600   48.5056 H   0  0  0  0  0  0  0  0  0  0  0  0
   56.4787   22.2232   48.5994 H   0  0  0  0  0  0  0  0  0  0  0  0
   56.7320   20.9127   46.4940 H   0  0  0  0  0  0  0  0  0  0  0  0
   56.6970   19.4440   44.0230 H   0  0  0  0  0  0  0  0  0  0  0  0
   55.9802   24.4915   44.1787 H   0  0  0  0  0  0  0  0  0  0  0  0
  1  2  1  0
  2  3  1  0
  3  4  2  0
  4  5  1  0
  5  6  2  0
  6  7  1  0
  7  8  2  0
  8  9  1  0
  9 10  1  0
 10 11  1  0
 11 12  2  0
 11 13  1  0
 13 14  1  0
 14 15  1  0
 15 16  2  0
 15 17  1  0
 17 18  1  0
 18 19  2  0
 19 20  1  0
 20 21  2  0
 21 22  1  0
 22 23  1  0
 23 24  1  0
 23 25  2  0
 23 26  2  0
 22 27  2  0
  8  3  1  0
 27 18  1  0
  1 28  1  0
  1 29  1  0
  1 30  1  0
  4 31  1  0
  5 32  1  0
  6 33  1  0
  7 34  1  0
  9 35  1  0
  9 36  1  0
 10 37  1  0
 14 38  1  0
 14 39  1  0
 19 40  1  0
 20 41  1  0
 21 42  1  0
 24 43  1  0
 27 44  1  0
M  CHG  3  13  -1  17  -1  24  -1
M  END
>  <UniqueID>  (88) 
79

>  <SMILES>  (88) 
COc1ccccc1CNC(=O)[N-]CC(=O)[N-]c1cccc(S([NH-])(=O)=O)c1

>  <Energy>  (88) 
37.47150750480968

>  <Genealogy>  (88) 
COc1ccccc1CNC(=O)[N-]CC(=O)[N-]c1cccc(S([NH-])(=O)=O)c1 (protonated)
COc1ccccc1CNC(=O)[N-]CC(=O)[N-]c1cccc(S([NH-])(=O)=O)c1 (3D coordinates assigned)
COc1ccccc1CNC(=O)[N-]CC(=O)[N-]c1cccc(S([NH-])(=O)=O)c1 (optimized conformer: 37.47150750480968 kcal/mol)

>  <smiles>  (88) 
COc1ccccc1CNC(=O)NCC(=O)Nc1cccc(S(N)(=O)=O)c1

>  <score_type>  (88) 
oracle

>  <origin>  (88) 
adg

>  <m_score__min__energy>  (88) 
-13.76

>  <m_primary>  (88) 
energy

$$$$
89:0
     RDKit          3D

 44 46  0  0  0  0  0  0  0  0999 V2000
   61.5700   34.0170   48.3210 C   0  0  0  0  0  0  0  0  0  0  0  0
   60.1470   33.6600   48.3550 N   0  0  0  0  0  0  0  0  0  0  0  0
   59.5780   33.0710   49.5810 C   0  0  0  0  0  0  0  0  0  0  0  0
   59.4820   31.5510   49.4560 C   0  0  0  0  0  0  0  0  0  0  0  0
   60.0090   31.1450   48.1960 O   0  0  0  0  0  0  0  0  0  0  0  0
   59.4740   30.1140   47.4100 C   0  0  0  0  0  0  0  0  0  0  0  0
   58.3650   30.4010   46.6040 C   0  0  0  0  0  0  0  0  0  0  0  0
   57.7950   29.4090   45.8010 C   0  0  0  0  0  0  0  0  0  0  0  0
   58.3230   28.1080   45.8010 C   0  0  0  0  0  0  0  0  0  0  0  0
   57.7340   27.0510   44.9070 C   0  0  0  0  0  0  0  0  0  0  0  0
   57.2910   25.8770   45.7210 C   0  0  0  0  0  0  0  0  0  0  0  0
   58.2900   24.6200   46.2350 S   0  0  0  0  0  0  0  0  0  0  0  0
   57.0510   23.8820   47.1000 C   0  0  0  0  0  0  0  0  0  0  0  0
   57.1810   22.8130   47.7520 O   0  0  0  0  0  0  0  0  0  0  0  0
   55.8880   24.5620   47.0300 N   0  0  0  0  0  0  0  0  0  0  0  0
   56.0240   25.6800   46.2660 C   0  0  0  0  0  0  0  0  0  0  0  0
   54.9660   26.5580   46.0550 O   0  0  0  0  0  0  0  0  0  0  0  0
   59.4400   27.8200   46.5990 C   0  0  0  0  0  0  0  0  0  0  0  0
   60.0100   28.8130   47.4010 C   0  0  0  0  0  0  0  0  0  0  0  0
   59.3310   33.8690   47.1790 C   0  0  0  0  0  0  0  0  0  0  0  0
   59.8800   34.4260   46.0060 C   0  0  0  0  0  0  0  0  0  0  0  0
   59.0840   34.6290   44.8760 C   0  0  0  0  0  0  0  0  0  0  0  0
   57.7330   34.2790   44.8970 C   0  0  0  0  0  0  0  0  0  0  0  0
   57.1750   33.7230   46.0490 C   0  0  0  0  0  0  0  0  0  0  0  0
   57.9660   33.5170   47.1840 C   0  0  0  0  0  0  0  0  0  0  0  0
   61.9489   34.1120   49.3493 H   0  0  0  0  0  0  0  0  0  0  0  0
   62.1324   33.2321   47.7941 H   0  0  0  0  0  0  0  0  0  0  0  0
   61.6953   34.9744   47.7941 H   0  0  0  0  0  0  0  0  0  0  0  0
   60.2231   33.3230   50.4356 H   0  0  0  0  0  0  0  0  0  0  0  0
   58.5673   33.4778   49.7326 H   0  0  0  0  0  0  0  0  0  0  0  0
   60.0596   31.0792   50.2645 H   0  0  0  0  0  0  0  0  0  0  0  0
   58.4288   31.2423   49.5302 H   0  0  0  0  0  0  0  0  0  0  0  0
   57.9392   31.4152   46.6029 H   0  0  0  0  0  0  0  0  0  0  0  0
   56.9291   29.6486   45.1664 H   0  0  0  0  0  0  0  0  0  0  0  0
   56.8693   27.4688   44.3707 H   0  0  0  0  0  0  0  0  0  0  0  0
   58.4980   26.7220   44.1872 H   0  0  0  0  0  0  0  0  0  0  0  0
   54.0320   26.3300   46.3740 H   0  0  0  0  0  0  0  0  0  0  0  0
   59.8697   26.8074   46.5937 H   0  0  0  0  0  0  0  0  0  0  0  0
   60.8820   28.5761   48.0283 H   0  0  0  0  0  0  0  0  0  0  0  0
   60.9442   34.7031   45.9803 H   0  0  0  0  0  0  0  0  0  0  0  0
   59.5232   35.0659   43.9671 H   0  0  0  0  0  0  0  0  0  0  0  0
   57.1085   34.4413   44.0061 H   0  0  0  0  0  0  0  0  0  0  0  0
   56.1105   33.4461   46.0644 H   0  0  0  0  0  0  0  0  0  0  0  0
   57.5194   33.0768   48.0877 H   0  0  0  0  0  0  0  0  0  0  0  0
  1  2  1  0
  2  3  1  0
  3  4  1  0
  4  5  1  0
  5  6  1  0
  6  7  2  0
  7  8  1  0
  8  9  2  0
  9 10  1  0
 10 11  1  0
 11 12  1  0
 12 13  1  0
 13 14  2  0
 13 15  1  0
 15 16  1  0
 16 17  1  0
  9 18  1  0
 18 19  2  0
  2 20  1  0
 20 21  2  0
 21 22  1  0
 22 23  2  0
 23 24  1  0
 24 25  2  0
 19  6  1  0
 25 20  1  0
 16 11  2  0
  1 26  1  0
  1 27  1  0
  1 28  1  0
  3 29  1  0
  3 30  1  0
  4 31  1  0
  4 32  1  0
  7 33  1  0
  8 34  1  0
 10 35  1  0
 10 36  1  0
 17 37  1  0
 18 38  1  0
 19 39  1  0
 21 40  1  0
 22 41  1  0
 23 42  1  0
 24 43  1  0
 25 44  1  0
M  CHG  1  15  -1
M  END
>  <UniqueID>  (89) 
80

>  <SMILES>  (89) 
CN(CCOc1ccc(Cc2sc(=O)[n-]c2O)cc1)c1ccccc1

>  <Energy>  (89) 
74.11959621899246

>  <Genealogy>  (89) 
CN(CCOc1ccc(Cc2sc(=O)[n-]c2O)cc1)c1ccccc1 (protonated)
CN(CCOc1ccc(Cc2sc(=O)[n-]c2O)cc1)c1ccccc1 (3D coordinates assigned)
CN(CCOc1ccc(Cc2sc(=O)[n-]c2O)cc1)c1ccccc1 (optimized conformer: 74.11959621899246 kcal/mol)

>  <smiles>  (89) 
CN(CCOc1ccc(Cc2sc(=O)[nH]c2O)cc1)c1ccccc1

>  <score_type>  (89) 
oracle

>  <origin>  (89) 
adg

>  <m_score__min__energy>  (89) 
-10.93

>  <m_primary>  (89) 
energy

$$$$
90:0
     RDKit          3D

 31 32  0  0  0  0  0  0  0  0999 V2000
   59.8260   29.2930   45.7550 C   0  0  0  0  0  0  0  0  0  0  0  0
   58.6350   28.5390   45.3620 N   0  0  0  0  0  0  0  0  0  0  0  0
   58.5240   27.1550   45.7410 C   0  0  0  0  0  0  0  0  0  0  0  0
   59.4520   26.6160   46.4040 O   0  0  0  0  0  0  0  0  0  0  0  0
   57.3780   26.3820   45.3450 N   0  0  0  0  0  0  0  0  0  0  0  0
   57.3290   24.9450   45.4160 C   0  0  0  0  0  0  0  0  0  0  0  0
   58.5220   24.2050   45.3060 C   0  0  0  0  0  0  0  0  0  0  0  0
   58.4960   22.8100   45.2820 C   0  0  0  0  0  0  0  0  0  0  0  0
   57.2810   22.1330   45.3520 C   0  0  0  0  0  0  0  0  0  0  0  0
   56.0860   22.8480   45.4480 C   0  0  0  0  0  0  0  0  0  0  0  0
   56.0890   24.2560   45.4860 C   0  0  0  0  0  0  0  0  0  0  0  0
   54.7940   24.9660   45.6310 C   0  0  0  0  0  0  0  0  0  0  0  0
   54.7660   26.3420   46.0040 N   0  0  0  0  0  0  0  0  0  0  0  0
   53.7070   24.3730   45.3990 O   0  0  0  0  0  0  0  0  0  0  0  0
   57.5340   29.2400   44.7600 C   0  0  0  0  0  0  0  0  0  0  0  0
   57.6280   30.2570   43.8300 C   0  0  0  0  0  0  0  0  0  0  0  0
   56.3260   30.5980   43.5290 C   0  0  0  0  0  0  0  0  0  0  0  0
   55.5240   29.7660   44.2850 C   0  0  0  0  0  0  0  0  0  0  0  0
   56.2730   28.9640   45.0070 O   0  0  0  0  0  0  0  0  0  0  0  0
   59.8891   29.3329   46.8525 H   0  0  0  0  0  0  0  0  0  0  0  0
   60.7225   28.7976   45.3540 H   0  0  0  0  0  0  0  0  0  0  0  0
   59.7617   30.3153   45.3540 H   0  0  0  0  0  0  0  0  0  0  0  0
   56.5710   26.8780   44.9030 H   0  0  0  0  0  0  0  0  0  0  0  0
   59.4850   24.7324   45.2382 H   0  0  0  0  0  0  0  0  0  0  0  0
   59.4365   22.2443   45.2077 H   0  0  0  0  0  0  0  0  0  0  0  0
   57.2630   21.0333   45.3316 H   0  0  0  0  0  0  0  0  0  0  0  0
   55.1303   22.3053   45.4945 H   0  0  0  0  0  0  0  0  0  0  0  0
   55.1480   27.0780   45.3690 H   0  0  0  0  0  0  0  0  0  0  0  0
   58.5461   30.7006   43.4173 H   0  0  0  0  0  0  0  0  0  0  0  0
   55.9930   31.3768   42.8272 H   0  0  0  0  0  0  0  0  0  0  0  0
   54.4240   29.7737   44.2829 H   0  0  0  0  0  0  0  0  0  0  0  0
  1  2  1  0
  2  3  1  0
  3  4  2  0
  3  5  1  0
  5  6  1  0
  6  7  2  0
  7  8  1  0
  8  9  2  0
  9 10  1  0
 10 11  2  0
 11 12  1  0
 12 13  1  0
 12 14  2  0
  2 15  1  0
 15 16  2  0
 16 17  1  0
 17 18  2  0
 18 19  1  0
 11  6  1  0
 19 15  1  0
  1 20  1  0
  1 21  1  0
  1 22  1  0
  5 23  1  0
  7 24  1  0
  8 25  1  0
  9 26  1  0
 10 27  1  0
 13 28  1  0
 16 29  1  0
 17 30  1  0
 18 31  1  0
M  CHG  1  13  -1
M  END
>  <UniqueID>  (90) 
81

>  <SMILES>  (90) 
CN(C(=O)Nc1ccccc1C([NH-])=O)c1ccco1

>  <Energy>  (90) 
68.83698484456123

>  <Genealogy>  (90) 
CN(C(=O)Nc1ccccc1C([NH-])=O)c1ccco1 (protonated)
CN(C(=O)Nc1ccccc1C([NH-])=O)c1ccco1 (3D coordinates assigned)
CN(C(=O)Nc1ccccc1C([NH-])=O)c1ccco1 (optimized conformer: 68.83698484456123 kcal/mol)

>  <smiles>  (90) 
CN(C(=O)Nc1ccccc1C(N)=O)c1ccco1

>  <score_type>  (90) 
oracle

>  <origin>  (90) 
adg

>  <m_score__min__energy>  (90) 
-9.4399999999999995

>  <m_primary>  (90) 
energy

$$$$
91:0
     RDKit          3D

 52 54  0  0  0  0  0  0  0  0999 V2000
   64.3070   33.2450   48.9260 C   0  0  0  0  0  0  0  0  0  0  0  0
   63.0280   33.5410   49.7400 C   0  0  1  0  0  0  0  0  0  0  0  0
   61.8680   33.7050   48.7630 C   0  0  0  0  0  0  0  0  0  0  0  0
   60.5670   33.9330   49.2430 C   0  0  0  0  0  0  0  0  0  0  0  0
   59.4960   34.0670   48.3550 C   0  0  0  0  0  0  0  0  0  0  0  0
   59.7060   33.9630   46.9690 C   0  0  0  0  0  0  0  0  0  0  0  0
   58.6570   34.1010   46.0470 O   0  0  0  0  0  0  0  0  0  0  0  0
   58.2920   33.1480   45.0850 C   0  0  0  0  0  0  0  0  0  0  0  0
   58.4550   33.4630   43.7310 C   0  0  0  0  0  0  0  0  0  0  0  0
   58.1190   32.5330   42.7440 C   0  0  0  0  0  0  0  0  0  0  0  0
   57.6260   31.2760   43.1030 C   0  0  0  0  0  0  0  0  0  0  0  0
   57.4690   30.9420   44.4550 C   0  0  0  0  0  0  0  0  0  0  0  0
   56.8770   29.3500   44.9160 S   0  0  0  0  0  0  0  0  0  0  0  0
   55.1520   29.3270   44.8230 N   0  0  0  0  0  0  0  0  0  0  0  0
   57.3040   29.0310   46.3220 O   0  0  0  0  0  0  0  0  0  0  0  0
   57.4460   28.3100   43.9920 O   0  0  0  0  0  0  0  0  0  0  0  0
   57.8160   31.8730   45.4440 C   0  0  0  0  0  0  0  0  0  0  0  0
   61.0020   33.7590   46.4870 C   0  0  0  0  0  0  0  0  0  0  0  0
   62.0750   33.6240   47.3720 C   0  0  0  0  0  0  0  0  0  0  0  0
   62.7530   32.4870   50.7680 N   0  0  2  0  0  0  0  0  0  0  0  0
   63.6890   32.5710   51.9120 C   0  0  0  0  0  0  0  0  0  0  0  0
   62.7330   31.1030   50.2130 C   0  0  0  0  0  0  0  0  0  0  0  0
   61.4140   30.7030   49.5730 C   0  0  0  0  0  0  0  0  0  0  0  0
   60.2440   30.6230   50.3510 C   0  0  0  0  0  0  0  0  0  0  0  0
   59.0270   30.2580   49.7640 C   0  0  0  0  0  0  0  0  0  0  0  0
   58.9640   29.9820   48.3970 C   0  0  0  0  0  0  0  0  0  0  0  0
   60.1150   30.0790   47.6120 C   0  0  0  0  0  0  0  0  0  0  0  0
   61.3330   30.4440   48.1930 C   0  0  0  0  0  0  0  0  0  0  0  0
   65.1430   33.0515   49.6142 H   0  0  0  0  0  0  0  0  0  0  0  0
   64.1419   32.3613   48.2921 H   0  0  0  0  0  0  0  0  0  0  0  0
   64.5469   34.1114   48.2921 H   0  0  0  0  0  0  0  0  0  0  0  0
   63.1652   34.4725   50.3088 H   0  0  0  0  0  0  0  0  0  0  0  0
   60.3902   34.0066   50.3262 H   0  0  0  0  0  0  0  0  0  0  0  0
   58.4838   34.2548   48.7426 H   0  0  0  0  0  0  0  0  0  0  0  0
   58.8499   34.4483   43.4424 H   0  0  0  0  0  0  0  0  0  0  0  0
   58.2429   32.7910   41.6819 H   0  0  0  0  0  0  0  0  0  0  0  0
   57.3606   30.5471   42.3230 H   0  0  0  0  0  0  0  0  0  0  0  0
   54.7930   29.3550   45.8030 H   0  0  0  0  0  0  0  0  0  0  0  0
   57.7157   31.6056   46.5063 H   0  0  0  0  0  0  0  0  0  0  0  0
   61.1787   33.7043   45.4027 H   0  0  0  0  0  0  0  0  0  0  0  0
   63.0884   33.4533   46.9797 H   0  0  0  0  0  0  0  0  0  0  0  0
   61.7950   32.6590   51.1570 H   0  0  0  0  0  0  0  0  0  0  0  0
   63.1226   32.5202   52.8536 H   0  0  0  0  0  0  0  0  0  0  0  0
   64.4002   31.7331   51.8662 H   0  0  0  0  0  0  0  0  0  0  0  0
   64.2396   33.5222   51.8662 H   0  0  0  0  0  0  0  0  0  0  0  0
   63.5225   31.0264   49.4509 H   0  0  0  0  0  0  0  0  0  0  0  0
   62.8896   30.4216   51.0622 H   0  0  0  0  0  0  0  0  0  0  0  0
   60.2862   30.8487   51.4268 H   0  0  0  0  0  0  0  0  0  0  0  0
   58.1188   30.1885   50.3807 H   0  0  0  0  0  0  0  0  0  0  0  0
   58.0083   29.6883   47.9384 H   0  0  0  0  0  0  0  0  0  0  0  0
   60.0630   29.8677   46.5337 H   0  0  0  0  0  0  0  0  0  0  0  0
   62.2335   30.5292   47.5670 H   0  0  0  0  0  0  0  0  0  0  0  0
  1  2  1  0
  2  3  1  0
  3  4  2  0
  4  5  1  0
  5  6  2  0
  6  7  1  0
  7  8  1  0
  8  9  2  0
  9 10  1  0
 10 11  2  0
 11 12  1  0
 12 13  1  0
 13 14  1  0
 13 15  2  0
 13 16  2  0
 12 17  2  0
  6 18  1  0
 18 19  2  0
  2 20  1  0
 20 21  1  0
 20 22  1  0
 22 23  1  0
 23 24  2  0
 24 25  1  0
 25 26  2  0
 26 27  1  0
 27 28  2  0
 19  3  1  0
 28 23  1  0
 17  8  1  0
  1 29  1  0
  1 30  1  0
  1 31  1  0
  2 32  1  1
  4 33  1  0
  5 34  1  0
  9 35  1  0
 10 36  1  0
 11 37  1  0
 14 38  1  0
 17 39  1  0
 18 40  1  0
 19 41  1  0
 20 42  1  1
 21 43  1  0
 21 44  1  0
 21 45  1  0
 22 46  1  0
 22 47  1  0
 24 48  1  0
 25 49  1  0
 26 50  1  0
 27 51  1  0
 28 52  1  0
M  CHG  2  14  -1  20   1
M  END
>  <UniqueID>  (91) 
82

>  <SMILES>  (91) 
C[C@@H](c1ccc(Oc2cccc(S([NH-])(=O)=O)c2)cc1)[N@H+](C)Cc1ccccc1

>  <Energy>  (91) 
67.29054490275787

>  <Genealogy>  (91) 
CC(c1ccc(Oc2cccc(S([NH-])(=O)=O)c2)cc1)[NH+](C)Cc1ccccc1 (protonated)
C[C@@H](c1ccc(Oc2cccc(S([NH-])(=O)=O)c2)cc1)[N@H+](C)Cc1ccccc1 (chirality)
C[C@@H](c1ccc(Oc2cccc(S([NH-])(=O)=O)c2)cc1)[N@H+](C)Cc1ccccc1 (3D coordinates assigned)
C[C@@H](c1ccc(Oc2cccc(S([NH-])(=O)=O)c2)cc1)[N@H+](C)Cc1ccccc1 (optimized conformer: 67.29054490275787 kcal/mol)

>  <smiles>  (91) 
CC(c1ccc(Oc2cccc(S(N)(=O)=O)c2)cc1)N(C)Cc1ccccc1

>  <score_type>  (91) 
oracle

>  <origin>  (91) 
adg

>  <m_score__min__energy>  (91) 
-10.17

>  <m_primary>  (91) 
energy

$$$$
92:0
     RDKit          3D

 51 54  0  0  0  0  0  0  0  0999 V2000
   57.0360   31.5870   53.1920 C   0  0  0  0  0  0  0  0  0  0  0  0
   58.0150   32.0500   52.1550 C   0  0  0  0  0  0  0  0  0  0  0  0
   58.5030   31.1430   51.2030 C   0  0  0  0  0  0  0  0  0  0  0  0
   59.3900   31.5700   50.2100 C   0  0  0  0  0  0  0  0  0  0  0  0
   59.8070   32.9070   50.1650 C   0  0  0  0  0  0  0  0  0  0  0  0
   60.8740   33.4570   48.8760 S   0  0  0  0  0  0  0  0  0  0  0  0
   62.0350   32.5230   48.7520 O   0  0  0  0  0  0  0  0  0  0  0  0
   61.3860   34.8250   49.2070 O   0  0  0  0  0  0  0  0  0  0  0  0
   60.0020   33.4980   47.3820 N   0  0  0  0  0  0  0  0  0  0  0  0
   59.5770   34.7280   46.7230 C   0  0  0  0  0  0  0  0  0  0  0  0
   58.6640   34.2860   45.5510 C   0  0  0  0  0  0  0  0  0  0  0  0
   58.5790   32.8100   45.7150 C   0  0  0  0  0  0  0  0  0  0  0  0
   57.7930   31.9090   44.9940 C   0  0  0  0  0  0  0  0  0  0  0  0
   57.7970   30.5540   45.3760 C   0  0  0  0  0  0  0  0  0  0  0  0
   56.7240   29.4000   44.5890 S   0  0  0  0  0  0  0  0  0  0  0  0
   57.3740   28.9400   43.3110 O   0  0  0  0  0  0  0  0  0  0  0  0
   55.3990   30.0280   44.2670 O   0  0  0  0  0  0  0  0  0  0  0  0
   56.4800   28.0300   45.6240 N   0  0  0  0  0  0  0  0  0  0  0  0
   57.4270   26.9630   45.8060 C   0  0  0  0  0  0  0  0  0  0  0  0
   58.7820   27.2470   46.0180 C   0  0  0  0  0  0  0  0  0  0  0  0
   59.7230   26.2170   46.0930 C   0  0  0  0  0  0  0  0  0  0  0  0
   59.3220   24.8920   45.9650 C   0  0  0  0  0  0  0  0  0  0  0  0
   57.9720   24.5880   45.7890 C   0  0  0  0  0  0  0  0  0  0  0  0
   57.0050   25.6100   45.7260 C   0  0  0  0  0  0  0  0  0  0  0  0
   55.5720   25.2390   45.5580 C   0  0  0  0  0  0  0  0  0  0  0  0
   54.5450   26.1430   45.9620 N   0  0  0  0  0  0  0  0  0  0  0  0
   55.2420   24.1370   45.0440 O   0  0  0  0  0  0  0  0  0  0  0  0
   58.5930   30.1350   46.4630 C   0  0  0  0  0  0  0  0  0  0  0  0
   59.3720   31.0640   47.1750 C   0  0  0  0  0  0  0  0  0  0  0  0
   59.3450   32.4010   46.7710 C   0  0  0  0  0  0  0  0  0  0  0  0
   59.3130   33.8180   51.1090 C   0  0  0  0  0  0  0  0  0  0  0  0
   58.4210   33.3930   52.0970 C   0  0  0  0  0  0  0  0  0  0  0  0
   57.4450   31.7804   54.1946 H   0  0  0  0  0  0  0  0  0  0  0  0
   56.0884   32.1324   53.0711 H   0  0  0  0  0  0  0  0  0  0  0  0
   56.8564   30.5085   53.0711 H   0  0  0  0  0  0  0  0  0  0  0  0
   58.1863   30.0902   51.2377 H   0  0  0  0  0  0  0  0  0  0  0  0
   59.7615   30.8542   49.4619 H   0  0  0  0  0  0  0  0  0  0  0  0
   59.0183   35.3650   47.4245 H   0  0  0  0  0  0  0  0  0  0  0  0
   60.4370   35.3144   46.3671 H   0  0  0  0  0  0  0  0  0  0  0  0
   57.6692   34.7485   45.6315 H   0  0  0  0  0  0  0  0  0  0  0  0
   59.0540   34.5861   44.5672 H   0  0  0  0  0  0  0  0  0  0  0  0
   57.1831   32.2509   44.1448 H   0  0  0  0  0  0  0  0  0  0  0  0
   59.1087   28.2917   46.1266 H   0  0  0  0  0  0  0  0  0  0  0  0
   60.7848   26.4552   46.2539 H   0  0  0  0  0  0  0  0  0  0  0  0
   60.0681   24.0846   46.0025 H   0  0  0  0  0  0  0  0  0  0  0  0
   57.6589   23.5374   45.6983 H   0  0  0  0  0  0  0  0  0  0  0  0
   54.7800   27.0480   46.4200 H   0  0  0  0  0  0  0  0  0  0  0  0
   58.6042   29.0746   46.7553 H   0  0  0  0  0  0  0  0  0  0  0  0
   59.9877   30.7458   48.0292 H   0  0  0  0  0  0  0  0  0  0  0  0
   59.6287   34.8711   51.0718 H   0  0  0  0  0  0  0  0  0  0  0  0
   58.0350   34.1138   52.8328 H   0  0  0  0  0  0  0  0  0  0  0  0
  1  2  1  0
  2  3  2  0
  3  4  1  0
  4  5  2  0
  5  6  1  0
  6  7  2  0
  6  8  2  0
  6  9  1  0
  9 10  1  0
 10 11  1  0
 11 12  1  0
 12 13  2  0
 13 14  1  0
 14 15  1  0
 15 16  2  0
 15 17  2  0
 15 18  1  0
 18 19  1  0
 19 20  2  0
 20 21  1  0
 21 22  2  0
 22 23  1  0
 23 24  2  0
 24 25  1  0
 25 26  1  0
 25 27  2  0
 14 28  2  0
 28 29  1  0
 29 30  2  0
  5 31  1  0
 31 32  2  0
 32  2  1  0
 30  9  1  0
 30 12  1  0
 24 19  1  0
  1 33  1  0
  1 34  1  0
  1 35  1  0
  3 36  1  0
  4 37  1  0
 10 38  1  0
 10 39  1  0
 11 40  1  0
 11 41  1  0
 13 42  1  0
 20 43  1  0
 21 44  1  0
 22 45  1  0
 23 46  1  0
 26 47  1  0
 28 48  1  0
 29 49  1  0
 31 50  1  0
 32 51  1  0
M  CHG  2  18  -1  26  -1
M  END
>  <UniqueID>  (92) 
83

>  <SMILES>  (92) 
Cc1ccc(S(=O)(=O)N2CCc3cc(S(=O)(=O)[N-]c4ccccc4C([NH-])=O)ccc32)cc1

>  <Energy>  (92) 
77.48866248814319

>  <Genealogy>  (92) 
Cc1ccc(S(=O)(=O)N2CCc3cc(S(=O)(=O)[N-]c4ccccc4C([NH-])=O)ccc32)cc1 (protonated)
Cc1ccc(S(=O)(=O)N2CCc3cc(S(=O)(=O)[N-]c4ccccc4C([NH-])=O)ccc32)cc1 (3D coordinates assigned)
Cc1ccc(S(=O)(=O)N2CCc3cc(S(=O)(=O)[N-]c4ccccc4C([NH-])=O)ccc32)cc1 (nonaromatic ring conformer: 77.48866248814319 kcal/mol)

>  <smiles>  (92) 
Cc1ccc(S(=O)(=O)N2CCc3cc(S(=O)(=O)Nc4ccccc4C(N)=O)ccc32)cc1

>  <score_type>  (92) 
oracle

>  <origin>  (92) 
adg

>  <m_score__min__energy>  (92) 
-15.43

>  <m_primary>  (92) 
energy

$$$$
93:0
     RDKit          3D

 51 53  0  0  0  0  0  0  0  0999 V2000
   67.0380   33.4890   50.5290 C   0  0  0  0  0  0  0  0  0  0  0  0
   65.6910   32.9170   50.7190 N   0  0  0  0  0  0  0  0  0  0  0  0
   65.7370   31.4540   50.5360 C   0  0  0  0  0  0  0  0  0  0  0  0
   65.1570   33.2710   52.0580 C   0  0  0  0  0  0  0  0  0  0  0  0
   63.8420   33.9980   51.9450 C   0  0  0  0  0  0  0  0  0  0  0  0
   63.1770   34.2490   52.9870 O   0  0  0  0  0  0  0  0  0  0  0  0
   63.3860   34.5300   50.6950 N   0  0  0  0  0  0  0  0  0  0  0  0
   62.8780   33.8670   49.6930 C   0  0  0  0  0  0  0  0  0  0  0  0
   61.4890   33.6860   49.5250 C   0  0  0  0  0  0  0  0  0  0  0  0
   60.9980   33.0330   48.3800 C   0  0  0  0  0  0  0  0  0  0  0  0
   59.5410   32.8310   48.1610 C   0  0  0  0  0  0  0  0  0  0  0  0
   58.8220   32.4610   49.1340 O   0  0  0  0  0  0  0  0  0  0  0  0
   58.8890   33.0580   46.8480 C   0  0  0  0  0  0  0  0  0  0  0  0
   59.0990   34.2440   46.1270 C   0  0  0  0  0  0  0  0  0  0  0  0
   58.4690   34.4410   44.8950 C   0  0  0  0  0  0  0  0  0  0  0  0
   57.6270   33.4560   44.3700 C   0  0  0  0  0  0  0  0  0  0  0  0
   57.4100   32.2640   45.0710 C   0  0  0  0  0  0  0  0  0  0  0  0
   56.5410   31.2740   44.4960 N   0  0  0  0  0  0  0  0  0  0  0  0
   56.4610   29.8830   44.8430 C   0  0  0  0  0  0  0  0  0  0  0  0
   55.3220   29.3620   44.9870 O   0  0  0  0  0  0  0  0  0  0  0  0
   57.6640   29.0600   45.1110 C   0  0  0  0  0  0  0  0  0  0  0  0
   58.9140   29.4580   44.6110 C   0  0  0  0  0  0  0  0  0  0  0  0
   60.0570   28.6990   44.8840 C   0  0  0  0  0  0  0  0  0  0  0  0
   59.9610   27.5350   45.6500 C   0  0  0  0  0  0  0  0  0  0  0  0
   58.7180   27.1190   46.1360 C   0  0  0  0  0  0  0  0  0  0  0  0
   58.5940   25.6560   47.0940 Cl  0  0  0  0  0  0  0  0  0  0  0  0
   57.5710   27.8730   45.8600 C   0  0  0  0  0  0  0  0  0  0  0  0
   58.0790   32.0520   46.2900 C   0  0  0  0  0  0  0  0  0  0  0  0
   61.9180   32.5320   47.4460 C   0  0  0  0  0  0  0  0  0  0  0  0
   63.2850   32.7260   47.6460 C   0  0  0  0  0  0  0  0  0  0  0  0
   63.7270   33.3890   48.7460 N   0  0  0  0  0  0  0  0  0  0  0  0
   67.4956   33.6833   51.5102 H   0  0  0  0  0  0  0  0  0  0  0  0
   67.6623   32.7783   49.9676 H   0  0  0  0  0  0  0  0  0  0  0  0
   66.9602   34.4317   49.9676 H   0  0  0  0  0  0  0  0  0  0  0  0
   65.0750   33.3210   49.9720 H   0  0  0  0  0  0  0  0  0  0  0  0
   65.7525   30.9618   51.5196 H   0  0  0  0  0  0  0  0  0  0  0  0
   64.8487   31.1264   49.9760 H   0  0  0  0  0  0  0  0  0  0  0  0
   66.6441   31.1829   49.9760 H   0  0  0  0  0  0  0  0  0  0  0  0
   65.0088   32.3496   52.6403 H   0  0  0  0  0  0  0  0  0  0  0  0
   65.8795   33.9332   52.5574 H   0  0  0  0  0  0  0  0  0  0  0  0
   60.7898   34.0556   50.2896 H   0  0  0  0  0  0  0  0  0  0  0  0
   59.7623   35.0217   46.5334 H   0  0  0  0  0  0  0  0  0  0  0  0
   58.6362   35.3739   44.3367 H   0  0  0  0  0  0  0  0  0  0  0  0
   57.1325   33.6186   43.4010 H   0  0  0  0  0  0  0  0  0  0  0  0
   58.9950   30.3705   44.0020 H   0  0  0  0  0  0  0  0  0  0  0  0
   61.0343   29.0199   44.4942 H   0  0  0  0  0  0  0  0  0  0  0  0
   60.8632   26.9458   45.8708 H   0  0  0  0  0  0  0  0  0  0  0  0
   56.5920   27.5354   46.2308 H   0  0  0  0  0  0  0  0  0  0  0  0
   57.9678   31.0902   46.8122 H   0  0  0  0  0  0  0  0  0  0  0  0
   61.5622   31.9879   46.5587 H   0  0  0  0  0  0  0  0  0  0  0  0
   64.0069   32.3409   46.9108 H   0  0  0  0  0  0  0  0  0  0  0  0
  1  2  1  0
  2  3  1  0
  2  4  1  0
  4  5  1  0
  5  6  2  0
  5  7  1  0
  7  8  2  3
  8  9  1  0
  9 10  2  0
 10 11  1  0
 11 12  2  0
 11 13  1  0
 13 14  2  0
 14 15  1  0
 15 16  2  0
 16 17  1  0
 17 18  1  0
 18 19  1  0
 19 20  2  0
 19 21  1  0
 21 22  2  0
 22 23  1  0
 23 24  2  0
 24 25  1  0
 25 26  1  0
 25 27  2  0
 17 28  2  0
 10 29  1  0
 29 30  2  0
 30 31  1  0
 31  8  1  0
 28 13  1  0
 27 21  1  0
  1 32  1  0
  1 33  1  0
  1 34  1  0
  2 35  1  0
  3 36  1  0
  3 37  1  0
  3 38  1  0
  4 39  1  0
  4 40  1  0
  9 41  1  0
 14 42  1  0
 15 43  1  0
 16 44  1  0
 22 45  1  0
 23 46  1  0
 24 47  1  0
 27 48  1  0
 28 49  1  0
 29 50  1  0
 30 51  1  0
M  CHG  3   2   1  18  -1  31  -1
M  END
>  <UniqueID>  (93) 
84

>  <SMILES>  (93) 
C[NH+](C)CC(=O)N=c1cc(C(=O)c2cccc([N-]C(=O)c3cccc(Cl)c3)c2)cc[n-]1

>  <Energy>  (93) 
75.73388529361287

>  <Genealogy>  (93) 
C[NH+](C)CC(=O)N=c1cc(C(=O)c2cccc([N-]C(=O)c3cccc(Cl)c3)c2)cc[n-]1 (protonated)
C[NH+](C)CC(=O)N=c1cc(C(=O)c2cccc([N-]C(=O)c3cccc(Cl)c3)c2)cc[n-]1 (3D coordinates assigned)
C[NH+](C)CC(=O)N=c1cc(C(=O)c2cccc([N-]C(=O)c3cccc(Cl)c3)c2)cc[n-]1 (optimized conformer: 75.73388529361287 kcal/mol)

>  <smiles>  (93) 
CN(C)CC(=O)N=c1cc(C(=O)c2cccc(NC(=O)c3cccc(Cl)c3)c2)cc[nH]1

>  <score_type>  (93) 
oracle

>  <origin>  (93) 
adg

>  <m_score__min__energy>  (93) 
-10.029999999999999

>  <m_primary>  (93) 
energy

$$$$
94:0
     RDKit          3D

 46 49  0  0  0  0  0  0  0  0999 V2000
   59.2340   35.0810   48.0660 O   0  0  0  0  0  0  0  0  0  0  0  0
   59.5630   33.8650   48.1450 C   0  0  0  0  0  0  0  0  0  0  0  0
   59.1440   32.9230   47.0820 C   0  0  0  0  0  0  0  0  0  0  0  0
   58.6960   33.3990   45.8380 C   0  0  0  0  0  0  0  0  0  0  0  0
   58.2940   32.5060   44.8410 C   0  0  0  0  0  0  0  0  0  0  0  0
   58.3290   31.1230   45.0700 C   0  0  0  0  0  0  0  0  0  0  0  0
   57.8610   30.1600   44.0110 C   0  0  0  0  0  0  0  0  0  0  0  0
   57.6720   28.8180   44.5880 N   0  0  0  0  0  0  0  0  0  0  0  0
   58.7600   27.9980   44.7220 C   0  0  0  0  0  0  0  0  0  0  0  0
   58.6320   26.7290   45.2900 C   0  0  0  0  0  0  0  0  0  0  0  0
   57.3840   26.2990   45.7310 C   0  0  0  0  0  0  0  0  0  0  0  0
   56.2790   27.1390   45.6030 C   0  0  0  0  0  0  0  0  0  0  0  0
   55.0320   26.7140   46.0480 O   0  0  0  0  0  0  0  0  0  0  0  0
   56.4370   28.4070   45.0280 C   0  0  0  0  0  0  0  0  0  0  0  0
   55.4320   29.1630   44.9210 O   0  0  0  0  0  0  0  0  0  0  0  0
   58.7560   30.6450   46.3180 C   0  0  0  0  0  0  0  0  0  0  0  0
   59.1590   31.5370   47.3160 C   0  0  0  0  0  0  0  0  0  0  0  0
   60.3280   33.4180   49.2800 N   0  0  0  0  0  0  0  0  0  0  0  0
   59.6390   33.1810   50.5550 C   0  0  0  0  0  0  0  0  0  0  0  0
   60.4140   33.8360   51.6960 C   0  0  0  0  0  0  0  0  0  0  0  0
   61.8350   33.2700   51.7680 C   0  0  0  0  0  0  0  0  0  0  0  0
   62.5210   33.2830   50.4230 C   0  0  0  0  0  0  0  0  0  0  0  0
   63.9200   33.1730   50.3680 C   0  0  0  0  0  0  0  0  0  0  0  0
   64.5770   33.1140   49.1380 C   0  0  0  0  0  0  0  0  0  0  0  0
   63.8420   33.1420   47.9520 C   0  0  0  0  0  0  0  0  0  0  0  0
   62.4500   33.2360   47.9900 C   0  0  0  0  0  0  0  0  0  0  0  0
   61.7710   33.3150   49.2240 C   0  0  0  0  0  0  0  0  0  0  0  0
   58.6615   34.4819   45.6477 H   0  0  0  0  0  0  0  0  0  0  0  0
   57.9479   32.8905   43.8703 H   0  0  0  0  0  0  0  0  0  0  0  0
   56.9062   30.5139   43.5951 H   0  0  0  0  0  0  0  0  0  0  0  0
   58.6203   30.1045   43.2171 H   0  0  0  0  0  0  0  0  0  0  0  0
   59.7464   28.3428   44.3782 H   0  0  0  0  0  0  0  0  0  0  0  0
   59.5105   26.0743   45.3882 H   0  0  0  0  0  0  0  0  0  0  0  0
   57.2701   25.3007   46.1786 H   0  0  0  0  0  0  0  0  0  0  0  0
   58.7738   29.5624   46.5122 H   0  0  0  0  0  0  0  0  0  0  0  0
   59.4903   31.1515   48.2915 H   0  0  0  0  0  0  0  0  0  0  0  0
   58.6274   33.6104   50.5079 H   0  0  0  0  0  0  0  0  0  0  0  0
   59.5760   32.0978   50.7359 H   0  0  0  0  0  0  0  0  0  0  0  0
   60.4641   34.9214   51.5243 H   0  0  0  0  0  0  0  0  0  0  0  0
   59.8977   33.6276   52.6447 H   0  0  0  0  0  0  0  0  0  0  0  0
   62.4232   33.8770   52.4719 H   0  0  0  0  0  0  0  0  0  0  0  0
   61.7663   32.2245   52.1029 H   0  0  0  0  0  0  0  0  0  0  0  0
   64.5019   33.1331   51.3006 H   0  0  0  0  0  0  0  0  0  0  0  0
   65.6743   33.0454   49.1034 H   0  0  0  0  0  0  0  0  0  0  0  0
   64.3616   33.0898   46.9838 H   0  0  0  0  0  0  0  0  0  0  0  0
   61.8780   33.2486   47.0505 H   0  0  0  0  0  0  0  0  0  0  0  0
  1  2  2  0
  2  3  1  0
  3  4  2  0
  4  5  1  0
  5  6  2  0
  6  7  1  0
  7  8  1  0
  8  9  1  0
  9 10  2  0
 10 11  1  0
 11 12  2  0
 12 13  1  0
 12 14  1  0
 14 15  2  0
  6 16  1  0
 16 17  2  0
  2 18  1  0
 18 19  1  0
 19 20  1  0
 20 21  1  0
 21 22  1  0
 22 23  2  0
 23 24  1  0
 24 25  2  0
 25 26  1  0
 26 27  2  0
 17  3  1  0
 27 18  1  0
 14  8  1  0
 27 22  1  0
  4 28  1  0
  5 29  1  0
  7 30  1  0
  7 31  1  0
  9 32  1  0
 10 33  1  0
 11 34  1  0
 16 35  1  0
 17 36  1  0
 19 37  1  0
 19 38  1  0
 20 39  1  0
 20 40  1  0
 21 41  1  0
 21 42  1  0
 23 43  1  0
 24 44  1  0
 25 45  1  0
 26 46  1  0
M  CHG  1  13  -1
M  END
>  <UniqueID>  (94) 
85

>  <SMILES>  (94) 
O=C(c1ccc(Cn2cccc([O-])c2=O)cc1)N1CCCc2ccccc21

>  <Energy>  (94) 
59.90052932815976

>  <Genealogy>  (94) 
O=C(c1ccc(Cn2cccc([O-])c2=O)cc1)N1CCCc2ccccc21 (protonated)
O=C(c1ccc(Cn2cccc([O-])c2=O)cc1)N1CCCc2ccccc21 (3D coordinates assigned)
O=C(c1ccc(Cn2cccc([O-])c2=O)cc1)N1CCCc2ccccc21 (nonaromatic ring conformer: 59.90052932815976 kcal/mol)

>  <smiles>  (94) 
O=C(c1ccc(Cn2cccc(O)c2=O)cc1)N1CCCc2ccccc21

>  <score_type>  (94) 
oracle

>  <origin>  (94) 
adg

>  <m_score__min__energy>  (94) 
-12.789999999999999

>  <m_primary>  (94) 
energy

$$$$
