0:0
     RDKit          3D

 63 67  0  0  0  0  0  0  0  0999 V2000
   55.1440   26.6950   45.9860 O   0  0  0  0  0  0  0  0  0  0  0  0
   56.2760   26.1750   45.7920 C   0  0  0  0  0  0  0  0  0  0  0  0
   57.3790   27.0170   45.2210 C   0  0  0  0  0  0  0  0  0  0  0  0
   58.1170   27.7220   46.2880 N   0  0  0  0  0  0  0  0  0  0  0  0
   57.9100   29.0630   46.5040 C   0  0  0  0  0  0  0  0  0  0  0  0
   57.1180   29.7190   45.7750 O   0  0  0  0  0  0  0  0  0  0  0  0
   58.5500   29.7040   47.5130 N   0  0  0  0  0  0  0  0  0  0  0  0
   59.3980   29.0550   48.3460 C   0  0  0  0  0  0  0  0  0  0  0  0
   60.0240   29.7540   49.3910 C   0  0  0  0  0  0  0  0  0  0  0  0
   59.7730   31.1290   49.5180 O   0  0  0  0  0  0  0  0  0  0  0  0
   60.7630   32.1590   49.5820 C   0  0  0  0  0  0  0  0  0  0  0  0
   61.7410   31.9750   48.4040 C   0  0  0  0  0  0  0  0  0  0  0  0
   61.2450   32.7250   47.1650 C   0  0  0  0  0  0  0  0  0  0  0  0
   61.1930   34.1860   47.4050 N   0  0  0  0  0  0  0  0  0  0  0  0
   60.4250   34.9290   46.3800 C   0  0  0  0  0  0  0  0  0  0  0  0
   59.2110   34.1840   45.8570 C   0  0  0  0  0  0  0  0  0  0  0  0
   59.1230   33.8170   44.5040 C   0  0  0  0  0  0  0  0  0  0  0  0
   57.9990   33.1350   44.0260 C   0  0  0  0  0  0  0  0  0  0  0  0
   56.9630   32.7930   44.8960 C   0  0  0  0  0  0  0  0  0  0  0  0
   57.0520   33.1290   46.2480 C   0  0  0  0  0  0  0  0  0  0  0  0
   58.1700   33.8160   46.7290 C   0  0  0  0  0  0  0  0  0  0  0  0
   60.9110   34.5900   48.8050 C   0  0  0  0  0  0  0  0  0  0  0  0
   60.0730   33.5470   49.5560 C   0  0  0  0  0  0  0  0  0  0  0  0
   60.8840   29.0600   50.2630 C   0  0  0  0  0  0  0  0  0  0  0  0
   61.1140   27.6920   50.0880 C   0  0  0  0  0  0  0  0  0  0  0  0
   60.4900   27.0000   49.0490 C   0  0  0  0  0  0  0  0  0  0  0  0
   59.6250   27.6770   48.1700 C   0  0  0  0  0  0  0  0  0  0  0  0
   58.9620   27.0220   47.1170 C   0  0  0  0  0  0  0  0  0  0  0  0
   59.1400   25.7830   46.9420 O   0  0  0  0  0  0  0  0  0  0  0  0
   56.5350   24.8190   46.1860 N   0  0  0  0  0  0  0  0  0  0  0  0
   56.9800   23.7460   45.3440 C   0  0  0  0  0  0  0  0  0  0  0  0
   58.2270   23.1650   45.6070 C   0  0  0  0  0  0  0  0  0  0  0  0
   58.7180   22.1450   44.7900 C   0  0  0  0  0  0  0  0  0  0  0  0
   57.9680   21.7010   43.6940 C   0  0  0  0  0  0  0  0  0  0  0  0
   56.7310   22.2870   43.4060 C   0  0  0  0  0  0  0  0  0  0  0  0
   56.0050   21.8490   42.2990 O   0  0  0  0  0  0  0  0  0  0  0  0
   56.2380   23.3120   44.2270 C   0  0  0  0  0  0  0  0  0  0  0  0
   58.0765   26.3694   44.6695 H   0  0  0  0  0  0  0  0  0  0  0  0
   56.9343   27.7667   44.5500 H   0  0  0  0  0  0  0  0  0  0  0  0
   61.3346   32.0956   50.5197 H   0  0  0  0  0  0  0  0  0  0  0  0
   62.7287   32.3652   48.6907 H   0  0  0  0  0  0  0  0  0  0  0  0
   61.8080   30.9034   48.1648 H   0  0  0  0  0  0  0  0  0  0  0  0
   61.9284   32.5237   46.3269 H   0  0  0  0  0  0  0  0  0  0  0  0
   60.2286   32.3752   46.9312 H   0  0  0  0  0  0  0  0  0  0  0  0
   60.0848   35.8769   46.8225 H   0  0  0  0  0  0  0  0  0  0  0  0
   61.0993   35.0786   45.5239 H   0  0  0  0  0  0  0  0  0  0  0  0
   59.9435   34.0676   43.8156 H   0  0  0  0  0  0  0  0  0  0  0  0
   57.9317   32.8675   42.9611 H   0  0  0  0  0  0  0  0  0  0  0  0
   56.0784   32.2600   44.5174 H   0  0  0  0  0  0  0  0  0  0  0  0
   56.2400   32.8523   46.9366 H   0  0  0  0  0  0  0  0  0  0  0  0
   58.2365   34.0708   47.7970 H   0  0  0  0  0  0  0  0  0  0  0  0
   61.8664   34.7231   49.3337 H   0  0  0  0  0  0  0  0  0  0  0  0
   60.3339   35.5260   48.7747 H   0  0  0  0  0  0  0  0  0  0  0  0
   59.9238   33.8891   50.5907 H   0  0  0  0  0  0  0  0  0  0  0  0
   59.1125   33.4398   49.0307 H   0  0  0  0  0  0  0  0  0  0  0  0
   61.3777   29.5968   51.0865 H   0  0  0  0  0  0  0  0  0  0  0  0
   61.7900   27.1586   50.7725 H   0  0  0  0  0  0  0  0  0  0  0  0
   60.6748   25.9237   48.9172 H   0  0  0  0  0  0  0  0  0  0  0  0
   58.8233   23.5146   46.4627 H   0  0  0  0  0  0  0  0  0  0  0  0
   59.6953   21.6895   45.0075 H   0  0  0  0  0  0  0  0  0  0  0  0
   58.3524   20.8898   43.0583 H   0  0  0  0  0  0  0  0  0  0  0  0
   56.1880   22.2100   41.3710 H   0  0  0  0  0  0  0  0  0  0  0  0
   55.2686   23.7788   43.9982 H   0  0  0  0  0  0  0  0  0  0  0  0
  1  2  2  0
  2  3  1  0
  3  4  1  0
  4  5  1  0
  5  6  2  0
  5  7  1  0
  7  8  1  0
  8  9  2  0
  9 10  1  0
 10 11  1  0
 11 12  1  0
 12 13  1  0
 13 14  1  0
 14 15  1  0
 15 16  1  0
 16 17  2  0
 17 18  1  0
 18 19  2  0
 19 20  1  0
 20 21  2  0
 14 22  1  0
 22 23  1  0
  9 24  1  0
 24 25  2  0
 25 26  1  0
 26 27  2  0
 27 28  1  0
 28 29  2  0
  2 30  1  0
 30 31  1  0
 31 32  2  0
 32 33  1  0
 33 34  2  0
 34 35  1  0
 35 36  1  0
 35 37  2  0
 28  4  1  0
 37 31  1  0
 27  8  1  0
 23 11  1  0
 21 16  1  0
  3 38  1  0
  3 39  1  0
 11 40  1  0
 12 41  1  0
 12 42  1  0
 13 43  1  0
 13 44  1  0
 15 45  1  0
 15 46  1  0
 17 47  1  0
 18 48  1  0
 19 49  1  0
 20 50  1  0
 21 51  1  0
 22 52  1  0
 22 53  1  0
 23 54  1  0
 23 55  1  0
 24 56  1  0
 25 57  1  0
 26 58  1  0
 32 59  1  0
 33 60  1  0
 34 61  1  0
 36 62  1  0
 37 63  1  0
M  CHG  2   7  -1  30  -1
M  END
>  <UniqueID>  (1) 
1

>  <SMILES>  (1) 
O=C(Cn1c(=O)[n-]c2c(OC3CCN(Cc4ccccc4)CC3)cccc2c1=O)[N-]c1cccc(O)c1

>  <Energy>  (1) 
88.67510449759291

>  <Genealogy>  (1) 
O=C(Cn1c(=O)[n-]c2c(OC3CCN(Cc4ccccc4)CC3)cccc2c1=O)[N-]c1cccc(O)c1 (protonated)
O=C(Cn1c(=O)[n-]c2c(OC3CCN(Cc4ccccc4)CC3)cccc2c1=O)[N-]c1cccc(O)c1 (3D coordinates assigned)
O=C(Cn1c(=O)[n-]c2c(OC3CCN(Cc4ccccc4)CC3)cccc2c1=O)[N-]c1cccc(O)c1 (nonaromatic ring conformer: 88.67510449759291 kcal/mol)

>  <smiles>  (1) 
O=C(Cn1c(=O)[nH]c2c(OC3CCN(Cc4ccccc4)CC3)cccc2c1=O)Nc1cccc(O)c1

>  <score_type>  (1) 
oracle

>  <origin>  (1) 
adg

>  <m_score__min__energy>  (1) 
-13.5

>  <m_primary>  (1) 
energy

$$$$
1:0
     RDKit          3D

 66 69  0  0  0  0  0  0  0  0999 V2000
   57.1228   31.5967   52.8333 H   0  0  0  0  0  0  0  0  0  0  0  0
   56.0250   31.6120   52.7650 C   0  0  0  0  0  0  0  0  0  0  0  0
   55.5004   32.5546   52.5499 H   0  0  0  0  0  0  0  0  0  0  0  0
   55.3260   30.4810   52.9440 C   0  0  0  0  0  0  0  0  0  0  0  0
   53.9360   30.3390   52.8890 C   0  0  0  0  0  0  0  0  0  0  0  0
   53.0310   31.2930   52.5990 C   0  0  0  0  0  0  0  0  0  0  0  0
   52.9109   32.1236   53.3101 H   0  0  0  0  0  0  0  0  0  0  0  0
   52.1910   31.2930   51.3870 C   0  0  0  0  0  0  0  0  0  0  0  0
   52.2720   30.3450   50.4360 N   0  0  0  0  0  0  0  0  0  0  0  0
   51.4060   30.7730   49.4920 C   0  0  0  0  0  0  0  0  0  0  0  0
   51.1890   30.1330   48.4310 O   0  0  0  0  0  0  0  0  0  0  0  0
   50.7980   31.9460   49.7710 N   0  0  0  0  0  0  0  0  0  0  0  0
   51.3140   32.2690   50.9680 C   0  0  0  0  0  0  0  0  0  0  0  0
   51.0260   33.4530   51.6340 O   0  0  0  0  0  0  0  0  0  0  0  0
   53.6720   28.9940   53.1260 C   0  0  0  0  0  0  0  0  0  0  0  0
   52.6838   28.5112   53.1435 H   0  0  0  0  0  0  0  0  0  0  0  0
   54.8930   28.3830   53.3350 C   0  0  0  0  0  0  0  0  0  0  0  0
   55.0860   26.9140   53.5630 C   0  0  0  0  0  0  0  0  0  0  0  0
   55.1127   26.7111   54.6438 H   0  0  0  0  0  0  0  0  0  0  0  0
   54.2530   26.3595   53.1063 H   0  0  0  0  0  0  0  0  0  0  0  0
   56.0340   26.5935   53.1063 H   0  0  0  0  0  0  0  0  0  0  0  0
   55.8930   29.2800   53.2100 N   0  0  0  0  0  0  0  0  0  0  0  0
   57.2950   28.9890   53.3290 C   0  0  0  0  0  0  0  0  0  0  0  0
   57.7540   28.2880   54.4500 C   0  0  0  0  0  0  0  0  0  0  0  0
   57.0479   28.0049   55.2445 H   0  0  0  0  0  0  0  0  0  0  0  0
   59.1020   27.9460   54.5660 C   0  0  0  0  0  0  0  0  0  0  0  0
   59.4563   27.4085   55.4579 H   0  0  0  0  0  0  0  0  0  0  0  0
   60.0060   28.2850   53.5500 C   0  0  0  0  0  0  0  0  0  0  0  0
   61.4220   27.8800   53.6350 C   0  0  0  0  0  0  0  0  0  0  0  0
   61.7060   26.7840   54.1900 O   0  0  0  0  0  0  0  0  0  0  0  0
   62.4780   28.7270   53.1440 N   0  0  0  0  0  0  0  0  0  0  0  0
   62.4840   29.2520   51.7880 C   0  0  0  0  0  0  0  0  0  0  0  0
   62.2596   28.4501   51.0692 H   0  0  0  0  0  0  0  0  0  0  0  0
   61.7214   30.0345   51.6615 H   0  0  0  0  0  0  0  0  0  0  0  0
   63.8850   29.8030   51.5420 C   0  0  0  0  0  0  0  0  0  0  0  0
   64.3895   29.2190   50.7581 H   0  0  0  0  0  0  0  0  0  0  0  0
   63.8444   30.8496   51.2060 H   0  0  0  0  0  0  0  0  0  0  0  0
   64.6490   29.6790   52.8680 C   0  0  2  0  0  0  0  0  0  0  0  0
   64.8810   30.6758   53.2713 H   0  0  0  0  0  0  0  0  0  0  0  0
   66.0160   29.0460   52.7050 C   0  0  0  0  0  0  0  0  0  0  0  0
   66.4800   28.3750   53.6670 O   0  0  0  0  0  0  0  0  0  0  0  0
   66.7860   29.1560   51.4880 N   0  0  0  0  0  0  0  0  0  0  0  0
   67.0390   30.4610   50.8630 C   0  0  0  0  0  0  0  0  0  0  0  0
   67.8418   30.3567   50.1183 H   0  0  0  0  0  0  0  0  0  0  0  0
   66.1157   30.8090   50.3769 H   0  0  0  0  0  0  0  0  0  0  0  0
   67.4590   31.4810   51.9150 C   0  0  0  0  0  0  0  0  0  0  0  0
   67.2875   31.0645   52.9186 H   0  0  0  0  0  0  0  0  0  0  0  0
   68.5268   31.7153   51.7928 H   0  0  0  0  0  0  0  0  0  0  0  0
   66.8658   32.3992   51.7928 H   0  0  0  0  0  0  0  0  0  0  0  0
   67.4700   27.9650   50.9680 C   0  0  0  0  0  0  0  0  0  0  0  0
   67.8792   28.1881   49.9716 H   0  0  0  0  0  0  0  0  0  0  0  0
   68.2821   27.6904   51.6573 H   0  0  0  0  0  0  0  0  0  0  0  0
   66.4960   26.7970   50.8610 C   0  0  0  0  0  0  0  0  0  0  0  0
   66.2151   26.4602   51.8698 H   0  0  0  0  0  0  0  0  0  0  0  0
   65.5953   27.1193   50.3180 H   0  0  0  0  0  0  0  0  0  0  0  0
   66.9748   25.9688   50.3180 H   0  0  0  0  0  0  0  0  0  0  0  0
   63.7350   28.9320   53.8450 C   0  0  0  0  0  0  0  0  0  0  0  0
   64.1804   27.9648   54.1210 H   0  0  0  0  0  0  0  0  0  0  0  0
   63.5887   29.5019   54.7744 H   0  0  0  0  0  0  0  0  0  0  0  0
   59.5570   29.0200   52.4430 C   0  0  0  0  0  0  0  0  0  0  0  0
   60.2702   29.3143   51.6589 H   0  0  0  0  0  0  0  0  0  0  0  0
   58.2050   29.3840   52.3260 C   0  0  0  0  0  0  0  0  0  0  0  0
   57.7350   30.1260   51.1040 C   0  0  0  0  0  0  0  0  0  0  0  0
   57.1699   31.0182   51.4116 H   0  0  0  0  0  0  0  0  0  0  0  0
   58.6045   30.4317   50.5036 H   0  0  0  0  0  0  0  0  0  0  0  0
   57.0871   29.4705   50.5036 H   0  0  0  0  0  0  0  0  0  0  0  0
  1  2  1  0
  2  3  1  0
  2  4  2  0
  4  5  1  0
  5  6  2  0
  6  7  1  0
  6  8  1  0
  8  9  1  0
  9 10  1  0
 10 11  2  0
 10 12  1  0
 12 13  1  0
 13 14  1  0
  5 15  1  0
 15 16  1  0
 15 17  2  0
 17 18  1  0
 18 19  1  0
 18 20  1  0
 18 21  1  0
 17 22  1  0
 22 23  1  0
 23 24  2  0
 24 25  1  0
 24 26  1  0
 26 27  1  0
 26 28  2  0
 28 29  1  0
 29 30  2  0
 29 31  1  0
 31 32  1  0
 32 33  1  0
 32 34  1  0
 32 35  1  0
 35 36  1  0
 35 37  1  0
 35 38  1  0
 38 39  1  1
 38 40  1  0
 40 41  2  0
 40 42  1  0
 42 43  1  0
 43 44  1  0
 43 45  1  0
 43 46  1  0
 46 47  1  0
 46 48  1  0
 46 49  1  0
 42 50  1  0
 50 51  1  0
 50 52  1  0
 50 53  1  0
 53 54  1  0
 53 55  1  0
 53 56  1  0
 38 57  1  0
 57 58  1  0
 57 59  1  0
 28 60  1  0
 60 61  1  0
 60 62  2  0
 62 63  1  0
 63 64  1  0
 63 65  1  0
 63 66  1  0
 22  4  1  0
 62 23  1  0
 13  8  2  0
 57 31  1  0
M  CHG  3   9  -1  12  -1  14  -1
M  END
>  <UniqueID>  (2) 
2

>  <SMILES>  (2) 
C=c1/c(=C/c2[n-]c(=O)[n-]c2[O-])cc(C)n1-c1ccc(C(=O)N2CC[C@H](C(=O)N(CC)CC)C2)cc1C

>  <Energy>  (2) 
141.02781092618764

>  <Genealogy>  (2) 
C=c1c(=Cc2[n-]c(=O)[n-]c2[O-])cc(C)n1-c1ccc(C(=O)N2CCC(C(=O)N(CC)CC)C2)cc1C (protonated)
C=c1c(=Cc2[n-]c(=O)[n-]c2[O-])cc(C)n1-c1ccc(C(=O)N2CC[C@H](C(=O)N(CC)CC)C2)cc1C (chirality)
C=c1/c(=C/c2[n-]c(=O)[n-]c2[O-])cc(C)n1-c1ccc(C(=O)N2CC[C@H](C(=O)N(CC)CC)C2)cc1C (cis-trans isomerization)
C=c1/c(=C/c2[n-]c(=O)[n-]c2[O-])cc(C)n1-c1ccc(C(=O)N2CC[C@H](C(=O)N(CC)CC)C2)cc1C (3D coordinates assigned)
C=c1/c(=C/c2[n-]c(=O)[n-]c2[O-])cc(C)n1-c1ccc(C(=O)N2CC[C@H](C(=O)N(CC)CC)C2)cc1C (nonaromatic ring conformer: 141.02781092618764 kcal/mol)

>  <smiles>  (2) 
C=c1c(=Cc2[nH]c(=O)[nH]c2O)cc(C)n1-c1ccc(C(=O)N2CCC(C(=O)N(CC)CC)C2)cc1C

>  <score_type>  (2) 
oracle

>  <origin>  (2) 
adg

>  <m_score__min__energy>  (2) 
-16.739999999999998

>  <m_primary>  (2) 
energy

$$$$
2:0
     RDKit          3D

 61 65  0  0  0  0  0  0  0  0999 V2000
   57.6990   31.5860   46.4470 O   0  0  0  0  0  0  0  0  0  0  0  0
   57.6750   32.6910   45.8410 C   0  0  0  0  0  0  0  0  0  0  0  0
   57.3200   32.7300   44.3890 C   0  0  0  0  0  0  0  0  0  0  0  0
   58.1880   31.3820   43.5120 S   0  0  0  0  0  0  0  0  0  0  0  0
   57.4320   30.0390   44.4390 C   0  0  0  0  0  0  0  0  0  0  0  0
   56.1010   29.8490   44.4790 N   0  0  0  0  0  0  0  0  0  0  0  0
   55.8880   28.7650   45.2100 N   0  0  0  0  0  0  0  0  0  0  0  0
   57.0910   28.3070   45.6040 C   0  0  0  0  0  0  0  0  0  0  0  0
   57.2520   27.0940   46.4750 C   0  0  0  0  0  0  0  0  0  0  0  0
   56.2120   26.0710   46.1370 C   0  0  0  0  0  0  0  0  0  0  0  0
   54.9130   26.3480   45.9320 N   0  0  0  0  0  0  0  0  0  0  0  0
   54.3840   25.1430   45.6230 C   0  0  0  0  0  0  0  0  0  0  0  0
   53.1610   24.9840   45.3670 O   0  0  0  0  0  0  0  0  0  0  0  0
   55.2670   24.1210   45.6110 N   0  0  0  0  0  0  0  0  0  0  0  0
   56.4220   24.7270   45.9310 C   0  0  0  0  0  0  0  0  0  0  0  0
   57.6400   24.0670   46.0330 O   0  0  0  0  0  0  0  0  0  0  0  0
   58.0930   29.0860   45.1340 N   0  0  0  0  0  0  0  0  0  0  0  0
   59.5400   28.9310   45.3150 C   0  0  0  0  0  0  0  0  0  0  0  0
   59.9840   29.4450   46.6600 C   0  0  0  0  0  0  0  0  0  0  0  0
   61.1260   30.2590   46.7610 C   0  0  0  0  0  0  0  0  0  0  0  0
   61.5240   30.7650   48.0020 C   0  0  0  0  0  0  0  0  0  0  0  0
   60.7930   30.4600   49.1520 C   0  0  0  0  0  0  0  0  0  0  0  0
   59.6560   29.6530   49.0620 C   0  0  0  0  0  0  0  0  0  0  0  0
   59.2480   29.1530   47.8220 C   0  0  0  0  0  0  0  0  0  0  0  0
   58.0360   33.9060   46.5170 N   0  0  0  0  0  0  0  0  0  0  0  0
   59.2690   34.0070   47.2460 C   0  0  0  0  0  0  0  0  0  0  0  0
   60.4670   34.2040   46.5430 C   0  0  0  0  0  0  0  0  0  0  0  0
   61.6940   34.1490   47.2080 C   0  0  0  0  0  0  0  0  0  0  0  0
   61.7410   33.9050   48.5850 C   0  0  0  0  0  0  0  0  0  0  0  0
   63.0160   33.7670   49.2270 N   0  0  0  0  0  0  0  0  0  0  0  0
   64.0660   32.9500   48.6200 C   0  0  0  0  0  0  0  0  0  0  0  0
   64.8720   32.2520   49.7240 C   0  0  0  0  0  0  0  0  0  0  0  0
   65.3090   33.1820   50.7000 O   0  0  0  0  0  0  0  0  0  0  0  0
   64.1920   33.7400   51.3650 C   0  0  0  0  0  0  0  0  0  0  0  0
   63.3520   34.5780   50.3970 C   0  0  0  0  0  0  0  0  0  0  0  0
   60.5400   33.7650   49.3060 C   0  0  0  0  0  0  0  0  0  0  0  0
   60.5400   33.5320   51.0460 Cl  0  0  0  0  0  0  0  0  0  0  0  0
   59.3110   33.8250   48.6380 C   0  0  0  0  0  0  0  0  0  0  0  0
   56.2335   32.6022   44.2738 H   0  0  0  0  0  0  0  0  0  0  0  0
   57.6229   33.6982   43.9638 H   0  0  0  0  0  0  0  0  0  0  0  0
   58.2511   26.6624   46.3154 H   0  0  0  0  0  0  0  0  0  0  0  0
   57.1340   27.3906   47.5277 H   0  0  0  0  0  0  0  0  0  0  0  0
   59.7983   27.8647   45.2363 H   0  0  0  0  0  0  0  0  0  0  0  0
   60.0509   29.5150   44.5353 H   0  0  0  0  0  0  0  0  0  0  0  0
   61.7089   30.4988   45.8595 H   0  0  0  0  0  0  0  0  0  0  0  0
   62.4156   31.4053   48.0727 H   0  0  0  0  0  0  0  0  0  0  0  0
   61.1120   30.8547   50.1279 H   0  0  0  0  0  0  0  0  0  0  0  0
   59.0812   29.4108   49.9680 H   0  0  0  0  0  0  0  0  0  0  0  0
   58.3458   28.5274   47.7548 H   0  0  0  0  0  0  0  0  0  0  0  0
   57.6480   34.7920   46.1200 H   0  0  0  0  0  0  0  0  0  0  0  0
   60.4398   34.4030   45.4615 H   0  0  0  0  0  0  0  0  0  0  0  0
   62.6280   34.2982   46.6464 H   0  0  0  0  0  0  0  0  0  0  0  0
   63.6095   32.1934   47.9649 H   0  0  0  0  0  0  0  0  0  0  0  0
   64.7344   33.5920   48.0275 H   0  0  0  0  0  0  0  0  0  0  0  0
   64.2380   31.4943   50.2077 H   0  0  0  0  0  0  0  0  0  0  0  0
   65.7557   31.7816   49.2682 H   0  0  0  0  0  0  0  0  0  0  0  0
   63.5715   32.9284   51.7728 H   0  0  0  0  0  0  0  0  0  0  0  0
   64.5507   34.3895   52.1771 H   0  0  0  0  0  0  0  0  0  0  0  0
   62.4278   34.9025   50.8976 H   0  0  0  0  0  0  0  0  0  0  0  0
   63.9240   35.4631   50.0817 H   0  0  0  0  0  0  0  0  0  0  0  0
   58.3739   33.7291   49.2061 H   0  0  0  0  0  0  0  0  0  0  0  0
  1  2  2  0
  2  3  1  0
  3  4  1  0
  4  5  1  0
  5  6  2  0
  6  7  1  0
  7  8  2  0
  8  9  1  0
  9 10  1  0
 10 11  1  0
 11 12  1  0
 12 13  2  0
 12 14  1  0
 14 15  1  0
 15 16  1  0
  8 17  1  0
 17 18  1  0
 18 19  1  0
 19 20  2  0
 20 21  1  0
 21 22  2  0
 22 23  1  0
 23 24  2  0
  2 25  1  0
 25 26  1  0
 26 27  2  0
 27 28  1  0
 28 29  2  0
 29 30  1  0
 30 31  1  0
 31 32  1  0
 32 33  1  0
 33 34  1  0
 34 35  1  0
 29 36  1  0
 36 37  1  0
 36 38  2  0
 17  5  1  0
 24 19  1  0
 38 26  1  0
 15 10  2  0
 35 30  1  0
  3 39  1  0
  3 40  1  0
  9 41  1  0
  9 42  1  0
 18 43  1  0
 18 44  1  0
 20 45  1  0
 21 46  1  0
 22 47  1  0
 23 48  1  0
 24 49  1  0
 25 50  1  0
 27 51  1  0
 28 52  1  0
 31 53  1  0
 31 54  1  0
 32 55  1  0
 32 56  1  0
 34 57  1  0
 34 58  1  0
 35 59  1  0
 35 60  1  0
 38 61  1  0
M  CHG  3  11  -1  14  -1  16  -1
M  END
>  <UniqueID>  (3) 
3

>  <SMILES>  (3) 
O=C(CSc1nnc(Cc2[n-]c(=O)[n-]c2[O-])n1Cc1ccccc1)Nc1ccc(N2CCOCC2)c(Cl)c1

>  <Energy>  (3) 
132.84528017131325

>  <Genealogy>  (3) 
O=C(CSc1nnc(Cc2[n-]c(=O)[n-]c2[O-])n1Cc1ccccc1)Nc1ccc(N2CCOCC2)c(Cl)c1 (protonated)
O=C(CSc1nnc(Cc2[n-]c(=O)[n-]c2[O-])n1Cc1ccccc1)Nc1ccc(N2CCOCC2)c(Cl)c1 (3D coordinates assigned)
O=C(CSc1nnc(Cc2[n-]c(=O)[n-]c2[O-])n1Cc1ccccc1)Nc1ccc(N2CCOCC2)c(Cl)c1 (nonaromatic ring conformer: 132.84528017131325 kcal/mol)

>  <smiles>  (3) 
O=C(CSc1nnc(Cc2[nH]c(=O)[nH]c2O)n1Cc1ccccc1)Nc1ccc(N2CCOCC2)c(Cl)c1

>  <score_type>  (3) 
oracle

>  <origin>  (3) 
adg

>  <m_score__min__energy>  (3) 
-15.960000000000001

>  <m_primary>  (3) 
energy

$$$$
3:0
     RDKit          3D

 30 31  0  0  1  0  0  0  0  0999 V2000
   59.1630   28.7150   46.7650 C   0  0  0  0  0  0  0  0  0  0  0  0
   58.0300   28.7970   46.0610 C   0  0  0  0  0  0  0  0  0  0  0  0
   57.6850   29.8510   45.2410 C   0  0  0  0  0  0  0  0  0  0  0  0
   58.5530   31.3070   44.8850 Cl  0  0  0  0  0  0  0  0  0  0  0  0
   56.4420   29.5100   44.7240 C   0  0  0  0  0  0  0  0  0  0  0  0
   55.6700   30.3650   43.7720 C   0  0  0  0  0  0  0  0  0  0  0  0
   56.0500   28.3220   45.1970 N   0  0  0  0  0  0  0  0  0  0  0  0
   57.0130   27.8680   46.0200 C   0  0  0  0  0  0  0  0  0  0  0  0
   56.9920   26.7040   46.6950 C   0  0  0  0  0  0  0  0  0  0  0  0
   56.6720   25.5260   45.9410 C   0  0  0  0  0  0  0  0  0  0  0  0
   55.3470   25.3560   45.5500 C   0  0  0  0  0  0  0  0  0  0  0  0
   54.3990   26.3090   45.8930 O   0  0  0  0  0  0  0  0  0  0  0  0
   54.9910   24.2680   44.8400 N   0  0  0  0  0  0  0  0  0  0  0  0
   55.8950   23.3120   44.4850 C   0  0  0  0  0  0  0  0  0  0  0  0
   55.4970   22.3070   43.8140 O   0  0  0  0  0  0  0  0  0  0  0  0
   57.1810   23.4580   44.8530 N   0  0  0  0  0  0  0  0  0  0  0  0
   57.5500   24.5420   45.5630 C   0  0  0  0  0  0  0  0  0  0  0  0
   58.7660   24.6540   45.8960 N   0  0  0  0  0  0  0  0  0  0  0  0
   59.7770   23.7290   45.6250 C   0  0  0  0  0  0  0  0  0  0  0  0
   60.6000   22.9490   45.4100 N   0  0  0  0  0  0  0  0  0  0  0  0
   59.3564   27.8344   47.3952 H   0  0  0  0  0  0  0  0  0  0  0  0
   59.9021   29.5281   46.7142 H   0  0  0  0  0  0  0  0  0  0  0  0
   55.0378   31.0651   44.3379 H   0  0  0  0  0  0  0  0  0  0  0  0
   56.3686   30.9315   43.1387 H   0  0  0  0  0  0  0  0  0  0  0  0
   55.0353   29.7277   43.1387 H   0  0  0  0  0  0  0  0  0  0  0  0
   55.1630   27.8550   44.9600 H   0  0  0  0  0  0  0  0  0  0  0  0
   57.2096   26.6579   47.7723 H   0  0  0  0  0  0  0  0  0  0  0  0
   54.4340   26.7040   46.8180 H   0  0  0  0  0  0  0  0  0  0  0  0
   53.9860   24.1900   44.5730 H   0  0  0  0  0  0  0  0  0  0  0  0
   57.8850   22.7140   44.5760 H   0  0  0  0  0  0  0  0  0  0  0  0
  1  2  2  0
  2  3  1  0
  3  4  1  0
  3  5  2  0
  5  6  1  0
  5  7  1  0
  7  8  1  0
  8  9  2  0
  9 10  1  0
 10 11  2  0
 11 12  1  0
 11 13  1  0
 13 14  1  0
 14 15  2  0
 14 16  1  0
 16 17  1  0
 17 18  2  0
 18 19  1  0
 19 20  3  0
  8  2  1  0
 17 10  1  0
  1 21  1  0
  1 22  1  0
  6 23  1  0
  6 24  1  0
  6 25  1  0
  7 26  1  0
  9 27  1  0
 12 28  1  0
 13 29  1  0
 16 30  1  0
M  END
>  <smiles>  (4) 
C=c1c(Cl)c(C)[nH]c1=Cc1c(O)[nH]c(=O)[nH]c1=NC#N

>  <score_type>  (4) 
oracle

>  <origin>  (4) 
adg

>  <m_score__min__energy>  (4) 
-7.7199999999999998

>  <m_primary>  (4) 
energy

$$$$
4:0
     RDKit          3D

 24 25  0  0  0  0  0  0  0  0999 V2000
   55.1440   32.5880   51.6660 H   0  0  0  0  0  0  0  0  0  0  0  0
   55.8380   32.3850   52.3750 O   0  0  0  0  0  0  0  0  0  0  0  0
   56.5500   31.1900   52.3580 C   0  0  0  0  0  0  0  0  0  0  0  0
   57.9170   31.0820   52.2440 C   0  0  0  0  0  0  0  0  0  0  0  0
   58.6504   31.9003   52.1933 H   0  0  0  0  0  0  0  0  0  0  0  0
   58.1700   29.7240   52.2070 C   0  0  0  0  0  0  0  0  0  0  0  0
   59.3750   29.1730   52.0900 C   0  0  0  0  0  0  0  0  0  0  0  0
   59.4795   28.0782   52.0694 H   0  0  0  0  0  0  0  0  0  0  0  0
   60.2670   29.8122   52.0139 H   0  0  0  0  0  0  0  0  0  0  0  0
   57.0330   29.0010   52.2960 N   0  0  0  0  0  0  0  0  0  0  0  0
   56.0330   29.9020   52.4020 C   0  0  0  0  0  0  0  0  0  0  0  0
   54.7460   29.5270   52.4940 C   0  0  0  0  0  0  0  0  0  0  0  0
   54.5368   28.4599   52.6598 H   0  0  0  0  0  0  0  0  0  0  0  0
   53.5930   30.4410   52.3890 C   0  0  0  0  0  0  0  0  0  0  0  0
   52.7810   30.7130   53.5030 C   0  0  0  0  0  0  0  0  0  0  0  0
   53.0262   30.2725   54.4807 H   0  0  0  0  0  0  0  0  0  0  0  0
   51.6620   31.5420   53.3730 C   0  0  0  0  0  0  0  0  0  0  0  0
   51.0396   31.7669   54.2516 H   0  0  0  0  0  0  0  0  0  0  0  0
   51.3340   32.0850   52.1270 C   0  0  0  0  0  0  0  0  0  0  0  0
   50.2220   32.9090   51.9980 O   0  0  0  0  0  0  0  0  0  0  0  0
   52.1220   31.7940   51.0090 C   0  0  0  0  0  0  0  0  0  0  0  0
   51.8612   32.2179   50.0280 H   0  0  0  0  0  0  0  0  0  0  0  0
   53.2410   30.9650   51.1360 C   0  0  0  0  0  0  0  0  0  0  0  0
   53.8472   30.7229   50.2506 H   0  0  0  0  0  0  0  0  0  0  0  0
  1  2  1  0
  2  3  1  0
  3  4  2  0
  4  5  1  0
  4  6  1  0
  6  7  2  0
  7  8  1  0
  7  9  1  0
  6 10  1  0
 10 11  1  0
 11 12  2  0
 12 13  1  0
 12 14  1  0
 14 15  2  0
 15 16  1  0
 15 17  1  0
 17 18  1  0
 17 19  2  0
 19 20  1  0
 19 21  1  0
 21 22  1  0
 21 23  2  0
 23 24  1  0
 11  3  1  0
 23 14  1  0
M  CHG  2  10  -1  20  -1
M  END
>  <UniqueID>  (5) 
4

>  <SMILES>  (5) 
C=c1cc(O)/c(=C\c2ccc([O-])cc2)[n-]1

>  <Energy>  (5) 
57.60455790396399

>  <Genealogy>  (5) 
C=c1cc(O)c(=Cc2ccc([O-])cc2)[n-]1 (protonated)
C=c1cc(O)/c(=C\c2ccc([O-])cc2)[n-]1 (cis-trans isomerization)
C=c1cc(O)/c(=C\c2ccc([O-])cc2)[n-]1 (3D coordinates assigned)
C=c1cc(O)/c(=C\c2ccc([O-])cc2)[n-]1 (optimized conformer: 57.60455790396399 kcal/mol)

>  <smiles>  (5) 
C=c1cc(O)c(=Cc2ccc(O)cc2)[nH]1

>  <score_type>  (5) 
oracle

>  <origin>  (5) 
adg

>  <m_score__min__energy>  (5) 
-10.26

>  <m_primary>  (5) 
energy

$$$$
5:0
     RDKit          3D

 54 57  0  0  1  0  0  0  0  0999 V2000
   54.3920   24.8970   45.6200 O   0  0  0  0  0  0  0  0  0  0  0  0
   55.8780   24.7310   45.7740 S   0  0  0  0  0  0  0  0  0  0  0  0
   56.2160   24.3800   47.1940 O   0  0  0  0  0  0  0  0  0  0  0  0
   56.6680   26.1970   45.3480 N   0  0  0  0  0  0  0  0  0  0  0  0
   57.8110   26.7030   46.0020 C   0  0  0  0  0  0  0  0  0  0  0  0
   58.8020   25.8390   46.4050 C   0  0  0  0  0  0  0  0  0  0  0  0
   59.9520   26.2560   47.0530 C   0  0  0  0  0  0  0  0  0  0  0  0
   60.1070   27.5990   47.3040 C   0  0  0  0  0  0  0  0  0  0  0  0
   59.1340   28.5220   46.9180 C   0  0  0  0  0  0  0  0  0  0  0  0
   59.3540   29.9210   47.2080 C   0  0  0  0  0  0  0  0  0  0  0  0
   59.0200   30.5350   48.3910 C   0  0  0  0  0  0  0  0  0  0  0  0
   59.2690   31.8790   48.5760 C   0  0  0  0  0  0  0  0  0  0  0  0
   59.8550   32.5970   47.5640 C   0  0  0  0  0  0  0  0  0  0  0  0
   60.0950   33.8380   47.7090 N   0  0  0  0  0  0  0  0  0  0  0  0
   59.5670   34.8710   46.8560 C   0  0  0  0  0  0  0  0  0  0  0  0
   58.1720   34.5750   46.3530 C   0  0  0  0  0  0  0  0  0  0  0  0
   58.1450   34.3150   44.8620 C   0  0  0  0  0  0  0  0  0  0  0  0
   57.7850   32.9320   44.5100 C   0  0  0  0  0  0  0  0  0  0  0  0
   58.1890   32.3280   43.3200 C   0  0  0  0  0  0  0  0  0  0  0  0
   57.6870   31.0760   43.3250 N   0  0  0  0  0  0  0  0  0  0  0  0
   56.9960   30.9180   44.4860 C   0  0  0  0  0  0  0  0  0  0  0  0
   57.0550   32.0530   45.2120 N   0  0  0  0  0  0  0  0  0  0  0  0
   60.1830   32.0110   46.4110 N   0  0  0  0  0  0  0  0  0  0  0  0
   59.9480   30.7020   46.2150 C   0  0  0  0  0  0  0  0  0  0  0  0
   58.0090   28.0470   46.2770 C   0  0  0  0  0  0  0  0  0  0  0  0
   56.3680   23.3890   44.7740 C   0  0  0  0  0  0  0  0  0  0  0  0
   55.9250   23.1970   43.4860 C   0  0  0  0  0  0  0  0  0  0  0  0
   56.3360   22.1150   42.7190 C   0  0  0  0  0  0  0  0  0  0  0  0
   57.2210   21.2040   43.2760 C   0  0  0  0  0  0  0  0  0  0  0  0
   57.6600   21.4030   44.5660 C   0  0  0  0  0  0  0  0  0  0  0  0
   57.2600   22.4730   45.3400 C   0  0  0  0  0  0  0  0  0  0  0  0
   57.7170   22.6400   46.6210 F   0  0  0  0  0  0  0  0  0  0  0  0
   56.2960   26.7830   44.5440 H   0  0  0  0  0  0  0  0  0  0  0  0
   58.6748   24.7652   46.2028 H   0  0  0  0  0  0  0  0  0  0  0  0
   60.7216   25.5320   47.3591 H   0  0  0  0  0  0  0  0  0  0  0  0
   61.0134   27.9519   47.8178 H   0  0  0  0  0  0  0  0  0  0  0  0
   58.5507   29.9506   49.1962 H   0  0  0  0  0  0  0  0  0  0  0  0
   59.0010   32.3694   49.5235 H   0  0  0  0  0  0  0  0  0  0  0  0
   59.5413   35.8131   47.4232 H   0  0  0  0  0  0  0  0  0  0  0  0
   60.2242   34.9352   45.9763 H   0  0  0  0  0  0  0  0  0  0  0  0
   57.7886   33.6857   46.8747 H   0  0  0  0  0  0  0  0  0  0  0  0
   57.5465   35.4574   46.5533 H   0  0  0  0  0  0  0  0  0  0  0  0
   57.4093   34.9928   44.4044 H   0  0  0  0  0  0  0  0  0  0  0  0
   59.1644   34.4878   44.4866 H   0  0  0  0  0  0  0  0  0  0  0  0
   58.8005   32.7853   42.5281 H   0  0  0  0  0  0  0  0  0  0  0  0
   57.7660   30.3180   42.6190 H   0  0  0  0  0  0  0  0  0  0  0  0
   56.4680   30.0014   44.7876 H   0  0  0  0  0  0  0  0  0  0  0  0
   60.6280   32.5740   45.6550 H   0  0  0  0  0  0  0  0  0  0  0  0
   60.2281   30.2391   45.2573 H   0  0  0  0  0  0  0  0  0  0  0  0
   57.2351   28.7662   45.9706 H   0  0  0  0  0  0  0  0  0  0  0  0
   55.2233   23.9233   43.0500 H   0  0  0  0  0  0  0  0  0  0  0  0
   55.9674   21.9831   41.6910 H   0  0  0  0  0  0  0  0  0  0  0  0
   57.5670   20.3356   42.6962 H   0  0  0  0  0  0  0  0  0  0  0  0
   58.3619   20.6754   44.9994 H   0  0  0  0  0  0  0  0  0  0  0  0
  1  2  2  0
  2  3  2  0
  2  4  1  0
  4  5  1  0
  5  6  2  0
  6  7  1  0
  7  8  2  0
  8  9  1  0
  9 10  1  0
 10 11  1  0
 11 12  2  0
 12 13  1  0
 13 14  2  0
 14 15  1  0
 15 16  1  0
 16 17  1  0
 17 18  1  0
 18 19  2  0
 19 20  1  0
 20 21  1  0
 21 22  2  0
 13 23  1  0
 23 24  1  0
  9 25  2  0
  2 26  1  0
 26 27  2  0
 27 28  1  0
 28 29  2  0
 29 30  1  0
 30 31  2  0
 31 32  1  0
 25  5  1  0
 31 26  1  0
 24 10  2  0
 22 18  1  0
  4 33  1  0
  6 34  1  0
  7 35  1  0
  8 36  1  0
 11 37  1  0
 12 38  1  0
 15 39  1  0
 15 40  1  0
 16 41  1  0
 16 42  1  0
 17 43  1  0
 17 44  1  0
 19 45  1  0
 20 46  1  0
 21 47  1  0
 23 48  1  0
 24 49  1  0
 25 50  1  0
 27 51  1  0
 28 52  1  0
 29 53  1  0
 30 54  1  0
M  END
>  <smiles>  (6) 
O=S(=O)(Nc1cccc(-c2ccc(=NCCCc3c[nH]cn3)[nH]c2)c1)c1ccccc1F

>  <score_type>  (6) 
oracle

>  <origin>  (6) 
adg

>  <m_score__min__energy>  (6) 
-9.8200000000000003

>  <m_primary>  (6) 
energy

$$$$
6:0
     RDKit          3D

 50 53  0  0  0  0  0  0  0  0999 V2000
   65.1110   31.9860   50.3070 C   0  0  0  0  0  0  0  0  0  0  0  0
   64.0830   32.5460   49.3670 C   0  0  0  0  0  0  0  0  0  0  0  0
   63.4340   33.7570   49.6590 C   0  0  0  0  0  0  0  0  0  0  0  0
   62.4960   34.2860   48.7660 C   0  0  0  0  0  0  0  0  0  0  0  0
   62.2110   33.6220   47.5610 C   0  0  0  0  0  0  0  0  0  0  0  0
   61.2460   34.2090   46.5660 C   0  0  0  0  0  0  0  0  0  0  0  0
   59.9880   34.5650   47.2240 N   0  0  0  0  0  0  0  0  0  0  0  0
   58.9320   33.6500   47.5600 C   0  0  0  0  0  0  0  0  0  0  0  0
   57.8240   33.7620   46.9700 O   0  0  0  0  0  0  0  0  0  0  0  0
   59.0990   32.6030   48.5860 C   0  0  0  0  0  0  0  0  0  0  0  0
   59.8340   32.8550   49.7530 C   0  0  0  0  0  0  0  0  0  0  0  0
   59.9610   31.8670   50.7330 C   0  0  0  0  0  0  0  0  0  0  0  0
   59.3720   30.6070   50.5490 C   0  0  0  0  0  0  0  0  0  0  0  0
   59.5330   29.5330   51.5890 C   0  0  0  0  0  0  0  0  0  0  0  0
   59.0890   30.1460   53.2520 S   0  0  0  0  0  0  0  0  0  0  0  0
   57.3370   29.8200   53.0680 C   0  0  0  0  0  0  0  0  0  0  0  0
   56.7760   28.6070   53.2230 N   0  0  0  0  0  0  0  0  0  0  0  0
   55.4780   28.7730   53.0210 N   0  0  0  0  0  0  0  0  0  0  0  0
   55.2990   30.0820   52.7490 C   0  0  0  0  0  0  0  0  0  0  0  0
   53.9920   30.7020   52.4520 C   0  0  0  0  0  0  0  0  0  0  0  0
   53.0220   30.8260   53.4620 C   0  0  0  0  0  0  0  0  0  0  0  0
   51.7820   31.4120   53.1830 C   0  0  0  0  0  0  0  0  0  0  0  0
   51.5080   31.8990   51.8980 C   0  0  0  0  0  0  0  0  0  0  0  0
   50.2850   32.5060   51.6270 O   0  0  0  0  0  0  0  0  0  0  0  0
   52.4720   31.7880   50.8890 C   0  0  0  0  0  0  0  0  0  0  0  0
   53.7070   31.1890   51.1600 C   0  0  0  0  0  0  0  0  0  0  0  0
   56.4400   30.7310   52.7780 O   0  0  0  0  0  0  0  0  0  0  0  0
   58.6680   30.3420   49.3640 C   0  0  0  0  0  0  0  0  0  0  0  0
   58.5360   31.3320   48.3860 C   0  0  0  0  0  0  0  0  0  0  0  0
   62.8770   32.4220   47.2610 C   0  0  0  0  0  0  0  0  0  0  0  0
   63.8070   31.8870   48.1600 C   0  0  0  0  0  0  0  0  0  0  0  0
   64.7918   32.1599   51.3452 H   0  0  0  0  0  0  0  0  0  0  0  0
   65.2175   30.9052   50.1322 H   0  0  0  0  0  0  0  0  0  0  0  0
   66.0768   32.4826   50.1322 H   0  0  0  0  0  0  0  0  0  0  0  0
   63.6640   34.2911   50.5927 H   0  0  0  0  0  0  0  0  0  0  0  0
   61.9791   35.2263   49.0084 H   0  0  0  0  0  0  0  0  0  0  0  0
   61.6896   35.1113   46.1198 H   0  0  0  0  0  0  0  0  0  0  0  0
   61.0411   33.4624   45.7846 H   0  0  0  0  0  0  0  0  0  0  0  0
   60.3128   33.8347   49.8978 H   0  0  0  0  0  0  0  0  0  0  0  0
   60.5255   32.0782   51.6532 H   0  0  0  0  0  0  0  0  0  0  0  0
   58.8795   28.6859   51.3332 H   0  0  0  0  0  0  0  0  0  0  0  0
   60.5876   29.2206   51.6046 H   0  0  0  0  0  0  0  0  0  0  0  0
   53.2387   30.4606   54.4767 H   0  0  0  0  0  0  0  0  0  0  0  0
   51.0213   31.4904   53.9737 H   0  0  0  0  0  0  0  0  0  0  0  0
   52.2580   32.1726   49.8809 H   0  0  0  0  0  0  0  0  0  0  0  0
   54.4585   31.0977   50.3619 H   0  0  0  0  0  0  0  0  0  0  0  0
   58.2182   29.3510   49.2042 H   0  0  0  0  0  0  0  0  0  0  0  0
   57.9893   31.1148   47.4565 H   0  0  0  0  0  0  0  0  0  0  0  0
   62.6667   31.9006   46.3155 H   0  0  0  0  0  0  0  0  0  0  0  0
   64.3234   30.9461   47.9190 H   0  0  0  0  0  0  0  0  0  0  0  0
  1  2  1  0
  2  3  2  0
  3  4  1  0
  4  5  2  0
  5  6  1  0
  6  7  1  0
  7  8  1  0
  8  9  2  0
  8 10  1  0
 10 11  2  0
 11 12  1  0
 12 13  2  0
 13 14  1  0
 14 15  1  0
 15 16  1  0
 16 17  2  0
 17 18  1  0
 18 19  2  0
 19 20  1  0
 20 21  2  0
 21 22  1  0
 22 23  2  0
 23 24  1  0
 23 25  1  0
 25 26  2  0
 19 27  1  0
 13 28  1  0
 28 29  2  0
  5 30  1  0
 30 31  2  0
 31  2  1  0
 29 10  1  0
 27 16  1  0
 26 20  1  0
  1 32  1  0
  1 33  1  0
  1 34  1  0
  3 35  1  0
  4 36  1  0
  6 37  1  0
  6 38  1  0
 11 39  1  0
 12 40  1  0
 14 41  1  0
 14 42  1  0
 21 43  1  0
 22 44  1  0
 25 45  1  0
 26 46  1  0
 28 47  1  0
 29 48  1  0
 30 49  1  0
 31 50  1  0
M  CHG  2   7  -1  24  -1
M  END
>  <UniqueID>  (7) 
5

>  <SMILES>  (7) 
Cc1ccc(C[N-]C(=O)c2ccc(CSc3nnc(-c4ccc([O-])cc4)o3)cc2)cc1

>  <Energy>  (7) 
86.52215111618177

>  <Genealogy>  (7) 
Cc1ccc(C[N-]C(=O)c2ccc(CSc3nnc(-c4ccc([O-])cc4)o3)cc2)cc1 (protonated)
Cc1ccc(C[N-]C(=O)c2ccc(CSc3nnc(-c4ccc([O-])cc4)o3)cc2)cc1 (3D coordinates assigned)
Cc1ccc(C[N-]C(=O)c2ccc(CSc3nnc(-c4ccc([O-])cc4)o3)cc2)cc1 (optimized conformer: 86.52215111618177 kcal/mol)

>  <smiles>  (7) 
Cc1ccc(CNC(=O)c2ccc(CSc3nnc(-c4ccc(O)cc4)o3)cc2)cc1

>  <score_type>  (7) 
oracle

>  <origin>  (7) 
adg

>  <m_score__min__energy>  (7) 
-12.81

>  <m_primary>  (7) 
energy

$$$$
7:0
     RDKit          3D

 31 32  0  0  0  0  0  0  0  0999 V2000
   57.9330   32.9140   47.8100 H   0  0  0  0  0  0  0  0  0  0  0  0
   58.9160   33.0180   48.0300 O   0  0  0  0  0  0  0  0  0  0  0  0
   59.8980   32.1210   47.6110 C   0  0  0  0  0  0  0  0  0  0  0  0
   59.5000   30.9860   46.9820 N   0  0  0  0  0  0  0  0  0  0  0  0
   60.3900   30.0660   46.5300 C   0  0  0  0  0  0  0  0  0  0  0  0
   59.8860   28.8520   45.8520 C   0  0  0  0  0  0  0  0  0  0  0  0
   60.6249   28.1755   45.3978 H   0  0  0  0  0  0  0  0  0  0  0  0
   58.5850   28.5170   45.7520 C   0  0  0  0  0  0  0  0  0  0  0  0
   58.0760   27.3510   46.2140 N   0  0  0  0  0  0  0  0  0  0  0  0
   56.7540   27.3730   45.9360 C   0  0  0  0  0  0  0  0  0  0  0  0
   55.8380   26.2790   46.2810 C   0  0  0  0  0  0  0  0  0  0  0  0
   56.2620   25.2790   46.9180 O   0  0  0  0  0  0  0  0  0  0  0  0
   54.5000   26.3350   45.9100 O   0  0  0  0  0  0  0  0  0  0  0  0
   56.4200   28.5480   45.2980 C   0  0  0  0  0  0  0  0  0  0  0  0
   55.1520   28.9180   44.8620 O   0  0  0  0  0  0  0  0  0  0  0  0
   57.5750   29.2900   45.1720 C   0  0  0  0  0  0  0  0  0  0  0  0
   57.6650   30.4970   44.6050 C   0  0  0  0  0  0  0  0  0  0  0  0
   58.6371   31.0093   44.5533 H   0  0  0  0  0  0  0  0  0  0  0  0
   56.7670   30.9781   44.1900 H   0  0  0  0  0  0  0  0  0  0  0  0
   61.7200   30.2830   46.7040 N   0  0  0  0  0  0  0  0  0  0  0  0
   62.1820   31.3960   47.3280 C   0  0  0  0  0  0  0  0  0  0  0  0
   63.4250   31.5530   47.4590 O   0  0  0  0  0  0  0  0  0  0  0  0
   61.2760   32.3590   47.8160 C   0  0  0  0  0  0  0  0  0  0  0  0
   61.7750   33.6140   48.5040 C   0  0  0  0  0  0  0  0  0  0  0  0
   62.0544   33.3695   49.5394 H   0  0  0  0  0  0  0  0  0  0  0  0
   60.9714   34.3649   48.4884 H   0  0  0  0  0  0  0  0  0  0  0  0
   62.9730   34.1800   47.7920 C   0  0  0  0  0  0  0  0  0  0  0  0
   63.8084   34.5801   48.3853 H   0  0  0  0  0  0  0  0  0  0  0  0
   63.0500   34.2100   46.4590 C   0  0  0  0  0  0  0  0  0  0  0  0
   63.9403   34.6308   45.9688 H   0  0  0  0  0  0  0  0  0  0  0  0
   62.2231   33.8139   45.8513 H   0  0  0  0  0  0  0  0  0  0  0  0
  1  2  1  0
  2  3  1  0
  3  4  1  0
  4  5  1  0
  5  6  1  0
  6  7  1  0
  6  8  2  0
  8  9  1  0
  9 10  1  0
 10 11  1  0
 11 12  2  0
 11 13  1  0
 10 14  2  0
 14 15  1  0
 14 16  1  0
 16 17  2  0
 17 18  1  0
 17 19  1  0
  5 20  2  0
 20 21  1  0
 21 22  2  0
 21 23  1  0
 23 24  1  0
 24 25  1  0
 24 26  1  0
 24 27  1  0
 27 28  1  0
 27 29  2  0
 29 30  1  0
 29 31  1  0
 23  3  2  0
 16  8  1  0
M  CHG  4   4  -1   9  -1  13  -1  15  -1
M  END
>  <UniqueID>  (8) 
6

>  <SMILES>  (8) 
C=CCc1c(O)[n-]c(/C=c2\[n-]c(C(=O)[O-])c([O-])c2=C)nc1=O

>  <Energy>  (8) 
61.71814771040455

>  <Genealogy>  (8) 
C=CCc1c(O)[n-]c(C=c2[n-]c(C(=O)[O-])c([O-])c2=C)nc1=O (protonated)
C=CCc1c(O)[n-]c(/C=c2\[n-]c(C(=O)[O-])c([O-])c2=C)nc1=O (cis-trans isomerization)
C=CCc1c(O)[n-]c(/C=c2\[n-]c(C(=O)[O-])c([O-])c2=C)nc1=O (3D coordinates assigned)
C=CCc1c(O)[n-]c(/C=c2\[n-]c(C(=O)[O-])c([O-])c2=C)nc1=O (optimized conformer: 61.71814771040455 kcal/mol)

>  <smiles>  (8) 
C=CCc1c(O)[nH]c(C=c2[nH]c(C(=O)O)c(O)c2=C)nc1=O

>  <score_type>  (8) 
oracle

>  <origin>  (8) 
adg

>  <m_score__min__energy>  (8) 
-16.210000000000001

>  <m_primary>  (8) 
energy

$$$$
8:0
     RDKit          3D

 54 57  0  0  0  0  0  0  0  0999 V2000
   55.9170   21.4030   45.0460 C   0  0  0  0  0  0  0  0  0  0  0  0
   55.0200   21.1550   46.0030 C   0  0  0  0  0  0  0  0  0  0  0  0
   54.7400   22.1450   47.1000 C   0  0  0  0  0  0  0  0  0  0  0  0
   55.6260   23.3190   46.9780 N   0  0  0  0  0  0  0  0  0  0  0  0
   56.9270   23.2760   47.4550 C   0  0  0  0  0  0  0  0  0  0  0  0
   57.3720   22.2390   48.0170 O   0  0  0  0  0  0  0  0  0  0  0  0
   57.7530   24.3570   47.3260 N   0  0  0  0  0  0  0  0  0  0  0  0
   57.2780   25.4670   46.7200 C   0  0  0  0  0  0  0  0  0  0  0  0
   57.9420   26.6100   46.5090 N   0  0  0  0  0  0  0  0  0  0  0  0
   57.0040   27.3690   45.8740 C   0  0  0  0  0  0  0  0  0  0  0  0
   57.2620   28.7560   45.4290 C   0  0  0  0  0  0  0  0  0  0  0  0
   56.3970   29.3940   44.5270 C   0  0  0  0  0  0  0  0  0  0  0  0
   56.6480   30.7070   44.1240 C   0  0  0  0  0  0  0  0  0  0  0  0
   57.7650   31.3790   44.6230 C   0  0  0  0  0  0  0  0  0  0  0  0
   58.0070   32.6990   44.2250 O   0  0  0  0  0  0  0  0  0  0  0  0
   57.4300   33.8350   44.8660 C   0  0  0  0  0  0  0  0  0  0  0  0
   57.0770   33.5280   46.3270 C   0  0  0  0  0  0  0  0  0  0  0  0
   58.3260   33.2220   47.1620 C   0  0  0  0  0  0  0  0  0  0  0  0
   59.0680   34.4760   47.4340 N   0  0  0  0  0  0  0  0  0  0  0  0
   59.6530   34.5570   48.7990 C   0  0  0  0  0  0  0  0  0  0  0  0
   61.1550   34.2020   48.8650 C   0  0  0  0  0  0  0  0  0  0  0  0
   61.5570   33.2470   47.7450 C   0  0  0  0  0  0  0  0  0  0  0  0
   61.2670   33.8620   46.3670 C   0  0  0  0  0  0  0  0  0  0  0  0
   60.0460   34.8080   46.3760 C   0  0  0  0  0  0  0  0  0  0  0  0
   58.5970   30.7460   45.4960 N   0  0  0  0  0  0  0  0  0  0  0  0
   58.3770   29.4680   45.9040 C   0  0  0  0  0  0  0  0  0  0  0  0
   55.8070   26.7440   45.6900 N   0  0  0  0  0  0  0  0  0  0  0  0
   56.0240   25.5420   46.2400 C   0  0  0  0  0  0  0  0  0  0  0  0
   55.1640   24.4600   46.3550 C   0  0  0  0  0  0  0  0  0  0  0  0
   53.9920   24.5290   45.8930 O   0  0  0  0  0  0  0  0  0  0  0  0
   56.0995   20.6586   44.2569 H   0  0  0  0  0  0  0  0  0  0  0  0
   56.4737   22.3517   45.0465 H   0  0  0  0  0  0  0  0  0  0  0  0
   54.4713   20.2017   45.9889 H   0  0  0  0  0  0  0  0  0  0  0  0
   53.6925   22.4738   47.0317 H   0  0  0  0  0  0  0  0  0  0  0  0
   54.9240   21.6608   48.0704 H   0  0  0  0  0  0  0  0  0  0  0  0
   55.5191   28.8585   44.1365 H   0  0  0  0  0  0  0  0  0  0  0  0
   55.9699   31.2086   43.4179 H   0  0  0  0  0  0  0  0  0  0  0  0
   58.1493   34.6667   44.8379 H   0  0  0  0  0  0  0  0  0  0  0  0
   56.5057   34.1033   44.3334 H   0  0  0  0  0  0  0  0  0  0  0  0
   56.5638   34.3993   46.7600 H   0  0  0  0  0  0  0  0  0  0  0  0
   56.4288   32.6394   46.3428 H   0  0  0  0  0  0  0  0  0  0  0  0
   58.0246   32.7621   48.1147 H   0  0  0  0  0  0  0  0  0  0  0  0
   58.9746   32.5299   46.6049 H   0  0  0  0  0  0  0  0  0  0  0  0
   59.5246   35.5849   49.1691 H   0  0  0  0  0  0  0  0  0  0  0  0
   59.1247   33.8140   49.4145 H   0  0  0  0  0  0  0  0  0  0  0  0
   61.7444   35.1263   48.7745 H   0  0  0  0  0  0  0  0  0  0  0  0
   61.3487   33.7046   49.8268 H   0  0  0  0  0  0  0  0  0  0  0  0
   62.6330   33.0324   47.8240 H   0  0  0  0  0  0  0  0  0  0  0  0
   60.9712   32.3215   47.8462 H   0  0  0  0  0  0  0  0  0  0  0  0
   62.1505   34.4323   46.0442 H   0  0  0  0  0  0  0  0  0  0  0  0
   61.0391   33.0354   45.6779 H   0  0  0  0  0  0  0  0  0  0  0  0
   60.4005   35.8369   46.5362 H   0  0  0  0  0  0  0  0  0  0  0  0
   59.5354   34.6967   45.4081 H   0  0  0  0  0  0  0  0  0  0  0  0
   59.0737   28.9896   46.6081 H   0  0  0  0  0  0  0  0  0  0  0  0
  1  2  2  0
  2  3  1  0
  3  4  1  0
  4  5  1  0
  5  6  2  0
  5  7  1  0
  7  8  1  0
  8  9  1  0
  9 10  2  0
 10 11  1  0
 11 12  2  0
 12 13  1  0
 13 14  2  0
 14 15  1  0
 15 16  1  0
 16 17  1  0
 17 18  1  0
 18 19  1  0
 19 20  1  0
 20 21  1  0
 21 22  1  0
 22 23  1  0
 23 24  1  0
 14 25  1  0
 25 26  2  0
 10 27  1  0
 27 28  1  0
 28 29  1  0
 29 30  2  0
 29  4  1  0
 28  8  2  0
 26 11  1  0
 24 19  1  0
  1 31  1  0
  1 32  1  0
  2 33  1  0
  3 34  1  0
  3 35  1  0
 12 36  1  0
 13 37  1  0
 16 38  1  0
 16 39  1  0
 17 40  1  0
 17 41  1  0
 18 42  1  0
 18 43  1  0
 20 44  1  0
 20 45  1  0
 21 46  1  0
 21 47  1  0
 22 48  1  0
 22 49  1  0
 23 50  1  0
 23 51  1  0
 24 52  1  0
 24 53  1  0
 26 54  1  0
M  CHG  2   7  -1  27  -1
M  END
>  <UniqueID>  (9) 
7

>  <SMILES>  (9) 
C=CCn1c(=O)[n-]c2nc(-c3ccc(OCCCN4CCCCC4)nc3)[n-]c2c1=O

>  <Energy>  (9) 
101.66463210241791

>  <Genealogy>  (9) 
C=CCn1c(=O)[n-]c2nc(-c3ccc(OCCCN4CCCCC4)nc3)[n-]c2c1=O (protonated)
C=CCn1c(=O)[n-]c2nc(-c3ccc(OCCCN4CCCCC4)nc3)[n-]c2c1=O (3D coordinates assigned)
C=CCn1c(=O)[n-]c2nc(-c3ccc(OCCCN4CCCCC4)nc3)[n-]c2c1=O (nonaromatic ring conformer: 101.66463210241791 kcal/mol)

>  <smiles>  (9) 
C=CCn1c(=O)[nH]c2nc(-c3ccc(OCCCN4CCCCC4)nc3)[nH]c2c1=O

>  <score_type>  (9) 
oracle

>  <origin>  (9) 
adg

>  <m_score__min__energy>  (9) 
-11.33

>  <m_primary>  (9) 
energy

$$$$
9:0
     RDKit          3D

 38 40  0  0  0  0  0  0  0  0999 V2000
   55.8410   26.4910   45.4040 H   0  0  0  0  0  0  0  0  0  0  0  0
   55.6610   27.4630   45.6150 O   0  0  0  0  0  0  0  0  0  0  0  0
   56.5560   28.4730   45.2680 C   0  0  0  0  0  0  0  0  0  0  0  0
   56.1620   29.7740   45.2290 N   0  0  0  0  0  0  0  0  0  0  0  0
   57.1670   30.5910   44.8480 C   0  0  0  0  0  0  0  0  0  0  0  0
   56.9870   31.8670   44.6690 N   0  0  0  0  0  0  0  0  0  0  0  0
   57.7510   32.9300   45.2590 C   0  0  0  0  0  0  0  0  0  0  0  0
   58.4850   33.8410   44.4750 C   0  0  0  0  0  0  0  0  0  0  0  0
   58.4649   33.7606   43.3781 H   0  0  0  0  0  0  0  0  0  0  0  0
   59.2390   34.8470   45.0860 C   0  0  0  0  0  0  0  0  0  0  0  0
   59.7950   35.5684   44.4693 H   0  0  0  0  0  0  0  0  0  0  0  0
   59.2870   34.9370   46.4800 C   0  0  0  0  0  0  0  0  0  0  0  0
   59.8734   35.7346   46.9596 H   0  0  0  0  0  0  0  0  0  0  0  0
   58.5910   34.0150   47.2640 C   0  0  0  0  0  0  0  0  0  0  0  0
   58.6388   34.0798   48.3610 H   0  0  0  0  0  0  0  0  0  0  0  0
   57.8330   33.0090   46.6560 C   0  0  0  0  0  0  0  0  0  0  0  0
   57.2983   32.2758   47.2776 H   0  0  0  0  0  0  0  0  0  0  0  0
   58.5830   29.7290   44.5260 S   0  0  0  0  0  0  0  0  0  0  0  0
   57.8910   28.2460   44.9230 C   0  0  0  0  0  0  0  0  0  0  0  0
   58.5750   26.9180   44.7880 C   0  0  0  0  0  0  0  0  0  0  0  0
   59.5716   26.9739   45.2502 H   0  0  0  0  0  0  0  0  0  0  0  0
   58.6695   26.6697   43.7206 H   0  0  0  0  0  0  0  0  0  0  0  0
   57.7680   25.8450   45.4730 C   0  0  0  0  0  0  0  0  0  0  0  0
   57.6520   25.8890   46.7270 O   0  0  0  0  0  0  0  0  0  0  0  0
   57.0030   24.8610   44.7520 N   0  0  0  0  0  0  0  0  0  0  0  0
   55.9790   24.1660   45.1650 C   0  0  0  0  0  0  0  0  0  0  0  0
   54.8360   24.7790   45.5840 N   0  0  0  0  0  0  0  0  0  0  0  0
   53.7540   24.0810   46.0150 C   0  0  0  0  0  0  0  0  0  0  0  0
   52.8550   24.6155   46.3556 H   0  0  0  0  0  0  0  0  0  0  0  0
   53.7820   22.6890   46.0260 C   0  0  0  0  0  0  0  0  0  0  0  0
   52.9082   22.1185   46.3738 H   0  0  0  0  0  0  0  0  0  0  0  0
   54.9280   22.0260   45.5920 C   0  0  0  0  0  0  0  0  0  0  0  0
   54.9597   20.9265   45.5958 H   0  0  0  0  0  0  0  0  0  0  0  0
   56.0420   22.7560   45.1500 C   0  0  0  0  0  0  0  0  0  0  0  0
   57.2790   22.0360   44.6830 C   0  0  0  0  0  0  0  0  0  0  0  0
   57.8583   21.6988   45.5552 H   0  0  0  0  0  0  0  0  0  0  0  0
   56.9894   21.1653   44.0763 H   0  0  0  0  0  0  0  0  0  0  0  0
   57.8931   22.7178   44.0763 H   0  0  0  0  0  0  0  0  0  0  0  0
  1  2  1  0
  2  3  1  0
  3  4  1  0
  4  5  1  0
  5  6  2  3
  6  7  1  0
  7  8  2  0
  8  9  1  0
  8 10  1  0
 10 11  1  0
 10 12  2  0
 12 13  1  0
 12 14  1  0
 14 15  1  0
 14 16  2  0
 16 17  1  0
  5 18  1  0
 18 19  1  0
 19 20  1  0
 20 21  1  0
 20 22  1  0
 20 23  1  0
 23 24  2  0
 23 25  1  0
 25 26  2  0
 26 27  1  0
 27 28  1  0
 28 29  1  0
 28 30  2  0
 30 31  1  0
 30 32  1  0
 32 33  1  0
 32 34  2  0
 34 35  1  0
 35 36  1  0
 35 37  1  0
 35 38  1  0
 19  3  2  0
 34 26  1  0
 16  7  1  0
M  CHG  2   4  -1  27  -1
M  END
>  <UniqueID>  (10) 
8

>  <SMILES>  (10) 
Cc1ccc[n-]/c1=N\C(=O)Cc1sc(=Nc2ccccc2)[n-]c1O

>  <Energy>  (10) 
82.21026523113125

>  <Genealogy>  (10) 
Cc1ccc[n-]c1=NC(=O)Cc1sc(=Nc2ccccc2)[n-]c1O (protonated)
Cc1ccc[n-]/c1=N\C(=O)Cc1sc(=Nc2ccccc2)[n-]c1O (cis-trans isomerization)
Cc1ccc[n-]/c1=N\C(=O)Cc1sc(=Nc2ccccc2)[n-]c1O (3D coordinates assigned)
Cc1ccc[n-]/c1=N\C(=O)Cc1sc(=Nc2ccccc2)[n-]c1O (optimized conformer: 82.21026523113125 kcal/mol)

>  <smiles>  (10) 
Cc1ccc[nH]c1=NC(=O)Cc1sc(=Nc2ccccc2)[nH]c1O

>  <score_type>  (10) 
oracle

>  <origin>  (10) 
adg

>  <m_score__min__energy>  (10) 
-12.65

>  <m_primary>  (10) 
energy

$$$$
10:0
     RDKit          3D

 57 61  0  0  0  0  0  0  0  0999 V2000
   57.0270   32.3280   52.3710 C   0  0  0  0  0  0  0  0  0  0  0  0
   58.4280   32.2490   52.8220 N   0  0  0  0  0  0  0  0  0  0  0  0
   59.0780   33.5770   52.8300 C   0  0  0  0  0  0  0  0  0  0  0  0
   59.2710   34.1290   51.4060 C   0  0  0  0  0  0  0  0  0  0  0  0
   59.6390   33.0540   50.4780 N   0  0  0  0  0  0  0  0  0  0  0  0
   59.4720   33.2330   49.0580 C   0  0  0  0  0  0  0  0  0  0  0  0
   60.1310   34.2830   48.3910 C   0  0  0  0  0  0  0  0  0  0  0  0
   59.9800   34.4540   47.0110 C   0  0  0  0  0  0  0  0  0  0  0  0
   59.1760   33.5740   46.2830 C   0  0  0  0  0  0  0  0  0  0  0  0
   59.0140   33.7300   44.9430 N   0  0  0  0  0  0  0  0  0  0  0  0
   58.2380   32.8770   44.2250 C   0  0  0  0  0  0  0  0  0  0  0  0
   57.5920   31.8070   44.8730 C   0  0  0  0  0  0  0  0  0  0  0  0
   57.7390   31.6670   46.2200 N   0  0  0  0  0  0  0  0  0  0  0  0
   58.5220   32.5130   46.9390 C   0  0  0  0  0  0  0  0  0  0  0  0
   58.6700   32.3450   48.3190 C   0  0  0  0  0  0  0  0  0  0  0  0
   56.6320   30.9220   44.1020 C   0  0  2  0  0  0  0  0  0  0  0  0
   56.4740   29.5710   44.7710 C   0  0  0  0  0  0  0  0  0  0  0  0
   55.3180   29.0690   44.8590 O   0  0  0  0  0  0  0  0  0  0  0  0
   57.6090   28.8290   45.2720 N   0  0  0  0  0  0  0  0  0  0  0  0
   57.3860   27.7170   46.2080 C   0  0  0  0  0  0  0  0  0  0  0  0
   58.5670   27.5970   47.1770 C   0  0  0  0  0  0  0  0  0  0  0  0
   59.9180   27.4390   46.4520 C   0  0  0  0  0  0  0  0  0  0  0  0
   59.8880   27.8900   44.9830 C   0  0  0  0  0  0  0  0  0  0  0  0
   58.9680   29.0970   44.7710 C   0  0  0  0  0  0  0  0  0  0  0  0
   57.0760   30.7490   42.6330 C   0  0  0  0  0  0  0  0  0  0  0  0
   57.4290   32.0750   42.0220 C   0  0  0  0  0  0  0  0  0  0  0  0
   57.2210   32.2880   40.7980 O   0  0  0  0  0  0  0  0  0  0  0  0
   58.0810   33.0670   42.8170 N   0  0  0  0  0  0  0  0  0  0  0  0
   60.1690   31.8050   51.0300 C   0  0  0  0  0  0  0  0  0  0  0  0
   59.1930   31.2210   52.0680 C   0  0  0  0  0  0  0  0  0  0  0  0
   56.3616   32.3655   53.2462 H   0  0  0  0  0  0  0  0  0  0  0  0
   56.8875   33.2354   51.7651 H   0  0  0  0  0  0  0  0  0  0  0  0
   56.7863   31.4420   51.7651 H   0  0  0  0  0  0  0  0  0  0  0  0
   58.4502   34.2770   53.4009 H   0  0  0  0  0  0  0  0  0  0  0  0
   60.0706   33.4685   53.2915 H   0  0  0  0  0  0  0  0  0  0  0  0
   58.3322   34.5920   51.0680 H   0  0  0  0  0  0  0  0  0  0  0  0
   60.0801   34.8741   51.4224 H   0  0  0  0  0  0  0  0  0  0  0  0
   60.7699   34.9746   48.9597 H   0  0  0  0  0  0  0  0  0  0  0  0
   60.4941   35.2810   46.4994 H   0  0  0  0  0  0  0  0  0  0  0  0
   58.1575   31.5156   48.8284 H   0  0  0  0  0  0  0  0  0  0  0  0
   55.6537   31.4249   44.1037 H   0  0  0  0  0  0  0  0  0  0  0  0
   56.4644   27.9020   46.7793 H   0  0  0  0  0  0  0  0  0  0  0  0
   57.2925   26.7809   45.6380 H   0  0  0  0  0  0  0  0  0  0  0  0
   58.6053   28.5035   47.7989 H   0  0  0  0  0  0  0  0  0  0  0  0
   58.4081   26.6935   47.7839 H   0  0  0  0  0  0  0  0  0  0  0  0
   60.6700   28.0399   46.9843 H   0  0  0  0  0  0  0  0  0  0  0  0
   60.1599   26.3659   46.4537 H   0  0  0  0  0  0  0  0  0  0  0  0
   60.9080   28.1626   44.6744 H   0  0  0  0  0  0  0  0  0  0  0  0
   59.4988   27.0565   44.3799 H   0  0  0  0  0  0  0  0  0  0  0  0
   59.3834   29.9627   45.3076 H   0  0  0  0  0  0  0  0  0  0  0  0
   58.9061   29.3009   43.6918 H   0  0  0  0  0  0  0  0  0  0  0  0
   57.9561   30.0900   42.5976 H   0  0  0  0  0  0  0  0  0  0  0  0
   56.2444   30.3088   42.0632 H   0  0  0  0  0  0  0  0  0  0  0  0
   60.3090   31.0792   50.2154 H   0  0  0  0  0  0  0  0  0  0  0  0
   61.1313   32.0116   51.5212 H   0  0  0  0  0  0  0  0  0  0  0  0
   58.4765   30.5723   51.5428 H   0  0  0  0  0  0  0  0  0  0  0  0
   59.8000   30.6723   52.8031 H   0  0  0  0  0  0  0  0  0  0  0  0
  1  2  1  0
  2  3  1  0
  3  4  1  0
  4  5  1  0
  5  6  1  0
  6  7  2  0
  7  8  1  0
  8  9  2  0
  9 10  1  0
 10 11  2  0
 11 12  1  0
 12 13  2  0
 13 14  1  0
 14 15  2  0
 12 16  1  0
 16 17  1  0
 17 18  2  0
 17 19  1  0
 19 20  1  0
 20 21  1  0
 21 22  1  0
 22 23  1  0
 23 24  1  0
 16 25  1  0
 25 26  1  0
 26 27  2  0
 26 28  1  0
  5 29  1  0
 29 30  1  0
 30  2  1  0
 15  6  1  0
 24 19  1  0
 14  9  1  0
 28 11  1  0
  1 31  1  0
  1 32  1  0
  1 33  1  0
  3 34  1  0
  3 35  1  0
  4 36  1  0
  4 37  1  0
  7 38  1  0
  8 39  1  0
 15 40  1  0
 16 41  1  6
 20 42  1  0
 20 43  1  0
 21 44  1  0
 21 45  1  0
 22 46  1  0
 22 47  1  0
 23 48  1  0
 23 49  1  0
 24 50  1  0
 24 51  1  0
 25 52  1  0
 25 53  1  0
 29 54  1  0
 29 55  1  0
 30 56  1  0
 30 57  1  0
M  CHG  1  28  -1
M  END
>  <UniqueID>  (11) 
9

>  <SMILES>  (11) 
CN1CCN(c2ccc3nc4c(nc3c2)[C@H](C(=O)N2CCCCC2)CC(=O)[N-]4)CC1

>  <Energy>  (11) 
78.37657989539332

>  <Genealogy>  (11) 
CN1CCN(c2ccc3nc4c(nc3c2)C(C(=O)N2CCCCC2)CC(=O)[N-]4)CC1 (protonated)
CN1CCN(c2ccc3nc4c(nc3c2)[C@H](C(=O)N2CCCCC2)CC(=O)[N-]4)CC1 (chirality)
CN1CCN(c2ccc3nc4c(nc3c2)[C@H](C(=O)N2CCCCC2)CC(=O)[N-]4)CC1 (3D coordinates assigned)
CN1CCN(c2ccc3nc4c(nc3c2)[C@H](C(=O)N2CCCCC2)CC(=O)[N-]4)CC1 (nonaromatic ring conformer: 78.37657989539332 kcal/mol)

>  <smiles>  (11) 
CN1CCN(c2ccc3nc4c(nc3c2)C(C(=O)N2CCCCC2)CC(=O)N4)CC1

>  <score_type>  (11) 
oracle

>  <origin>  (11) 
adg

>  <m_score__min__energy>  (11) 
-10.789999999999999

>  <m_primary>  (11) 
energy

$$$$
11:0
     RDKit          3D

 39 41  0  0  0  0  0  0  0  0999 V2000
   58.5190   33.0800   43.7380 C   0  0  0  0  0  0  0  0  0  0  0  0
   58.2030   33.5510   45.1770 C   0  0  0  0  0  0  0  0  0  0  0  0
   56.7480   34.0500   45.2600 C   0  0  0  0  0  0  0  0  0  0  0  0
   59.1240   34.7360   45.4910 C   0  0  0  0  0  0  0  0  0  0  0  0
   59.1820   35.6850   44.7210 O   0  0  0  0  0  0  0  0  0  0  0  0
   59.9670   34.7700   46.7360 C   0  0  0  0  0  0  0  0  0  0  0  0
   59.2520   34.0270   47.8640 C   0  0  2  0  0  0  0  0  0  0  0  0
   60.0480   33.9880   49.0230 O   0  0  0  0  0  0  0  0  0  0  0  0
   58.8870   32.6390   47.4190 C   0  0  0  0  0  0  0  0  0  0  0  0
   58.4090   32.3950   46.1820 C   0  0  0  0  0  0  0  0  0  0  0  0
   58.0870   30.9820   45.8400 C   0  0  0  0  0  0  0  0  0  0  0  0
   57.2140   30.4990   44.8730 C   0  0  0  0  0  0  0  0  0  0  0  0
   57.2290   29.1540   44.9170 N   0  0  0  0  0  0  0  0  0  0  0  0
   58.0560   28.7670   45.8730 N   0  0  0  0  0  0  0  0  0  0  0  0
   58.3890   27.3760   46.1620 C   0  0  0  0  0  0  0  0  0  0  0  0
   57.1410   26.5520   46.1860 C   0  0  0  0  0  0  0  0  0  0  0  0
   56.9890   25.3360   46.8060 C   0  0  0  0  0  0  0  0  0  0  0  0
   55.7110   24.9420   46.6780 N   0  0  0  0  0  0  0  0  0  0  0  0
   55.1240   25.9430   45.9890 C   0  0  0  0  0  0  0  0  0  0  0  0
   55.9640   26.9520   45.6780 N   0  0  0  0  0  0  0  0  0  0  0  0
   58.6020   29.8500   46.4540 C   0  0  0  0  0  0  0  0  0  0  0  0
   59.1315   32.1671   43.7772 H   0  0  0  0  0  0  0  0  0  0  0  0
   57.5793   32.8686   43.2067 H   0  0  0  0  0  0  0  0  0  0  0  0
   59.0710   33.8694   43.2067 H   0  0  0  0  0  0  0  0  0  0  0  0
   56.4545   34.1506   46.3153 H   0  0  0  0  0  0  0  0  0  0  0  0
   56.6666   35.0274   44.7620 H   0  0  0  0  0  0  0  0  0  0  0  0
   56.0839   33.3283   44.7620 H   0  0  0  0  0  0  0  0  0  0  0  0
   60.9345   34.2864   46.5356 H   0  0  0  0  0  0  0  0  0  0  0  0
   60.1311   35.8156   47.0358 H   0  0  0  0  0  0  0  0  0  0  0  0
   58.3279   34.5707   48.1097 H   0  0  0  0  0  0  0  0  0  0  0  0
   59.8870   34.8290   49.5260 H   0  0  0  0  0  0  0  0  0  0  0  0
   59.0129   31.8008   48.1201 H   0  0  0  0  0  0  0  0  0  0  0  0
   56.6119   31.1127   44.1869 H   0  0  0  0  0  0  0  0  0  0  0  0
   56.6870   28.5120   44.2950 H   0  0  0  0  0  0  0  0  0  0  0  0
   59.0650   26.9928   45.3834 H   0  0  0  0  0  0  0  0  0  0  0  0
   58.8830   27.3165   47.1430 H   0  0  0  0  0  0  0  0  0  0  0  0
   57.7830   24.7767   47.3224 H   0  0  0  0  0  0  0  0  0  0  0  0
   54.0607   25.9369   45.7074 H   0  0  0  0  0  0  0  0  0  0  0  0
   59.3327   29.8398   47.2762 H   0  0  0  0  0  0  0  0  0  0  0  0
  1  2  1  0
  2  3  1  0
  2  4  1  0
  4  5  2  0
  4  6  1  0
  6  7  1  0
  7  8  1  0
  7  9  1  0
  9 10  2  0
 10 11  1  0
 11 12  1  0
 12 13  2  0
 13 14  1  0
 14 15  1  0
 15 16  1  0
 16 17  2  0
 17 18  1  0
 18 19  1  0
 19 20  2  0
 14 21  1  0
 10  2  1  0
 21 11  2  0
 20 16  1  0
  1 22  1  0
  1 23  1  0
  1 24  1  0
  3 25  1  0
  3 26  1  0
  3 27  1  0
  6 28  1  0
  6 29  1  0
  7 30  1  1
  8 31  1  0
  9 32  1  0
 12 33  1  0
 13 34  1  0
 15 35  1  0
 15 36  1  0
 17 37  1  0
 19 38  1  0
 21 39  1  0
M  CHG  2  13   1  18  -1
M  END
>  <UniqueID>  (12) 
10

>  <SMILES>  (12) 
CC1(C)C(=O)C[C@H](O)C=C1c1c[nH+]n(Cc2c[n-]cn2)c1

>  <Energy>  (12) 
100.97641391103616

>  <Genealogy>  (12) 
CC1(C)C(=O)CC(O)C=C1c1c[nH+]n(Cc2c[n-]cn2)c1 (protonated)
CC1(C)C(=O)C[C@H](O)C=C1c1c[nH+]n(Cc2c[n-]cn2)c1 (chirality)
CC1(C)C(=O)C[C@H](O)C=C1c1c[nH+]n(Cc2c[n-]cn2)c1 (3D coordinates assigned)
CC1(C)C(=O)C[C@H](O)C=C1c1c[nH+]n(Cc2c[n-]cn2)c1 (nonaromatic ring conformer: 100.97641391103616 kcal/mol)

>  <smiles>  (12) 
CC1(C)C(=O)CC(O)C=C1c1cnn(Cc2c[nH]cn2)c1

>  <score_type>  (12) 
oracle

>  <origin>  (12) 
adg

>  <m_score__min__energy>  (12) 
-7.2599999999999998

>  <m_primary>  (12) 
energy

$$$$
12:0
     RDKit          3D

 40 43  0  0  0  0  0  0  0  0999 V2000
   58.3380   30.1750   44.1690 C   0  0  0  0  0  0  0  0  0  0  0  0
   58.2730   29.8390   45.4670 C   0  0  0  0  0  0  0  0  0  0  0  0
   58.1000   28.5550   46.0080 C   0  0  0  0  0  0  0  0  0  0  0  0
   57.7620   27.3890   45.4260 C   0  0  0  0  0  0  0  0  0  0  0  0
   57.2380   26.2060   46.1280 C   0  0  0  0  0  0  0  0  0  0  0  0
   57.9720   25.1510   46.5220 N   0  0  0  0  0  0  0  0  0  0  0  0
   57.0680   24.2580   46.9720 C   0  0  0  0  0  0  0  0  0  0  0  0
   57.3880   23.1320   47.4360 O   0  0  0  0  0  0  0  0  0  0  0  0
   55.7870   24.6720   46.8690 N   0  0  0  0  0  0  0  0  0  0  0  0
   55.9120   25.8950   46.3190 C   0  0  0  0  0  0  0  0  0  0  0  0
   54.8340   26.7090   45.9950 O   0  0  0  0  0  0  0  0  0  0  0  0
   58.3410   28.6730   47.3690 C   0  0  0  0  0  0  0  0  0  0  0  0
   58.5750   30.0100   47.6180 C   0  0  0  0  0  0  0  0  0  0  0  0
   58.9020   30.5890   48.9600 C   0  0  0  0  0  0  0  0  0  0  0  0
   58.5210   30.7170   46.4700 N   0  0  0  0  0  0  0  0  0  0  0  0
   58.8300   32.1120   46.3410 C   0  0  0  0  0  0  0  0  0  0  0  0
   57.8180   33.0320   46.0010 C   0  0  0  0  0  0  0  0  0  0  0  0
   58.1060   34.4090   45.8890 C   0  0  0  0  0  0  0  0  0  0  0  0
   59.4090   34.8840   46.1150 C   0  0  0  0  0  0  0  0  0  0  0  0
   60.3940   33.9570   46.4440 C   0  0  0  0  0  0  0  0  0  0  0  0
   61.6930   34.2080   46.6900 N   0  0  0  0  0  0  0  0  0  0  0  0
   62.1870   32.9710   46.9450 C   0  0  0  0  0  0  0  0  0  0  0  0
   63.3990   32.7730   47.2310 O   0  0  0  0  0  0  0  0  0  0  0  0
   61.2690   31.9770   46.8630 N   0  0  0  0  0  0  0  0  0  0  0  0
   61.4920   30.5490   47.0880 C   0  0  0  0  0  0  0  0  0  0  0  0
   60.1250   32.6180   46.5520 C   0  0  0  0  0  0  0  0  0  0  0  0
   58.4771   31.2271   43.8795 H   0  0  0  0  0  0  0  0  0  0  0  0
   58.2521   29.3983   43.3948 H   0  0  0  0  0  0  0  0  0  0  0  0
   57.8878   27.3141   44.3358 H   0  0  0  0  0  0  0  0  0  0  0  0
   59.0080   25.0290   46.4590 H   0  0  0  0  0  0  0  0  0  0  0  0
   58.3448   27.8578   48.1075 H   0  0  0  0  0  0  0  0  0  0  0  0
   58.5251   29.9216   49.7490 H   0  0  0  0  0  0  0  0  0  0  0  0
   59.9926   30.6937   49.0583 H   0  0  0  0  0  0  0  0  0  0  0  0
   58.4285   31.5770   49.0583 H   0  0  0  0  0  0  0  0  0  0  0  0
   56.7938   32.6733   45.8212 H   0  0  0  0  0  0  0  0  0  0  0  0
   57.3054   35.1149   45.6231 H   0  0  0  0  0  0  0  0  0  0  0  0
   59.6435   35.9557   46.0344 H   0  0  0  0  0  0  0  0  0  0  0  0
   61.5233   30.3487   48.1692 H   0  0  0  0  0  0  0  0  0  0  0  0
   60.6728   29.9736   46.6320 H   0  0  0  0  0  0  0  0  0  0  0  0
   62.4476   30.2508   46.6320 H   0  0  0  0  0  0  0  0  0  0  0  0
  1  2  2  0
  2  3  1  0
  3  4  2  3
  4  5  1  0
  5  6  1  0
  6  7  1  0
  7  8  2  0
  7  9  1  0
  9 10  1  0
 10 11  1  0
  3 12  1  0
 12 13  2  0
 13 14  1  0
 13 15  1  0
 15 16  1  0
 16 17  2  0
 17 18  1  0
 18 19  2  0
 19 20  1  0
 20 21  1  0
 21 22  1  0
 22 23  2  0
 22 24  1  0
 24 25  1  0
 24 26  1  0
 15  2  1  0
 26 16  1  0
 10  5  2  0
 26 20  2  0
  1 27  1  0
  1 28  1  0
  4 29  1  0
  6 30  1  0
 12 31  1  0
 14 32  1  0
 14 33  1  0
 14 34  1  0
 17 35  1  0
 18 36  1  0
 19 37  1  0
 25 38  1  0
 25 39  1  0
 25 40  1  0
M  CHG  3   9  -1  11  -1  21  -1
M  END
>  <UniqueID>  (13) 
11

>  <SMILES>  (13) 
C=c1c(=Cc2[nH]c(=O)[n-]c2[O-])cc(C)n1-c1cccc2[n-]c(=O)n(C)c12

>  <Energy>  (13) 
158.28073500926044

>  <Genealogy>  (13) 
C=c1c(=Cc2[nH]c(=O)[n-]c2[O-])cc(C)n1-c1cccc2[n-]c(=O)n(C)c12 (protonated)
C=c1c(=Cc2[nH]c(=O)[n-]c2[O-])cc(C)n1-c1cccc2[n-]c(=O)n(C)c12 (3D coordinates assigned)
C=c1c(=Cc2[nH]c(=O)[n-]c2[O-])cc(C)n1-c1cccc2[n-]c(=O)n(C)c12 (optimized conformer: 158.28073500926044 kcal/mol)

>  <smiles>  (13) 
C=c1c(=Cc2[nH]c(=O)[nH]c2O)cc(C)n1-c1cccc2[nH]c(=O)n(C)c12

>  <score_type>  (13) 
oracle

>  <origin>  (13) 
adg

>  <m_score__min__energy>  (13) 
-15.07

>  <m_primary>  (13) 
energy

$$$$
13:0
     RDKit          3D

 45 48  0  0  0  0  0  0  0  0999 V2000
   59.1520   29.9120   43.4210 H   0  0  0  0  0  0  0  0  0  0  0  0
   58.9510   29.7230   44.3950 O   0  0  0  0  0  0  0  0  0  0  0  0
   57.7320   29.1710   44.7730 C   0  0  0  0  0  0  0  0  0  0  0  0
   57.5880   27.9270   45.2600 N   0  0  0  0  0  0  0  0  0  0  0  0
   56.2660   27.8640   45.5230 C   0  0  0  0  0  0  0  0  0  0  0  0
   55.7200   26.8400   46.0070 O   0  0  0  0  0  0  0  0  0  0  0  0
   55.5750   28.9890   45.2350 N   0  0  0  0  0  0  0  0  0  0  0  0
   56.5140   29.8070   44.7320 C   0  0  0  0  0  0  0  0  0  0  0  0
   56.2700   31.2060   44.3650 C   0  0  0  0  0  0  0  0  0  0  0  0
   55.2396   31.4952   44.1108 H   0  0  0  0  0  0  0  0  0  0  0  0
   57.2200   32.1640   44.3170 C   0  0  0  0  0  0  0  0  0  0  0  0
   58.0520   32.5390   43.2550 C   0  0  0  0  0  0  0  0  0  0  0  0
   58.0800   32.0060   41.8560 C   0  0  0  0  0  0  0  0  0  0  0  0
   58.1377   30.9078   41.8831 H   0  0  0  0  0  0  0  0  0  0  0  0
   57.1645   32.3122   41.3286 H   0  0  0  0  0  0  0  0  0  0  0  0
   58.9583   32.4064   41.3286 H   0  0  0  0  0  0  0  0  0  0  0  0
   58.8490   33.5540   43.6430 N   0  0  0  0  0  0  0  0  0  0  0  0
   58.5560   33.8590   44.8960 N   0  0  0  0  0  0  0  0  0  0  0  0
   59.2830   34.8890   45.6420 C   0  0  0  0  0  0  0  0  0  0  0  0
   59.9638   35.4186   44.9593 H   0  0  0  0  0  0  0  0  0  0  0  0
   58.5587   35.5944   46.0753 H   0  0  0  0  0  0  0  0  0  0  0  0
   60.0830   34.2640   46.7550 C   0  0  0  0  0  0  0  0  0  0  0  0
   61.4070   33.8570   46.5390 C   0  0  0  0  0  0  0  0  0  0  0  0
   61.8634   33.9797   45.5457 H   0  0  0  0  0  0  0  0  0  0  0  0
   62.1470   33.2970   47.5800 C   0  0  0  0  0  0  0  0  0  0  0  0
   63.1870   32.9839   47.4059 H   0  0  0  0  0  0  0  0  0  0  0  0
   61.5730   33.1320   48.8430 C   0  0  0  0  0  0  0  0  0  0  0  0
   62.1665   32.6936   49.6588 H   0  0  0  0  0  0  0  0  0  0  0  0
   60.2420   33.5220   49.0800 C   0  0  0  0  0  0  0  0  0  0  0  0
   59.6510   33.3430   50.4330 C   0  0  0  0  0  0  0  0  0  0  0  0
   58.4730   32.6770   50.6080 N   0  0  0  0  0  0  0  0  0  0  0  0
   58.1060   32.6180   51.9060 C   0  0  0  0  0  0  0  0  0  0  0  0
   56.8280   32.0080   52.3720 C   0  0  0  0  0  0  0  0  0  0  0  0
   56.8062   31.9976   53.4717 H   0  0  0  0  0  0  0  0  0  0  0  0
   55.9805   32.5987   51.9941 H   0  0  0  0  0  0  0  0  0  0  0  0
   56.7543   30.9776   51.9941 H   0  0  0  0  0  0  0  0  0  0  0  0
   59.2010   33.4200   52.8910 S   0  0  0  0  0  0  0  0  0  0  0  0
   60.2130   33.8380   51.6140 C   0  0  0  0  0  0  0  0  0  0  0  0
   61.1536   34.4027   51.6940 H   0  0  0  0  0  0  0  0  0  0  0  0
   59.5040   34.0900   48.0230 C   0  0  0  0  0  0  0  0  0  0  0  0
   58.4625   34.4008   48.1925 H   0  0  0  0  0  0  0  0  0  0  0  0
   57.5720   33.0430   45.3450 C   0  0  0  0  0  0  0  0  0  0  0  0
   57.0560   33.0850   46.5830 C   0  0  0  0  0  0  0  0  0  0  0  0
   57.4206   33.8297   47.3058 H   0  0  0  0  0  0  0  0  0  0  0  0
   56.2684   32.3747   46.8750 H   0  0  0  0  0  0  0  0  0  0  0  0
  1  2  1  0
  2  3  1  0
  3  4  1  0
  4  5  1  0
  5  6  2  0
  5  7  1  0
  7  8  1  0
  8  9  1  0
  9 10  1  0
  9 11  2  0
 11 12  1  0
 12 13  1  0
 13 14  1  0
 13 15  1  0
 13 16  1  0
 12 17  2  0
 17 18  1  0
 18 19  1  0
 19 20  1  0
 19 21  1  0
 19 22  1  0
 22 23  2  0
 23 24  1  0
 23 25  1  0
 25 26  1  0
 25 27  2  0
 27 28  1  0
 27 29  1  0
 29 30  1  0
 30 31  1  0
 31 32  2  0
 32 33  1  0
 33 34  1  0
 33 35  1  0
 33 36  1  0
 32 37  1  0
 37 38  1  0
 38 39  1  0
 29 40  2  0
 40 41  1  0
 18 42  1  0
 42 43  2  0
 43 44  1  0
 43 45  1  0
  8  3  2  0
 42 11  1  0
 40 22  1  0
 38 30  2  0
M  CHG  2   4  -1   7  -1
M  END
>  <UniqueID>  (14) 
12

>  <SMILES>  (14) 
C=c1/c(=C/c2[n-]c(=O)[n-]c2O)c(C)nn1Cc1cccc(-c2csc(C)n2)c1

>  <Energy>  (14) 
149.37212829246494

>  <Genealogy>  (14) 
C=c1c(=Cc2[n-]c(=O)[n-]c2O)c(C)nn1Cc1cccc(-c2csc(C)n2)c1 (protonated)
C=c1/c(=C/c2[n-]c(=O)[n-]c2O)c(C)nn1Cc1cccc(-c2csc(C)n2)c1 (cis-trans isomerization)
C=c1/c(=C/c2[n-]c(=O)[n-]c2O)c(C)nn1Cc1cccc(-c2csc(C)n2)c1 (3D coordinates assigned)
C=c1/c(=C/c2[n-]c(=O)[n-]c2O)c(C)nn1Cc1cccc(-c2csc(C)n2)c1 (optimized conformer: 149.37212829246494 kcal/mol)

>  <smiles>  (14) 
C=c1c(=Cc2[nH]c(=O)[nH]c2O)c(C)nn1Cc1cccc(-c2csc(C)n2)c1

>  <score_type>  (14) 
oracle

>  <origin>  (14) 
adg

>  <m_score__min__energy>  (14) 
-14.06

>  <m_primary>  (14) 
energy

$$$$
14:0
     RDKit          3D

 48 50  0  0  0  0  0  0  0  0999 V2000
   55.1480   29.3480   45.1850 O   0  0  0  0  0  0  0  0  0  0  0  0
   56.3490   29.5470   44.8590 C   0  0  0  0  0  0  0  0  0  0  0  0
   57.3460   28.4480   45.0260 C   0  0  0  0  0  0  0  0  0  0  0  0
   57.0570   27.7160   46.2530 N   0  0  0  0  0  0  0  0  0  0  0  0
   56.2970   26.5030   46.3570 C   0  0  0  0  0  0  0  0  0  0  0  0
   55.0920   26.5220   45.9890 O   0  0  0  0  0  0  0  0  0  0  0  0
   56.8590   25.2340   46.8640 C   0  0  0  0  0  0  0  0  0  0  0  0
   56.1270   24.2230   47.0360 O   0  0  0  0  0  0  0  0  0  0  0  0
   58.2580   25.1600   47.1610 N   0  0  0  0  0  0  0  0  0  0  0  0
   59.2830   25.8870   46.4190 C   0  0  0  0  0  0  0  0  0  0  0  0
   59.8220   27.0210   47.2480 C   0  0  0  0  0  0  0  0  0  0  0  0
   60.0900   28.2640   46.6520 C   0  0  0  0  0  0  0  0  0  0  0  0
   60.5750   29.3260   47.4210 C   0  0  0  0  0  0  0  0  0  0  0  0
   60.7840   29.1590   48.7920 C   0  0  0  0  0  0  0  0  0  0  0  0
   61.2510   30.1920   49.5350 F   0  0  0  0  0  0  0  0  0  0  0  0
   60.5090   27.9280   49.3960 C   0  0  0  0  0  0  0  0  0  0  0  0
   60.0300   26.8610   48.6290 C   0  0  0  0  0  0  0  0  0  0  0  0
   56.7810   30.8330   44.3950 N   0  0  0  0  0  0  0  0  0  0  0  0
   57.4100   31.8560   45.1800 C   0  0  0  0  0  0  0  0  0  0  0  0
   57.0860   33.1950   44.9260 C   0  0  0  0  0  0  0  0  0  0  0  0
   57.6640   34.2180   45.6810 C   0  0  0  0  0  0  0  0  0  0  0  0
   58.5600   33.9120   46.7090 C   0  0  0  0  0  0  0  0  0  0  0  0
   58.8890   32.5730   46.9830 C   0  0  0  0  0  0  0  0  0  0  0  0
   59.7600   32.2220   48.0250 O   0  0  0  0  0  0  0  0  0  0  0  0
   61.0910   32.6460   48.1550 C   0  0  0  0  0  0  0  0  0  0  0  0
   62.0090   32.2840   47.1600 C   0  0  0  0  0  0  0  0  0  0  0  0
   63.3360   32.7180   47.2310 C   0  0  0  0  0  0  0  0  0  0  0  0
   63.7540   33.5170   48.2970 C   0  0  0  0  0  0  0  0  0  0  0  0
   62.8450   33.8910   49.2900 C   0  0  0  0  0  0  0  0  0  0  0  0
   61.5150   33.4640   49.2190 C   0  0  0  0  0  0  0  0  0  0  0  0
   58.2950   31.5510   46.2320 C   0  0  0  0  0  0  0  0  0  0  0  0
   57.2853   27.7635   44.1671 H   0  0  0  0  0  0  0  0  0  0  0  0
   58.3582   28.8749   45.0820 H   0  0  0  0  0  0  0  0  0  0  0  0
   60.1041   25.2000   46.1663 H   0  0  0  0  0  0  0  0  0  0  0  0
   58.8375   26.2957   45.5001 H   0  0  0  0  0  0  0  0  0  0  0  0
   59.9174   28.4027   45.5745 H   0  0  0  0  0  0  0  0  0  0  0  0
   60.7922   30.2941   46.9460 H   0  0  0  0  0  0  0  0  0  0  0  0
   60.6697   27.7987   50.4765 H   0  0  0  0  0  0  0  0  0  0  0  0
   59.8155   25.8941   49.1077 H   0  0  0  0  0  0  0  0  0  0  0  0
   56.3718   33.4423   44.1268 H   0  0  0  0  0  0  0  0  0  0  0  0
   57.4134   35.2673   45.4660 H   0  0  0  0  0  0  0  0  0  0  0  0
   59.0087   34.7205   47.3049 H   0  0  0  0  0  0  0  0  0  0  0  0
   61.6836   31.6548   46.3184 H   0  0  0  0  0  0  0  0  0  0  0  0
   64.0513   32.4298   46.4466 H   0  0  0  0  0  0  0  0  0  0  0  0
   64.8000   33.8524   48.3551 H   0  0  0  0  0  0  0  0  0  0  0  0
   63.1756   34.5218   50.1283 H   0  0  0  0  0  0  0  0  0  0  0  0
   60.7988   33.7682   49.9965 H   0  0  0  0  0  0  0  0  0  0  0  0
   58.5218   30.5004   46.4660 H   0  0  0  0  0  0  0  0  0  0  0  0
  1  2  2  0
  2  3  1  0
  3  4  1  0
  4  5  1  0
  5  6  2  0
  5  7  1  0
  7  8  2  0
  7  9  1  0
  9 10  1  0
 10 11  1  0
 11 12  2  0
 12 13  1  0
 13 14  2  0
 14 15  1  0
 14 16  1  0
 16 17  2  0
  2 18  1  0
 18 19  1  0
 19 20  2  0
 20 21  1  0
 21 22  2  0
 22 23  1  0
 23 24  1  0
 24 25  1  0
 25 26  2  0
 26 27  1  0
 27 28  2  0
 28 29  1  0
 29 30  2  0
 23 31  2  0
 17 11  1  0
 31 19  1  0
 30 25  1  0
  3 32  1  0
  3 33  1  0
 10 34  1  0
 10 35  1  0
 12 36  1  0
 13 37  1  0
 16 38  1  0
 17 39  1  0
 20 40  1  0
 21 41  1  0
 22 42  1  0
 26 43  1  0
 27 44  1  0
 28 45  1  0
 29 46  1  0
 30 47  1  0
 31 48  1  0
M  CHG  3   4  -1   9  -1  18  -1
M  END
>  <UniqueID>  (15) 
13

>  <SMILES>  (15) 
O=C(C[N-]C(=O)C(=O)[N-]Cc1ccc(F)cc1)[N-]c1cccc(Oc2ccccc2)c1

>  <Energy>  (15) 
56.19291399104862

>  <Genealogy>  (15) 
O=C(C[N-]C(=O)C(=O)[N-]Cc1ccc(F)cc1)[N-]c1cccc(Oc2ccccc2)c1 (protonated)
O=C(C[N-]C(=O)C(=O)[N-]Cc1ccc(F)cc1)[N-]c1cccc(Oc2ccccc2)c1 (3D coordinates assigned)
O=C(C[N-]C(=O)C(=O)[N-]Cc1ccc(F)cc1)[N-]c1cccc(Oc2ccccc2)c1 (optimized conformer: 56.19291399104862 kcal/mol)

>  <smiles>  (15) 
O=C(CNC(=O)C(=O)NCc1ccc(F)cc1)Nc1cccc(Oc2ccccc2)c1

>  <score_type>  (15) 
oracle

>  <origin>  (15) 
adg

>  <m_score__min__energy>  (15) 
-13.619999999999999

>  <m_primary>  (15) 
energy

$$$$
15:0
     RDKit          3D

 39 42  0  0  0  0  0  0  0  0999 V2000
   56.7140   31.0450   44.8640 O   0  0  0  0  0  0  0  0  0  0  0  0
   57.4980   31.8970   45.3610 C   0  0  0  0  0  0  0  0  0  0  0  0
   57.2850   33.3540   45.1840 C   0  0  0  0  0  0  0  0  0  0  0  0
   58.5240   34.1830   46.2330 S   0  0  0  0  0  0  0  0  0  0  0  0
   59.3250   32.6140   46.5900 C   0  0  0  0  0  0  0  0  0  0  0  0
   60.6520   32.6090   47.2320 C   0  0  0  0  0  0  0  0  0  0  0  0
   60.9570   31.9520   48.4260 C   0  0  0  0  0  0  0  0  0  0  0  0
   62.2680   32.1910   48.8490 C   0  0  0  0  0  0  0  0  0  0  0  0
   62.8750   31.6680   49.9940 C   0  0  0  0  0  0  0  0  0  0  0  0
   64.2070   32.0180   50.2750 C   0  0  0  0  0  0  0  0  0  0  0  0
   64.9140   32.8820   49.4150 C   0  0  0  0  0  0  0  0  0  0  0  0
   64.2950   33.4040   48.2680 C   0  0  0  0  0  0  0  0  0  0  0  0
   62.9750   33.0420   48.0120 C   0  0  0  0  0  0  0  0  0  0  0  0
   61.9940   33.5170   46.7370 S   0  0  0  0  0  0  0  0  0  0  0  0
   58.6740   31.5360   46.1430 C   0  0  0  0  0  0  0  0  0  0  0  0
   59.0200   30.1180   46.4220 C   0  0  0  0  0  0  0  0  0  0  0  0
   60.2370   29.7970   46.5170 O   0  0  0  0  0  0  0  0  0  0  0  0
   58.0070   29.0980   46.4680 N   0  0  0  0  0  0  0  0  0  0  0  0
   58.3160   27.7100   46.2550 C   0  0  0  0  0  0  0  0  0  0  0  0
   59.6600   27.3130   46.3470 C   0  0  0  0  0  0  0  0  0  0  0  0
   60.0180   25.9720   46.2210 C   0  0  0  0  0  0  0  0  0  0  0  0
   59.0390   25.0070   45.9960 C   0  0  0  0  0  0  0  0  0  0  0  0
   57.7000   25.3820   45.8750 C   0  0  0  0  0  0  0  0  0  0  0  0
   57.3180   26.7350   45.9820 C   0  0  0  0  0  0  0  0  0  0  0  0
   55.8980   27.0880   45.7510 C   0  0  0  0  0  0  0  0  0  0  0  0
   54.9870   26.2510   45.9890 O   0  0  0  0  0  0  0  0  0  0  0  0
   55.5480   28.3260   45.2320 O   0  0  0  0  0  0  0  0  0  0  0  0
   57.4289   33.6348   44.1302 H   0  0  0  0  0  0  0  0  0  0  0  0
   56.2626   33.6459   45.4660 H   0  0  0  0  0  0  0  0  0  0  0  0
   60.2447   31.3169   48.9730 H   0  0  0  0  0  0  0  0  0  0  0  0
   62.3202   30.9943   50.6635 H   0  0  0  0  0  0  0  0  0  0  0  0
   64.7006   31.6150   51.1717 H   0  0  0  0  0  0  0  0  0  0  0  0
   65.9564   33.1489   49.6436 H   0  0  0  0  0  0  0  0  0  0  0  0
   64.8375   34.0799   47.5907 H   0  0  0  0  0  0  0  0  0  0  0  0
   57.0220   29.3860   46.2750 H   0  0  0  0  0  0  0  0  0  0  0  0
   60.4394   28.0695   46.5206 H   0  0  0  0  0  0  0  0  0  0  0  0
   61.0744   25.6754   46.2993 H   0  0  0  0  0  0  0  0  0  0  0  0
   59.3217   23.9472   45.9135 H   0  0  0  0  0  0  0  0  0  0  0  0
   56.9342   24.6134   45.6941 H   0  0  0  0  0  0  0  0  0  0  0  0
  1  2  2  0
  2  3  1  0
  3  4  1  0
  4  5  1  0
  5  6  1  0
  6  7  2  0
  7  8  1  0
  8  9  2  0
  9 10  1  0
 10 11  2  0
 11 12  1  0
 12 13  2  0
 13 14  1  0
  5 15  2  0
 15 16  1  0
 16 17  2  0
 16 18  1  0
 18 19  1  0
 19 20  2  0
 20 21  1  0
 21 22  2  0
 22 23  1  0
 23 24  2  0
 24 25  1  0
 25 26  2  0
 25 27  1  0
 15  2  1  0
 24 19  1  0
 14  6  1  0
 13  8  1  0
  3 28  1  0
  3 29  1  0
  7 30  1  0
  9 31  1  0
 10 32  1  0
 11 33  1  0
 12 34  1  0
 18 35  1  0
 20 36  1  0
 21 37  1  0
 22 38  1  0
 23 39  1  0
M  CHG  1  27  -1
M  END
>  <UniqueID>  (16) 
14

>  <SMILES>  (16) 
O=C1CSC(c2cc3ccccc3s2)=C1C(=O)Nc1ccccc1C(=O)[O-]

>  <Energy>  (16) 
99.34021571721027

>  <Genealogy>  (16) 
O=C1CSC(c2cc3ccccc3s2)=C1C(=O)Nc1ccccc1C(=O)[O-] (protonated)
O=C1CSC(c2cc3ccccc3s2)=C1C(=O)Nc1ccccc1C(=O)[O-] (3D coordinates assigned)
O=C1CSC(c2cc3ccccc3s2)=C1C(=O)Nc1ccccc1C(=O)[O-] (nonaromatic ring conformer: 99.34021571721027 kcal/mol)

>  <smiles>  (16) 
O=C1CSC(c2cc3ccccc3s2)=C1C(=O)Nc1ccccc1C(=O)O

>  <score_type>  (16) 
oracle

>  <origin>  (16) 
adg

>  <m_score__min__energy>  (16) 
-12.470000000000001

>  <m_primary>  (16) 
energy

$$$$
16:0
     RDKit          3D

 61 65  0  0  0  0  0  0  0  0999 V2000
   66.0180   31.8790   50.7100 N   0  0  0  0  0  0  0  0  0  0  0  0
   64.9020   32.0450   50.0880 C   0  0  0  0  0  0  0  0  0  0  0  0
   63.7410   31.5570   50.5680 N   0  0  0  0  0  0  0  0  0  0  0  0
   62.5710   31.7460   49.8920 C   0  0  0  0  0  0  0  0  0  0  0  0
   62.5250   32.4380   48.7000 C   0  0  0  0  0  0  0  0  0  0  0  0
   61.2840   32.6470   47.9660 C   0  0  0  0  0  0  0  0  0  0  0  0
   61.0440   33.8370   47.3120 C   0  0  0  0  0  0  0  0  0  0  0  0
   59.8600   34.0600   46.6010 C   0  0  0  0  0  0  0  0  0  0  0  0
   58.9390   33.0440   46.5780 C   0  0  0  0  0  0  0  0  0  0  0  0
   57.6550   33.1920   45.8510 C   0  0  0  0  0  0  0  0  0  0  0  0
   57.4590   32.1240   44.7990 C   0  0  0  0  0  0  0  0  0  0  0  0
   57.9370   33.1220   43.7690 C   0  0  0  0  0  0  0  0  0  0  0  0
   57.6020   34.2150   44.7580 C   0  0  0  0  0  0  0  0  0  0  0  0
   59.1660   31.8220   47.2400 C   0  0  0  0  0  0  0  0  0  0  0  0
   58.1810   30.8920   47.1470 O   0  0  0  0  0  0  0  0  0  0  0  0
   58.2880   29.5920   46.7830 C   0  0  0  0  0  0  0  0  0  0  0  0
   59.1550   28.6490   47.2680 C   0  0  0  0  0  0  0  0  0  0  0  0
   59.1860   27.3360   46.8280 C   0  0  0  0  0  0  0  0  0  0  0  0
   58.3120   26.9130   45.8470 C   0  0  0  0  0  0  0  0  0  0  0  0
   58.3610   25.5360   45.4000 C   0  0  0  0  0  0  0  0  0  0  0  0
   59.3000   24.8080   45.8560 O   0  0  0  0  0  0  0  0  0  0  0  0
   57.4440   24.9660   44.5060 N   0  0  0  0  0  0  0  0  0  0  0  0
   57.5490   23.6000   44.1050 C   0  0  0  0  0  0  0  0  0  0  0  0
   57.5800   22.6180   45.2470 C   0  0  0  0  0  0  0  0  0  0  0  0
   57.6220   21.2240   44.6330 C   0  0  0  0  0  0  0  0  0  0  0  0
   56.4890   21.0080   43.7550 N   0  0  0  0  0  0  0  0  0  0  0  0
   56.6940   21.8740   42.5950 C   0  0  0  0  0  0  0  0  0  0  0  0
   56.4920   23.2960   43.0800 C   0  0  0  0  0  0  0  0  0  0  0  0
   57.4350   27.8320   45.3430 C   0  0  0  0  0  0  0  0  0  0  0  0
   57.4070   29.1390   45.7850 C   0  0  0  0  0  0  0  0  0  0  0  0
   60.3280   31.7090   47.8910 N   0  0  0  0  0  0  0  0  0  0  0  0
   63.7330   32.9270   48.2340 C   0  0  0  0  0  0  0  0  0  0  0  0
   64.8850   32.7240   48.9280 N   0  0  0  0  0  0  0  0  0  0  0  0
   66.0430   31.5730   51.7080 H   0  0  0  0  0  0  0  0  0  0  0  0
   61.6395   31.3354   50.3089 H   0  0  0  0  0  0  0  0  0  0  0  0
   61.8035   34.6318   47.3504 H   0  0  0  0  0  0  0  0  0  0  0  0
   59.6752   35.0118   46.0814 H   0  0  0  0  0  0  0  0  0  0  0  0
   56.9990   33.3074   46.7264 H   0  0  0  0  0  0  0  0  0  0  0  0
   58.1074   31.2432   44.9164 H   0  0  0  0  0  0  0  0  0  0  0  0
   56.4988   31.5992   44.6866 H   0  0  0  0  0  0  0  0  0  0  0  0
   59.0050   33.0441   43.5174 H   0  0  0  0  0  0  0  0  0  0  0  0
   57.5362   33.1294   42.7446 H   0  0  0  0  0  0  0  0  0  0  0  0
   58.3634   35.0049   44.8375 H   0  0  0  0  0  0  0  0  0  0  0  0
   56.7183   34.8554   44.6205 H   0  0  0  0  0  0  0  0  0  0  0  0
   59.8664   28.9513   48.0506 H   0  0  0  0  0  0  0  0  0  0  0  0
   59.9087   26.6289   47.2613 H   0  0  0  0  0  0  0  0  0  0  0  0
   56.6580   25.5480   44.1150 H   0  0  0  0  0  0  0  0  0  0  0  0
   58.5361   23.4657   43.6386 H   0  0  0  0  0  0  0  0  0  0  0  0
   58.4740   22.7857   45.8656 H   0  0  0  0  0  0  0  0  0  0  0  0
   56.6969   22.7371   45.8920 H   0  0  0  0  0  0  0  0  0  0  0  0
   58.5512   21.1136   44.0547 H   0  0  0  0  0  0  0  0  0  0  0  0
   57.5824   20.4826   45.4446 H   0  0  0  0  0  0  0  0  0  0  0  0
   56.5220   20.0140   43.4510 H   0  0  0  0  0  0  0  0  0  0  0  0
   57.7134   21.7476   42.2016 H   0  0  0  0  0  0  0  0  0  0  0  0
   55.9931   21.6263   41.7842 H   0  0  0  0  0  0  0  0  0  0  0  0
   56.5823   23.9937   42.2344 H   0  0  0  0  0  0  0  0  0  0  0  0
   55.4914   23.4066   43.5233 H   0  0  0  0  0  0  0  0  0  0  0  0
   56.7286   27.5198   44.5597 H   0  0  0  0  0  0  0  0  0  0  0  0
   56.6811   29.8404   45.3479 H   0  0  0  0  0  0  0  0  0  0  0  0
   63.7618   33.4881   47.2883 H   0  0  0  0  0  0  0  0  0  0  0  0
   65.8040   33.0910   48.5800 H   0  0  0  0  0  0  0  0  0  0  0  0
  1  2  2  3
  2  3  1  0
  3  4  2  0
  4  5  1  0
  5  6  1  0
  6  7  2  0
  7  8  1  0
  8  9  2  0
  9 10  1  0
 10 11  1  0
 11 12  1  0
 12 13  1  0
  9 14  1  0
 14 15  1  0
 15 16  1  0
 16 17  2  0
 17 18  1  0
 18 19  2  0
 19 20  1  0
 20 21  2  0
 20 22  1  0
 22 23  1  0
 23 24  1  0
 24 25  1  0
 25 26  1  0
 26 27  1  0
 27 28  1  0
 19 29  1  0
 29 30  2  0
 14 31  2  0
  5 32  2  0
 32 33  1  0
 33  2  1  0
 31  6  1  0
 13 10  1  0
 30 16  1  0
 28 23  1  0
  1 34  1  0
  4 35  1  0
  7 36  1  0
  8 37  1  0
 10 38  1  0
 11 39  1  0
 11 40  1  0
 12 41  1  0
 12 42  1  0
 13 43  1  0
 13 44  1  0
 17 45  1  0
 18 46  1  0
 22 47  1  0
 23 48  1  0
 24 49  1  0
 24 50  1  0
 25 51  1  0
 25 52  1  0
 26 53  1  0
 27 54  1  0
 27 55  1  0
 28 56  1  0
 28 57  1  0
 29 58  1  0
 30 59  1  0
 32 60  1  0
 33 61  1  0
M  END
>  <smiles>  (17) 
N=c1ncc(-c2ccc(C3CCC3)c(Oc3ccc(C(=O)NC4CCNCC4)cc3)n2)c[nH]1

>  <score_type>  (17) 
oracle

>  <origin>  (17) 
adg

>  <m_score__min__energy>  (17) 
-9.6300000000000008

>  <m_primary>  (17) 
energy

$$$$
17:0
     RDKit          3D

 46 50  0  0  0  0  0  0  0  0999 V2000
   53.7320   26.3950   45.9720 H   0  0  0  0  0  0  0  0  0  0  0  0
   54.7740   26.3320   46.0030 N   0  0  0  0  0  0  0  0  0  0  0  0
   55.4500   25.1480   45.5900 C   0  0  0  0  0  0  0  0  0  0  0  0
   54.7990   24.2020   45.0710 O   0  0  0  0  0  0  0  0  0  0  0  0
   56.9220   25.0100   45.8140 C   0  0  0  0  0  0  0  0  0  0  0  0
   57.0984   24.5301   46.7880 H   0  0  0  0  0  0  0  0  0  0  0  0
   57.3523   24.3947   45.0101 H   0  0  0  0  0  0  0  0  0  0  0  0
   57.5760   26.3640   45.8010 C   0  0  0  0  0  0  0  0  0  0  0  0
   57.7840   27.0620   47.0010 C   0  0  0  0  0  0  0  0  0  0  0  0
   57.4436   26.6273   47.9524 H   0  0  0  0  0  0  0  0  0  0  0  0
   58.4210   28.3060   46.9940 C   0  0  0  0  0  0  0  0  0  0  0  0
   58.5877   28.8411   47.9405 H   0  0  0  0  0  0  0  0  0  0  0  0
   58.8500   28.8770   45.7820 C   0  0  0  0  0  0  0  0  0  0  0  0
   59.5430   30.1340   45.7320 N   0  0  0  0  0  0  0  0  0  0  0  0
   59.6140   31.0230   46.6780 C   0  0  0  0  0  0  0  0  0  0  0  0
   60.3880   30.9050   47.7820 N   0  0  0  0  0  0  0  0  0  0  0  0
   60.2300   32.1120   48.3780 C   0  0  0  0  0  0  0  0  0  0  0  0
   60.8100   32.3830   49.5180 N   0  0  0  0  0  0  0  0  0  0  0  0
   61.9060   33.2550   49.9830 C   0  0  0  0  0  0  0  0  0  0  0  0
   61.4957   33.3340   51.0006 H   0  0  0  0  0  0  0  0  0  0  0  0
   63.2630   32.9820   49.3700 C   0  0  0  0  0  0  0  0  0  0  0  0
   64.1686   33.0312   49.9925 H   0  0  0  0  0  0  0  0  0  0  0  0
   63.7060   32.1570   48.7929 H   0  0  0  0  0  0  0  0  0  0  0  0
   62.5010   34.2650   49.0210 C   0  0  0  0  0  0  0  0  0  0  0  0
   62.8580   35.2367   49.3930 H   0  0  0  0  0  0  0  0  0  0  0  0
   62.1678   34.7460   48.0896 H   0  0  0  0  0  0  0  0  0  0  0  0
   59.3820   32.9000   47.6740 N   0  0  0  0  0  0  0  0  0  0  0  0
   58.9600   32.2010   46.6460 N   0  0  0  0  0  0  0  0  0  0  0  0
   58.7470   33.1130   45.5740 C   0  0  0  0  0  0  0  0  0  0  0  0
   58.2370   32.8700   44.3620 C   0  0  0  0  0  0  0  0  0  0  0  0
   58.5394   33.5279   43.5339 H   0  0  0  0  0  0  0  0  0  0  0  0
   57.2970   31.7780   44.0670 C   0  0  0  0  0  0  0  0  0  0  0  0
   56.6530   31.0850   45.0220 N   0  0  0  0  0  0  0  0  0  0  0  0
   55.9380   30.1770   44.3230 C   0  0  0  0  0  0  0  0  0  0  0  0
   55.1800   29.3390   44.8780 O   0  0  0  0  0  0  0  0  0  0  0  0
   56.1050   30.2340   42.9850 N   0  0  0  0  0  0  0  0  0  0  0  0
   56.9770   31.2430   42.8330 C   0  0  0  0  0  0  0  0  0  0  0  0
   57.4880   31.6280   41.5970 O   0  0  0  0  0  0  0  0  0  0  0  0
   58.4650   31.8630   41.4730 H   0  0  0  0  0  0  0  0  0  0  0  0
   59.1600   34.4100   46.1080 C   0  0  0  0  0  0  0  0  0  0  0  0
   59.1469   35.3624   45.5578 H   0  0  0  0  0  0  0  0  0  0  0  0
   59.5450   34.2530   47.3390 N   0  0  0  0  0  0  0  0  0  0  0  0
   58.6790   28.1580   44.5920 C   0  0  0  0  0  0  0  0  0  0  0  0
   59.0488   28.5766   43.6443 H   0  0  0  0  0  0  0  0  0  0  0  0
   58.0430   26.9140   44.5980 C   0  0  0  0  0  0  0  0  0  0  0  0
   57.9079   26.3635   43.6553 H   0  0  0  0  0  0  0  0  0  0  0  0
  1  2  1  0
  2  3  1  0
  3  4  2  0
  3  5  1  0
  5  6  1  0
  5  7  1  0
  5  8  1  0
  8  9  2  0
  9 10  1  0
  9 11  1  0
 11 12  1  0
 11 13  2  0
 13 14  1  0
 14 15  2  0
 15 16  1  0
 16 17  1  0
 17 18  2  3
 18 19  1  0
 19 20  1  0
 19 21  1  0
 21 22  1  0
 21 23  1  0
 21 24  1  0
 24 25  1  0
 24 26  1  0
 17 27  1  0
 27 28  1  0
 28 29  1  0
 29 30  2  0
 30 31  1  0
 30 32  1  0
 32 33  1  0
 33 34  1  0
 34 35  2  0
 34 36  1  0
 36 37  1  0
 37 38  1  0
 38 39  1  0
 29 40  1  0
 40 41  1  0
 40 42  2  0
 13 43  1  0
 43 44  1  0
 43 45  2  0
 45 46  1  0
 45  8  1  0
 28 15  1  0
 37 32  2  0
 24 19  1  0
 42 27  1  0
M  CHG  4   2  -1  16  -1  33  -1  36  -1
M  END
>  <UniqueID>  (18) 
15

>  <SMILES>  (18) 
[NH-]C(=O)Cc1ccc(/N=c2\[n-]c(=NC3CC3)n3n2/C(=C\c2[n-]c(=O)[n-]c2O)C=N3)cc1

>  <Energy>  (18) 
464.6956969776392

>  <Genealogy>  (18) 
[NH-]C(=O)Cc1ccc(N=c2[n-]c(=NC3CC3)n3n2C(=Cc2[n-]c(=O)[n-]c2O)C=N3)cc1 (protonated)
[NH-]C(=O)Cc1ccc(/N=c2\[n-]c(=NC3CC3)n3n2/C(=C\c2[n-]c(=O)[n-]c2O)C=N3)cc1 (cis-trans isomerization)
[NH-]C(=O)Cc1ccc(/N=c2\[n-]c(=NC3CC3)n3n2/C(=C\c2[n-]c(=O)[n-]c2O)C=N3)cc1 (3D coordinates assigned)
[NH-]C(=O)Cc1ccc(/N=c2\[n-]c(=NC3CC3)n3n2/C(=C\c2[n-]c(=O)[n-]c2O)C=N3)cc1 (nonaromatic ring conformer: 464.6956969776392 kcal/mol)

>  <smiles>  (18) 
NC(=O)Cc1ccc(N=c2[nH]c(=NC3CC3)n3n2C(=Cc2[nH]c(=O)[nH]c2O)C=N3)cc1

>  <score_type>  (18) 
oracle

>  <origin>  (18) 
adg

>  <m_score__min__energy>  (18) 
-16.199999999999999

>  <m_primary>  (18) 
energy

$$$$
18:0
     RDKit          3D

 44 47  0  0  0  0  0  0  0  0999 V2000
   53.8760   28.9960   52.8610 O   0  0  0  0  0  0  0  0  0  0  0  0
   53.9870   30.1950   52.4900 C   0  0  0  0  0  0  0  0  0  0  0  0
   52.8260   31.1240   52.6410 C   0  0  0  0  0  0  0  0  0  0  0  0
   52.0750   31.2180   51.3500 C   0  0  0  0  0  0  0  0  0  0  0  0
   52.1380   30.2970   50.3720 N   0  0  0  0  0  0  0  0  0  0  0  0
   51.3720   30.8300   49.3950 C   0  0  0  0  0  0  0  0  0  0  0  0
   51.1730   30.2480   48.2970 O   0  0  0  0  0  0  0  0  0  0  0  0
   50.8380   32.0370   49.6850 N   0  0  0  0  0  0  0  0  0  0  0  0
   51.3010   32.2710   50.9250 C   0  0  0  0  0  0  0  0  0  0  0  0
   51.0260   33.4260   51.6480 O   0  0  0  0  0  0  0  0  0  0  0  0
   55.1710   30.6520   51.8250 N   0  0  0  0  0  0  0  0  0  0  0  0
   56.5300   30.3450   52.1740 C   0  0  0  0  0  0  0  0  0  0  0  0
   56.8420   29.3130   53.0750 C   0  0  0  0  0  0  0  0  0  0  0  0
   58.1670   29.0670   53.4300 C   0  0  0  0  0  0  0  0  0  0  0  0
   59.1950   29.8390   52.8880 C   0  0  0  0  0  0  0  0  0  0  0  0
   58.9100   30.8790   51.9890 C   0  0  0  0  0  0  0  0  0  0  0  0
   60.0430   31.6230   51.3950 C   0  0  0  0  0  0  0  0  0  0  0  0
   60.3270   32.9080   51.6920 N   0  0  0  0  0  0  0  0  0  0  0  0
   61.4080   33.1770   51.0260 O   0  0  0  0  0  0  0  0  0  0  0  0
   61.7860   32.1180   50.3550 C   0  0  0  0  0  0  0  0  0  0  0  0
   63.0130   32.0620   49.4880 C   0  0  0  0  0  0  0  0  0  0  0  0
   62.6420   31.5800   48.0720 C   0  0  0  0  0  0  0  0  0  0  0  0
   63.6560   32.1120   47.0470 C   0  0  0  0  0  0  0  0  0  0  0  0
   63.7160   33.5330   46.9690 O   0  0  0  0  0  0  0  0  0  0  0  0
   63.3750   34.2030   48.1790 C   0  0  0  0  0  0  0  0  0  0  0  0
   63.7440   33.4220   49.4510 C   0  0  0  0  0  0  0  0  0  0  0  0
   60.9540   31.0770   50.5620 N   0  0  0  0  0  0  0  0  0  0  0  0
   57.5580   31.1560   51.6610 C   0  0  0  0  0  0  0  0  0  0  0  0
   57.1940   32.2410   50.8580 O   0  0  0  0  0  0  0  0  0  0  0  0
   52.1553   30.7444   53.4259 H   0  0  0  0  0  0  0  0  0  0  0  0
   53.1958   32.1224   52.9174 H   0  0  0  0  0  0  0  0  0  0  0  0
   56.0371   28.6967   53.5019 H   0  0  0  0  0  0  0  0  0  0  0  0
   58.4033   28.2610   54.1403 H   0  0  0  0  0  0  0  0  0  0  0  0
   60.2383   29.6309   53.1676 H   0  0  0  0  0  0  0  0  0  0  0  0
   63.7131   31.3361   49.9272 H   0  0  0  0  0  0  0  0  0  0  0  0
   62.6461   30.4802   48.0499 H   0  0  0  0  0  0  0  0  0  0  0  0
   61.6411   31.9573   47.8154 H   0  0  0  0  0  0  0  0  0  0  0  0
   64.6534   31.7392   47.3229 H   0  0  0  0  0  0  0  0  0  0  0  0
   63.3255   31.7548   46.0605 H   0  0  0  0  0  0  0  0  0  0  0  0
   63.9022   35.1682   48.2005 H   0  0  0  0  0  0  0  0  0  0  0  0
   62.2810   34.3180   48.1820 H   0  0  0  0  0  0  0  0  0  0  0  0
   64.8302   33.2486   49.4659 H   0  0  0  0  0  0  0  0  0  0  0  0
   63.4394   34.0112   50.3286 H   0  0  0  0  0  0  0  0  0  0  0  0
   56.2760   32.3490   50.4440 H   0  0  0  0  0  0  0  0  0  0  0  0
  1  2  2  0
  2  3  1  0
  3  4  1  0
  4  5  1  0
  5  6  1  0
  6  7  2  0
  6  8  1  0
  8  9  1  0
  9 10  1  0
  2 11  1  0
 11 12  1  0
 12 13  2  0
 13 14  1  0
 14 15  2  0
 15 16  1  0
 16 17  1  0
 17 18  2  0
 18 19  1  0
 19 20  1  0
 20 21  1  0
 21 22  1  0
 22 23  1  0
 23 24  1  0
 24 25  1  0
 25 26  1  0
 20 27  2  0
 16 28  2  0
 28 29  1  0
  9  4  2  0
 28 12  1  0
 27 17  1  0
 26 21  1  0
  3 30  1  0
  3 31  1  0
 13 32  1  0
 14 33  1  0
 15 34  1  0
 21 35  1  0
 22 36  1  0
 22 37  1  0
 23 38  1  0
 23 39  1  0
 25 40  1  0
 25 41  1  0
 26 42  1  0
 26 43  1  0
 29 44  1  0
M  CHG  4   5  -1   8  -1  10  -1  11  -1
M  END
>  <UniqueID>  (19) 
16

>  <SMILES>  (19) 
O=C(Cc1[n-]c(=O)[n-]c1[O-])[N-]c1cccc(-c2noc(C3CCOCC3)n2)c1O

>  <Energy>  (19) 
125.5716146969671

>  <Genealogy>  (19) 
O=C(Cc1[n-]c(=O)[n-]c1[O-])[N-]c1cccc(-c2noc(C3CCOCC3)n2)c1O (protonated)
O=C(Cc1[n-]c(=O)[n-]c1[O-])[N-]c1cccc(-c2noc(C3CCOCC3)n2)c1O (3D coordinates assigned)
O=C(Cc1[n-]c(=O)[n-]c1[O-])[N-]c1cccc(-c2noc(C3CCOCC3)n2)c1O (nonaromatic ring conformer: 125.5716146969671 kcal/mol)

>  <smiles>  (19) 
O=C(Cc1[nH]c(=O)[nH]c1O)Nc1cccc(-c2noc(C3CCOCC3)n2)c1O

>  <score_type>  (19) 
oracle

>  <origin>  (19) 
adg

>  <m_score__min__energy>  (19) 
-17.739999999999998

>  <m_primary>  (19) 
energy

$$$$
19:0
     RDKit          3D

 31 32  0  0  0  0  0  0  0  0999 V2000
   57.1170   28.0880   53.6130 C   0  0  0  0  0  0  0  0  0  0  0  0
   56.9290   28.7470   52.3650 O   0  0  0  0  0  0  0  0  0  0  0  0
   57.2990   30.0760   52.1000 C   0  0  0  0  0  0  0  0  0  0  0  0
   58.4160   30.3900   51.3000 C   0  0  0  0  0  0  0  0  0  0  0  0
   58.7520   31.7220   51.0450 C   0  0  0  0  0  0  0  0  0  0  0  0
   57.9790   32.7530   51.5780 C   0  0  0  0  0  0  0  0  0  0  0  0
   56.8710   32.4580   52.3730 C   0  0  0  0  0  0  0  0  0  0  0  0
   56.5280   31.1240   52.6500 C   0  0  0  0  0  0  0  0  0  0  0  0
   55.3080   30.8300   53.4830 C   0  0  0  0  0  0  0  0  0  0  0  0
   54.0560   30.0290   52.4950 S   0  0  0  0  0  0  0  0  0  0  0  0
   53.9330   28.5850   52.8950 O   0  0  0  0  0  0  0  0  0  0  0  0
   54.4400   30.1070   51.0430 O   0  0  0  0  0  0  0  0  0  0  0  0
   52.4850   30.8440   52.7210 C   0  0  0  0  0  0  0  0  0  0  0  0
   51.8330   31.1040   51.4000 C   0  0  0  0  0  0  0  0  0  0  0  0
   51.8450   30.2410   50.3690 N   0  0  0  0  0  0  0  0  0  0  0  0
   51.2050   30.9180   49.3900 C   0  0  0  0  0  0  0  0  0  0  0  0
   51.0090   30.4320   48.2470 O   0  0  0  0  0  0  0  0  0  0  0  0
   50.7980   32.1600   49.7310 N   0  0  0  0  0  0  0  0  0  0  0  0
   51.2080   32.2630   51.0060 C   0  0  0  0  0  0  0  0  0  0  0  0
   51.0190   33.3940   51.7900 O   0  0  0  0  0  0  0  0  0  0  0  0
   56.9160   28.7925   54.4336 H   0  0  0  0  0  0  0  0  0  0  0  0
   56.4264   27.2348   53.6848 H   0  0  0  0  0  0  0  0  0  0  0  0
   58.1538   27.7276   53.6848 H   0  0  0  0  0  0  0  0  0  0  0  0
   59.0273   29.5810   50.8735 H   0  0  0  0  0  0  0  0  0  0  0  0
   59.6278   31.9578   50.4227 H   0  0  0  0  0  0  0  0  0  0  0  0
   58.2432   33.8006   51.3713 H   0  0  0  0  0  0  0  0  0  0  0  0
   56.2618   33.2756   52.7858 H   0  0  0  0  0  0  0  0  0  0  0  0
   55.5891   30.1695   54.3165 H   0  0  0  0  0  0  0  0  0  0  0  0
   54.9043   31.7772   53.8700 H   0  0  0  0  0  0  0  0  0  0  0  0
   51.8290   30.2029   53.3282 H   0  0  0  0  0  0  0  0  0  0  0  0
   52.6534   31.8050   53.2291 H   0  0  0  0  0  0  0  0  0  0  0  0
  1  2  1  0
  2  3  1  0
  3  4  2  0
  4  5  1  0
  5  6  2  0
  6  7  1  0
  7  8  2  0
  8  9  1  0
  9 10  1  0
 10 11  2  0
 10 12  2  0
 10 13  1  0
 13 14  1  0
 14 15  1  0
 15 16  1  0
 16 17  2  0
 16 18  1  0
 18 19  1  0
 19 20  1  0
  8  3  1  0
 19 14  2  0
  1 21  1  0
  1 22  1  0
  1 23  1  0
  4 24  1  0
  5 25  1  0
  6 26  1  0
  7 27  1  0
  9 28  1  0
  9 29  1  0
 13 30  1  0
 13 31  1  0
M  CHG  3  15  -1  18  -1  20  -1
M  END
>  <UniqueID>  (20) 
17

>  <SMILES>  (20) 
COc1ccccc1CS(=O)(=O)Cc1[n-]c(=O)[n-]c1[O-]

>  <Energy>  (20) 
51.024634050957516

>  <Genealogy>  (20) 
COc1ccccc1CS(=O)(=O)Cc1[n-]c(=O)[n-]c1[O-] (protonated)
COc1ccccc1CS(=O)(=O)Cc1[n-]c(=O)[n-]c1[O-] (3D coordinates assigned)
COc1ccccc1CS(=O)(=O)Cc1[n-]c(=O)[n-]c1[O-] (optimized conformer: 51.024634050957516 kcal/mol)

>  <smiles>  (20) 
COc1ccccc1CS(=O)(=O)Cc1[nH]c(=O)[nH]c1O

>  <score_type>  (20) 
oracle

>  <origin>  (20) 
adg

>  <m_score__min__energy>  (20) 
-14.789999999999999

>  <m_primary>  (20) 
energy

$$$$
20:0
     RDKit          3D

 59 61  0  0  0  0  0  0  0  0999 V2000
   58.4870   29.3470   49.6480 C   0  0  0  0  0  0  0  0  0  0  0  0
   58.2940   30.5320   50.2540 C   0  0  0  0  0  0  0  0  0  0  0  0
   58.7710   31.7670   49.8010 C   0  0  0  0  0  0  0  0  0  0  0  0
   59.5280   32.0070   48.7130 C   0  0  0  0  0  0  0  0  0  0  0  0
   58.9980   32.0150   47.3380 C   0  0  0  0  0  0  0  0  0  0  0  0
   58.5330   33.1340   46.7490 N   0  0  0  0  0  0  0  0  0  0  0  0
   58.2060   32.7820   45.4860 C   0  0  0  0  0  0  0  0  0  0  0  0
   57.7060   33.7640   44.4750 C   0  0  0  0  0  0  0  0  0  0  0  0
   58.4830   31.4420   45.2530 C   0  0  0  0  0  0  0  0  0  0  0  0
   58.3720   30.6930   43.9510 C   0  0  0  0  0  0  0  0  0  0  0  0
   56.9220   30.2970   43.6230 C   0  0  0  0  0  0  0  0  0  0  0  0
   56.2840   29.4340   44.6880 C   0  0  0  0  0  0  0  0  0  0  0  0
   55.0300   29.3890   44.7820 O   0  0  0  0  0  0  0  0  0  0  0  0
   57.0610   28.5720   45.5300 N   0  0  0  0  0  0  0  0  0  0  0  0
   57.4040   27.1800   45.2530 C   0  0  0  0  0  0  0  0  0  0  0  0
   56.4840   26.2280   46.0180 C   0  0  0  0  0  0  0  0  0  0  0  0
   55.1530   26.6630   45.9400 O   0  0  0  0  0  0  0  0  0  0  0  0
   59.0120   30.9660   46.4330 C   0  0  0  0  0  0  0  0  0  0  0  0
   59.5270   29.6870   46.6340 O   0  0  0  0  0  0  0  0  0  0  0  0
   58.3580   32.7080   50.7270 C   0  0  0  0  0  0  0  0  0  0  0  0
   57.6360   32.0320   51.6880 C   0  0  0  0  0  0  0  0  0  0  0  0
   57.0700   32.6780   52.9180 C   0  0  0  0  0  0  0  0  0  0  0  0
   57.5960   30.7060   51.4100 N   0  0  0  0  0  0  0  0  0  0  0  0
   56.9740   29.6770   52.2600 C   0  0  0  0  0  0  0  0  0  0  0  0
   55.5600   30.0630   52.6120 C   0  0  0  0  0  0  0  0  0  0  0  0
   55.1460   30.0840   53.9520 C   0  0  0  0  0  0  0  0  0  0  0  0
   53.8440   30.4590   54.2820 C   0  0  0  0  0  0  0  0  0  0  0  0
   52.9400   30.8190   53.2790 C   0  0  0  0  0  0  0  0  0  0  0  0
   53.3330   30.8050   51.9300 C   0  0  0  0  0  0  0  0  0  0  0  0
   52.3760   31.1900   50.8690 C   0  0  0  0  0  0  0  0  0  0  0  0
   52.1450   30.4150   49.9020 O   0  0  0  0  0  0  0  0  0  0  0  0
   51.7180   32.4130   50.9250 O   0  0  0  0  0  0  0  0  0  0  0  0
   54.6490   30.4220   51.6050 C   0  0  0  0  0  0  0  0  0  0  0  0
   58.0682   28.4298   50.0876 H   0  0  0  0  0  0  0  0  0  0  0  0
   59.0636   29.2950   48.7127 H   0  0  0  0  0  0  0  0  0  0  0  0
   60.5996   32.2079   48.8587 H   0  0  0  0  0  0  0  0  0  0  0  0
   57.2653   34.6296   44.9913 H   0  0  0  0  0  0  0  0  0  0  0  0
   58.5428   34.0999   43.8450 H   0  0  0  0  0  0  0  0  0  0  0  0
   56.9421   33.2849   43.8450 H   0  0  0  0  0  0  0  0  0  0  0  0
   58.7550   31.3324   43.1420 H   0  0  0  0  0  0  0  0  0  0  0  0
   58.9588   29.7674   44.0459 H   0  0  0  0  0  0  0  0  0  0  0  0
   56.3255   31.2146   43.5131 H   0  0  0  0  0  0  0  0  0  0  0  0
   56.9467   29.7062   42.6955 H   0  0  0  0  0  0  0  0  0  0  0  0
   57.3004   26.9915   44.1742 H   0  0  0  0  0  0  0  0  0  0  0  0
   58.4402   27.0026   45.5766 H   0  0  0  0  0  0  0  0  0  0  0  0
   56.5619   25.2210   45.5822 H   0  0  0  0  0  0  0  0  0  0  0  0
   56.7908   26.2087   47.0742 H   0  0  0  0  0  0  0  0  0  0  0  0
   55.1560   27.5050   45.4140 H   0  0  0  0  0  0  0  0  0  0  0  0
   58.9980   28.8580   46.3950 H   0  0  0  0  0  0  0  0  0  0  0  0
   58.5656   33.7879   50.7017 H   0  0  0  0  0  0  0  0  0  0  0  0
   57.4920   32.1963   53.8124 H   0  0  0  0  0  0  0  0  0  0  0  0
   57.3270   33.7475   52.9218 H   0  0  0  0  0  0  0  0  0  0  0  0
   55.9760   32.5638   52.9218 H   0  0  0  0  0  0  0  0  0  0  0  0
   56.9632   28.7193   51.7190 H   0  0  0  0  0  0  0  0  0  0  0  0
   57.5574   29.5834   53.1878 H   0  0  0  0  0  0  0  0  0  0  0  0
   55.8524   29.8031   54.7471 H   0  0  0  0  0  0  0  0  0  0  0  0
   53.5275   30.4715   55.3354 H   0  0  0  0  0  0  0  0  0  0  0  0
   51.9150   31.1150   53.5470 H   0  0  0  0  0  0  0  0  0  0  0  0
   54.9664   30.4039   50.5520 H   0  0  0  0  0  0  0  0  0  0  0  0
  1  2  2  0
  2  3  1  0
  3  4  2  3
  4  5  1  0
  5  6  1  0
  6  7  1  0
  7  8  1  0
  7  9  2  0
  9 10  1  0
 10 11  1  0
 11 12  1  0
 12 13  2  0
 12 14  1  0
 14 15  1  0
 15 16  1  0
 16 17  1  0
  9 18  1  0
 18 19  1  0
  3 20  1  0
 20 21  2  0
 21 22  1  0
 21 23  1  0
 23 24  1  0
 24 25  1  0
 25 26  2  0
 26 27  1  0
 27 28  2  0
 28 29  1  0
 29 30  1  0
 30 31  2  0
 30 32  1  0
 29 33  2  0
 23  2  1  0
 33 25  1  0
 18  5  2  0
  1 34  1  0
  1 35  1  0
  4 36  1  0
  8 37  1  0
  8 38  1  0
  8 39  1  0
 10 40  1  0
 10 41  1  0
 11 42  1  0
 11 43  1  0
 15 44  1  0
 15 45  1  0
 16 46  1  0
 16 47  1  0
 17 48  1  0
 19 49  1  0
 20 50  1  0
 22 51  1  0
 22 52  1  0
 22 53  1  0
 24 54  1  0
 24 55  1  0
 26 56  1  0
 27 57  1  0
 28 58  1  0
 33 59  1  0
M  CHG  3   6  -1  14  -1  32  -1
M  END
>  <UniqueID>  (21) 
18

>  <SMILES>  (21) 
C=c1c(=Cc2[n-]c(C)c(CCC(=O)[N-]CCO)c2O)cc(C)n1Cc1cccc(C(=O)[O-])c1

>  <Energy>  (21) 
113.79356955837325

>  <Genealogy>  (21) 
C=c1c(=Cc2[n-]c(C)c(CCC(=O)[N-]CCO)c2O)cc(C)n1Cc1cccc(C(=O)[O-])c1 (protonated)
C=c1c(=Cc2[n-]c(C)c(CCC(=O)[N-]CCO)c2O)cc(C)n1Cc1cccc(C(=O)[O-])c1 (3D coordinates assigned)
C=c1c(=Cc2[n-]c(C)c(CCC(=O)[N-]CCO)c2O)cc(C)n1Cc1cccc(C(=O)[O-])c1 (optimized conformer: 113.79356955837325 kcal/mol)

>  <smiles>  (21) 
C=c1c(=Cc2[nH]c(C)c(CCC(=O)NCCO)c2O)cc(C)n1Cc1cccc(C(=O)O)c1

>  <score_type>  (21) 
oracle

>  <origin>  (21) 
adg

>  <m_score__min__energy>  (21) 
-14.68

>  <m_primary>  (21) 
energy

$$$$
21:0
     RDKit          3D

 50 53  0  0  0  0  0  0  0  0999 V2000
   56.6160   32.6090   52.2250 C   0  0  0  0  0  0  0  0  0  0  0  0
   56.1970   31.3550   52.4670 C   0  0  0  0  0  0  0  0  0  0  0  0
   54.8620   30.9380   52.6070 C   0  0  0  0  0  0  0  0  0  0  0  0
   53.7020   31.5660   52.3290 C   0  0  0  0  0  0  0  0  0  0  0  0
   52.8100   31.2570   51.2000 C   0  0  0  0  0  0  0  0  0  0  0  0
   52.8960   30.1540   50.4330 N   0  0  0  0  0  0  0  0  0  0  0  0
   51.8070   30.2380   49.6400 C   0  0  0  0  0  0  0  0  0  0  0  0
   51.5380   29.3780   48.7620 O   0  0  0  0  0  0  0  0  0  0  0  0
   51.0170   31.3090   49.8750 N   0  0  0  0  0  0  0  0  0  0  0  0
   51.6600   31.9340   50.8760 C   0  0  0  0  0  0  0  0  0  0  0  0
   51.1940   33.0860   51.4920 O   0  0  0  0  0  0  0  0  0  0  0  0
   54.9110   29.6380   53.0750 C   0  0  0  0  0  0  0  0  0  0  0  0
   56.2410   29.2830   53.1380 C   0  0  0  0  0  0  0  0  0  0  0  0
   56.7230   27.9050   53.4800 C   0  0  0  0  0  0  0  0  0  0  0  0
   57.0300   30.3200   52.7620 N   0  0  0  0  0  0  0  0  0  0  0  0
   58.4970   30.2700   52.6340 C   0  0  0  0  0  0  0  0  0  0  0  0
   58.8860   29.6920   51.2990 C   0  0  0  0  0  0  0  0  0  0  0  0
   59.9580   28.7910   51.1990 C   0  0  0  0  0  0  0  0  0  0  0  0
   60.3440   28.2850   49.9540 C   0  0  0  0  0  0  0  0  0  0  0  0
   59.6810   28.6910   48.7900 C   0  0  0  0  0  0  0  0  0  0  0  0
   60.0980   28.1640   47.5260 N   0  0  0  0  0  0  0  0  0  0  0  0
   59.9600   28.8180   46.2580 C   0  0  0  0  0  0  0  0  0  0  0  0
   60.9700   29.3810   45.7550 O   0  0  0  0  0  0  0  0  0  0  0  0
   58.6250   28.9600   45.5770 C   0  0  0  0  0  0  0  0  0  0  0  0
   57.7610   27.7540   45.8060 C   0  0  0  0  0  0  0  0  0  0  0  0
   58.1680   26.5030   46.2370 C   0  0  0  0  0  0  0  0  0  0  0  0
   57.1160   25.6600   46.3410 N   0  0  0  0  0  0  0  0  0  0  0  0
   56.0400   26.3820   45.9770 C   0  0  0  0  0  0  0  0  0  0  0  0
   54.7470   25.8680   45.9540 O   0  0  0  0  0  0  0  0  0  0  0  0
   56.3970   27.6670   45.6460 C   0  0  0  0  0  0  0  0  0  0  0  0
   55.5420   28.6830   45.2420 O   0  0  0  0  0  0  0  0  0  0  0  0
   58.5830   29.5580   48.8890 C   0  0  0  0  0  0  0  0  0  0  0  0
   58.1940   30.0630   50.1340 C   0  0  0  0  0  0  0  0  0  0  0  0
   57.6914   32.8216   52.1340 H   0  0  0  0  0  0  0  0  0  0  0  0
   55.8835   33.4226   52.1180 H   0  0  0  0  0  0  0  0  0  0  0  0
   53.3960   32.3790   53.0038 H   0  0  0  0  0  0  0  0  0  0  0  0
   54.0516   29.0070   53.3456 H   0  0  0  0  0  0  0  0  0  0  0  0
   56.7628   27.7913   54.5734 H   0  0  0  0  0  0  0  0  0  0  0  0
   56.0321   27.1598   53.0588 H   0  0  0  0  0  0  0  0  0  0  0  0
   57.7277   27.7529   53.0588 H   0  0  0  0  0  0  0  0  0  0  0  0
   58.9037   31.2884   52.7209 H   0  0  0  0  0  0  0  0  0  0  0  0
   58.9042   29.6321   53.4323 H   0  0  0  0  0  0  0  0  0  0  0  0
   60.4978   28.4811   52.1060 H   0  0  0  0  0  0  0  0  0  0  0  0
   61.1726   27.5645   49.8890 H   0  0  0  0  0  0  0  0  0  0  0  0
   58.1127   29.8480   45.9758 H   0  0  0  0  0  0  0  0  0  0  0  0
   58.7977   29.0612   44.4954 H   0  0  0  0  0  0  0  0  0  0  0  0
   59.2092   26.2309   46.4647 H   0  0  0  0  0  0  0  0  0  0  0  0
   54.0060   26.2960   46.4910 H   0  0  0  0  0  0  0  0  0  0  0  0
   58.0257   29.8419   47.9841 H   0  0  0  0  0  0  0  0  0  0  0  0
   57.3413   30.7546   50.2013 H   0  0  0  0  0  0  0  0  0  0  0  0
  1  2  2  0
  2  3  1  0
  3  4  2  3
  4  5  1  0
  5  6  1  0
  6  7  1  0
  7  8  2  0
  7  9  1  0
  9 10  1  0
 10 11  1  0
  3 12  1  0
 12 13  2  0
 13 14  1  0
 13 15  1  0
 15 16  1  0
 16 17  1  0
 17 18  2  0
 18 19  1  0
 19 20  2  0
 20 21  1  0
 21 22  1  0
 22 23  2  0
 22 24  1  0
 24 25  1  0
 25 26  2  0
 26 27  1  0
 27 28  1  0
 28 29  1  0
 28 30  2  0
 30 31  1  0
 20 32  1  0
 32 33  2  0
 15  2  1  0
 33 17  1  0
 10  5  2  0
 30 25  1  0
  1 34  1  0
  1 35  1  0
  4 36  1  0
 12 37  1  0
 14 38  1  0
 14 39  1  0
 14 40  1  0
 16 41  1  0
 16 42  1  0
 18 43  1  0
 19 44  1  0
 24 45  1  0
 24 46  1  0
 26 47  1  0
 29 48  1  0
 32 49  1  0
 33 50  1  0
M  CHG  6   6  -1   9  -1  11  -1  21  -1  27  -1  31  -1
M  END
>  <UniqueID>  (22) 
19

>  <SMILES>  (22) 
C=c1c(=Cc2[n-]c(=O)[n-]c2[O-])cc(C)n1Cc1ccc([N-]C(=O)Cc2c[n-]c(O)c2[O-])cc1

>  <Energy>  (22) 
153.36848414965098

>  <Genealogy>  (22) 
C=c1c(=Cc2[n-]c(=O)[n-]c2[O-])cc(C)n1Cc1ccc([N-]C(=O)Cc2c[n-]c(O)c2[O-])cc1 (protonated)
C=c1c(=Cc2[n-]c(=O)[n-]c2[O-])cc(C)n1Cc1ccc([N-]C(=O)Cc2c[n-]c(O)c2[O-])cc1 (3D coordinates assigned)
C=c1c(=Cc2[n-]c(=O)[n-]c2[O-])cc(C)n1Cc1ccc([N-]C(=O)Cc2c[n-]c(O)c2[O-])cc1 (optimized conformer: 153.36848414965098 kcal/mol)

>  <smiles>  (22) 
C=c1c(=Cc2[nH]c(=O)[nH]c2O)cc(C)n1Cc1ccc(NC(=O)Cc2c[nH]c(O)c2O)cc1

>  <score_type>  (22) 
oracle

>  <origin>  (22) 
adg

>  <m_score__min__energy>  (22) 
-24.25

>  <m_primary>  (22) 
energy

$$$$
22:0
     RDKit          3D

 69 72  0  0  0  0  0  0  0  0999 V2000
   57.6107   34.0251   52.5096 H   0  0  0  0  0  0  0  0  0  0  0  0
   58.1350   33.2020   52.0020 C   0  0  0  0  0  0  0  0  0  0  0  0
   59.5420   33.4510   51.5970 C   0  0  0  0  0  0  0  0  0  0  0  0
   60.4850   33.2850   52.4130 O   0  0  0  0  0  0  0  0  0  0  0  0
   59.8600   33.8740   50.2660 N   0  0  0  0  0  0  0  0  0  0  0  0
   60.8800   33.3110   49.4300 C   0  0  0  0  0  0  0  0  0  0  0  0
   62.2180   33.4390   49.8230 C   0  0  0  0  0  0  0  0  0  0  0  0
   62.4636   33.9651   50.7573 H   0  0  0  0  0  0  0  0  0  0  0  0
   63.2470   32.9030   49.0370 C   0  0  0  0  0  0  0  0  0  0  0  0
   64.6760   33.0310   49.4760 C   0  0  0  0  0  0  0  0  0  0  0  0
   64.7230   33.0352   50.5750 H   0  0  0  0  0  0  0  0  0  0  0  0
   65.2565   32.1813   49.0874 H   0  0  0  0  0  0  0  0  0  0  0  0
   65.0962   33.9704   49.0874 H   0  0  0  0  0  0  0  0  0  0  0  0
   62.9260   32.1890   47.8760 C   0  0  0  0  0  0  0  0  0  0  0  0
   63.7284   31.7540   47.2621 H   0  0  0  0  0  0  0  0  0  0  0  0
   61.5930   32.0260   47.4930 C   0  0  0  0  0  0  0  0  0  0  0  0
   61.3520   31.4662   46.5773 H   0  0  0  0  0  0  0  0  0  0  0  0
   60.5550   32.5740   48.2720 C   0  0  0  0  0  0  0  0  0  0  0  0
   59.2030   32.3860   47.9410 O   0  0  0  0  0  0  0  0  0  0  0  0
   58.3330   33.4130   47.4810 C   0  0  0  0  0  0  0  0  0  0  0  0
   57.8919   33.9336   48.3438 H   0  0  0  0  0  0  0  0  0  0  0  0
   58.9024   34.1303   46.8717 H   0  0  0  0  0  0  0  0  0  0  0  0
   57.5318   32.9692   46.8717 H   0  0  0  0  0  0  0  0  0  0  0  0
   57.4410   32.0680   51.8080 C   0  0  0  0  0  0  0  0  0  0  0  0
   56.3760   32.0842   52.0828 H   0  0  0  0  0  0  0  0  0  0  0  0
   57.9690   30.8030   51.2620 C   0  0  0  0  0  0  0  0  0  0  0  0
   57.5340   29.6930   51.6750 O   0  0  0  0  0  0  0  0  0  0  0  0
   58.9380   30.8470   50.2070 N   0  0  0  0  0  0  0  0  0  0  0  0
   59.4620   31.7380   50.0480 H   0  0  0  0  0  0  0  0  0  0  0  0
   59.3680   29.6740   49.5030 C   0  0  0  0  0  0  0  0  0  0  0  0
   58.7800   29.3740   48.2680 C   0  0  0  0  0  0  0  0  0  0  0  0
   57.9877   30.0248   47.8695 H   0  0  0  0  0  0  0  0  0  0  0  0
   59.1910   28.2530   47.5350 C   0  0  0  0  0  0  0  0  0  0  0  0
   58.4350   27.8750   45.9890 S   0  0  0  0  0  0  0  0  0  0  0  0
   57.5330   26.6850   46.1670 O   0  0  0  0  0  0  0  0  0  0  0  0
   59.4960   27.5240   44.9830 O   0  0  0  0  0  0  0  0  0  0  0  0
   57.5000   29.2410   45.4330 N   0  0  0  0  0  0  0  0  0  0  0  0
   58.3320   30.4560   45.4360 C   0  0  0  0  0  0  0  0  0  0  0  0
   58.5851   30.7179   46.4740 H   0  0  0  0  0  0  0  0  0  0  0  0
   59.2472   30.2596   44.8582 H   0  0  0  0  0  0  0  0  0  0  0  0
   57.5780   31.6340   44.7860 C   0  0  0  0  0  0  0  0  0  0  0  0
   57.5543   32.4761   45.4933 H   0  0  0  0  0  0  0  0  0  0  0  0
   58.1056   31.9113   43.8615 H   0  0  0  0  0  0  0  0  0  0  0  0
   56.2500   31.2810   44.4480 O   0  0  0  0  0  0  0  0  0  0  0  0
   56.2670   30.2160   43.5160 C   0  0  0  0  0  0  0  0  0  0  0  0
   55.2306   29.9418   43.2695 H   0  0  0  0  0  0  0  0  0  0  0  0
   56.8100   30.5533   42.6208 H   0  0  0  0  0  0  0  0  0  0  0  0
   56.9920   28.9750   44.0780 C   0  0  0  0  0  0  0  0  0  0  0  0
   56.2876   28.1309   44.1153 H   0  0  0  0  0  0  0  0  0  0  0  0
   57.8414   28.7334   43.4221 H   0  0  0  0  0  0  0  0  0  0  0  0
   60.1860   27.4160   48.0530 C   0  0  0  0  0  0  0  0  0  0  0  0
   60.5144   26.5359   47.4807 H   0  0  0  0  0  0  0  0  0  0  0  0
   60.7630   27.6940   49.2930 C   0  0  0  0  0  0  0  0  0  0  0  0
   61.5416   27.0283   49.6938 H   0  0  0  0  0  0  0  0  0  0  0  0
   60.3580   28.8160   50.0330 C   0  0  0  0  0  0  0  0  0  0  0  0
   60.8900   29.0120   51.3560 N   0  0  0  0  0  0  0  0  0  0  0  0
   60.4000   28.2030   52.4800 C   0  0  0  0  0  0  0  0  0  0  0  0
   59.4726   27.6946   52.1776 H   0  0  0  0  0  0  0  0  0  0  0  0
   61.1774   27.4713   52.7450 H   0  0  0  0  0  0  0  0  0  0  0  0
   60.1120   29.0790   53.7220 C   0  0  0  0  0  0  0  0  0  0  0  0
   59.0263   29.0829   53.8989 H   0  0  0  0  0  0  0  0  0  0  0  0
   60.6746   28.6407   54.5595 H   0  0  0  0  0  0  0  0  0  0  0  0
   60.5480   30.4220   53.5910 O   0  0  0  0  0  0  0  0  0  0  0  0
   61.8670   30.4580   53.0860 C   0  0  0  0  0  0  0  0  0  0  0  0
   62.2821   31.4687   53.2127 H   0  0  0  0  0  0  0  0  0  0  0  0
   62.4924   29.7374   53.6334 H   0  0  0  0  0  0  0  0  0  0  0  0
   61.8460   30.0960   51.6000 C   0  0  0  0  0  0  0  0  0  0  0  0
   61.5505   30.9795   51.0150 H   0  0  0  0  0  0  0  0  0  0  0  0
   62.8500   29.7636   51.2976 H   0  0  0  0  0  0  0  0  0  0  0  0
  1  2  1  0
  2  3  1  0
  3  4  2  0
  3  5  1  0
  5  6  1  0
  6  7  2  0
  7  8  1  0
  7  9  1  0
  9 10  1  0
 10 11  1  0
 10 12  1  0
 10 13  1  0
  9 14  2  0
 14 15  1  0
 14 16  1  0
 16 17  1  0
 16 18  2  0
 18 19  1  0
 19 20  1  0
 20 21  1  0
 20 22  1  0
 20 23  1  0
  2 24  2  0
 24 25  1  0
 24 26  1  0
 26 27  2  0
 26 28  1  0
 28 29  1  0
 28 30  1  0
 30 31  2  0
 31 32  1  0
 31 33  1  0
 33 34  1  0
 34 35  2  0
 34 36  2  0
 34 37  1  0
 37 38  1  0
 38 39  1  0
 38 40  1  0
 38 41  1  0
 41 42  1  0
 41 43  1  0
 41 44  1  0
 44 45  1  0
 45 46  1  0
 45 47  1  0
 45 48  1  0
 48 49  1  0
 48 50  1  0
 33 51  2  0
 51 52  1  0
 51 53  1  0
 53 54  1  0
 53 55  2  0
 55 56  1  0
 56 57  1  0
 57 58  1  0
 57 59  1  0
 57 60  1  0
 60 61  1  0
 60 62  1  0
 60 63  1  0
 63 64  1  0
 64 65  1  0
 64 66  1  0
 64 67  1  0
 67 68  1  0
 67 69  1  0
 18  6  1  0
 55 30  1  0
 67 56  1  0
 48 37  1  0
M  CHG  1   5  -1
M  END
>  <UniqueID>  (23) 
20

>  <SMILES>  (23) 
COc1ccc(C)cc1[N-]C(=O)/C=C\C(=O)Nc1cc(S(=O)(=O)N2CCOCC2)ccc1N1CCOCC1

>  <Energy>  (23) 
105.33473722770213

>  <Genealogy>  (23) 
COc1ccc(C)cc1[N-]C(=O)C=CC(=O)Nc1cc(S(=O)(=O)N2CCOCC2)ccc1N1CCOCC1 (protonated)
COc1ccc(C)cc1[N-]C(=O)/C=C\C(=O)Nc1cc(S(=O)(=O)N2CCOCC2)ccc1N1CCOCC1 (cis-trans isomerization)
COc1ccc(C)cc1[N-]C(=O)/C=C\C(=O)Nc1cc(S(=O)(=O)N2CCOCC2)ccc1N1CCOCC1 (3D coordinates assigned)
COc1ccc(C)cc1[N-]C(=O)/C=C\C(=O)Nc1cc(S(=O)(=O)N2CCOCC2)ccc1N1CCOCC1 (nonaromatic ring conformer: 105.33473722770213 kcal/mol)

>  <smiles>  (23) 
COc1ccc(C)cc1NC(=O)C=CC(=O)Nc1cc(S(=O)(=O)N2CCOCC2)ccc1N1CCOCC1

>  <score_type>  (23) 
oracle

>  <origin>  (23) 
adg

>  <m_score__min__energy>  (23) 
-12.369999999999999

>  <m_primary>  (23) 
energy

$$$$
23:0
     RDKit          3D

 63 66  0  0  0  0  0  0  0  0999 V2000
   56.3110   30.4640   43.1270 C   0  0  0  0  0  0  0  0  0  0  0  0
   56.4360   30.0860   44.4920 O   0  0  0  0  0  0  0  0  0  0  0  0
   57.5910   30.2750   45.2690 C   0  0  0  0  0  0  0  0  0  0  0  0
   57.7890   31.4400   46.0320 C   0  0  0  0  0  0  0  0  0  0  0  0
   58.9390   31.5980   46.8130 C   0  0  0  0  0  0  0  0  0  0  0  0
   59.0810   32.8010   47.5820 N   0  0  0  0  0  0  0  0  0  0  0  0
   59.1600   34.1160   47.0200 C   0  0  0  0  0  0  0  0  0  0  0  0
   58.1490   34.8730   47.0190 O   0  0  0  0  0  0  0  0  0  0  0  0
   60.4240   34.5600   46.3530 C   0  0  0  0  0  0  0  0  0  0  0  0
   61.6090   34.1820   47.1990 C   0  0  0  0  0  0  0  0  0  0  0  0
   62.7910   33.7160   46.5960 C   0  0  0  0  0  0  0  0  0  0  0  0
   63.8770   33.3160   47.3820 C   0  0  0  0  0  0  0  0  0  0  0  0
   63.7850   33.3640   48.7760 C   0  0  0  0  0  0  0  0  0  0  0  0
   65.1310   32.8300   49.7600 Cl  0  0  0  0  0  0  0  0  0  0  0  0
   62.6120   33.8200   49.3860 C   0  0  0  0  0  0  0  0  0  0  0  0
   61.5250   34.2250   48.6000 C   0  0  0  0  0  0  0  0  0  0  0  0
   59.9370   30.6040   46.7900 C   0  0  0  0  0  0  0  0  0  0  0  0
   61.4970   30.8390   47.5690 Cl  0  0  0  0  0  0  0  0  0  0  0  0
   59.7340   29.4360   46.0490 C   0  0  0  0  0  0  0  0  0  0  0  0
   58.5650   29.2620   45.2970 C   0  0  0  0  0  0  0  0  0  0  0  0
   58.3860   28.0310   44.5080 C   0  0  0  0  0  0  0  0  0  0  0  0
   57.7640   28.0870   43.4140 O   0  0  0  0  0  0  0  0  0  0  0  0
   58.8990   26.7690   44.9530 N   0  0  0  0  0  0  0  0  0  0  0  0
   58.1110   25.7160   45.5940 C   0  0  0  0  0  0  0  0  0  0  0  0
   57.9140   26.0290   47.0790 C   0  0  0  0  0  0  0  0  0  0  0  0
   57.1550   24.8830   47.7630 C   0  0  0  0  0  0  0  0  0  0  0  0
   55.9910   24.3980   46.9830 N   0  0  0  0  0  0  0  0  0  0  0  0
   55.8940   22.9310   46.8230 C   0  0  0  0  0  0  0  0  0  0  0  0
   56.6430   22.4030   45.6210 C   0  0  0  0  0  0  0  0  0  0  0  0
   58.0470   22.3650   45.6270 C   0  0  0  0  0  0  0  0  0  0  0  0
   58.7460   21.8750   44.5190 C   0  0  0  0  0  0  0  0  0  0  0  0
   58.0510   21.4310   43.3930 C   0  0  0  0  0  0  0  0  0  0  0  0
   56.6560   21.4910   43.3650 C   0  0  0  0  0  0  0  0  0  0  0  0
   55.9530   21.9760   44.4710 C   0  0  0  0  0  0  0  0  0  0  0  0
   55.5830   25.2110   45.8170 C   0  0  0  0  0  0  0  0  0  0  0  0
   56.7520   25.5890   44.8780 C   0  0  0  0  0  0  0  0  0  0  0  0
   55.9662   31.5067   43.0654 H   0  0  0  0  0  0  0  0  0  0  0  0
   57.2878   30.3708   42.6298 H   0  0  0  0  0  0  0  0  0  0  0  0
   55.5823   29.8069   42.6298 H   0  0  0  0  0  0  0  0  0  0  0  0
   57.0305   32.2365   46.0144 H   0  0  0  0  0  0  0  0  0  0  0  0
   60.5078   34.0739   45.3698 H   0  0  0  0  0  0  0  0  0  0  0  0
   60.4026   35.6525   46.2269 H   0  0  0  0  0  0  0  0  0  0  0  0
   62.8621   33.6657   45.4995 H   0  0  0  0  0  0  0  0  0  0  0  0
   64.8027   32.9639   46.9033 H   0  0  0  0  0  0  0  0  0  0  0  0
   62.5427   33.8607   50.4831 H   0  0  0  0  0  0  0  0  0  0  0  0
   60.6018   34.5782   49.0826 H   0  0  0  0  0  0  0  0  0  0  0  0
   60.4995   28.6461   46.0565 H   0  0  0  0  0  0  0  0  0  0  0  0
   58.6475   24.7588   45.5170 H   0  0  0  0  0  0  0  0  0  0  0  0
   58.8964   26.1521   47.5584 H   0  0  0  0  0  0  0  0  0  0  0  0
   57.3309   26.9566   47.1774 H   0  0  0  0  0  0  0  0  0  0  0  0
   57.8503   24.0434   47.9099 H   0  0  0  0  0  0  0  0  0  0  0  0
   56.7671   25.2739   48.7152 H   0  0  0  0  0  0  0  0  0  0  0  0
   56.3047   22.4548   47.7255 H   0  0  0  0  0  0  0  0  0  0  0  0
   54.8310   22.6925   46.6712 H   0  0  0  0  0  0  0  0  0  0  0  0
   58.6000   22.7226   46.5081 H   0  0  0  0  0  0  0  0  0  0  0  0
   59.8453   21.8395   44.5351 H   0  0  0  0  0  0  0  0  0  0  0  0
   58.6020   21.0339   42.5277 H   0  0  0  0  0  0  0  0  0  0  0  0
   56.1098   21.1559   42.4709 H   0  0  0  0  0  0  0  0  0  0  0  0
   54.8544   22.0243   44.4427 H   0  0  0  0  0  0  0  0  0  0  0  0
   54.8439   24.6387   45.2371 H   0  0  0  0  0  0  0  0  0  0  0  0
   55.1726   26.1523   46.2114 H   0  0  0  0  0  0  0  0  0  0  0  0
   56.8395   24.8126   44.1037 H   0  0  0  0  0  0  0  0  0  0  0  0
   56.5180   26.5786   44.4585 H   0  0  0  0  0  0  0  0  0  0  0  0
  1  2  1  0
  2  3  1  0
  3  4  2  0
  4  5  1  0
  5  6  1  0
  6  7  1  0
  7  8  2  0
  7  9  1  0
  9 10  1  0
 10 11  2  0
 11 12  1  0
 12 13  2  0
 13 14  1  0
 13 15  1  0
 15 16  2  0
  5 17  2  0
 17 18  1  0
 17 19  1  0
 19 20  2  0
 20 21  1  0
 21 22  2  0
 21 23  1  0
 23 24  1  0
 24 25  1  0
 25 26  1  0
 26 27  1  0
 27 28  1  0
 28 29  1  0
 29 30  2  0
 30 31  1  0
 31 32  2  0
 32 33  1  0
 33 34  2  0
 27 35  1  0
 35 36  1  0
 20  3  1  0
 36 24  1  0
 16 10  1  0
 34 29  1  0
  1 37  1  0
  1 38  1  0
  1 39  1  0
  4 40  1  0
  9 41  1  0
  9 42  1  0
 11 43  1  0
 12 44  1  0
 15 45  1  0
 16 46  1  0
 19 47  1  0
 24 48  1  0
 25 49  1  0
 25 50  1  0
 26 51  1  0
 26 52  1  0
 28 53  1  0
 28 54  1  0
 30 55  1  0
 31 56  1  0
 32 57  1  0
 33 58  1  0
 34 59  1  0
 35 60  1  0
 35 61  1  0
 36 62  1  0
 36 63  1  0
M  CHG  2   6  -1  23  -1
M  END
>  <UniqueID>  (24) 
21

>  <SMILES>  (24) 
COc1cc([N-]C(=O)Cc2ccc(Cl)cc2)c(Cl)cc1C(=O)[N-]C1CCN(Cc2ccccc2)CC1

>  <Energy>  (24) 
85.06601463645336

>  <Genealogy>  (24) 
COc1cc([N-]C(=O)Cc2ccc(Cl)cc2)c(Cl)cc1C(=O)[N-]C1CCN(Cc2ccccc2)CC1 (protonated)
COc1cc([N-]C(=O)Cc2ccc(Cl)cc2)c(Cl)cc1C(=O)[N-]C1CCN(Cc2ccccc2)CC1 (3D coordinates assigned)
COc1cc([N-]C(=O)Cc2ccc(Cl)cc2)c(Cl)cc1C(=O)[N-]C1CCN(Cc2ccccc2)CC1 (nonaromatic ring conformer: 85.06601463645336 kcal/mol)

>  <smiles>  (24) 
COc1cc(NC(=O)Cc2ccc(Cl)cc2)c(Cl)cc1C(=O)NC1CCN(Cc2ccccc2)CC1

>  <score_type>  (24) 
oracle

>  <origin>  (24) 
adg

>  <m_score__min__energy>  (24) 
-12.16

>  <m_primary>  (24) 
energy

$$$$
24:0
     RDKit          3D

 54 57  0  0  0  0  0  0  0  0999 V2000
   55.7866   21.4883   45.2778 H   0  0  0  0  0  0  0  0  0  0  0  0
   55.5780   22.5600   45.4120 C   0  0  0  0  0  0  0  0  0  0  0  0
   56.4690   23.3480   46.0710 N   0  0  0  0  0  0  0  0  0  0  0  0
   56.2520   24.6820   46.2610 C   0  0  0  0  0  0  0  0  0  0  0  0
   57.1140   25.4210   46.8980 N   0  0  0  0  0  0  0  0  0  0  0  0
   58.3800   25.8860   46.3980 C   0  0  0  0  0  0  0  0  0  0  0  0
   59.3130   25.0500   46.2670 O   0  0  0  0  0  0  0  0  0  0  0  0
   58.6410   27.3130   46.0920 C   0  0  0  0  0  0  0  0  0  0  0  0
   59.9760   27.7610   45.9000 C   0  0  0  0  0  0  0  0  0  0  0  0
   60.8085   27.0487   45.9979 H   0  0  0  0  0  0  0  0  0  0  0  0
   60.2440   29.1060   45.5860 C   0  0  0  0  0  0  0  0  0  0  0  0
   61.2738   29.4571   45.4242 H   0  0  0  0  0  0  0  0  0  0  0  0
   59.1660   29.9760   45.4870 C   0  0  0  0  0  0  0  0  0  0  0  0
   59.1830   31.2660   45.1250 N   0  0  0  0  0  0  0  0  0  0  0  0
   57.8650   31.5950   45.1380 C   0  0  0  0  0  0  0  0  0  0  0  0
   57.3680   32.9180   44.6490 C   0  0  0  0  0  0  0  0  0  0  0  0
   56.3005   32.8389   44.3956 H   0  0  0  0  0  0  0  0  0  0  0  0
   57.9335   33.2166   43.7540 H   0  0  0  0  0  0  0  0  0  0  0  0
   57.5500   33.9300   45.7110 N   0  0  0  0  0  0  0  0  0  0  0  0
   57.6740   33.3070   47.0510 C   0  0  0  0  0  0  0  0  0  0  0  0
   56.9523   33.7692   47.7406 H   0  0  0  0  0  0  0  0  0  0  0  0
   57.4667   32.2291   46.9798 H   0  0  0  0  0  0  0  0  0  0  0  0
   59.0630   33.5210   47.5620 C   0  0  0  0  0  0  0  0  0  0  0  0
   59.3160   34.5440   48.2550 O   0  0  0  0  0  0  0  0  0  0  0  0
   60.0630   32.5140   47.3430 N   0  0  0  0  0  0  0  0  0  0  0  0
   59.7440   31.5890   46.9810 H   0  0  0  0  0  0  0  0  0  0  0  0
   61.4540   32.6470   47.6820 C   0  0  0  0  0  0  0  0  0  0  0  0
   62.2270   33.6150   47.0220 C   0  0  0  0  0  0  0  0  0  0  0  0
   61.7746   34.2284   46.2289 H   0  0  0  0  0  0  0  0  0  0  0  0
   63.5690   33.8040   47.3670 C   0  0  0  0  0  0  0  0  0  0  0  0
   64.1702   34.5591   46.8393 H   0  0  0  0  0  0  0  0  0  0  0  0
   64.1470   33.0370   48.3790 C   0  0  0  0  0  0  0  0  0  0  0  0
   65.2052   33.1814   48.6425 H   0  0  0  0  0  0  0  0  0  0  0  0
   63.3810   32.0850   49.0580 C   0  0  0  0  0  0  0  0  0  0  0  0
   63.9370   31.3570   50.0550 F   0  0  0  0  0  0  0  0  0  0  0  0
   62.0370   31.8950   48.7190 C   0  0  0  0  0  0  0  0  0  0  0  0
   61.4336   31.1550   49.2651 H   0  0  0  0  0  0  0  0  0  0  0  0
   58.6810   34.8390   45.4210 C   0  0  0  0  0  0  0  0  0  0  0  0
   59.2389   35.0301   46.3496 H   0  0  0  0  0  0  0  0  0  0  0  0
   58.2845   35.7815   45.0156 H   0  0  0  0  0  0  0  0  0  0  0  0
   59.6190   34.2150   44.3910 C   0  0  0  0  0  0  0  0  0  0  0  0
   60.4269   33.6775   44.9090 H   0  0  0  0  0  0  0  0  0  0  0  0
   59.0555   33.5111   43.7609 H   0  0  0  0  0  0  0  0  0  0  0  0
   60.0505   35.0067   43.7609 H   0  0  0  0  0  0  0  0  0  0  0  0
   57.0330   30.5750   45.4760 N   0  0  0  0  0  0  0  0  0  0  0  0
   57.8870   29.5650   45.6960 C   0  0  0  0  0  0  0  0  0  0  0  0
   57.5790   28.2440   46.0110 C   0  0  0  0  0  0  0  0  0  0  0  0
   56.5394   27.9333   46.1917 H   0  0  0  0  0  0  0  0  0  0  0  0
   55.0660   25.2610   45.7830 C   0  0  0  0  0  0  0  0  0  0  0  0
   54.7980   26.6110   45.9920 O   0  0  0  0  0  0  0  0  0  0  0  0
   54.1440   24.4680   45.0940 C   0  0  0  0  0  0  0  0  0  0  0  0
   53.2186   24.9141   44.7008 H   0  0  0  0  0  0  0  0  0  0  0  0
   54.4000   23.1090   44.9060 C   0  0  0  0  0  0  0  0  0  0  0  0
   53.6803   22.4775   44.3645 H   0  0  0  0  0  0  0  0  0  0  0  0
  1  2  1  0
  2  3  1  0
  3  4  1  0
  4  5  2  0
  5  6  1  0
  6  7  2  0
  6  8  1  0
  8  9  2  0
  9 10  1  0
  9 11  1  0
 11 12  1  0
 11 13  2  0
 13 14  1  0
 14 15  1  0
 15 16  1  0
 16 17  1  0
 16 18  1  0
 16 19  1  0
 19 20  1  0
 20 21  1  0
 20 22  1  0
 20 23  1  0
 23 24  2  0
 23 25  1  0
 25 26  1  0
 25 27  1  0
 27 28  2  0
 28 29  1  0
 28 30  1  0
 30 31  1  0
 30 32  2  0
 32 33  1  0
 32 34  1  0
 34 35  1  0
 34 36  2  0
 36 37  1  0
 19 38  1  0
 38 39  1  0
 38 40  1  0
 38 41  1  0
 41 42  1  0
 41 43  1  0
 41 44  1  0
 15 45  2  0
 45 46  1  0
 46 47  2  0
 47 48  1  0
  4 49  1  0
 49 50  1  0
 49 51  2  0
 51 52  1  0
 51 53  1  0
 53 54  1  0
 53  2  2  0
 47  8  1  0
 46 13  1  0
 36 27  1  0
M  CHG  3   3  -1  14  -1  50  -1
M  END
>  <UniqueID>  (25) 
22

>  <SMILES>  (25) 
CCN(CC(=O)Nc1cccc(F)c1)Cc1nc2cc(C(=O)/N=c3/[n-]cccc3[O-])ccc2[n-]1

>  <Energy>  (25) 
101.63318958466971

>  <Genealogy>  (25) 
CCN(CC(=O)Nc1cccc(F)c1)Cc1nc2cc(C(=O)N=c3[n-]cccc3[O-])ccc2[n-]1 (protonated)
CCN(CC(=O)Nc1cccc(F)c1)Cc1nc2cc(C(=O)/N=c3/[n-]cccc3[O-])ccc2[n-]1 (cis-trans isomerization)
CCN(CC(=O)Nc1cccc(F)c1)Cc1nc2cc(C(=O)/N=c3/[n-]cccc3[O-])ccc2[n-]1 (3D coordinates assigned)
CCN(CC(=O)Nc1cccc(F)c1)Cc1nc2cc(C(=O)/N=c3/[n-]cccc3[O-])ccc2[n-]1 (optimized conformer: 101.63318958466971 kcal/mol)

>  <smiles>  (25) 
CCN(CC(=O)Nc1cccc(F)c1)Cc1nc2cc(C(=O)N=c3[nH]cccc3O)ccc2[nH]1

>  <score_type>  (25) 
oracle

>  <origin>  (25) 
adg

>  <m_score__min__energy>  (25) 
-14.779999999999999

>  <m_primary>  (25) 
energy

$$$$
25:0
     RDKit          3D

 94 99  0  0  0  0  0  0  0  0999 V2000
   63.9060   30.1120   50.8910 N   0  0  0  0  0  0  0  0  0  0  0  0
   63.7030   30.8410   52.4450 S   0  0  0  0  0  0  0  0  0  0  0  0
   63.9820   29.8230   53.5150 O   0  0  0  0  0  0  0  0  0  0  0  0
   64.6790   31.9770   52.5940 O   0  0  0  0  0  0  0  0  0  0  0  0
   62.0510   31.4340   52.6060 C   0  0  0  0  0  0  0  0  0  0  0  0
   61.7510   32.4190   53.5580 C   0  0  0  0  0  0  0  0  0  0  0  0
   60.4420   32.8920   53.6900 C   0  0  0  0  0  0  0  0  0  0  0  0
   59.4250   32.3700   52.8860 C   0  0  0  0  0  0  0  0  0  0  0  0
   59.7110   31.3770   51.9400 C   0  0  0  0  0  0  0  0  0  0  0  0
   58.4060   30.7620   50.9190 S   0  0  0  0  0  0  0  0  0  0  0  0
   58.0980   29.3360   51.2880 O   0  0  0  0  0  0  0  0  0  0  0  0
   57.2020   31.6130   51.2140 O   0  0  0  0  0  0  0  0  0  0  0  0
   58.8290   30.8750   49.2170 N   0  0  1  0  0  0  0  0  0  0  0  0
   59.1060   32.2650   48.9260 C   0  0  0  0  0  0  0  0  0  0  0  0
   58.9690   33.1350   49.8320 O   0  0  0  0  0  0  0  0  0  0  0  0
   59.4810   32.6940   47.6060 N   0  0  0  0  0  0  0  0  0  0  0  0
   60.2860   33.9310   47.5020 C   0  0  0  0  0  0  0  0  0  0  0  0
   61.6490   33.8030   48.1420 C   0  0  0  0  0  0  0  0  0  0  0  0
   62.7710   33.4670   47.3640 C   0  0  0  0  0  0  0  0  0  0  0  0
   64.0220   33.2910   47.9640 C   0  0  0  0  0  0  0  0  0  0  0  0
   64.1770   33.4860   49.3430 C   0  0  0  0  0  0  0  0  0  0  0  0
   65.5050   33.2440   50.0080 C   0  0  0  0  0  0  0  0  0  0  0  0
   65.7660   31.8690   50.0830 O   0  0  0  0  0  0  0  0  0  0  0  0
   63.0700   33.8700   50.1150 C   0  0  0  0  0  0  0  0  0  0  0  0
   61.8210   34.0440   49.5130 C   0  0  0  0  0  0  0  0  0  0  0  0
   58.6820   32.0870   46.5130 C   0  0  1  0  0  0  0  0  0  0  0  0
   58.9390   32.7340   45.1220 C   0  0  0  0  0  0  0  0  0  0  0  0
   58.1490   32.0860   44.0110 C   0  0  0  0  0  0  0  0  0  0  0  0
   57.2750   31.0230   44.2920 C   0  0  0  0  0  0  0  0  0  0  0  0
   56.5230   30.4370   43.2680 C   0  0  0  0  0  0  0  0  0  0  0  0
   56.6350   30.9090   41.9570 C   0  0  0  0  0  0  0  0  0  0  0  0
   57.4950   31.9710   41.6700 C   0  0  0  0  0  0  0  0  0  0  0  0
   58.2470   32.5610   42.6920 C   0  0  0  0  0  0  0  0  0  0  0  0
   58.9040   30.5480   46.4950 C   0  0  2  0  0  0  0  0  0  0  0  0
   57.7880   29.8810   47.0370 O   0  0  0  0  0  0  0  0  0  0  0  0
   60.1960   30.1010   47.2430 C   0  0  1  0  0  0  0  0  0  0  0  0
   61.2280   31.0080   46.9350 O   0  0  0  0  0  0  0  0  0  0  0  0
   59.9620   29.9840   48.8030 C   0  0  2  0  0  0  0  0  0  0  0  0
   59.7400   28.5090   49.2740 C   0  0  0  0  0  0  0  0  0  0  0  0
   59.3640   27.5500   48.1630 C   0  0  0  0  0  0  0  0  0  0  0  0
   58.0220   27.3550   47.7920 C   0  0  0  0  0  0  0  0  0  0  0  0
   57.6870   26.4250   46.8040 C   0  0  0  0  0  0  0  0  0  0  0  0
   58.6870   25.6960   46.1380 C   0  0  0  0  0  0  0  0  0  0  0  0
   58.3440   24.7220   45.1260 N   0  0  0  0  0  0  0  0  0  0  0  0
   57.6470   25.1260   43.8970 C   0  0  0  0  0  0  0  0  0  0  0  0
   56.6180   24.0530   43.4740 C   0  0  0  0  0  0  0  0  0  0  0  0
   56.7640   22.8120   44.1490 O   0  0  0  0  0  0  0  0  0  0  0  0
   58.1260   22.4450   44.2060 C   0  0  0  0  0  0  0  0  0  0  0  0
   58.8580   23.3460   45.2060 C   0  0  0  0  0  0  0  0  0  0  0  0
   60.0330   25.9470   46.4630 C   0  0  0  0  0  0  0  0  0  0  0  0
   60.3650   26.8600   47.4650 C   0  0  0  0  0  0  0  0  0  0  0  0
   61.0270   30.9060   51.8050 C   0  0  0  0  0  0  0  0  0  0  0  0
   63.8290   30.8780   50.1820 H   0  0  0  0  0  0  0  0  0  0  0  0
   62.5472   32.8203   54.2022 H   0  0  0  0  0  0  0  0  0  0  0  0
   60.2124   33.6755   54.4271 H   0  0  0  0  0  0  0  0  0  0  0  0
   58.3952   32.7405   52.9965 H   0  0  0  0  0  0  0  0  0  0  0  0
   57.9800   30.5940   48.6710 H   0  0  0  0  0  0  0  0  0  0  0  0
   60.4198   34.1739   46.4375 H   0  0  0  0  0  0  0  0  0  0  0  0
   59.7433   34.7233   48.0384 H   0  0  0  0  0  0  0  0  0  0  0  0
   62.6641   33.3418   46.2764 H   0  0  0  0  0  0  0  0  0  0  0  0
   64.8874   32.9984   47.3512 H   0  0  0  0  0  0  0  0  0  0  0  0
   66.2983   33.7330   49.4236 H   0  0  0  0  0  0  0  0  0  0  0  0
   65.4774   33.6599   51.0260 H   0  0  0  0  0  0  0  0  0  0  0  0
   64.9940   31.4580   50.5500 H   0  0  0  0  0  0  0  0  0  0  0  0
   63.1856   34.0344   51.1965 H   0  0  0  0  0  0  0  0  0  0  0  0
   60.9647   34.3730   50.1200 H   0  0  0  0  0  0  0  0  0  0  0  0
   57.6224   32.2931   46.7248 H   0  0  0  0  0  0  0  0  0  0  0  0
   58.6619   33.7972   45.1742 H   0  0  0  0  0  0  0  0  0  0  0  0
   60.0052   32.5965   44.8889 H   0  0  0  0  0  0  0  0  0  0  0  0
   57.1813   30.6493   45.3223 H   0  0  0  0  0  0  0  0  0  0  0  0
   55.8423   29.6032   43.4950 H   0  0  0  0  0  0  0  0  0  0  0  0
   56.0463   30.4443   41.1523 H   0  0  0  0  0  0  0  0  0  0  0  0
   57.5815   32.3444   40.6389 H   0  0  0  0  0  0  0  0  0  0  0  0
   58.9186   33.4012   42.4617 H   0  0  0  0  0  0  0  0  0  0  0  0
   59.0318   30.2714   45.4380 H   0  0  0  0  0  0  0  0  0  0  0  0
   57.4010   29.3210   46.3170 H   0  0  0  0  0  0  0  0  0  0  0  0
   60.4827   29.0942   46.9052 H   0  0  0  0  0  0  0  0  0  0  0  0
   62.0190   30.7670   47.4810 H   0  0  0  0  0  0  0  0  0  0  0  0
   60.8811   30.3211   49.3046 H   0  0  0  0  0  0  0  0  0  0  0  0
   60.6714   28.1514   49.7374 H   0  0  0  0  0  0  0  0  0  0  0  0
   58.8929   28.5263   49.9755 H   0  0  0  0  0  0  0  0  0  0  0  0
   57.2296   27.9389   48.2831 H   0  0  0  0  0  0  0  0  0  0  0  0
   56.6304   26.2621   46.5452 H   0  0  0  0  0  0  0  0  0  0  0  0
   57.1242   26.0774   44.0746 H   0  0  0  0  0  0  0  0  0  0  0  0
   58.3879   25.2418   43.0923 H   0  0  0  0  0  0  0  0  0  0  0  0
   55.6096   24.4414   43.6793 H   0  0  0  0  0  0  0  0  0  0  0  0
   56.7873   23.8548   42.4053 H   0  0  0  0  0  0  0  0  0  0  0  0
   58.2098   21.3965   44.5280 H   0  0  0  0  0  0  0  0  0  0  0  0
   58.5782   22.5607   43.2100 H   0  0  0  0  0  0  0  0  0  0  0  0
   58.7025   22.9593   46.2240 H   0  0  0  0  0  0  0  0  0  0  0  0
   59.9310   23.3506   44.9640 H   0  0  0  0  0  0  0  0  0  0  0  0
   60.8315   25.4183   45.9218 H   0  0  0  0  0  0  0  0  0  0  0  0
   61.4223   27.0399   47.7094 H   0  0  0  0  0  0  0  0  0  0  0  0
   61.2558   30.1209   51.0693 H   0  0  0  0  0  0  0  0  0  0  0  0
  1  2  1  0
  2  3  2  0
  2  4  2  0
  2  5  1  0
  5  6  2  0
  6  7  1  0
  7  8  2  0
  8  9  1  0
  9 10  1  0
 10 11  2  0
 10 12  2  0
 10 13  1  0
 13 14  1  0
 14 15  2  0
 14 16  1  0
 16 17  1  0
 17 18  1  0
 18 19  2  0
 19 20  1  0
 20 21  2  0
 21 22  1  0
 22 23  1  0
 21 24  1  0
 24 25  2  0
 16 26  1  0
 26 27  1  0
 27 28  1  0
 28 29  2  0
 29 30  1  0
 30 31  2  0
 31 32  1  0
 32 33  2  0
 26 34  1  0
 34 35  1  0
 34 36  1  0
 36 37  1  0
 36 38  1  0
 38 39  1  0
 39 40  1  0
 40 41  2  0
 41 42  1  0
 42 43  2  0
 43 44  1  0
 44 45  1  0
 45 46  1  0
 46 47  1  0
 47 48  1  0
 48 49  1  0
 43 50  1  0
 50 51  2  0
  9 52  2  0
 52  5  1  0
 38 13  1  0
 51 40  1  0
 25 18  1  0
 33 28  1  0
 49 44  1  0
  1 53  1  0
  6 54  1  0
  7 55  1  0
  8 56  1  0
 13 57  1  6
 17 58  1  0
 17 59  1  0
 19 60  1  0
 20 61  1  0
 22 62  1  0
 22 63  1  0
 23 64  1  0
 24 65  1  0
 25 66  1  0
 26 67  1  1
 27 68  1  0
 27 69  1  0
 29 70  1  0
 30 71  1  0
 31 72  1  0
 32 73  1  0
 33 74  1  0
 34 75  1  6
 35 76  1  0
 36 77  1  6
 37 78  1  0
 38 79  1  1
 39 80  1  0
 39 81  1  0
 41 82  1  0
 42 83  1  0
 45 84  1  0
 45 85  1  0
 46 86  1  0
 46 87  1  0
 48 88  1  0
 48 89  1  0
 49 90  1  0
 49 91  1  0
 50 92  1  0
 51 93  1  0
 52 94  1  0
M  CHG  2   1  -1  13   1
M  END
>  <UniqueID>  (26) 
23

>  <SMILES>  (26) 
[NH-]S(=O)(=O)c1cccc(S(=O)(=O)[N@H+]2C(=O)N(Cc3ccc(CO)cc3)[C@@H](Cc3ccccc3)C(O)C(O)C2Cc2ccc(N3CCOCC3)cc2)c1

>  <Energy>  (26) 
135.64867930313

>  <Genealogy>  (26) 
[NH-]S(=O)(=O)c1cccc(S(=O)(=O)[NH+]2C(=O)N(Cc3ccc(CO)cc3)C(Cc3ccccc3)C(O)C(O)C2Cc2ccc(N3CCOCC3)cc2)c1 (protonated)
[NH-]S(=O)(=O)c1cccc(S(=O)(=O)[N@H+]2C(=O)N(Cc3ccc(CO)cc3)[C@@H](Cc3ccccc3)C(O)C(O)C2Cc2ccc(N3CCOCC3)cc2)c1 (chirality)
[NH-]S(=O)(=O)c1cccc(S(=O)(=O)[N@H+]2C(=O)N(Cc3ccc(CO)cc3)[C@@H](Cc3ccccc3)C(O)C(O)C2Cc2ccc(N3CCOCC3)cc2)c1 (3D coordinates assigned)
[NH-]S(=O)(=O)c1cccc(S(=O)(=O)[N@H+]2C(=O)N(Cc3ccc(CO)cc3)[C@@H](Cc3ccccc3)C(O)C(O)C2Cc2ccc(N3CCOCC3)cc2)c1 (nonaromatic ring conformer: 135.64867930313 kcal/mol)

>  <smiles>  (26) 
NS(=O)(=O)c1cccc(S(=O)(=O)N2C(=O)N(Cc3ccc(CO)cc3)C(Cc3ccccc3)C(O)C(O)C2Cc2ccc(N3CCOCC3)cc2)c1

>  <score_type>  (26) 
oracle

>  <origin>  (26) 
adg

>  <m_score__min__energy>  (26) 
-9.2699999999999996

>  <m_primary>  (26) 
energy

$$$$
26:0
     RDKit          3D

 37 39  0  0  0  0  0  0  0  0999 V2000
   59.5430   34.7990   44.5610 O   0  0  0  0  0  0  0  0  0  0  0  0
   59.2080   34.1380   45.5800 C   0  0  0  0  0  0  0  0  0  0  0  0
   59.3910   34.7260   46.8760 N   0  0  0  0  0  0  0  0  0  0  0  0
   60.2880   34.2540   47.8930 C   0  0  0  0  0  0  0  0  0  0  0  0
   59.8330   34.2040   49.2180 C   0  0  0  0  0  0  0  0  0  0  0  0
   60.6590   33.7100   50.2330 C   0  0  0  0  0  0  0  0  0  0  0  0
   60.0670   33.6210   51.8810 Cl  0  0  0  0  0  0  0  0  0  0  0  0
   61.9550   33.2810   49.9320 C   0  0  0  0  0  0  0  0  0  0  0  0
   62.4310   33.3610   48.6210 C   0  0  0  0  0  0  0  0  0  0  0  0
   61.6110   33.8600   47.5990 C   0  0  0  0  0  0  0  0  0  0  0  0
   62.1160   33.9830   46.3050 O   0  0  0  0  0  0  0  0  0  0  0  0
   58.6190   32.7890   45.4110 C   0  0  0  0  0  0  0  0  0  0  0  0
   57.6610   32.5480   44.4120 C   0  0  0  0  0  0  0  0  0  0  0  0
   57.0310   31.3060   44.3240 C   0  0  0  0  0  0  0  0  0  0  0  0
   57.3490   30.2850   45.2360 C   0  0  0  0  0  0  0  0  0  0  0  0
   56.6560   29.0290   45.2230 N   0  0  0  0  0  0  0  0  0  0  0  0
   57.2340   27.7680   44.8580 C   0  0  0  0  0  0  0  0  0  0  0  0
   57.7980   27.6620   43.7370 O   0  0  0  0  0  0  0  0  0  0  0  0
   57.2160   26.6020   45.7770 C   0  0  0  0  0  0  0  0  0  0  0  0
   56.0080   26.0910   46.2860 C   0  0  0  0  0  0  0  0  0  0  0  0
   54.7940   26.7020   45.9920 O   0  0  0  0  0  0  0  0  0  0  0  0
   56.0190   24.9990   47.0920 N   0  0  0  0  0  0  0  0  0  0  0  0
   57.1820   24.3880   47.4310 C   0  0  0  0  0  0  0  0  0  0  0  0
   57.1650   23.3730   48.1740 O   0  0  0  0  0  0  0  0  0  0  0  0
   58.3630   24.8720   46.9720 N   0  0  0  0  0  0  0  0  0  0  0  0
   58.4080   25.9610   46.1600 C   0  0  0  0  0  0  0  0  0  0  0  0
   59.5250   26.3720   45.7450 O   0  0  0  0  0  0  0  0  0  0  0  0
   58.3660   30.4950   46.1750 C   0  0  0  0  0  0  0  0  0  0  0  0
   58.9950   31.7410   46.2650 C   0  0  0  0  0  0  0  0  0  0  0  0
   58.8195   34.5556   49.4612 H   0  0  0  0  0  0  0  0  0  0  0  0
   62.6002   32.8803   50.7277 H   0  0  0  0  0  0  0  0  0  0  0  0
   63.4544   33.0308   48.3893 H   0  0  0  0  0  0  0  0  0  0  0  0
   61.5190   34.2230   45.5220 H   0  0  0  0  0  0  0  0  0  0  0  0
   57.4062   33.3426   43.6953 H   0  0  0  0  0  0  0  0  0  0  0  0
   56.2829   31.1254   43.5381 H   0  0  0  0  0  0  0  0  0  0  0  0
   58.6714   29.6772   46.8443 H   0  0  0  0  0  0  0  0  0  0  0  0
   59.7890   31.9003   47.0095 H   0  0  0  0  0  0  0  0  0  0  0  0
  1  2  2  0
  2  3  1  0
  3  4  1  0
  4  5  2  0
  5  6  1  0
  6  7  1  0
  6  8  2  0
  8  9  1  0
  9 10  2  0
 10 11  1  0
  2 12  1  0
 12 13  2  0
 13 14  1  0
 14 15  2  0
 15 16  1  0
 16 17  1  0
 17 18  2  0
 17 19  1  0
 19 20  2  0
 20 21  1  0
 20 22  1  0
 22 23  1  0
 23 24  2  0
 23 25  1  0
 25 26  1  0
 26 27  2  0
 15 28  1  0
 28 29  2  0
 10  4  1  0
 29 12  1  0
 26 19  1  0
  5 30  1  0
  8 31  1  0
  9 32  1  0
 11 33  1  0
 13 34  1  0
 14 35  1  0
 28 36  1  0
 29 37  1  0
M  CHG  5   3  -1  16  -1  21  -1  22  -1  25  -1
M  END
>  <UniqueID>  (27) 
24

>  <SMILES>  (27) 
O=C([N-]c1cc(Cl)ccc1O)c1ccc([N-]C(=O)c2c([O-])[n-]c(=O)[n-]c2=O)cc1

>  <Energy>  (27) 
57.684379186111926

>  <Genealogy>  (27) 
O=C([N-]c1cc(Cl)ccc1O)c1ccc([N-]C(=O)c2c([O-])[n-]c(=O)[n-]c2=O)cc1 (protonated)
O=C([N-]c1cc(Cl)ccc1O)c1ccc([N-]C(=O)c2c([O-])[n-]c(=O)[n-]c2=O)cc1 (3D coordinates assigned)
O=C([N-]c1cc(Cl)ccc1O)c1ccc([N-]C(=O)c2c([O-])[n-]c(=O)[n-]c2=O)cc1 (optimized conformer: 57.684379186111926 kcal/mol)

>  <smiles>  (27) 
O=C(Nc1cc(Cl)ccc1O)c1ccc(NC(=O)c2c(O)[nH]c(=O)[nH]c2=O)cc1

>  <score_type>  (27) 
oracle

>  <origin>  (27) 
adg

>  <m_score__min__energy>  (27) 
-17.739999999999998

>  <m_primary>  (27) 
energy

$$$$
27:0
     RDKit          3D

 61 64  0  0  0  0  0  0  0  0999 V2000
   62.0600   31.5070   47.7630 C   0  0  0  0  0  0  0  0  0  0  0  0
   60.8090   30.8330   47.8550 O   0  0  0  0  0  0  0  0  0  0  0  0
   59.9090   30.9680   48.9250 C   0  0  0  0  0  0  0  0  0  0  0  0
   59.1440   32.1370   49.1130 C   0  0  0  0  0  0  0  0  0  0  0  0
   58.2610   32.2360   50.1910 C   0  0  0  0  0  0  0  0  0  0  0  0
   58.1420   31.1820   51.0970 C   0  0  0  0  0  0  0  0  0  0  0  0
   58.8970   30.0220   50.9230 C   0  0  0  0  0  0  0  0  0  0  0  0
   59.7690   29.8990   49.8250 C   0  0  0  0  0  0  0  0  0  0  0  0
   60.5570   28.7150   49.6300 N   0  0  0  0  0  0  0  0  0  0  0  0
   60.1780   27.5650   48.8630 C   0  0  0  0  0  0  0  0  0  0  0  0
   60.4010   26.4190   49.3360 O   0  0  0  0  0  0  0  0  0  0  0  0
   59.5850   27.6860   47.5170 C   0  0  0  0  0  0  0  0  0  0  0  0
   58.7520   26.7670   46.9140 C   0  0  0  0  0  0  0  0  0  0  0  0
   58.4270   27.2280   45.6870 N   0  0  0  0  0  0  0  0  0  0  0  0
   57.4650   26.6310   44.7520 C   0  0  0  0  0  0  0  0  0  0  0  0
   56.5830   25.6220   45.4470 C   0  0  0  0  0  0  0  0  0  0  0  0
   55.8830   26.0210   46.4180 O   0  0  0  0  0  0  0  0  0  0  0  0
   56.4580   24.2550   44.9890 N   0  0  0  0  0  0  0  0  0  0  0  0
   57.4340   23.6960   44.0380 C   0  0  0  0  0  0  0  0  0  0  0  0
   57.3190   22.1720   43.9190 C   0  0  0  0  0  0  0  0  0  0  0  0
   55.9710   21.7690   43.8160 O   0  0  0  0  0  0  0  0  0  0  0  0
   55.3170   22.0460   45.0350 C   0  0  0  0  0  0  0  0  0  0  0  0
   55.1880   23.5560   45.2450 C   0  0  0  0  0  0  0  0  0  0  0  0
   59.0460   28.4290   45.5810 C   0  0  0  0  0  0  0  0  0  0  0  0
   58.9740   29.3390   44.3910 C   0  0  0  0  0  0  0  0  0  0  0  0
   57.5110   30.3530   44.4750 S   0  0  0  0  0  0  0  0  0  0  0  0
   56.4740   29.7010   45.3460 O   0  0  0  0  0  0  0  0  0  0  0  0
   56.9400   30.5290   43.0940 O   0  0  0  0  0  0  0  0  0  0  0  0
   57.9430   31.9200   45.1490 C   0  0  0  0  0  0  0  0  0  0  0  0
   57.0120   32.9700   45.1620 C   0  0  0  0  0  0  0  0  0  0  0  0
   57.3690   34.2190   45.6820 C   0  0  0  0  0  0  0  0  0  0  0  0
   58.6570   34.4250   46.1850 C   0  0  0  0  0  0  0  0  0  0  0  0
   59.5910   33.3840   46.1670 C   0  0  0  0  0  0  0  0  0  0  0  0
   59.2360   32.1340   45.6490 C   0  0  0  0  0  0  0  0  0  0  0  0
   59.7820   28.7170   46.6730 N   0  0  0  0  0  0  0  0  0  0  0  0
   62.4411   31.7123   48.7742 H   0  0  0  0  0  0  0  0  0  0  0  0
   62.7786   30.8740   47.2218 H   0  0  0  0  0  0  0  0  0  0  0  0
   61.9266   32.4554   47.2218 H   0  0  0  0  0  0  0  0  0  0  0  0
   59.2428   32.9752   48.4076 H   0  0  0  0  0  0  0  0  0  0  0  0
   57.6586   33.1465   50.3256 H   0  0  0  0  0  0  0  0  0  0  0  0
   57.4520   31.2657   51.9496 H   0  0  0  0  0  0  0  0  0  0  0  0
   58.8104   29.1990   51.6477 H   0  0  0  0  0  0  0  0  0  0  0  0
   58.4105   25.8198   47.3570 H   0  0  0  0  0  0  0  0  0  0  0  0
   56.8349   27.4270   44.3284 H   0  0  0  0  0  0  0  0  0  0  0  0
   58.0249   26.1158   43.9576 H   0  0  0  0  0  0  0  0  0  0  0  0
   57.2599   24.1428   43.0480 H   0  0  0  0  0  0  0  0  0  0  0  0
   58.4418   23.9305   44.4114 H   0  0  0  0  0  0  0  0  0  0  0  0
   57.8624   21.8401   43.0220 H   0  0  0  0  0  0  0  0  0  0  0  0
   57.7502   21.7183   44.8235 H   0  0  0  0  0  0  0  0  0  0  0  0
   54.3133   21.5963   45.0173 H   0  0  0  0  0  0  0  0  0  0  0  0
   55.9089   21.6222   45.8597 H   0  0  0  0  0  0  0  0  0  0  0  0
   54.4222   23.9466   44.5587 H   0  0  0  0  0  0  0  0  0  0  0  0
   54.9067   23.7321   46.2937 H   0  0  0  0  0  0  0  0  0  0  0  0
   59.8634   29.9860   44.3747 H   0  0  0  0  0  0  0  0  0  0  0  0
   58.9345   28.7293   43.4763 H   0  0  0  0  0  0  0  0  0  0  0  0
   55.9995   32.8108   44.7626 H   0  0  0  0  0  0  0  0  0  0  0  0
   56.6360   35.0391   45.6950 H   0  0  0  0  0  0  0  0  0  0  0  0
   58.9362   35.4067   46.5953 H   0  0  0  0  0  0  0  0  0  0  0  0
   60.6051   33.5483   46.5603 H   0  0  0  0  0  0  0  0  0  0  0  0
   59.9725   31.3170   45.6337 H   0  0  0  0  0  0  0  0  0  0  0  0
   60.3790   29.5600   46.8210 H   0  0  0  0  0  0  0  0  0  0  0  0
  1  2  1  0
  2  3  1  0
  3  4  2  0
  4  5  1  0
  5  6  2  0
  6  7  1  0
  7  8  2  0
  8  9  1  0
  9 10  1  0
 10 11  2  0
 10 12  1  0
 12 13  2  0
 13 14  1  0
 14 15  1  0
 15 16  1  0
 16 17  2  0
 16 18  1  0
 18 19  1  0
 19 20  1  0
 20 21  1  0
 21 22  1  0
 22 23  1  0
 14 24  1  0
 24 25  1  0
 25 26  1  0
 26 27  2  0
 26 28  2  0
 26 29  1  0
 29 30  2  0
 30 31  1  0
 31 32  2  0
 32 33  1  0
 33 34  2  0
 24 35  2  0
  8  3  1  0
 35 12  1  0
 23 18  1  0
 34 29  1  0
  1 36  1  0
  1 37  1  0
  1 38  1  0
  4 39  1  0
  5 40  1  0
  6 41  1  0
  7 42  1  0
 13 43  1  0
 15 44  1  0
 15 45  1  0
 19 46  1  0
 19 47  1  0
 20 48  1  0
 20 49  1  0
 22 50  1  0
 22 51  1  0
 23 52  1  0
 23 53  1  0
 25 54  1  0
 25 55  1  0
 30 56  1  0
 31 57  1  0
 32 58  1  0
 33 59  1  0
 34 60  1  0
 35 61  1  0
M  CHG  2   9  -1  35   1
M  END
>  <UniqueID>  (28) 
25

>  <SMILES>  (28) 
COc1ccccc1[N-]C(=O)c1cn(CC(=O)N2CCOCC2)c(CS(=O)(=O)c2ccccc2)[nH+]1

>  <Energy>  (28) 
98.08393964148607

>  <Genealogy>  (28) 
COc1ccccc1[N-]C(=O)c1cn(CC(=O)N2CCOCC2)c(CS(=O)(=O)c2ccccc2)[nH+]1 (protonated)
COc1ccccc1[N-]C(=O)c1cn(CC(=O)N2CCOCC2)c(CS(=O)(=O)c2ccccc2)[nH+]1 (3D coordinates assigned)
COc1ccccc1[N-]C(=O)c1cn(CC(=O)N2CCOCC2)c(CS(=O)(=O)c2ccccc2)[nH+]1 (nonaromatic ring conformer: 98.08393964148607 kcal/mol)

>  <smiles>  (28) 
COc1ccccc1NC(=O)c1cn(CC(=O)N2CCOCC2)c(CS(=O)(=O)c2ccccc2)n1

>  <score_type>  (28) 
oracle

>  <origin>  (28) 
adg

>  <m_score__min__energy>  (28) 
-11.24

>  <m_primary>  (28) 
energy

$$$$
28:0
     RDKit          3D

 56 59  0  0  0  0  0  0  0  0999 V2000
   56.7440   29.3770   43.0300 C   0  0  0  0  0  0  0  0  0  0  0  0
   57.5410   29.2630   44.1050 C   0  0  0  0  0  0  0  0  0  0  0  0
   57.9330   28.0720   44.7380 C   0  0  0  0  0  0  0  0  0  0  0  0
   57.5010   26.8040   44.5900 C   0  0  0  0  0  0  0  0  0  0  0  0
   57.0990   25.9010   45.6810 C   0  0  0  0  0  0  0  0  0  0  0  0
   57.8420   24.8780   46.1420 N   0  0  0  0  0  0  0  0  0  0  0  0
   57.0190   24.2660   47.0200 C   0  0  0  0  0  0  0  0  0  0  0  0
   57.3660   23.2540   47.6830 O   0  0  0  0  0  0  0  0  0  0  0  0
   55.7890   24.8170   47.1240 N   0  0  0  0  0  0  0  0  0  0  0  0
   55.8540   25.8410   46.2580 C   0  0  0  0  0  0  0  0  0  0  0  0
   54.7950   26.7010   45.9970 O   0  0  0  0  0  0  0  0  0  0  0  0
   58.9100   28.4230   45.6520 C   0  0  0  0  0  0  0  0  0  0  0  0
   59.0290   29.7970   45.6070 C   0  0  0  0  0  0  0  0  0  0  0  0
   59.9630   30.5830   46.4760 C   0  0  0  0  0  0  0  0  0  0  0  0
   58.2030   30.3140   44.6650 N   0  0  0  0  0  0  0  0  0  0  0  0
   58.1060   31.7330   44.2780 C   0  0  0  0  0  0  0  0  0  0  0  0
   57.5260   32.5870   45.4150 C   0  0  0  0  0  0  0  0  0  0  0  0
   57.7610   34.0120   45.1950 N   0  0  0  0  0  0  0  0  0  0  0  0
   58.9550   34.7320   45.5320 C   0  0  0  0  0  0  0  0  0  0  0  0
   59.2670   35.7440   44.8500 O   0  0  0  0  0  0  0  0  0  0  0  0
   59.8500   34.3050   46.6220 C   0  0  0  0  0  0  0  0  0  0  0  0
   61.2310   34.2060   46.3920 C   0  0  0  0  0  0  0  0  0  0  0  0
   62.0860   33.8010   47.4180 C   0  0  0  0  0  0  0  0  0  0  0  0
   61.5730   33.4980   48.6810 C   0  0  0  0  0  0  0  0  0  0  0  0
   60.1950   33.5960   48.9270 C   0  0  0  0  0  0  0  0  0  0  0  0
   59.6470   33.3020   50.2660 C   0  0  0  0  0  0  0  0  0  0  0  0
   59.4920   34.2510   51.0800 O   0  0  0  0  0  0  0  0  0  0  0  0
   59.2720   31.9670   50.6490 N   0  0  0  0  0  0  0  0  0  0  0  0
   58.9790   31.6000   52.0250 C   0  0  0  0  0  0  0  0  0  0  0  0
   58.2580   30.2600   51.9560 C   0  0  0  0  0  0  0  0  0  0  0  0
   58.4980   29.7250   50.5470 C   0  0  0  0  0  0  0  0  0  0  0  0
   58.8990   30.9260   49.7030 C   0  0  0  0  0  0  0  0  0  0  0  0
   59.3410   34.0270   47.9000 C   0  0  0  0  0  0  0  0  0  0  0  0
   56.5079   30.3714   42.6233 H   0  0  0  0  0  0  0  0  0  0  0  0
   56.3273   28.4759   42.5562 H   0  0  0  0  0  0  0  0  0  0  0  0
   57.4438   26.4094   43.5648 H   0  0  0  0  0  0  0  0  0  0  0  0
   59.4833   27.7371   46.2930 H   0  0  0  0  0  0  0  0  0  0  0  0
   59.7314   30.3881   47.5335 H   0  0  0  0  0  0  0  0  0  0  0  0
   60.9999   30.2818   46.2662 H   0  0  0  0  0  0  0  0  0  0  0  0
   59.8433   31.6562   46.2662 H   0  0  0  0  0  0  0  0  0  0  0  0
   59.1106   32.1050   44.0280 H   0  0  0  0  0  0  0  0  0  0  0  0
   57.4336   31.8095   43.4108 H   0  0  0  0  0  0  0  0  0  0  0  0
   56.4421   32.4099   45.4765 H   0  0  0  0  0  0  0  0  0  0  0  0
   58.0267   32.2976   46.3507 H   0  0  0  0  0  0  0  0  0  0  0  0
   61.6406   34.4483   45.4003 H   0  0  0  0  0  0  0  0  0  0  0  0
   63.1670   33.7202   47.2313 H   0  0  0  0  0  0  0  0  0  0  0  0
   62.2520   33.1812   49.4864 H   0  0  0  0  0  0  0  0  0  0  0  0
   59.9106   31.5038   52.6019 H   0  0  0  0  0  0  0  0  0  0  0  0
   58.3645   32.3637   52.5242 H   0  0  0  0  0  0  0  0  0  0  0  0
   58.6693   29.5658   52.7036 H   0  0  0  0  0  0  0  0  0  0  0  0
   57.1841   30.3690   52.1680 H   0  0  0  0  0  0  0  0  0  0  0  0
   59.3047   28.9772   50.5547 H   0  0  0  0  0  0  0  0  0  0  0  0
   57.5999   29.2330   50.1453 H   0  0  0  0  0  0  0  0  0  0  0  0
   59.7519   30.6724   49.0562 H   0  0  0  0  0  0  0  0  0  0  0  0
   58.0795   31.2509   49.0450 H   0  0  0  0  0  0  0  0  0  0  0  0
   58.2657   34.1477   48.0981 H   0  0  0  0  0  0  0  0  0  0  0  0
  1  2  2  0
  2  3  1  0
  3  4  2  3
  4  5  1  0
  5  6  1  0
  6  7  1  0
  7  8  2  0
  7  9  1  0
  9 10  1  0
 10 11  1  0
  3 12  1  0
 12 13  2  0
 13 14  1  0
 13 15  1  0
 15 16  1  0
 16 17  1  0
 17 18  1  0
 18 19  1  0
 19 20  2  0
 19 21  1  0
 21 22  2  0
 22 23  1  0
 23 24  2  0
 24 25  1  0
 25 26  1  0
 26 27  2  0
 26 28  1  0
 28 29  1  0
 29 30  1  0
 30 31  1  0
 31 32  1  0
 25 33  2  0
 15  2  1  0
 33 21  1  0
 10  5  2  0
 32 28  1  0
  1 34  1  0
  1 35  1  0
  4 36  1  0
 12 37  1  0
 14 38  1  0
 14 39  1  0
 14 40  1  0
 16 41  1  0
 16 42  1  0
 17 43  1  0
 17 44  1  0
 22 45  1  0
 23 46  1  0
 24 47  1  0
 29 48  1  0
 29 49  1  0
 30 50  1  0
 30 51  1  0
 31 52  1  0
 31 53  1  0
 32 54  1  0
 32 55  1  0
 33 56  1  0
M  CHG  4   6  -1   9  -1  11  -1  18  -1
M  END
>  <UniqueID>  (29) 
26

>  <SMILES>  (29) 
C=c1c(=Cc2[n-]c(=O)[n-]c2[O-])cc(C)n1CC[N-]C(=O)c1cccc(C(=O)N2CCCC2)c1

>  <Energy>  (29) 
133.7302686370558

>  <Genealogy>  (29) 
C=c1c(=Cc2[n-]c(=O)[n-]c2[O-])cc(C)n1CC[N-]C(=O)c1cccc(C(=O)N2CCCC2)c1 (protonated)
C=c1c(=Cc2[n-]c(=O)[n-]c2[O-])cc(C)n1CC[N-]C(=O)c1cccc(C(=O)N2CCCC2)c1 (3D coordinates assigned)
C=c1c(=Cc2[n-]c(=O)[n-]c2[O-])cc(C)n1CC[N-]C(=O)c1cccc(C(=O)N2CCCC2)c1 (nonaromatic ring conformer: 133.7302686370558 kcal/mol)

>  <smiles>  (29) 
C=c1c(=Cc2[nH]c(=O)[nH]c2O)cc(C)n1CCNC(=O)c1cccc(C(=O)N2CCCC2)c1

>  <score_type>  (29) 
oracle

>  <origin>  (29) 
adg

>  <m_score__min__energy>  (29) 
-19.440000000000001

>  <m_primary>  (29) 
energy

$$$$
29:0
     RDKit          3D

 49 52  0  0  0  0  0  0  0  0999 V2000
   60.2940   27.4250   46.5640 C   0  0  0  0  0  0  0  0  0  0  0  0
   59.4570   28.2100   45.8650 C   0  0  0  0  0  0  0  0  0  0  0  0
   58.2930   27.8000   45.1950 C   0  0  0  0  0  0  0  0  0  0  0  0
   57.8310   26.5700   44.8930 C   0  0  0  0  0  0  0  0  0  0  0  0
   57.2850   25.6000   45.8560 C   0  0  0  0  0  0  0  0  0  0  0  0
   57.9600   24.5320   46.3220 N   0  0  0  0  0  0  0  0  0  0  0  0
   57.0330   23.8700   47.0480 C   0  0  0  0  0  0  0  0  0  0  0  0
   57.2900   22.8030   47.6640 O   0  0  0  0  0  0  0  0  0  0  0  0
   55.8070   24.4340   47.0500 N   0  0  0  0  0  0  0  0  0  0  0  0
   55.9780   25.5220   46.2830 C   0  0  0  0  0  0  0  0  0  0  0  0
   54.9560   26.4190   45.9830 O   0  0  0  0  0  0  0  0  0  0  0  0
   57.6280   28.9550   44.8270 C   0  0  0  0  0  0  0  0  0  0  0  0
   58.4200   30.0140   45.2170 C   0  0  0  0  0  0  0  0  0  0  0  0
   58.1020   31.4530   44.9440 C   0  0  0  0  0  0  0  0  0  0  0  0
   59.5420   29.5690   45.8330 N   0  0  0  0  0  0  0  0  0  0  0  0
   60.5950   30.4330   46.3910 C   0  0  0  0  0  0  0  0  0  0  0  0
   60.1220   31.1320   47.6450 C   0  0  0  0  0  0  0  0  0  0  0  0
   59.5030   30.4110   48.6770 C   0  0  0  0  0  0  0  0  0  0  0  0
   59.0820   31.0600   49.8410 C   0  0  0  0  0  0  0  0  0  0  0  0
   59.2820   32.4430   50.0010 C   0  0  0  0  0  0  0  0  0  0  0  0
   58.8370   33.1330   51.2340 C   0  0  0  0  0  0  0  0  0  0  0  0
   59.1170   34.3500   51.4140 O   0  0  0  0  0  0  0  0  0  0  0  0
   58.0930   32.4210   52.2310 N   0  0  0  0  0  0  0  0  0  0  0  0
   56.6940   32.0450   52.0770 C   0  0  0  0  0  0  0  0  0  0  0  0
   56.4350   30.7350   52.7500 C   0  0  0  0  0  0  0  0  0  0  0  0
   56.5590   29.5420   52.1310 N   0  0  0  0  0  0  0  0  0  0  0  0
   56.2210   28.6610   53.0920 C   0  0  0  0  0  0  0  0  0  0  0  0
   55.9050   29.3450   54.2440 C   0  0  0  0  0  0  0  0  0  0  0  0
   56.0450   30.6230   54.0000 O   0  0  0  0  0  0  0  0  0  0  0  0
   59.9140   33.1590   48.9700 C   0  0  0  0  0  0  0  0  0  0  0  0
   60.3340   32.5100   47.8060 C   0  0  0  0  0  0  0  0  0  0  0  0
   61.1800   27.8604   47.0492 H   0  0  0  0  0  0  0  0  0  0  0  0
   60.0932   26.3470   46.6510 H   0  0  0  0  0  0  0  0  0  0  0  0
   57.8650   26.2653   43.8366 H   0  0  0  0  0  0  0  0  0  0  0  0
   54.0290   26.3130   46.3750 H   0  0  0  0  0  0  0  0  0  0  0  0
   56.6537   29.0171   44.3202 H   0  0  0  0  0  0  0  0  0  0  0  0
   57.9834   31.9895   45.8970 H   0  0  0  0  0  0  0  0  0  0  0  0
   58.9216   31.9066   44.3673 H   0  0  0  0  0  0  0  0  0  0  0  0
   57.1676   31.5190   44.3673 H   0  0  0  0  0  0  0  0  0  0  0  0
   61.4734   29.8169   46.6334 H   0  0  0  0  0  0  0  0  0  0  0  0
   60.8513   31.1970   45.6423 H   0  0  0  0  0  0  0  0  0  0  0  0
   59.3479   29.3273   48.5693 H   0  0  0  0  0  0  0  0  0  0  0  0
   58.5900   30.4843   50.6388 H   0  0  0  0  0  0  0  0  0  0  0  0
   56.0575   32.8189   52.5308 H   0  0  0  0  0  0  0  0  0  0  0  0
   56.4633   31.9503   51.0056 H   0  0  0  0  0  0  0  0  0  0  0  0
   56.2007   27.5674   52.9748 H   0  0  0  0  0  0  0  0  0  0  0  0
   55.5911   28.8975   55.1986 H   0  0  0  0  0  0  0  0  0  0  0  0
   60.0797   34.2408   49.0804 H   0  0  0  0  0  0  0  0  0  0  0  0
   60.8339   33.0827   47.0109 H   0  0  0  0  0  0  0  0  0  0  0  0
  1  2  2  0
  2  3  1  0
  3  4  2  3
  4  5  1  0
  5  6  1  0
  6  7  1  0
  7  8  2  0
  7  9  1  0
  9 10  1  0
 10 11  1  0
  3 12  1  0
 12 13  2  0
 13 14  1  0
 13 15  1  0
 15 16  1  0
 16 17  1  0
 17 18  2  0
 18 19  1  0
 19 20  2  0
 20 21  1  0
 21 22  2  0
 21 23  1  0
 23 24  1  0
 24 25  1  0
 25 26  2  0
 26 27  1  0
 27 28  2  0
 28 29  1  0
 20 30  1  0
 30 31  2  0
 15  2  1  0
 31 17  1  0
 10  5  2  0
 29 25  1  0
  1 32  1  0
  1 33  1  0
  4 34  1  0
 11 35  1  0
 12 36  1  0
 14 37  1  0
 14 38  1  0
 14 39  1  0
 16 40  1  0
 16 41  1  0
 18 42  1  0
 19 43  1  0
 24 44  1  0
 24 45  1  0
 27 46  1  0
 28 47  1  0
 30 48  1  0
 31 49  1  0
M  CHG  3   6  -1   9  -1  23  -1
M  END
>  <UniqueID>  (30) 
27

>  <SMILES>  (30) 
C=c1c(=Cc2[n-]c(=O)[n-]c2O)cc(C)n1Cc1ccc(C(=O)[N-]Cc2ncco2)cc1

>  <Energy>  (30) 
147.97591704661755

>  <Genealogy>  (30) 
C=c1c(=Cc2[n-]c(=O)[n-]c2O)cc(C)n1Cc1ccc(C(=O)[N-]Cc2ncco2)cc1 (protonated)
C=c1c(=Cc2[n-]c(=O)[n-]c2O)cc(C)n1Cc1ccc(C(=O)[N-]Cc2ncco2)cc1 (3D coordinates assigned)
C=c1c(=Cc2[n-]c(=O)[n-]c2O)cc(C)n1Cc1ccc(C(=O)[N-]Cc2ncco2)cc1 (optimized conformer: 147.97591704661755 kcal/mol)

>  <smiles>  (30) 
C=c1c(=Cc2[nH]c(=O)[nH]c2O)cc(C)n1Cc1ccc(C(=O)NCc2ncco2)cc1

>  <score_type>  (30) 
oracle

>  <origin>  (30) 
adg

>  <m_score__min__energy>  (30) 
-13.81

>  <m_primary>  (30) 
energy

$$$$
30:0
     RDKit          3D

 70 74  0  0  1  0  0  0  0  0999 V2000
   56.9680   19.5730   46.1080 C   0  0  0  0  0  0  0  0  0  0  0  0
   55.9190   20.3850   45.5740 N   0  0  0  0  0  0  0  0  0  0  0  0
   55.3230   21.2080   46.5750 C   0  0  0  0  0  0  0  0  0  0  0  0
   55.1610   22.6500   46.2190 C   0  0  0  0  0  0  0  0  0  0  0  0
   56.1870   23.1890   45.3760 N   0  0  0  0  0  0  0  0  0  0  0  0
   56.3230   24.6020   45.3110 C   0  0  0  0  0  0  0  0  0  0  0  0
   55.5630   25.3520   45.9830 O   0  0  0  0  0  0  0  0  0  0  0  0
   57.3710   25.2570   44.4460 C   0  0  0  0  0  0  0  0  0  0  0  0
   58.5460   25.5130   45.2230 N   0  0  0  0  0  0  0  0  0  0  0  0
   58.7390   26.5100   45.9830 C   0  0  0  0  0  0  0  0  0  0  0  0
   59.7510   27.3840   45.6880 C   0  0  0  0  0  0  0  0  0  0  0  0
   59.9410   28.4540   46.5250 C   0  0  0  0  0  0  0  0  0  0  0  0
   59.1390   28.6690   47.6520 C   0  0  0  0  0  0  0  0  0  0  0  0
   59.3500   29.8030   48.5220 C   0  0  0  0  0  0  0  0  0  0  0  0
   59.1210   29.6510   49.8360 N   0  0  0  0  0  0  0  0  0  0  0  0
   59.2790   30.6210   50.7540 C   0  0  0  0  0  0  0  0  0  0  0  0
   59.7030   31.8660   50.3390 C   0  0  0  0  0  0  0  0  0  0  0  0
   59.9060   32.9860   51.2520 C   0  0  0  0  0  0  0  0  0  0  0  0
   59.3240   34.2400   50.8650 N   0  0  0  0  0  0  0  0  0  0  0  0
   60.5510   32.8900   52.3280 O   0  0  0  0  0  0  0  0  0  0  0  0
   59.9380   32.0140   48.9750 C   0  0  0  0  0  0  0  0  0  0  0  0
   60.3330   33.1810   48.5970 N   0  0  0  0  0  0  0  0  0  0  0  0
   59.8940   33.7540   47.3710 C   0  0  0  0  0  0  0  0  0  0  0  0
   60.1020   35.0820   47.0420 C   0  0  0  0  0  0  0  0  0  0  0  0
   59.6580   35.5980   45.8330 C   0  0  0  0  0  0  0  0  0  0  0  0
   59.0020   34.7980   44.9390 C   0  0  0  0  0  0  0  0  0  0  0  0
   58.7780   33.4790   45.2310 C   0  0  0  0  0  0  0  0  0  0  0  0
   58.0890   32.5550   44.3360 C   0  0  0  0  0  0  0  0  0  0  0  0
   57.5110   32.9580   43.2700 O   0  0  0  0  0  0  0  0  0  0  0  0
   58.0090   31.1540   44.5770 N   0  0  0  0  0  0  0  0  0  0  0  0
   57.3250   30.2530   43.6810 C   0  0  0  0  0  0  0  0  0  0  0  0
   55.8720   30.0140   43.7840 C   0  0  0  0  0  0  0  0  0  0  0  0
   56.8520   28.9760   44.2800 C   0  0  0  0  0  0  0  0  0  0  0  0
   59.2270   32.9860   46.4360 C   0  0  0  0  0  0  0  0  0  0  0  0
   59.7640   31.0130   48.1120 N   0  0  0  0  0  0  0  0  0  0  0  0
   58.1420   27.7260   47.8610 C   0  0  0  0  0  0  0  0  0  0  0  0
   57.9510   26.6750   47.0450 N   0  0  0  0  0  0  0  0  0  0  0  0
   57.0600   22.3290   44.6170 C   0  0  0  0  0  0  0  0  0  0  0  0
   56.2910   21.0510   44.3630 C   0  0  0  0  0  0  0  0  0  0  0  0
   56.9307   19.6019   47.2070 H   0  0  0  0  0  0  0  0  0  0  0  0
   56.8403   18.5360   45.7639 H   0  0  0  0  0  0  0  0  0  0  0  0
   57.9399   19.9565   45.7639 H   0  0  0  0  0  0  0  0  0  0  0  0
   54.3255   20.8009   46.7968 H   0  0  0  0  0  0  0  0  0  0  0  0
   56.0148   21.1871   47.4300 H   0  0  0  0  0  0  0  0  0  0  0  0
   54.1981   22.7664   45.7001 H   0  0  0  0  0  0  0  0  0  0  0  0
   55.2198   23.2068   47.1658 H   0  0  0  0  0  0  0  0  0  0  0  0
   57.6241   24.5894   43.6092 H   0  0  0  0  0  0  0  0  0  0  0  0
   56.9787   26.2071   44.0544 H   0  0  0  0  0  0  0  0  0  0  0  0
   60.3919   27.2327   44.8069 H   0  0  0  0  0  0  0  0  0  0  0  0
   60.7496   29.1661   46.3035 H   0  0  0  0  0  0  0  0  0  0  0  0
   59.0737   30.4249   51.8167 H   0  0  0  0  0  0  0  0  0  0  0  0
   59.6070   34.6880   49.9620 H   0  0  0  0  0  0  0  0  0  0  0  0
   58.6120   34.6880   51.5170 H   0  0  0  0  0  0  0  0  0  0  0  0
   60.6278   35.7391   47.7504 H   0  0  0  0  0  0  0  0  0  0  0  0
   59.8347   36.6567   45.5923 H   0  0  0  0  0  0  0  0  0  0  0  0
   58.6533   35.2150   43.9827 H   0  0  0  0  0  0  0  0  0  0  0  0
   58.4600   30.7570   45.4300 H   0  0  0  0  0  0  0  0  0  0  0  0
   57.9632   30.5581   42.8386 H   0  0  0  0  0  0  0  0  0  0  0  0
   55.2687   30.5893   44.5017 H   0  0  0  0  0  0  0  0  0  0  0  0
   55.0297   30.0155   43.0765 H   0  0  0  0  0  0  0  0  0  0  0  0
   56.9672   28.7954   45.3589 H   0  0  0  0  0  0  0  0  0  0  0  0
   57.0268   27.9073   44.0865 H   0  0  0  0  0  0  0  0  0  0  0  0
   59.0452   31.9258   46.6660 H   0  0  0  0  0  0  0  0  0  0  0  0
   59.9510   31.1690   47.1080 H   0  0  0  0  0  0  0  0  0  0  0  0
   57.4800   27.8438   48.7315 H   0  0  0  0  0  0  0  0  0  0  0  0
   57.1890   25.9930   47.2450 H   0  0  0  0  0  0  0  0  0  0  0  0
   57.3285   22.8067   43.6632 H   0  0  0  0  0  0  0  0  0  0  0  0
   57.9939   22.1291   45.1629 H   0  0  0  0  0  0  0  0  0  0  0  0
   55.3781   21.2947   43.7997 H   0  0  0  0  0  0  0  0  0  0  0  0
   56.9469   20.3733   43.7969 H   0  0  0  0  0  0  0  0  0  0  0  0
  1  2  1  0
  2  3  1  0
  3  4  1  0
  4  5  1  0
  5  6  1  0
  6  7  2  0
  6  8  1  0
  8  9  1  0
  9 10  2  0
 10 11  1  0
 11 12  2  0
 12 13  1  0
 13 14  1  0
 14 15  2  0
 15 16  1  0
 16 17  2  0
 17 18  1  0
 18 19  1  0
 18 20  2  0
 17 21  1  0
 21 22  2  0
 22 23  1  0
 23 24  2  0
 24 25  1  0
 25 26  2  0
 26 27  1  0
 27 28  1  0
 28 29  2  0
 28 30  1  0
 30 31  1  0
 31 32  1  0
 32 33  1  0
 27 34  2  0
 21 35  1  0
 13 36  2  0
 36 37  1  0
  5 38  1  0
 38 39  1  0
 39  2  1  0
 37 10  1  0
 35 14  1  0
 34 23  1  0
 33 31  1  0
  1 40  1  0
  1 41  1  0
  1 42  1  0
  3 43  1  0
  3 44  1  0
  4 45  1  0
  4 46  1  0
  8 47  1  0
  8 48  1  0
 11 49  1  0
 12 50  1  0
 16 51  1  0
 19 52  1  0
 19 53  1  0
 24 54  1  0
 25 55  1  0
 26 56  1  0
 30 57  1  0
 31 58  1  0
 32 59  1  0
 32 60  1  0
 33 61  1  0
 33 62  1  0
 34 63  1  0
 35 64  1  0
 36 65  1  0
 37 66  1  0
 38 67  1  0
 38 68  1  0
 39 69  1  0
 39 70  1  0
M  END
>  <smiles>  (31) 
CN1CCN(C(=O)CN=c2ccc(-c3ncc(C(N)=O)c(=Nc4cccc(C(=O)NC5CC5)c4)[nH]3)c[nH]2)CC1

>  <score_type>  (31) 
oracle

>  <origin>  (31) 
adg

>  <m_score__min__energy>  (31) 
-9.7899999999999991

>  <m_primary>  (31) 
energy

$$$$
31:0
     RDKit          3D

 73 76  0  0  0  0  0  0  0  0999 V2000
   59.1130   22.9830   45.6190 O   0  0  0  0  0  0  0  0  0  0  0  0
   57.8680   23.0500   45.4230 C   0  0  0  0  0  0  0  0  0  0  0  0
   57.3410   23.7010   44.1810 C   0  0  0  0  0  0  0  0  0  0  0  0
   57.6150   25.1860   44.1680 C   0  0  0  0  0  0  0  0  0  0  0  0
   57.7720   25.8790   42.9560 C   0  0  0  0  0  0  0  0  0  0  0  0
   58.0760   27.2430   42.9540 C   0  0  0  0  0  0  0  0  0  0  0  0
   58.2320   27.9410   44.1610 C   0  0  0  0  0  0  0  0  0  0  0  0
   58.5830   29.3370   44.1300 N   0  0  0  0  0  0  0  0  0  0  0  0
   57.8200   30.3760   44.7690 C   0  0  0  0  0  0  0  0  0  0  0  0
   56.6780   30.1290   45.2460 O   0  0  0  0  0  0  0  0  0  0  0  0
   58.3720   31.7780   44.8570 C   0  0  1  0  0  0  0  0  0  0  0  0
   57.4510   32.8040   44.1370 C   0  0  0  0  0  0  0  0  0  0  0  0
   57.0710   34.0050   45.0140 C   0  0  0  0  0  0  0  0  0  0  0  0
   58.3040   34.5880   45.7090 C   0  0  0  0  0  0  0  0  0  0  0  0
   59.0710   33.5530   46.4230 N   0  0  0  0  0  0  0  0  0  0  0  0
   60.1770   33.9270   47.2750 C   0  0  0  0  0  0  0  0  0  0  0  0
   59.9840   34.7250   48.2340 O   0  0  0  0  0  0  0  0  0  0  0  0
   61.5730   33.4150   47.0040 C   0  0  0  0  0  0  0  0  0  0  0  0
   62.0670   32.4230   48.0670 C   0  0  0  0  0  0  0  0  0  0  0  0
   61.2770   31.1430   47.9970 C   0  0  0  0  0  0  0  0  0  0  0  0
   60.5290   30.7100   49.1070 C   0  0  0  0  0  0  0  0  0  0  0  0
   59.7520   29.5510   49.0270 C   0  0  0  0  0  0  0  0  0  0  0  0
   59.7060   28.8200   47.8370 C   0  0  0  0  0  0  0  0  0  0  0  0
   60.4380   29.2480   46.7240 C   0  0  0  0  0  0  0  0  0  0  0  0
   61.2160   30.4070   46.8000 C   0  0  0  0  0  0  0  0  0  0  0  0
   58.6520   32.1460   46.3260 C   0  0  0  0  0  0  0  0  0  0  0  0
   58.1170   27.2390   45.3740 C   0  0  0  0  0  0  0  0  0  0  0  0
   57.8050   25.8750   45.3760 C   0  0  0  0  0  0  0  0  0  0  0  0
   56.9530   22.4950   46.3720 N   0  0  0  0  0  0  0  0  0  0  0  0
   56.1830   23.2900   47.3180 C   0  0  0  0  0  0  0  0  0  0  0  0
   55.0920   24.0400   46.6030 C   0  0  0  0  0  0  0  0  0  0  0  0
   55.2700   25.2680   46.3750 O   0  0  0  0  0  0  0  0  0  0  0  0
   53.8640   23.3990   46.1770 N   0  0  0  0  0  0  0  0  0  0  0  0
   53.6480   21.9580   46.3920 C   0  0  0  0  0  0  0  0  0  0  0  0
   52.1550   21.6230   46.3550 C   0  0  0  0  0  0  0  0  0  0  0  0
   51.5530   22.1450   45.1880 O   0  0  0  0  0  0  0  0  0  0  0  0
   51.5780   23.5560   45.2410 C   0  0  0  0  0  0  0  0  0  0  0  0
   53.0180   24.0840   45.1900 C   0  0  0  0  0  0  0  0  0  0  0  0
   57.8239   23.2419   43.3058 H   0  0  0  0  0  0  0  0  0  0  0  0
   56.2513   23.5536   44.1532 H   0  0  0  0  0  0  0  0  0  0  0  0
   57.6548   25.3442   42.0019 H   0  0  0  0  0  0  0  0  0  0  0  0
   58.1940   27.7740   41.9979 H   0  0  0  0  0  0  0  0  0  0  0  0
   59.3990   29.6220   43.5420 H   0  0  0  0  0  0  0  0  0  0  0  0
   59.3322   31.8155   44.3217 H   0  0  0  0  0  0  0  0  0  0  0  0
   57.9752   33.1764   43.2445 H   0  0  0  0  0  0  0  0  0  0  0  0
   56.5178   32.2797   43.8837 H   0  0  0  0  0  0  0  0  0  0  0  0
   56.6132   34.7809   44.3828 H   0  0  0  0  0  0  0  0  0  0  0  0
   56.3617   33.6667   45.7837 H   0  0  0  0  0  0  0  0  0  0  0  0
   58.9527   35.0530   44.9520 H   0  0  0  0  0  0  0  0  0  0  0  0
   57.9620   35.3292   46.4463 H   0  0  0  0  0  0  0  0  0  0  0  0
   61.5776   32.9115   46.0260 H   0  0  0  0  0  0  0  0  0  0  0  0
   62.2501   34.2817   47.0239 H   0  0  0  0  0  0  0  0  0  0  0  0
   63.1303   32.2029   47.8912 H   0  0  0  0  0  0  0  0  0  0  0  0
   61.9337   32.8709   49.0628 H   0  0  0  0  0  0  0  0  0  0  0  0
   60.5558   31.2869   50.0432 H   0  0  0  0  0  0  0  0  0  0  0  0
   59.1762   29.2140   49.9016 H   0  0  0  0  0  0  0  0  0  0  0  0
   59.0942   27.9079   47.7752 H   0  0  0  0  0  0  0  0  0  0  0  0
   60.4012   28.6717   45.7878 H   0  0  0  0  0  0  0  0  0  0  0  0
   61.7829   30.7448   45.9199 H   0  0  0  0  0  0  0  0  0  0  0  0
   59.4521   31.5002   46.7168 H   0  0  0  0  0  0  0  0  0  0  0  0
   57.7341   32.0020   46.9148 H   0  0  0  0  0  0  0  0  0  0  0  0
   58.2733   27.7654   46.3271 H   0  0  0  0  0  0  0  0  0  0  0  0
   57.7079   25.3386   46.3315 H   0  0  0  0  0  0  0  0  0  0  0  0
   55.7334   22.6246   48.0698 H   0  0  0  0  0  0  0  0  0  0  0  0
   56.8529   24.0126   47.8069 H   0  0  0  0  0  0  0  0  0  0  0  0
   54.1643   21.3936   45.6015 H   0  0  0  0  0  0  0  0  0  0  0  0
   54.0474   21.6842   47.3797 H   0  0  0  0  0  0  0  0  0  0  0  0
   52.0301   20.5302   46.3674 H   0  0  0  0  0  0  0  0  0  0  0  0
   51.6704   22.0735   47.2338 H   0  0  0  0  0  0  0  0  0  0  0  0
   51.0172   23.9579   44.3843 H   0  0  0  0  0  0  0  0  0  0  0  0
   51.1202   23.8788   46.1877 H   0  0  0  0  0  0  0  0  0  0  0  0
   53.4285   23.9134   44.1838 H   0  0  0  0  0  0  0  0  0  0  0  0
   53.0062   25.1589   45.4235 H   0  0  0  0  0  0  0  0  0  0  0  0
  1  2  2  0
  2  3  1  0
  3  4  1  0
  4  5  2  0
  5  6  1  0
  6  7  2  0
  7  8  1  0
  8  9  1  0
  9 10  2  0
  9 11  1  0
 11 12  1  0
 12 13  1  0
 13 14  1  0
 14 15  1  0
 15 16  1  0
 16 17  2  0
 16 18  1  0
 18 19  1  0
 19 20  1  0
 20 21  2  0
 21 22  1  0
 22 23  2  0
 23 24  1  0
 24 25  2  0
 15 26  1  0
  7 27  1  0
 27 28  2  0
  2 29  1  0
 29 30  1  0
 30 31  1  0
 31 32  2  0
 31 33  1  0
 33 34  1  0
 34 35  1  0
 35 36  1  0
 36 37  1  0
 37 38  1  0
 28  4  1  0
 38 33  1  0
 26 11  1  0
 25 20  1  0
  3 39  1  0
  3 40  1  0
  5 41  1  0
  6 42  1  0
  8 43  1  0
 11 44  1  6
 12 45  1  0
 12 46  1  0
 13 47  1  0
 13 48  1  0
 14 49  1  0
 14 50  1  0
 18 51  1  0
 18 52  1  0
 19 53  1  0
 19 54  1  0
 21 55  1  0
 22 56  1  0
 23 57  1  0
 24 58  1  0
 25 59  1  0
 26 60  1  0
 26 61  1  0
 27 62  1  0
 28 63  1  0
 30 64  1  0
 30 65  1  0
 34 66  1  0
 34 67  1  0
 35 68  1  0
 35 69  1  0
 37 70  1  0
 37 71  1  0
 38 72  1  0
 38 73  1  0
M  CHG  1  29  -1
M  END
>  <UniqueID>  (32) 
28

>  <SMILES>  (32) 
O=C(Cc1ccc(NC(=O)[C@H]2CCCN(C(=O)CCc3ccccc3)C2)cc1)[N-]CC(=O)N1CCOCC1

>  <Energy>  (32) 
76.23811092232224

>  <Genealogy>  (32) 
O=C(Cc1ccc(NC(=O)C2CCCN(C(=O)CCc3ccccc3)C2)cc1)[N-]CC(=O)N1CCOCC1 (protonated)
O=C(Cc1ccc(NC(=O)[C@H]2CCCN(C(=O)CCc3ccccc3)C2)cc1)[N-]CC(=O)N1CCOCC1 (chirality)
O=C(Cc1ccc(NC(=O)[C@H]2CCCN(C(=O)CCc3ccccc3)C2)cc1)[N-]CC(=O)N1CCOCC1 (3D coordinates assigned)
O=C(Cc1ccc(NC(=O)[C@H]2CCCN(C(=O)CCc3ccccc3)C2)cc1)[N-]CC(=O)N1CCOCC1 (nonaromatic ring conformer: 76.23811092232224 kcal/mol)

>  <smiles>  (32) 
O=C(Cc1ccc(NC(=O)C2CCCN(C(=O)CCc3ccccc3)C2)cc1)NCC(=O)N1CCOCC1

>  <score_type>  (32) 
oracle

>  <origin>  (32) 
adg

>  <m_score__min__energy>  (32) 
-12.31

>  <m_primary>  (32) 
energy

$$$$
32:0
     RDKit          3D

 74 78  0  0  0  0  0  0  0  0999 V2000
   53.3503   22.7148   48.6943 H   0  0  0  0  0  0  0  0  0  0  0  0
   54.3950   22.6110   48.3660 C   0  0  0  0  0  0  0  0  0  0  0  0
   55.3420   22.1820   49.2370 N   0  0  0  0  0  0  0  0  0  0  0  0
   56.6430   22.0450   48.8540 C   0  0  0  0  0  0  0  0  0  0  0  0
   57.5590   21.6490   49.6920 N   0  0  0  0  0  0  0  0  0  0  0  0
   57.7750   22.1260   51.0650 C   0  0  1  0  0  0  0  0  0  0  0  0
   57.8354   23.2242   51.0498 H   0  0  0  0  0  0  0  0  0  0  0  0
   56.5810   21.7790   51.9740 C   0  0  0  0  0  0  0  0  0  0  0  0
   56.8845   21.8672   53.0276 H   0  0  0  0  0  0  0  0  0  0  0  0
   55.7522   22.4734   51.7718 H   0  0  0  0  0  0  0  0  0  0  0  0
   56.2535   20.7485   51.7718 H   0  0  0  0  0  0  0  0  0  0  0  0
   59.1260   21.6140   51.6160 C   0  0  0  0  0  0  0  0  0  0  0  0
   58.9363   21.0072   52.5136 H   0  0  0  0  0  0  0  0  0  0  0  0
   59.6104   21.0186   50.8281 H   0  0  0  0  0  0  0  0  0  0  0  0
   60.0540   22.7470   51.9810 C   0  0  0  0  0  0  0  0  0  0  0  0
   61.4040   22.4890   52.2820 C   0  0  0  0  0  0  0  0  0  0  0  0
   61.7837   21.4568   52.2600 H   0  0  0  0  0  0  0  0  0  0  0  0
   62.2640   23.5420   52.6090 C   0  0  0  0  0  0  0  0  0  0  0  0
   63.3191   23.3375   52.8436 H   0  0  0  0  0  0  0  0  0  0  0  0
   61.7830   24.8560   52.6380 C   0  0  0  0  0  0  0  0  0  0  0  0
   62.4594   25.6825   52.9014 H   0  0  0  0  0  0  0  0  0  0  0  0
   60.4450   25.1200   52.3330 C   0  0  0  0  0  0  0  0  0  0  0  0
   60.0696   26.1537   52.3551 H   0  0  0  0  0  0  0  0  0  0  0  0
   59.5840   24.0710   52.0000 C   0  0  0  0  0  0  0  0  0  0  0  0
   58.5335   24.2827   51.7516 H   0  0  0  0  0  0  0  0  0  0  0  0
   56.9990   22.3300   47.5740 N   0  0  0  0  0  0  0  0  0  0  0  0
   56.0860   22.7670   46.6650 C   0  0  0  0  0  0  0  0  0  0  0  0
   56.4980   23.0440   45.3160 N   0  0  0  0  0  0  0  0  0  0  0  0
   56.2630   24.3770   44.7390 C   0  0  0  0  0  0  0  0  0  0  0  0
   56.5228   24.3571   43.6703 H   0  0  0  0  0  0  0  0  0  0  0  0
   55.2021   24.6346   44.8733 H   0  0  0  0  0  0  0  0  0  0  0  0
   57.1020   25.4220   45.4310 C   0  0  0  0  0  0  0  0  0  0  0  0
   58.4960   25.2750   45.4930 C   0  0  0  0  0  0  0  0  0  0  0  0
   58.9779   24.4231   44.9910 H   0  0  0  0  0  0  0  0  0  0  0  0
   59.2770   26.2030   46.1880 C   0  0  0  0  0  0  0  0  0  0  0  0
   60.3707   26.0881   46.2134 H   0  0  0  0  0  0  0  0  0  0  0  0
   58.6710   27.2830   46.8550 C   0  0  0  0  0  0  0  0  0  0  0  0
   59.4460   28.2310   47.6100 N   0  0  0  0  0  0  0  0  0  0  0  0
   59.7510   27.9660   48.5740 H   0  0  0  0  0  0  0  0  0  0  0  0
   59.9720   29.4530   47.0620 C   0  0  0  0  0  0  0  0  0  0  0  0
   59.9820   29.6490   45.8160 O   0  0  0  0  0  0  0  0  0  0  0  0
   60.5730   30.4810   47.9720 C   0  0  0  0  0  0  0  0  0  0  0  0
   59.9391   30.5910   48.8643 H   0  0  0  0  0  0  0  0  0  0  0  0
   61.5817   30.1543   48.2649 H   0  0  0  0  0  0  0  0  0  0  0  0
   60.6700   31.7710   47.2860 N   0  0  0  0  0  0  0  0  0  0  0  0
   59.6180   32.4990   46.6670 C   0  0  0  0  0  0  0  0  0  0  0  0
   58.2760   32.1230   46.5290 C   0  0  0  0  0  0  0  0  0  0  0  0
   57.9169   31.1618   46.9254 H   0  0  0  0  0  0  0  0  0  0  0  0
   57.3990   33.0030   45.8720 C   0  0  0  0  0  0  0  0  0  0  0  0
   56.3396   32.7321   45.7524 H   0  0  0  0  0  0  0  0  0  0  0  0
   57.8700   34.2300   45.3660 C   0  0  0  0  0  0  0  0  0  0  0  0
   57.1768   34.9163   44.8576 H   0  0  0  0  0  0  0  0  0  0  0  0
   59.2220   34.5790   45.5090 C   0  0  0  0  0  0  0  0  0  0  0  0
   59.6020   35.5310   45.1100 H   0  0  0  0  0  0  0  0  0  0  0  0
   60.0740   33.6910   46.1690 C   0  0  0  0  0  0  0  0  0  0  0  0
   61.5340   33.8450   46.4230 C   0  0  0  0  0  0  0  0  0  0  0  0
   61.7336   34.7280   47.0478 H   0  0  0  0  0  0  0  0  0  0  0  0
   62.1163   33.9940   45.5017 H   0  0  0  0  0  0  0  0  0  0  0  0
   61.9090   32.5420   47.1700 C   0  0  0  0  0  0  0  0  0  0  0  0
   62.3086   32.7753   48.1680 H   0  0  0  0  0  0  0  0  0  0  0  0
   62.6847   31.9783   46.6311 H   0  0  0  0  0  0  0  0  0  0  0  0
   57.2820   27.4520   46.7580 C   0  0  0  0  0  0  0  0  0  0  0  0
   56.8038   28.3176   47.2397 H   0  0  0  0  0  0  0  0  0  0  0  0
   56.4990   26.5310   46.0550 C   0  0  0  0  0  0  0  0  0  0  0  0
   55.1220   26.7140   45.9900 O   0  0  0  0  0  0  0  0  0  0  0  0
   56.8860   21.9150   44.4590 C   0  0  0  0  0  0  0  0  0  0  0  0
   56.3076   21.0252   44.7484 H   0  0  0  0  0  0  0  0  0  0  0  0
   57.9621   21.7252   44.5858 H   0  0  0  0  0  0  0  0  0  0  0  0
   56.6110   22.2380   42.9940 C   0  0  0  0  0  0  0  0  0  0  0  0
   55.8991   23.0741   42.9303 H   0  0  0  0  0  0  0  0  0  0  0  0
   57.5516   22.5186   42.4976 H   0  0  0  0  0  0  0  0  0  0  0  0
   56.1839   21.3542   42.4976 H   0  0  0  0  0  0  0  0  0  0  0  0
   54.7490   22.9200   47.0540 C   0  0  0  0  0  0  0  0  0  0  0  0
   53.9937   23.2769   46.3383 H   0  0  0  0  0  0  0  0  0  0  0  0
  1  2  1  0
  2  3  1  0
  3  4  1  0
  4  5  2  0
  5  6  1  0
  6  7  1  6
  6  8  1  0
  8  9  1  0
  8 10  1  0
  8 11  1  0
  6 12  1  0
 12 13  1  0
 12 14  1  0
 12 15  1  0
 15 16  2  0
 16 17  1  0
 16 18  1  0
 18 19  1  0
 18 20  2  0
 20 21  1  0
 20 22  1  0
 22 23  1  0
 22 24  2  0
 24 25  1  0
  4 26  1  0
 26 27  2  0
 27 28  1  0
 28 29  1  0
 29 30  1  0
 29 31  1  0
 29 32  1  0
 32 33  2  0
 33 34  1  0
 33 35  1  0
 35 36  1  0
 35 37  2  0
 37 38  1  0
 38 39  1  0
 38 40  1  0
 40 41  2  0
 40 42  1  0
 42 43  1  0
 42 44  1  0
 42 45  1  0
 45 46  1  0
 46 47  2  0
 47 48  1  0
 47 49  1  0
 49 50  1  0
 49 51  2  0
 51 52  1  0
 51 53  1  0
 53 54  1  0
 53 55  2  0
 55 56  1  0
 56 57  1  0
 56 58  1  0
 56 59  1  0
 59 60  1  0
 59 61  1  0
 37 62  1  0
 62 63  1  0
 62 64  2  0
 64 65  1  0
 28 66  1  0
 66 67  1  0
 66 68  1  0
 66 69  1  0
 69 70  1  0
 69 71  1  0
 69 72  1  0
 27 73  1  0
 73 74  1  0
 73  2  2  0
 24 15  1  0
 64 32  1  0
 59 45  1  0
 55 46  1  0
M  CHG  2   3  -1  65  -1
M  END
>  <UniqueID>  (33) 
29

>  <SMILES>  (33) 
CCN(Cc1ccc(NC(=O)CN2CCc3ccccc32)cc1[O-])c1cc[n-]/c(=N\[C@@H](C)Cc2ccccc2)n1

>  <Energy>  (33) 
95.85932283068354

>  <Genealogy>  (33) 
CCN(Cc1ccc(NC(=O)CN2CCc3ccccc32)cc1[O-])c1cc[n-]c(=NC(C)Cc2ccccc2)n1 (protonated)
CCN(Cc1ccc(NC(=O)CN2CCc3ccccc32)cc1[O-])c1cc[n-]c(=N[C@@H](C)Cc2ccccc2)n1 (chirality)
CCN(Cc1ccc(NC(=O)CN2CCc3ccccc32)cc1[O-])c1cc[n-]/c(=N\[C@@H](C)Cc2ccccc2)n1 (cis-trans isomerization)
CCN(Cc1ccc(NC(=O)CN2CCc3ccccc32)cc1[O-])c1cc[n-]/c(=N\[C@@H](C)Cc2ccccc2)n1 (3D coordinates assigned)
CCN(Cc1ccc(NC(=O)CN2CCc3ccccc32)cc1[O-])c1cc[n-]/c(=N\[C@@H](C)Cc2ccccc2)n1 (nonaromatic ring conformer: 95.85932283068354 kcal/mol)

>  <smiles>  (33) 
CCN(Cc1ccc(NC(=O)CN2CCc3ccccc32)cc1O)c1cc[nH]c(=NC(C)Cc2ccccc2)n1

>  <score_type>  (33) 
oracle

>  <origin>  (33) 
adg

>  <m_score__min__energy>  (33) 
-13.52

>  <m_primary>  (33) 
energy

$$$$
33:0
     RDKit          3D

 41 42  0  0  0  0  0  0  0  0999 V2000
   59.4410   35.4800   47.0770 O   0  0  0  0  0  0  0  0  0  0  0  0
   59.0930   34.3680   46.5940 C   0  0  0  0  0  0  0  0  0  0  0  0
   57.7980   34.2680   45.8400 C   0  0  0  0  0  0  0  0  0  0  0  0
   57.8990   33.3260   44.7230 N   0  0  0  0  0  0  0  0  0  0  0  0
   57.7740   31.6740   45.2640 S   0  0  0  0  0  0  0  0  0  0  0  0
   58.9370   30.8910   44.7190 O   0  0  0  0  0  0  0  0  0  0  0  0
   57.8360   31.6390   46.7670 O   0  0  0  0  0  0  0  0  0  0  0  0
   56.2790   30.9540   44.7440 N   0  0  0  0  0  0  0  0  0  0  0  0
   56.5300   30.0040   43.6650 C   0  0  0  0  0  0  0  0  0  0  0  0
   57.1520   28.7660   44.2400 C   0  0  0  0  0  0  0  0  0  0  0  0
   57.7980   27.8450   43.3980 C   0  0  0  0  0  0  0  0  0  0  0  0
   58.3320   26.6650   43.9240 C   0  0  0  0  0  0  0  0  0  0  0  0
   58.2150   26.3910   45.2900 C   0  0  0  0  0  0  0  0  0  0  0  0
   57.5650   27.2990   46.1320 C   0  0  0  0  0  0  0  0  0  0  0  0
   57.0270   28.4800   45.6100 C   0  0  0  0  0  0  0  0  0  0  0  0
   59.9570   33.2240   46.6920 N   0  0  0  0  0  0  0  0  0  0  0  0
   61.1850   33.2130   47.4350 C   0  0  0  0  0  0  0  0  0  0  0  0
   62.4050   33.1540   46.7490 C   0  0  0  0  0  0  0  0  0  0  0  0
   63.6120   33.1280   47.4540 C   0  0  0  0  0  0  0  0  0  0  0  0
   63.6110   33.1460   48.8510 C   0  0  0  0  0  0  0  0  0  0  0  0
   65.1650   33.1030   49.7520 S   0  0  0  0  0  0  0  0  0  0  0  0
   64.7720   31.5750   50.6670 C   0  0  0  0  0  0  0  0  0  0  0  0
   65.9140   30.8260   50.8720 F   0  0  0  0  0  0  0  0  0  0  0  0
   64.1960   31.8910   51.8810 F   0  0  0  0  0  0  0  0  0  0  0  0
   62.3960   33.1730   49.5450 C   0  0  0  0  0  0  0  0  0  0  0  0
   61.1870   33.2080   48.8440 C   0  0  0  0  0  0  0  0  0  0  0  0
   57.0100   33.9251   46.5267 H   0  0  0  0  0  0  0  0  0  0  0  0
   57.5577   35.2614   45.4333 H   0  0  0  0  0  0  0  0  0  0  0  0
   55.5808   29.7455   43.1728 H   0  0  0  0  0  0  0  0  0  0  0  0
   57.2095   30.4524   42.9253 H   0  0  0  0  0  0  0  0  0  0  0  0
   57.8838   28.0532   42.3213 H   0  0  0  0  0  0  0  0  0  0  0  0
   58.8448   25.9513   43.2624 H   0  0  0  0  0  0  0  0  0  0  0  0
   58.6341   25.4614   45.7024 H   0  0  0  0  0  0  0  0  0  0  0  0
   57.4766   27.0840   47.2072 H   0  0  0  0  0  0  0  0  0  0  0  0
   56.5053   29.1859   46.2730 H   0  0  0  0  0  0  0  0  0  0  0  0
   59.7580   32.4070   46.0730 H   0  0  0  0  0  0  0  0  0  0  0  0
   62.4133   33.1280   45.6493 H   0  0  0  0  0  0  0  0  0  0  0  0
   64.5657   33.0932   46.9069 H   0  0  0  0  0  0  0  0  0  0  0  0
   64.0638   30.9809   50.0708 H   0  0  0  0  0  0  0  0  0  0  0  0
   62.3923   33.1667   50.6450 H   0  0  0  0  0  0  0  0  0  0  0  0
   60.2346   33.2317   49.3939 H   0  0  0  0  0  0  0  0  0  0  0  0
  1  2  2  0
  2  3  1  0
  3  4  1  0
  4  5  1  0
  5  6  2  0
  5  7  2  0
  5  8  1  0
  8  9  1  0
  9 10  1  0
 10 11  2  0
 11 12  1  0
 12 13  2  0
 13 14  1  0
 14 15  2  0
  2 16  1  0
 16 17  1  0
 17 18  2  0
 18 19  1  0
 19 20  2  0
 20 21  1  0
 21 22  1  0
 22 23  1  0
 22 24  1  0
 20 25  1  0
 25 26  2  0
 15 10  1  0
 26 17  1  0
  3 27  1  0
  3 28  1  0
  9 29  1  0
  9 30  1  0
 11 31  1  0
 12 32  1  0
 13 33  1  0
 14 34  1  0
 15 35  1  0
 16 36  1  0
 18 37  1  0
 19 38  1  0
 22 39  1  0
 25 40  1  0
 26 41  1  0
M  CHG  2   4  -1   8  -1
M  END
>  <UniqueID>  (34) 
30

>  <SMILES>  (34) 
O=C(C[N-]S(=O)(=O)[N-]Cc1ccccc1)Nc1ccc(SC(F)F)cc1

>  <Energy>  (34) 
34.671145773987114

>  <Genealogy>  (34) 
O=C(C[N-]S(=O)(=O)[N-]Cc1ccccc1)Nc1ccc(SC(F)F)cc1 (protonated)
O=C(C[N-]S(=O)(=O)[N-]Cc1ccccc1)Nc1ccc(SC(F)F)cc1 (3D coordinates assigned)
O=C(C[N-]S(=O)(=O)[N-]Cc1ccccc1)Nc1ccc(SC(F)F)cc1 (optimized conformer: 34.671145773987114 kcal/mol)

>  <smiles>  (34) 
O=C(CNS(=O)(=O)NCc1ccccc1)Nc1ccc(SC(F)F)cc1

>  <score_type>  (34) 
oracle

>  <origin>  (34) 
adg

>  <m_score__min__energy>  (34) 
-10.77

>  <m_primary>  (34) 
energy

$$$$
34:0
     RDKit          3D

 70 74  0  0  0  0  0  0  0  0999 V2000
   61.0470   27.9240   47.1800 O   0  0  0  0  0  0  0  0  0  0  0  0
   60.5580   28.9530   46.6400 C   0  0  0  0  0  0  0  0  0  0  0  0
   61.4010   30.0920   46.4400 N   0  0  0  0  0  0  0  0  0  0  0  0
   61.4680   31.2260   47.3150 C   0  0  0  0  0  0  0  0  0  0  0  0
   62.4830   32.1680   47.1190 C   0  0  0  0  0  0  0  0  0  0  0  0
   62.5910   33.2760   47.9600 C   0  0  0  0  0  0  0  0  0  0  0  0
   61.6840   33.4520   49.0080 C   0  0  0  0  0  0  0  0  0  0  0  0
   60.6500   32.5250   49.2170 C   0  0  0  0  0  0  0  0  0  0  0  0
   59.7080   32.6860   50.3480 C   0  0  0  0  0  0  0  0  0  0  0  0
   59.6870   33.7740   50.9840 O   0  0  0  0  0  0  0  0  0  0  0  0
   58.8100   31.6300   50.7340 N   0  0  0  0  0  0  0  0  0  0  0  0
   59.2680   30.2440   50.8420 C   0  0  0  0  0  0  0  0  0  0  0  0
   58.5730   29.5780   52.0330 C   0  0  0  0  0  0  0  0  0  0  0  0
   57.1660   29.7260   51.9420 O   0  0  0  0  0  0  0  0  0  0  0  0
   56.8160   31.0940   52.0490 C   0  0  0  0  0  0  0  0  0  0  0  0
   57.3780   31.8980   50.8720 C   0  0  0  0  0  0  0  0  0  0  0  0
   60.5510   31.4060   48.3700 C   0  0  0  0  0  0  0  0  0  0  0  0
   59.1490   28.9530   46.1710 C   0  0  0  0  0  0  0  0  0  0  0  0
   58.6310   30.0670   45.4900 C   0  0  0  0  0  0  0  0  0  0  0  0
   57.2920   30.1030   45.0720 C   0  0  0  0  0  0  0  0  0  0  0  0
   56.7650   31.3320   44.3480 C   0  0  0  0  0  0  0  0  0  0  0  0
   57.2330   32.6280   44.8890 N   0  0  0  0  0  0  0  0  0  0  0  0
   57.4170   32.6790   46.3390 C   0  0  0  0  0  0  0  0  0  0  0  0
   58.2770   33.9040   46.6050 C   0  0  0  0  0  0  0  0  0  0  0  0
   59.0200   34.1610   45.3000 C   0  0  0  0  0  0  0  0  0  0  0  0
   58.4700   33.1470   44.3040 C   0  0  0  0  0  0  0  0  0  0  0  0
   56.4740   28.9750   45.2860 C   0  0  0  0  0  0  0  0  0  0  0  0
   55.1650   28.9680   44.8090 O   0  0  0  0  0  0  0  0  0  0  0  0
   56.9760   27.8530   45.9750 C   0  0  0  0  0  0  0  0  0  0  0  0
   56.1110   26.6240   46.1960 C   0  0  0  0  0  0  0  0  0  0  0  0
   56.6410   25.3710   45.6130 N   0  0  0  0  0  0  0  0  0  0  0  0
   57.3980   25.5050   44.3680 C   0  0  0  0  0  0  0  0  0  0  0  0
   57.4880   24.0980   43.7980 C   0  0  0  0  0  0  0  0  0  0  0  0
   56.3030   23.3470   44.3980 C   0  0  0  0  0  0  0  0  0  0  0  0
   55.6490   24.3250   45.3680 C   0  0  0  0  0  0  0  0  0  0  0  0
   58.3100   27.8520   46.4080 C   0  0  0  0  0  0  0  0  0  0  0  0
   63.2009   32.0345   46.2963 H   0  0  0  0  0  0  0  0  0  0  0  0
   63.3918   34.0124   47.7976 H   0  0  0  0  0  0  0  0  0  0  0  0
   61.7804   34.3223   49.6737 H   0  0  0  0  0  0  0  0  0  0  0  0
   59.0183   29.7006   49.9188 H   0  0  0  0  0  0  0  0  0  0  0  0
   60.3578   30.2243   50.9904 H   0  0  0  0  0  0  0  0  0  0  0  0
   58.8230   28.5068   52.0436 H   0  0  0  0  0  0  0  0  0  0  0  0
   58.9192   30.0612   52.9586 H   0  0  0  0  0  0  0  0  0  0  0  0
   55.7198   31.1854   52.0563 H   0  0  0  0  0  0  0  0  0  0  0  0
   57.2421   31.4930   52.9813 H   0  0  0  0  0  0  0  0  0  0  0  0
   56.8597   31.6043   49.9473 H   0  0  0  0  0  0  0  0  0  0  0  0
   57.2232   32.9715   51.0556 H   0  0  0  0  0  0  0  0  0  0  0  0
   59.7527   30.6668   48.5322 H   0  0  0  0  0  0  0  0  0  0  0  0
   59.2860   30.9256   45.2809 H   0  0  0  0  0  0  0  0  0  0  0  0
   57.0792   31.2685   43.2957 H   0  0  0  0  0  0  0  0  0  0  0  0
   55.6731   31.3210   44.4805 H   0  0  0  0  0  0  0  0  0  0  0  0
   56.4452   32.7761   46.8452 H   0  0  0  0  0  0  0  0  0  0  0  0
   57.8905   31.7618   46.7193 H   0  0  0  0  0  0  0  0  0  0  0  0
   57.6480   34.7674   46.8673 H   0  0  0  0  0  0  0  0  0  0  0  0
   58.9671   33.7471   47.4471 H   0  0  0  0  0  0  0  0  0  0  0  0
   58.8318   35.1857   44.9472 H   0  0  0  0  0  0  0  0  0  0  0  0
   60.1078   34.0569   45.4256 H   0  0  0  0  0  0  0  0  0  0  0  0
   58.2607   33.6343   43.3403 H   0  0  0  0  0  0  0  0  0  0  0  0
   59.1926   32.3397   44.1142 H   0  0  0  0  0  0  0  0  0  0  0  0
   56.0004   26.4754   47.2803 H   0  0  0  0  0  0  0  0  0  0  0  0
   55.1589   26.8226   45.6821 H   0  0  0  0  0  0  0  0  0  0  0  0
   56.8728   26.1712   43.6678 H   0  0  0  0  0  0  0  0  0  0  0  0
   58.3929   25.9421   44.5387 H   0  0  0  0  0  0  0  0  0  0  0  0
   57.4146   24.1209   42.7007 H   0  0  0  0  0  0  0  0  0  0  0  0
   58.4463   23.6161   44.0417 H   0  0  0  0  0  0  0  0  0  0  0  0
   55.5936   23.0555   43.6095 H   0  0  0  0  0  0  0  0  0  0  0  0
   56.6194   22.4222   44.9026 H   0  0  0  0  0  0  0  0  0  0  0  0
   54.7406   24.7562   44.9221 H   0  0  0  0  0  0  0  0  0  0  0  0
   55.3483   23.8272   46.3017 H   0  0  0  0  0  0  0  0  0  0  0  0
   58.7053   26.9751   46.9416 H   0  0  0  0  0  0  0  0  0  0  0  0
  1  2  2  0
  2  3  1  0
  3  4  1  0
  4  5  2  0
  5  6  1  0
  6  7  2  0
  7  8  1  0
  8  9  1  0
  9 10  2  0
  9 11  1  0
 11 12  1  0
 12 13  1  0
 13 14  1  0
 14 15  1  0
 15 16  1  0
  8 17  2  0
  2 18  1  0
 18 19  2  0
 19 20  1  0
 20 21  1  0
 21 22  1  0
 22 23  1  0
 23 24  1  0
 24 25  1  0
 25 26  1  0
 20 27  2  0
 27 28  1  0
 27 29  1  0
 29 30  1  0
 30 31  1  0
 31 32  1  0
 32 33  1  0
 33 34  1  0
 34 35  1  0
 29 36  2  0
 17  4  1  0
 36 18  1  0
 16 11  1  0
 26 22  1  0
 35 31  1  0
  5 37  1  0
  6 38  1  0
  7 39  1  0
 12 40  1  0
 12 41  1  0
 13 42  1  0
 13 43  1  0
 15 44  1  0
 15 45  1  0
 16 46  1  0
 16 47  1  0
 17 48  1  0
 19 49  1  0
 21 50  1  0
 21 51  1  0
 23 52  1  0
 23 53  1  0
 24 54  1  0
 24 55  1  0
 25 56  1  0
 25 57  1  0
 26 58  1  0
 26 59  1  0
 30 60  1  0
 30 61  1  0
 32 62  1  0
 32 63  1  0
 33 64  1  0
 33 65  1  0
 34 66  1  0
 34 67  1  0
 35 68  1  0
 35 69  1  0
 36 70  1  0
M  CHG  2   3  -1  28  -1
M  END
>  <UniqueID>  (35) 
31

>  <SMILES>  (35) 
O=C([N-]c1cccc(C(=O)N2CCOCC2)c1)c1cc(CN2CCCC2)c([O-])c(CN2CCCC2)c1

>  <Energy>  (35) 
103.28482168201343

>  <Genealogy>  (35) 
O=C([N-]c1cccc(C(=O)N2CCOCC2)c1)c1cc(CN2CCCC2)c([O-])c(CN2CCCC2)c1 (protonated)
O=C([N-]c1cccc(C(=O)N2CCOCC2)c1)c1cc(CN2CCCC2)c([O-])c(CN2CCCC2)c1 (3D coordinates assigned)
O=C([N-]c1cccc(C(=O)N2CCOCC2)c1)c1cc(CN2CCCC2)c([O-])c(CN2CCCC2)c1 (nonaromatic ring conformer: 103.28482168201343 kcal/mol)

>  <smiles>  (35) 
O=C(Nc1cccc(C(=O)N2CCOCC2)c1)c1cc(CN2CCCC2)c(O)c(CN2CCCC2)c1

>  <score_type>  (35) 
oracle

>  <origin>  (35) 
adg

>  <m_score__min__energy>  (35) 
-13.91

>  <m_primary>  (35) 
energy

$$$$
35:0
     RDKit          3D

 41 44  0  0  0  0  0  0  0  0999 V2000
   54.5270   25.8180   45.7810 O   0  0  0  0  0  0  0  0  0  0  0  0
   55.4680   25.0080   45.9950 C   0  0  0  0  0  0  0  0  0  0  0  0
   55.1930   23.5360   45.9330 C   0  0  0  0  0  0  0  0  0  0  0  0
   56.2740   22.8370   45.1480 C   0  0  0  0  0  0  0  0  0  0  0  0
   56.0620   22.5410   43.7900 C   0  0  0  0  0  0  0  0  0  0  0  0
   57.0390   21.8660   43.0530 C   0  0  0  0  0  0  0  0  0  0  0  0
   58.2310   21.4730   43.6640 C   0  0  0  0  0  0  0  0  0  0  0  0
   58.4490   21.7520   45.0150 C   0  0  0  0  0  0  0  0  0  0  0  0
   57.4770   22.4280   45.7620 C   0  0  0  0  0  0  0  0  0  0  0  0
   57.7150   22.6890   47.1060 O   0  0  0  0  0  0  0  0  0  0  0  0
   56.7690   25.4820   46.3780 N   0  0  0  0  0  0  0  0  0  0  0  0
   57.1740   26.8600   46.3150 C   0  0  0  0  0  0  0  0  0  0  0  0
   58.1260   27.3390   47.2230 C   0  0  0  0  0  0  0  0  0  0  0  0
   58.5550   28.6690   47.1690 C   0  0  0  0  0  0  0  0  0  0  0  0
   58.0470   29.5410   46.1930 C   0  0  0  0  0  0  0  0  0  0  0  0
   58.5010   30.9480   46.1330 C   0  0  0  0  0  0  0  0  0  0  0  0
   59.5890   31.4030   46.8120 N   0  0  0  0  0  0  0  0  0  0  0  0
   59.6260   32.7000   46.4750 C   0  0  0  0  0  0  0  0  0  0  0  0
   60.5470   33.6630   46.8820 C   0  0  0  0  0  0  0  0  0  0  0  0
   60.3830   34.9720   46.3910 C   0  0  0  0  0  0  0  0  0  0  0  0
   59.3150   35.2800   45.5180 C   0  0  0  0  0  0  0  0  0  0  0  0
   58.4030   34.2800   45.1290 C   0  0  0  0  0  0  0  0  0  0  0  0
   58.5990   32.9960   45.6330 C   0  0  0  0  0  0  0  0  0  0  0  0
   57.8630   31.9000   45.3960 N   0  0  0  0  0  0  0  0  0  0  0  0
   57.1080   29.0540   45.2670 C   0  0  0  0  0  0  0  0  0  0  0  0
   56.6800   27.7240   45.3230 C   0  0  0  0  0  0  0  0  0  0  0  0
   55.1643   23.1284   46.9543 H   0  0  0  0  0  0  0  0  0  0  0  0
   54.2255   23.3722   45.4359 H   0  0  0  0  0  0  0  0  0  0  0  0
   55.1219   22.8424   43.3049 H   0  0  0  0  0  0  0  0  0  0  0  0
   56.8683   21.6440   41.9893 H   0  0  0  0  0  0  0  0  0  0  0  0
   58.9989   20.9433   43.0811 H   0  0  0  0  0  0  0  0  0  0  0  0
   59.3885   21.4392   45.4941 H   0  0  0  0  0  0  0  0  0  0  0  0
   57.4320   24.7970   46.8080 H   0  0  0  0  0  0  0  0  0  0  0  0
   58.5402   26.6632   47.9857 H   0  0  0  0  0  0  0  0  0  0  0  0
   59.2953   29.0343   47.8960 H   0  0  0  0  0  0  0  0  0  0  0  0
   61.3729   33.4094   47.5628 H   0  0  0  0  0  0  0  0  0  0  0  0
   61.0904   35.7601   46.6886 H   0  0  0  0  0  0  0  0  0  0  0  0
   59.1956   36.3062   45.1404 H   0  0  0  0  0  0  0  0  0  0  0  0
   57.5659   34.5046   44.4516 H   0  0  0  0  0  0  0  0  0  0  0  0
   56.7069   29.7243   44.4925 H   0  0  0  0  0  0  0  0  0  0  0  0
   55.9526   27.3520   44.5865 H   0  0  0  0  0  0  0  0  0  0  0  0
  1  2  2  0
  2  3  1  0
  3  4  1  0
  4  5  2  0
  5  6  1  0
  6  7  2  0
  7  8  1  0
  8  9  2  0
  9 10  1  0
  2 11  1  0
 11 12  1  0
 12 13  2  0
 13 14  1  0
 14 15  2  0
 15 16  1  0
 16 17  2  0
 17 18  1  0
 18 19  2  0
 19 20  1  0
 20 21  2  0
 21 22  1  0
 22 23  2  0
 23 24  1  0
 15 25  1  0
 25 26  2  0
  9  4  1  0
 26 12  1  0
 24 16  1  0
 23 18  1  0
  3 27  1  0
  3 28  1  0
  5 29  1  0
  6 30  1  0
  7 31  1  0
  8 32  1  0
 11 33  1  0
 13 34  1  0
 14 35  1  0
 19 36  1  0
 20 37  1  0
 21 38  1  0
 22 39  1  0
 25 40  1  0
 26 41  1  0
M  CHG  2  10  -1  24  -1
M  END
>  <UniqueID>  (36) 
32

>  <SMILES>  (36) 
O=C(Cc1ccccc1[O-])Nc1ccc(-c2nc3ccccc3[n-]2)cc1

>  <Energy>  (36) 
83.49430690322131

>  <Genealogy>  (36) 
O=C(Cc1ccccc1[O-])Nc1ccc(-c2nc3ccccc3[n-]2)cc1 (protonated)
O=C(Cc1ccccc1[O-])Nc1ccc(-c2nc3ccccc3[n-]2)cc1 (3D coordinates assigned)
O=C(Cc1ccccc1[O-])Nc1ccc(-c2nc3ccccc3[n-]2)cc1 (optimized conformer: 83.49430690322131 kcal/mol)

>  <smiles>  (36) 
O=C(Cc1ccccc1O)Nc1ccc(-c2nc3ccccc3[nH]2)cc1

>  <score_type>  (36) 
oracle

>  <origin>  (36) 
adg

>  <m_score__min__energy>  (36) 
-11.32

>  <m_primary>  (36) 
energy

$$$$
36:0
     RDKit          3D

 29 30  0  0  0  0  0  0  0  0999 V2000
   55.5710   25.7950   46.3540 O   0  0  0  0  0  0  0  0  0  0  0  0
   56.7780   26.1040   46.5450 C   0  0  0  0  0  0  0  0  0  0  0  0
   57.7410   25.0770   47.0410 C   0  0  0  0  0  0  0  0  0  0  0  0
   57.2640   23.7180   46.6190 C   0  0  0  0  0  0  0  0  0  0  0  0
   56.8680   23.4800   45.2960 C   0  0  0  0  0  0  0  0  0  0  0  0
   56.5220   22.1780   44.9290 C   0  0  0  0  0  0  0  0  0  0  0  0
   56.1650   21.9280   43.7470 O   0  0  0  0  0  0  0  0  0  0  0  0
   56.5750   21.1780   45.8450 N   0  0  0  0  0  0  0  0  0  0  0  0
   56.9680   21.4230   47.1230 C   0  0  0  0  0  0  0  0  0  0  0  0
   57.0160   20.4830   47.9560 O   0  0  0  0  0  0  0  0  0  0  0  0
   57.3160   22.6810   47.4980 N   0  0  0  0  0  0  0  0  0  0  0  0
   57.2600   27.3990   46.1800 N   0  0  0  0  0  0  0  0  0  0  0  0
   57.7440   27.7060   44.8400 C   0  0  0  0  0  0  0  0  0  0  0  0
   57.5660   29.1780   44.5720 C   0  0  0  0  0  0  0  0  0  0  0  0
   58.6910   30.0010   44.3900 C   0  0  0  0  0  0  0  0  0  0  0  0
   58.5370   31.3810   44.2270 C   0  0  0  0  0  0  0  0  0  0  0  0
   57.2620   31.9510   44.2510 C   0  0  0  0  0  0  0  0  0  0  0  0
   56.1380   31.1430   44.4360 C   0  0  0  0  0  0  0  0  0  0  0  0
   56.2840   29.7620   44.6010 C   0  0  0  0  0  0  0  0  0  0  0  0
   55.1540   28.9770   44.8030 O   0  0  0  0  0  0  0  0  0  0  0  0
   58.7366   25.2678   46.6139 H   0  0  0  0  0  0  0  0  0  0  0  0
   57.8044   25.1252   48.1381 H   0  0  0  0  0  0  0  0  0  0  0  0
   56.8306   24.2999   44.5636 H   0  0  0  0  0  0  0  0  0  0  0  0
   58.8100   27.4451   44.7655 H   0  0  0  0  0  0  0  0  0  0  0  0
   57.1742   27.1249   44.1000 H   0  0  0  0  0  0  0  0  0  0  0  0
   59.6974   29.5571   44.3758 H   0  0  0  0  0  0  0  0  0  0  0  0
   59.4211   32.0187   44.0797 H   0  0  0  0  0  0  0  0  0  0  0  0
   57.1431   33.0372   44.1241 H   0  0  0  0  0  0  0  0  0  0  0  0
   55.1349   31.5942   44.4520 H   0  0  0  0  0  0  0  0  0  0  0  0
  1  2  2  0
  2  3  1  0
  3  4  1  0
  4  5  2  0
  5  6  1  0
  6  7  2  0
  6  8  1  0
  8  9  1  0
  9 10  2  0
  9 11  1  0
  2 12  1  0
 12 13  1  0
 13 14  1  0
 14 15  2  0
 15 16  1  0
 16 17  2  0
 17 18  1  0
 18 19  2  0
 19 20  1  0
 11  4  1  0
 19 14  1  0
  3 21  1  0
  3 22  1  0
  5 23  1  0
 13 24  1  0
 13 25  1  0
 15 26  1  0
 16 27  1  0
 17 28  1  0
 18 29  1  0
M  CHG  4   8  -1  11  -1  12  -1  20  -1
M  END
>  <UniqueID>  (37) 
33

>  <SMILES>  (37) 
O=C(Cc1cc(=O)[n-]c(=O)[n-]1)[N-]Cc1ccccc1[O-]

>  <Energy>  (37) 
25.89050959258692

>  <Genealogy>  (37) 
O=C(Cc1cc(=O)[n-]c(=O)[n-]1)[N-]Cc1ccccc1[O-] (protonated)
O=C(Cc1cc(=O)[n-]c(=O)[n-]1)[N-]Cc1ccccc1[O-] (3D coordinates assigned)
O=C(Cc1cc(=O)[n-]c(=O)[n-]1)[N-]Cc1ccccc1[O-] (optimized conformer: 25.89050959258692 kcal/mol)

>  <smiles>  (37) 
O=C(Cc1cc(=O)[nH]c(=O)[nH]1)NCc1ccccc1O

>  <score_type>  (37) 
oracle

>  <origin>  (37) 
adg

>  <m_score__min__energy>  (37) 
-14.4

>  <m_primary>  (37) 
energy

$$$$
37:0
     RDKit          3D

 44 45  0  0  0  0  0  0  0  0999 V2000
   58.7320   28.0670   43.7730 N   0  0  0  0  0  0  0  0  0  0  0  0
   57.3930   27.8220   44.3200 C   0  0  1  0  0  0  0  0  0  0  0  0
   57.4180   26.6310   45.2900 C   0  0  0  0  0  0  0  0  0  0  0  0
   55.8090   26.3400   45.9780 S   0  0  0  0  0  0  0  0  0  0  0  0
   56.8600   29.0540   45.0100 C   0  0  0  0  0  0  0  0  0  0  0  0
   57.1090   29.2520   46.1870 O   0  0  0  0  0  0  0  0  0  0  0  0
   55.9940   30.0220   44.2670 C   0  0  0  0  0  0  0  0  0  0  0  0
   56.4600   31.3800   44.5130 N   0  0  0  0  0  0  0  0  0  0  0  0
   57.8170   31.7850   44.3010 C   0  0  0  0  0  0  0  0  0  0  0  0
   58.5020   31.2280   43.3980 O   0  0  0  0  0  0  0  0  0  0  0  0
   58.4070   32.8670   45.1280 C   0  0  0  0  0  0  0  0  0  0  0  0
   58.6220   34.1420   44.5590 C   0  0  0  0  0  0  0  0  0  0  0  0
   59.2670   35.1490   45.2860 C   0  0  0  0  0  0  0  0  0  0  0  0
   59.7000   34.9030   46.5850 C   0  0  0  0  0  0  0  0  0  0  0  0
   59.4730   33.6580   47.1690 C   0  0  0  0  0  0  0  0  0  0  0  0
   58.8090   32.6430   46.4620 C   0  0  0  0  0  0  0  0  0  0  0  0
   58.5090   31.4080   47.1280 N   0  0  0  0  0  0  0  0  0  0  0  0
   59.3610   30.9330   48.2210 C   0  0  0  0  0  0  0  0  0  0  0  0
   59.7940   29.5080   47.9590 C   0  0  0  0  0  0  0  0  0  0  0  0
   60.0560   28.6840   49.0720 C   0  0  0  0  0  0  0  0  0  0  0  0
   60.4770   27.3620   48.9020 C   0  0  0  0  0  0  0  0  0  0  0  0
   60.6510   26.8430   47.6170 C   0  0  0  0  0  0  0  0  0  0  0  0
   60.4110   27.6470   46.4980 C   0  0  0  0  0  0  0  0  0  0  0  0
   59.9850   28.9770   46.6530 C   0  0  0  0  0  0  0  0  0  0  0  0
   59.7780   29.7220   45.4910 O   0  0  0  0  0  0  0  0  0  0  0  0
   58.8290   29.0910   43.5670 H   0  0  0  0  0  0  0  0  0  0  0  0
   59.4540   27.8220   44.4870 H   0  0  0  0  0  0  0  0  0  0  0  0
   56.7205   27.5791   43.4841 H   0  0  0  0  0  0  0  0  0  0  0  0
   57.7457   25.7318   44.7477 H   0  0  0  0  0  0  0  0  0  0  0  0
   58.1143   26.8606   46.1101 H   0  0  0  0  0  0  0  0  0  0  0  0
   56.0447   29.8067   43.1895 H   0  0  0  0  0  0  0  0  0  0  0  0
   54.9544   29.9233   44.6127 H   0  0  0  0  0  0  0  0  0  0  0  0
   58.2789   34.3454   43.5339 H   0  0  0  0  0  0  0  0  0  0  0  0
   59.4318   36.1362   44.8297 H   0  0  0  0  0  0  0  0  0  0  0  0
   60.2207   35.6899   47.1504 H   0  0  0  0  0  0  0  0  0  0  0  0
   59.8182   33.4684   48.1961 H   0  0  0  0  0  0  0  0  0  0  0  0
   57.9190   30.6960   46.6120 H   0  0  0  0  0  0  0  0  0  0  0  0
   60.2504   31.5760   48.2951 H   0  0  0  0  0  0  0  0  0  0  0  0
   58.7936   30.9701   49.1627 H   0  0  0  0  0  0  0  0  0  0  0  0
   59.9275   29.0865   50.0876 H   0  0  0  0  0  0  0  0  0  0  0  0
   60.6714   26.7299   49.7810 H   0  0  0  0  0  0  0  0  0  0  0  0
   60.9771   25.8008   47.4849 H   0  0  0  0  0  0  0  0  0  0  0  0
   60.5569   27.2349   45.4886 H   0  0  0  0  0  0  0  0  0  0  0  0
   58.8830   29.8430   45.0430 H   0  0  0  0  0  0  0  0  0  0  0  0
  1  2  1  0
  2  3  1  0
  3  4  1  0
  2  5  1  0
  5  6  2  0
  5  7  1  0
  7  8  1  0
  8  9  1  0
  9 10  2  0
  9 11  1  0
 11 12  2  0
 12 13  1  0
 13 14  2  0
 14 15  1  0
 15 16  2  0
 16 17  1  0
 17 18  1  0
 18 19  1  0
 19 20  2  0
 20 21  1  0
 21 22  2  0
 22 23  1  0
 23 24  2  0
 24 25  1  0
 16 11  1  0
 24 19  1  0
  1 26  1  0
  1 27  1  0
  2 28  1  6
  3 29  1  0
  3 30  1  0
  7 31  1  0
  7 32  1  0
 12 33  1  0
 13 34  1  0
 14 35  1  0
 15 36  1  0
 17 37  1  0
 18 38  1  0
 18 39  1  0
 20 40  1  0
 21 41  1  0
 22 42  1  0
 23 43  1  0
 25 44  1  0
M  CHG  2   4  -1   8  -1
M  END
>  <UniqueID>  (38) 
34

>  <SMILES>  (38) 
N[C@@H](C[S-])C(=O)C[N-]C(=O)c1ccccc1NCc1ccccc1O

>  <Energy>  (38) 
47.5848864863952

>  <Genealogy>  (38) 
NC(C[S-])C(=O)C[N-]C(=O)c1ccccc1NCc1ccccc1O (protonated)
N[C@@H](C[S-])C(=O)C[N-]C(=O)c1ccccc1NCc1ccccc1O (chirality)
N[C@@H](C[S-])C(=O)C[N-]C(=O)c1ccccc1NCc1ccccc1O (3D coordinates assigned)
N[C@@H](C[S-])C(=O)C[N-]C(=O)c1ccccc1NCc1ccccc1O (optimized conformer: 47.5848864863952 kcal/mol)

>  <smiles>  (38) 
NC(CS)C(=O)CNC(=O)c1ccccc1NCc1ccccc1O

>  <score_type>  (38) 
oracle

>  <origin>  (38) 
adg

>  <m_score__min__energy>  (38) 
-10.09

>  <m_primary>  (38) 
energy

$$$$
38:0
     RDKit          3D

 29 30  0  0  0  0  0  0  0  0999 V2000
   54.7650   23.2980   47.0080 H   0  0  0  0  0  0  0  0  0  0  0  0
   54.5370   24.0740   46.3980 O   0  0  0  0  0  0  0  0  0  0  0  0
   55.4950   25.0310   46.0830 C   0  0  0  0  0  0  0  0  0  0  0  0
   55.2280   26.3480   46.0010 N   0  0  0  0  0  0  0  0  0  0  0  0
   56.4080   26.9190   45.6800 C   0  0  0  0  0  0  0  0  0  0  0  0
   56.5750   28.3660   45.4950 C   0  0  0  0  0  0  0  0  0  0  0  0
   57.6360   28.9360   45.8640 O   0  0  0  0  0  0  0  0  0  0  0  0
   55.5200   29.1200   44.8960 N   0  0  0  0  0  0  0  0  0  0  0  0
   55.6250   29.7510   43.5880 C   0  0  0  0  0  0  0  0  0  0  0  0
   55.8971   28.9916   42.8402 H   0  0  0  0  0  0  0  0  0  0  0  0
   54.6559   30.2040   43.3320 H   0  0  0  0  0  0  0  0  0  0  0  0
   56.6950   30.8460   43.6070 C   0  0  0  0  0  0  0  0  0  0  0  0
   57.6847   30.3838   43.4770 H   0  0  0  0  0  0  0  0  0  0  0  0
   56.4879   31.5516   42.7890 H   0  0  0  0  0  0  0  0  0  0  0  0
   56.6730   31.5820   44.8740 N   0  0  0  0  0  0  0  0  0  0  0  0
   57.4630   32.5460   45.2590 C   0  0  0  0  0  0  0  0  0  0  0  0
   57.6550   32.7270   46.5960 N   0  0  0  0  0  0  0  0  0  0  0  0
   58.4520   33.7120   47.0890 C   0  0  0  0  0  0  0  0  0  0  0  0
   58.5796   33.8221   48.1760 H   0  0  0  0  0  0  0  0  0  0  0  0
   59.1080   34.5830   46.2200 C   0  0  0  0  0  0  0  0  0  0  0  0
   59.7493   35.3849   46.6146 H   0  0  0  0  0  0  0  0  0  0  0  0
   58.9410   34.4250   44.8440 C   0  0  0  0  0  0  0  0  0  0  0  0
   59.4525   35.1042   44.1460 H   0  0  0  0  0  0  0  0  0  0  0  0
   58.1240   33.4040   44.3530 C   0  0  0  0  0  0  0  0  0  0  0  0
   57.9965   33.2693   43.2687 H   0  0  0  0  0  0  0  0  0  0  0  0
   57.4090   25.9710   45.5620 C   0  0  0  0  0  0  0  0  0  0  0  0
   58.4645   26.1524   45.3110 H   0  0  0  0  0  0  0  0  0  0  0  0
   56.8180   24.7550   45.8220 C   0  0  0  0  0  0  0  0  0  0  0  0
   57.3027   23.7675   45.8213 H   0  0  0  0  0  0  0  0  0  0  0  0
  1  2  1  0
  2  3  1  0
  3  4  1  0
  4  5  1  0
  5  6  1  0
  6  7  2  0
  6  8  1  0
  8  9  1  0
  9 10  1  0
  9 11  1  0
  9 12  1  0
 12 13  1  0
 12 14  1  0
 12 15  1  0
 15 16  2  0
 16 17  1  0
 17 18  1  0
 18 19  1  0
 18 20  2  0
 20 21  1  0
 20 22  1  0
 22 23  1  0
 22 24  2  0
 24 25  1  0
  5 26  2  0
 26 27  1  0
 26 28  1  0
 28 29  1  0
 28  3  2  0
 24 16  1  0
M  CHG  3   4  -1   8  -1  17  -1
M  END
>  <UniqueID>  (39) 
35

>  <SMILES>  (39) 
O=C([N-]CC/N=c1\cccc[n-]1)c1ccc(O)[n-]1

>  <Energy>  (39) 
51.583838616750214

>  <Genealogy>  (39) 
O=C([N-]CCN=c1cccc[n-]1)c1ccc(O)[n-]1 (protonated)
O=C([N-]CC/N=c1\cccc[n-]1)c1ccc(O)[n-]1 (cis-trans isomerization)
O=C([N-]CC/N=c1\cccc[n-]1)c1ccc(O)[n-]1 (3D coordinates assigned)
O=C([N-]CC/N=c1\cccc[n-]1)c1ccc(O)[n-]1 (optimized conformer: 51.583838616750214 kcal/mol)

>  <smiles>  (39) 
O=C(NCCN=c1cccc[nH]1)c1ccc(O)[nH]1

>  <score_type>  (39) 
oracle

>  <origin>  (39) 
adg

>  <m_score__min__energy>  (39) 
-12.42

>  <m_primary>  (39) 
energy

$$$$
39:0
     RDKit          3D

 57 60  0  0  0  0  0  0  0  0999 V2000
   58.4320   26.8730   45.2660 C   0  0  0  0  0  0  0  0  0  0  0  0
   57.8640   27.8530   46.2880 C   0  0  0  0  0  0  0  0  0  0  0  0
   58.8690   28.8800   46.6380 N   0  0  0  0  0  0  0  0  0  0  0  0
   59.1130   29.9640   45.8230 C   0  0  0  0  0  0  0  0  0  0  0  0
   58.3210   30.2440   44.5660 C   0  0  0  0  0  0  0  0  0  0  0  0
   57.0400   30.9000   44.8720 N   0  0  0  0  0  0  0  0  0  0  0  0
   57.0410   32.3470   44.5920 C   0  0  0  0  0  0  0  0  0  0  0  0
   57.8490   33.1280   45.5930 C   0  0  0  0  0  0  0  0  0  0  0  0
   58.4260   34.3600   45.3020 C   0  0  0  0  0  0  0  0  0  0  0  0
   59.2420   34.8850   46.6750 S   0  0  0  0  0  0  0  0  0  0  0  0
   58.8350   33.5190   47.5770 C   0  0  0  0  0  0  0  0  0  0  0  0
   59.2320   33.2660   48.9390 N   0  0  0  0  0  0  0  0  0  0  0  0
   58.4790   32.3050   49.7560 C   0  0  0  0  0  0  0  0  0  0  0  0
   59.3350   31.8060   50.9220 C   0  0  0  0  0  0  0  0  0  0  0  0
   59.8780   32.8940   51.6380 O   0  0  0  0  0  0  0  0  0  0  0  0
   60.8050   33.5800   50.8200 C   0  0  0  0  0  0  0  0  0  0  0  0
   60.1070   34.2290   49.6180 C   0  0  0  0  0  0  0  0  0  0  0  0
   58.0830   32.6620   46.8510 N   0  0  0  0  0  0  0  0  0  0  0  0
   60.0870   30.8540   46.1510 N   0  0  0  0  0  0  0  0  0  0  0  0
   60.8540   30.7230   47.2630 C   0  0  0  0  0  0  0  0  0  0  0  0
   61.8830   31.7030   47.5410 N   0  0  0  0  0  0  0  0  0  0  0  0
   62.6750   31.6370   48.7810 C   0  0  0  0  0  0  0  0  0  0  0  0
   64.0000   32.3880   48.6280 C   0  0  0  0  0  0  0  0  0  0  0  0
   63.7900   33.6820   48.1000 O   0  0  0  0  0  0  0  0  0  0  0  0
   63.3110   33.5710   46.7770 C   0  0  0  0  0  0  0  0  0  0  0  0
   61.9150   32.9450   46.7550 C   0  0  0  0  0  0  0  0  0  0  0  0
   60.6150   29.6360   48.1110 C   0  0  0  0  0  0  0  0  0  0  0  0
   59.6220   28.7170   47.7750 C   0  0  0  0  0  0  0  0  0  0  0  0
   59.4350   27.7290   48.5370 O   0  0  0  0  0  0  0  0  0  0  0  0
   58.9169   26.0364   45.7904 H   0  0  0  0  0  0  0  0  0  0  0  0
   57.6173   26.4876   44.6354 H   0  0  0  0  0  0  0  0  0  0  0  0
   59.1714   27.3884   44.6354 H   0  0  0  0  0  0  0  0  0  0  0  0
   56.9769   28.3452   45.8628 H   0  0  0  0  0  0  0  0  0  0  0  0
   57.5915   27.2984   47.1981 H   0  0  0  0  0  0  0  0  0  0  0  0
   58.9114   30.9007   43.9101 H   0  0  0  0  0  0  0  0  0  0  0  0
   58.1086   29.2851   44.0706 H   0  0  0  0  0  0  0  0  0  0  0  0
   56.2910   30.4450   44.2970 H   0  0  0  0  0  0  0  0  0  0  0  0
   57.4653   32.5121   43.5906 H   0  0  0  0  0  0  0  0  0  0  0  0
   56.0010   32.6998   44.6543 H   0  0  0  0  0  0  0  0  0  0  0  0
   58.3600   34.8957   44.3435 H   0  0  0  0  0  0  0  0  0  0  0  0
   57.5776   32.7951   50.1525 H   0  0  0  0  0  0  0  0  0  0  0  0
   58.1988   31.4467   49.1277 H   0  0  0  0  0  0  0  0  0  0  0  0
   58.7102   31.2037   51.5979 H   0  0  0  0  0  0  0  0  0  0  0  0
   60.1590   31.1963   50.5228 H   0  0  0  0  0  0  0  0  0  0  0  0
   61.2982   34.3630   51.4147 H   0  0  0  0  0  0  0  0  0  0  0  0
   61.5434   32.8556   50.4458 H   0  0  0  0  0  0  0  0  0  0  0  0
   59.5037   35.0797   49.9678 H   0  0  0  0  0  0  0  0  0  0  0  0
   60.8743   34.5693   48.9071 H   0  0  0  0  0  0  0  0  0  0  0  0
   62.0978   32.0897   49.6007 H   0  0  0  0  0  0  0  0  0  0  0  0
   62.8944   30.5816   49.0002 H   0  0  0  0  0  0  0  0  0  0  0  0
   64.4801   32.4752   49.6138 H   0  0  0  0  0  0  0  0  0  0  0  0
   64.6434   31.8265   47.9347 H   0  0  0  0  0  0  0  0  0  0  0  0
   63.2641   34.5729   46.3253 H   0  0  0  0  0  0  0  0  0  0  0  0
   63.9957   32.9256   46.2072 H   0  0  0  0  0  0  0  0  0  0  0  0
   61.1939   33.6586   47.1801 H   0  0  0  0  0  0  0  0  0  0  0  0
   61.6533   32.7077   45.7133 H   0  0  0  0  0  0  0  0  0  0  0  0
   61.2034   29.5081   49.0315 H   0  0  0  0  0  0  0  0  0  0  0  0
  1  2  1  0
  2  3  1  0
  3  4  1  0
  4  5  1  0
  5  6  1  0
  6  7  1  0
  7  8  1  0
  8  9  2  0
  9 10  1  0
 10 11  1  0
 11 12  1  0
 12 13  1  0
 13 14  1  0
 14 15  1  0
 15 16  1  0
 16 17  1  0
 11 18  2  0
  4 19  2  0
 19 20  1  0
 20 21  1  0
 21 22  1  0
 22 23  1  0
 23 24  1  0
 24 25  1  0
 25 26  1  0
 20 27  2  0
 27 28  1  0
 28 29  2  0
 28  3  1  0
 18  8  1  0
 26 21  1  0
 17 12  1  0
  1 30  1  0
  1 31  1  0
  1 32  1  0
  2 33  1  0
  2 34  1  0
  5 35  1  0
  5 36  1  0
  6 37  1  0
  7 38  1  0
  7 39  1  0
  9 40  1  0
 13 41  1  0
 13 42  1  0
 14 43  1  0
 14 44  1  0
 16 45  1  0
 16 46  1  0
 17 47  1  0
 17 48  1  0
 22 49  1  0
 22 50  1  0
 23 51  1  0
 23 52  1  0
 25 53  1  0
 25 54  1  0
 26 55  1  0
 26 56  1  0
 27 57  1  0
M  END
>  <UniqueID>  (40) 
36

>  <SMILES>  (40) 
CCn1c(CNCc2csc(N3CCOCC3)n2)nc(N2CCOCC2)cc1=O

>  <Energy>  (40) 
94.81493338276037

>  <Genealogy>  (40) 
CCn1c(CNCc2csc(N3CCOCC3)n2)nc(N2CCOCC2)cc1=O (3D coordinates assigned)
CCn1c(CNCc2csc(N3CCOCC3)n2)nc(N2CCOCC2)cc1=O (nonaromatic ring conformer: 94.81493338276037 kcal/mol)

>  <smiles>  (40) 
CCn1c(CNCc2csc(N3CCOCC3)n2)nc(N2CCOCC2)cc1=O

>  <score_type>  (40) 
oracle

>  <origin>  (40) 
adg

>  <m_score__min__energy>  (40) 
-9.1600000000000001

>  <m_primary>  (40) 
energy

$$$$
40:0
     RDKit          3D

 49 51  0  0  0  0  0  0  0  0999 V2000
   54.2260   24.2650   45.5860 C   0  0  0  0  0  0  0  0  0  0  0  0
   55.4320   24.4990   46.1040 C   0  0  0  0  0  0  0  0  0  0  0  0
   56.2740   25.6280   45.6690 C   0  0  0  0  0  0  0  0  0  0  0  0
   57.4000   25.4150   45.1430 O   0  0  0  0  0  0  0  0  0  0  0  0
   55.7840   26.9680   45.8110 N   0  0  0  0  0  0  0  0  0  0  0  0
   56.5930   28.1440   45.6240 C   0  0  0  0  0  0  0  0  0  0  0  0
   57.8690   28.2470   46.2070 C   0  0  0  0  0  0  0  0  0  0  0  0
   58.6500   29.3960   46.0290 C   0  0  0  0  0  0  0  0  0  0  0  0
   59.9420   29.4540   46.6470 N   0  0  0  0  0  0  0  0  0  0  0  0
   60.3280   28.8210   47.8720 C   0  0  0  0  0  0  0  0  0  0  0  0
   61.0910   27.8190   47.8680 O   0  0  0  0  0  0  0  0  0  0  0  0
   59.7920   29.3440   49.1780 C   0  0  0  0  0  0  0  0  0  0  0  0
   59.6780   30.8170   49.2100 N   0  0  0  0  0  0  0  0  0  0  0  0
   59.4750   31.3340   50.5740 C   0  0  0  0  0  0  0  0  0  0  0  0
   58.9430   32.7600   50.5150 C   0  0  0  0  0  0  0  0  0  0  0  0
   60.1950   33.8980   49.8400 S   0  0  0  0  0  0  0  0  0  0  0  0
   60.5640   32.9810   48.2950 C   0  0  2  0  0  0  0  0  0  0  0  0
   59.5670   33.3130   47.1950 C   0  0  0  0  0  0  0  0  0  0  0  0
   60.0470   33.8530   45.9860 C   0  0  0  0  0  0  0  0  0  0  0  0
   59.1650   34.1910   44.9550 C   0  0  0  0  0  0  0  0  0  0  0  0
   57.7930   34.0020   45.1180 C   0  0  0  0  0  0  0  0  0  0  0  0
   57.2990   33.4860   46.3150 C   0  0  0  0  0  0  0  0  0  0  0  0
   58.1750   33.1460   47.3500 C   0  0  0  0  0  0  0  0  0  0  0  0
   60.8110   31.4770   48.5330 C   0  0  0  0  0  0  0  0  0  0  0  0
   58.1220   30.4800   45.3090 C   0  0  0  0  0  0  0  0  0  0  0  0
   56.8470   30.3940   44.7480 C   0  0  0  0  0  0  0  0  0  0  0  0
   56.0820   29.2350   44.9010 C   0  0  0  0  0  0  0  0  0  0  0  0
   54.8170   29.1720   44.3280 O   0  0  0  0  0  0  0  0  0  0  0  0
   53.6315   23.4102   45.9407 H   0  0  0  0  0  0  0  0  0  0  0  0
   53.8255   24.9268   44.8039 H   0  0  0  0  0  0  0  0  0  0  0  0
   55.8128   23.8245   46.8850 H   0  0  0  0  0  0  0  0  0  0  0  0
   54.7590   27.0950   45.9830 H   0  0  0  0  0  0  0  0  0  0  0  0
   58.2587   27.4141   46.8107 H   0  0  0  0  0  0  0  0  0  0  0  0
   58.7942   28.9120   49.3450 H   0  0  0  0  0  0  0  0  0  0  0  0
   60.5039   29.0531   49.9645 H   0  0  0  0  0  0  0  0  0  0  0  0
   58.7506   30.6962   51.1016 H   0  0  0  0  0  0  0  0  0  0  0  0
   60.4357   31.3281   51.1098 H   0  0  0  0  0  0  0  0  0  0  0  0
   58.0509   32.7846   49.8719 H   0  0  0  0  0  0  0  0  0  0  0  0
   58.6916   33.0822   51.5363 H   0  0  0  0  0  0  0  0  0  0  0  0
   61.5324   33.3380   47.9146 H   0  0  0  0  0  0  0  0  0  0  0  0
   61.1273   34.0105   45.8514 H   0  0  0  0  0  0  0  0  0  0  0  0
   59.5540   34.6067   44.0138 H   0  0  0  0  0  0  0  0  0  0  0  0
   57.1011   34.2599   44.3026 H   0  0  0  0  0  0  0  0  0  0  0  0
   56.2158   33.3458   46.4456 H   0  0  0  0  0  0  0  0  0  0  0  0
   57.7754   32.7449   48.2931 H   0  0  0  0  0  0  0  0  0  0  0  0
   60.9739   30.9884   47.5610 H   0  0  0  0  0  0  0  0  0  0  0  0
   61.6908   31.3827   49.1864 H   0  0  0  0  0  0  0  0  0  0  0  0
   58.7146   31.3987   45.1870 H   0  0  0  0  0  0  0  0  0  0  0  0
   56.4414   31.2450   44.1812 H   0  0  0  0  0  0  0  0  0  0  0  0
  1  2  2  0
  2  3  1  0
  3  4  2  0
  3  5  1  0
  5  6  1  0
  6  7  2  0
  7  8  1  0
  8  9  1  0
  9 10  1  0
 10 11  2  0
 10 12  1  0
 12 13  1  0
 13 14  1  0
 14 15  1  0
 15 16  1  0
 16 17  1  0
 17 18  1  0
 18 19  2  0
 19 20  1  0
 20 21  2  0
 21 22  1  0
 22 23  2  0
 17 24  1  0
  8 25  2  0
 25 26  1  0
 26 27  2  0
 27 28  1  0
 27  6  1  0
 24 13  1  0
 23 18  1  0
  1 29  1  0
  1 30  1  0
  2 31  1  0
  5 32  1  0
  7 33  1  0
 12 34  1  0
 12 35  1  0
 14 36  1  0
 14 37  1  0
 15 38  1  0
 15 39  1  0
 17 40  1  6
 19 41  1  0
 20 42  1  0
 21 43  1  0
 22 44  1  0
 23 45  1  0
 24 46  1  0
 24 47  1  0
 25 48  1  0
 26 49  1  0
M  CHG  2   9  -1  28  -1
M  END
>  <UniqueID>  (41) 
37

>  <SMILES>  (41) 
C=CC(=O)Nc1cc([N-]C(=O)CN2CCS[C@H](c3ccccc3)C2)ccc1[O-]

>  <Energy>  (41) 
59.0903763496334

>  <Genealogy>  (41) 
C=CC(=O)Nc1cc([N-]C(=O)CN2CCSC(c3ccccc3)C2)ccc1[O-] (protonated)
C=CC(=O)Nc1cc([N-]C(=O)CN2CCS[C@H](c3ccccc3)C2)ccc1[O-] (chirality)
C=CC(=O)Nc1cc([N-]C(=O)CN2CCS[C@H](c3ccccc3)C2)ccc1[O-] (3D coordinates assigned)
C=CC(=O)Nc1cc([N-]C(=O)CN2CCS[C@H](c3ccccc3)C2)ccc1[O-] (nonaromatic ring conformer: 59.0903763496334 kcal/mol)

>  <smiles>  (41) 
C=CC(=O)Nc1cc(NC(=O)CN2CCSC(c3ccccc3)C2)ccc1O

>  <score_type>  (41) 
oracle

>  <origin>  (41) 
adg

>  <m_score__min__energy>  (41) 
-13.300000000000001

>  <m_primary>  (41) 
energy

$$$$
41:0
     RDKit          3D

 51 54  0  0  0  0  0  0  0  0999 V2000
   58.0610   33.4330   43.0050 H   0  0  0  0  0  0  0  0  0  0  0  0
   57.7410   32.4710   43.0300 O   0  0  0  0  0  0  0  0  0  0  0  0
   57.9460   31.6520   44.1380 C   0  0  0  0  0  0  0  0  0  0  0  0
   58.3950   30.3770   43.9920 N   0  0  0  0  0  0  0  0  0  0  0  0
   58.5540   29.7620   45.1850 C   0  0  0  0  0  0  0  0  0  0  0  0
   59.0930   28.3720   45.3280 C   0  0  0  0  0  0  0  0  0  0  0  0
   59.4261   28.0088   44.3446 H   0  0  0  0  0  0  0  0  0  0  0  0
   59.9395   28.3863   46.0302 H   0  0  0  0  0  0  0  0  0  0  0  0
   58.0330   27.4570   45.8600 C   0  0  0  0  0  0  0  0  0  0  0  0
   56.7850   27.3820   45.3600 N   0  0  0  0  0  0  0  0  0  0  0  0
   56.1840   26.4810   46.1640 C   0  0  0  0  0  0  0  0  0  0  0  0
   54.9450   26.1200   45.9880 N   0  0  0  0  0  0  0  0  0  0  0  0
   54.5050   24.8230   45.5590 C   0  0  0  0  0  0  0  0  0  0  0  0
   53.2780   24.5420   45.6430 O   0  0  0  0  0  0  0  0  0  0  0  0
   55.4450   23.8010   45.0390 C   0  0  0  0  0  0  0  0  0  0  0  0
   55.5900   23.6610   43.6460 C   0  0  0  0  0  0  0  0  0  0  0  0
   55.0071   24.3024   42.9686 H   0  0  0  0  0  0  0  0  0  0  0  0
   56.4700   22.7120   43.1180 C   0  0  0  0  0  0  0  0  0  0  0  0
   56.5876   22.6189   42.0283 H   0  0  0  0  0  0  0  0  0  0  0  0
   57.2000   21.8820   43.9710 C   0  0  0  0  0  0  0  0  0  0  0  0
   57.8917   21.1358   43.5530 H   0  0  0  0  0  0  0  0  0  0  0  0
   57.0520   21.9990   45.3570 C   0  0  0  0  0  0  0  0  0  0  0  0
   57.6235   21.3380   46.0252 H   0  0  0  0  0  0  0  0  0  0  0  0
   56.1820   22.9510   45.8990 C   0  0  0  0  0  0  0  0  0  0  0  0
   55.9890   22.9940   47.6520 Cl  0  0  0  0  0  0  0  0  0  0  0  0
   56.9830   25.9790   47.1350 N   0  0  0  0  0  0  0  0  0  0  0  0
   58.1580   26.6040   46.9360 C   0  0  0  0  0  0  0  0  0  0  0  0
   59.0695   26.4582   47.5342 H   0  0  0  0  0  0  0  0  0  0  0  0
   58.1460   30.7780   46.4660 S   0  0  0  0  0  0  0  0  0  0  0  0
   57.7320   32.0600   45.4590 C   0  0  0  0  0  0  0  0  0  0  0  0
   57.4480   33.4510   45.9350 C   0  0  0  0  0  0  0  0  0  0  0  0
   57.1804   33.4293   47.0017 H   0  0  0  0  0  0  0  0  0  0  0  0
   56.6105   33.8778   45.3637 H   0  0  0  0  0  0  0  0  0  0  0  0
   58.6740   34.2870   45.7410 C   0  0  0  0  0  0  0  0  0  0  0  0
   59.1090   34.5050   44.5760 O   0  0  0  0  0  0  0  0  0  0  0  0
   59.3900   34.7690   46.8840 N   0  0  0  0  0  0  0  0  0  0  0  0
   60.6520   34.2510   47.3220 C   0  0  0  0  0  0  0  0  0  0  0  0
   60.9890   34.2050   48.6870 C   0  0  0  0  0  0  0  0  0  0  0  0
   60.2532   34.5153   49.4435 H   0  0  0  0  0  0  0  0  0  0  0  0
   62.2540   33.7670   49.0860 C   0  0  0  0  0  0  0  0  0  0  0  0
   62.5117   33.7358   50.1549 H   0  0  0  0  0  0  0  0  0  0  0  0
   63.2010   33.3650   48.1230 C   0  0  0  0  0  0  0  0  0  0  0  0
   64.4890   32.9320   48.4720 O   0  0  0  0  0  0  0  0  0  0  0  0
   64.8440   32.4140   49.7510 C   0  0  0  0  0  0  0  0  0  0  0  0
   64.4091   33.0486   50.5372 H   0  0  0  0  0  0  0  0  0  0  0  0
   64.4576   31.3890   49.8516 H   0  0  0  0  0  0  0  0  0  0  0  0
   65.9394   32.4045   49.8516 H   0  0  0  0  0  0  0  0  0  0  0  0
   62.8560   33.4050   46.7660 C   0  0  0  0  0  0  0  0  0  0  0  0
   63.5819   33.0737   46.0088 H   0  0  0  0  0  0  0  0  0  0  0  0
   61.5980   33.8620   46.3660 C   0  0  0  0  0  0  0  0  0  0  0  0
   61.3497   33.9164   45.2958 H   0  0  0  0  0  0  0  0  0  0  0  0
  1  2  1  0
  2  3  1  0
  3  4  1  0
  4  5  2  0
  5  6  1  0
  6  7  1  0
  6  8  1  0
  6  9  1  0
  9 10  1  0
 10 11  1  0
 11 12  2  0
 12 13  1  0
 13 14  2  0
 13 15  1  0
 15 16  2  0
 16 17  1  0
 16 18  1  0
 18 19  1  0
 18 20  2  0
 20 21  1  0
 20 22  1  0
 22 23  1  0
 22 24  2  0
 24 25  1  0
 11 26  1  0
 26 27  1  0
 27 28  1  0
  5 29  1  0
 29 30  1  0
 30 31  1  0
 31 32  1  0
 31 33  1  0
 31 34  1  0
 34 35  2  0
 34 36  1  0
 36 37  1  0
 37 38  2  0
 38 39  1  0
 38 40  1  0
 40 41  1  0
 40 42  2  0
 42 43  1  0
 43 44  1  0
 44 45  1  0
 44 46  1  0
 44 47  1  0
 42 48  1  0
 48 49  1  0
 48 50  2  0
 50 51  1  0
 30  3  2  0
 50 37  1  0
 27  9  2  0
 24 15  1  0
M  CHG  3  10  -1  26  -1  36  -1
M  END
>  <UniqueID>  (42) 
38

>  <SMILES>  (42) 
COc1ccc([N-]C(=O)Cc2sc(Cc3c[n-]/c(=N\C(=O)c4ccccc4Cl)[n-]3)nc2O)cc1

>  <Energy>  (42) 
118.5527104604184

>  <Genealogy>  (42) 
COc1ccc([N-]C(=O)Cc2sc(Cc3c[n-]c(=NC(=O)c4ccccc4Cl)[n-]3)nc2O)cc1 (protonated)
COc1ccc([N-]C(=O)Cc2sc(Cc3c[n-]/c(=N\C(=O)c4ccccc4Cl)[n-]3)nc2O)cc1 (cis-trans isomerization)
COc1ccc([N-]C(=O)Cc2sc(Cc3c[n-]/c(=N\C(=O)c4ccccc4Cl)[n-]3)nc2O)cc1 (3D coordinates assigned)
COc1ccc([N-]C(=O)Cc2sc(Cc3c[n-]/c(=N\C(=O)c4ccccc4Cl)[n-]3)nc2O)cc1 (optimized conformer: 118.5527104604184 kcal/mol)

>  <smiles>  (42) 
COc1ccc(NC(=O)Cc2sc(Cc3c[nH]c(=NC(=O)c4ccccc4Cl)[nH]3)nc2O)cc1

>  <score_type>  (42) 
oracle

>  <origin>  (42) 
adg

>  <m_score__min__energy>  (42) 
-14.66

>  <m_primary>  (42) 
energy

$$$$
42:0
     RDKit          3D

 43 45  0  0  0  0  0  0  0  0999 V2000
   62.0820   33.6110   48.6500 C   0  0  0  0  0  0  0  0  0  0  0  0
   60.7900   32.8410   49.6010 S   0  0  0  0  0  0  0  0  0  0  0  0
   60.1460   33.8940   50.4590 O   0  0  0  0  0  0  0  0  0  0  0  0
   59.7580   32.2880   48.6570 O   0  0  0  0  0  0  0  0  0  0  0  0
   61.4600   31.5880   50.6290 N   0  0  0  0  0  0  0  0  0  0  0  0
   61.3150   31.8860   52.0590 C   0  0  0  0  0  0  0  0  0  0  0  0
   59.8590   31.8500   52.5440 C   0  0  0  0  0  0  0  0  0  0  0  0
   58.9970   30.8500   51.8760 N   0  0  0  0  0  0  0  0  0  0  0  0
   57.6090   30.7080   52.3180 C   0  0  0  0  0  0  0  0  0  0  0  0
   56.5380   31.2490   51.5660 C   0  0  0  0  0  0  0  0  0  0  0  0
   55.2140   31.1130   51.9910 C   0  0  0  0  0  0  0  0  0  0  0  0
   54.9190   30.4410   53.1800 C   0  0  0  0  0  0  0  0  0  0  0  0
   53.2520   30.2460   53.7070 S   0  0  0  0  0  0  0  0  0  0  0  0
   52.8520   28.8030   53.5730 O   0  0  0  0  0  0  0  0  0  0  0  0
   53.1050   30.6460   55.1490 O   0  0  0  0  0  0  0  0  0  0  0  0
   52.2240   31.2350   52.7260 N   0  0  0  0  0  0  0  0  0  0  0  0
   52.2850   31.3890   51.3950 C   0  0  0  0  0  0  0  0  0  0  0  0
   51.3000   32.2860   51.0480 C   0  0  0  0  0  0  0  0  0  0  0  0
   51.0290   32.7170   49.7560 O   0  0  0  0  0  0  0  0  0  0  0  0
   50.6200   32.7060   52.1350 N   0  0  0  0  0  0  0  0  0  0  0  0
   51.2230   32.0370   53.1390 C   0  0  0  0  0  0  0  0  0  0  0  0
   50.8820   32.1580   54.3460 O   0  0  0  0  0  0  0  0  0  0  0  0
   55.9580   29.8970   53.9370 C   0  0  0  0  0  0  0  0  0  0  0  0
   57.2840   30.0290   53.5180 C   0  0  0  0  0  0  0  0  0  0  0  0
   59.4470   30.0920   50.6880 C   0  0  0  0  0  0  0  0  0  0  0  0
   60.9330   30.2500   50.3400 C   0  0  0  0  0  0  0  0  0  0  0  0
   62.8243   34.0534   49.3306 H   0  0  0  0  0  0  0  0  0  0  0  0
   62.5700   32.8563   48.0158 H   0  0  0  0  0  0  0  0  0  0  0  0
   61.6504   34.3993   48.0158 H   0  0  0  0  0  0  0  0  0  0  0  0
   62.4860   31.5660   50.4230 H   0  0  0  0  0  0  0  0  0  0  0  0
   61.8914   31.1434   52.6302 H   0  0  0  0  0  0  0  0  0  0  0  0
   61.6849   32.9099   52.2168 H   0  0  0  0  0  0  0  0  0  0  0  0
   59.8646   31.6289   53.6215 H   0  0  0  0  0  0  0  0  0  0  0  0
   59.4314   32.8336   52.2995 H   0  0  0  0  0  0  0  0  0  0  0  0
   56.7523   31.7861   50.6303 H   0  0  0  0  0  0  0  0  0  0  0  0
   54.3992   31.5374   51.3861 H   0  0  0  0  0  0  0  0  0  0  0  0
   52.9886   30.8927   50.7105 H   0  0  0  0  0  0  0  0  0  0  0  0
   55.7310   29.3606   54.8701 H   0  0  0  0  0  0  0  0  0  0  0  0
   58.0898   29.5982   54.1305 H   0  0  0  0  0  0  0  0  0  0  0  0
   59.2512   29.0250   50.8702 H   0  0  0  0  0  0  0  0  0  0  0  0
   58.8871   30.5003   49.8337 H   0  0  0  0  0  0  0  0  0  0  0  0
   61.5077   29.5154   50.9232 H   0  0  0  0  0  0  0  0  0  0  0  0
   61.0315   30.0893   49.2563 H   0  0  0  0  0  0  0  0  0  0  0  0
  1  2  1  0
  2  3  2  0
  2  4  2  0
  2  5  1  0
  5  6  1  0
  6  7  1  0
  7  8  1  0
  8  9  1  0
  9 10  2  0
 10 11  1  0
 11 12  2  0
 12 13  1  0
 13 14  2  0
 13 15  2  0
 13 16  1  0
 16 17  1  0
 17 18  2  0
 18 19  1  0
 18 20  1  0
 20 21  1  0
 21 22  2  0
 12 23  1  0
 23 24  2  0
  8 25  1  0
 25 26  1  0
 26  5  1  0
 24  9  1  0
 21 16  1  0
  1 27  1  0
  1 28  1  0
  1 29  1  0
  5 30  1  0
  6 31  1  0
  6 32  1  0
  7 33  1  0
  7 34  1  0
 10 35  1  0
 11 36  1  0
 17 37  1  0
 23 38  1  0
 24 39  1  0
 25 40  1  0
 25 41  1  0
 26 42  1  0
 26 43  1  0
M  CHG  3   5   1  19  -1  20  -1
M  END
>  <UniqueID>  (43) 
39

>  <SMILES>  (43) 
CS(=O)(=O)[NH+]1CCN(c2ccc(S(=O)(=O)n3cc([O-])[n-]c3=O)cc2)CC1

>  <Energy>  (43) 
83.84468756810553

>  <Genealogy>  (43) 
CS(=O)(=O)[NH+]1CCN(c2ccc(S(=O)(=O)n3cc([O-])[n-]c3=O)cc2)CC1 (protonated)
CS(=O)(=O)[NH+]1CCN(c2ccc(S(=O)(=O)n3cc([O-])[n-]c3=O)cc2)CC1 (3D coordinates assigned)
CS(=O)(=O)[NH+]1CCN(c2ccc(S(=O)(=O)n3cc([O-])[n-]c3=O)cc2)CC1 (nonaromatic ring conformer: 83.84468756810553 kcal/mol)

>  <smiles>  (43) 
CS(=O)(=O)N1CCN(c2ccc(S(=O)(=O)n3cc(O)[nH]c3=O)cc2)CC1

>  <score_type>  (43) 
oracle

>  <origin>  (43) 
adg

>  <m_score__min__energy>  (43) 
-11.74

>  <m_primary>  (43) 
energy

$$$$
43:0
     RDKit          3D

 39 41  0  0  0  0  0  0  0  0999 V2000
   60.4936   29.0218   47.4213 H   0  0  0  0  0  0  0  0  0  0  0  0
   59.6440   28.3340   47.2980 C   0  0  0  0  0  0  0  0  0  0  0  0
   59.6036   27.4003   47.8781 H   0  0  0  0  0  0  0  0  0  0  0  0
   58.6570   28.6340   46.4400 C   0  0  0  0  0  0  0  0  0  0  0  0
   57.5230   27.8580   46.1830 C   0  0  0  0  0  0  0  0  0  0  0  0
   57.1810   26.6890   46.7570 C   0  0  0  0  0  0  0  0  0  0  0  0
   57.2531   26.6054   47.8514 H   0  0  0  0  0  0  0  0  0  0  0  0
   56.7130   25.5100   45.9930 C   0  0  0  0  0  0  0  0  0  0  0  0
   55.3630   25.3560   45.6300 C   0  0  0  0  0  0  0  0  0  0  0  0
   54.4200   26.3180   45.9830 O   0  0  0  0  0  0  0  0  0  0  0  0
   54.9720   24.2700   44.9100 N   0  0  0  0  0  0  0  0  0  0  0  0
   53.9650   24.1610   44.6530 H   0  0  0  0  0  0  0  0  0  0  0  0
   55.8760   23.3350   44.5100 C   0  0  0  0  0  0  0  0  0  0  0  0
   55.5000   22.3360   43.8440 O   0  0  0  0  0  0  0  0  0  0  0  0
   57.1890   23.4800   44.8250 N   0  0  0  0  0  0  0  0  0  0  0  0
   57.6260   24.5430   45.5460 C   0  0  0  0  0  0  0  0  0  0  0  0
   58.8530   24.6450   45.8160 O   0  0  0  0  0  0  0  0  0  0  0  0
   56.7810   28.5530   45.2390 C   0  0  0  0  0  0  0  0  0  0  0  0
   55.8176   28.2464   44.8056 H   0  0  0  0  0  0  0  0  0  0  0  0
   57.4860   29.7040   44.9490 C   0  0  0  0  0  0  0  0  0  0  0  0
   57.0230   30.7600   43.9910 C   0  0  0  0  0  0  0  0  0  0  0  0
   56.6436   31.6253   44.5544 H   0  0  0  0  0  0  0  0  0  0  0  0
   57.8654   31.0755   43.3578 H   0  0  0  0  0  0  0  0  0  0  0  0
   56.2203   30.3542   43.3578 H   0  0  0  0  0  0  0  0  0  0  0  0
   58.6260   29.7590   45.6790 N   0  0  0  0  0  0  0  0  0  0  0  0
   59.6360   30.8290   45.6350 C   0  0  0  0  0  0  0  0  0  0  0  0
   60.6388   30.3776   45.6587 H   0  0  0  0  0  0  0  0  0  0  0  0
   59.4935   31.4061   44.7094 H   0  0  0  0  0  0  0  0  0  0  0  0
   59.4880   31.7670   46.8140 C   0  0  0  0  0  0  0  0  0  0  0  0
   59.8940   31.3320   48.0900 C   0  0  0  0  0  0  0  0  0  0  0  0
   60.2977   30.3165   48.2154 H   0  0  0  0  0  0  0  0  0  0  0  0
   59.7900   32.1750   49.1980 C   0  0  0  0  0  0  0  0  0  0  0  0
   60.1007   31.8177   50.1909 H   0  0  0  0  0  0  0  0  0  0  0  0
   59.2930   33.4690   49.0480 C   0  0  0  0  0  0  0  0  0  0  0  0
   59.2044   34.1293   49.9233 H   0  0  0  0  0  0  0  0  0  0  0  0
   58.9080   33.9260   47.7870 C   0  0  0  0  0  0  0  0  0  0  0  0
   58.5230   34.9500   47.6717 H   0  0  0  0  0  0  0  0  0  0  0  0
   59.0080   33.0910   46.6670 C   0  0  0  0  0  0  0  0  0  0  0  0
   58.4840   33.8280   44.9730 Br  0  0  0  0  0  0  0  0  0  0  0  0
  1  2  1  0
  2  3  1  0
  2  4  2  0
  4  5  1  0
  5  6  2  0
  6  7  1  0
  6  8  1  0
  8  9  2  0
  9 10  1  0
  9 11  1  0
 11 12  1  0
 11 13  1  0
 13 14  2  0
 13 15  1  0
 15 16  1  0
 16 17  2  0
  5 18  1  0
 18 19  1  0
 18 20  2  0
 20 21  1  0
 21 22  1  0
 21 23  1  0
 21 24  1  0
 20 25  1  0
 25 26  1  0
 26 27  1  0
 26 28  1  0
 26 29  1  0
 29 30  2  0
 30 31  1  0
 30 32  1  0
 32 33  1  0
 32 34  2  0
 34 35  1  0
 34 36  1  0
 36 37  1  0
 36 38  2  0
 38 39  1  0
 25  4  1  0
 38 29  1  0
 16  8  1  0
M  CHG  2  10  -1  15  -1
M  END
>  <UniqueID>  (44) 
40

>  <SMILES>  (44) 
C=c1/c(=C/c2c([O-])[nH]c(=O)[n-]c2=O)cc(C)n1Cc1ccccc1Br

>  <Energy>  (44) 
81.24852045159807

>  <Genealogy>  (44) 
C=c1c(=Cc2c([O-])[nH]c(=O)[n-]c2=O)cc(C)n1Cc1ccccc1Br (protonated)
C=c1/c(=C/c2c([O-])[nH]c(=O)[n-]c2=O)cc(C)n1Cc1ccccc1Br (cis-trans isomerization)
C=c1/c(=C/c2c([O-])[nH]c(=O)[n-]c2=O)cc(C)n1Cc1ccccc1Br (3D coordinates assigned)
C=c1/c(=C/c2c([O-])[nH]c(=O)[n-]c2=O)cc(C)n1Cc1ccccc1Br (optimized conformer: 81.24852045159807 kcal/mol)

>  <smiles>  (44) 
C=c1c(=Cc2c(O)[nH]c(=O)[nH]c2=O)cc(C)n1Cc1ccccc1Br

>  <score_type>  (44) 
oracle

>  <origin>  (44) 
adg

>  <m_score__min__energy>  (44) 
-14.32

>  <m_primary>  (44) 
energy

$$$$
44:0
     RDKit          3D

 56 59  0  0  0  0  0  0  0  0999 V2000
   56.6280   18.8540   45.8630 C   0  0  0  0  0  0  0  0  0  0  0  0
   55.8070   20.0310   44.8120 S   0  0  0  0  0  0  0  0  0  0  0  0
   54.3950   20.2290   45.2860 O   0  0  0  0  0  0  0  0  0  0  0  0
   55.7750   19.5090   43.4030 O   0  0  0  0  0  0  0  0  0  0  0  0
   56.6740   21.5620   44.8600 C   0  0  0  0  0  0  0  0  0  0  0  0
   57.7850   21.7160   45.7010 C   0  0  0  0  0  0  0  0  0  0  0  0
   58.4800   22.9280   45.7310 C   0  0  0  0  0  0  0  0  0  0  0  0
   58.0550   24.0070   44.9360 C   0  0  0  0  0  0  0  0  0  0  0  0
   58.7880   25.2390   44.9180 N   0  0  0  0  0  0  0  0  0  0  0  0
   58.3250   26.4450   45.0900 C   0  0  0  0  0  0  0  0  0  0  0  0
   58.9160   27.5140   44.5240 N   0  0  0  0  0  0  0  0  0  0  0  0
   58.2710   28.5950   44.9330 N   0  0  0  0  0  0  0  0  0  0  0  0
   58.6470   29.9570   44.5260 C   0  0  1  0  0  0  0  0  0  0  0  0
   57.5150   30.5960   43.6850 C   0  0  0  0  0  0  0  0  0  0  0  0
   57.5650   32.1250   43.7300 C   0  0  0  0  0  0  0  0  0  0  0  0
   57.3150   32.6390   45.1860 C   0  0  2  0  0  0  0  0  0  0  0  0
   57.6670   34.0630   45.4570 N   0  0  0  0  0  0  0  0  0  0  0  0
   58.3230   34.3320   46.7470 C   0  0  0  0  0  0  0  0  0  0  0  0
   59.6050   34.8050   46.0740 C   0  0  0  0  0  0  0  0  0  0  0  0
   59.9040   36.1630   46.3030 O   0  0  0  0  0  0  0  0  0  0  0  0
   58.8720   34.5450   44.7640 C   0  0  0  0  0  0  0  0  0  0  0  0
   57.9470   31.7210   46.2720 C   0  0  0  0  0  0  0  0  0  0  0  0
   59.0920   30.8450   45.7300 C   0  0  1  0  0  0  0  0  0  0  0  0
   59.6950   30.0550   46.8190 C   0  0  0  0  0  0  0  0  0  0  0  0
   60.1690   29.4350   47.6750 N   0  0  0  0  0  0  0  0  0  0  0  0
   57.2590   28.2400   45.7540 C   0  0  0  0  0  0  0  0  0  0  0  0
   57.2430   26.8650   45.8700 C   0  0  0  0  0  0  0  0  0  0  0  0
   56.1430   26.1010   46.4850 C   0  0  0  0  0  0  0  0  0  0  0  0
   54.7890   26.3480   46.1170 N   0  0  0  0  0  0  0  0  0  0  0  0
   56.3960   25.2740   47.4020 O   0  0  0  0  0  0  0  0  0  0  0  0
   56.9750   23.8350   44.0620 C   0  0  0  0  0  0  0  0  0  0  0  0
   56.5860   24.8500   43.2490 F   0  0  0  0  0  0  0  0  0  0  0  0
   56.2800   22.6210   44.0310 C   0  0  0  0  0  0  0  0  0  0  0  0
   56.4467   19.1140   46.9163 H   0  0  0  0  0  0  0  0  0  0  0  0
   56.2359   17.8462   45.6613 H   0  0  0  0  0  0  0  0  0  0  0  0
   57.7092   18.8739   45.6613 H   0  0  0  0  0  0  0  0  0  0  0  0
   58.1104   20.8809   46.3387 H   0  0  0  0  0  0  0  0  0  0  0  0
   59.3623   23.0382   46.3786 H   0  0  0  0  0  0  0  0  0  0  0  0
   59.5380   29.8867   43.8848 H   0  0  0  0  0  0  0  0  0  0  0  0
   57.6189   30.2673   42.6404 H   0  0  0  0  0  0  0  0  0  0  0  0
   56.5521   30.2735   44.1079 H   0  0  0  0  0  0  0  0  0  0  0  0
   58.5548   32.4649   43.3911 H   0  0  0  0  0  0  0  0  0  0  0  0
   56.7803   32.5260   43.0717 H   0  0  0  0  0  0  0  0  0  0  0  0
   56.2183   32.5896   45.2561 H   0  0  0  0  0  0  0  0  0  0  0  0
   57.8238   35.1134   47.3388 H   0  0  0  0  0  0  0  0  0  0  0  0
   58.3785   33.5279   47.4955 H   0  0  0  0  0  0  0  0  0  0  0  0
   60.5922   34.3762   46.3011 H   0  0  0  0  0  0  0  0  0  0  0  0
   59.3090   36.5060   47.0200 H   0  0  0  0  0  0  0  0  0  0  0  0
   58.7017   35.4540   44.1685 H   0  0  0  0  0  0  0  0  0  0  0  0
   59.3447   33.9026   44.0064 H   0  0  0  0  0  0  0  0  0  0  0  0
   58.3429   32.3548   47.0792 H   0  0  0  0  0  0  0  0  0  0  0  0
   57.1571   31.0443   46.6300 H   0  0  0  0  0  0  0  0  0  0  0  0
   59.8671   31.5156   45.3307 H   0  0  0  0  0  0  0  0  0  0  0  0
   56.5623   28.9328   46.2487 H   0  0  0  0  0  0  0  0  0  0  0  0
   54.1840   26.9780   46.6870 H   0  0  0  0  0  0  0  0  0  0  0  0
   55.4219   22.4975   43.3540 H   0  0  0  0  0  0  0  0  0  0  0  0
  1  2  1  0
  2  3  2  0
  2  4  2  0
  2  5  1  0
  5  6  2  0
  6  7  1  0
  7  8  2  0
  8  9  1  0
  9 10  2  3
 10 11  1  0
 11 12  1  0
 12 13  1  0
 13 14  1  0
 14 15  1  0
 15 16  1  0
 16 17  1  0
 17 18  1  0
 18 19  1  0
 19 20  1  0
 19 21  1  0
 16 22  1  0
 22 23  1  0
 23 24  1  0
 24 25  3  0
 12 26  1  0
 26 27  2  0
 27 28  1  0
 28 29  1  0
 28 30  2  0
  8 31  1  0
 31 32  1  0
 31 33  2  0
 33  5  1  0
 27 10  1  0
 23 13  1  0
 21 17  1  0
  1 34  1  0
  1 35  1  0
  1 36  1  0
  6 37  1  0
  7 38  1  0
 13 39  1  6
 14 40  1  0
 14 41  1  0
 15 42  1  0
 15 43  1  0
 16 44  1  1
 18 45  1  0
 18 46  1  0
 19 47  1  0
 20 48  1  0
 21 49  1  0
 21 50  1  0
 22 51  1  0
 22 52  1  0
 23 53  1  6
 26 54  1  0
 29 55  1  0
 33 56  1  0
M  CHG  2  11  -1  29  -1
M  END
>  <UniqueID>  (45) 
41

>  <SMILES>  (45) 
CS(=O)(=O)c1ccc(N=c2[n-]n([C@H]3CC[C@H](N4CC(O)C4)CC3C#N)cc2C([NH-])=O)c(F)c1

>  <Energy>  (45) 
185.4564438381619

>  <Genealogy>  (45) 
CS(=O)(=O)c1ccc(N=c2[n-]n(C3CCC(N4CC(O)C4)CC3C#N)cc2C([NH-])=O)c(F)c1 (protonated)
CS(=O)(=O)c1ccc(N=c2[n-]n([C@H]3CC[C@H](N4CC(O)C4)CC3C#N)cc2C([NH-])=O)c(F)c1 (chirality)
CS(=O)(=O)c1ccc(N=c2[n-]n([C@H]3CC[C@H](N4CC(O)C4)CC3C#N)cc2C([NH-])=O)c(F)c1 (3D coordinates assigned)
CS(=O)(=O)c1ccc(N=c2[n-]n([C@H]3CC[C@H](N4CC(O)C4)CC3C#N)cc2C([NH-])=O)c(F)c1 (nonaromatic ring conformer: 185.4564438381619 kcal/mol)

>  <smiles>  (45) 
CS(=O)(=O)c1ccc(N=c2[nH]n(C3CCC(N4CC(O)C4)CC3C#N)cc2C(N)=O)c(F)c1

>  <score_type>  (45) 
oracle

>  <origin>  (45) 
adg

>  <m_score__min__energy>  (45) 
-12.880000000000001

>  <m_primary>  (45) 
energy

$$$$
45:0
     RDKit          3D

 43 45  0  0  0  0  0  0  0  0999 V2000
   55.1840   29.7960   44.8810 O   0  0  0  0  0  0  0  0  0  0  0  0
   56.0870   28.9160   44.8810 C   0  0  0  0  0  0  0  0  0  0  0  0
   57.3410   29.1530   44.0910 C   0  0  0  0  0  0  0  0  0  0  0  0
   58.3840   29.7780   44.9110 N   0  0  0  0  0  0  0  0  0  0  0  0
   58.3730   31.2000   45.1750 C   0  0  0  0  0  0  0  0  0  0  0  0
   57.3860   32.0320   44.6120 C   0  0  0  0  0  0  0  0  0  0  0  0
   57.3910   33.4080   44.8570 C   0  0  0  0  0  0  0  0  0  0  0  0
   58.3730   33.9700   45.6740 C   0  0  0  0  0  0  0  0  0  0  0  0
   59.3510   33.1560   46.2490 C   0  0  0  0  0  0  0  0  0  0  0  0
   60.3020   33.7020   47.0470 F   0  0  0  0  0  0  0  0  0  0  0  0
   59.3510   31.7800   46.0040 C   0  0  0  0  0  0  0  0  0  0  0  0
   59.7200   28.7930   45.4470 S   0  0  0  0  0  0  0  0  0  0  0  0
   61.0050   29.3610   44.9090 O   0  0  0  0  0  0  0  0  0  0  0  0
   59.5730   27.3970   44.9120 O   0  0  0  0  0  0  0  0  0  0  0  0
   59.7700   28.7270   47.2080 C   0  0  0  0  0  0  0  0  0  0  0  0
   58.8980   29.5270   47.9600 C   0  0  0  0  0  0  0  0  0  0  0  0
   58.9180   29.4710   49.3590 C   0  0  0  0  0  0  0  0  0  0  0  0
   59.8080   28.6160   50.0120 C   0  0  0  0  0  0  0  0  0  0  0  0
   60.6770   27.8140   49.2670 C   0  0  0  0  0  0  0  0  0  0  0  0
   60.6600   27.8660   47.8680 C   0  0  0  0  0  0  0  0  0  0  0  0
   55.9030   27.6910   45.6030 N   0  0  0  0  0  0  0  0  0  0  0  0
   56.9330   27.0800   46.4340 C   0  0  0  0  0  0  0  0  0  0  0  0
   57.3080   25.7390   45.8870 C   0  0  0  0  0  0  0  0  0  0  0  0
   56.6440   25.0570   44.8760 C   0  0  0  0  0  0  0  0  0  0  0  0
   57.2560   23.8430   44.5380 C   0  0  0  0  0  0  0  0  0  0  0  0
   58.4060   23.5750   45.2700 C   0  0  0  0  0  0  0  0  0  0  0  0
   58.6610   24.8490   46.3410 S   0  0  0  0  0  0  0  0  0  0  0  0
   57.7130   28.1891   43.7136 H   0  0  0  0  0  0  0  0  0  0  0  0
   57.1017   29.8333   43.2604 H   0  0  0  0  0  0  0  0  0  0  0  0
   56.6040   31.5949   43.9736 H   0  0  0  0  0  0  0  0  0  0  0  0
   56.6197   34.0490   44.4051 H   0  0  0  0  0  0  0  0  0  0  0  0
   58.3766   35.0533   45.8648 H   0  0  0  0  0  0  0  0  0  0  0  0
   60.1225   31.1446   46.4634 H   0  0  0  0  0  0  0  0  0  0  0  0
   58.1952   30.2014   47.4488 H   0  0  0  0  0  0  0  0  0  0  0  0
   58.2320   30.1011   49.9441 H   0  0  0  0  0  0  0  0  0  0  0  0
   59.8252   28.5737   51.1111 H   0  0  0  0  0  0  0  0  0  0  0  0
   61.3769   27.1394   49.7818 H   0  0  0  0  0  0  0  0  0  0  0  0
   61.3447   27.2316   47.2859 H   0  0  0  0  0  0  0  0  0  0  0  0
   57.8214   27.7285   46.4475 H   0  0  0  0  0  0  0  0  0  0  0  0
   56.5440   26.9557   47.4554 H   0  0  0  0  0  0  0  0  0  0  0  0
   55.7309   25.4316   44.3902 H   0  0  0  0  0  0  0  0  0  0  0  0
   56.8629   23.1656   43.7656 H   0  0  0  0  0  0  0  0  0  0  0  0
   59.0414   22.6829   45.1674 H   0  0  0  0  0  0  0  0  0  0  0  0
  1  2  2  0
  2  3  1  0
  3  4  1  0
  4  5  1  0
  5  6  2  0
  6  7  1  0
  7  8  2  0
  8  9  1  0
  9 10  1  0
  9 11  2  0
  4 12  1  0
 12 13  2  0
 12 14  2  0
 12 15  1  0
 15 16  2  0
 16 17  1  0
 17 18  2  0
 18 19  1  0
 19 20  2  0
  2 21  1  0
 21 22  1  0
 22 23  1  0
 23 24  2  0
 24 25  1  0
 25 26  2  0
 26 27  1  0
 11  5  1  0
 20 15  1  0
 27 23  1  0
  3 28  1  0
  3 29  1  0
  6 30  1  0
  7 31  1  0
  8 32  1  0
 11 33  1  0
 16 34  1  0
 17 35  1  0
 18 36  1  0
 19 37  1  0
 20 38  1  0
 22 39  1  0
 22 40  1  0
 24 41  1  0
 25 42  1  0
 26 43  1  0
M  CHG  1  21  -1
M  END
>  <UniqueID>  (46) 
42

>  <SMILES>  (46) 
O=C(CN(c1cccc(F)c1)S(=O)(=O)c1ccccc1)[N-]Cc1cccs1

>  <Energy>  (46) 
71.8887595608287

>  <Genealogy>  (46) 
O=C(CN(c1cccc(F)c1)S(=O)(=O)c1ccccc1)[N-]Cc1cccs1 (protonated)
O=C(CN(c1cccc(F)c1)S(=O)(=O)c1ccccc1)[N-]Cc1cccs1 (3D coordinates assigned)
O=C(CN(c1cccc(F)c1)S(=O)(=O)c1ccccc1)[N-]Cc1cccs1 (optimized conformer: 71.8887595608287 kcal/mol)

>  <smiles>  (46) 
O=C(CN(c1cccc(F)c1)S(=O)(=O)c1ccccc1)NCc1cccs1

>  <score_type>  (46) 
oracle

>  <origin>  (46) 
adg

>  <m_score__min__energy>  (46) 
-10.57

>  <m_primary>  (46) 
energy

$$$$
46:0
     RDKit          3D

 57 59  0  0  1  0  0  0  0  0999 V2000
   59.8490   29.3300   47.4000 C   0  0  0  0  0  0  0  0  0  0  0  0
   59.3250   29.3350   46.0000 C   0  0  0  0  0  0  0  0  0  0  0  0
   58.1110   28.6530   45.8040 N   0  0  0  0  0  0  0  0  0  0  0  0
   58.0290   28.2600   44.3910 C   0  0  0  0  0  0  0  0  0  0  0  0
   56.9610   28.9810   43.6240 C   0  0  0  0  0  0  0  0  0  0  0  0
   57.2150   30.4880   43.6220 C   0  0  0  0  0  0  0  0  0  0  0  0
   56.8790   31.1150   44.8660 N   0  0  0  0  0  0  0  0  0  0  0  0
   57.4590   32.1350   45.3560 C   0  0  0  0  0  0  0  0  0  0  0  0
   57.5260   33.2830   44.6460 N   0  0  0  0  0  0  0  0  0  0  0  0
   58.1310   34.3680   45.1530 C   0  0  0  0  0  0  0  0  0  0  0  0
   58.6730   34.2650   46.4130 C   0  0  0  0  0  0  0  0  0  0  0  0
   58.6160   33.1100   47.1510 C   0  0  0  0  0  0  0  0  0  0  0  0
   59.1520   33.1180   48.3190 N   0  0  0  0  0  0  0  0  0  0  0  0
   60.5570   33.2870   48.4240 C   0  0  0  0  0  0  0  0  0  0  0  0
   61.1400   34.2110   49.2950 C   0  0  0  0  0  0  0  0  0  0  0  0
   62.5150   34.3320   49.3410 C   0  0  0  0  0  0  0  0  0  0  0  0
   63.3550   33.5750   48.5590 C   0  0  0  0  0  0  0  0  0  0  0  0
   62.7770   32.6500   47.6870 C   0  0  0  0  0  0  0  0  0  0  0  0
   63.6620   31.8700   46.8690 N   0  0  0  0  0  0  0  0  0  0  0  0
   61.4140   32.5230   47.6340 C   0  0  0  0  0  0  0  0  0  0  0  0
   58.0030   32.0500   46.6040 N   0  0  0  0  0  0  0  0  0  0  0  0
   57.8400   27.5620   46.6460 C   0  0  0  0  0  0  0  0  0  0  0  0
   57.4780   26.2610   46.0870 C   0  0  0  0  0  0  0  0  0  0  0  0
   58.4870   25.3800   45.7280 C   0  0  0  0  0  0  0  0  0  0  0  0
   58.2340   24.1420   45.1660 C   0  0  0  0  0  0  0  0  0  0  0  0
   56.9300   23.7440   44.9440 C   0  0  0  0  0  0  0  0  0  0  0  0
   55.9110   24.6020   45.2930 C   0  0  0  0  0  0  0  0  0  0  0  0
   56.1850   25.8240   45.8490 C   0  0  0  0  0  0  0  0  0  0  0  0
   55.0840   26.6230   46.1760 O   0  0  0  0  0  0  0  0  0  0  0  0
   59.0063   29.3380   48.1069 H   0  0  0  0  0  0  0  0  0  0  0  0
   60.4546   28.4260   47.5616 H   0  0  0  0  0  0  0  0  0  0  0  0
   60.4717   30.2222   47.5616 H   0  0  0  0  0  0  0  0  0  0  0  0
   59.1777   30.3822   45.6973 H   0  0  0  0  0  0  0  0  0  0  0  0
   60.0725   28.7990   45.3966 H   0  0  0  0  0  0  0  0  0  0  0  0
   58.9987   28.4693   43.9158 H   0  0  0  0  0  0  0  0  0  0  0  0
   57.7724   27.1905   44.3700 H   0  0  0  0  0  0  0  0  0  0  0  0
   56.9535   28.6155   42.5865 H   0  0  0  0  0  0  0  0  0  0  0  0
   55.9911   28.7884   44.1059 H   0  0  0  0  0  0  0  0  0  0  0  0
   58.2817   30.6632   43.4182 H   0  0  0  0  0  0  0  0  0  0  0  0
   56.5705   30.9288   42.8472 H   0  0  0  0  0  0  0  0  0  0  0  0
   57.1090   33.3010   43.7130 H   0  0  0  0  0  0  0  0  0  0  0  0
   58.1914   35.3060   44.5816 H   0  0  0  0  0  0  0  0  0  0  0  0
   59.1723   35.1442   46.8463 H   0  0  0  0  0  0  0  0  0  0  0  0
   60.5075   34.8384   49.9403 H   0  0  0  0  0  0  0  0  0  0  0  0
   62.9566   35.0648   50.0323 H   0  0  0  0  0  0  0  0  0  0  0  0
   64.4469   33.6941   48.6183 H   0  0  0  0  0  0  0  0  0  0  0  0
   64.5720   32.3500   46.6050 H   0  0  0  0  0  0  0  0  0  0  0  0
   63.4250   30.9030   46.5580 H   0  0  0  0  0  0  0  0  0  0  0  0
   60.9786   31.7887   46.9402 H   0  0  0  0  0  0  0  0  0  0  0  0
   57.9460   31.1700   47.1250 H   0  0  0  0  0  0  0  0  0  0  0  0
   58.7425   27.4026   47.2544 H   0  0  0  0  0  0  0  0  0  0  0  0
   56.9193   27.8725   47.1617 H   0  0  0  0  0  0  0  0  0  0  0  0
   59.5321   25.6783   45.8973 H   0  0  0  0  0  0  0  0  0  0  0  0
   59.0678   23.4769   44.8969 H   0  0  0  0  0  0  0  0  0  0  0  0
   56.7103   22.7628   44.4980 H   0  0  0  0  0  0  0  0  0  0  0  0
   54.8660   24.3032   45.1236 H   0  0  0  0  0  0  0  0  0  0  0  0
   54.7290   26.7160   47.1230 H   0  0  0  0  0  0  0  0  0  0  0  0
  1  2  1  0
  2  3  1  0
  3  4  1  0
  4  5  1  0
  5  6  1  0
  6  7  1  0
  7  8  2  0
  8  9  1  0
  9 10  1  0
 10 11  2  0
 11 12  1  0
 12 13  2  0
 13 14  1  0
 14 15  2  0
 15 16  1  0
 16 17  2  0
 17 18  1  0
 18 19  1  0
 18 20  2  0
 12 21  1  0
  3 22  1  0
 22 23  1  0
 23 24  2  0
 24 25  1  0
 25 26  2  0
 26 27  1  0
 27 28  2  0
 28 29  1  0
 21  8  1  0
 28 23  1  0
 20 14  1  0
  1 30  1  0
  1 31  1  0
  1 32  1  0
  2 33  1  0
  2 34  1  0
  4 35  1  0
  4 36  1  0
  5 37  1  0
  5 38  1  0
  6 39  1  0
  6 40  1  0
  9 41  1  0
 10 42  1  0
 11 43  1  0
 15 44  1  0
 16 45  1  0
 17 46  1  0
 19 47  1  0
 19 48  1  0
 20 49  1  0
 21 50  1  0
 22 51  1  0
 22 52  1  0
 24 53  1  0
 25 54  1  0
 26 55  1  0
 27 56  1  0
 29 57  1  0
M  END
>  <smiles>  (47) 
CCN(CCCN=c1[nH]ccc(=Nc2cccc(N)c2)[nH]1)Cc1ccccc1O

>  <score_type>  (47) 
oracle

>  <origin>  (47) 
adg

>  <m_score__min__energy>  (47) 
-9.4600000000000009

>  <m_primary>  (47) 
energy

$$$$
47:0
     RDKit          3D

 55 58  0  0  0  0  0  0  0  0999 V2000
   54.8900   31.5250   52.0050 C   0  0  0  0  0  0  0  0  0  0  0  0
   54.9770   30.3610   52.6700 C   0  0  0  0  0  0  0  0  0  0  0  0
   53.9890   29.3640   52.7350 C   0  0  0  0  0  0  0  0  0  0  0  0
   52.6880   29.3810   52.3830 C   0  0  0  0  0  0  0  0  0  0  0  0
   51.9680   30.5280   51.8040 C   0  0  0  0  0  0  0  0  0  0  0  0
   51.9060   30.8120   50.4900 N   0  0  0  0  0  0  0  0  0  0  0  0
   51.2800   32.0080   50.4580 C   0  0  0  0  0  0  0  0  0  0  0  0
   51.0180   32.6060   49.3830 O   0  0  0  0  0  0  0  0  0  0  0  0
   50.9710   32.5190   51.6680 N   0  0  0  0  0  0  0  0  0  0  0  0
   51.4270   31.5770   52.5100 C   0  0  0  0  0  0  0  0  0  0  0  0
   51.3650   31.6750   53.8950 O   0  0  0  0  0  0  0  0  0  0  0  0
   54.5940   28.2550   53.2960 C   0  0  0  0  0  0  0  0  0  0  0  0
   55.8790   28.6240   53.6300 C   0  0  0  0  0  0  0  0  0  0  0  0
   56.8830   27.6990   54.2500 C   0  0  0  0  0  0  0  0  0  0  0  0
   56.1200   29.9040   53.2570 N   0  0  0  0  0  0  0  0  0  0  0  0
   57.4090   30.6010   53.4090 C   0  0  0  0  0  0  0  0  0  0  0  0
   57.9400   31.0460   52.0700 C   0  0  0  0  0  0  0  0  0  0  0  0
   57.9840   30.1520   50.9900 C   0  0  0  0  0  0  0  0  0  0  0  0
   58.4860   30.5650   49.7520 C   0  0  0  0  0  0  0  0  0  0  0  0
   58.9730   31.8690   49.5840 C   0  0  0  0  0  0  0  0  0  0  0  0
   59.4750   32.3180   48.3200 N   0  0  0  0  0  0  0  0  0  0  0  0
   58.9240   33.3720   47.5200 C   0  0  0  0  0  0  0  0  0  0  0  0
   59.6540   34.3570   47.2280 O   0  0  0  0  0  0  0  0  0  0  0  0
   57.5480   33.2740   46.9130 C   0  0  0  0  0  0  0  0  0  0  0  0
   57.5970   32.6760   45.5340 C   0  0  0  0  0  0  0  0  0  0  0  0
   58.1500   33.3880   44.4610 C   0  0  0  0  0  0  0  0  0  0  0  0
   58.1710   32.8080   43.1910 C   0  0  0  0  0  0  0  0  0  0  0  0
   57.6420   31.5310   43.0000 C   0  0  0  0  0  0  0  0  0  0  0  0
   57.0920   30.8460   44.0910 C   0  0  0  0  0  0  0  0  0  0  0  0
   56.5330   29.4690   43.9220 C   0  0  0  0  0  0  0  0  0  0  0  0
   57.0910   31.4290   45.3210 N   0  0  0  0  0  0  0  0  0  0  0  0
   58.8950   32.7730   50.6490 C   0  0  0  0  0  0  0  0  0  0  0  0
   58.3890   32.3650   51.8870 C   0  0  0  0  0  0  0  0  0  0  0  0
   55.7310   32.2338   52.0246 H   0  0  0  0  0  0  0  0  0  0  0  0
   53.9778   31.7693   51.4409 H   0  0  0  0  0  0  0  0  0  0  0  0
   52.1133   28.4567   52.5422 H   0  0  0  0  0  0  0  0  0  0  0  0
   51.8460   31.0040   54.4790 H   0  0  0  0  0  0  0  0  0  0  0  0
   54.1367   27.2660   53.4471 H   0  0  0  0  0  0  0  0  0  0  0  0
   56.8131   27.7634   55.3459 H   0  0  0  0  0  0  0  0  0  0  0  0
   56.6777   26.6670   53.9295 H   0  0  0  0  0  0  0  0  0  0  0  0
   57.8948   27.9880   53.9295 H   0  0  0  0  0  0  0  0  0  0  0  0
   57.2684   31.4824   54.0519 H   0  0  0  0  0  0  0  0  0  0  0  0
   58.1328   29.9074   53.8617 H   0  0  0  0  0  0  0  0  0  0  0  0
   57.6219   29.1212   51.1176 H   0  0  0  0  0  0  0  0  0  0  0  0
   58.4989   29.8630   48.9052 H   0  0  0  0  0  0  0  0  0  0  0  0
   56.9180   32.6411   47.5552 H   0  0  0  0  0  0  0  0  0  0  0  0
   57.1313   34.2890   46.8352 H   0  0  0  0  0  0  0  0  0  0  0  0
   58.5639   34.3950   44.6179 H   0  0  0  0  0  0  0  0  0  0  0  0
   58.6041   33.3572   42.3420 H   0  0  0  0  0  0  0  0  0  0  0  0
   57.6567   31.0670   42.0028 H   0  0  0  0  0  0  0  0  0  0  0  0
   56.3519   29.0229   44.9110 H   0  0  0  0  0  0  0  0  0  0  0  0
   55.5858   29.5236   43.3653 H   0  0  0  0  0  0  0  0  0  0  0  0
   57.2502   28.8479   43.3653 H   0  0  0  0  0  0  0  0  0  0  0  0
   59.2336   33.8105   50.5116 H   0  0  0  0  0  0  0  0  0  0  0  0
   58.3422   33.0799   52.7217 H   0  0  0  0  0  0  0  0  0  0  0  0
  1  2  2  0
  2  3  1  0
  3  4  2  3
  4  5  1  0
  5  6  1  0
  6  7  1  0
  7  8  2  0
  7  9  1  0
  9 10  1  0
 10 11  1  0
  3 12  1  0
 12 13  2  0
 13 14  1  0
 13 15  1  0
 15 16  1  0
 16 17  1  0
 17 18  2  0
 18 19  1  0
 19 20  2  0
 20 21  1  0
 21 22  1  0
 22 23  2  0
 22 24  1  0
 24 25  1  0
 25 26  2  0
 26 27  1  0
 27 28  2  0
 28 29  1  0
 29 30  1  0
 29 31  2  0
 20 32  1  0
 32 33  2  0
 15  2  1  0
 33 17  1  0
 10  5  2  0
 31 25  1  0
  1 34  1  0
  1 35  1  0
  4 36  1  0
 11 37  1  0
 12 38  1  0
 14 39  1  0
 14 40  1  0
 14 41  1  0
 16 42  1  0
 16 43  1  0
 18 44  1  0
 19 45  1  0
 24 46  1  0
 24 47  1  0
 26 48  1  0
 27 49  1  0
 28 50  1  0
 30 51  1  0
 30 52  1  0
 30 53  1  0
 32 54  1  0
 33 55  1  0
M  CHG  3   6  -1   9  -1  21  -1
M  END
>  <UniqueID>  (48) 
43

>  <SMILES>  (48) 
C=c1c(=Cc2[n-]c(=O)[n-]c2O)cc(C)n1Cc1ccc([N-]C(=O)Cc2cccc(C)n2)cc1

>  <Energy>  (48) 
129.11542701368262

>  <Genealogy>  (48) 
C=c1c(=Cc2[n-]c(=O)[n-]c2O)cc(C)n1Cc1ccc([N-]C(=O)Cc2cccc(C)n2)cc1 (protonated)
C=c1c(=Cc2[n-]c(=O)[n-]c2O)cc(C)n1Cc1ccc([N-]C(=O)Cc2cccc(C)n2)cc1 (3D coordinates assigned)
C=c1c(=Cc2[n-]c(=O)[n-]c2O)cc(C)n1Cc1ccc([N-]C(=O)Cc2cccc(C)n2)cc1 (optimized conformer: 129.11542701368262 kcal/mol)

>  <smiles>  (48) 
C=c1c(=Cc2[nH]c(=O)[nH]c2O)cc(C)n1Cc1ccc(NC(=O)Cc2cccc(C)n2)cc1

>  <score_type>  (48) 
oracle

>  <origin>  (48) 
adg

>  <m_score__min__energy>  (48) 
-15.6

>  <m_primary>  (48) 
energy

$$$$
48:0
     RDKit          3D

 43 45  0  0  0  0  0  0  0  0999 V2000
   56.6115   34.5868   44.9084 H   0  0  0  0  0  0  0  0  0  0  0  0
   57.3890   34.1480   45.5510 C   0  0  0  0  0  0  0  0  0  0  0  0
   58.7130   34.2230   45.2490 N   0  0  0  0  0  0  0  0  0  0  0  0
   59.4710   33.6110   46.1860 C   0  0  0  0  0  0  0  0  0  0  0  0
   60.7680   33.5290   46.1550 N   0  0  0  0  0  0  0  0  0  0  0  0
   61.6590   33.0410   47.1730 C   0  0  0  0  0  0  0  0  0  0  0  0
   62.0470   33.8530   48.0570 O   0  0  0  0  0  0  0  0  0  0  0  0
   62.1370   31.6080   47.2160 C   0  0  0  0  0  0  0  0  0  0  0  0
   62.0307   31.1734   46.2111 H   0  0  0  0  0  0  0  0  0  0  0  0
   63.1848   31.6221   47.5505 H   0  0  0  0  0  0  0  0  0  0  0  0
   61.3510   30.7390   48.2100 C   0  0  0  0  0  0  0  0  0  0  0  0
   62.0583   30.1743   48.8352 H   0  0  0  0  0  0  0  0  0  0  0  0
   60.7276   31.3923   48.8381 H   0  0  0  0  0  0  0  0  0  0  0  0
   60.4590   29.7740   47.4760 C   0  0  0  0  0  0  0  0  0  0  0  0
   59.3680   29.1810   48.1320 C   0  0  0  0  0  0  0  0  0  0  0  0
   59.1835   29.3985   49.1944 H   0  0  0  0  0  0  0  0  0  0  0  0
   58.5160   28.3160   47.4410 C   0  0  0  0  0  0  0  0  0  0  0  0
   57.6634   27.8562   47.9622 H   0  0  0  0  0  0  0  0  0  0  0  0
   58.7420   28.0300   46.0840 C   0  0  0  0  0  0  0  0  0  0  0  0
   57.8020   27.1230   45.3360 C   0  0  0  0  0  0  0  0  0  0  0  0
   57.9898   27.2185   44.2564 H   0  0  0  0  0  0  0  0  0  0  0  0
   57.9745   26.0866   45.6616 H   0  0  0  0  0  0  0  0  0  0  0  0
   56.3700   27.4910   45.6240 C   0  0  0  0  0  0  0  0  0  0  0  0
   55.6180   26.6480   46.1810 O   0  0  0  0  0  0  0  0  0  0  0  0
   55.8210   28.7560   45.2360 N   0  0  0  0  0  0  0  0  0  0  0  0
   56.4750   29.7620   44.4510 C   0  0  0  0  0  0  0  0  0  0  0  0
   56.2570   29.8850   43.0710 C   0  0  0  0  0  0  0  0  0  0  0  0
   55.5467   29.2152   42.5642 H   0  0  0  0  0  0  0  0  0  0  0  0
   56.9420   30.8580   42.3410 C   0  0  0  0  0  0  0  0  0  0  0  0
   56.7651   30.9696   41.2611 H   0  0  0  0  0  0  0  0  0  0  0  0
   57.8540   31.6880   42.9960 C   0  0  0  0  0  0  0  0  0  0  0  0
   58.3948   32.4623   42.4320 H   0  0  0  0  0  0  0  0  0  0  0  0
   58.0750   31.5410   44.3300 N   0  0  0  0  0  0  0  0  0  0  0  0
   58.7670   32.1640   44.8040 H   0  0  0  0  0  0  0  0  0  0  0  0
   57.4180   30.5990   45.0610 C   0  0  0  0  0  0  0  0  0  0  0  0
   57.6287   30.4947   46.1356 H   0  0  0  0  0  0  0  0  0  0  0  0
   59.8180   28.6430   45.4230 C   0  0  0  0  0  0  0  0  0  0  0  0
   59.9919   28.4405   44.3559 H   0  0  0  0  0  0  0  0  0  0  0  0
   60.6690   29.5090   46.1140 C   0  0  0  0  0  0  0  0  0  0  0  0
   61.5087   29.9860   45.5873 H   0  0  0  0  0  0  0  0  0  0  0  0
   58.5360   32.9580   47.4180 S   0  0  0  0  0  0  0  0  0  0  0  0
   57.0900   33.4770   46.7300 C   0  0  0  0  0  0  0  0  0  0  0  0
   56.0834   33.3133   47.1423 H   0  0  0  0  0  0  0  0  0  0  0  0
  1  2  1  0
  2  3  1  0
  3  4  1  0
  4  5  2  0
  5  6  1  0
  6  7  2  0
  6  8  1  0
  8  9  1  0
  8 10  1  0
  8 11  1  0
 11 12  1  0
 11 13  1  0
 11 14  1  0
 14 15  2  0
 15 16  1  0
 15 17  1  0
 17 18  1  0
 17 19  2  0
 19 20  1  0
 20 21  1  0
 20 22  1  0
 20 23  1  0
 23 24  2  0
 23 25  1  0
 25 26  1  0
 26 27  2  0
 27 28  1  0
 27 29  1  0
 29 30  1  0
 29 31  2  0
 31 32  1  0
 31 33  1  0
 33 34  1  0
 33 35  2  0
 35 36  1  0
 19 37  1  0
 37 38  1  0
 37 39  2  0
 39 40  1  0
  4 41  1  0
 41 42  1  0
 42 43  1  0
 42  2  2  0
 39 14  1  0
 35 26  1  0
M  CHG  3   3  -1  25  -1  33   1
M  END
>  <UniqueID>  (49) 
44

>  <SMILES>  (49) 
O=C(CCc1ccc(CC(=O)[N-]c2ccc[nH+]c2)cc1)/N=c1\[n-]ccs1

>  <Energy>  (49) 
80.59045513218537

>  <Genealogy>  (49) 
O=C(CCc1ccc(CC(=O)[N-]c2ccc[nH+]c2)cc1)N=c1[n-]ccs1 (protonated)
O=C(CCc1ccc(CC(=O)[N-]c2ccc[nH+]c2)cc1)/N=c1\[n-]ccs1 (cis-trans isomerization)
O=C(CCc1ccc(CC(=O)[N-]c2ccc[nH+]c2)cc1)/N=c1\[n-]ccs1 (3D coordinates assigned)
O=C(CCc1ccc(CC(=O)[N-]c2ccc[nH+]c2)cc1)/N=c1\[n-]ccs1 (optimized conformer: 80.59045513218537 kcal/mol)

>  <smiles>  (49) 
O=C(CCc1ccc(CC(=O)Nc2cccnc2)cc1)N=c1[nH]ccs1

>  <score_type>  (49) 
oracle

>  <origin>  (49) 
adg

>  <m_score__min__energy>  (49) 
-8.75

>  <m_primary>  (49) 
energy

$$$$
49:0
     RDKit          3D

 55 58  0  0  0  0  0  0  0  0999 V2000
   56.2870   28.9920   45.1940 C   0  0  0  0  0  0  0  0  0  0  0  0
   57.5550   28.5710   45.3350 C   0  0  0  0  0  0  0  0  0  0  0  0
   58.0000   27.4480   46.0550 C   0  0  0  0  0  0  0  0  0  0  0  0
   57.3180   26.4520   46.6550 C   0  0  0  0  0  0  0  0  0  0  0  0
   56.6350   25.3520   45.9630 C   0  0  0  0  0  0  0  0  0  0  0  0
   57.4050   24.0090   45.2990 S   0  0  0  0  0  0  0  0  0  0  0  0
   55.9780   23.3890   44.6630 C   0  0  0  0  0  0  0  0  0  0  0  0
   55.9010   22.3030   44.0310 O   0  0  0  0  0  0  0  0  0  0  0  0
   54.9170   24.1960   44.9080 N   0  0  0  0  0  0  0  0  0  0  0  0
   53.5360   23.8930   44.5230 C   0  0  0  0  0  0  0  0  0  0  0  0
   52.7810   23.3750   45.7170 C   0  0  0  0  0  0  0  0  0  0  0  0
   51.6590   23.8840   45.9850 O   0  0  0  0  0  0  0  0  0  0  0  0
   53.3400   22.3850   46.6020 N   0  0  0  0  0  0  0  0  0  0  0  0
   53.2470   22.5910   48.0520 C   0  0  0  0  0  0  0  0  0  0  0  0
   53.2450   21.2410   48.7740 C   0  0  0  0  0  0  0  0  0  0  0  0
   54.3430   20.4510   48.3590 O   0  0  0  0  0  0  0  0  0  0  0  0
   54.1930   20.1120   46.9940 C   0  0  0  0  0  0  0  0  0  0  0  0
   54.2640   21.3600   46.1070 C   0  0  0  0  0  0  0  0  0  0  0  0
   55.2830   25.2980   45.6240 C   0  0  0  0  0  0  0  0  0  0  0  0
   54.3770   26.2910   45.9800 O   0  0  0  0  0  0  0  0  0  0  0  0
   59.3810   27.4950   46.0310 C   0  0  0  0  0  0  0  0  0  0  0  0
   59.7340   28.5900   45.2710 C   0  0  0  0  0  0  0  0  0  0  0  0
   61.1460   28.9470   44.9110 C   0  0  0  0  0  0  0  0  0  0  0  0
   58.6290   29.2540   44.8530 N   0  0  0  0  0  0  0  0  0  0  0  0
   58.6150   30.4900   44.0520 C   0  0  0  0  0  0  0  0  0  0  0  0
   58.3560   31.7100   44.9090 C   0  0  0  0  0  0  0  0  0  0  0  0
   58.4840   31.6180   46.3080 C   0  0  0  0  0  0  0  0  0  0  0  0
   58.2340   32.7300   47.1180 C   0  0  0  0  0  0  0  0  0  0  0  0
   57.8380   33.9400   46.5430 C   0  0  0  0  0  0  0  0  0  0  0  0
   57.6910   34.0390   45.1580 C   0  0  0  0  0  0  0  0  0  0  0  0
   57.9400   32.9320   44.3410 C   0  0  0  0  0  0  0  0  0  0  0  0
   57.7790   33.0600   43.0010 F   0  0  0  0  0  0  0  0  0  0  0  0
   56.0691   29.8922   44.6006 H   0  0  0  0  0  0  0  0  0  0  0  0
   55.4667   28.4365   45.6720 H   0  0  0  0  0  0  0  0  0  0  0  0
   57.2692   26.4645   47.7538 H   0  0  0  0  0  0  0  0  0  0  0  0
   53.0505   24.8075   44.1515 H   0  0  0  0  0  0  0  0  0  0  0  0
   53.5367   23.1289   43.7317 H   0  0  0  0  0  0  0  0  0  0  0  0
   54.1088   23.1843   48.3916 H   0  0  0  0  0  0  0  0  0  0  0  0
   52.3128   23.1244   48.2816 H   0  0  0  0  0  0  0  0  0  0  0  0
   53.3121   21.4114   49.8587 H   0  0  0  0  0  0  0  0  0  0  0  0
   52.3137   20.7096   48.5283 H   0  0  0  0  0  0  0  0  0  0  0  0
   54.9970   19.4191   46.7050 H   0  0  0  0  0  0  0  0  0  0  0  0
   53.2091   19.6397   46.8563 H   0  0  0  0  0  0  0  0  0  0  0  0
   55.2894   21.7578   46.1206 H   0  0  0  0  0  0  0  0  0  0  0  0
   53.9812   21.0872   45.0796 H   0  0  0  0  0  0  0  0  0  0  0  0
   60.0683   26.7921   46.5246 H   0  0  0  0  0  0  0  0  0  0  0  0
   61.7324   29.0953   45.8298 H   0  0  0  0  0  0  0  0  0  0  0  0
   61.5906   28.1330   44.3196 H   0  0  0  0  0  0  0  0  0  0  0  0
   61.1503   29.8745   44.3196 H   0  0  0  0  0  0  0  0  0  0  0  0
   59.5898   30.6038   43.5553 H   0  0  0  0  0  0  0  0  0  0  0  0
   57.8031   30.4110   43.3140 H   0  0  0  0  0  0  0  0  0  0  0  0
   58.7829   30.6642   46.7673 H   0  0  0  0  0  0  0  0  0  0  0  0
   58.3493   32.6519   48.2092 H   0  0  0  0  0  0  0  0  0  0  0  0
   57.6421   34.8144   47.1810 H   0  0  0  0  0  0  0  0  0  0  0  0
   57.3778   34.9924   44.7075 H   0  0  0  0  0  0  0  0  0  0  0  0
  1  2  2  0
  2  3  1  0
  3  4  2  3
  4  5  1  0
  5  6  1  0
  6  7  1  0
  7  8  2  0
  7  9  1  0
  9 10  1  0
 10 11  1  0
 11 12  2  0
 11 13  1  0
 13 14  1  0
 14 15  1  0
 15 16  1  0
 16 17  1  0
 17 18  1  0
  9 19  1  0
 19 20  1  0
  3 21  1  0
 21 22  2  0
 22 23  1  0
 22 24  1  0
 24 25  1  0
 25 26  1  0
 26 27  2  0
 27 28  1  0
 28 29  2  0
 29 30  1  0
 30 31  2  0
 31 32  1  0
 24  2  1  0
 31 26  1  0
 19  5  2  0
 18 13  1  0
  1 33  1  0
  1 34  1  0
  4 35  1  0
 10 36  1  0
 10 37  1  0
 14 38  1  0
 14 39  1  0
 15 40  1  0
 15 41  1  0
 17 42  1  0
 17 43  1  0
 18 44  1  0
 18 45  1  0
 21 46  1  0
 23 47  1  0
 23 48  1  0
 23 49  1  0
 25 50  1  0
 25 51  1  0
 27 52  1  0
 28 53  1  0
 29 54  1  0
 30 55  1  0
M  CHG  1  20  -1
M  END
>  <UniqueID>  (50) 
45

>  <SMILES>  (50) 
C=c1c(=Cc2sc(=O)n(CC(=O)N3CCOCC3)c2[O-])cc(C)n1Cc1ccccc1F

>  <Energy>  (50) 
132.1159000785839

>  <Genealogy>  (50) 
C=c1c(=Cc2sc(=O)n(CC(=O)N3CCOCC3)c2[O-])cc(C)n1Cc1ccccc1F (protonated)
C=c1c(=Cc2sc(=O)n(CC(=O)N3CCOCC3)c2[O-])cc(C)n1Cc1ccccc1F (3D coordinates assigned)
C=c1c(=Cc2sc(=O)n(CC(=O)N3CCOCC3)c2[O-])cc(C)n1Cc1ccccc1F (nonaromatic ring conformer: 132.1159000785839 kcal/mol)

>  <smiles>  (50) 
C=c1c(=Cc2sc(=O)n(CC(=O)N3CCOCC3)c2O)cc(C)n1Cc1ccccc1F

>  <score_type>  (50) 
oracle

>  <origin>  (50) 
adg

>  <m_score__min__energy>  (50) 
-13.199999999999999

>  <m_primary>  (50) 
energy

$$$$
50:0
     RDKit          3D

 57 60  0  0  0  0  0  0  0  0999 V2000
   54.7750   25.9340   45.6240 N   0  0  0  0  0  0  0  0  0  0  0  0
   54.6870   24.2430   45.9690 S   0  0  0  0  0  0  0  0  0  0  0  0
   54.7710   24.0260   47.4540 O   0  0  0  0  0  0  0  0  0  0  0  0
   53.3650   23.7120   45.4880 O   0  0  0  0  0  0  0  0  0  0  0  0
   56.0100   23.3940   45.1520 C   0  0  0  0  0  0  0  0  0  0  0  0
   55.8210   22.0540   44.7770 C   0  0  0  0  0  0  0  0  0  0  0  0
   56.8510   21.3320   44.1720 C   0  0  0  0  0  0  0  0  0  0  0  0
   58.0840   21.9370   43.9350 C   0  0  0  0  0  0  0  0  0  0  0  0
   58.2870   23.2720   44.2920 C   0  0  0  0  0  0  0  0  0  0  0  0
   57.2560   24.0160   44.8880 C   0  0  0  0  0  0  0  0  0  0  0  0
   57.5130   25.4310   45.2190 C   0  0  0  0  0  0  0  0  0  0  0  0
   57.4520   25.8700   46.5490 C   0  0  0  0  0  0  0  0  0  0  0  0
   57.6970   27.2100   46.8600 C   0  0  0  0  0  0  0  0  0  0  0  0
   58.0060   28.1310   45.8450 C   0  0  0  0  0  0  0  0  0  0  0  0
   58.2610   29.5510   46.1810 C   0  0  0  0  0  0  0  0  0  0  0  0
   57.3610   30.4040   45.9560 O   0  0  0  0  0  0  0  0  0  0  0  0
   59.5140   29.9800   46.7510 N   0  0  0  0  0  0  0  0  0  0  0  0
   60.2420   29.1340   47.7080 C   0  0  0  0  0  0  0  0  0  0  0  0
   60.6720   29.9440   48.9410 C   0  0  0  0  0  0  0  0  0  0  0  0
   61.1830   31.3740   48.6140 C   0  0  0  0  0  0  0  0  0  0  0  0
   62.4380   31.6450   49.3250 N   0  0  0  0  0  0  0  0  0  0  0  0
   63.1140   32.9090   49.2190 C   0  0  0  0  0  0  0  0  0  0  0  0
   62.7300   33.7500   48.3600 O   0  0  0  0  0  0  0  0  0  0  0  0
   64.2660   33.2370   50.0920 C   0  0  0  0  0  0  0  0  0  0  0  0
   64.0900   34.0820   51.2030 C   0  0  0  0  0  0  0  0  0  0  0  0
   65.1680   34.3910   52.0370 C   0  0  0  0  0  0  0  0  0  0  0  0
   66.4320   33.8550   51.7770 C   0  0  0  0  0  0  0  0  0  0  0  0
   67.4740   34.1580   52.5910 F   0  0  0  0  0  0  0  0  0  0  0  0
   66.6180   33.0040   50.6850 C   0  0  0  0  0  0  0  0  0  0  0  0
   67.8410   32.4720   50.4400 F   0  0  0  0  0  0  0  0  0  0  0  0
   65.5410   32.6930   49.8470 C   0  0  0  0  0  0  0  0  0  0  0  0
   61.3630   31.5990   47.1020 C   0  0  0  0  0  0  0  0  0  0  0  0
   60.0570   31.2900   46.3620 C   0  0  0  0  0  0  0  0  0  0  0  0
   58.0310   27.6930   44.5100 C   0  0  0  0  0  0  0  0  0  0  0  0
   57.7860   26.3540   44.2000 C   0  0  0  0  0  0  0  0  0  0  0  0
   53.8270   26.3320   45.8060 H   0  0  0  0  0  0  0  0  0  0  0  0
   54.8514   21.5684   44.9619 H   0  0  0  0  0  0  0  0  0  0  0  0
   56.6893   20.2834   43.8817 H   0  0  0  0  0  0  0  0  0  0  0  0
   58.8973   21.3631   43.4668 H   0  0  0  0  0  0  0  0  0  0  0  0
   59.2626   23.7444   44.1047 H   0  0  0  0  0  0  0  0  0  0  0  0
   57.2103   25.1568   47.3508 H   0  0  0  0  0  0  0  0  0  0  0  0
   57.6476   27.5460   47.9063 H   0  0  0  0  0  0  0  0  0  0  0  0
   59.5886   28.3093   48.0290 H   0  0  0  0  0  0  0  0  0  0  0  0
   61.1431   28.7411   47.2144 H   0  0  0  0  0  0  0  0  0  0  0  0
   59.8073   30.0320   49.6152 H   0  0  0  0  0  0  0  0  0  0  0  0
   61.5139   29.4032   49.3979 H   0  0  0  0  0  0  0  0  0  0  0  0
   60.4130   32.0802   48.9581 H   0  0  0  0  0  0  0  0  0  0  0  0
   62.8900   30.8740   49.8670 H   0  0  0  0  0  0  0  0  0  0  0  0
   63.0964   34.5027   51.4168 H   0  0  0  0  0  0  0  0  0  0  0  0
   65.0212   35.0574   52.8997 H   0  0  0  0  0  0  0  0  0  0  0  0
   65.6919   32.0188   48.9910 H   0  0  0  0  0  0  0  0  0  0  0  0
   61.6437   32.6471   46.9215 H   0  0  0  0  0  0  0  0  0  0  0  0
   62.1530   30.9295   46.7309 H   0  0  0  0  0  0  0  0  0  0  0  0
   59.3178   32.0687   46.6013 H   0  0  0  0  0  0  0  0  0  0  0  0
   60.2685   31.2692   45.2827 H   0  0  0  0  0  0  0  0  0  0  0  0
   58.2451   28.4100   43.7038 H   0  0  0  0  0  0  0  0  0  0  0  0
   57.8073   26.0219   43.1516 H   0  0  0  0  0  0  0  0  0  0  0  0
  1  2  1  0
  2  3  2  0
  2  4  2  0
  2  5  1  0
  5  6  2  0
  6  7  1  0
  7  8  2  0
  8  9  1  0
  9 10  2  0
 10 11  1  0
 11 12  2  0
 12 13  1  0
 13 14  2  0
 14 15  1  0
 15 16  2  0
 15 17  1  0
 17 18  1  0
 18 19  1  0
 19 20  1  0
 20 21  1  0
 21 22  1  0
 22 23  2  0
 22 24  1  0
 24 25  2  0
 25 26  1  0
 26 27  2  0
 27 28  1  0
 27 29  1  0
 29 30  1  0
 29 31  2  0
 20 32  1  0
 32 33  1  0
 14 34  1  0
 34 35  2  0
 10  5  1  0
 35 11  1  0
 33 17  1  0
 31 24  1  0
  1 36  1  0
  6 37  1  0
  7 38  1  0
  8 39  1  0
  9 40  1  0
 12 41  1  0
 13 42  1  0
 18 43  1  0
 18 44  1  0
 19 45  1  0
 19 46  1  0
 20 47  1  0
 21 48  1  0
 25 49  1  0
 26 50  1  0
 31 51  1  0
 32 52  1  0
 32 53  1  0
 33 54  1  0
 33 55  1  0
 34 56  1  0
 35 57  1  0
M  CHG  1   1  -1
M  END
>  <UniqueID>  (51) 
46

>  <SMILES>  (51) 
[NH-]S(=O)(=O)c1ccccc1-c1ccc(C(=O)N2CCC(NC(=O)c3ccc(F)c(F)c3)CC2)cc1

>  <Energy>  (51) 
76.50898244470625

>  <Genealogy>  (51) 
[NH-]S(=O)(=O)c1ccccc1-c1ccc(C(=O)N2CCC(NC(=O)c3ccc(F)c(F)c3)CC2)cc1 (protonated)
[NH-]S(=O)(=O)c1ccccc1-c1ccc(C(=O)N2CCC(NC(=O)c3ccc(F)c(F)c3)CC2)cc1 (3D coordinates assigned)
[NH-]S(=O)(=O)c1ccccc1-c1ccc(C(=O)N2CCC(NC(=O)c3ccc(F)c(F)c3)CC2)cc1 (nonaromatic ring conformer: 76.50898244470625 kcal/mol)

>  <smiles>  (51) 
NS(=O)(=O)c1ccccc1-c1ccc(C(=O)N2CCC(NC(=O)c3ccc(F)c(F)c3)CC2)cc1

>  <score_type>  (51) 
oracle

>  <origin>  (51) 
adg

>  <m_score__min__energy>  (51) 
-11.75

>  <m_primary>  (51) 
energy

$$$$
51:0
     RDKit          3D

 69 73  0  0  0  0  0  0  0  0999 V2000
   61.7170   30.4000   51.2080 C   0  0  0  0  0  0  0  0  0  0  0  0
   61.6040   29.9540   49.8260 N   0  0  0  0  0  0  0  0  0  0  0  0
   60.4450   29.2460   49.3560 C   0  0  0  0  0  0  0  0  0  0  0  0
   59.5610   28.8840   50.1800 O   0  0  0  0  0  0  0  0  0  0  0  0
   60.2810   28.9120   47.9210 C   0  0  0  0  0  0  0  0  0  0  0  0
   60.8740   29.7030   46.9200 C   0  0  0  0  0  0  0  0  0  0  0  0
   60.7000   29.3870   45.5710 C   0  0  0  0  0  0  0  0  0  0  0  0
   59.9340   28.2800   45.2040 C   0  0  0  0  0  0  0  0  0  0  0  0
   59.3320   27.4780   46.1850 C   0  0  0  0  0  0  0  0  0  0  0  0
   58.4520   26.3230   45.7820 C   0  0  0  0  0  0  0  0  0  0  0  0
   57.0580   26.8170   45.3720 C   0  0  2  0  0  0  0  0  0  0  0  0
   56.8780   28.2060   45.7990 N   0  0  0  0  0  0  0  0  0  0  0  0
   56.2980   29.2400   44.9950 C   0  0  0  0  0  0  0  0  0  0  0  0
   55.1550   29.0540   44.4980 O   0  0  0  0  0  0  0  0  0  0  0  0
   56.9910   30.5120   44.7330 C   0  0  0  0  0  0  0  0  0  0  0  0
   57.3050   30.9110   43.4330 C   0  0  0  0  0  0  0  0  0  0  0  0
   57.9800   32.1160   43.2380 C   0  0  0  0  0  0  0  0  0  0  0  0
   58.2500   32.4760   42.0580 O   0  0  0  0  0  0  0  0  0  0  0  0
   58.3460   32.8880   44.3140 N   0  0  0  0  0  0  0  0  0  0  0  0
   59.0070   34.0750   44.1310 C   0  0  0  0  0  0  0  0  0  0  0  0
   59.3870   34.8560   45.2210 C   0  0  0  0  0  0  0  0  0  0  0  0
   59.0970   34.4260   46.5120 C   0  0  0  0  0  0  0  0  0  0  0  0
   58.4240   33.2120   46.7110 C   0  0  0  0  0  0  0  0  0  0  0  0
   58.1100   32.7250   47.9920 O   0  0  0  0  0  0  0  0  0  0  0  0
   59.0290   32.0880   48.8810 C   0  0  0  0  0  0  0  0  0  0  0  0
   60.3750   32.7590   48.8240 C   0  0  0  0  0  0  0  0  0  0  0  0
   61.2430   32.5040   47.7490 C   0  0  0  0  0  0  0  0  0  0  0  0
   62.4960   33.1220   47.6940 C   0  0  0  0  0  0  0  0  0  0  0  0
   62.8940   33.9900   48.7150 C   0  0  0  0  0  0  0  0  0  0  0  0
   62.0410   34.2400   49.7930 C   0  0  0  0  0  0  0  0  0  0  0  0
   60.7880   33.6240   49.8520 C   0  0  0  0  0  0  0  0  0  0  0  0
   58.0480   32.4550   45.5910 C   0  0  0  0  0  0  0  0  0  0  0  0
   57.3880   31.2820   45.7760 N   0  0  0  0  0  0  0  0  0  0  0  0
   55.9990   25.9550   45.9960 C   0  0  0  0  0  0  0  0  0  0  0  0
   54.7990   26.3430   45.9750 O   0  0  0  0  0  0  0  0  0  0  0  0
   56.3780   24.7430   46.6720 N   0  0  0  0  0  0  0  0  0  0  0  0
   56.6820   23.5780   46.1700 C   0  0  0  0  0  0  0  0  0  0  0  0
   56.7060   23.3160   44.7830 C   0  0  0  0  0  0  0  0  0  0  0  0
   57.0460   22.0390   44.3330 C   0  0  0  0  0  0  0  0  0  0  0  0
   57.3670   21.0380   45.2480 C   0  0  0  0  0  0  0  0  0  0  0  0
   57.3550   21.3320   46.6090 C   0  0  0  0  0  0  0  0  0  0  0  0
   57.0200   22.5800   47.0320 N   0  0  0  0  0  0  0  0  0  0  0  0
   59.4980   27.8070   47.5410 C   0  0  0  0  0  0  0  0  0  0  0  0
   61.5038   29.5584   51.8835 H   0  0  0  0  0  0  0  0  0  0  0  0
   62.7369   30.7686   51.3921 H   0  0  0  0  0  0  0  0  0  0  0  0
   60.9956   31.2098   51.3921 H   0  0  0  0  0  0  0  0  0  0  0  0
   62.4140   30.1180   49.1880 H   0  0  0  0  0  0  0  0  0  0  0  0
   61.4793   30.5770   47.2022 H   0  0  0  0  0  0  0  0  0  0  0  0
   61.1678   30.0121   44.7961 H   0  0  0  0  0  0  0  0  0  0  0  0
   59.8015   28.0349   44.1399 H   0  0  0  0  0  0  0  0  0  0  0  0
   58.9128   25.7979   44.9324 H   0  0  0  0  0  0  0  0  0  0  0  0
   58.3468   25.6436   46.6407 H   0  0  0  0  0  0  0  0  0  0  0  0
   56.9681   26.7580   44.2773 H   0  0  0  0  0  0  0  0  0  0  0  0
   57.0241   30.2839   42.5740 H   0  0  0  0  0  0  0  0  0  0  0  0
   59.2403   34.4152   43.1113 H   0  0  0  0  0  0  0  0  0  0  0  0
   59.9139   35.8083   45.0613 H   0  0  0  0  0  0  0  0  0  0  0  0
   59.3954   35.0379   47.3760 H   0  0  0  0  0  0  0  0  0  0  0  0
   58.6388   32.1478   49.9077 H   0  0  0  0  0  0  0  0  0  0  0  0
   59.1443   31.0370   48.5775 H   0  0  0  0  0  0  0  0  0  0  0  0
   60.9357   31.8157   46.9478 H   0  0  0  0  0  0  0  0  0  0  0  0
   63.1692   32.9250   46.8466 H   0  0  0  0  0  0  0  0  0  0  0  0
   63.8795   34.4766   48.6697 H   0  0  0  0  0  0  0  0  0  0  0  0
   62.3561   34.9224   50.5961 H   0  0  0  0  0  0  0  0  0  0  0  0
   60.1224   33.8168   50.7063 H   0  0  0  0  0  0  0  0  0  0  0  0
   56.4591   24.1107   44.0636 H   0  0  0  0  0  0  0  0  0  0  0  0
   57.0606   21.8225   43.2546 H   0  0  0  0  0  0  0  0  0  0  0  0
   57.6268   20.0276   44.8992 H   0  0  0  0  0  0  0  0  0  0  0  0
   57.6165   20.5546   47.3419 H   0  0  0  0  0  0  0  0  0  0  0  0
   59.0105   27.1940   48.3134 H   0  0  0  0  0  0  0  0  0  0  0  0
  1  2  1  0
  2  3  1  0
  3  4  2  0
  3  5  1  0
  5  6  2  0
  6  7  1  0
  7  8  2  0
  8  9  1  0
  9 10  1  0
 10 11  1  0
 11 12  1  0
 12 13  1  0
 13 14  2  0
 13 15  1  0
 15 16  2  0
 16 17  1  0
 17 18  2  0
 17 19  1  0
 19 20  1  0
 20 21  2  0
 21 22  1  0
 22 23  2  0
 23 24  1  0
 24 25  1  0
 25 26  1  0
 26 27  2  0
 27 28  1  0
 28 29  2  0
 29 30  1  0
 30 31  2  0
 23 32  1  0
 32 33  2  0
 11 34  1  0
 34 35  2  0
 34 36  1  0
 36 37  2  3
 37 38  1  0
 38 39  2  0
 39 40  1  0
 40 41  2  0
 41 42  1  0
  9 43  2  0
 43  5  1  0
 33 15  1  0
 42 37  1  0
 32 19  1  0
 31 26  1  0
  1 44  1  0
  1 45  1  0
  1 46  1  0
  2 47  1  0
  6 48  1  0
  7 49  1  0
  8 50  1  0
 10 51  1  0
 10 52  1  0
 11 53  1  6
 16 54  1  0
 20 55  1  0
 21 56  1  0
 22 57  1  0
 25 58  1  0
 25 59  1  0
 27 60  1  0
 28 61  1  0
 29 62  1  0
 30 63  1  0
 31 64  1  0
 38 65  1  0
 39 66  1  0
 40 67  1  0
 41 68  1  0
 43 69  1  0
M  CHG  2  12  -1  42  -1
M  END
>  <UniqueID>  (52) 
47

>  <SMILES>  (52) 
CNC(=O)c1cccc(C[C@H]([N-]C(=O)c2cc(=O)n3cccc(OCc4ccccc4)c3n2)C(=O)N=c2cccc[n-]2)c1

>  <Energy>  (52) 
89.3101941290957

>  <Genealogy>  (52) 
CNC(=O)c1cccc(CC([N-]C(=O)c2cc(=O)n3cccc(OCc4ccccc4)c3n2)C(=O)N=c2cccc[n-]2)c1 (protonated)
CNC(=O)c1cccc(C[C@H]([N-]C(=O)c2cc(=O)n3cccc(OCc4ccccc4)c3n2)C(=O)N=c2cccc[n-]2)c1 (chirality)
CNC(=O)c1cccc(C[C@H]([N-]C(=O)c2cc(=O)n3cccc(OCc4ccccc4)c3n2)C(=O)N=c2cccc[n-]2)c1 (3D coordinates assigned)
CNC(=O)c1cccc(C[C@H]([N-]C(=O)c2cc(=O)n3cccc(OCc4ccccc4)c3n2)C(=O)N=c2cccc[n-]2)c1 (optimized conformer: 89.3101941290957 kcal/mol)

>  <smiles>  (52) 
CNC(=O)c1cccc(CC(NC(=O)c2cc(=O)n3cccc(OCc4ccccc4)c3n2)C(=O)N=c2cccc[nH]2)c1

>  <score_type>  (52) 
oracle

>  <origin>  (52) 
adg

>  <m_score__min__energy>  (52) 
-14.789999999999999

>  <m_primary>  (52) 
energy

$$$$
52:0
     RDKit          3D

 54 57  0  0  0  0  0  0  0  0999 V2000
   60.7560   27.0120   49.6240 O   0  0  0  0  0  0  0  0  0  0  0  0
   60.3200   28.1340   49.2460 C   0  0  0  0  0  0  0  0  0  0  0  0
   60.3690   29.2870   50.1800 C   0  0  0  0  0  0  0  0  0  0  0  0
   61.6030   29.8720   50.5210 C   0  0  0  0  0  0  0  0  0  0  0  0
   61.6540   30.9640   51.3920 C   0  0  0  0  0  0  0  0  0  0  0  0
   60.4760   31.4910   51.9270 C   0  0  0  0  0  0  0  0  0  0  0  0
   59.2440   30.9280   51.5870 C   0  0  0  0  0  0  0  0  0  0  0  0
   59.1860   29.8370   50.7150 C   0  0  0  0  0  0  0  0  0  0  0  0
   59.7810   28.2700   47.8750 C   0  0  0  0  0  0  0  0  0  0  0  0
   58.6440   27.5400   47.4930 C   0  0  0  0  0  0  0  0  0  0  0  0
   58.0640   27.7420   46.2430 C   0  0  0  0  0  0  0  0  0  0  0  0
   58.6020   28.6860   45.3560 C   0  0  0  0  0  0  0  0  0  0  0  0
   57.9260   29.0410   44.1460 N   0  0  0  0  0  0  0  0  0  0  0  0
   56.8430   30.3910   44.0430 S   0  0  0  0  0  0  0  0  0  0  0  0
   55.6150   30.1150   44.8660 O   0  0  0  0  0  0  0  0  0  0  0  0
   56.4390   30.6060   42.6120 O   0  0  0  0  0  0  0  0  0  0  0  0
   57.6830   31.8300   44.6230 C   0  0  0  0  0  0  0  0  0  0  0  0
   58.0750   32.8130   43.7030 C   0  0  0  0  0  0  0  0  0  0  0  0
   58.8600   33.8910   44.1170 C   0  0  0  0  0  0  0  0  0  0  0  0
   59.2640   33.9900   45.4500 C   0  0  0  0  0  0  0  0  0  0  0  0
   58.8680   33.0210   46.3820 C   0  0  0  0  0  0  0  0  0  0  0  0
   59.3920   33.1410   48.0640 S   0  0  0  0  0  0  0  0  0  0  0  0
   58.5000   32.2840   48.9220 O   0  0  0  0  0  0  0  0  0  0  0  0
   59.2530   34.5650   48.5280 O   0  0  0  0  0  0  0  0  0  0  0  0
   61.0510   32.6210   48.2610 N   0  0  0  0  0  0  0  0  0  0  0  0
   61.7470   33.4780   49.2380 C   0  0  0  0  0  0  0  0  0  0  0  0
   63.2680   33.4040   49.0350 C   0  0  0  0  0  0  0  0  0  0  0  0
   63.6970   33.8450   47.7540 O   0  0  0  0  0  0  0  0  0  0  0  0
   62.7060   33.7230   46.7440 C   0  0  0  0  0  0  0  0  0  0  0  0
   61.7530   32.5360   46.9620 C   0  0  0  0  0  0  0  0  0  0  0  0
   58.0730   31.9430   45.9650 C   0  0  0  0  0  0  0  0  0  0  0  0
   59.7880   29.3490   45.6950 C   0  0  0  0  0  0  0  0  0  0  0  0
   60.3780   29.1460   46.9480 C   0  0  0  0  0  0  0  0  0  0  0  0
   61.4860   29.8550   47.2790 F   0  0  0  0  0  0  0  0  0  0  0  0
   62.5344   29.4667   50.0988 H   0  0  0  0  0  0  0  0  0  0  0  0
   62.6242   31.4096   51.6569 H   0  0  0  0  0  0  0  0  0  0  0  0
   60.5188   32.3482   52.6151 H   0  0  0  0  0  0  0  0  0  0  0  0
   58.3164   31.3444   52.0067 H   0  0  0  0  0  0  0  0  0  0  0  0
   58.2113   29.4048   50.4445 H   0  0  0  0  0  0  0  0  0  0  0  0
   58.2088   26.8042   48.1852 H   0  0  0  0  0  0  0  0  0  0  0  0
   57.1791   27.1580   45.9498 H   0  0  0  0  0  0  0  0  0  0  0  0
   57.7629   32.7346   42.6511 H   0  0  0  0  0  0  0  0  0  0  0  0
   59.1603   34.6626   43.3928 H   0  0  0  0  0  0  0  0  0  0  0  0
   59.8956   34.8319   45.7699 H   0  0  0  0  0  0  0  0  0  0  0  0
   61.4150   34.5185   49.1073 H   0  0  0  0  0  0  0  0  0  0  0  0
   61.5070   33.1267   50.2524 H   0  0  0  0  0  0  0  0  0  0  0  0
   63.7508   34.0323   49.7979 H   0  0  0  0  0  0  0  0  0  0  0  0
   63.5519   32.3448   49.1213 H   0  0  0  0  0  0  0  0  0  0  0  0
   62.1115   34.6483   46.7255 H   0  0  0  0  0  0  0  0  0  0  0  0
   63.2315   33.5466   45.7938 H   0  0  0  0  0  0  0  0  0  0  0  0
   61.0061   32.5272   46.1545 H   0  0  0  0  0  0  0  0  0  0  0  0
   62.3525   31.6137   46.9593 H   0  0  0  0  0  0  0  0  0  0  0  0
   57.7543   31.1833   46.6939 H   0  0  0  0  0  0  0  0  0  0  0  0
   60.2583   30.0327   44.9730 H   0  0  0  0  0  0  0  0  0  0  0  0
  1  2  2  0
  2  3  1  0
  3  4  2  0
  4  5  1  0
  5  6  2  0
  6  7  1  0
  7  8  2  0
  2  9  1  0
  9 10  2  0
 10 11  1  0
 11 12  2  0
 12 13  1  0
 13 14  1  0
 14 15  2  0
 14 16  2  0
 14 17  1  0
 17 18  2  0
 18 19  1  0
 19 20  2  0
 20 21  1  0
 21 22  1  0
 22 23  2  0
 22 24  2  0
 22 25  1  0
 25 26  1  0
 26 27  1  0
 27 28  1  0
 28 29  1  0
 29 30  1  0
 21 31  2  0
 12 32  1  0
 32 33  2  0
 33 34  1  0
  8  3  1  0
 33  9  1  0
 31 17  1  0
 30 25  1  0
  4 35  1  0
  5 36  1  0
  6 37  1  0
  7 38  1  0
  8 39  1  0
 10 40  1  0
 11 41  1  0
 18 42  1  0
 19 43  1  0
 20 44  1  0
 26 45  1  0
 26 46  1  0
 27 47  1  0
 27 48  1  0
 29 49  1  0
 29 50  1  0
 30 51  1  0
 30 52  1  0
 31 53  1  0
 32 54  1  0
M  CHG  1  13  -1
M  END
>  <UniqueID>  (53) 
48

>  <SMILES>  (53) 
O=C(c1ccccc1)c1ccc([N-]S(=O)(=O)c2cccc(S(=O)(=O)N3CCOCC3)c2)cc1F

>  <Energy>  (53) 
80.11650281719616

>  <Genealogy>  (53) 
O=C(c1ccccc1)c1ccc([N-]S(=O)(=O)c2cccc(S(=O)(=O)N3CCOCC3)c2)cc1F (protonated)
O=C(c1ccccc1)c1ccc([N-]S(=O)(=O)c2cccc(S(=O)(=O)N3CCOCC3)c2)cc1F (3D coordinates assigned)
O=C(c1ccccc1)c1ccc([N-]S(=O)(=O)c2cccc(S(=O)(=O)N3CCOCC3)c2)cc1F (nonaromatic ring conformer: 80.11650281719616 kcal/mol)

>  <smiles>  (53) 
O=C(c1ccccc1)c1ccc(NS(=O)(=O)c2cccc(S(=O)(=O)N3CCOCC3)c2)cc1F

>  <score_type>  (53) 
oracle

>  <origin>  (53) 
adg

>  <m_score__min__energy>  (53) 
-13.1

>  <m_primary>  (53) 
energy

$$$$
53:0
     RDKit          3D

 48 51  0  0  0  0  0  0  0  0999 V2000
   59.3090   29.7720   44.5840 C   0  0  0  0  0  0  0  0  0  0  0  0
   59.2810   29.3750   45.8660 C   0  0  0  0  0  0  0  0  0  0  0  0
   58.5580   28.2900   46.3750 C   0  0  0  0  0  0  0  0  0  0  0  0
   57.7870   27.4260   45.6870 C   0  0  0  0  0  0  0  0  0  0  0  0
   57.1910   26.2080   46.2670 C   0  0  0  0  0  0  0  0  0  0  0  0
   57.9160   25.1440   46.6500 N   0  0  0  0  0  0  0  0  0  0  0  0
   56.9810   24.2420   47.0190 C   0  0  0  0  0  0  0  0  0  0  0  0
   57.2770   23.0990   47.4560 O   0  0  0  0  0  0  0  0  0  0  0  0
   55.7050   24.6540   46.8670 N   0  0  0  0  0  0  0  0  0  0  0  0
   55.8530   25.8960   46.3780 C   0  0  0  0  0  0  0  0  0  0  0  0
   54.7880   26.7020   45.9960 O   0  0  0  0  0  0  0  0  0  0  0  0
   58.8300   28.2460   47.7340 C   0  0  0  0  0  0  0  0  0  0  0  0
   59.6700   29.3040   48.0040 C   0  0  0  0  0  0  0  0  0  0  0  0
   60.1760   29.6230   49.3510 C   0  0  0  0  0  0  0  0  0  0  0  0
   60.9370   28.7960   49.9230 O   0  0  0  0  0  0  0  0  0  0  0  0
   59.7770   30.8260   50.0370 N   0  0  0  0  0  0  0  0  0  0  0  0
   58.5390   31.5250   49.6720 C   0  0  0  0  0  0  0  0  0  0  0  0
   57.9450   32.2070   50.9060 C   0  0  0  0  0  0  0  0  0  0  0  0
   58.9130   33.0130   51.5500 O   0  0  0  0  0  0  0  0  0  0  0  0
   59.9460   32.1970   52.0670 C   0  0  0  0  0  0  0  0  0  0  0  0
   60.7150   31.5050   50.9370 C   0  0  0  0  0  0  0  0  0  0  0  0
   59.9560   29.9930   46.8720 N   0  0  0  0  0  0  0  0  0  0  0  0
   60.9290   31.0920   46.7460 C   0  0  0  0  0  0  0  0  0  0  0  0
   60.2440   32.4270   46.8890 C   0  0  0  0  0  0  0  0  0  0  0  0
   60.7120   33.3780   47.8110 C   0  0  0  0  0  0  0  0  0  0  0  0
   60.0720   34.6150   47.9340 C   0  0  0  0  0  0  0  0  0  0  0  0
   58.9670   34.9160   47.1320 C   0  0  0  0  0  0  0  0  0  0  0  0
   58.4990   33.9780   46.2060 C   0  0  0  0  0  0  0  0  0  0  0  0
   57.4020   34.2790   45.4060 O   0  0  0  0  0  0  0  0  0  0  0  0
   59.1350   32.7380   46.0830 C   0  0  0  0  0  0  0  0  0  0  0  0
   59.9141   30.6426   44.2909 H   0  0  0  0  0  0  0  0  0  0  0  0
   58.7269   29.2267   43.8265 H   0  0  0  0  0  0  0  0  0  0  0  0
   57.5896   27.6423   44.6267 H   0  0  0  0  0  0  0  0  0  0  0  0
   58.4489   27.5092   48.4564 H   0  0  0  0  0  0  0  0  0  0  0  0
   58.7601   32.2835   48.9066 H   0  0  0  0  0  0  0  0  0  0  0  0
   57.8151   30.7979   49.2755 H   0  0  0  0  0  0  0  0  0  0  0  0
   57.0985   32.8378   50.5969 H   0  0  0  0  0  0  0  0  0  0  0  0
   57.6080   31.4313   51.6094 H   0  0  0  0  0  0  0  0  0  0  0  0
   60.6421   32.8214   52.6463 H   0  0  0  0  0  0  0  0  0  0  0  0
   59.4958   31.4255   52.7089 H   0  0  0  0  0  0  0  0  0  0  0  0
   61.2849   32.2562   50.3705 H   0  0  0  0  0  0  0  0  0  0  0  0
   61.4033   30.7635   51.3688 H   0  0  0  0  0  0  0  0  0  0  0  0
   61.6918   30.9912   47.5321 H   0  0  0  0  0  0  0  0  0  0  0  0
   61.3971   31.0386   45.7520 H   0  0  0  0  0  0  0  0  0  0  0  0
   61.5856   33.1485   48.4388 H   0  0  0  0  0  0  0  0  0  0  0  0
   60.4385   35.3527   48.6630 H   0  0  0  0  0  0  0  0  0  0  0  0
   58.4658   35.8903   47.2293 H   0  0  0  0  0  0  0  0  0  0  0  0
   58.7657   32.0032   45.3525 H   0  0  0  0  0  0  0  0  0  0  0  0
  1  2  2  0
  2  3  1  0
  3  4  2  3
  4  5  1  0
  5  6  1  0
  6  7  1  0
  7  8  2  0
  7  9  1  0
  9 10  1  0
 10 11  1  0
  3 12  1  0
 12 13  2  0
 13 14  1  0
 14 15  2  0
 14 16  1  0
 16 17  1  0
 17 18  1  0
 18 19  1  0
 19 20  1  0
 20 21  1  0
 13 22  1  0
 22 23  1  0
 23 24  1  0
 24 25  2  0
 25 26  1  0
 26 27  2  0
 27 28  1  0
 28 29  1  0
 28 30  2  0
 22  2  1  0
 30 24  1  0
 10  5  2  0
 21 16  1  0
  1 31  1  0
  1 32  1  0
  4 33  1  0
 12 34  1  0
 17 35  1  0
 17 36  1  0
 18 37  1  0
 18 38  1  0
 20 39  1  0
 20 40  1  0
 21 41  1  0
 21 42  1  0
 23 43  1  0
 23 44  1  0
 25 45  1  0
 26 46  1  0
 27 47  1  0
 30 48  1  0
M  CHG  4   6  -1   9  -1  11  -1  29  -1
M  END
>  <UniqueID>  (54) 
49

>  <SMILES>  (54) 
C=c1c(=Cc2[n-]c(=O)[n-]c2[O-])cc(C(=O)N2CCOCC2)n1Cc1cccc([O-])c1

>  <Energy>  (54) 
123.5317485377539

>  <Genealogy>  (54) 
C=c1c(=Cc2[n-]c(=O)[n-]c2[O-])cc(C(=O)N2CCOCC2)n1Cc1cccc([O-])c1 (protonated)
C=c1c(=Cc2[n-]c(=O)[n-]c2[O-])cc(C(=O)N2CCOCC2)n1Cc1cccc([O-])c1 (3D coordinates assigned)
C=c1c(=Cc2[n-]c(=O)[n-]c2[O-])cc(C(=O)N2CCOCC2)n1Cc1cccc([O-])c1 (nonaromatic ring conformer: 123.5317485377539 kcal/mol)

>  <smiles>  (54) 
C=c1c(=Cc2[nH]c(=O)[nH]c2O)cc(C(=O)N2CCOCC2)n1Cc1cccc(O)c1

>  <score_type>  (54) 
oracle

>  <origin>  (54) 
adg

>  <m_score__min__energy>  (54) 
-16.960000000000001

>  <m_primary>  (54) 
energy

$$$$
54:0
     RDKit          3D

 39 41  0  0  0  0  0  0  0  0999 V2000
   58.8210   28.1470   46.0270 O   0  0  0  0  0  0  0  0  0  0  0  0
   57.7100   27.6290   45.7280 C   0  0  0  0  0  0  0  0  0  0  0  0
   56.7840   28.3360   44.8840 N   0  0  0  0  0  0  0  0  0  0  0  0
   57.0000   29.6670   44.3890 C   0  0  0  0  0  0  0  0  0  0  0  0
   56.8670   29.9740   43.0230 C   0  0  0  0  0  0  0  0  0  0  0  0
   57.1120   31.2710   42.5650 C   0  0  0  0  0  0  0  0  0  0  0  0
   57.5100   32.2680   43.4580 C   0  0  0  0  0  0  0  0  0  0  0  0
   57.6770   31.9690   44.8180 C   0  0  0  0  0  0  0  0  0  0  0  0
   58.2160   33.2180   45.9420 S   0  0  0  0  0  0  0  0  0  0  0  0
   57.0150   33.8360   46.6050 O   0  0  0  0  0  0  0  0  0  0  0  0
   58.9260   34.2990   45.1750 O   0  0  0  0  0  0  0  0  0  0  0  0
   59.2900   32.5800   47.1680 N   0  0  0  0  0  0  0  0  0  0  0  0
   59.2300   33.3830   48.3950 C   0  0  0  0  0  0  0  0  0  0  0  0
   60.4000   34.3550   48.3910 C   0  0  0  0  0  0  0  0  0  0  0  0
   61.3500   33.8520   47.3220 C   0  0  0  0  0  0  0  0  0  0  0  0
   60.6870   32.6190   46.7230 C   0  0  0  0  0  0  0  0  0  0  0  0
   57.4210   30.6690   45.2760 C   0  0  0  0  0  0  0  0  0  0  0  0
   57.3820   26.2820   46.2480 C   0  0  0  0  0  0  0  0  0  0  0  0
   56.0430   25.8730   46.3790 C   0  0  0  0  0  0  0  0  0  0  0  0
   55.0020   26.7150   46.0070 O   0  0  0  0  0  0  0  0  0  0  0  0
   55.7540   24.6350   46.8580 N   0  0  0  0  0  0  0  0  0  0  0  0
   56.7390   23.7760   47.2230 C   0  0  0  0  0  0  0  0  0  0  0  0
   56.4460   22.6340   47.6600 O   0  0  0  0  0  0  0  0  0  0  0  0
   58.0390   24.1500   47.1210 N   0  0  0  0  0  0  0  0  0  0  0  0
   58.3830   25.3770   46.6510 C   0  0  0  0  0  0  0  0  0  0  0  0
   59.6010   25.6970   46.6080 O   0  0  0  0  0  0  0  0  0  0  0  0
   55.9200   27.8420   44.5660 H   0  0  0  0  0  0  0  0  0  0  0  0
   56.5687   29.1895   42.3120 H   0  0  0  0  0  0  0  0  0  0  0  0
   56.9910   31.5075   41.4976 H   0  0  0  0  0  0  0  0  0  0  0  0
   57.6929   33.2898   43.0941 H   0  0  0  0  0  0  0  0  0  0  0  0
   58.2830   33.9418   48.4273 H   0  0  0  0  0  0  0  0  0  0  0  0
   59.2854   32.7288   49.2776 H   0  0  0  0  0  0  0  0  0  0  0  0
   60.0537   35.3706   48.1488 H   0  0  0  0  0  0  0  0  0  0  0  0
   60.8880   34.4057   49.3755 H   0  0  0  0  0  0  0  0  0  0  0  0
   61.4982   34.6206   46.5491 H   0  0  0  0  0  0  0  0  0  0  0  0
   62.3401   33.6163   47.7393 H   0  0  0  0  0  0  0  0  0  0  0  0
   60.7254   32.6734   45.6250 H   0  0  0  0  0  0  0  0  0  0  0  0
   61.2131   31.7106   47.0518 H   0  0  0  0  0  0  0  0  0  0  0  0
   57.5516   30.4321   46.3422 H   0  0  0  0  0  0  0  0  0  0  0  0
  1  2  2  0
  2  3  1  0
  3  4  1  0
  4  5  2  0
  5  6  1  0
  6  7  2  0
  7  8  1  0
  8  9  1  0
  9 10  2  0
  9 11  2  0
  9 12  1  0
 12 13  1  0
 13 14  1  0
 14 15  1  0
 15 16  1  0
  8 17  2  0
  2 18  1  0
 18 19  2  0
 19 20  1  0
 19 21  1  0
 21 22  1  0
 22 23  2  0
 22 24  1  0
 24 25  1  0
 25 26  2  0
 17  4  1  0
 25 18  1  0
 16 12  1  0
  3 27  1  0
  5 28  1  0
  6 29  1  0
  7 30  1  0
 13 31  1  0
 13 32  1  0
 14 33  1  0
 14 34  1  0
 15 35  1  0
 15 36  1  0
 16 37  1  0
 16 38  1  0
 17 39  1  0
M  CHG  3  20  -1  21  -1  24  -1
M  END
>  <UniqueID>  (55) 
50

>  <SMILES>  (55) 
O=C(Nc1cccc(S(=O)(=O)N2CCCC2)c1)c1c([O-])[n-]c(=O)[n-]c1=O

>  <Energy>  (55) 
51.651117504429195

>  <Genealogy>  (55) 
O=C(Nc1cccc(S(=O)(=O)N2CCCC2)c1)c1c([O-])[n-]c(=O)[n-]c1=O (protonated)
O=C(Nc1cccc(S(=O)(=O)N2CCCC2)c1)c1c([O-])[n-]c(=O)[n-]c1=O (3D coordinates assigned)
O=C(Nc1cccc(S(=O)(=O)N2CCCC2)c1)c1c([O-])[n-]c(=O)[n-]c1=O (nonaromatic ring conformer: 51.651117504429195 kcal/mol)

>  <smiles>  (55) 
O=C(Nc1cccc(S(=O)(=O)N2CCCC2)c1)c1c(O)[nH]c(=O)[nH]c1=O

>  <score_type>  (55) 
oracle

>  <origin>  (55) 
adg

>  <m_score__min__energy>  (55) 
-16.23

>  <m_primary>  (55) 
energy

$$$$
55:0
     RDKit          3D

 51 53  0  0  0  0  0  0  0  0999 V2000
   57.7750   32.7160   48.4050 C   0  0  0  0  0  0  0  0  0  0  0  0
   58.1710   33.0480   47.0000 C   0  0  0  0  0  0  0  0  0  0  0  0
   57.4860   32.5700   45.9240 N   0  0  0  0  0  0  0  0  0  0  0  0
   57.9950   33.0020   44.7480 C   0  0  0  0  0  0  0  0  0  0  0  0
   57.3990   32.6860   43.4140 C   0  0  0  0  0  0  0  0  0  0  0  0
   57.1350   31.1890   43.2880 C   0  0  0  0  0  0  0  0  0  0  0  0
   56.3540   30.7310   44.4290 N   0  0  0  0  0  0  0  0  0  0  0  0
   56.5320   29.4420   45.0250 C   0  0  0  0  0  0  0  0  0  0  0  0
   55.5390   28.6790   45.1690 O   0  0  0  0  0  0  0  0  0  0  0  0
   57.8420   29.0220   45.4570 N   0  0  0  0  0  0  0  0  0  0  0  0
   58.9980   29.8840   45.1830 C   0  0  0  0  0  0  0  0  0  0  0  0
   60.2690   29.2990   45.8080 C   0  0  0  0  0  0  0  0  0  0  0  0
   60.0110   28.8160   47.1830 N   0  0  0  0  0  0  0  0  0  0  0  0
   59.5940   29.8540   48.1760 C   0  0  0  0  0  0  0  0  0  0  0  0
   60.5540   31.0470   48.3150 C   0  0  0  0  0  0  0  0  0  0  0  0
   61.6700   30.5680   49.2230 C   0  0  0  0  0  0  0  0  0  0  0  0
   61.0410   29.5130   50.1280 C   0  0  0  0  0  0  0  0  0  0  0  0
   59.6350   29.2590   49.5910 C   0  0  0  0  0  0  0  0  0  0  0  0
   59.0600   27.6670   47.1650 C   0  0  0  0  0  0  0  0  0  0  0  0
   58.0660   27.6660   45.9790 C   0  0  0  0  0  0  0  0  0  0  0  0
   59.3040   34.0320   44.9960 S   0  0  0  0  0  0  0  0  0  0  0  0
   59.2220   33.9090   46.6730 C   0  0  0  0  0  0  0  0  0  0  0  0
   60.1650   34.5690   47.6270 C   0  0  0  0  0  0  0  0  0  0  0  0
   58.4239   33.2600   49.1071 H   0  0  0  0  0  0  0  0  0  0  0  0
   56.7280   33.0103   48.5701 H   0  0  0  0  0  0  0  0  0  0  0  0
   57.8821   31.6338   48.5701 H   0  0  0  0  0  0  0  0  0  0  0  0
   56.6510   31.9450   45.9950 H   0  0  0  0  0  0  0  0  0  0  0  0
   56.4503   33.2315   43.3030 H   0  0  0  0  0  0  0  0  0  0  0  0
   58.1055   32.9901   42.6276 H   0  0  0  0  0  0  0  0  0  0  0  0
   56.5771   30.9928   42.3605 H   0  0  0  0  0  0  0  0  0  0  0  0
   58.0939   30.6506   43.2629 H   0  0  0  0  0  0  0  0  0  0  0  0
   59.1362   29.9680   44.0949 H   0  0  0  0  0  0  0  0  0  0  0  0
   58.8120   30.8756   45.6213 H   0  0  0  0  0  0  0  0  0  0  0  0
   60.6188   28.4580   45.1912 H   0  0  0  0  0  0  0  0  0  0  0  0
   61.0331   30.0891   45.8521 H   0  0  0  0  0  0  0  0  0  0  0  0
   58.6094   30.1775   47.8075 H   0  0  0  0  0  0  0  0  0  0  0  0
   60.9552   31.3337   47.3317 H   0  0  0  0  0  0  0  0  0  0  0  0
   60.0466   31.9324   48.7256 H   0  0  0  0  0  0  0  0  0  0  0  0
   62.4851   30.1279   48.6297 H   0  0  0  0  0  0  0  0  0  0  0  0
   62.1042   31.3950   49.8040 H   0  0  0  0  0  0  0  0  0  0  0  0
   61.6320   28.5858   50.0975 H   0  0  0  0  0  0  0  0  0  0  0  0
   61.0105   29.8545   51.1732 H   0  0  0  0  0  0  0  0  0  0  0  0
   59.4316   28.1786   49.5549 H   0  0  0  0  0  0  0  0  0  0  0  0
   58.8733   29.7188   50.2378 H   0  0  0  0  0  0  0  0  0  0  0  0
   59.6469   26.7377   47.1204 H   0  0  0  0  0  0  0  0  0  0  0  0
   58.4526   27.7533   48.0781 H   0  0  0  0  0  0  0  0  0  0  0  0
   58.4724   27.0365   45.1737 H   0  0  0  0  0  0  0  0  0  0  0  0
   57.1034   27.2732   46.3383 H   0  0  0  0  0  0  0  0  0  0  0  0
   59.8541   34.3514   48.6595 H   0  0  0  0  0  0  0  0  0  0  0  0
   61.1824   34.1848   47.4617 H   0  0  0  0  0  0  0  0  0  0  0  0
   60.1524   35.6564   47.4617 H   0  0  0  0  0  0  0  0  0  0  0  0
  1  2  1  0
  2  3  1  0
  3  4  2  0
  4  5  1  0
  5  6  1  0
  6  7  1  0
  7  8  1  0
  8  9  2  0
  8 10  1  0
 10 11  1  0
 11 12  1  0
 12 13  1  0
 13 14  1  0
 14 15  1  0
 15 16  1  0
 16 17  1  0
 17 18  1  0
 13 19  1  0
 19 20  1  0
  4 21  1  0
 21 22  1  0
 22 23  1  0
 22  2  2  0
 20 10  1  0
 18 14  1  0
  1 24  1  0
  1 25  1  0
  1 26  1  0
  3 27  1  0
  5 28  1  0
  5 29  1  0
  6 30  1  0
  6 31  1  0
 11 32  1  0
 11 33  1  0
 12 34  1  0
 12 35  1  0
 14 36  1  0
 15 37  1  0
 15 38  1  0
 16 39  1  0
 16 40  1  0
 17 41  1  0
 17 42  1  0
 18 43  1  0
 18 44  1  0
 19 45  1  0
 19 46  1  0
 20 47  1  0
 20 48  1  0
 23 49  1  0
 23 50  1  0
 23 51  1  0
M  CHG  2   3   1   7  -1
M  END
>  <UniqueID>  (56) 
51

>  <SMILES>  (56) 
Cc1[nH+]c(CC[N-]C(=O)N2CCN(C3CCCC3)CC2)sc1C

>  <Energy>  (56) 
86.84834628905838

>  <Genealogy>  (56) 
Cc1[nH+]c(CC[N-]C(=O)N2CCN(C3CCCC3)CC2)sc1C (protonated)
Cc1[nH+]c(CC[N-]C(=O)N2CCN(C3CCCC3)CC2)sc1C (3D coordinates assigned)
Cc1[nH+]c(CC[N-]C(=O)N2CCN(C3CCCC3)CC2)sc1C (nonaromatic ring conformer: 86.84834628905838 kcal/mol)

>  <smiles>  (56) 
Cc1nc(CCNC(=O)N2CCN(C3CCCC3)CC2)sc1C

>  <score_type>  (56) 
oracle

>  <origin>  (56) 
adg

>  <m_score__min__energy>  (56) 
-8.0899999999999999

>  <m_primary>  (56) 
energy

$$$$
56:0
     RDKit          3D

 52 54  0  0  0  0  0  0  0  0999 V2000
   58.0180   32.7100   43.0430 O   0  0  0  0  0  0  0  0  0  0  0  0
   57.3870   32.5780   44.1240 C   0  0  0  0  0  0  0  0  0  0  0  0
   57.4840   33.6620   45.1710 C   0  0  0  0  0  0  0  0  0  0  0  0
   58.6760   34.6050   44.9430 C   0  0  0  0  0  0  0  0  0  0  0  0
   59.6350   34.5960   46.0990 C   0  0  0  0  0  0  0  0  0  0  0  0
   59.5910   35.5310   46.9430 O   0  0  0  0  0  0  0  0  0  0  0  0
   60.5510   33.5010   46.2670 N   0  0  0  0  0  0  0  0  0  0  0  0
   61.6050   33.4740   47.2430 C   0  0  0  0  0  0  0  0  0  0  0  0
   61.3860   33.8820   48.5710 C   0  0  0  0  0  0  0  0  0  0  0  0
   62.4380   33.8730   49.4940 C   0  0  0  0  0  0  0  0  0  0  0  0
   63.7150   33.4690   49.0970 C   0  0  0  0  0  0  0  0  0  0  0  0
   64.7330   33.4610   49.9930 F   0  0  0  0  0  0  0  0  0  0  0  0
   63.9460   33.0810   47.7750 C   0  0  0  0  0  0  0  0  0  0  0  0
   62.8970   33.0920   46.8490 C   0  0  0  0  0  0  0  0  0  0  0  0
   56.7090   31.3390   44.3720 N   0  0  0  0  0  0  0  0  0  0  0  0
   57.3110   30.1330   44.8600 C   0  0  0  0  0  0  0  0  0  0  0  0
   58.7020   30.0740   44.9900 C   0  0  0  0  0  0  0  0  0  0  0  0
   59.3200   28.9100   45.4530 C   0  0  0  0  0  0  0  0  0  0  0  0
   58.5540   27.7870   45.7900 C   0  0  0  0  0  0  0  0  0  0  0  0
   59.2290   26.6030   46.2430 N   0  0  0  0  0  0  0  0  0  0  0  0
   59.4520   26.2260   47.6060 C   0  0  0  0  0  0  0  0  0  0  0  0
   58.5860   25.5690   48.2430 O   0  0  0  0  0  0  0  0  0  0  0  0
   60.6540   26.6520   48.2550 N   0  0  0  0  0  0  0  0  0  0  0  0
   60.6750   27.3640   49.5280 C   0  0  0  0  0  0  0  0  0  0  0  0
   60.1800   28.7730   49.3460 C   0  0  0  0  0  0  0  0  0  0  0  0
   59.2810   29.3410   50.2640 C   0  0  0  0  0  0  0  0  0  0  0  0
   58.8070   30.6430   50.0720 C   0  0  0  0  0  0  0  0  0  0  0  0
   59.2240   31.3840   48.9610 C   0  0  0  0  0  0  0  0  0  0  0  0
   60.1150   30.8230   48.0410 C   0  0  0  0  0  0  0  0  0  0  0  0
   60.5910   29.5220   48.2300 C   0  0  0  0  0  0  0  0  0  0  0  0
   57.1610   27.8250   45.6050 C   0  0  0  0  0  0  0  0  0  0  0  0
   56.5420   28.9870   45.1310 C   0  0  0  0  0  0  0  0  0  0  0  0
   55.1730   28.9830   44.8980 O   0  0  0  0  0  0  0  0  0  0  0  0
   56.5577   34.2549   45.1499 H   0  0  0  0  0  0  0  0  0  0  0  0
   57.6318   33.1705   46.1440 H   0  0  0  0  0  0  0  0  0  0  0  0
   59.2111   34.2868   44.0361 H   0  0  0  0  0  0  0  0  0  0  0  0
   58.2831   35.6270   44.8378 H   0  0  0  0  0  0  0  0  0  0  0  0
   60.3830   32.6350   45.7040 H   0  0  0  0  0  0  0  0  0  0  0  0
   60.3840   34.2094   48.8854 H   0  0  0  0  0  0  0  0  0  0  0  0
   62.2590   34.1845   50.5337 H   0  0  0  0  0  0  0  0  0  0  0  0
   64.9526   32.7668   47.4620 H   0  0  0  0  0  0  0  0  0  0  0  0
   63.0860   32.7994   45.8056 H   0  0  0  0  0  0  0  0  0  0  0  0
   59.3133   30.9496   44.7261 H   0  0  0  0  0  0  0  0  0  0  0  0
   60.4148   28.8752   45.5535 H   0  0  0  0  0  0  0  0  0  0  0  0
   60.0267   26.8415   50.2468 H   0  0  0  0  0  0  0  0  0  0  0  0
   61.7081   27.3934   49.9047 H   0  0  0  0  0  0  0  0  0  0  0  0
   58.9486   28.7599   51.1368 H   0  0  0  0  0  0  0  0  0  0  0  0
   58.1057   31.0847   50.7953 H   0  0  0  0  0  0  0  0  0  0  0  0
   58.8509   32.4079   48.8113 H   0  0  0  0  0  0  0  0  0  0  0  0
   60.4419   31.4060   47.1674 H   0  0  0  0  0  0  0  0  0  0  0  0
   61.2897   29.0830   47.5026 H   0  0  0  0  0  0  0  0  0  0  0  0
   56.5543   26.9365   45.8341 H   0  0  0  0  0  0  0  0  0  0  0  0
  1  2  2  0
  2  3  1  0
  3  4  1  0
  4  5  1  0
  5  6  2  0
  5  7  1  0
  7  8  1  0
  8  9  2  0
  9 10  1  0
 10 11  2  0
 11 12  1  0
 11 13  1  0
 13 14  2  0
  2 15  1  0
 15 16  1  0
 16 17  2  0
 17 18  1  0
 18 19  2  0
 19 20  1  0
 20 21  1  0
 21 22  2  0
 21 23  1  0
 23 24  1  0
 24 25  1  0
 25 26  2  0
 26 27  1  0
 27 28  2  0
 28 29  1  0
 29 30  2  0
 19 31  1  0
 31 32  2  0
 32 33  1  0
 14  8  1  0
 32 16  1  0
 30 25  1  0
  3 34  1  0
  3 35  1  0
  4 36  1  0
  4 37  1  0
  7 38  1  0
  9 39  1  0
 10 40  1  0
 13 41  1  0
 14 42  1  0
 17 43  1  0
 18 44  1  0
 24 45  1  0
 24 46  1  0
 26 47  1  0
 27 48  1  0
 28 49  1  0
 29 50  1  0
 30 51  1  0
 31 52  1  0
M  CHG  4  15  -1  20  -1  23  -1  33  -1
M  END
>  <UniqueID>  (57) 
52

>  <SMILES>  (57) 
O=C(CCC(=O)Nc1ccc(F)cc1)[N-]c1ccc([N-]C(=O)[N-]Cc2ccccc2)cc1[O-]

>  <Energy>  (57) 
63.24042213869454

>  <Genealogy>  (57) 
O=C(CCC(=O)Nc1ccc(F)cc1)[N-]c1ccc([N-]C(=O)[N-]Cc2ccccc2)cc1[O-] (protonated)
O=C(CCC(=O)Nc1ccc(F)cc1)[N-]c1ccc([N-]C(=O)[N-]Cc2ccccc2)cc1[O-] (3D coordinates assigned)
O=C(CCC(=O)Nc1ccc(F)cc1)[N-]c1ccc([N-]C(=O)[N-]Cc2ccccc2)cc1[O-] (optimized conformer: 63.24042213869454 kcal/mol)

>  <smiles>  (57) 
O=C(CCC(=O)Nc1ccc(NC(=O)NCc2ccccc2)cc1O)Nc1ccc(F)cc1

>  <score_type>  (57) 
oracle

>  <origin>  (57) 
adg

>  <m_score__min__energy>  (57) 
-16.48

>  <m_primary>  (57) 
energy

$$$$
57:0
     RDKit          3D

 51 54  0  0  0  0  0  0  0  0999 V2000
   56.0300   26.4265   46.9742 H   0  0  0  0  0  0  0  0  0  0  0  0
   56.8210   26.8870   46.3640 C   0  0  0  0  0  0  0  0  0  0  0  0
   56.5610   27.8010   45.3920 N   0  0  0  0  0  0  0  0  0  0  0  0
   57.6930   28.2190   44.7860 C   0  0  0  0  0  0  0  0  0  0  0  0
   57.6790   29.0910   43.8250 N   0  0  0  0  0  0  0  0  0  0  0  0
   56.9010   30.6390   43.9220 S   0  0  0  0  0  0  0  0  0  0  0  0
   56.7680   31.2120   42.5410 O   0  0  0  0  0  0  0  0  0  0  0  0
   55.5280   30.4670   44.5110 O   0  0  0  0  0  0  0  0  0  0  0  0
   57.8730   31.7340   44.9020 C   0  0  0  0  0  0  0  0  0  0  0  0
   58.4100   32.8880   44.3210 C   0  0  0  0  0  0  0  0  0  0  0  0
   58.2138   33.1106   43.2618 H   0  0  0  0  0  0  0  0  0  0  0  0
   59.1940   33.7580   45.0810 C   0  0  0  0  0  0  0  0  0  0  0  0
   59.6197   34.6588   44.6147 H   0  0  0  0  0  0  0  0  0  0  0  0
   59.4430   33.4900   46.4390 C   0  0  0  0  0  0  0  0  0  0  0  0
   60.2420   34.3440   47.2170 O   0  0  0  0  0  0  0  0  0  0  0  0
   61.4440   33.9850   47.8440 C   0  0  0  0  0  0  0  0  0  0  0  0
   61.5760   34.1970   49.2190 C   0  0  0  0  0  0  0  0  0  0  0  0
   60.7399   34.6307   49.7872 H   0  0  0  0  0  0  0  0  0  0  0  0
   62.7630   33.8620   49.8780 C   0  0  0  0  0  0  0  0  0  0  0  0
   62.8508   34.0233   50.9626 H   0  0  0  0  0  0  0  0  0  0  0  0
   63.8430   33.3210   49.1630 C   0  0  0  0  0  0  0  0  0  0  0  0
   65.0960   32.9690   49.8630 C   0  0  0  0  0  0  0  0  0  0  0  0
   65.7670   33.8190   50.6700 N   0  0  0  0  0  0  0  0  0  0  0  0
   66.8190   33.0850   51.0800 C   0  0  0  0  0  0  0  0  0  0  0  0
   67.8970   33.5930   51.9980 C   0  0  0  0  0  0  0  0  0  0  0  0
   68.5997   32.7705   52.1974 H   0  0  0  0  0  0  0  0  0  0  0  0
   67.3998   33.9502   52.9119 H   0  0  0  0  0  0  0  0  0  0  0  0
   68.6580   34.7340   51.4450 N   0  0  0  0  0  0  0  0  0  0  0  0
   67.9490   36.0140   51.6100 C   0  0  0  0  0  0  0  0  0  0  0  0
   67.8288   36.2311   52.6816 H   0  0  0  0  0  0  0  0  0  0  0  0
   68.5300   36.8187   51.1358 H   0  0  0  0  0  0  0  0  0  0  0  0
   66.9586   35.9484   51.1358 H   0  0  0  0  0  0  0  0  0  0  0  0
   69.0430   34.5250   50.0410 C   0  0  0  0  0  0  0  0  0  0  0  0
   70.0091   34.0006   49.9999 H   0  0  0  0  0  0  0  0  0  0  0  0
   68.2754   33.9197   49.5365 H   0  0  0  0  0  0  0  0  0  0  0  0
   69.1324   35.4984   49.5365 H   0  0  0  0  0  0  0  0  0  0  0  0
   66.7550   31.8320   50.5140 C   0  0  0  0  0  0  0  0  0  0  0  0
   67.4754   31.0138   50.6606 H   0  0  0  0  0  0  0  0  0  0  0  0
   65.6790   31.7930   49.7690 O   0  0  0  0  0  0  0  0  0  0  0  0
   63.7180   33.1260   47.7770 C   0  0  0  0  0  0  0  0  0  0  0  0
   64.5594   32.7073   47.2055 H   0  0  0  0  0  0  0  0  0  0  0  0
   62.5310   33.4610   47.1210 C   0  0  0  0  0  0  0  0  0  0  0  0
   62.4459   33.3144   46.0341 H   0  0  0  0  0  0  0  0  0  0  0  0
   58.9200   32.3200   47.0160 C   0  0  0  0  0  0  0  0  0  0  0  0
   59.1800   32.0080   48.3990 C   0  0  0  0  0  0  0  0  0  0  0  0
   59.3880   31.7580   49.5090 N   0  0  0  0  0  0  0  0  0  0  0  0
   58.1310   31.4520   46.2490 C   0  0  0  0  0  0  0  0  0  0  0  0
   57.7121   30.5442   46.7078 H   0  0  0  0  0  0  0  0  0  0  0  0
   59.0690   27.4750   45.4250 S   0  0  0  0  0  0  0  0  0  0  0  0
   58.1650   26.5820   46.5240 C   0  0  0  0  0  0  0  0  0  0  0  0
   58.6700   25.7050   47.4250 F   0  0  0  0  0  0  0  0  0  0  0  0
  1  2  1  0
  2  3  1  0
  3  4  1  0
  4  5  2  0
  5  6  1  0
  6  7  2  0
  6  8  2  0
  6  9  1  0
  9 10  2  0
 10 11  1  0
 10 12  1  0
 12 13  1  0
 12 14  2  0
 14 15  1  0
 15 16  1  0
 16 17  2  0
 17 18  1  0
 17 19  1  0
 19 20  1  0
 19 21  2  0
 21 22  1  0
 22 23  2  0
 23 24  1  0
 24 25  1  0
 25 26  1  0
 25 27  1  0
 25 28  1  0
 28 29  1  0
 29 30  1  0
 29 31  1  0
 29 32  1  0
 28 33  1  0
 33 34  1  0
 33 35  1  0
 33 36  1  0
 24 37  2  0
 37 38  1  0
 37 39  1  0
 21 40  1  0
 40 41  1  0
 40 42  2  0
 42 43  1  0
 14 44  1  0
 44 45  1  0
 45 46  3  0
 44 47  2  0
 47 48  1  0
  4 49  1  0
 49 50  1  0
 50 51  1  0
 50  2  2  0
 47  9  1  0
 42 16  1  0
 39 22  1  0
M  CHG  1   3  -1
M  END
>  <UniqueID>  (58) 
53

>  <SMILES>  (58) 
CN(C)Cc1coc(-c2ccc(Oc3ccc(S(=O)(=O)/N=c4/[n-]cc(F)s4)cc3C#N)cc2)n1

>  <Energy>  (58) 
126.38889257575957

>  <Genealogy>  (58) 
CN(C)Cc1coc(-c2ccc(Oc3ccc(S(=O)(=O)N=c4[n-]cc(F)s4)cc3C#N)cc2)n1 (protonated)
CN(C)Cc1coc(-c2ccc(Oc3ccc(S(=O)(=O)/N=c4/[n-]cc(F)s4)cc3C#N)cc2)n1 (cis-trans isomerization)
CN(C)Cc1coc(-c2ccc(Oc3ccc(S(=O)(=O)/N=c4/[n-]cc(F)s4)cc3C#N)cc2)n1 (3D coordinates assigned)
CN(C)Cc1coc(-c2ccc(Oc3ccc(S(=O)(=O)/N=c4/[n-]cc(F)s4)cc3C#N)cc2)n1 (optimized conformer: 126.38889257575957 kcal/mol)

>  <smiles>  (58) 
CN(C)Cc1coc(-c2ccc(Oc3ccc(S(=O)(=O)N=c4[nH]cc(F)s4)cc3C#N)cc2)n1

>  <score_type>  (58) 
oracle

>  <origin>  (58) 
adg

>  <m_score__min__energy>  (58) 
-10.66

>  <m_primary>  (58) 
energy

$$$$
58:0
     RDKit          3D

 34 36  0  0  0  0  0  0  0  0999 V2000
   58.3300   26.5677   47.6054 H   0  0  0  0  0  0  0  0  0  0  0  0
   57.9870   26.3930   46.5750 C   0  0  0  0  0  0  0  0  0  0  0  0
   58.2200   25.2090   46.0020 C   0  0  0  0  0  0  0  0  0  0  0  0
   58.6890   24.4081   46.5924 H   0  0  0  0  0  0  0  0  0  0  0  0
   57.8560   24.9490   44.5720 C   0  0  0  0  0  0  0  0  0  0  0  0
   58.7342   25.1329   43.9357 H   0  0  0  0  0  0  0  0  0  0  0  0
   57.0334   25.6211   44.2863 H   0  0  0  0  0  0  0  0  0  0  0  0
   57.4180   23.5660   44.3990 N   0  0  0  0  0  0  0  0  0  0  0  0
   56.0830   23.0940   44.3190 C   0  0  0  0  0  0  0  0  0  0  0  0
   54.9330   23.9400   44.3960 N   0  0  0  0  0  0  0  0  0  0  0  0
   53.9740   23.5350   44.3250 H   0  0  0  0  0  0  0  0  0  0  0  0
   55.0320   24.9700   44.5340 H   0  0  0  0  0  0  0  0  0  0  0  0
   55.9960   21.8180   44.1820 N   0  0  0  0  0  0  0  0  0  0  0  0
   55.1000   21.2870   44.1070 H   0  0  0  0  0  0  0  0  0  0  0  0
   57.3260   21.2210   44.1520 C   0  0  0  0  0  0  0  0  0  0  0  0
   57.4477   20.5041   44.9774 H   0  0  0  0  0  0  0  0  0  0  0  0
   57.5093   20.6619   43.2226 H   0  0  0  0  0  0  0  0  0  0  0  0
   58.2940   22.4080   44.3170 C   0  0  0  0  0  0  0  0  0  0  0  0
   58.8897   22.3022   45.2357 H   0  0  0  0  0  0  0  0  0  0  0  0
   59.0184   22.4820   43.4925 H   0  0  0  0  0  0  0  0  0  0  0  0
   57.2830   27.4680   45.8610 C   0  0  0  0  0  0  0  0  0  0  0  0
   55.9180   27.4940   45.6150 C   0  0  0  0  0  0  0  0  0  0  0  0
   55.0350   26.4800   45.9610 O   0  0  0  0  0  0  0  0  0  0  0  0
   55.5240   28.6370   45.0100 N   0  0  0  0  0  0  0  0  0  0  0  0
   56.6630   29.3400   44.8650 C   0  0  0  0  0  0  0  0  0  0  0  0
   56.7740   30.5950   44.2710 C   0  0  0  0  0  0  0  0  0  0  0  0
   55.8846   31.1228   43.8963 H   0  0  0  0  0  0  0  0  0  0  0  0
   58.0520   31.1690   44.1630 C   0  0  0  0  0  0  0  0  0  0  0  0
   58.2390   32.7460   43.4200 Cl  0  0  0  0  0  0  0  0  0  0  0  0
   59.1870   30.4710   44.6260 C   0  0  0  0  0  0  0  0  0  0  0  0
   60.1839   30.9242   44.5225 H   0  0  0  0  0  0  0  0  0  0  0  0
   59.0580   29.2010   45.2190 C   0  0  0  0  0  0  0  0  0  0  0  0
   60.5140   28.3200   45.6550 Cl  0  0  0  0  0  0  0  0  0  0  0  0
   57.7640   28.6670   45.3540 C   0  0  0  0  0  0  0  0  0  0  0  0
  1  2  1  0
  2  3  2  0
  3  4  1  0
  3  5  1  0
  5  6  1  0
  5  7  1  0
  5  8  1  0
  8  9  1  0
  9 10  1  0
 10 11  1  0
 10 12  1  0
  9 13  2  0
 13 14  1  0
 13 15  1  0
 15 16  1  0
 15 17  1  0
 15 18  1  0
 18 19  1  0
 18 20  1  0
  2 21  1  0
 21 22  2  0
 22 23  1  0
 22 24  1  0
 24 25  1  0
 25 26  2  0
 26 27  1  0
 26 28  1  0
 28 29  1  0
 28 30  2  0
 30 31  1  0
 30 32  1  0
 32 33  1  0
 32 34  2  0
 18  8  1  0
 34 21  1  0
 34 25  1  0
M  CHG  3  13   1  23  -1  24  -1
M  END
>  <UniqueID>  (59) 
54

>  <SMILES>  (59) 
NC1=[NH+]CCN1C/C=C/c1c([O-])[n-]c2cc(Cl)cc(Cl)c12

>  <Energy>  (59) 
81.1386466997637

>  <Genealogy>  (59) 
NC1=[NH+]CCN1CC=Cc1c([O-])[n-]c2cc(Cl)cc(Cl)c12 (protonated)
NC1=[NH+]CCN1C/C=C/c1c([O-])[n-]c2cc(Cl)cc(Cl)c12 (cis-trans isomerization)
NC1=[NH+]CCN1C/C=C/c1c([O-])[n-]c2cc(Cl)cc(Cl)c12 (3D coordinates assigned)
NC1=[NH+]CCN1C/C=C/c1c([O-])[n-]c2cc(Cl)cc(Cl)c12 (nonaromatic ring conformer: 81.1386466997637 kcal/mol)

>  <smiles>  (59) 
NC1=NCCN1CC=Cc1c(O)[nH]c2cc(Cl)cc(Cl)c12

>  <score_type>  (59) 
oracle

>  <origin>  (59) 
adg

>  <m_score__min__energy>  (59) 
-11.94

>  <m_primary>  (59) 
energy

$$$$
59:0
     RDKit          3D

 56 59  0  0  0  0  0  0  0  0999 V2000
   56.0210   28.8320   44.9290 O   0  0  0  0  0  0  0  0  0  0  0  0
   57.1760   28.4240   45.2340 C   0  0  0  0  0  0  0  0  0  0  0  0
   58.3020   29.2990   45.0630 N   0  0  0  0  0  0  0  0  0  0  0  0
   58.1590   30.6700   44.6680 C   0  0  0  0  0  0  0  0  0  0  0  0
   57.7060   30.9540   43.3710 C   0  0  0  0  0  0  0  0  0  0  0  0
   57.5110   32.2760   42.9610 C   0  0  0  0  0  0  0  0  0  0  0  0
   57.7790   33.3260   43.8390 C   0  0  0  0  0  0  0  0  0  0  0  0
   58.2570   33.0600   45.1230 C   0  0  0  0  0  0  0  0  0  0  0  0
   58.4620   31.7360   45.5500 C   0  0  0  0  0  0  0  0  0  0  0  0
   59.0480   31.4990   46.8420 N   0  0  0  0  0  0  0  0  0  0  0  0
   58.4960   32.1670   48.0260 C   0  0  0  0  0  0  0  0  0  0  0  0
   58.8750   31.3930   49.2890 C   0  0  0  0  0  0  0  0  0  0  0  0
   58.7480   30.0080   49.0390 O   0  0  0  0  0  0  0  0  0  0  0  0
   59.7980   29.5550   48.1990 C   0  0  0  0  0  0  0  0  0  0  0  0
   60.1050   30.4950   47.0080 C   0  0  0  0  0  0  0  0  0  0  0  0
   57.3500   27.0220   45.6940 C   0  0  0  0  0  0  0  0  0  0  0  0
   58.6380   26.4550   45.6800 C   0  0  0  0  0  0  0  0  0  0  0  0
   58.8420   25.1410   46.1020 C   0  0  0  0  0  0  0  0  0  0  0  0
   57.7700   24.3790   46.5590 C   0  0  0  0  0  0  0  0  0  0  0  0
   56.4830   24.9240   46.6070 C   0  0  0  0  0  0  0  0  0  0  0  0
   55.4170   24.1130   47.1110 N   0  0  0  0  0  0  0  0  0  0  0  0
   55.6350   22.5350   47.7990 S   0  0  0  0  0  0  0  0  0  0  0  0
   56.9340   22.4600   48.5500 O   0  0  0  0  0  0  0  0  0  0  0  0
   54.5120   22.2890   48.7660 O   0  0  0  0  0  0  0  0  0  0  0  0
   55.5560   21.2660   46.5390 C   0  0  0  0  0  0  0  0  0  0  0  0
   55.9240   21.8000   45.1800 C   0  0  0  0  0  0  0  0  0  0  0  0
   57.0290   21.2800   44.4840 C   0  0  0  0  0  0  0  0  0  0  0  0
   57.3630   21.7730   43.2190 C   0  0  0  0  0  0  0  0  0  0  0  0
   56.6050   22.7970   42.6450 C   0  0  0  0  0  0  0  0  0  0  0  0
   55.5140   23.3310   43.3360 C   0  0  0  0  0  0  0  0  0  0  0  0
   55.1710   22.8330   44.5970 C   0  0  0  0  0  0  0  0  0  0  0  0
   56.2600   26.2310   46.1300 C   0  0  0  0  0  0  0  0  0  0  0  0
   54.9610   26.7130   46.0420 O   0  0  0  0  0  0  0  0  0  0  0  0
   59.2490   28.8720   44.9620 H   0  0  0  0  0  0  0  0  0  0  0  0
   57.5027   30.1300   42.6713 H   0  0  0  0  0  0  0  0  0  0  0  0
   57.1460   32.4884   41.9453 H   0  0  0  0  0  0  0  0  0  0  0  0
   57.6134   34.3653   43.5190 H   0  0  0  0  0  0  0  0  0  0  0  0
   58.4753   33.8934   45.8070 H   0  0  0  0  0  0  0  0  0  0  0  0
   58.9004   33.1880   48.0896 H   0  0  0  0  0  0  0  0  0  0  0  0
   57.3999   32.2038   47.9410 H   0  0  0  0  0  0  0  0  0  0  0  0
   59.9148   31.6237   49.5641 H   0  0  0  0  0  0  0  0  0  0  0  0
   58.2086   31.6828   50.1148 H   0  0  0  0  0  0  0  0  0  0  0  0
   60.7096   29.4588   48.8070 H   0  0  0  0  0  0  0  0  0  0  0  0
   59.4700   28.5966   47.7702 H   0  0  0  0  0  0  0  0  0  0  0  0
   61.0612   31.0069   47.1914 H   0  0  0  0  0  0  0  0  0  0  0  0
   60.1601   29.8904   46.0907 H   0  0  0  0  0  0  0  0  0  0  0  0
   59.4927   27.0541   45.3327 H   0  0  0  0  0  0  0  0  0  0  0  0
   59.8519   24.7060   46.0736 H   0  0  0  0  0  0  0  0  0  0  0  0
   57.9365   23.3415   46.8844 H   0  0  0  0  0  0  0  0  0  0  0  0
   56.2534   20.4577   46.8042 H   0  0  0  0  0  0  0  0  0  0  0  0
   54.5208   20.8971   46.4913 H   0  0  0  0  0  0  0  0  0  0  0  0
   57.6342   20.4809   44.9370 H   0  0  0  0  0  0  0  0  0  0  0  0
   58.2229   21.3546   42.6754 H   0  0  0  0  0  0  0  0  0  0  0  0
   56.8672   23.1829   41.6488 H   0  0  0  0  0  0  0  0  0  0  0  0
   54.9243   24.1441   42.8875 H   0  0  0  0  0  0  0  0  0  0  0  0
   54.3078   23.2520   45.1348 H   0  0  0  0  0  0  0  0  0  0  0  0
  1  2  2  0
  2  3  1  0
  3  4  1  0
  4  5  2  0
  5  6  1  0
  6  7  2  0
  7  8  1  0
  8  9  2  0
  9 10  1  0
 10 11  1  0
 11 12  1  0
 12 13  1  0
 13 14  1  0
 14 15  1  0
  2 16  1  0
 16 17  2  0
 17 18  1  0
 18 19  2  0
 19 20  1  0
 20 21  1  0
 21 22  1  0
 22 23  2  0
 22 24  2  0
 22 25  1  0
 25 26  1  0
 26 27  2  0
 27 28  1  0
 28 29  2  0
 29 30  1  0
 30 31  2  0
 20 32  2  0
 32 33  1  0
  9  4  1  0
 15 10  1  0
 32 16  1  0
 31 26  1  0
  3 34  1  0
  5 35  1  0
  6 36  1  0
  7 37  1  0
  8 38  1  0
 11 39  1  0
 11 40  1  0
 12 41  1  0
 12 42  1  0
 14 43  1  0
 14 44  1  0
 15 45  1  0
 15 46  1  0
 17 47  1  0
 18 48  1  0
 19 49  1  0
 25 50  1  0
 25 51  1  0
 27 52  1  0
 28 53  1  0
 29 54  1  0
 30 55  1  0
 31 56  1  0
M  CHG  2  21  -1  33  -1
M  END
>  <UniqueID>  (60) 
55

>  <SMILES>  (60) 
O=C(Nc1ccccc1N1CCOCC1)c1cccc([N-]S(=O)(=O)Cc2ccccc2)c1[O-]

>  <Energy>  (60) 
79.4074165468418

>  <Genealogy>  (60) 
O=C(Nc1ccccc1N1CCOCC1)c1cccc([N-]S(=O)(=O)Cc2ccccc2)c1[O-] (protonated)
O=C(Nc1ccccc1N1CCOCC1)c1cccc([N-]S(=O)(=O)Cc2ccccc2)c1[O-] (3D coordinates assigned)
O=C(Nc1ccccc1N1CCOCC1)c1cccc([N-]S(=O)(=O)Cc2ccccc2)c1[O-] (nonaromatic ring conformer: 79.4074165468418 kcal/mol)

>  <smiles>  (60) 
O=C(Nc1ccccc1N1CCOCC1)c1cccc(NS(=O)(=O)Cc2ccccc2)c1O

>  <score_type>  (60) 
oracle

>  <origin>  (60) 
adg

>  <m_score__min__energy>  (60) 
-15.25

>  <m_primary>  (60) 
energy

$$$$
60:0
     RDKit          3D

 28 29  0  0  0  0  0  0  0  0999 V2000
   52.4870   28.6180   54.9680 O   0  0  0  0  0  0  0  0  0  0  0  0
   53.3060   29.5320   54.6810 C   0  0  0  0  0  0  0  0  0  0  0  0
   54.5270   29.5770   55.3420 O   0  0  0  0  0  0  0  0  0  0  0  0
   52.9640   30.5360   53.6530 C   0  0  0  0  0  0  0  0  0  0  0  0
   51.5110   30.7840   53.2990 C   0  0  0  0  0  0  0  0  0  0  0  0
   51.3640   31.1010   51.8420 C   0  0  0  0  0  0  0  0  0  0  0  0
   51.5830   30.2190   50.8500 N   0  0  0  0  0  0  0  0  0  0  0  0
   51.3640   30.9450   49.7340 C   0  0  0  0  0  0  0  0  0  0  0  0
   51.4720   30.4600   48.5790 O   0  0  0  0  0  0  0  0  0  0  0  0
   51.0230   32.2340   49.9530 N   0  0  0  0  0  0  0  0  0  0  0  0
   51.0290   32.3150   51.2930 C   0  0  0  0  0  0  0  0  0  0  0  0
   50.7370   33.4750   51.9990 O   0  0  0  0  0  0  0  0  0  0  0  0
   53.9340   31.2500   53.1480 N   0  0  0  0  0  0  0  0  0  0  0  0
   54.9080   30.8130   52.1910 C   0  0  0  0  0  0  0  0  0  0  0  0
   54.5300   30.0770   51.2410 O   0  0  0  0  0  0  0  0  0  0  0  0
   56.3150   31.2830   52.2470 C   0  0  0  0  0  0  0  0  0  0  0  0
   56.5870   32.6580   52.3830 C   0  0  0  0  0  0  0  0  0  0  0  0
   57.9060   33.1170   52.4330 C   0  0  0  0  0  0  0  0  0  0  0  0
   58.9660   32.2140   52.3440 C   0  0  0  0  0  0  0  0  0  0  0  0
   58.7120   30.8490   52.2040 C   0  0  0  0  0  0  0  0  0  0  0  0
   57.3940   30.3780   52.1560 C   0  0  0  0  0  0  0  0  0  0  0  0
   57.1740   29.0100   52.0330 O   0  0  0  0  0  0  0  0  0  0  0  0
   50.9242   29.8835   53.5329 H   0  0  0  0  0  0  0  0  0  0  0  0
   51.1473   31.6413   53.8844 H   0  0  0  0  0  0  0  0  0  0  0  0
   55.7559   33.3754   52.4503 H   0  0  0  0  0  0  0  0  0  0  0  0
   58.1090   34.1925   52.5428 H   0  0  0  0  0  0  0  0  0  0  0  0
   60.0031   32.5785   52.3842 H   0  0  0  0  0  0  0  0  0  0  0  0
   59.5501   30.1403   52.1311 H   0  0  0  0  0  0  0  0  0  0  0  0
  1  2  2  0
  2  3  1  0
  2  4  1  0
  4  5  1  0
  5  6  1  0
  6  7  1  0
  7  8  1  0
  8  9  2  0
  8 10  1  0
 10 11  1  0
 11 12  1  0
  4 13  2  3
 13 14  1  0
 14 15  2  0
 14 16  1  0
 16 17  2  0
 17 18  1  0
 18 19  2  0
 19 20  1  0
 20 21  2  0
 21 22  1  0
 11  6  2  0
 21 16  1  0
  5 23  1  0
  5 24  1  0
 17 25  1  0
 18 26  1  0
 19 27  1  0
 20 28  1  0
M  CHG  5   3  -1   7  -1  10  -1  12  -1  22  -1
M  END
>  <UniqueID>  (61) 
56

>  <SMILES>  (61) 
O=C([O-])C(Cc1[n-]c(=O)[n-]c1[O-])=NC(=O)c1ccccc1[O-]

>  <Energy>  (61) 
66.45479377924879

>  <Genealogy>  (61) 
O=C([O-])C(Cc1[n-]c(=O)[n-]c1[O-])=NC(=O)c1ccccc1[O-] (protonated)
O=C([O-])C(Cc1[n-]c(=O)[n-]c1[O-])=NC(=O)c1ccccc1[O-] (3D coordinates assigned)
O=C([O-])C(Cc1[n-]c(=O)[n-]c1[O-])=NC(=O)c1ccccc1[O-] (optimized conformer: 66.45479377924879 kcal/mol)

>  <smiles>  (61) 
O=C(O)C(Cc1[nH]c(=O)[nH]c1O)=NC(=O)c1ccccc1O

>  <score_type>  (61) 
oracle

>  <origin>  (61) 
adg

>  <m_score__min__energy>  (61) 
-18.460000000000001

>  <m_primary>  (61) 
energy

$$$$
61:0
     RDKit          3D

 45 47  0  0  0  0  0  0  0  0999 V2000
   58.0890   26.6540   42.9390 O   0  0  0  0  0  0  0  0  0  0  0  0
   57.7740   26.5740   44.1560 C   0  0  0  0  0  0  0  0  0  0  0  0
   57.7280   25.2170   44.8070 C   0  0  0  0  0  0  0  0  0  0  0  0
   56.3120   24.6760   44.8770 C   0  0  0  0  0  0  0  0  0  0  0  0
   55.9050   23.5000   44.1940 C   0  0  0  0  0  0  0  0  0  0  0  0
   56.8410   22.7150   43.3040 C   0  0  0  0  0  0  0  0  0  0  0  0
   58.1150   21.6620   44.3220 Br  0  0  0  0  0  0  0  0  0  0  0  0
   54.6080   23.0960   44.2870 N   0  0  0  0  0  0  0  0  0  0  0  0
   53.7070   23.7580   45.0530 C   0  0  0  0  0  0  0  0  0  0  0  0
   52.5200   23.3450   45.1290 O   0  0  0  0  0  0  0  0  0  0  0  0
   54.0830   24.8610   45.7440 N   0  0  0  0  0  0  0  0  0  0  0  0
   55.3540   25.3340   45.6750 C   0  0  0  0  0  0  0  0  0  0  0  0
   55.6610   26.3650   46.3320 O   0  0  0  0  0  0  0  0  0  0  0  0
   57.5570   27.7680   44.9290 N   0  0  0  0  0  0  0  0  0  0  0  0
   57.5760   29.0940   44.3760 C   0  0  0  0  0  0  0  0  0  0  0  0
   56.8530   29.3880   43.2070 C   0  0  0  0  0  0  0  0  0  0  0  0
   56.8050   30.6940   42.7120 C   0  0  0  0  0  0  0  0  0  0  0  0
   57.4670   31.7210   43.3860 C   0  0  0  0  0  0  0  0  0  0  0  0
   58.1780   31.4480   44.5550 C   0  0  0  0  0  0  0  0  0  0  0  0
   58.2350   30.1410   45.0630 C   0  0  0  0  0  0  0  0  0  0  0  0
   59.0300   29.8710   46.2810 C   0  0  0  0  0  0  0  0  0  0  0  0
   59.4240   28.6930   46.4940 O   0  0  0  0  0  0  0  0  0  0  0  0
   59.3450   30.9110   47.2280 N   0  0  0  0  0  0  0  0  0  0  0  0
   58.6090   32.1830   47.2340 C   0  0  0  0  0  0  0  0  0  0  0  0
   58.5170   32.7260   48.6620 C   0  0  0  0  0  0  0  0  0  0  0  0
   59.7940   32.7740   49.2650 O   0  0  0  0  0  0  0  0  0  0  0  0
   60.2960   31.4600   49.4220 C   0  0  0  0  0  0  0  0  0  0  0  0
   60.5500   30.8100   48.0590 C   0  0  0  0  0  0  0  0  0  0  0  0
   58.3474   24.5203   44.2231 H   0  0  0  0  0  0  0  0  0  0  0  0
   58.1084   25.3164   45.8343 H   0  0  0  0  0  0  0  0  0  0  0  0
   56.2454   22.0378   42.6742 H   0  0  0  0  0  0  0  0  0  0  0  0
   57.4088   23.4341   42.6953 H   0  0  0  0  0  0  0  0  0  0  0  0
   57.4390   27.6790   45.9620 H   0  0  0  0  0  0  0  0  0  0  0  0
   56.3209   28.5839   42.6777 H   0  0  0  0  0  0  0  0  0  0  0  0
   56.2451   30.9125   41.7907 H   0  0  0  0  0  0  0  0  0  0  0  0
   57.4282   32.7483   42.9947 H   0  0  0  0  0  0  0  0  0  0  0  0
   58.6971   32.2623   45.0818 H   0  0  0  0  0  0  0  0  0  0  0  0
   59.1354   32.9117   46.6001 H   0  0  0  0  0  0  0  0  0  0  0  0
   57.5940   32.0154   46.8446 H   0  0  0  0  0  0  0  0  0  0  0  0
   58.0927   33.7405   48.6352 H   0  0  0  0  0  0  0  0  0  0  0  0
   57.8738   32.0568   49.2524 H   0  0  0  0  0  0  0  0  0  0  0  0
   61.2404   31.4993   49.9847 H   0  0  0  0  0  0  0  0  0  0  0  0
   59.5516   30.8602   49.9661 H   0  0  0  0  0  0  0  0  0  0  0  0
   61.3831   31.3251   47.5583 H   0  0  0  0  0  0  0  0  0  0  0  0
   60.8034   29.7494   48.2039 H   0  0  0  0  0  0  0  0  0  0  0  0
  1  2  2  0
  2  3  1  0
  3  4  1  0
  4  5  2  0
  5  6  1  0
  6  7  1  0
  5  8  1  0
  8  9  1  0
  9 10  2  0
  9 11  1  0
 11 12  1  0
 12 13  2  0
  2 14  1  0
 14 15  1  0
 15 16  2  0
 16 17  1  0
 17 18  2  0
 18 19  1  0
 19 20  2  0
 20 21  1  0
 21 22  2  0
 21 23  1  0
 23 24  1  0
 24 25  1  0
 25 26  1  0
 26 27  1  0
 27 28  1  0
 12  4  1  0
 20 15  1  0
 28 23  1  0
  3 29  1  0
  3 30  1  0
  6 31  1  0
  6 32  1  0
 14 33  1  0
 16 34  1  0
 17 35  1  0
 18 36  1  0
 19 37  1  0
 24 38  1  0
 24 39  1  0
 25 40  1  0
 25 41  1  0
 27 42  1  0
 27 43  1  0
 28 44  1  0
 28 45  1  0
M  CHG  2   8  -1  11  -1
M  END
>  <UniqueID>  (62) 
57

>  <SMILES>  (62) 
O=C(Cc1c(CBr)[n-]c(=O)[n-]c1=O)Nc1ccccc1C(=O)N1CCOCC1

>  <Energy>  (62) 
60.29272545783898

>  <Genealogy>  (62) 
O=C(Cc1c(CBr)[n-]c(=O)[n-]c1=O)Nc1ccccc1C(=O)N1CCOCC1 (protonated)
O=C(Cc1c(CBr)[n-]c(=O)[n-]c1=O)Nc1ccccc1C(=O)N1CCOCC1 (3D coordinates assigned)
O=C(Cc1c(CBr)[n-]c(=O)[n-]c1=O)Nc1ccccc1C(=O)N1CCOCC1 (nonaromatic ring conformer: 60.29272545783898 kcal/mol)

>  <smiles>  (62) 
O=C(Cc1c(CBr)[nH]c(=O)[nH]c1=O)Nc1ccccc1C(=O)N1CCOCC1

>  <score_type>  (62) 
oracle

>  <origin>  (62) 
adg

>  <m_score__min__energy>  (62) 
-12.18

>  <m_primary>  (62) 
energy

$$$$
62:0
     RDKit          3D

 36 39  0  0  0  0  0  0  0  0999 V2000
   57.6930   28.3970   53.4940 H   0  0  0  0  0  0  0  0  0  0  0  0
   57.1940   28.5300   52.6240 O   0  0  0  0  0  0  0  0  0  0  0  0
   56.2890   29.5750   52.4510 C   0  0  0  0  0  0  0  0  0  0  0  0
   56.5800   30.8650   52.0540 C   0  0  0  0  0  0  0  0  0  0  0  0
   57.9230   31.3940   51.6560 C   0  0  0  0  0  0  0  0  0  0  0  0
   57.7907   32.2602   50.9910 H   0  0  0  0  0  0  0  0  0  0  0  0
   58.4734   31.6971   52.5589 H   0  0  0  0  0  0  0  0  0  0  0  0
   58.6990   30.3350   50.9410 C   0  0  0  0  0  0  0  0  0  0  0  0
   58.5250   29.9310   49.3180 S   0  0  0  0  0  0  0  0  0  0  0  0
   59.7630   28.7910   49.2910 C   0  0  0  0  0  0  0  0  0  0  0  0
   60.1660   28.0150   48.1100 C   0  0  0  0  0  0  0  0  0  0  0  0
   60.6180   26.7470   48.1640 N   0  0  0  0  0  0  0  0  0  0  0  0
   60.8890   26.3510   46.9300 N   0  0  0  0  0  0  0  0  0  0  0  0
   60.6110   27.3620   46.0840 C   0  0  0  0  0  0  0  0  0  0  0  0
   60.7355   27.3282   44.9916 H   0  0  0  0  0  0  0  0  0  0  0  0
   60.1470   28.4440   46.7980 C   0  0  0  0  0  0  0  0  0  0  0  0
   59.8332   29.4250   46.4117 H   0  0  0  0  0  0  0  0  0  0  0  0
   60.3380   28.7250   50.5570 C   0  0  0  0  0  0  0  0  0  0  0  0
   61.1743   28.0557   50.8075 H   0  0  0  0  0  0  0  0  0  0  0  0
   59.7460   29.5950   51.4790 C   0  0  0  0  0  0  0  0  0  0  0  0
   60.0758   29.6846   52.5246 H   0  0  0  0  0  0  0  0  0  0  0  0
   55.4520   31.6030   52.0000 N   0  0  0  0  0  0  0  0  0  0  0  0
   54.4350   30.7880   52.3580 C   0  0  0  0  0  0  0  0  0  0  0  0
   53.1670   31.2370   52.3490 C   0  0  0  0  0  0  0  0  0  0  0  0
   52.7831   31.6722   53.2835 H   0  0  0  0  0  0  0  0  0  0  0  0
   52.2470   31.1980   51.2000 C   0  0  0  0  0  0  0  0  0  0  0  0
   52.3070   30.2970   50.2000 N   0  0  0  0  0  0  0  0  0  0  0  0
   51.3810   30.7420   49.3240 C   0  0  0  0  0  0  0  0  0  0  0  0
   51.1250   30.1440   48.2470 O   0  0  0  0  0  0  0  0  0  0  0  0
   50.7580   31.8840   49.6880 N   0  0  0  0  0  0  0  0  0  0  0  0
   51.3300   32.1650   50.8700 C   0  0  0  0  0  0  0  0  0  0  0  0
   51.0250   33.2880   51.6280 O   0  0  0  0  0  0  0  0  0  0  0  0
   54.9300   29.5150   52.6820 C   0  0  0  0  0  0  0  0  0  0  0  0
   54.3070   28.4720   53.2410 C   0  0  0  0  0  0  0  0  0  0  0  0
   53.2178   28.4987   53.3928 H   0  0  0  0  0  0  0  0  0  0  0  0
   54.8837   27.5874   53.5490 H   0  0  0  0  0  0  0  0  0  0  0  0
  1  2  1  0
  2  3  1  0
  3  4  2  0
  4  5  1  0
  5  6  1  0
  5  7  1  0
  5  8  1  0
  8  9  1  0
  9 10  1  0
 10 11  1  0
 11 12  2  0
 12 13  1  0
 13 14  1  0
 14 15  1  0
 14 16  2  0
 16 17  1  0
 10 18  2  0
 18 19  1  0
 18 20  1  0
 20 21  1  0
  4 22  1  0
 22 23  1  0
 23 24  2  0
 24 25  1  0
 24 26  1  0
 26 27  1  0
 27 28  1  0
 28 29  2  0
 28 30  1  0
 30 31  1  0
 31 32  1  0
 23 33  1  0
 33 34  2  0
 34 35  1  0
 34 36  1  0
 33  3  1  0
 20  8  2  0
 31 26  2  0
 16 11  1  0
M  CHG  5  13  -1  22  -1  27  -1  30  -1  32  -1
M  END
>  <UniqueID>  (63) 
58

>  <SMILES>  (63) 
C=c1c(O)c(Cc2ccc(-c3cc[n-]n3)s2)[n-]/c1=C/c1[n-]c(=O)[n-]c1[O-]

>  <Energy>  (63) 
160.39783380355743

>  <Genealogy>  (63) 
C=c1c(O)c(Cc2ccc(-c3cc[n-]n3)s2)[n-]c1=Cc1[n-]c(=O)[n-]c1[O-] (protonated)
C=c1c(O)c(Cc2ccc(-c3cc[n-]n3)s2)[n-]/c1=C/c1[n-]c(=O)[n-]c1[O-] (cis-trans isomerization)
C=c1c(O)c(Cc2ccc(-c3cc[n-]n3)s2)[n-]/c1=C/c1[n-]c(=O)[n-]c1[O-] (3D coordinates assigned)
C=c1c(O)c(Cc2ccc(-c3cc[n-]n3)s2)[n-]/c1=C/c1[n-]c(=O)[n-]c1[O-] (optimized conformer: 160.39783380355743 kcal/mol)

>  <smiles>  (63) 
C=c1c(O)c(Cc2ccc(-c3cc[nH]n3)s2)[nH]c1=Cc1[nH]c(=O)[nH]c1O

>  <score_type>  (63) 
oracle

>  <origin>  (63) 
adg

>  <m_score__min__energy>  (63) 
-17.77

>  <m_primary>  (63) 
energy

$$$$
63:0
     RDKit          3D

 39 42  0  0  0  0  0  0  0  0999 V2000
   56.5570   30.4210   44.8850 N   0  0  0  0  0  0  0  0  0  0  0  0
   57.2710   29.3380   45.1220 C   0  0  0  0  0  0  0  0  0  0  0  0
   58.1100   29.4020   46.1210 N   0  0  0  0  0  0  0  0  0  0  0  0
   58.9280   28.3450   46.4970 C   0  0  0  0  0  0  0  0  0  0  0  0
   59.8010   28.3110   47.4880 C   0  0  0  0  0  0  0  0  0  0  0  0
   60.0910   29.4490   48.3900 C   0  0  0  0  0  0  0  0  0  0  0  0
   61.2060   29.5610   48.9540 O   0  0  0  0  0  0  0  0  0  0  0  0
   59.0320   30.4160   48.5790 N   0  0  0  0  0  0  0  0  0  0  0  0
   59.3070   31.5390   49.4400 C   0  0  0  0  0  0  0  0  0  0  0  0
   59.8070   31.2720   50.7240 C   0  0  0  0  0  0  0  0  0  0  0  0
   60.0480   32.3260   51.5800 C   0  0  0  0  0  0  0  0  0  0  0  0
   59.7910   33.6230   51.1500 C   0  0  0  0  0  0  0  0  0  0  0  0
   59.3060   33.8800   49.9070 N   0  0  0  0  0  0  0  0  0  0  0  0
   59.0630   32.8430   49.0460 C   0  0  0  0  0  0  0  0  0  0  0  0
   58.5650   33.0450   47.7070 C   0  0  0  0  0  0  0  0  0  0  0  0
   57.7710   32.1600   47.2360 O   0  0  0  0  0  0  0  0  0  0  0  0
   58.8840   34.1470   46.8730 N   0  0  0  0  0  0  0  0  0  0  0  0
   59.6970   35.3160   47.0950 C   0  0  0  0  0  0  0  0  0  0  0  0
   59.6550   35.6320   45.6330 C   0  0  0  0  0  0  0  0  0  0  0  0
   58.5790   34.5900   45.5480 C   0  0  0  0  0  0  0  0  0  0  0  0
   60.5190   27.1100   47.6830 C   0  0  0  0  0  0  0  0  0  0  0  0
   59.8940   25.9850   46.3600 S   0  0  0  0  0  0  0  0  0  0  0  0
   58.7280   27.2350   45.6810 C   0  0  0  0  0  0  0  0  0  0  0  0
   57.8460   27.1710   44.6330 C   0  0  0  0  0  0  0  0  0  0  0  0
   57.0980   28.2350   44.3390 N   0  0  0  0  0  0  0  0  0  0  0  0
   56.6390   31.2220   45.5220 H   0  0  0  0  0  0  0  0  0  0  0  0
   58.1230   30.2720   48.1030 H   0  0  0  0  0  0  0  0  0  0  0  0
   60.0036   30.2377   51.0427 H   0  0  0  0  0  0  0  0  0  0  0  0
   60.4392   32.1427   52.5916 H   0  0  0  0  0  0  0  0  0  0  0  0
   59.9853   34.4626   51.8336 H   0  0  0  0  0  0  0  0  0  0  0  0
   59.2226   36.0773   47.7317 H   0  0  0  0  0  0  0  0  0  0  0  0
   60.6620   35.2292   47.6157 H   0  0  0  0  0  0  0  0  0  0  0  0
   59.3322   36.6545   45.3876 H   0  0  0  0  0  0  0  0  0  0  0  0
   60.5519   35.6102   44.9965 H   0  0  0  0  0  0  0  0  0  0  0  0
   57.5653   35.0024   45.4369 H   0  0  0  0  0  0  0  0  0  0  0  0
   58.5705   33.8723   44.7145 H   0  0  0  0  0  0  0  0  0  0  0  0
   61.2781   26.8943   48.4493 H   0  0  0  0  0  0  0  0  0  0  0  0
   57.7562   26.2492   44.0395 H   0  0  0  0  0  0  0  0  0  0  0  0
   56.4200   28.2100   43.5480 H   0  0  0  0  0  0  0  0  0  0  0  0
  1  2  2  3
  2  3  1  0
  3  4  2  0
  4  5  1  0
  5  6  1  0
  6  7  2  0
  6  8  1  0
  8  9  1  0
  9 10  2  0
 10 11  1  0
 11 12  2  0
 12 13  1  0
 13 14  2  0
 14 15  1  0
 15 16  2  0
 15 17  1  0
 17 18  1  0
 18 19  1  0
 19 20  1  0
  5 21  2  0
 21 22  1  0
 22 23  1  0
 23 24  2  0
 24 25  1  0
 25  2  1  0
 23  4  1  0
 14  9  1  0
 20 17  1  0
  1 26  1  0
  8 27  1  0
 10 28  1  0
 11 29  1  0
 12 30  1  0
 18 31  1  0
 18 32  1  0
 19 33  1  0
 19 34  1  0
 20 35  1  0
 20 36  1  0
 21 37  1  0
 24 38  1  0
 25 39  1  0
M  END
>  <smiles>  (64) 
N=c1nc2c(C(=O)Nc3cccnc3C(=O)N3CCC3)csc2c[nH]1

>  <score_type>  (64) 
oracle

>  <origin>  (64) 
adg

>  <m_score__min__energy>  (64) 
-7.5

>  <m_primary>  (64) 
energy

$$$$
64:0
     RDKit          3D

 63 66  0  0  0  0  0  0  0  0999 V2000
   59.2070   33.8140   53.3470 C   0  0  0  0  0  0  0  0  0  0  0  0
   59.2820   33.3440   51.8870 C   0  0  0  0  0  0  0  0  0  0  0  0
   57.9460   32.7020   51.4650 C   0  0  0  0  0  0  0  0  0  0  0  0
   58.1330   31.8780   50.1890 C   0  0  0  0  0  0  0  0  0  0  0  0
   59.0630   30.7480   50.3980 N   0  0  0  0  0  0  0  0  0  0  0  0
   59.7620   30.1980   48.8890 S   0  0  0  0  0  0  0  0  0  0  0  0
   61.2510   30.3510   48.9950 O   0  0  0  0  0  0  0  0  0  0  0  0
   59.4660   28.7360   48.6970 O   0  0  0  0  0  0  0  0  0  0  0  0
   59.1470   31.0790   47.4780 C   0  0  0  0  0  0  0  0  0  0  0  0
   58.3550   30.5290   46.4830 C   0  0  0  0  0  0  0  0  0  0  0  0
   58.0950   31.4530   45.5400 N   0  0  0  0  0  0  0  0  0  0  0  0
   57.3110   31.2470   44.3220 C   0  0  0  0  0  0  0  0  0  0  0  0
   56.4510   30.0170   44.4460 C   0  0  0  0  0  0  0  0  0  0  0  0
   55.2040   30.1580   44.5550 O   0  0  0  0  0  0  0  0  0  0  0  0
   57.0380   28.6560   44.4960 C   0  0  0  0  0  0  0  0  0  0  0  0
   57.7240   28.1490   43.3770 C   0  0  0  0  0  0  0  0  0  0  0  0
   58.2310   26.8460   43.3850 C   0  0  0  0  0  0  0  0  0  0  0  0
   58.0740   26.0410   44.5170 C   0  0  0  0  0  0  0  0  0  0  0  0
   57.4240   26.5450   45.6460 C   0  0  0  0  0  0  0  0  0  0  0  0
   56.9020   27.8440   45.6360 C   0  0  0  0  0  0  0  0  0  0  0  0
   58.7430   32.5820   45.8890 C   0  0  0  0  0  0  0  0  0  0  0  0
   59.4050   32.3900   47.0830 C   0  0  0  0  0  0  0  0  0  0  0  0
   60.3680   33.6310   47.8840 S   0  0  0  0  0  0  0  0  0  0  0  0
   60.7550   34.6900   46.8890 O   0  0  0  0  0  0  0  0  0  0  0  0
   59.5330   34.2750   48.9560 O   0  0  0  0  0  0  0  0  0  0  0  0
   61.7900   32.9170   48.6090 N   0  0  0  0  0  0  0  0  0  0  0  0
   62.7280   32.4220   47.5690 C   0  0  0  0  0  0  0  0  0  0  0  0
   63.9780   33.3090   47.4480 C   0  0  0  0  0  0  0  0  0  0  0  0
   64.7030   33.4020   48.6640 O   0  0  0  0  0  0  0  0  0  0  0  0
   63.8770   33.5060   49.8200 C   0  0  0  0  0  0  0  0  0  0  0  0
   62.4140   33.8860   49.5340 C   0  0  0  0  0  0  0  0  0  0  0  0
   60.0780   30.9380   51.4600 C   0  0  0  0  0  0  0  0  0  0  0  0
   60.4920   32.4040   51.6470 C   0  0  0  0  0  0  0  0  0  0  0  0
   59.3445   32.9525   54.0170 H   0  0  0  0  0  0  0  0  0  0  0  0
   59.9983   34.5546   53.5349 H   0  0  0  0  0  0  0  0  0  0  0  0
   58.2245   34.2715   53.5349 H   0  0  0  0  0  0  0  0  0  0  0  0
   59.4482   34.2228   51.2466 H   0  0  0  0  0  0  0  0  0  0  0  0
   57.5879   32.0456   52.2718 H   0  0  0  0  0  0  0  0  0  0  0  0
   57.2112   33.4978   51.2729 H   0  0  0  0  0  0  0  0  0  0  0  0
   57.1562   31.4820   49.8743 H   0  0  0  0  0  0  0  0  0  0  0  0
   58.5601   32.5347   49.4168 H   0  0  0  0  0  0  0  0  0  0  0  0
   57.9924   29.4906   46.4664 H   0  0  0  0  0  0  0  0  0  0  0  0
   56.6670   32.1228   44.1543 H   0  0  0  0  0  0  0  0  0  0  0  0
   58.0004   31.1134   43.4753 H   0  0  0  0  0  0  0  0  0  0  0  0
   57.8625   28.7829   42.4887 H   0  0  0  0  0  0  0  0  0  0  0  0
   58.7537   26.4541   42.5000 H   0  0  0  0  0  0  0  0  0  0  0  0
   58.4619   25.0117   44.5187 H   0  0  0  0  0  0  0  0  0  0  0  0
   57.3220   25.9197   46.5452 H   0  0  0  0  0  0  0  0  0  0  0  0
   56.3826   28.2316   46.5248 H   0  0  0  0  0  0  0  0  0  0  0  0
   58.7436   33.5163   45.3084 H   0  0  0  0  0  0  0  0  0  0  0  0
   61.4670   32.0940   49.1660 H   0  0  0  0  0  0  0  0  0  0  0  0
   63.0417   31.4009   47.8314 H   0  0  0  0  0  0  0  0  0  0  0  0
   62.2034   32.4424   46.6024 H   0  0  0  0  0  0  0  0  0  0  0  0
   64.6374   32.8845   46.6767 H   0  0  0  0  0  0  0  0  0  0  0  0
   63.6420   34.3224   47.1831 H   0  0  0  0  0  0  0  0  0  0  0  0
   63.8840   32.5337   50.3344 H   0  0  0  0  0  0  0  0  0  0  0  0
   64.2960   34.3211   50.4283 H   0  0  0  0  0  0  0  0  0  0  0  0
   61.8524   33.8945   50.4798 H   0  0  0  0  0  0  0  0  0  0  0  0
   62.3938   34.8817   49.0670 H   0  0  0  0  0  0  0  0  0  0  0  0
   59.6637   30.5681   52.4095 H   0  0  0  0  0  0  0  0  0  0  0  0
   60.9767   30.3813   51.1559 H   0  0  0  0  0  0  0  0  0  0  0  0
   61.1664   32.4710   52.5134 H   0  0  0  0  0  0  0  0  0  0  0  0
   60.9857   32.7297   50.7196 H   0  0  0  0  0  0  0  0  0  0  0  0
  1  2  1  0
  2  3  1  0
  3  4  1  0
  4  5  1  0
  5  6  1  0
  6  7  2  0
  6  8  2  0
  6  9  1  0
  9 10  2  0
 10 11  1  0
 11 12  1  0
 12 13  1  0
 13 14  2  0
 13 15  1  0
 15 16  2  0
 16 17  1  0
 17 18  2  0
 18 19  1  0
 19 20  2  0
 11 21  1  0
 21 22  2  0
 22 23  1  0
 23 24  2  0
 23 25  2  0
 23 26  1  0
 26 27  1  0
 27 28  1  0
 28 29  1  0
 29 30  1  0
 30 31  1  0
  5 32  1  0
 32 33  1  0
 33  2  1  0
 22  9  1  0
 31 26  1  0
 20 15  1  0
  1 34  1  0
  1 35  1  0
  1 36  1  0
  2 37  1  0
  3 38  1  0
  3 39  1  0
  4 40  1  0
  4 41  1  0
 10 42  1  0
 12 43  1  0
 12 44  1  0
 16 45  1  0
 17 46  1  0
 18 47  1  0
 19 48  1  0
 20 49  1  0
 21 50  1  0
 26 51  1  0
 27 52  1  0
 27 53  1  0
 28 54  1  0
 28 55  1  0
 30 56  1  0
 30 57  1  0
 31 58  1  0
 31 59  1  0
 32 60  1  0
 32 61  1  0
 33 62  1  0
 33 63  1  0
M  CHG  1  26   1
M  END
>  <UniqueID>  (65) 
59

>  <SMILES>  (65) 
CC1CCN(S(=O)(=O)c2cn(CC(=O)c3ccccc3)cc2S(=O)(=O)[NH+]2CCOCC2)CC1

>  <Energy>  (65) 
106.11971389391846

>  <Genealogy>  (65) 
CC1CCN(S(=O)(=O)c2cn(CC(=O)c3ccccc3)cc2S(=O)(=O)[NH+]2CCOCC2)CC1 (protonated)
CC1CCN(S(=O)(=O)c2cn(CC(=O)c3ccccc3)cc2S(=O)(=O)[NH+]2CCOCC2)CC1 (3D coordinates assigned)
CC1CCN(S(=O)(=O)c2cn(CC(=O)c3ccccc3)cc2S(=O)(=O)[NH+]2CCOCC2)CC1 (nonaromatic ring conformer: 106.11971389391846 kcal/mol)

>  <smiles>  (65) 
CC1CCN(S(=O)(=O)c2cn(CC(=O)c3ccccc3)cc2S(=O)(=O)N2CCOCC2)CC1

>  <score_type>  (65) 
oracle

>  <origin>  (65) 
adg

>  <m_score__min__energy>  (65) 
-8.0999999999999996

>  <m_primary>  (65) 
energy

$$$$
65:0
     RDKit          3D

 44 46  0  0  0  0  0  0  0  0999 V2000
   57.6600   21.4820   43.2480 C   0  0  0  0  0  0  0  0  0  0  0  0
   56.8720   22.5730   43.8880 C   0  0  0  0  0  0  0  0  0  0  0  0
   55.5240   22.5820   43.9490 N   0  0  0  0  0  0  0  0  0  0  0  0
   55.0480   23.6500   44.6490 C   0  0  0  0  0  0  0  0  0  0  0  0
   53.5780   23.8450   44.8450 C   0  0  0  0  0  0  0  0  0  0  0  0
   56.0340   24.5020   45.1690 C   0  0  0  0  0  0  0  0  0  0  0  0
   55.8130   25.6790   46.0420 C   0  0  0  0  0  0  0  0  0  0  0  0
   54.7470   26.3370   45.9210 O   0  0  0  0  0  0  0  0  0  0  0  0
   56.7670   26.1140   47.0200 N   0  0  0  0  0  0  0  0  0  0  0  0
   58.2160   26.0060   46.9120 C   0  0  0  0  0  0  0  0  0  0  0  0
   58.7530   27.2230   46.2280 C   0  0  0  0  0  0  0  0  0  0  0  0
   60.0540   27.2360   45.7090 C   0  0  0  0  0  0  0  0  0  0  0  0
   60.5110   28.3710   45.0380 C   0  0  0  0  0  0  0  0  0  0  0  0
   59.6710   29.4740   44.8840 C   0  0  0  0  0  0  0  0  0  0  0  0
   58.3720   29.4330   45.4150 C   0  0  0  0  0  0  0  0  0  0  0  0
   57.4390   30.5670   45.2540 C   0  0  0  0  0  0  0  0  0  0  0  0
   56.2810   30.3500   44.8050 O   0  0  0  0  0  0  0  0  0  0  0  0
   57.8300   31.9100   45.5830 N   0  0  0  0  0  0  0  0  0  0  0  0
   57.3850   33.0160   44.7330 C   0  0  0  0  0  0  0  0  0  0  0  0
   58.3470   34.1980   44.8870 C   0  0  0  0  0  0  0  0  0  0  0  0
   58.5130   34.5380   46.2520 O   0  0  0  0  0  0  0  0  0  0  0  0
   59.1370   33.4700   46.9410 C   0  0  0  0  0  0  0  0  0  0  0  0
   58.2350   32.2330   46.9530 C   0  0  0  0  0  0  0  0  0  0  0  0
   57.9480   28.3090   46.0550 N   0  0  0  0  0  0  0  0  0  0  0  0
   57.5330   23.8630   44.7340 S   0  0  0  0  0  0  0  0  0  0  0  0
   58.1147   20.8525   44.0271 H   0  0  0  0  0  0  0  0  0  0  0  0
   56.9954   20.8682   42.6222 H   0  0  0  0  0  0  0  0  0  0  0  0
   58.4516   21.9200   42.6222 H   0  0  0  0  0  0  0  0  0  0  0  0
   53.3524   23.8749   45.9212 H   0  0  0  0  0  0  0  0  0  0  0  0
   53.2684   24.7921   44.3790 H   0  0  0  0  0  0  0  0  0  0  0  0
   53.0322   23.0114   44.3790 H   0  0  0  0  0  0  0  0  0  0  0  0
   58.6545   25.9262   47.9177 H   0  0  0  0  0  0  0  0  0  0  0  0
   58.4762   25.1105   46.3286 H   0  0  0  0  0  0  0  0  0  0  0  0
   60.7088   26.3603   45.8292 H   0  0  0  0  0  0  0  0  0  0  0  0
   61.5326   28.3959   44.6309 H   0  0  0  0  0  0  0  0  0  0  0  0
   60.0237   30.3690   44.3506 H   0  0  0  0  0  0  0  0  0  0  0  0
   57.3715   32.6888   43.6829 H   0  0  0  0  0  0  0  0  0  0  0  0
   56.3732   33.3254   45.0340 H   0  0  0  0  0  0  0  0  0  0  0  0
   59.3242   33.9251   44.4621 H   0  0  0  0  0  0  0  0  0  0  0  0
   57.9270   35.0653   44.3566 H   0  0  0  0  0  0  0  0  0  0  0  0
   60.0841   33.2214   46.4398 H   0  0  0  0  0  0  0  0  0  0  0  0
   59.3247   33.7808   47.9794 H   0  0  0  0  0  0  0  0  0  0  0  0
   58.7847   31.3827   47.3829 H   0  0  0  0  0  0  0  0  0  0  0  0
   57.3412   32.4372   47.5608 H   0  0  0  0  0  0  0  0  0  0  0  0
  1  2  1  0
  2  3  2  0
  3  4  1  0
  4  5  1  0
  4  6  2  0
  6  7  1  0
  7  8  2  0
  7  9  1  0
  9 10  1  0
 10 11  1  0
 11 12  2  0
 12 13  1  0
 13 14  2  0
 14 15  1  0
 15 16  1  0
 16 17  2  0
 16 18  1  0
 18 19  1  0
 19 20  1  0
 20 21  1  0
 21 22  1  0
 22 23  1  0
 15 24  2  0
  6 25  1  0
 25  2  1  0
 24 11  1  0
 23 18  1  0
  1 26  1  0
  1 27  1  0
  1 28  1  0
  5 29  1  0
  5 30  1  0
  5 31  1  0
 10 32  1  0
 10 33  1  0
 12 34  1  0
 13 35  1  0
 14 36  1  0
 19 37  1  0
 19 38  1  0
 20 39  1  0
 20 40  1  0
 22 41  1  0
 22 42  1  0
 23 43  1  0
 23 44  1  0
M  CHG  1   9  -1
M  END
>  <UniqueID>  (66) 
60

>  <SMILES>  (66) 
Cc1nc(C)c(C(=O)[N-]Cc2cccc(C(=O)N3CCOCC3)n2)s1

>  <Energy>  (66) 
78.93643687235296

>  <Genealogy>  (66) 
Cc1nc(C)c(C(=O)[N-]Cc2cccc(C(=O)N3CCOCC3)n2)s1 (protonated)
Cc1nc(C)c(C(=O)[N-]Cc2cccc(C(=O)N3CCOCC3)n2)s1 (3D coordinates assigned)
Cc1nc(C)c(C(=O)[N-]Cc2cccc(C(=O)N3CCOCC3)n2)s1 (nonaromatic ring conformer: 78.93643687235296 kcal/mol)

>  <smiles>  (66) 
Cc1nc(C)c(C(=O)NCc2cccc(C(=O)N3CCOCC3)n2)s1

>  <score_type>  (66) 
oracle

>  <origin>  (66) 
adg

>  <m_score__min__energy>  (66) 
-10.51

>  <m_primary>  (66) 
energy

$$$$
66:0
     RDKit          3D

 46 48  0  0  0  0  0  0  0  0999 V2000
   55.8520   31.1590   44.7980 O   0  0  0  0  0  0  0  0  0  0  0  0
   56.0430   29.9620   44.4590 C   0  0  0  0  0  0  0  0  0  0  0  0
   55.1490   28.9800   44.8660 O   0  0  0  0  0  0  0  0  0  0  0  0
   57.2100   29.6020   43.5940 C   0  0  0  0  0  0  0  0  0  0  0  0
   58.4680   30.3600   44.0360 C   0  0  0  0  0  0  0  0  0  0  0  0
   59.0480   29.7460   45.2490 N   0  0  0  0  0  0  0  0  0  0  0  0
   59.8570   28.6580   45.0560 C   0  0  0  0  0  0  0  0  0  0  0  0
   60.4900   28.0310   46.1230 C   0  0  0  0  0  0  0  0  0  0  0  0
   60.3070   28.5160   47.4110 C   0  0  0  0  0  0  0  0  0  0  0  0
   60.8890   27.9520   48.3760 O   0  0  0  0  0  0  0  0  0  0  0  0
   59.4800   29.6260   47.6270 C   0  0  0  0  0  0  0  0  0  0  0  0
   59.2980   30.1240   48.9200 O   0  0  0  0  0  0  0  0  0  0  0  0
   58.8360   30.2410   46.5250 C   0  0  0  0  0  0  0  0  0  0  0  0
   57.9270   31.4350   46.7880 C   0  0  0  0  0  0  0  0  0  0  0  0
   58.5670   32.7440   46.3780 C   0  0  0  0  0  0  0  0  0  0  0  0
   58.0620   33.4320   45.2580 C   0  0  0  0  0  0  0  0  0  0  0  0
   58.5920   34.6670   44.8800 C   0  0  0  0  0  0  0  0  0  0  0  0
   59.6420   35.2280   45.6060 C   0  0  0  0  0  0  0  0  0  0  0  0
   60.1800   34.5450   46.6970 C   0  0  0  0  0  0  0  0  0  0  0  0
   59.6760   33.2930   47.0740 C   0  0  0  0  0  0  0  0  0  0  0  0
   60.2900   32.6120   48.1770 N   0  0  0  0  0  0  0  0  0  0  0  0
   61.6310   32.8780   48.6300 C   0  0  0  0  0  0  0  0  0  0  0  0
   61.8890   33.8380   49.6270 C   0  0  0  0  0  0  0  0  0  0  0  0
   63.1990   34.0820   50.0520 C   0  0  0  0  0  0  0  0  0  0  0  0
   64.2610   33.3690   49.4890 C   0  0  0  0  0  0  0  0  0  0  0  0
   64.0140   32.4090   48.5050 C   0  0  0  0  0  0  0  0  0  0  0  0
   62.7060   32.1580   48.0790 C   0  0  0  0  0  0  0  0  0  0  0  0
   62.4890   31.2270   47.1160 F   0  0  0  0  0  0  0  0  0  0  0  0
   57.3952   28.5203   43.6696 H   0  0  0  0  0  0  0  0  0  0  0  0
   56.9780   29.8783   42.5549 H   0  0  0  0  0  0  0  0  0  0  0  0
   59.2111   30.3303   43.2255 H   0  0  0  0  0  0  0  0  0  0  0  0
   58.1928   31.4005   44.2630 H   0  0  0  0  0  0  0  0  0  0  0  0
   60.0088   28.2728   44.0369 H   0  0  0  0  0  0  0  0  0  0  0  0
   61.1324   27.1554   45.9479 H   0  0  0  0  0  0  0  0  0  0  0  0
   59.7650   29.7270   49.7260 H   0  0  0  0  0  0  0  0  0  0  0  0
   56.9953   31.3028   46.2184 H   0  0  0  0  0  0  0  0  0  0  0  0
   57.7329   31.4790   47.8698 H   0  0  0  0  0  0  0  0  0  0  0  0
   57.2404   32.9913   44.6742 H   0  0  0  0  0  0  0  0  0  0  0  0
   58.1809   35.1980   44.0087 H   0  0  0  0  0  0  0  0  0  0  0  0
   60.0464   36.2097   45.3183 H   0  0  0  0  0  0  0  0  0  0  0  0
   61.0074   34.9934   47.2665 H   0  0  0  0  0  0  0  0  0  0  0  0
   59.6780   31.9960   48.7600 H   0  0  0  0  0  0  0  0  0  0  0  0
   61.0555   34.3994   50.0743 H   0  0  0  0  0  0  0  0  0  0  0  0
   63.3934   34.8353   50.8296 H   0  0  0  0  0  0  0  0  0  0  0  0
   65.2915   33.5639   49.8208 H   0  0  0  0  0  0  0  0  0  0  0  0
   64.8513   31.8485   48.0637 H   0  0  0  0  0  0  0  0  0  0  0  0
  1  2  2  0
  2  3  1  0
  2  4  1  0
  4  5  1  0
  5  6  1  0
  6  7  1  0
  7  8  2  0
  8  9  1  0
  9 10  2  0
  9 11  1  0
 11 12  1  0
 11 13  2  0
 13 14  1  0
 14 15  1  0
 15 16  2  0
 16 17  1  0
 17 18  2  0
 18 19  1  0
 19 20  2  0
 20 21  1  0
 21 22  1  0
 22 23  2  0
 23 24  1  0
 24 25  2  0
 25 26  1  0
 26 27  2  0
 27 28  1  0
 13  6  1  0
 20 15  1  0
 27 22  1  0
  4 29  1  0
  4 30  1  0
  5 31  1  0
  5 32  1  0
  7 33  1  0
  8 34  1  0
 12 35  1  0
 14 36  1  0
 14 37  1  0
 16 38  1  0
 17 39  1  0
 18 40  1  0
 19 41  1  0
 21 42  1  0
 23 43  1  0
 24 44  1  0
 25 45  1  0
 26 46  1  0
M  CHG  1   3  -1
M  END
>  <UniqueID>  (67) 
61

>  <SMILES>  (67) 
O=C([O-])CCn1ccc(=O)c(O)c1Cc1ccccc1Nc1ccccc1F

>  <Energy>  (67) 
57.69367985255959

>  <Genealogy>  (67) 
O=C([O-])CCn1ccc(=O)c(O)c1Cc1ccccc1Nc1ccccc1F (protonated)
O=C([O-])CCn1ccc(=O)c(O)c1Cc1ccccc1Nc1ccccc1F (3D coordinates assigned)
O=C([O-])CCn1ccc(=O)c(O)c1Cc1ccccc1Nc1ccccc1F (optimized conformer: 57.69367985255959 kcal/mol)

>  <smiles>  (67) 
O=C(O)CCn1ccc(=O)c(O)c1Cc1ccccc1Nc1ccccc1F

>  <score_type>  (67) 
oracle

>  <origin>  (67) 
adg

>  <m_score__min__energy>  (67) 
-10.380000000000001

>  <m_primary>  (67) 
energy

$$$$
67:0
     RDKit          3D

 52 55  0  0  0  0  0  0  0  0999 V2000
   59.8790   26.7670   45.6220 O   0  0  0  0  0  0  0  0  0  0  0  0
   59.4380   27.8280   46.1370 C   0  0  0  0  0  0  0  0  0  0  0  0
   59.9430   28.2370   47.4160 N   0  0  0  0  0  0  0  0  0  0  0  0
   60.0930   29.5970   47.8500 C   0  0  0  0  0  0  0  0  0  0  0  0
   61.0160   30.4630   47.2370 C   0  0  0  0  0  0  0  0  0  0  0  0
   61.1160   31.7930   47.6520 C   0  0  0  0  0  0  0  0  0  0  0  0
   60.3060   32.2700   48.6920 C   0  0  0  0  0  0  0  0  0  0  0  0
   60.3450   33.9710   49.1460 S   0  0  0  0  0  0  0  0  0  0  0  0
   61.7590   34.4250   49.3820 O   0  0  0  0  0  0  0  0  0  0  0  0
   59.5630   34.1570   50.4150 O   0  0  0  0  0  0  0  0  0  0  0  0
   59.6340   34.9300   47.8850 N   0  0  0  0  0  0  0  0  0  0  0  0
   59.0240   34.4340   46.8520 C   0  0  0  0  0  0  0  0  0  0  0  0
   57.8710   33.7230   46.9940 N   0  0  0  0  0  0  0  0  0  0  0  0
   57.2210   33.2160   45.9140 C   0  0  0  0  0  0  0  0  0  0  0  0
   57.7380   33.4200   44.6350 C   0  0  0  0  0  0  0  0  0  0  0  0
   58.9220   34.1450   44.5040 C   0  0  0  0  0  0  0  0  0  0  0  0
   59.5400   34.6370   45.6110 N   0  0  0  0  0  0  0  0  0  0  0  0
   59.4130   31.3970   49.3300 C   0  0  0  0  0  0  0  0  0  0  0  0
   59.3160   30.0650   48.9170 C   0  0  0  0  0  0  0  0  0  0  0  0
   58.3760   28.5930   45.4420 C   0  0  0  0  0  0  0  0  0  0  0  0
   58.7320   29.6830   44.6280 C   0  0  0  0  0  0  0  0  0  0  0  0
   57.7530   30.4040   43.9440 C   0  0  0  0  0  0  0  0  0  0  0  0
   56.4120   30.0440   44.0590 C   0  0  0  0  0  0  0  0  0  0  0  0
   56.0420   28.9670   44.8660 C   0  0  0  0  0  0  0  0  0  0  0  0
   57.0150   28.2450   45.5820 C   0  0  0  0  0  0  0  0  0  0  0  0
   56.6520   27.0880   46.3550 N   0  0  0  0  0  0  0  0  0  0  0  0
   55.7820   26.0270   45.9440 C   0  0  0  0  0  0  0  0  0  0  0  0
   54.5380   26.2260   45.9550 O   0  0  0  0  0  0  0  0  0  0  0  0
   56.3080   24.7500   45.4100 C   0  0  0  0  0  0  0  0  0  0  0  0
   57.6770   24.6820   45.0980 C   0  0  0  0  0  0  0  0  0  0  0  0
   58.2140   23.5460   44.4940 C   0  0  0  0  0  0  0  0  0  0  0  0
   57.3920   22.4630   44.1900 C   0  0  0  0  0  0  0  0  0  0  0  0
   56.0340   22.5020   44.5100 C   0  0  0  0  0  0  0  0  0  0  0  0
   55.4710   23.6320   45.1340 C   0  0  0  0  0  0  0  0  0  0  0  0
   54.0390   23.5790   45.5270 C   0  0  0  0  0  0  0  0  0  0  0  0
   53.6860   23.7480   46.7260 O   0  0  0  0  0  0  0  0  0  0  0  0
   53.0640   23.2900   44.5780 O   0  0  0  0  0  0  0  0  0  0  0  0
   61.6617   30.0916   46.4276 H   0  0  0  0  0  0  0  0  0  0  0  0
   61.8325   32.4681   47.1613 H   0  0  0  0  0  0  0  0  0  0  0  0
   56.2896   32.6463   46.0481 H   0  0  0  0  0  0  0  0  0  0  0  0
   57.2236   33.0182   43.7496 H   0  0  0  0  0  0  0  0  0  0  0  0
   59.3550   34.3185   43.5078 H   0  0  0  0  0  0  0  0  0  0  0  0
   58.7870   31.7614   50.1579 H   0  0  0  0  0  0  0  0  0  0  0  0
   58.6259   29.3810   49.4327 H   0  0  0  0  0  0  0  0  0  0  0  0
   59.7896   29.9691   44.5299 H   0  0  0  0  0  0  0  0  0  0  0  0
   58.0402   31.2580   43.3130 H   0  0  0  0  0  0  0  0  0  0  0  0
   55.6431   30.6099   43.5125 H   0  0  0  0  0  0  0  0  0  0  0  0
   54.9827   28.6806   44.9429 H   0  0  0  0  0  0  0  0  0  0  0  0
   58.3316   25.5343   45.3329 H   0  0  0  0  0  0  0  0  0  0  0  0
   59.2874   23.5047   44.2573 H   0  0  0  0  0  0  0  0  0  0  0  0
   57.8142   21.5751   43.6966 H   0  0  0  0  0  0  0  0  0  0  0  0
   55.3952   21.6388   44.2717 H   0  0  0  0  0  0  0  0  0  0  0  0
  1  2  2  0
  2  3  1  0
  3  4  1  0
  4  5  2  0
  5  6  1  0
  6  7  2  0
  7  8  1  0
  8  9  2  0
  8 10  2  0
  8 11  1  0
 11 12  2  3
 12 13  1  0
 13 14  2  0
 14 15  1  0
 15 16  2  0
 16 17  1  0
  7 18  1  0
 18 19  2  0
  2 20  1  0
 20 21  2  0
 21 22  1  0
 22 23  2  0
 23 24  1  0
 24 25  2  0
 25 26  1  0
 26 27  1  0
 27 28  2  0
 27 29  1  0
 29 30  2  0
 30 31  1  0
 31 32  2  0
 32 33  1  0
 33 34  2  0
 34 35  1  0
 35 36  2  0
 35 37  1  0
 19  4  1  0
 25 20  1  0
 34 29  1  0
 17 12  1  0
  5 38  1  0
  6 39  1  0
 14 40  1  0
 15 41  1  0
 16 42  1  0
 18 43  1  0
 19 44  1  0
 21 45  1  0
 22 46  1  0
 23 47  1  0
 24 48  1  0
 30 49  1  0
 31 50  1  0
 32 51  1  0
 33 52  1  0
M  CHG  4   3  -1  17  -1  26  -1  37  -1
M  END
>  <UniqueID>  (68) 
62

>  <SMILES>  (68) 
O=C([N-]c1ccc(S(=O)(=O)N=c2nccc[n-]2)cc1)c1ccccc1[N-]C(=O)c1ccccc1C(=O)[O-]

>  <Energy>  (68) 
81.44481436152549

>  <Genealogy>  (68) 
O=C([N-]c1ccc(S(=O)(=O)N=c2nccc[n-]2)cc1)c1ccccc1[N-]C(=O)c1ccccc1C(=O)[O-] (protonated)
O=C([N-]c1ccc(S(=O)(=O)N=c2nccc[n-]2)cc1)c1ccccc1[N-]C(=O)c1ccccc1C(=O)[O-] (3D coordinates assigned)
O=C([N-]c1ccc(S(=O)(=O)N=c2nccc[n-]2)cc1)c1ccccc1[N-]C(=O)c1ccccc1C(=O)[O-] (optimized conformer: 81.44481436152549 kcal/mol)

>  <smiles>  (68) 
O=C(Nc1ccc(S(=O)(=O)N=c2nccc[nH]2)cc1)c1ccccc1NC(=O)c1ccccc1C(=O)O

>  <score_type>  (68) 
oracle

>  <origin>  (68) 
adg

>  <m_score__min__energy>  (68) 
-16.609999999999999

>  <m_primary>  (68) 
energy

$$$$
68:0
     RDKit          3D

 65 68  0  0  0  0  0  0  0  0999 V2000
   55.1810   29.2020   44.7670 O   0  0  0  0  0  0  0  0  0  0  0  0
   56.2630   29.8470   44.8110 C   0  0  0  0  0  0  0  0  0  0  0  0
   57.4720   29.1970   45.2210 N   0  0  0  0  0  0  0  0  0  0  0  0
   57.5550   28.2960   46.3650 C   0  0  0  0  0  0  0  0  0  0  0  0
   58.8500   27.4800   46.3170 C   0  0  0  0  0  0  0  0  0  0  0  0
   60.0070   28.3130   46.7240 N   0  0  0  0  0  0  0  0  0  0  0  0
   60.7780   27.7250   47.8330 C   0  0  0  0  0  0  0  0  0  0  0  0
   59.9980   27.7570   49.1550 C   0  0  0  0  0  0  0  0  0  0  0  0
   59.4910   29.1060   49.4800 N   0  0  0  0  0  0  0  0  0  0  0  0
   60.2940   29.8950   50.4360 C   0  0  0  0  0  0  0  0  0  0  0  0
   59.5110   30.9750   51.1430 C   0  0  0  0  0  0  0  0  0  0  0  0
   60.1210   32.1980   51.4720 C   0  0  0  0  0  0  0  0  0  0  0  0
   59.3790   33.2200   52.0700 C   0  0  0  0  0  0  0  0  0  0  0  0
   58.0180   33.0380   52.3260 C   0  0  0  0  0  0  0  0  0  0  0  0
   57.4010   31.8260   52.0030 C   0  0  0  0  0  0  0  0  0  0  0  0
   58.1410   30.7980   51.4120 C   0  0  0  0  0  0  0  0  0  0  0  0
   58.8770   29.8540   48.3650 C   0  0  0  0  0  0  0  0  0  0  0  0
   59.6470   29.7100   47.0360 C   0  0  0  0  0  0  0  0  0  0  0  0
   56.2550   31.2410   44.4970 N   0  0  0  0  0  0  0  0  0  0  0  0
   57.2670   32.1860   44.8700 C   0  0  0  0  0  0  0  0  0  0  0  0
   57.8980   32.9300   43.8660 C   0  0  0  0  0  0  0  0  0  0  0  0
   58.9030   33.8440   44.1920 C   0  0  0  0  0  0  0  0  0  0  0  0
   59.2960   34.0090   45.5210 C   0  0  0  0  0  0  0  0  0  0  0  0
   58.6870   33.2570   46.5340 C   0  0  0  0  0  0  0  0  0  0  0  0
   59.2390   33.4210   48.1970 S   0  0  0  0  0  0  0  0  0  0  0  0
   59.3050   34.8840   48.5420 O   0  0  0  0  0  0  0  0  0  0  0  0
   58.2670   32.7540   49.1330 O   0  0  0  0  0  0  0  0  0  0  0  0
   60.8230   32.7030   48.3420 N   0  0  0  0  0  0  0  0  0  0  0  0
   61.7510   33.6530   48.9780 C   0  0  0  0  0  0  0  0  0  0  0  0
   63.2040   33.1390   48.8990 C   0  0  0  0  0  0  0  0  0  0  0  0
   63.2490   31.8000   48.4480 O   0  0  0  0  0  0  0  0  0  0  0  0
   62.7420   31.7230   47.1280 C   0  0  0  0  0  0  0  0  0  0  0  0
   61.3220   32.3150   47.0150 C   0  0  0  0  0  0  0  0  0  0  0  0
   57.6820   32.3360   46.2060 C   0  0  0  0  0  0  0  0  0  0  0  0
   57.5345   28.8869   47.2926 H   0  0  0  0  0  0  0  0  0  0  0  0
   56.6997   27.6050   46.3344 H   0  0  0  0  0  0  0  0  0  0  0  0
   58.7629   26.6231   47.0013 H   0  0  0  0  0  0  0  0  0  0  0  0
   59.0103   27.1295   45.2868 H   0  0  0  0  0  0  0  0  0  0  0  0
   61.0154   26.6798   47.5857 H   0  0  0  0  0  0  0  0  0  0  0  0
   61.6937   28.3203   47.9638 H   0  0  0  0  0  0  0  0  0  0  0  0
   59.1438   27.0683   49.0774 H   0  0  0  0  0  0  0  0  0  0  0  0
   60.6878   27.4568   49.9575 H   0  0  0  0  0  0  0  0  0  0  0  0
   60.7027   29.2103   51.1938 H   0  0  0  0  0  0  0  0  0  0  0  0
   61.0812   30.3979   49.8550 H   0  0  0  0  0  0  0  0  0  0  0  0
   61.1889   32.3514   51.2574 H   0  0  0  0  0  0  0  0  0  0  0  0
   59.8670   34.1683   52.3393 H   0  0  0  0  0  0  0  0  0  0  0  0
   57.4313   33.8490   52.7821 H   0  0  0  0  0  0  0  0  0  0  0  0
   56.3313   31.6810   52.2143 H   0  0  0  0  0  0  0  0  0  0  0  0
   57.6507   29.8471   51.1562 H   0  0  0  0  0  0  0  0  0  0  0  0
   57.8526   29.4816   48.2170 H   0  0  0  0  0  0  0  0  0  0  0  0
   58.8955   30.9193   48.6383 H   0  0  0  0  0  0  0  0  0  0  0  0
   59.0172   30.0993   46.2225 H   0  0  0  0  0  0  0  0  0  0  0  0
   60.5849   30.2757   47.1373 H   0  0  0  0  0  0  0  0  0  0  0  0
   57.6011   32.7943   42.8155 H   0  0  0  0  0  0  0  0  0  0  0  0
   59.3856   34.4349   43.3996 H   0  0  0  0  0  0  0  0  0  0  0  0
   60.0861   34.7315   45.7737 H   0  0  0  0  0  0  0  0  0  0  0  0
   61.6833   34.6225   48.4628 H   0  0  0  0  0  0  0  0  0  0  0  0
   61.4731   33.7608   50.0368 H   0  0  0  0  0  0  0  0  0  0  0  0
   63.7710   33.7720   48.2006 H   0  0  0  0  0  0  0  0  0  0  0  0
   63.6439   33.1821   49.9063 H   0  0  0  0  0  0  0  0  0  0  0  0
   63.4128   32.2803   46.4576 H   0  0  0  0  0  0  0  0  0  0  0  0
   62.6888   30.6607   46.8476 H   0  0  0  0  0  0  0  0  0  0  0  0
   61.3493   33.2015   46.3643 H   0  0  0  0  0  0  0  0  0  0  0  0
   60.6507   31.5548   46.5889 H   0  0  0  0  0  0  0  0  0  0  0  0
   57.2163   31.7285   46.9960 H   0  0  0  0  0  0  0  0  0  0  0  0
  1  2  2  0
  2  3  1  0
  3  4  1  0
  4  5  1  0
  5  6  1  0
  6  7  1  0
  7  8  1  0
  8  9  1  0
  9 10  1  0
 10 11  1  0
 11 12  2  0
 12 13  1  0
 13 14  2  0
 14 15  1  0
 15 16  2  0
  9 17  1  0
 17 18  1  0
  2 19  1  0
 19 20  1  0
 20 21  2  0
 21 22  1  0
 22 23  2  0
 23 24  1  0
 24 25  1  0
 25 26  2  0
 25 27  2  0
 25 28  1  0
 28 29  1  0
 29 30  1  0
 30 31  1  0
 31 32  1  0
 32 33  1  0
 24 34  2  0
 18  6  1  0
 34 20  1  0
 16 11  1  0
 33 28  1  0
  4 35  1  0
  4 36  1  0
  5 37  1  0
  5 38  1  0
  7 39  1  0
  7 40  1  0
  8 41  1  0
  8 42  1  0
 10 43  1  0
 10 44  1  0
 12 45  1  0
 13 46  1  0
 14 47  1  0
 15 48  1  0
 16 49  1  0
 17 50  1  0
 17 51  1  0
 18 52  1  0
 18 53  1  0
 21 54  1  0
 22 55  1  0
 23 56  1  0
 29 57  1  0
 29 58  1  0
 30 59  1  0
 30 60  1  0
 32 61  1  0
 32 62  1  0
 33 63  1  0
 33 64  1  0
 34 65  1  0
M  CHG  2   3  -1  19  -1
M  END
>  <UniqueID>  (69) 
63

>  <SMILES>  (69) 
O=C([N-]CCN1CCN(Cc2ccccc2)CC1)[N-]c1cccc(S(=O)(=O)N2CCOCC2)c1

>  <Energy>  (69) 
81.57959492706692

>  <Genealogy>  (69) 
O=C([N-]CCN1CCN(Cc2ccccc2)CC1)[N-]c1cccc(S(=O)(=O)N2CCOCC2)c1 (protonated)
O=C([N-]CCN1CCN(Cc2ccccc2)CC1)[N-]c1cccc(S(=O)(=O)N2CCOCC2)c1 (3D coordinates assigned)
O=C([N-]CCN1CCN(Cc2ccccc2)CC1)[N-]c1cccc(S(=O)(=O)N2CCOCC2)c1 (nonaromatic ring conformer: 81.57959492706692 kcal/mol)

>  <smiles>  (69) 
O=C(NCCN1CCN(Cc2ccccc2)CC1)Nc1cccc(S(=O)(=O)N2CCOCC2)c1

>  <score_type>  (69) 
oracle

>  <origin>  (69) 
adg

>  <m_score__min__energy>  (69) 
-14.32

>  <m_primary>  (69) 
energy

$$$$
69:0
     RDKit          3D

 48 50  0  0  0  0  0  0  0  0999 V2000
   63.7620   33.4190   47.7040 C   0  0  0  0  0  0  0  0  0  0  0  0
   62.3490   33.6400   48.1590 C   0  0  0  0  0  0  0  0  0  0  0  0
   61.3660   33.6450   47.2180 N   0  0  0  0  0  0  0  0  0  0  0  0
   60.0490   33.8530   47.5100 C   0  0  0  0  0  0  0  0  0  0  0  0
   59.0670   33.8240   46.4410 N   0  0  0  0  0  0  0  0  0  0  0  0
   59.5850   33.6880   45.0590 C   0  0  0  0  0  0  0  0  0  0  0  0
   58.5160   33.4500   43.9880 C   0  0  0  0  0  0  0  0  0  0  0  0
   57.3430   32.8220   44.5850 N   0  0  0  0  0  0  0  0  0  0  0  0
   57.0010   31.4270   44.4130 C   0  0  0  0  0  0  0  0  0  0  0  0
   55.8930   31.0020   44.8390 O   0  0  0  0  0  0  0  0  0  0  0  0
   57.9130   30.4420   43.7270 C   0  0  0  0  0  0  0  0  0  0  0  0
   58.7200   29.6850   44.6880 N   0  0  0  0  0  0  0  0  0  0  0  0
   59.3790   30.2620   45.6830 N   0  0  0  0  0  0  0  0  0  0  0  0
   60.0320   29.2950   46.3590 C   0  0  0  0  0  0  0  0  0  0  0  0
   60.7740   29.5270   47.6320 C   0  0  0  0  0  0  0  0  0  0  0  0
   59.7690   28.0660   45.7820 C   0  0  0  0  0  0  0  0  0  0  0  0
   60.3320   26.3450   46.4010 Br  0  0  0  0  0  0  0  0  0  0  0  0
   58.9580   28.3530   44.7020 C   0  0  0  0  0  0  0  0  0  0  0  0
   58.3650   27.3500   43.7570 C   0  0  0  0  0  0  0  0  0  0  0  0
   56.6880   33.6400   45.5970 C   0  0  0  0  0  0  0  0  0  0  0  0
   57.6270   33.8310   46.7880 C   0  0  0  0  0  0  0  0  0  0  0  0
   59.6870   34.0840   48.8490 C   0  0  0  0  0  0  0  0  0  0  0  0
   60.6660   34.0830   49.8410 C   0  0  0  0  0  0  0  0  0  0  0  0
   62.0140   33.8470   49.5170 C   0  0  0  0  0  0  0  0  0  0  0  0
   63.0040   33.8320   50.5600 N   0  0  0  0  0  0  0  0  0  0  0  0
   63.4820   34.9080   50.9830 O   0  0  0  0  0  0  0  0  0  0  0  0
   63.3060   32.6690   51.2310 O   0  0  0  0  0  0  0  0  0  0  0  0
   64.4178   33.3164   48.5811 H   0  0  0  0  0  0  0  0  0  0  0  0
   63.8131   32.5019   47.0987 H   0  0  0  0  0  0  0  0  0  0  0  0
   64.0907   34.2767   47.0987 H   0  0  0  0  0  0  0  0  0  0  0  0
   60.1238   34.6124   44.8039 H   0  0  0  0  0  0  0  0  0  0  0  0
   60.2264   32.7943   45.0574 H   0  0  0  0  0  0  0  0  0  0  0  0
   58.2264   34.4130   43.5421 H   0  0  0  0  0  0  0  0  0  0  0  0
   58.9245   32.7870   43.2112 H   0  0  0  0  0  0  0  0  0  0  0  0
   57.3017   29.7381   43.1432 H   0  0  0  0  0  0  0  0  0  0  0  0
   58.5973   31.0063   43.0764 H   0  0  0  0  0  0  0  0  0  0  0  0
   60.1116   29.3199   48.4855 H   0  0  0  0  0  0  0  0  0  0  0  0
   61.6468   28.8589   47.6747 H   0  0  0  0  0  0  0  0  0  0  0  0
   61.1108   30.5733   47.6747 H   0  0  0  0  0  0  0  0  0  0  0  0
   57.8876   26.5425   44.3315 H   0  0  0  0  0  0  0  0  0  0  0  0
   57.6132   27.8431   43.1233 H   0  0  0  0  0  0  0  0  0  0  0  0
   59.1594   26.9289   43.1233 H   0  0  0  0  0  0  0  0  0  0  0  0
   56.4363   34.6212   45.1681 H   0  0  0  0  0  0  0  0  0  0  0  0
   55.7685   33.1385   45.9333 H   0  0  0  0  0  0  0  0  0  0  0  0
   57.3918   34.7964   47.2598 H   0  0  0  0  0  0  0  0  0  0  0  0
   57.4620   32.9740   47.4576 H   0  0  0  0  0  0  0  0  0  0  0  0
   58.6345   34.2649   49.1127 H   0  0  0  0  0  0  0  0  0  0  0  0
   60.3816   34.2686   50.8873 H   0  0  0  0  0  0  0  0  0  0  0  0
  1  2  1  0
  2  3  2  0
  3  4  1  0
  4  5  1  0
  5  6  1  0
  6  7  1  0
  7  8  1  0
  8  9  1  0
  9 10  2  0
  9 11  1  0
 11 12  1  0
 12 13  1  0
 13 14  2  0
 14 15  1  0
 14 16  1  0
 16 17  1  0
 16 18  2  0
 18 19  1  0
  8 20  1  0
 20 21  1  0
  4 22  2  0
 22 23  1  0
 23 24  2  0
 24 25  1  0
 25 26  2  0
 25 27  1  0
 24  2  1  0
 21  5  1  0
 18 12  1  0
  1 28  1  0
  1 29  1  0
  1 30  1  0
  6 31  1  0
  6 32  1  0
  7 33  1  0
  7 34  1  0
 11 35  1  0
 11 36  1  0
 15 37  1  0
 15 38  1  0
 15 39  1  0
 19 40  1  0
 19 41  1  0
 19 42  1  0
 20 43  1  0
 20 44  1  0
 21 45  1  0
 21 46  1  0
 22 47  1  0
 23 48  1  0
M  CHG  2  25   1  27  -1
M  END
>  <UniqueID>  (70) 
64

>  <SMILES>  (70) 
Cc1nc(N2CCN(C(=O)Cn3nc(C)c(Br)c3C)CC2)ccc1[N+](=O)[O-]

>  <Energy>  (70) 
84.63364665390759

>  <Genealogy>  (70) 
Cc1nc(N2CCN(C(=O)Cn3nc(C)c(Br)c3C)CC2)ccc1[N+](=O)[O-] (3D coordinates assigned)
Cc1nc(N2CCN(C(=O)Cn3nc(C)c(Br)c3C)CC2)ccc1[N+](=O)[O-] (nonaromatic ring conformer: 84.63364665390759 kcal/mol)

>  <smiles>  (70) 
Cc1nc(N2CCN(C(=O)Cn3nc(C)c(Br)c3C)CC2)ccc1[N+](=O)[O-]

>  <score_type>  (70) 
oracle

>  <origin>  (70) 
adg

>  <m_score__min__energy>  (70) 
-8.3300000000000001

>  <m_primary>  (70) 
energy

$$$$
70:0
     RDKit          3D

 40 42  0  0  0  0  0  0  0  0999 V2000
   60.4550   29.2500   45.1770 C   0  0  0  0  0  0  0  0  0  0  0  0
   59.9700   29.1910   46.4280 C   0  0  0  0  0  0  0  0  0  0  0  0
   58.9510   28.3430   46.8880 C   0  0  0  0  0  0  0  0  0  0  0  0
   58.0650   27.5850   46.2130 C   0  0  0  0  0  0  0  0  0  0  0  0
   57.4290   26.3620   46.7320 C   0  0  0  0  0  0  0  0  0  0  0  0
   58.0890   25.3710   47.3630 N   0  0  0  0  0  0  0  0  0  0  0  0
   57.1440   24.4210   47.5290 C   0  0  0  0  0  0  0  0  0  0  0  0
   57.3780   23.3270   48.1040 O   0  0  0  0  0  0  0  0  0  0  0  0
   55.9330   24.7330   47.0220 N   0  0  0  0  0  0  0  0  0  0  0  0
   56.1320   25.9580   46.5080 C   0  0  0  0  0  0  0  0  0  0  0  0
   55.1420   26.6850   45.8540 O   0  0  0  0  0  0  0  0  0  0  0  0
   58.9510   28.4470   48.2660 C   0  0  0  0  0  0  0  0  0  0  0  0
   59.8870   29.4050   48.5940 C   0  0  0  0  0  0  0  0  0  0  0  0
   60.1810   29.8550   49.9940 C   0  0  0  0  0  0  0  0  0  0  0  0
   60.5090   29.8630   47.4830 N   0  0  0  0  0  0  0  0  0  0  0  0
   61.5170   30.9390   47.4530 C   0  0  0  0  0  0  0  0  0  0  0  0
   60.9420   32.2560   47.9930 C   0  0  0  0  0  0  0  0  0  0  0  0
   59.9770   32.8930   47.0240 C   0  0  0  0  0  0  0  0  0  0  0  0
   60.4150   33.9220   46.1710 C   0  0  0  0  0  0  0  0  0  0  0  0
   59.5130   34.5630   45.3180 C   0  0  0  0  0  0  0  0  0  0  0  0
   58.1690   34.1830   45.3080 C   0  0  0  0  0  0  0  0  0  0  0  0
   57.7240   33.1610   46.1500 C   0  0  0  0  0  0  0  0  0  0  0  0
   58.6220   32.5170   47.0080 C   0  0  0  0  0  0  0  0  0  0  0  0
   58.1650   31.5410   47.8340 F   0  0  0  0  0  0  0  0  0  0  0  0
   61.2595   29.9590   44.9319 H   0  0  0  0  0  0  0  0  0  0  0  0
   60.0477   28.5894   44.3975 H   0  0  0  0  0  0  0  0  0  0  0  0
   57.7957   27.9042   45.1954 H   0  0  0  0  0  0  0  0  0  0  0  0
   54.3840   27.1230   46.3630 H   0  0  0  0  0  0  0  0  0  0  0  0
   58.3246   27.8754   48.9666 H   0  0  0  0  0  0  0  0  0  0  0  0
   59.7233   29.1545   50.7080 H   0  0  0  0  0  0  0  0  0  0  0  0
   61.2696   29.8791   50.1504 H   0  0  0  0  0  0  0  0  0  0  0  0
   59.7658   30.8615   50.1504 H   0  0  0  0  0  0  0  0  0  0  0  0
   62.3764   30.6425   48.0722 H   0  0  0  0  0  0  0  0  0  0  0  0
   61.8260   31.0968   46.4091 H   0  0  0  0  0  0  0  0  0  0  0  0
   60.4147   32.0524   48.9366 H   0  0  0  0  0  0  0  0  0  0  0  0
   61.7786   32.9536   48.1461 H   0  0  0  0  0  0  0  0  0  0  0  0
   61.4728   34.2236   46.1755 H   0  0  0  0  0  0  0  0  0  0  0  0
   59.8616   35.3676   44.6538 H   0  0  0  0  0  0  0  0  0  0  0  0
   57.4600   34.6891   44.6363 H   0  0  0  0  0  0  0  0  0  0  0  0
   56.6655   32.8620   46.1384 H   0  0  0  0  0  0  0  0  0  0  0  0
  1  2  2  0
  2  3  1  0
  3  4  2  3
  4  5  1  0
  5  6  1  0
  6  7  1  0
  7  8  2  0
  7  9  1  0
  9 10  1  0
 10 11  1  0
  3 12  1  0
 12 13  2  0
 13 14  1  0
 13 15  1  0
 15 16  1  0
 16 17  1  0
 17 18  1  0
 18 19  2  0
 19 20  1  0
 20 21  2  0
 21 22  1  0
 22 23  2  0
 23 24  1  0
 15  2  1  0
 23 18  1  0
 10  5  2  0
  1 25  1  0
  1 26  1  0
  4 27  1  0
 11 28  1  0
 12 29  1  0
 14 30  1  0
 14 31  1  0
 14 32  1  0
 16 33  1  0
 16 34  1  0
 17 35  1  0
 17 36  1  0
 19 37  1  0
 20 38  1  0
 21 39  1  0
 22 40  1  0
M  CHG  2   6  -1   9  -1
M  END
>  <UniqueID>  (71) 
65

>  <SMILES>  (71) 
C=c1c(=Cc2[n-]c(=O)[n-]c2O)cc(C)n1CCc1ccccc1F

>  <Energy>  (71) 
105.53319492176928

>  <Genealogy>  (71) 
C=c1c(=Cc2[n-]c(=O)[n-]c2O)cc(C)n1CCc1ccccc1F (protonated)
C=c1c(=Cc2[n-]c(=O)[n-]c2O)cc(C)n1CCc1ccccc1F (3D coordinates assigned)
C=c1c(=Cc2[n-]c(=O)[n-]c2O)cc(C)n1CCc1ccccc1F (optimized conformer: 105.53319492176928 kcal/mol)

>  <smiles>  (71) 
C=c1c(=Cc2[nH]c(=O)[nH]c2O)cc(C)n1CCc1ccccc1F

>  <score_type>  (71) 
oracle

>  <origin>  (71) 
adg

>  <m_score__min__energy>  (71) 
-12.43

>  <m_primary>  (71) 
energy

$$$$
71:0
     RDKit          3D

 57 61  0  0  0  0  0  0  0  0999 V2000
   59.9880   26.3920   48.6260 O   0  0  0  0  0  0  0  0  0  0  0  0
   59.5280   27.2990   47.8810 C   0  0  0  0  0  0  0  0  0  0  0  0
   58.3550   27.0660   47.0830 N   0  0  0  0  0  0  0  0  0  0  0  0
   58.0580   27.5820   45.9260 C   0  0  0  0  0  0  0  0  0  0  0  0
   57.4890   28.7980   45.7260 N   0  0  0  0  0  0  0  0  0  0  0  0
   57.3110   29.0700   44.4020 C   0  0  0  0  0  0  0  0  0  0  0  0
   56.7440   30.3530   43.9340 C   0  0  0  0  0  0  0  0  0  0  0  0
   56.4730   30.4940   42.7140 O   0  0  0  0  0  0  0  0  0  0  0  0
   56.4360   31.4240   44.8360 N   0  0  0  0  0  0  0  0  0  0  0  0
   57.3110   32.5060   45.1890 C   0  0  0  0  0  0  0  0  0  0  0  0
   57.4220   32.9650   46.5150 C   0  0  0  0  0  0  0  0  0  0  0  0
   58.3030   34.0050   46.8280 C   0  0  0  0  0  0  0  0  0  0  0  0
   59.0870   34.5840   45.8270 C   0  0  0  0  0  0  0  0  0  0  0  0
   59.9400   35.5930   46.1320 F   0  0  0  0  0  0  0  0  0  0  0  0
   58.9970   34.1180   44.5120 C   0  0  0  0  0  0  0  0  0  0  0  0
   58.1160   33.0780   44.1960 C   0  0  0  0  0  0  0  0  0  0  0  0
   57.7640   28.0700   43.5390 C   0  0  0  0  0  0  0  0  0  0  0  0
   58.3930   26.8170   44.4720 S   0  0  0  0  0  0  0  0  0  0  0  0
   60.2490   28.5890   47.7690 C   0  0  0  0  0  0  0  0  0  0  0  0
   60.7350   29.2380   48.9190 C   0  0  0  0  0  0  0  0  0  0  0  0
   61.4120   30.4560   48.8140 C   0  0  0  0  0  0  0  0  0  0  0  0
   61.6100   31.0470   47.5620 C   0  0  0  0  0  0  0  0  0  0  0  0
   62.4590   32.5850   47.4520 S   0  0  0  0  0  0  0  0  0  0  0  0
   63.7740   32.4180   46.7410 O   0  0  0  0  0  0  0  0  0  0  0  0
   61.6220   33.5500   46.6590 O   0  0  0  0  0  0  0  0  0  0  0  0
   62.7450   33.2020   49.0580 N   0  0  0  0  0  0  0  0  0  0  0  0
   64.1180   33.4540   49.5040 C   0  0  0  0  0  0  0  0  0  0  0  0
   64.3550   32.7450   50.8330 C   0  0  0  0  0  0  0  0  0  0  0  0
   63.3840   33.2700   51.8980 C   0  0  0  0  0  0  0  0  0  0  0  0
   61.9590   33.3470   51.3990 C   0  0  0  0  0  0  0  0  0  0  0  0
   60.9180   33.4900   52.3290 C   0  0  0  0  0  0  0  0  0  0  0  0
   59.5990   33.6380   51.8970 C   0  0  0  0  0  0  0  0  0  0  0  0
   59.3100   33.6690   50.5320 C   0  0  0  0  0  0  0  0  0  0  0  0
   60.3370   33.5390   49.5930 C   0  0  0  0  0  0  0  0  0  0  0  0
   61.6700   33.3650   50.0120 C   0  0  0  0  0  0  0  0  0  0  0  0
   61.1290   30.4100   46.4130 C   0  0  0  0  0  0  0  0  0  0  0  0
   60.4540   29.1900   46.5140 C   0  0  0  0  0  0  0  0  0  0  0  0
   57.2400   29.4790   46.4750 H   0  0  0  0  0  0  0  0  0  0  0  0
   56.8139   32.5043   47.3075 H   0  0  0  0  0  0  0  0  0  0  0  0
   58.3788   34.3677   47.8637 H   0  0  0  0  0  0  0  0  0  0  0  0
   59.6193   34.5693   43.7252 H   0  0  0  0  0  0  0  0  0  0  0  0
   58.0553   32.7076   43.1620 H   0  0  0  0  0  0  0  0  0  0  0  0
   57.7180   28.0962   42.4403 H   0  0  0  0  0  0  0  0  0  0  0  0
   60.5808   28.7830   49.9085 H   0  0  0  0  0  0  0  0  0  0  0  0
   61.7907   30.9520   49.7198 H   0  0  0  0  0  0  0  0  0  0  0  0
   64.8244   33.0715   48.7525 H   0  0  0  0  0  0  0  0  0  0  0  0
   64.2711   34.5358   49.6314 H   0  0  0  0  0  0  0  0  0  0  0  0
   64.1984   31.6643   50.7006 H   0  0  0  0  0  0  0  0  0  0  0  0
   65.3863   32.9391   51.1628 H   0  0  0  0  0  0  0  0  0  0  0  0
   63.4169   32.5966   52.7672 H   0  0  0  0  0  0  0  0  0  0  0  0
   63.6997   34.2900   52.1624 H   0  0  0  0  0  0  0  0  0  0  0  0
   61.1429   33.4854   53.4057 H   0  0  0  0  0  0  0  0  0  0  0  0
   58.7867   33.7303   52.6330 H   0  0  0  0  0  0  0  0  0  0  0  0
   58.2709   33.7961   50.1942 H   0  0  0  0  0  0  0  0  0  0  0  0
   60.1023   33.5729   48.5189 H   0  0  0  0  0  0  0  0  0  0  0  0
   61.2826   30.8710   45.4261 H   0  0  0  0  0  0  0  0  0  0  0  0
   60.0803   28.6962   45.6049 H   0  0  0  0  0  0  0  0  0  0  0  0
  1  2  2  0
  2  3  1  0
  3  4  2  3
  4  5  1  0
  5  6  1  0
  6  7  1  0
  7  8  2  0
  7  9  1  0
  9 10  1  0
 10 11  2  0
 11 12  1  0
 12 13  2  0
 13 14  1  0
 13 15  1  0
 15 16  2  0
  6 17  2  0
 17 18  1  0
  2 19  1  0
 19 20  2  0
 20 21  1  0
 21 22  2  0
 22 23  1  0
 23 24  2  0
 23 25  2  0
 23 26  1  0
 26 27  1  0
 27 28  1  0
 28 29  1  0
 29 30  1  0
 30 31  2  0
 31 32  1  0
 32 33  2  0
 33 34  1  0
 34 35  2  0
 22 36  1  0
 36 37  2  0
 18  4  1  0
 37 19  1  0
 16 10  1  0
 35 26  1  0
 35 30  1  0
  5 38  1  0
 11 39  1  0
 12 40  1  0
 15 41  1  0
 16 42  1  0
 17 43  1  0
 20 44  1  0
 21 45  1  0
 27 46  1  0
 27 47  1  0
 28 48  1  0
 28 49  1  0
 29 50  1  0
 29 51  1  0
 31 52  1  0
 32 53  1  0
 33 54  1  0
 34 55  1  0
 36 56  1  0
 37 57  1  0
M  CHG  1   9  -1
M  END
>  <UniqueID>  (72) 
66

>  <SMILES>  (72) 
O=C(N=c1[nH]c(C(=O)[N-]c2ccc(F)cc2)cs1)c1ccc(S(=O)(=O)N2CCCc3ccccc32)cc1

>  <Energy>  (72) 
107.9332284452011

>  <Genealogy>  (72) 
O=C(N=c1[nH]c(C(=O)[N-]c2ccc(F)cc2)cs1)c1ccc(S(=O)(=O)N2CCCc3ccccc32)cc1 (protonated)
O=C(N=c1[nH]c(C(=O)[N-]c2ccc(F)cc2)cs1)c1ccc(S(=O)(=O)N2CCCc3ccccc32)cc1 (3D coordinates assigned)
O=C(N=c1[nH]c(C(=O)[N-]c2ccc(F)cc2)cs1)c1ccc(S(=O)(=O)N2CCCc3ccccc32)cc1 (nonaromatic ring conformer: 107.9332284452011 kcal/mol)

>  <smiles>  (72) 
O=C(N=c1[nH]c(C(=O)Nc2ccc(F)cc2)cs1)c1ccc(S(=O)(=O)N2CCCc3ccccc32)cc1

>  <score_type>  (72) 
oracle

>  <origin>  (72) 
adg

>  <m_score__min__energy>  (72) 
-12.07

>  <m_primary>  (72) 
energy

$$$$
72:0
     RDKit          3D

 47 50  0  0  0  0  0  0  0  0999 V2000
   54.1810   28.5250   52.5900 O   0  0  0  0  0  0  0  0  0  0  0  0
   54.2210   29.7730   52.4170 C   0  0  0  0  0  0  0  0  0  0  0  0
   55.3190   30.5070   52.9780 N   0  0  0  0  0  0  0  0  0  0  0  0
   56.5850   30.7410   52.3430 C   0  0  0  0  0  0  0  0  0  0  0  0
   57.5610   29.7390   52.3810 C   0  0  0  0  0  0  0  0  0  0  0  0
   58.7840   29.9180   51.7250 C   0  0  0  0  0  0  0  0  0  0  0  0
   59.0440   31.1070   51.0250 C   0  0  0  0  0  0  0  0  0  0  0  0
   60.3060   31.2770   50.2730 C   0  0  0  0  0  0  0  0  0  0  0  0
   61.3840   30.8360   50.7550 O   0  0  0  0  0  0  0  0  0  0  0  0
   60.3240   31.9590   49.0060 N   0  0  0  0  0  0  0  0  0  0  0  0
   60.4920   33.4240   48.9920 C   0  0  0  0  0  0  0  0  0  0  0  0
   60.3830   34.0210   47.5740 C   0  0  0  0  0  0  0  0  0  0  0  0
   59.3170   33.3230   46.7720 C   0  0  0  0  0  0  0  0  0  0  0  0
   58.4590   34.0310   45.9190 C   0  0  0  0  0  0  0  0  0  0  0  0
   57.4980   33.3480   45.1660 C   0  0  0  0  0  0  0  0  0  0  0  0
   57.3980   31.9540   45.2490 C   0  0  0  0  0  0  0  0  0  0  0  0
   56.4350   31.2880   44.4940 O   0  0  0  0  0  0  0  0  0  0  0  0
   58.2660   31.2400   46.0870 C   0  0  0  0  0  0  0  0  0  0  0  0
   59.2240   31.9240   46.8480 C   0  0  0  0  0  0  0  0  0  0  0  0
   60.1750   31.1990   47.7550 C   0  0  0  0  0  0  0  0  0  0  0  0
   58.0880   32.1360   51.0440 C   0  0  0  0  0  0  0  0  0  0  0  0
   56.8720   31.9580   51.7030 C   0  0  0  0  0  0  0  0  0  0  0  0
   53.1620   30.4290   51.6120 C   0  0  0  0  0  0  0  0  0  0  0  0
   52.7150   29.8580   50.4070 C   0  0  0  0  0  0  0  0  0  0  0  0
   51.7330   30.4970   49.6420 C   0  0  0  0  0  0  0  0  0  0  0  0
   51.3130   29.9290   48.4450 O   0  0  0  0  0  0  0  0  0  0  0  0
   51.1750   31.7020   50.0820 C   0  0  0  0  0  0  0  0  0  0  0  0
   50.1960   32.3340   49.3240 O   0  0  0  0  0  0  0  0  0  0  0  0
   51.5990   32.2660   51.2900 C   0  0  0  0  0  0  0  0  0  0  0  0
   51.0450   33.4620   51.7350 O   0  0  0  0  0  0  0  0  0  0  0  0
   52.5840   31.6310   52.0540 C   0  0  0  0  0  0  0  0  0  0  0  0
   57.3658   28.8057   52.9295 H   0  0  0  0  0  0  0  0  0  0  0  0
   59.5447   29.1241   51.7579 H   0  0  0  0  0  0  0  0  0  0  0  0
   59.7124   33.8739   49.6243 H   0  0  0  0  0  0  0  0  0  0  0  0
   61.5006   33.6469   49.3702 H   0  0  0  0  0  0  0  0  0  0  0  0
   60.1320   35.0891   47.6523 H   0  0  0  0  0  0  0  0  0  0  0  0
   61.3481   33.8868   47.0635 H   0  0  0  0  0  0  0  0  0  0  0  0
   58.5415   35.1252   45.8416 H   0  0  0  0  0  0  0  0  0  0  0  0
   56.8187   33.9080   44.5065 H   0  0  0  0  0  0  0  0  0  0  0  0
   56.5350   31.1710   43.4930 H   0  0  0  0  0  0  0  0  0  0  0  0
   58.1953   30.1439   46.1473 H   0  0  0  0  0  0  0  0  0  0  0  0
   59.7794   30.1971   47.9780 H   0  0  0  0  0  0  0  0  0  0  0  0
   61.1538   31.1016   47.2627 H   0  0  0  0  0  0  0  0  0  0  0  0
   58.2999   33.0883   50.5358 H   0  0  0  0  0  0  0  0  0  0  0  0
   56.1345   32.7740   51.7217 H   0  0  0  0  0  0  0  0  0  0  0  0
   53.1400   28.9032   50.0638 H   0  0  0  0  0  0  0  0  0  0  0  0
   52.9080   32.0755   53.0066 H   0  0  0  0  0  0  0  0  0  0  0  0
  1  2  2  0
  2  3  1  0
  3  4  1  0
  4  5  2  0
  5  6  1  0
  6  7  2  0
  7  8  1  0
  8  9  2  0
  8 10  1  0
 10 11  1  0
 11 12  1  0
 12 13  1  0
 13 14  2  0
 14 15  1  0
 15 16  2  0
 16 17  1  0
 16 18  1  0
 18 19  2  0
 19 20  1  0
  7 21  1  0
 21 22  2  0
  2 23  1  0
 23 24  2  0
 24 25  1  0
 25 26  1  0
 25 27  2  0
 27 28  1  0
 27 29  1  0
 29 30  1  0
 29 31  2  0
 22  4  1  0
 31 23  1  0
 20 10  1  0
 19 13  1  0
  5 32  1  0
  6 33  1  0
 11 34  1  0
 11 35  1  0
 12 36  1  0
 12 37  1  0
 14 38  1  0
 15 39  1  0
 17 40  1  0
 18 41  1  0
 20 42  1  0
 20 43  1  0
 21 44  1  0
 22 45  1  0
 24 46  1  0
 31 47  1  0
M  CHG  4   3  -1  26  -1  28  -1  30  -1
M  END
>  <UniqueID>  (73) 
67

>  <SMILES>  (73) 
O=C([N-]c1ccc(C(=O)N2CCc3ccc(O)cc3C2)cc1)c1cc([O-])c([O-])c([O-])c1

>  <Energy>  (73) 
64.9201639152256

>  <Genealogy>  (73) 
O=C([N-]c1ccc(C(=O)N2CCc3ccc(O)cc3C2)cc1)c1cc([O-])c([O-])c([O-])c1 (protonated)
O=C([N-]c1ccc(C(=O)N2CCc3ccc(O)cc3C2)cc1)c1cc([O-])c([O-])c([O-])c1 (3D coordinates assigned)
O=C([N-]c1ccc(C(=O)N2CCc3ccc(O)cc3C2)cc1)c1cc([O-])c([O-])c([O-])c1 (nonaromatic ring conformer: 64.9201639152256 kcal/mol)

>  <smiles>  (73) 
O=C(Nc1ccc(C(=O)N2CCc3ccc(O)cc3C2)cc1)c1cc(O)c(O)c(O)c1

>  <score_type>  (73) 
oracle

>  <origin>  (73) 
adg

>  <m_score__min__energy>  (73) 
-20.600000000000001

>  <m_primary>  (73) 
energy

$$$$
73:0
     RDKit          3D

 63 67  0  0  0  0  0  0  0  0999 V2000
   49.8335   31.9255   56.0763 H   0  0  0  0  0  0  0  0  0  0  0  0
   50.1100   32.0940   55.0250 C   0  0  0  0  0  0  0  0  0  0  0  0
   50.4670   31.0440   54.2400 N   0  0  0  0  0  0  0  0  0  0  0  0
   50.8240   31.1900   52.9340 C   0  0  0  0  0  0  0  0  0  0  0  0
   51.1570   30.1130   52.2740 N   0  0  0  0  0  0  0  0  0  0  0  0
   52.2150   29.1820   52.5480 C   0  0  0  0  0  0  0  0  0  0  0  0
   51.9430   27.9650   52.7380 O   0  0  0  0  0  0  0  0  0  0  0  0
   53.6280   29.6260   52.5040 C   0  0  0  0  0  0  0  0  0  0  0  0
   53.9900   30.8020   51.8260 C   0  0  0  0  0  0  0  0  0  0  0  0
   53.2197   31.3905   51.3062 H   0  0  0  0  0  0  0  0  0  0  0  0
   55.3200   31.2310   51.8060 C   0  0  0  0  0  0  0  0  0  0  0  0
   55.5875   32.1512   51.2660 H   0  0  0  0  0  0  0  0  0  0  0  0
   56.3200   30.4970   52.4700 C   0  0  0  0  0  0  0  0  0  0  0  0
   57.7380   30.9390   52.4710 C   0  0  0  0  0  0  0  0  0  0  0  0
   58.6200   30.3460   51.6210 N   0  0  0  0  0  0  0  0  0  0  0  0
   59.9390   30.6720   51.5570 C   0  0  0  0  0  0  0  0  0  0  0  0
   60.6460   30.0940   50.6230 N   0  0  0  0  0  0  0  0  0  0  0  0
   60.2850   29.7820   49.2700 C   0  0  0  0  0  0  0  0  0  0  0  0
   59.4050   28.7260   48.9840 C   0  0  0  0  0  0  0  0  0  0  0  0
   58.9778   28.1311   49.8048 H   0  0  0  0  0  0  0  0  0  0  0  0
   59.0700   28.4280   47.6610 C   0  0  0  0  0  0  0  0  0  0  0  0
   58.3612   27.6148   47.4457 H   0  0  0  0  0  0  0  0  0  0  0  0
   59.6340   29.1620   46.6040 C   0  0  0  0  0  0  0  0  0  0  0  0
   59.2670   28.8620   45.2030 C   0  0  0  0  0  0  0  0  0  0  0  0
   59.8960   27.9630   44.5800 O   0  0  0  0  0  0  0  0  0  0  0  0
   58.1970   29.5630   44.5440 N   0  0  0  0  0  0  0  0  0  0  0  0
   57.3570   28.8400   43.5840 C   0  0  0  0  0  0  0  0  0  0  0  0
   57.9710   28.5311   42.7252 H   0  0  0  0  0  0  0  0  0  0  0  0
   56.9285   27.9558   44.0785 H   0  0  0  0  0  0  0  0  0  0  0  0
   56.2190   29.7360   43.0940 C   0  0  0  0  0  0  0  0  0  0  0  0
   56.5940   30.4110   42.3106 H   0  0  0  0  0  0  0  0  0  0  0  0
   55.4108   29.1136   42.6825 H   0  0  0  0  0  0  0  0  0  0  0  0
   55.7260   30.4970   44.1760 O   0  0  0  0  0  0  0  0  0  0  0  0
   56.6520   31.5130   44.5270 C   0  0  0  0  0  0  0  0  0  0  0  0
   56.5894   32.3127   43.7743 H   0  0  0  0  0  0  0  0  0  0  0  0
   56.3789   31.8572   45.5354 H   0  0  0  0  0  0  0  0  0  0  0  0
   58.1190   31.0300   44.6020 C   0  0  0  0  0  0  0  0  0  0  0  0
   58.6803   31.4533   43.7560 H   0  0  0  0  0  0  0  0  0  0  0  0
   58.5487   31.3652   45.5575 H   0  0  0  0  0  0  0  0  0  0  0  0
   60.5740   30.1660   46.8930 C   0  0  0  0  0  0  0  0  0  0  0  0
   61.0557   30.7170   46.0718 H   0  0  0  0  0  0  0  0  0  0  0  0
   60.9000   30.4680   48.2170 C   0  0  0  0  0  0  0  0  0  0  0  0
   61.6439   31.2490   48.4330 H   0  0  0  0  0  0  0  0  0  0  0  0
   60.4510   31.6300   52.4830 C   0  0  0  0  0  0  0  0  0  0  0  0
   61.8920   31.8470   52.7360 C   0  0  0  0  0  0  0  0  0  0  0  0
   62.2640   32.7880   53.4880 O   0  0  0  0  0  0  0  0  0  0  0  0
   62.8730   31.0260   52.1010 N   0  0  0  0  0  0  0  0  0  0  0  0
   63.8890   31.1900   52.2770 H   0  0  0  0  0  0  0  0  0  0  0  0
   62.5880   30.2300   51.4890 H   0  0  0  0  0  0  0  0  0  0  0  0
   59.5490   32.2770   53.3380 C   0  0  0  0  0  0  0  0  0  0  0  0
   59.9126   33.0594   54.0204 H   0  0  0  0  0  0  0  0  0  0  0  0
   58.1970   31.9410   53.3340 C   0  0  0  0  0  0  0  0  0  0  0  0
   57.4953   32.4593   54.0041 H   0  0  0  0  0  0  0  0  0  0  0  0
   55.9580   29.3120   53.1340 C   0  0  0  0  0  0  0  0  0  0  0  0
   56.7298   28.7154   53.6424 H   0  0  0  0  0  0  0  0  0  0  0  0
   54.6280   28.8840   53.1550 C   0  0  0  0  0  0  0  0  0  0  0  0
   54.3615   27.9581   53.6858 H   0  0  0  0  0  0  0  0  0  0  0  0
   50.7800   32.4880   52.3570 C   0  0  0  0  0  0  0  0  0  0  0  0
   51.0210   32.7140   51.0080 O   0  0  0  0  0  0  0  0  0  0  0  0
   50.4280   33.5770   53.1600 C   0  0  0  0  0  0  0  0  0  0  0  0
   50.4147   34.5906   52.7329 H   0  0  0  0  0  0  0  0  0  0  0  0
   50.0940   33.3840   54.4990 C   0  0  0  0  0  0  0  0  0  0  0  0
   49.8209   34.2402   55.1333 H   0  0  0  0  0  0  0  0  0  0  0  0
  1  2  1  0
  2  3  1  0
  3  4  1  0
  4  5  2  0
  5  6  1  0
  6  7  2  0
  6  8  1  0
  8  9  2  0
  9 10  1  0
  9 11  1  0
 11 12  1  0
 11 13  2  0
 13 14  1  0
 14 15  1  0
 15 16  1  0
 16 17  2  3
 17 18  1  0
 18 19  2  0
 19 20  1  0
 19 21  1  0
 21 22  1  0
 21 23  2  0
 23 24  1  0
 24 25  2  0
 24 26  1  0
 26 27  1  0
 27 28  1  0
 27 29  1  0
 27 30  1  0
 30 31  1  0
 30 32  1  0
 30 33  1  0
 33 34  1  0
 34 35  1  0
 34 36  1  0
 34 37  1  0
 37 38  1  0
 37 39  1  0
 23 40  1  0
 40 41  1  0
 40 42  2  0
 42 43  1  0
 16 44  1  0
 44 45  1  0
 45 46  2  0
 45 47  1  0
 47 48  1  0
 47 49  1  0
 44 50  2  0
 50 51  1  0
 50 52  1  0
 52 53  1  0
 13 54  1  0
 54 55  1  0
 54 56  2  0
 56 57  1  0
  4 58  1  0
 58 59  1  0
 58 60  2  0
 60 61  1  0
 60 62  1  0
 62 63  1  0
 62  2  2  0
 56  8  1  0
 52 14  2  0
 42 18  1  0
 37 26  1  0
M  CHG  3   3  -1  15  -1  59  -1
M  END
>  <UniqueID>  (74) 
68

>  <SMILES>  (74) 
NC(=O)c1ccc(-c2ccc(C(=O)/N=c3/[n-]cccc3[O-])cc2)[n-]c1=Nc1ccc(C(=O)N2CCOCC2)cc1

>  <Energy>  (74) 
117.30491473809283

>  <Genealogy>  (74) 
NC(=O)c1ccc(-c2ccc(C(=O)N=c3[n-]cccc3[O-])cc2)[n-]c1=Nc1ccc(C(=O)N2CCOCC2)cc1 (protonated)
NC(=O)c1ccc(-c2ccc(C(=O)/N=c3/[n-]cccc3[O-])cc2)[n-]c1=Nc1ccc(C(=O)N2CCOCC2)cc1 (cis-trans isomerization)
NC(=O)c1ccc(-c2ccc(C(=O)/N=c3/[n-]cccc3[O-])cc2)[n-]c1=Nc1ccc(C(=O)N2CCOCC2)cc1 (3D coordinates assigned)
NC(=O)c1ccc(-c2ccc(C(=O)/N=c3/[n-]cccc3[O-])cc2)[n-]c1=Nc1ccc(C(=O)N2CCOCC2)cc1 (nonaromatic ring conformer: 117.30491473809283 kcal/mol)

>  <smiles>  (74) 
NC(=O)c1ccc(-c2ccc(C(=O)N=c3[nH]cccc3O)cc2)[nH]c1=Nc1ccc(C(=O)N2CCOCC2)cc1

>  <score_type>  (74) 
oracle

>  <origin>  (74) 
adg

>  <m_score__min__energy>  (74) 
-15.550000000000001

>  <m_primary>  (74) 
energy

$$$$
74:0
     RDKit          3D

 63 66  0  0  0  0  0  0  0  0999 V2000
   50.6460   30.5970   53.1260 C   0  0  0  0  0  0  0  0  0  0  0  0
   52.1020   30.6790   52.9410 N   0  0  0  0  0  0  0  0  0  0  0  0
   52.7970   29.7520   53.8660 C   0  0  0  0  0  0  0  0  0  0  0  0
   54.2120   29.3500   53.3940 C   0  0  0  0  0  0  0  0  0  0  0  0
   54.7670   30.3040   52.4230 N   0  0  0  0  0  0  0  0  0  0  0  0
   56.1920   30.5320   52.3720 C   0  0  0  0  0  0  0  0  0  0  0  0
   57.0780   29.6760   53.0490 C   0  0  0  0  0  0  0  0  0  0  0  0
   58.4570   29.8990   53.0010 C   0  0  0  0  0  0  0  0  0  0  0  0
   58.9760   30.9860   52.2890 C   0  0  0  0  0  0  0  0  0  0  0  0
   60.3990   31.1640   52.2490 N   0  0  0  0  0  0  0  0  0  0  0  0
   61.3960   30.1410   52.3770 C   0  0  0  0  0  0  0  0  0  0  0  0
   62.4280   30.3440   53.0710 O   0  0  0  0  0  0  0  0  0  0  0  0
   61.1650   28.8250   51.8570 N   0  0  0  0  0  0  0  0  0  0  0  0
   60.7080   28.4860   50.6830 C   0  0  0  0  0  0  0  0  0  0  0  0
   60.9010   27.2050   50.1250 C   0  0  0  0  0  0  0  0  0  0  0  0
   60.3800   26.9190   48.8620 C   0  0  0  0  0  0  0  0  0  0  0  0
   59.6550   27.8910   48.1550 C   0  0  0  0  0  0  0  0  0  0  0  0
   59.1060   27.6000   46.8050 C   0  0  0  0  0  0  0  0  0  0  0  0
   58.8670   26.2750   46.4030 C   0  0  0  0  0  0  0  0  0  0  0  0
   58.3590   26.0030   45.1330 C   0  0  0  0  0  0  0  0  0  0  0  0
   58.1340   24.7200   44.7580 F   0  0  0  0  0  0  0  0  0  0  0  0
   58.0860   27.0460   44.2450 C   0  0  0  0  0  0  0  0  0  0  0  0
   58.3250   28.3800   44.6190 C   0  0  0  0  0  0  0  0  0  0  0  0
   58.0600   29.4910   43.7390 N   0  0  0  0  0  0  0  0  0  0  0  0
   57.4380   31.0470   44.2070 S   0  0  0  0  0  0  0  0  0  0  0  0
   57.3680   31.9800   43.0310 O   0  0  0  0  0  0  0  0  0  0  0  0
   56.0370   30.8480   44.7140 O   0  0  0  0  0  0  0  0  0  0  0  0
   58.3910   31.7700   45.5430 C   0  0  0  0  0  0  0  0  0  0  0  0
   57.9420   33.1810   45.9240 C   0  0  0  0  0  0  0  0  0  0  0  0
   58.8710   34.0900   45.4500 F   0  0  0  0  0  0  0  0  0  0  0  0
   56.7180   33.4670   45.3500 F   0  0  0  0  0  0  0  0  0  0  0  0
   57.8560   33.3130   47.2970 F   0  0  0  0  0  0  0  0  0  0  0  0
   58.8240   28.6440   45.9070 C   0  0  0  0  0  0  0  0  0  0  0  0
   59.4620   29.1430   48.7590 C   0  0  0  0  0  0  0  0  0  0  0  0
   59.9830   29.4010   49.9870 N   0  0  0  0  0  0  0  0  0  0  0  0
   58.0960   31.8300   51.5890 C   0  0  0  0  0  0  0  0  0  0  0  0
   56.7170   31.6090   51.6370 C   0  0  0  0  0  0  0  0  0  0  0  0
   53.9220   30.8100   51.3310 C   0  0  0  0  0  0  0  0  0  0  0  0
   52.4620   30.4160   51.5390 C   0  0  0  0  0  0  0  0  0  0  0  0
   50.4131   30.5839   54.2010 H   0  0  0  0  0  0  0  0  0  0  0  0
   50.1672   31.4696   52.6577 H   0  0  0  0  0  0  0  0  0  0  0  0
   50.2682   29.6762   52.6577 H   0  0  0  0  0  0  0  0  0  0  0  0
   52.8840   30.2410   54.8475 H   0  0  0  0  0  0  0  0  0  0  0  0
   52.1979   28.8304   53.9083 H   0  0  0  0  0  0  0  0  0  0  0  0
   54.8780   29.3072   54.2684 H   0  0  0  0  0  0  0  0  0  0  0  0
   54.1366   28.3706   52.8989 H   0  0  0  0  0  0  0  0  0  0  0  0
   56.6828   28.8237   53.6212 H   0  0  0  0  0  0  0  0  0  0  0  0
   59.1393   29.2149   53.5268 H   0  0  0  0  0  0  0  0  0  0  0  0
   61.4582   26.4368   50.6812 H   0  0  0  0  0  0  0  0  0  0  0  0
   60.5386   25.9253   48.4178 H   0  0  0  0  0  0  0  0  0  0  0  0
   59.0820   25.4469   47.0944 H   0  0  0  0  0  0  0  0  0  0  0  0
   57.6815   26.8223   43.2468 H   0  0  0  0  0  0  0  0  0  0  0  0
   58.1400   29.3310   42.7090 H   0  0  0  0  0  0  0  0  0  0  0  0
   58.2943   31.1239   46.4279 H   0  0  0  0  0  0  0  0  0  0  0  0
   59.4305   31.8471   45.1916 H   0  0  0  0  0  0  0  0  0  0  0  0
   58.9966   29.6852   46.2170 H   0  0  0  0  0  0  0  0  0  0  0  0
   58.8857   29.9198   48.2352 H   0  0  0  0  0  0  0  0  0  0  0  0
   58.4953   32.6690   51.0002 H   0  0  0  0  0  0  0  0  0  0  0  0
   56.0371   32.2831   51.0954 H   0  0  0  0  0  0  0  0  0  0  0  0
   53.9969   31.9069   51.2974 H   0  0  0  0  0  0  0  0  0  0  0  0
   54.2717   30.3697   50.3855 H   0  0  0  0  0  0  0  0  0  0  0  0
   51.8190   31.0103   50.8732 H   0  0  0  0  0  0  0  0  0  0  0  0
   52.3232   29.3495   51.3082 H   0  0  0  0  0  0  0  0  0  0  0  0
  1  2  1  0
  2  3  1  0
  3  4  1  0
  4  5  1  0
  5  6  1  0
  6  7  2  0
  7  8  1  0
  8  9  2  0
  9 10  1  0
 10 11  1  0
 11 12  2  0
 11 13  1  0
 13 14  2  3
 14 15  1  0
 15 16  2  0
 16 17  1  0
 17 18  1  0
 18 19  2  0
 19 20  1  0
 20 21  1  0
 20 22  2  0
 22 23  1  0
 23 24  1  0
 24 25  1  0
 25 26  2  0
 25 27  2  0
 25 28  1  0
 28 29  1  0
 29 30  1  0
 29 31  1  0
 29 32  1  0
 23 33  2  0
 17 34  2  0
 34 35  1  0
  9 36  1  0
 36 37  2  0
  5 38  1  0
 38 39  1  0
 39  2  1  0
 37  6  1  0
 35 14  1  0
 33 18  1  0
  1 40  1  0
  1 41  1  0
  1 42  1  0
  3 43  1  0
  3 44  1  0
  4 45  1  0
  4 46  1  0
  7 47  1  0
  8 48  1  0
 15 49  1  0
 16 50  1  0
 19 51  1  0
 22 52  1  0
 24 53  1  0
 28 54  1  0
 28 55  1  0
 33 56  1  0
 34 57  1  0
 36 58  1  0
 37 59  1  0
 38 60  1  0
 38 61  1  0
 39 62  1  0
 39 63  1  0
M  CHG  2  10  -1  35  -1
M  END
>  <UniqueID>  (75) 
69

>  <SMILES>  (75) 
CN1CCN(c2ccc([N-]C(=O)N=c3ccc(-c4cc(F)cc(NS(=O)(=O)CC(F)(F)F)c4)c[n-]3)cc2)CC1

>  <Energy>  (75) 
91.56617601308342

>  <Genealogy>  (75) 
CN1CCN(c2ccc([N-]C(=O)N=c3ccc(-c4cc(F)cc(NS(=O)(=O)CC(F)(F)F)c4)c[n-]3)cc2)CC1 (protonated)
CN1CCN(c2ccc([N-]C(=O)N=c3ccc(-c4cc(F)cc(NS(=O)(=O)CC(F)(F)F)c4)c[n-]3)cc2)CC1 (3D coordinates assigned)
CN1CCN(c2ccc([N-]C(=O)N=c3ccc(-c4cc(F)cc(NS(=O)(=O)CC(F)(F)F)c4)c[n-]3)cc2)CC1 (nonaromatic ring conformer: 91.56617601308342 kcal/mol)

>  <smiles>  (75) 
CN1CCN(c2ccc(NC(=O)N=c3ccc(-c4cc(F)cc(NS(=O)(=O)CC(F)(F)F)c4)c[nH]3)cc2)CC1

>  <score_type>  (75) 
oracle

>  <origin>  (75) 
adg

>  <m_score__min__energy>  (75) 
-11.039999999999999

>  <m_primary>  (75) 
energy

$$$$
75:0
     RDKit          3D

 55 58  0  0  0  0  0  0  0  0999 V2000
   61.5268   29.8368   47.6443 H   0  0  0  0  0  0  0  0  0  0  0  0
   60.7630   29.2350   47.1300 C   0  0  0  0  0  0  0  0  0  0  0  0
   60.9110   28.1528   47.0002 H   0  0  0  0  0  0  0  0  0  0  0  0
   59.6510   29.8210   46.6610 C   0  0  0  0  0  0  0  0  0  0  0  0
   58.5970   29.1930   45.9900 C   0  0  0  0  0  0  0  0  0  0  0  0
   58.4730   27.8810   45.7140 C   0  0  0  0  0  0  0  0  0  0  0  0
   59.3342   27.3625   45.2674 H   0  0  0  0  0  0  0  0  0  0  0  0
   57.2510   27.0980   45.9750 C   0  0  0  0  0  0  0  0  0  0  0  0
   57.2670   25.8540   46.4860 N   0  0  0  0  0  0  0  0  0  0  0  0
   55.9660   25.4920   46.4700 C   0  0  0  0  0  0  0  0  0  0  0  0
   55.5680   24.3750   46.8910 O   0  0  0  0  0  0  0  0  0  0  0  0
   55.1260   26.4160   45.9570 N   0  0  0  0  0  0  0  0  0  0  0  0
   55.9560   27.4220   45.6360 C   0  0  0  0  0  0  0  0  0  0  0  0
   55.5410   28.5880   45.0040 O   0  0  0  0  0  0  0  0  0  0  0  0
   57.6730   30.1880   45.6960 C   0  0  0  0  0  0  0  0  0  0  0  0
   56.7124   30.0594   45.1757 H   0  0  0  0  0  0  0  0  0  0  0  0
   58.1950   31.3700   46.1840 C   0  0  0  0  0  0  0  0  0  0  0  0
   57.5290   32.7060   46.0720 C   0  0  0  0  0  0  0  0  0  0  0  0
   57.3313   33.1027   47.0788 H   0  0  0  0  0  0  0  0  0  0  0  0
   58.1870   33.3992   45.5275 H   0  0  0  0  0  0  0  0  0  0  0  0
   56.5794   32.5978   45.5275 H   0  0  0  0  0  0  0  0  0  0  0  0
   59.4060   31.1530   46.7450 N   0  0  0  0  0  0  0  0  0  0  0  0
   60.2070   32.1410   47.4170 C   0  0  0  0  0  0  0  0  0  0  0  0
   61.2810   32.7100   46.7230 C   0  0  0  0  0  0  0  0  0  0  0  0
   61.4461   32.4467   45.6678 H   0  0  0  0  0  0  0  0  0  0  0  0
   62.1460   33.6080   47.3530 C   0  0  0  0  0  0  0  0  0  0  0  0
   63.3200   34.1720   46.6090 C   0  0  0  0  0  0  0  0  0  0  0  0
   64.0707   34.5326   47.3277 H   0  0  0  0  0  0  0  0  0  0  0  0
   63.7641   33.3889   45.9769 H   0  0  0  0  0  0  0  0  0  0  0  0
   62.9862   35.0081   45.9769 H   0  0  0  0  0  0  0  0  0  0  0  0
   61.9580   33.9100   48.7050 C   0  0  0  0  0  0  0  0  0  0  0  0
   62.6657   34.5806   49.2144 H   0  0  0  0  0  0  0  0  0  0  0  0
   60.8780   33.3690   49.4220 C   0  0  0  0  0  0  0  0  0  0  0  0
   60.7260   33.7340   50.8780 C   0  0  0  0  0  0  0  0  0  0  0  0
   61.0738   32.8988   51.5036 H   0  0  0  0  0  0  0  0  0  0  0  0
   61.3258   34.6299   51.0960 H   0  0  0  0  0  0  0  0  0  0  0  0
   59.6676   33.9394   51.0960 H   0  0  0  0  0  0  0  0  0  0  0  0
   59.9800   32.4800   48.7740 C   0  0  0  0  0  0  0  0  0  0  0  0
   58.8130   31.9170   49.5080 C   0  0  0  0  0  0  0  0  0  0  0  0
   57.8630   32.6870   49.8210 O   0  0  0  0  0  0  0  0  0  0  0  0
   58.7040   30.4920   49.7650 N   0  0  1  0  0  0  0  0  0  0  0  0
   58.3020   30.0450   48.9090 H   0  0  0  0  0  0  0  0  0  0  0  0
   60.0490   29.8970   50.0130 C   0  0  0  0  0  0  0  0  0  0  0  0
   60.5751   29.7991   49.0519 H   0  0  0  0  0  0  0  0  0  0  0  0
   59.9005   28.9178   50.4916 H   0  0  0  0  0  0  0  0  0  0  0  0
   60.8330   30.6870   50.8810 O   0  0  0  0  0  0  0  0  0  0  0  0
   60.6690   30.1840   52.1300 N   0  0  0  0  0  0  0  0  0  0  0  0
   59.4530   30.3770   52.8550 C   0  0  0  0  0  0  0  0  0  0  0  0
   59.4070   30.0470   54.0690 O   0  0  0  0  0  0  0  0  0  0  0  0
   58.2200   30.9510   52.2030 C   0  0  0  0  0  0  0  0  0  0  0  0
   58.4197   32.0076   51.9714 H   0  0  0  0  0  0  0  0  0  0  0  0
   57.4008   30.8021   52.9219 H   0  0  0  0  0  0  0  0  0  0  0  0
   57.7710   30.2520   50.8950 C   0  0  0  0  0  0  0  0  0  0  0  0
   56.7769   30.6320   50.6168 H   0  0  0  0  0  0  0  0  0  0  0  0
   57.7548   29.1690   51.0869 H   0  0  0  0  0  0  0  0  0  0  0  0
  1  2  1  0
  2  3  1  0
  2  4  2  0
  4  5  1  0
  5  6  2  0
  6  7  1  0
  6  8  1  0
  8  9  1  0
  9 10  1  0
 10 11  2  0
 10 12  1  0
 12 13  1  0
 13 14  1  0
  5 15  1  0
 15 16  1  0
 15 17  2  0
 17 18  1  0
 18 19  1  0
 18 20  1  0
 18 21  1  0
 17 22  1  0
 22 23  1  0
 23 24  2  0
 24 25  1  0
 24 26  1  0
 26 27  1  0
 27 28  1  0
 27 29  1  0
 27 30  1  0
 26 31  2  0
 31 32  1  0
 31 33  1  0
 33 34  1  0
 34 35  1  0
 34 36  1  0
 34 37  1  0
 33 38  2  0
 38 39  1  0
 39 40  2  0
 39 41  1  0
 41 42  1  6
 41 43  1  0
 43 44  1  0
 43 45  1  0
 43 46  1  0
 46 47  1  0
 47 48  1  0
 48 49  2  0
 48 50  1  0
 50 51  1  0
 50 52  1  0
 50 53  1  0
 53 54  1  0
 53 55  1  0
 22  4  1  0
 38 23  1  0
 53 41  1  0
 13  8  2  0
M  CHG  5   9  -1  12  -1  14  -1  41   1  47  -1
M  END
>  <UniqueID>  (76) 
70

>  <SMILES>  (76) 
C=c1/c(=C/c2[n-]c(=O)[n-]c2[O-])cc(C)n1-c1cc(C)cc(C)c1C(=O)[N@@H+]1CCC(=O)[N-]OC1

>  <Energy>  (76) 
144.6695382224211

>  <Genealogy>  (76) 
C=c1c(=Cc2[n-]c(=O)[n-]c2[O-])cc(C)n1-c1cc(C)cc(C)c1C(=O)[NH+]1CCC(=O)[N-]OC1 (protonated)
C=c1c(=Cc2[n-]c(=O)[n-]c2[O-])cc(C)n1-c1cc(C)cc(C)c1C(=O)[N@@H+]1CCC(=O)[N-]OC1 (chirality)
C=c1/c(=C/c2[n-]c(=O)[n-]c2[O-])cc(C)n1-c1cc(C)cc(C)c1C(=O)[N@@H+]1CCC(=O)[N-]OC1 (cis-trans isomerization)
C=c1/c(=C/c2[n-]c(=O)[n-]c2[O-])cc(C)n1-c1cc(C)cc(C)c1C(=O)[N@@H+]1CCC(=O)[N-]OC1 (3D coordinates assigned)
C=c1/c(=C/c2[n-]c(=O)[n-]c2[O-])cc(C)n1-c1cc(C)cc(C)c1C(=O)[N@@H+]1CCC(=O)[N-]OC1 (nonaromatic ring conformer: 144.6695382224211 kcal/mol)

>  <smiles>  (76) 
C=c1c(=Cc2[nH]c(=O)[nH]c2O)cc(C)n1-c1cc(C)cc(C)c1C(=O)N1CCC(=O)NOC1

>  <score_type>  (76) 
oracle

>  <origin>  (76) 
adg

>  <m_score__min__energy>  (76) 
-13

>  <m_primary>  (76) 
energy

$$$$
76:0
     RDKit          3D

 56 58  0  0  0  0  0  0  0  0999 V2000
   57.3170   19.6040   46.9480 C   0  0  0  0  0  0  0  0  0  0  0  0
   57.1080   21.0790   46.7480 C   0  0  0  0  0  0  0  0  0  0  0  0
   57.2850   21.8300   47.6950 O   0  0  0  0  0  0  0  0  0  0  0  0
   56.6870   21.6820   45.4250 C   0  0  0  0  0  0  0  0  0  0  0  0
   57.7570   22.5550   44.7570 C   0  0  0  0  0  0  0  0  0  0  0  0
   57.6910   23.9640   45.2850 C   0  0  0  0  0  0  0  0  0  0  0  0
   56.4820   24.6740   45.2590 C   0  0  0  0  0  0  0  0  0  0  0  0
   56.4100   25.9720   45.7820 C   0  0  0  0  0  0  0  0  0  0  0  0
   55.2090   26.6780   45.7480 O   0  0  0  0  0  0  0  0  0  0  0  0
   57.5460   26.5640   46.3530 C   0  0  0  0  0  0  0  0  0  0  0  0
   57.4430   27.8600   46.8720 O   0  0  0  0  0  0  0  0  0  0  0  0
   58.0360   28.9760   46.2730 C   0  0  0  0  0  0  0  0  0  0  0  0
   59.0840   29.4860   46.7600 O   0  0  0  0  0  0  0  0  0  0  0  0
   57.4200   29.5730   45.0840 C   0  0  0  0  0  0  0  0  0  0  0  0
   57.4570   28.9520   43.9890 O   0  0  0  0  0  0  0  0  0  0  0  0
   56.8290   30.8770   45.1690 N   0  0  0  0  0  0  0  0  0  0  0  0
   57.5120   32.0990   45.4850 C   0  0  0  0  0  0  0  0  0  0  0  0
   57.4180   33.1700   44.5890 C   0  0  0  0  0  0  0  0  0  0  0  0
   58.0770   34.3730   44.8540 C   0  0  0  0  0  0  0  0  0  0  0  0
   58.8450   34.5100   46.0120 C   0  0  0  0  0  0  0  0  0  0  0  0
   58.9660   33.4400   46.9090 C   0  0  0  0  0  0  0  0  0  0  0  0
   59.9380   33.6120   48.3740 S   0  0  0  0  0  0  0  0  0  0  0  0
   59.9190   32.3180   49.1370 O   0  0  0  0  0  0  0  0  0  0  0  0
   59.3340   34.6760   49.2480 O   0  0  0  0  0  0  0  0  0  0  0  0
   61.5940   34.0340   47.9990 N   0  0  0  0  0  0  0  0  0  0  0  0
   62.3940   34.2460   49.2260 C   0  0  0  0  0  0  0  0  0  0  0  0
   63.3440   33.0680   49.5050 C   0  0  0  0  0  0  0  0  0  0  0  0
   64.2550   32.8170   48.4430 O   0  0  0  0  0  0  0  0  0  0  0  0
   63.7210   33.0890   47.1530 C   0  0  0  0  0  0  0  0  0  0  0  0
   62.1870   33.0390   47.0860 C   0  0  0  0  0  0  0  0  0  0  0  0
   58.3120   32.2300   46.6340 C   0  0  0  0  0  0  0  0  0  0  0  0
   58.7650   25.8580   46.3700 C   0  0  0  0  0  0  0  0  0  0  0  0
   60.3810   26.6580   47.0220 Br  0  0  0  0  0  0  0  0  0  0  0  0
   58.8290   24.5610   45.8490 C   0  0  0  0  0  0  0  0  0  0  0  0
   57.3486   19.3808   48.0247 H   0  0  0  0  0  0  0  0  0  0  0  0
   56.4884   19.0499   46.4829 H   0  0  0  0  0  0  0  0  0  0  0  0
   58.2669   19.3019   46.4829 H   0  0  0  0  0  0  0  0  0  0  0  0
   56.4345   20.8611   44.7377 H   0  0  0  0  0  0  0  0  0  0  0  0
   55.8326   22.3411   45.6383 H   0  0  0  0  0  0  0  0  0  0  0  0
   58.7513   22.1350   44.9688 H   0  0  0  0  0  0  0  0  0  0  0  0
   57.5767   22.5721   43.6720 H   0  0  0  0  0  0  0  0  0  0  0  0
   55.5844   24.2090   44.8253 H   0  0  0  0  0  0  0  0  0  0  0  0
   55.1450   27.5950   45.3220 H   0  0  0  0  0  0  0  0  0  0  0  0
   56.8217   33.0639   43.6707 H   0  0  0  0  0  0  0  0  0  0  0  0
   57.9907   35.2134   44.1495 H   0  0  0  0  0  0  0  0  0  0  0  0
   59.3568   35.4610   46.2210 H   0  0  0  0  0  0  0  0  0  0  0  0
   62.9902   35.1627   49.1073 H   0  0  0  0  0  0  0  0  0  0  0  0
   61.6991   34.3306   50.0745 H   0  0  0  0  0  0  0  0  0  0  0  0
   63.9209   33.2925   50.4143 H   0  0  0  0  0  0  0  0  0  0  0  0
   62.7221   32.1681   49.6205 H   0  0  0  0  0  0  0  0  0  0  0  0
   64.0475   34.0945   46.8489 H   0  0  0  0  0  0  0  0  0  0  0  0
   64.0937   32.3005   46.4826 H   0  0  0  0  0  0  0  0  0  0  0  0
   61.8630   33.2544   46.0571 H   0  0  0  0  0  0  0  0  0  0  0  0
   61.8517   32.0361   47.3889 H   0  0  0  0  0  0  0  0  0  0  0  0
   58.4256   31.3786   47.3212 H   0  0  0  0  0  0  0  0  0  0  0  0
   59.7778   24.0054   45.8817 H   0  0  0  0  0  0  0  0  0  0  0  0
  1  2  1  0
  2  3  2  0
  2  4  1  0
  4  5  1  0
  5  6  1  0
  6  7  2  0
  7  8  1  0
  8  9  1  0
  8 10  2  0
 10 11  1  0
 11 12  1  0
 12 13  2  0
 12 14  1  0
 14 15  2  0
 14 16  1  0
 16 17  1  0
 17 18  2  0
 18 19  1  0
 19 20  2  0
 20 21  1  0
 21 22  1  0
 22 23  2  0
 22 24  2  0
 22 25  1  0
 25 26  1  0
 26 27  1  0
 27 28  1  0
 28 29  1  0
 29 30  1  0
 21 31  2  0
 10 32  1  0
 32 33  1  0
 32 34  2  0
 34  6  1  0
 31 17  1  0
 30 25  1  0
  1 35  1  0
  1 36  1  0
  1 37  1  0
  4 38  1  0
  4 39  1  0
  5 40  1  0
  5 41  1  0
  7 42  1  0
  9 43  1  0
 18 44  1  0
 19 45  1  0
 20 46  1  0
 26 47  1  0
 26 48  1  0
 27 49  1  0
 27 50  1  0
 29 51  1  0
 29 52  1  0
 30 53  1  0
 30 54  1  0
 31 55  1  0
 34 56  1  0
M  CHG  1  16  -1
M  END
>  <UniqueID>  (77) 
71

>  <SMILES>  (77) 
CC(=O)CCc1cc(O)c(OC(=O)C(=O)[N-]c2cccc(S(=O)(=O)N3CCOCC3)c2)c(Br)c1

>  <Energy>  (77) 
74.34986418910285

>  <Genealogy>  (77) 
CC(=O)CCc1cc(O)c(OC(=O)C(=O)[N-]c2cccc(S(=O)(=O)N3CCOCC3)c2)c(Br)c1 (protonated)
CC(=O)CCc1cc(O)c(OC(=O)C(=O)[N-]c2cccc(S(=O)(=O)N3CCOCC3)c2)c(Br)c1 (3D coordinates assigned)
CC(=O)CCc1cc(O)c(OC(=O)C(=O)[N-]c2cccc(S(=O)(=O)N3CCOCC3)c2)c(Br)c1 (nonaromatic ring conformer: 74.34986418910285 kcal/mol)

>  <smiles>  (77) 
CC(=O)CCc1cc(O)c(OC(=O)C(=O)Nc2cccc(S(=O)(=O)N3CCOCC3)c2)c(Br)c1

>  <score_type>  (77) 
oracle

>  <origin>  (77) 
adg

>  <m_score__min__energy>  (77) 
-13.48

>  <m_primary>  (77) 
energy

$$$$
77:0
     RDKit          3D

 15 15  0  0  0  0  0  0  0  0999 V2000
   55.1440   29.3450   44.5620 N   0  0  0  0  0  0  0  0  0  0  0  0
   56.4910   29.5820   44.9850 C   0  0  0  0  0  0  0  0  0  0  0  0
   56.9820   30.8470   44.9220 N   0  0  0  0  0  0  0  0  0  0  0  0
   58.2680   31.1270   45.2490 C   0  0  0  0  0  0  0  0  0  0  0  0
   58.6860   32.3130   45.1790 O   0  0  0  0  0  0  0  0  0  0  0  0
   59.1020   30.1310   45.6440 N   0  0  0  0  0  0  0  0  0  0  0  0
   58.6620   28.8460   45.7360 C   0  0  0  0  0  0  0  0  0  0  0  0
   59.4520   27.9470   46.1300 O   0  0  0  0  0  0  0  0  0  0  0  0
   57.3290   28.5320   45.4130 C   0  0  0  0  0  0  0  0  0  0  0  0
   56.8370   27.1890   45.5520 N   0  0  0  0  0  0  0  0  0  0  0  0
   57.6110   26.2170   45.4380 O   0  0  0  0  0  0  0  0  0  0  0  0
   55.5450   26.9670   45.9730 O   0  0  0  0  0  0  0  0  0  0  0  0
   54.7860   28.3680   44.4960 H   0  0  0  0  0  0  0  0  0  0  0  0
   54.4650   30.1230   44.4100 H   0  0  0  0  0  0  0  0  0  0  0  0
   60.0930   30.3550   45.8920 H   0  0  0  0  0  0  0  0  0  0  0  0
  1  2  1  0
  2  3  1  0
  3  4  1  0
  4  5  2  0
  4  6  1  0
  6  7  1  0
  7  8  2  0
  7  9  1  0
  9 10  1  0
 10 11  2  0
 10 12  1  0
  9  2  2  0
  1 13  1  0
  1 14  1  0
  6 15  1  0
M  CHG  3   3  -1  10   1  12  -1
M  END
>  <UniqueID>  (78) 
72

>  <SMILES>  (78) 
Nc1[n-]c(=O)[nH]c(=O)c1[N+](=O)[O-]

>  <Energy>  (78) 
20.476389329370974

>  <Genealogy>  (78) 
Nc1[n-]c(=O)[nH]c(=O)c1[N+](=O)[O-] (protonated)
Nc1[n-]c(=O)[nH]c(=O)c1[N+](=O)[O-] (3D coordinates assigned)
Nc1[n-]c(=O)[nH]c(=O)c1[N+](=O)[O-] (optimized conformer: 20.476389329370974 kcal/mol)

>  <smiles>  (78) 
Nc1[nH]c(=O)[nH]c(=O)c1[N+](=O)[O-]

>  <score_type>  (78) 
oracle

>  <origin>  (78) 
adg

>  <m_score__min__energy>  (78) 
-7.46

>  <m_primary>  (78) 
energy

$$$$
78:0
     RDKit          3D

 62 66  0  0  0  0  0  0  0  0999 V2000
   59.0180   28.8000   55.3490 C   0  0  0  0  0  0  0  0  0  0  0  0
   58.0670   29.3890   54.3950 N   0  0  0  0  0  0  0  0  0  0  0  0
   56.8980   29.9900   54.8090 C   0  0  0  0  0  0  0  0  0  0  0  0
   56.5990   30.0430   56.0320 O   0  0  0  0  0  0  0  0  0  0  0  0
   56.0440   30.5570   53.8980 N   0  0  0  0  0  0  0  0  0  0  0  0
   56.2950   30.5350   52.5580 C   0  0  0  0  0  0  0  0  0  0  0  0
   55.3890   31.2700   51.6090 C   0  0  0  0  0  0  0  0  0  0  0  0
   53.9470   31.0570   51.9990 C   0  0  0  0  0  0  0  0  0  0  0  0
   53.5910   29.9670   52.8090 C   0  0  0  0  0  0  0  0  0  0  0  0
   52.2640   29.7920   53.2150 C   0  0  0  0  0  0  0  0  0  0  0  0
   51.2840   30.7070   52.8180 C   0  0  0  0  0  0  0  0  0  0  0  0
   51.6270   31.7940   52.0110 C   0  0  0  0  0  0  0  0  0  0  0  0
   50.6530   32.7040   51.6180 O   0  0  0  0  0  0  0  0  0  0  0  0
   52.9530   31.9690   51.5990 C   0  0  0  0  0  0  0  0  0  0  0  0
   57.4690   29.9180   52.1370 C   0  0  0  0  0  0  0  0  0  0  0  0
   58.0460   29.7840   50.8890 C   0  0  0  0  0  0  0  0  0  0  0  0
   59.2540   29.1900   51.0280 N   0  0  0  0  0  0  0  0  0  0  0  0
   60.2400   29.0280   49.9620 C   0  0  0  0  0  0  0  0  0  0  0  0
   59.6390   28.2280   48.8380 C   0  0  0  0  0  0  0  0  0  0  0  0
   60.2980   27.0910   48.3500 C   0  0  0  0  0  0  0  0  0  0  0  0
   59.7830   26.3920   47.2540 C   0  0  0  0  0  0  0  0  0  0  0  0
   58.6030   26.8260   46.6250 C   0  0  0  0  0  0  0  0  0  0  0  0
   58.0620   26.0960   45.4540 C   0  0  0  0  0  0  0  0  0  0  0  0
   58.2910   26.5950   44.1600 C   0  0  0  0  0  0  0  0  0  0  0  0
   57.7940   25.9220   43.0430 C   0  0  0  0  0  0  0  0  0  0  0  0
   57.0580   24.7470   43.2030 C   0  0  0  0  0  0  0  0  0  0  0  0
   56.8030   24.2430   44.4850 C   0  0  0  0  0  0  0  0  0  0  0  0
   56.0600   23.0330   44.6390 N   0  0  0  0  0  0  0  0  0  0  0  0
   56.5540   21.7600   45.7100 S   0  0  0  0  0  0  0  0  0  0  0  0
   56.6190   20.1860   44.8770 C   0  0  0  0  0  0  0  0  0  0  0  0
   55.5730   21.6690   46.8470 O   0  0  0  0  0  0  0  0  0  0  0  0
   57.9210   22.0710   46.2540 O   0  0  0  0  0  0  0  0  0  0  0  0
   57.3090   24.9120   45.6180 C   0  0  0  0  0  0  0  0  0  0  0  0
   57.0440   24.4320   46.9040 O   0  0  0  0  0  0  0  0  0  0  0  0
   57.9560   27.9760   47.1030 C   0  0  0  0  0  0  0  0  0  0  0  0
   58.4710   28.6730   48.2000 C   0  0  0  0  0  0  0  0  0  0  0  0
   59.4370   28.9470   52.3470 C   0  0  0  0  0  0  0  0  0  0  0  0
   60.5910   28.3860   52.8820 O   0  0  0  0  0  0  0  0  0  0  0  0
   58.3280   29.3800   53.0540 C   0  0  0  0  0  0  0  0  0  0  0  0
   58.6831   29.0074   56.3760 H   0  0  0  0  0  0  0  0  0  0  0  0
   59.0683   27.7124   55.1924 H   0  0  0  0  0  0  0  0  0  0  0  0
   60.0142   29.2395   55.1924 H   0  0  0  0  0  0  0  0  0  0  0  0
   55.6204   32.3448   51.6440 H   0  0  0  0  0  0  0  0  0  0  0  0
   55.5469   30.8861   50.5903 H   0  0  0  0  0  0  0  0  0  0  0  0
   54.3597   29.2468   53.1260 H   0  0  0  0  0  0  0  0  0  0  0  0
   51.9912   28.9340   53.8470 H   0  0  0  0  0  0  0  0  0  0  0  0
   50.2416   30.5705   53.1417 H   0  0  0  0  0  0  0  0  0  0  0  0
   53.2194   32.8235   50.9595 H   0  0  0  0  0  0  0  0  0  0  0  0
   57.5971   30.1071   49.9382 H   0  0  0  0  0  0  0  0  0  0  0  0
   60.5406   30.0176   49.5874 H   0  0  0  0  0  0  0  0  0  0  0  0
   61.1215   28.5009   50.3558 H   0  0  0  0  0  0  0  0  0  0  0  0
   61.2251   26.7469   48.8318 H   0  0  0  0  0  0  0  0  0  0  0  0
   60.3040   25.4975   46.8819 H   0  0  0  0  0  0  0  0  0  0  0  0
   58.8663   27.5230   44.0268 H   0  0  0  0  0  0  0  0  0  0  0  0
   57.9827   26.3184   42.0344 H   0  0  0  0  0  0  0  0  0  0  0  0
   56.6767   24.2147   42.3191 H   0  0  0  0  0  0  0  0  0  0  0  0
   56.6524   19.3778   45.6224 H   0  0  0  0  0  0  0  0  0  0  0  0
   55.7250   20.0673   44.2472 H   0  0  0  0  0  0  0  0  0  0  0  0
   57.5198   20.1414   44.2472 H   0  0  0  0  0  0  0  0  0  0  0  0
   56.5740   23.5500   47.0680 H   0  0  0  0  0  0  0  0  0  0  0  0
   57.0382   28.3311   46.6116 H   0  0  0  0  0  0  0  0  0  0  0  0
   57.9580   29.5750   48.5650 H   0  0  0  0  0  0  0  0  0  0  0  0
  1  2  1  0
  2  3  1  0
  3  4  2  0
  3  5  1  0
  5  6  2  0
  6  7  1  0
  7  8  1  0
  8  9  2  0
  9 10  1  0
 10 11  2  0
 11 12  1  0
 12 13  1  0
 12 14  2  0
  6 15  1  0
 15 16  2  0
 16 17  1  0
 17 18  1  0
 18 19  1  0
 19 20  2  0
 20 21  1  0
 21 22  2  0
 22 23  1  0
 23 24  2  0
 24 25  1  0
 25 26  2  0
 26 27  1  0
 27 28  1  0
 28 29  1  0
 29 30  1  0
 29 31  2  0
 29 32  2  0
 27 33  2  0
 33 34  1  0
 22 35  1  0
 35 36  2  0
 17 37  1  0
 37 38  1  0
 37 39  2  0
 39  2  1  0
 14  8  1  0
 39 15  1  0
 36 19  1  0
 33 23  1  0
  1 40  1  0
  1 41  1  0
  1 42  1  0
  7 43  1  0
  7 44  1  0
  9 45  1  0
 10 46  1  0
 11 47  1  0
 14 48  1  0
 16 49  1  0
 18 50  1  0
 18 51  1  0
 20 52  1  0
 21 53  1  0
 24 54  1  0
 25 55  1  0
 26 56  1  0
 30 57  1  0
 30 58  1  0
 30 59  1  0
 34 60  1  0
 35 61  1  0
 36 62  1  0
M  CHG  3  13  -1  28  -1  38  -1
M  END
>  <UniqueID>  (79) 
73

>  <SMILES>  (79) 
Cn1c(=O)nc(Cc2cccc([O-])c2)c2cn(Cc3ccc(-c4cccc([N-]S(C)(=O)=O)c4O)cc3)c([O-])c21

>  <Energy>  (79) 
116.81407988560949

>  <Genealogy>  (79) 
Cn1c(=O)nc(Cc2cccc([O-])c2)c2cn(Cc3ccc(-c4cccc([N-]S(C)(=O)=O)c4O)cc3)c([O-])c21 (protonated)
Cn1c(=O)nc(Cc2cccc([O-])c2)c2cn(Cc3ccc(-c4cccc([N-]S(C)(=O)=O)c4O)cc3)c([O-])c21 (3D coordinates assigned)
Cn1c(=O)nc(Cc2cccc([O-])c2)c2cn(Cc3ccc(-c4cccc([N-]S(C)(=O)=O)c4O)cc3)c([O-])c21 (optimized conformer: 116.81407988560949 kcal/mol)

>  <smiles>  (79) 
Cn1c(=O)nc(Cc2cccc(O)c2)c2cn(Cc3ccc(-c4cccc(NS(C)(=O)=O)c4O)cc3)c(O)c21

>  <score_type>  (79) 
oracle

>  <origin>  (79) 
adg

>  <m_score__min__energy>  (79) 
-15.85

>  <m_primary>  (79) 
energy

$$$$
79:0
     RDKit          3D

 42 44  0  0  0  0  0  0  0  0999 V2000
   57.2550   28.7810   43.4000 N   0  0  0  0  0  0  0  0  0  0  0  0
   56.6790   29.4950   44.4960 C   0  0  0  0  0  0  0  0  0  0  0  0
   55.5240   29.1840   44.8940 O   0  0  0  0  0  0  0  0  0  0  0  0
   57.4080   30.5550   45.1400 N   0  0  0  0  0  0  0  0  0  0  0  0
   56.8630   31.7920   45.2220 O   0  0  0  0  0  0  0  0  0  0  0  0
   58.7590   30.3420   45.6670 C   0  0  0  0  0  0  0  0  0  0  0  0
   58.8550   30.8470   47.0810 C   0  0  0  0  0  0  0  0  0  0  0  0
   59.0950   32.2050   47.3400 C   0  0  0  0  0  0  0  0  0  0  0  0
   59.2040   32.6600   48.6550 C   0  0  0  0  0  0  0  0  0  0  0  0
   59.0780   31.7670   49.7220 C   0  0  0  0  0  0  0  0  0  0  0  0
   58.8360   30.4020   49.4780 C   0  0  0  0  0  0  0  0  0  0  0  0
   58.6960   29.4600   50.5110 O   0  0  0  0  0  0  0  0  0  0  0  0
   58.6020   29.7680   51.9020 C   0  0  0  0  0  0  0  0  0  0  0  0
   57.2120   29.5240   52.4030 C   0  0  0  0  0  0  0  0  0  0  0  0
   56.8740   28.4310   53.1950 C   0  0  0  0  0  0  0  0  0  0  0  0
   55.2290   28.5290   53.5210 S   0  0  0  0  0  0  0  0  0  0  0  0
   55.0140   29.9560   52.6480 C   0  0  0  0  0  0  0  0  0  0  0  0
   53.7350   30.6820   52.4740 C   0  0  0  0  0  0  0  0  0  0  0  0
   52.8530   30.8280   53.5610 C   0  0  0  0  0  0  0  0  0  0  0  0
   51.6440   31.5130   53.4050 C   0  0  0  0  0  0  0  0  0  0  0  0
   51.3020   32.0600   52.1660 C   0  0  0  0  0  0  0  0  0  0  0  0
   50.1000   32.7400   52.0140 O   0  0  0  0  0  0  0  0  0  0  0  0
   52.1700   31.9220   51.0800 C   0  0  0  0  0  0  0  0  0  0  0  0
   53.3810   31.2380   51.2300 C   0  0  0  0  0  0  0  0  0  0  0  0
   56.1840   30.3650   52.1060 N   0  0  0  0  0  0  0  0  0  0  0  0
   58.7310   29.9520   48.1560 C   0  0  0  0  0  0  0  0  0  0  0  0
   58.2070   29.0140   43.0430 H   0  0  0  0  0  0  0  0  0  0  0  0
   56.7220   28.0110   42.9380 H   0  0  0  0  0  0  0  0  0  0  0  0
   55.8830   31.6410   45.2220 H   0  0  0  0  0  0  0  0  0  0  0  0
   58.9897   29.2666   45.6496 H   0  0  0  0  0  0  0  0  0  0  0  0
   59.4773   30.8923   45.0416 H   0  0  0  0  0  0  0  0  0  0  0  0
   59.1975   32.9130   46.5044 H   0  0  0  0  0  0  0  0  0  0  0  0
   59.3899   33.7261   48.8521 H   0  0  0  0  0  0  0  0  0  0  0  0
   59.1682   32.1317   50.7559 H   0  0  0  0  0  0  0  0  0  0  0  0
   59.3046   29.1327   52.4612 H   0  0  0  0  0  0  0  0  0  0  0  0
   58.8503   30.8297   52.0478 H   0  0  0  0  0  0  0  0  0  0  0  0
   57.5598   27.6451   53.5444 H   0  0  0  0  0  0  0  0  0  0  0  0
   53.1165   30.4005   54.5397 H   0  0  0  0  0  0  0  0  0  0  0  0
   50.9605   31.6214   54.2601 H   0  0  0  0  0  0  0  0  0  0  0  0
   51.9004   32.3524   50.1043 H   0  0  0  0  0  0  0  0  0  0  0  0
   54.0604   31.1340   50.3712 H   0  0  0  0  0  0  0  0  0  0  0  0
   58.5493   28.8854   47.9574 H   0  0  0  0  0  0  0  0  0  0  0  0
  1  2  1  0
  2  3  2  0
  2  4  1  0
  4  5  1  0
  4  6  1  0
  6  7  1  0
  7  8  2  0
  8  9  1  0
  9 10  2  0
 10 11  1  0
 11 12  1  0
 12 13  1  0
 13 14  1  0
 14 15  2  0
 15 16  1  0
 16 17  1  0
 17 18  1  0
 18 19  2  0
 19 20  1  0
 20 21  2  0
 21 22  1  0
 21 23  1  0
 23 24  2  0
 17 25  2  0
 11 26  2  0
 26  7  1  0
 25 14  1  0
 24 18  1  0
  1 27  1  0
  1 28  1  0
  5 29  1  0
  6 30  1  0
  6 31  1  0
  8 32  1  0
  9 33  1  0
 10 34  1  0
 13 35  1  0
 13 36  1  0
 15 37  1  0
 19 38  1  0
 20 39  1  0
 23 40  1  0
 24 41  1  0
 26 42  1  0
M  CHG  1  22  -1
M  END
>  <UniqueID>  (80) 
74

>  <SMILES>  (80) 
NC(=O)N(O)Cc1cccc(OCc2csc(-c3ccc([O-])cc3)n2)c1

>  <Energy>  (80) 
69.37553515500025

>  <Genealogy>  (80) 
NC(=O)N(O)Cc1cccc(OCc2csc(-c3ccc([O-])cc3)n2)c1 (protonated)
NC(=O)N(O)Cc1cccc(OCc2csc(-c3ccc([O-])cc3)n2)c1 (3D coordinates assigned)
NC(=O)N(O)Cc1cccc(OCc2csc(-c3ccc([O-])cc3)n2)c1 (optimized conformer: 69.37553515500025 kcal/mol)

>  <smiles>  (80) 
NC(=O)N(O)Cc1cccc(OCc2csc(-c3ccc(O)cc3)n2)c1

>  <score_type>  (80) 
oracle

>  <origin>  (80) 
adg

>  <m_score__min__energy>  (80) 
-12.42

>  <m_primary>  (80) 
energy

$$$$
80:0
     RDKit          3D

 65 68  0  0  0  0  0  0  0  0999 V2000
   63.3860   34.0850   50.2680 C   0  0  0  0  0  0  0  0  0  0  0  0
   61.8740   33.3430   49.6900 S   0  0  0  0  0  0  0  0  0  0  0  0
   62.1940   32.0120   49.0710 O   0  0  0  0  0  0  0  0  0  0  0  0
   60.9280   33.1280   50.8380 O   0  0  0  0  0  0  0  0  0  0  0  0
   61.1410   34.3570   48.4880 N   0  0  0  0  0  0  0  0  0  0  0  0
   60.1160   33.9600   47.5670 C   0  0  0  0  0  0  0  0  0  0  0  0
   59.9280   34.6010   46.3280 C   0  0  0  0  0  0  0  0  0  0  0  0
   58.9080   34.1870   45.4670 C   0  0  0  0  0  0  0  0  0  0  0  0
   58.0670   33.1220   45.8220 C   0  0  0  0  0  0  0  0  0  0  0  0
   57.0040   32.6360   44.8720 C   0  0  0  0  0  0  0  0  0  0  0  0
   57.3300   31.2970   44.3920 N   0  0  0  0  0  0  0  0  0  0  0  0
   56.3980   30.2050   44.4230 C   0  0  0  0  0  0  0  0  0  0  0  0
   55.1590   30.4250   44.4680 O   0  0  0  0  0  0  0  0  0  0  0  0
   56.8710   28.8550   44.3620 N   0  0  0  0  0  0  0  0  0  0  0  0
   58.1560   28.4870   44.8730 C   0  0  0  0  0  0  0  0  0  0  0  0
   59.2960   28.7830   44.1190 C   0  0  0  0  0  0  0  0  0  0  0  0
   60.5670   28.5940   44.6620 C   0  0  0  0  0  0  0  0  0  0  0  0
   60.7080   28.1110   45.9640 C   0  0  0  0  0  0  0  0  0  0  0  0
   59.5770   27.7780   46.7270 C   0  0  0  0  0  0  0  0  0  0  0  0
   59.7490   27.2170   48.0890 C   0  0  0  0  0  0  0  0  0  0  0  0
   59.6610   25.9690   48.2500 O   0  0  0  0  0  0  0  0  0  0  0  0
   60.0340   28.0810   49.2610 C   0  0  0  0  0  0  0  0  0  0  0  0
   60.8220   27.6150   50.3320 C   0  0  0  0  0  0  0  0  0  0  0  0
   61.0960   28.4470   51.4220 C   0  0  0  0  0  0  0  0  0  0  0  0
   60.5880   29.7480   51.4580 C   0  0  0  0  0  0  0  0  0  0  0  0
   59.8140   30.2240   50.3980 C   0  0  0  0  0  0  0  0  0  0  0  0
   59.5440   29.4000   49.3010 C   0  0  0  0  0  0  0  0  0  0  0  0
   58.2930   27.9280   46.1630 C   0  0  0  0  0  0  0  0  0  0  0  0
   57.1430   27.5190   46.9170 N   0  0  0  0  0  0  0  0  0  0  0  0
   56.4200   26.3050   46.6770 C   0  0  0  0  0  0  0  0  0  0  0  0
   55.2710   26.3340   46.1560 O   0  0  0  0  0  0  0  0  0  0  0  0
   57.0750   24.9900   46.9530 C   0  0  0  0  0  0  0  0  0  0  0  0
   56.8180   24.0430   45.8100 C   0  0  0  0  0  0  0  0  0  0  0  0
   56.9370   24.4850   44.4830 C   0  0  0  0  0  0  0  0  0  0  0  0
   56.6370   23.6250   43.4220 C   0  0  0  0  0  0  0  0  0  0  0  0
   56.2170   22.3170   43.6780 C   0  0  0  0  0  0  0  0  0  0  0  0
   55.9100   21.4660   42.6230 O   0  0  0  0  0  0  0  0  0  0  0  0
   56.1010   21.8670   44.9970 C   0  0  0  0  0  0  0  0  0  0  0  0
   56.4000   22.7250   46.0610 C   0  0  0  0  0  0  0  0  0  0  0  0
   58.2640   32.4760   47.0540 C   0  0  0  0  0  0  0  0  0  0  0  0
   59.2710   32.9020   47.9230 C   0  0  0  0  0  0  0  0  0  0  0  0
   63.3951   34.0895   51.3680 H   0  0  0  0  0  0  0  0  0  0  0  0
   64.2441   33.5057   49.8966 H   0  0  0  0  0  0  0  0  0  0  0  0
   63.4528   35.1182   49.8966 H   0  0  0  0  0  0  0  0  0  0  0  0
   60.5871   35.4318   46.0360 H   0  0  0  0  0  0  0  0  0  0  0  0
   58.7637   34.6997   44.5045 H   0  0  0  0  0  0  0  0  0  0  0  0
   56.0357   32.6092   45.3933 H   0  0  0  0  0  0  0  0  0  0  0  0
   56.9499   33.3214   44.0134 H   0  0  0  0  0  0  0  0  0  0  0  0
   58.3220   31.1040   44.1250 H   0  0  0  0  0  0  0  0  0  0  0  0
   59.1900   29.1665   43.0935 H   0  0  0  0  0  0  0  0  0  0  0  0
   61.4599   28.8261   44.0629 H   0  0  0  0  0  0  0  0  0  0  0  0
   61.7125   27.9903   46.3957 H   0  0  0  0  0  0  0  0  0  0  0  0
   61.2238   26.5912   50.3106 H   0  0  0  0  0  0  0  0  0  0  0  0
   61.7133   28.0761   52.2535 H   0  0  0  0  0  0  0  0  0  0  0  0
   60.7977   30.3970   52.3211 H   0  0  0  0  0  0  0  0  0  0  0  0
   59.4159   31.2490   50.4259 H   0  0  0  0  0  0  0  0  0  0  0  0
   58.9443   29.7853   48.4632 H   0  0  0  0  0  0  0  0  0  0  0  0
   58.1589   25.1386   47.0676 H   0  0  0  0  0  0  0  0  0  0  0  0
   56.6598   24.5641   47.8783 H   0  0  0  0  0  0  0  0  0  0  0  0
   57.2681   25.5135   44.2766 H   0  0  0  0  0  0  0  0  0  0  0  0
   56.7317   23.9785   42.3847 H   0  0  0  0  0  0  0  0  0  0  0  0
   55.7740   20.8362   45.1984 H   0  0  0  0  0  0  0  0  0  0  0  0
   56.3076   22.3668   47.0969 H   0  0  0  0  0  0  0  0  0  0  0  0
   57.6210   31.6292   47.3360 H   0  0  0  0  0  0  0  0  0  0  0  0
   59.4012   32.4025   48.8944 H   0  0  0  0  0  0  0  0  0  0  0  0
  1  2  1  0
  2  3  2  0
  2  4  2  0
  2  5  1  0
  5  6  1  0
  6  7  2  0
  7  8  1  0
  8  9  2  0
  9 10  1  0
 10 11  1  0
 11 12  1  0
 12 13  2  0
 12 14  1  0
 14 15  1  0
 15 16  2  0
 16 17  1  0
 17 18  2  0
 18 19  1  0
 19 20  1  0
 20 21  2  0
 20 22  1  0
 22 23  2  0
 23 24  1  0
 24 25  2  0
 25 26  1  0
 26 27  2  0
 19 28  2  0
 28 29  1  0
 29 30  1  0
 30 31  2  0
 30 32  1  0
 32 33  1  0
 33 34  2  0
 34 35  1  0
 35 36  2  0
 36 37  1  0
 36 38  1  0
 38 39  2  0
  9 40  1  0
 40 41  2  0
 41  6  1  0
 28 15  1  0
 39 33  1  0
 27 22  1  0
  1 42  1  0
  1 43  1  0
  1 44  1  0
  7 45  1  0
  8 46  1  0
 10 47  1  0
 10 48  1  0
 11 49  1  0
 16 50  1  0
 17 51  1  0
 18 52  1  0
 23 53  1  0
 24 54  1  0
 25 55  1  0
 26 56  1  0
 27 57  1  0
 32 58  1  0
 32 59  1  0
 34 60  1  0
 35 61  1  0
 38 62  1  0
 39 63  1  0
 40 64  1  0
 41 65  1  0
M  CHG  4   5  -1  14  -1  29  -1  37  -1
M  END
>  <UniqueID>  (81) 
75

>  <SMILES>  (81) 
CS(=O)(=O)[N-]c1ccc(CNC(=O)[N-]c2cccc(C(=O)c3ccccc3)c2[N-]C(=O)Cc2ccc([O-])cc2)cc1

>  <Energy>  (81) 
77.41146714076912

>  <Genealogy>  (81) 
CS(=O)(=O)[N-]c1ccc(CNC(=O)[N-]c2cccc(C(=O)c3ccccc3)c2[N-]C(=O)Cc2ccc([O-])cc2)cc1 (protonated)
CS(=O)(=O)[N-]c1ccc(CNC(=O)[N-]c2cccc(C(=O)c3ccccc3)c2[N-]C(=O)Cc2ccc([O-])cc2)cc1 (3D coordinates assigned)
CS(=O)(=O)[N-]c1ccc(CNC(=O)[N-]c2cccc(C(=O)c3ccccc3)c2[N-]C(=O)Cc2ccc([O-])cc2)cc1 (optimized conformer: 77.41146714076912 kcal/mol)

>  <smiles>  (81) 
CS(=O)(=O)Nc1ccc(CNC(=O)Nc2cccc(C(=O)c3ccccc3)c2NC(=O)Cc2ccc(O)cc2)cc1

>  <score_type>  (81) 
oracle

>  <origin>  (81) 
adg

>  <m_score__min__energy>  (81) 
-15.789999999999999

>  <m_primary>  (81) 
energy

$$$$
81:0
     RDKit          3D

 57 61  0  0  0  0  0  0  0  0999 V2000
   59.9250   21.8290   45.0260 N   0  0  0  0  0  0  0  0  0  0  0  0
   58.6750   22.2920   44.5010 C   0  0  0  0  0  0  0  0  0  0  0  0
   57.9540   21.4740   43.6180 C   0  0  0  0  0  0  0  0  0  0  0  0
   56.7460   21.9120   43.0770 C   0  0  0  0  0  0  0  0  0  0  0  0
   56.2520   23.1780   43.4010 C   0  0  0  0  0  0  0  0  0  0  0  0
   56.9550   23.9990   44.2860 C   0  0  0  0  0  0  0  0  0  0  0  0
   58.1580   23.5530   44.8660 C   0  0  0  0  0  0  0  0  0  0  0  0
   58.8940   24.3800   45.7810 N   0  0  0  0  0  0  0  0  0  0  0  0
   58.3760   25.4610   46.5680 C   0  0  0  0  0  0  0  0  0  0  0  0
   58.1220   25.2880   47.7910 O   0  0  0  0  0  0  0  0  0  0  0  0
   58.1960   26.8000   45.9610 C   0  0  0  0  0  0  0  0  0  0  0  0
   59.3090   27.6230   45.7050 C   0  0  0  0  0  0  0  0  0  0  0  0
   59.1420   28.8780   45.1140 C   0  0  0  0  0  0  0  0  0  0  0  0
   57.8600   29.3400   44.7800 C   0  0  0  0  0  0  0  0  0  0  0  0
   57.6930   30.6790   44.1160 C   0  0  0  0  0  0  0  0  0  0  0  0
   56.9320   31.5680   44.9870 N   0  0  0  0  0  0  0  0  0  0  0  0
   57.4500   32.7210   45.6660 C   0  0  0  0  0  0  0  0  0  0  0  0
   56.6940   33.7190   45.8080 O   0  0  0  0  0  0  0  0  0  0  0  0
   58.8250   32.7800   46.2120 C   0  0  0  0  0  0  0  0  0  0  0  0
   59.8180   33.5420   45.6900 N   0  0  0  0  0  0  0  0  0  0  0  0
   60.8820   33.3220   46.4910 C   0  0  0  0  0  0  0  0  0  0  0  0
   62.1480   33.8840   46.3630 C   0  0  0  0  0  0  0  0  0  0  0  0
   63.1290   33.5290   47.3070 C   0  0  0  0  0  0  0  0  0  0  0  0
   62.8340   32.6170   48.3560 C   0  0  0  0  0  0  0  0  0  0  0  0
   63.8780   32.2450   49.3420 C   0  0  0  0  0  0  0  0  0  0  0  0
   63.6540   31.2030   50.2620 C   0  0  0  0  0  0  0  0  0  0  0  0
   64.6370   30.8570   51.1940 C   0  0  0  0  0  0  0  0  0  0  0  0
   65.8540   31.5460   51.2220 C   0  0  0  0  0  0  0  0  0  0  0  0
   66.8220   31.1900   52.1590 O   0  0  0  0  0  0  0  0  0  0  0  0
   66.0870   32.5830   50.3090 C   0  0  0  0  0  0  0  0  0  0  0  0
   65.1050   32.9320   49.3770 C   0  0  0  0  0  0  0  0  0  0  0  0
   61.5330   32.0680   48.4530 C   0  0  0  0  0  0  0  0  0  0  0  0
   60.5890   32.4490   47.5020 C   0  0  0  0  0  0  0  0  0  0  0  0
   59.2760   32.0980   47.3380 C   0  0  0  0  0  0  0  0  0  0  0  0
   58.5470   31.2210   48.1350 O   0  0  0  0  0  0  0  0  0  0  0  0
   56.7460   28.5260   45.0410 C   0  0  0  0  0  0  0  0  0  0  0  0
   56.9110   27.2660   45.6240 C   0  0  0  0  0  0  0  0  0  0  0  0
   60.0390   20.8580   45.3930 H   0  0  0  0  0  0  0  0  0  0  0  0
   60.7570   22.4590   45.0540 H   0  0  0  0  0  0  0  0  0  0  0  0
   58.3443   20.4809   43.3509 H   0  0  0  0  0  0  0  0  0  0  0  0
   56.1813   21.2601   42.3943 H   0  0  0  0  0  0  0  0  0  0  0  0
   55.3080   23.5289   42.9585 H   0  0  0  0  0  0  0  0  0  0  0  0
   56.5669   24.9987   44.5309 H   0  0  0  0  0  0  0  0  0  0  0  0
   60.3178   27.2754   45.9723 H   0  0  0  0  0  0  0  0  0  0  0  0
   60.0206   29.5074   44.9094 H   0  0  0  0  0  0  0  0  0  0  0  0
   58.6832   31.1169   43.9218 H   0  0  0  0  0  0  0  0  0  0  0  0
   57.1535   30.5499   43.1661 H   0  0  0  0  0  0  0  0  0  0  0  0
   62.3756   34.5858   45.5471 H   0  0  0  0  0  0  0  0  0  0  0  0
   64.1370   33.9629   47.2321 H   0  0  0  0  0  0  0  0  0  0  0  0
   62.6990   30.6574   50.2474 H   0  0  0  0  0  0  0  0  0  0  0  0
   64.4528   30.0403   51.9075 H   0  0  0  0  0  0  0  0  0  0  0  0
   66.6250   31.2010   53.1510 H   0  0  0  0  0  0  0  0  0  0  0  0
   67.0447   33.1238   50.3255 H   0  0  0  0  0  0  0  0  0  0  0  0
   65.2933   33.7498   48.6659 H   0  0  0  0  0  0  0  0  0  0  0  0
   61.2749   31.3614   49.2556 H   0  0  0  0  0  0  0  0  0  0  0  0
   55.7371   28.8819   44.7852 H   0  0  0  0  0  0  0  0  0  0  0  0
   56.0316   26.6351   45.8205 H   0  0  0  0  0  0  0  0  0  0  0  0
  1  2  1  0
  2  3  2  0
  3  4  1  0
  4  5  2  0
  5  6  1  0
  6  7  2  0
  7  8  1  0
  8  9  1  0
  9 10  2  0
  9 11  1  0
 11 12  2  0
 12 13  1  0
 13 14  2  0
 14 15  1  0
 15 16  1  0
 16 17  1  0
 17 18  2  0
 17 19  1  0
 19 20  1  0
 20 21  1  0
 21 22  2  0
 22 23  1  0
 23 24  2  0
 24 25  1  0
 25 26  2  0
 26 27  1  0
 27 28  2  0
 28 29  1  0
 28 30  1  0
 30 31  2  0
 24 32  1  0
 32 33  2  0
 33 34  1  0
 34 35  1  0
 14 36  1  0
 36 37  2  0
  7  2  1  0
 37 11  1  0
 34 19  2  0
 33 21  1  0
 31 25  1  0
  1 38  1  0
  1 39  1  0
  3 40  1  0
  4 41  1  0
  5 42  1  0
  6 43  1  0
 12 44  1  0
 13 45  1  0
 15 46  1  0
 15 47  1  0
 22 48  1  0
 23 49  1  0
 26 50  1  0
 27 51  1  0
 29 52  1  0
 30 53  1  0
 31 54  1  0
 32 55  1  0
 36 56  1  0
 37 57  1  0
M  CHG  4   8  -1  16  -1  20  -1  35  -1
M  END
>  <UniqueID>  (82) 
76

>  <SMILES>  (82) 
Nc1ccccc1[N-]C(=O)c1ccc(C[N-]C(=O)c2[n-]c3ccc(-c4ccc(O)cc4)cc3c2[O-])cc1

>  <Energy>  (82) 
107.10925957622526

>  <Genealogy>  (82) 
Nc1ccccc1[N-]C(=O)c1ccc(C[N-]C(=O)c2[n-]c3ccc(-c4ccc(O)cc4)cc3c2[O-])cc1 (protonated)
Nc1ccccc1[N-]C(=O)c1ccc(C[N-]C(=O)c2[n-]c3ccc(-c4ccc(O)cc4)cc3c2[O-])cc1 (3D coordinates assigned)
Nc1ccccc1[N-]C(=O)c1ccc(C[N-]C(=O)c2[n-]c3ccc(-c4ccc(O)cc4)cc3c2[O-])cc1 (optimized conformer: 107.10925957622526 kcal/mol)

>  <smiles>  (82) 
Nc1ccccc1NC(=O)c1ccc(CNC(=O)c2[nH]c3ccc(-c4ccc(O)cc4)cc3c2O)cc1

>  <score_type>  (82) 
oracle

>  <origin>  (82) 
adg

>  <m_score__min__energy>  (82) 
-15.44

>  <m_primary>  (82) 
energy

$$$$
82:0
     RDKit          3D

 46 48  0  0  0  0  0  0  0  0999 V2000
   59.6720   26.0610   47.0550 C   0  0  0  0  0  0  0  0  0  0  0  0
   58.2150   26.0030   46.6670 C   0  0  0  0  0  0  0  0  0  0  0  0
   57.7150   26.7870   45.6080 C   0  0  0  0  0  0  0  0  0  0  0  0
   58.7790   27.8670   44.6360 S   0  0  0  0  0  0  0  0  0  0  0  0
   57.4210   28.6410   43.6850 C   0  0  0  0  0  0  0  0  0  0  0  0
   57.1180   30.0180   44.1860 C   0  0  0  0  0  0  0  0  0  0  0  0
   55.9920   30.2580   44.6970 O   0  0  0  0  0  0  0  0  0  0  0  0
   58.1370   31.0250   44.1470 N   0  0  0  0  0  0  0  0  0  0  0  0
   58.1400   32.2470   44.8960 C   0  0  0  0  0  0  0  0  0  0  0  0
   57.4060   33.3740   44.4850 C   0  0  0  0  0  0  0  0  0  0  0  0
   57.4210   34.5400   45.2560 C   0  0  0  0  0  0  0  0  0  0  0  0
   58.1660   34.5920   46.4360 C   0  0  0  0  0  0  0  0  0  0  0  0
   58.9170   33.4810   46.8450 C   0  0  0  0  0  0  0  0  0  0  0  0
   59.8370   33.5300   48.3490 S   0  0  0  0  0  0  0  0  0  0  0  0
   59.4810   32.3340   49.1890 O   0  0  0  0  0  0  0  0  0  0  0  0
   59.4590   34.7680   49.1160 O   0  0  0  0  0  0  0  0  0  0  0  0
   61.5590   33.5350   48.0550 N   0  0  0  0  0  0  0  0  0  0  0  0
   61.8450   33.8560   46.6490 C   0  0  0  0  0  0  0  0  0  0  0  0
   63.3720   33.9010   46.4250 C   0  0  0  0  0  0  0  0  0  0  0  0
   64.0960   33.4130   47.5430 O   0  0  0  0  0  0  0  0  0  0  0  0
   63.6060   32.1400   47.9160 C   0  0  0  0  0  0  0  0  0  0  0  0
   62.1480   32.2310   48.4080 C   0  0  0  0  0  0  0  0  0  0  0  0
   58.9140   32.3190   46.0600 C   0  0  0  0  0  0  0  0  0  0  0  0
   56.3890   26.7570   45.3130 N   0  0  0  0  0  0  0  0  0  0  0  0
   55.5280   25.9740   46.0100 C   0  0  0  0  0  0  0  0  0  0  0  0
   54.3070   25.9640   45.7110 O   0  0  0  0  0  0  0  0  0  0  0  0
   55.9840   25.2080   47.0310 N   0  0  0  0  0  0  0  0  0  0  0  0
   57.2960   25.2070   47.3790 C   0  0  0  0  0  0  0  0  0  0  0  0
   57.6740   24.4910   48.3440 O   0  0  0  0  0  0  0  0  0  0  0  0
   59.7596   26.0645   48.1515 H   0  0  0  0  0  0  0  0  0  0  0  0
   60.1950   25.1830   46.6482 H   0  0  0  0  0  0  0  0  0  0  0  0
   60.1236   26.9778   46.6482 H   0  0  0  0  0  0  0  0  0  0  0  0
   57.7149   28.7020   42.6268 H   0  0  0  0  0  0  0  0  0  0  0  0
   56.5189   28.0231   43.8051 H   0  0  0  0  0  0  0  0  0  0  0  0
   56.8191   33.3379   43.5553 H   0  0  0  0  0  0  0  0  0  0  0  0
   56.8443   35.4190   44.9323 H   0  0  0  0  0  0  0  0  0  0  0  0
   58.1636   35.5072   47.0463 H   0  0  0  0  0  0  0  0  0  0  0  0
   61.4030   33.0849   46.0008 H   0  0  0  0  0  0  0  0  0  0  0  0
   61.4121   34.8372   46.4043 H   0  0  0  0  0  0  0  0  0  0  0  0
   63.6189   33.2850   45.5477 H   0  0  0  0  0  0  0  0  0  0  0  0
   63.6583   34.9520   46.2722 H   0  0  0  0  0  0  0  0  0  0  0  0
   63.6507   31.4684   47.0460 H   0  0  0  0  0  0  0  0  0  0  0  0
   64.2285   31.7515   48.7355 H   0  0  0  0  0  0  0  0  0  0  0  0
   61.5581   31.4296   47.9391 H   0  0  0  0  0  0  0  0  0  0  0  0
   62.1370   32.1229   49.5026 H   0  0  0  0  0  0  0  0  0  0  0  0
   59.5257   31.4560   46.3618 H   0  0  0  0  0  0  0  0  0  0  0  0
  1  2  1  0
  2  3  2  0
  3  4  1  0
  4  5  1  0
  5  6  1  0
  6  7  2  0
  6  8  1  0
  8  9  1  0
  9 10  2  0
 10 11  1  0
 11 12  2  0
 12 13  1  0
 13 14  1  0
 14 15  2  0
 14 16  2  0
 14 17  1  0
 17 18  1  0
 18 19  1  0
 19 20  1  0
 20 21  1  0
 21 22  1  0
 13 23  2  0
  3 24  1  0
 24 25  1  0
 25 26  2  0
 25 27  1  0
 27 28  1  0
 28 29  2  0
 28  2  1  0
 23  9  1  0
 22 17  1  0
  1 30  1  0
  1 31  1  0
  1 32  1  0
  5 33  1  0
  5 34  1  0
 10 35  1  0
 11 36  1  0
 12 37  1  0
 18 38  1  0
 18 39  1  0
 19 40  1  0
 19 41  1  0
 21 42  1  0
 21 43  1  0
 22 44  1  0
 22 45  1  0
 23 46  1  0
M  CHG  3   8  -1  24  -1  27  -1
M  END
>  <UniqueID>  (83) 
77

>  <SMILES>  (83) 
Cc1c(SCC(=O)[N-]c2cccc(S(=O)(=O)N3CCOCC3)c2)[n-]c(=O)[n-]c1=O

>  <Energy>  (83) 
55.16279040350393

>  <Genealogy>  (83) 
Cc1c(SCC(=O)[N-]c2cccc(S(=O)(=O)N3CCOCC3)c2)[n-]c(=O)[n-]c1=O (protonated)
Cc1c(SCC(=O)[N-]c2cccc(S(=O)(=O)N3CCOCC3)c2)[n-]c(=O)[n-]c1=O (3D coordinates assigned)
Cc1c(SCC(=O)[N-]c2cccc(S(=O)(=O)N3CCOCC3)c2)[n-]c(=O)[n-]c1=O (nonaromatic ring conformer: 55.16279040350393 kcal/mol)

>  <smiles>  (83) 
Cc1c(SCC(=O)Nc2cccc(S(=O)(=O)N3CCOCC3)c2)[nH]c(=O)[nH]c1=O

>  <score_type>  (83) 
oracle

>  <origin>  (83) 
adg

>  <m_score__min__energy>  (83) 
-15.58

>  <m_primary>  (83) 
energy

$$$$
83:0
     RDKit          3D

 36 37  0  0  0  0  0  0  0  0999 V2000
   57.2650   34.0780   45.2910 C   0  0  0  0  0  0  0  0  0  0  0  0
   56.9320   32.7360   45.6310 O   0  0  0  0  0  0  0  0  0  0  0  0
   57.8300   31.6560   45.6200 C   0  0  0  0  0  0  0  0  0  0  0  0
   59.1340   31.8000   46.1330 C   0  0  0  0  0  0  0  0  0  0  0  0
   60.0240   30.7290   46.1220 C   0  0  0  0  0  0  0  0  0  0  0  0
   59.6350   29.5000   45.6000 C   0  0  0  0  0  0  0  0  0  0  0  0
   58.3480   29.3270   45.0710 C   0  0  0  0  0  0  0  0  0  0  0  0
   57.9380   27.9530   44.6000 C   0  0  0  0  0  0  0  0  0  0  0  0
   57.0400   27.3530   45.5810 N   0  0  0  0  0  0  0  0  0  0  0  0
   57.5320   26.8420   46.8260 C   0  0  0  0  0  0  0  0  0  0  0  0
   58.4720   27.4270   47.4270 O   0  0  0  0  0  0  0  0  0  0  0  0
   56.9870   25.5590   47.3720 C   0  0  0  0  0  0  0  0  0  0  0  0
   56.2900   24.8110   46.2780 C   0  0  0  0  0  0  0  0  0  0  0  0
   56.8890   23.4350   45.5130 S   0  0  0  0  0  0  0  0  0  0  0  0
   55.6260   23.3990   44.4050 C   0  0  0  0  0  0  0  0  0  0  0  0
   55.4990   22.5330   43.5020 O   0  0  0  0  0  0  0  0  0  0  0  0
   54.7540   24.4140   44.5780 N   0  0  0  0  0  0  0  0  0  0  0  0
   55.1280   25.2050   45.6170 C   0  0  0  0  0  0  0  0  0  0  0  0
   54.3970   26.3310   45.9750 O   0  0  0  0  0  0  0  0  0  0  0  0
   57.4270   30.4010   45.0890 C   0  0  0  0  0  0  0  0  0  0  0  0
   56.1390   30.1570   44.5740 O   0  0  0  0  0  0  0  0  0  0  0  0
   55.8040   29.8180   43.2330 C   0  0  0  0  0  0  0  0  0  0  0  0
   57.4104   34.6639   46.2105 H   0  0  0  0  0  0  0  0  0  0  0  0
   58.1926   34.0871   44.6999 H   0  0  0  0  0  0  0  0  0  0  0  0
   56.4492   34.5197   44.6999 H   0  0  0  0  0  0  0  0  0  0  0  0
   59.4525   32.7683   46.5465 H   0  0  0  0  0  0  0  0  0  0  0  0
   61.0386   30.8555   46.5277 H   0  0  0  0  0  0  0  0  0  0  0  0
   60.3422   28.6575   45.6021 H   0  0  0  0  0  0  0  0  0  0  0  0
   57.4219   28.0356   43.6321 H   0  0  0  0  0  0  0  0  0  0  0  0
   58.8316   27.3219   44.4851 H   0  0  0  0  0  0  0  0  0  0  0  0
   56.1130   27.0130   45.2390 H   0  0  0  0  0  0  0  0  0  0  0  0
   57.8121   24.9480   47.7668 H   0  0  0  0  0  0  0  0  0  0  0  0
   56.2743   25.7766   48.1811 H   0  0  0  0  0  0  0  0  0  0  0  0
   55.0308   29.0356   43.2348 H   0  0  0  0  0  0  0  0  0  0  0  0
   55.4223   30.7095   42.7139 H   0  0  0  0  0  0  0  0  0  0  0  0
   56.7000   29.4469   42.7139 H   0  0  0  0  0  0  0  0  0  0  0  0
  1  2  1  0
  2  3  1  0
  3  4  2  0
  4  5  1  0
  5  6  2  0
  6  7  1  0
  7  8  1  0
  8  9  1  0
  9 10  1  0
 10 11  2  0
 10 12  1  0
 12 13  1  0
 13 14  1  0
 14 15  1  0
 15 16  2  0
 15 17  1  0
 17 18  1  0
 18 19  1  0
  7 20  2  0
 20 21  1  0
 21 22  1  0
 20  3  1  0
 18 13  2  0
  1 23  1  0
  1 24  1  0
  1 25  1  0
  4 26  1  0
  5 27  1  0
  6 28  1  0
  8 29  1  0
  8 30  1  0
  9 31  1  0
 12 32  1  0
 12 33  1  0
 22 34  1  0
 22 35  1  0
 22 36  1  0
M  CHG  2  17  -1  19  -1
M  END
>  <UniqueID>  (84) 
78

>  <SMILES>  (84) 
COc1cccc(CNC(=O)Cc2sc(=O)[n-]c2[O-])c1OC

>  <Energy>  (84) 
61.54210211579411

>  <Genealogy>  (84) 
COc1cccc(CNC(=O)Cc2sc(=O)[n-]c2[O-])c1OC (protonated)
COc1cccc(CNC(=O)Cc2sc(=O)[n-]c2[O-])c1OC (3D coordinates assigned)
COc1cccc(CNC(=O)Cc2sc(=O)[n-]c2[O-])c1OC (optimized conformer: 61.54210211579411 kcal/mol)

>  <smiles>  (84) 
COc1cccc(CNC(=O)Cc2sc(=O)[nH]c2O)c1OC

>  <score_type>  (84) 
oracle

>  <origin>  (84) 
adg

>  <m_score__min__energy>  (84) 
-13.26

>  <m_primary>  (84) 
energy

$$$$
84:0
     RDKit          3D

 53 56  0  0  0  0  0  0  0  0999 V2000
   58.8190   30.2300   47.8010 C   0  0  0  0  0  0  0  0  0  0  0  0
   58.4480   30.3740   46.5180 C   0  0  0  0  0  0  0  0  0  0  0  0
   58.3850   29.3560   45.5520 C   0  0  0  0  0  0  0  0  0  0  0  0
   58.4490   28.0150   45.6710 C   0  0  0  0  0  0  0  0  0  0  0  0
   57.2990   27.1120   45.8380 C   0  0  0  0  0  0  0  0  0  0  0  0
   57.3570   25.8910   46.4020 N   0  0  0  0  0  0  0  0  0  0  0  0
   56.0610   25.5140   46.4610 C   0  0  0  0  0  0  0  0  0  0  0  0
   55.7010   24.4000   46.9230 O   0  0  0  0  0  0  0  0  0  0  0  0
   55.1830   26.4280   45.9970 N   0  0  0  0  0  0  0  0  0  0  0  0
   55.9820   27.4370   45.6200 C   0  0  0  0  0  0  0  0  0  0  0  0
   55.5180   28.6360   45.0930 O   0  0  0  0  0  0  0  0  0  0  0  0
   58.2160   29.9870   44.3340 C   0  0  0  0  0  0  0  0  0  0  0  0
   58.0960   31.3350   44.5940 C   0  0  0  0  0  0  0  0  0  0  0  0
   57.9380   32.3830   43.5320 C   0  0  0  0  0  0  0  0  0  0  0  0
   58.2320   31.5790   45.9190 N   0  0  0  0  0  0  0  0  0  0  0  0
   58.2310   32.9170   46.5350 C   0  0  0  0  0  0  0  0  0  0  0  0
   59.4930   33.1390   47.3300 C   0  0  0  0  0  0  0  0  0  0  0  0
   60.7390   32.7650   46.8020 C   0  0  0  0  0  0  0  0  0  0  0  0
   61.9040   32.9290   47.5570 C   0  0  0  0  0  0  0  0  0  0  0  0
   61.8380   33.4650   48.8490 C   0  0  0  0  0  0  0  0  0  0  0  0
   63.3000   33.6080   49.8290 S   0  0  0  0  0  0  0  0  0  0  0  0
   63.3370   34.9700   50.4640 O   0  0  0  0  0  0  0  0  0  0  0  0
   64.5070   33.4770   48.9400 O   0  0  0  0  0  0  0  0  0  0  0  0
   63.3600   32.3850   51.0800 N   0  0  0  0  0  0  0  0  0  0  0  0
   62.0760   31.6490   51.1830 C   0  0  0  0  0  0  0  0  0  0  0  0
   62.1590   30.2530   50.5380 C   0  0  0  0  0  0  0  0  0  0  0  0
   63.1580   29.4260   51.1200 O   0  0  0  0  0  0  0  0  0  0  0  0
   64.3020   30.1410   51.5730 C   0  0  0  0  0  0  0  0  0  0  0  0
   64.5180   31.4890   50.8660 C   0  0  0  0  0  0  0  0  0  0  0  0
   60.5990   33.8670   49.3670 C   0  0  0  0  0  0  0  0  0  0  0  0
   59.4350   33.7040   48.6130 C   0  0  0  0  0  0  0  0  0  0  0  0
   58.8309   31.1021   48.4713 H   0  0  0  0  0  0  0  0  0  0  0  0
   59.1109   29.2400   48.1813 H   0  0  0  0  0  0  0  0  0  0  0  0
   59.4479   27.5554   45.6407 H   0  0  0  0  0  0  0  0  0  0  0  0
   58.1835   29.5052   43.3457 H   0  0  0  0  0  0  0  0  0  0  0  0
   57.7900   33.3650   44.0051 H   0  0  0  0  0  0  0  0  0  0  0  0
   58.8422   32.4101   42.9062 H   0  0  0  0  0  0  0  0  0  0  0  0
   57.0660   32.1423   42.9062 H   0  0  0  0  0  0  0  0  0  0  0  0
   58.1639   33.6785   45.7441 H   0  0  0  0  0  0  0  0  0  0  0  0
   57.3681   32.9935   47.2129 H   0  0  0  0  0  0  0  0  0  0  0  0
   60.7988   32.3407   45.7889 H   0  0  0  0  0  0  0  0  0  0  0  0
   62.8764   32.6359   47.1345 H   0  0  0  0  0  0  0  0  0  0  0  0
   63.5110   32.8940   51.9830 H   0  0  0  0  0  0  0  0  0  0  0  0
   61.8163   31.5345   52.2458 H   0  0  0  0  0  0  0  0  0  0  0  0
   61.3088   32.2266   50.6465 H   0  0  0  0  0  0  0  0  0  0  0  0
   61.1840   29.7566   50.6521 H   0  0  0  0  0  0  0  0  0  0  0  0
   62.4282   30.3966   49.4812 H   0  0  0  0  0  0  0  0  0  0  0  0
   64.1873   30.3302   52.6505 H   0  0  0  0  0  0  0  0  0  0  0  0
   65.1784   29.5173   51.3431 H   0  0  0  0  0  0  0  0  0  0  0  0
   65.4232   31.9668   51.2689 H   0  0  0  0  0  0  0  0  0  0  0  0
   64.6294   31.3077   49.7868 H   0  0  0  0  0  0  0  0  0  0  0  0
   60.5435   34.3125   50.3712 H   0  0  0  0  0  0  0  0  0  0  0  0
   58.4665   34.0205   49.0275 H   0  0  0  0  0  0  0  0  0  0  0  0
  1  2  2  0
  2  3  1  0
  3  4  2  3
  4  5  1  0
  5  6  1  0
  6  7  1  0
  7  8  2  0
  7  9  1  0
  9 10  1  0
 10 11  1  0
  3 12  1  0
 12 13  2  0
 13 14  1  0
 13 15  1  0
 15 16  1  0
 16 17  1  0
 17 18  2  0
 18 19  1  0
 19 20  2  0
 20 21  1  0
 21 22  2  0
 21 23  2  0
 21 24  1  0
 24 25  1  0
 25 26  1  0
 26 27  1  0
 27 28  1  0
 28 29  1  0
 20 30  1  0
 30 31  2  0
 15  2  1  0
 31 17  1  0
 10  5  2  0
 29 24  1  0
  1 32  1  0
  1 33  1  0
  4 34  1  0
 12 35  1  0
 14 36  1  0
 14 37  1  0
 14 38  1  0
 16 39  1  0
 16 40  1  0
 18 41  1  0
 19 42  1  0
 24 43  1  0
 25 44  1  0
 25 45  1  0
 26 46  1  0
 26 47  1  0
 28 48  1  0
 28 49  1  0
 29 50  1  0
 29 51  1  0
 30 52  1  0
 31 53  1  0
M  CHG  4   6  -1   9  -1  11  -1  24   1
M  END
>  <UniqueID>  (85) 
79

>  <SMILES>  (85) 
C=c1c(=Cc2[n-]c(=O)[n-]c2[O-])cc(C)n1Cc1ccc(S(=O)(=O)[NH+]2CCOCC2)cc1

>  <Energy>  (85) 
135.5889378712489

>  <Genealogy>  (85) 
C=c1c(=Cc2[n-]c(=O)[n-]c2[O-])cc(C)n1Cc1ccc(S(=O)(=O)[NH+]2CCOCC2)cc1 (protonated)
C=c1c(=Cc2[n-]c(=O)[n-]c2[O-])cc(C)n1Cc1ccc(S(=O)(=O)[NH+]2CCOCC2)cc1 (3D coordinates assigned)
C=c1c(=Cc2[n-]c(=O)[n-]c2[O-])cc(C)n1Cc1ccc(S(=O)(=O)[NH+]2CCOCC2)cc1 (nonaromatic ring conformer: 135.5889378712489 kcal/mol)

>  <smiles>  (85) 
C=c1c(=Cc2[nH]c(=O)[nH]c2O)cc(C)n1Cc1ccc(S(=O)(=O)N2CCOCC2)cc1

>  <score_type>  (85) 
oracle

>  <origin>  (85) 
adg

>  <m_score__min__energy>  (85) 
-16.120000000000001

>  <m_primary>  (85) 
energy

$$$$
85:0
     RDKit          3D

 61 64  0  0  0  0  0  0  0  0999 V2000
   60.7550   27.9020   51.1930 C   0  0  0  0  0  0  0  0  0  0  0  0
   60.3810   27.5020   49.8410 N   0  0  0  0  0  0  0  0  0  0  0  0
   60.5850   28.3520   48.6980 C   0  0  0  0  0  0  0  0  0  0  0  0
   61.1390   29.6340   48.8730 C   0  0  0  0  0  0  0  0  0  0  0  0
   61.3150   30.5120   47.7900 C   0  0  0  0  0  0  0  0  0  0  0  0
   61.9760   31.7870   47.9830 N   0  0  0  0  0  0  0  0  0  0  0  0
   62.1300   32.7260   46.8640 C   0  0  0  0  0  0  0  0  0  0  0  0
   62.0670   34.1910   47.3440 C   0  0  0  0  0  0  0  0  0  0  0  0
   61.2120   34.3650   48.5400 N   0  0  0  0  0  0  0  0  0  0  0  0
   59.7800   34.6480   48.2840 C   0  0  0  0  0  0  0  0  0  0  0  0
   59.1520   33.7500   47.2350 C   0  0  0  0  0  0  0  0  0  0  0  0
   59.0420   34.1930   45.9060 C   0  0  0  0  0  0  0  0  0  0  0  0
   58.4210   33.4010   44.9390 C   0  0  0  0  0  0  0  0  0  0  0  0
   57.9080   32.1430   45.2770 C   0  0  0  0  0  0  0  0  0  0  0  0
   57.1750   31.3140   44.2560 C   0  0  0  0  0  0  0  0  0  0  0  0
   56.5720   30.1730   44.8660 O   0  0  0  0  0  0  0  0  0  0  0  0
   56.9860   28.8430   44.6890 C   0  0  0  0  0  0  0  0  0  0  0  0
   57.7220   28.5250   43.5400 C   0  0  0  0  0  0  0  0  0  0  0  0
   58.1530   27.2150   43.3130 C   0  0  0  0  0  0  0  0  0  0  0  0
   57.8550   26.2100   44.2380 C   0  0  0  0  0  0  0  0  0  0  0  0
   57.1270   26.5160   45.3900 C   0  0  0  0  0  0  0  0  0  0  0  0
   56.6930   27.8250   45.6200 C   0  0  0  0  0  0  0  0  0  0  0  0
   58.0610   31.6700   46.5870 C   0  0  0  0  0  0  0  0  0  0  0  0
   58.6990   32.4530   47.5600 C   0  0  0  0  0  0  0  0  0  0  0  0
   58.8670   31.9500   48.8500 O   0  0  0  0  0  0  0  0  0  0  0  0
   61.5020   33.4680   49.6880 C   0  0  0  0  0  0  0  0  0  0  0  0
   62.3810   32.2720   49.3040 C   0  0  0  0  0  0  0  0  0  0  0  0
   60.8850   30.1000   46.5170 C   0  0  0  0  0  0  0  0  0  0  0  0
   60.3230   28.8380   46.3300 C   0  0  0  0  0  0  0  0  0  0  0  0
   60.1940   27.9420   47.3990 C   0  0  0  0  0  0  0  0  0  0  0  0
   59.7060   26.5790   47.0920 C   0  0  0  0  0  0  0  0  0  0  0  0
   58.9620   25.9450   47.8860 O   0  0  0  0  0  0  0  0  0  0  0  0
   60.1925   27.3004   51.9222 H   0  0  0  0  0  0  0  0  0  0  0  0
   61.8333   27.7402   51.3382 H   0  0  0  0  0  0  0  0  0  0  0  0
   60.5212   28.9670   51.3382 H   0  0  0  0  0  0  0  0  0  0  0  0
   59.9950   26.5410   49.7090 H   0  0  0  0  0  0  0  0  0  0  0  0
   61.4411   29.9560   49.8805 H   0  0  0  0  0  0  0  0  0  0  0  0
   63.1021   32.5496   46.3803 H   0  0  0  0  0  0  0  0  0  0  0  0
   61.3049   32.5584   46.1561 H   0  0  0  0  0  0  0  0  0  0  0  0
   63.0861   34.5252   47.5885 H   0  0  0  0  0  0  0  0  0  0  0  0
   61.6267   34.7878   46.5316 H   0  0  0  0  0  0  0  0  0  0  0  0
   59.2277   34.5178   49.2264 H   0  0  0  0  0  0  0  0  0  0  0  0
   59.7227   35.6766   47.8983 H   0  0  0  0  0  0  0  0  0  0  0  0
   59.4499   35.1750   45.6246 H   0  0  0  0  0  0  0  0  0  0  0  0
   58.3342   33.7673   43.9054 H   0  0  0  0  0  0  0  0  0  0  0  0
   56.3919   31.9285   43.7879 H   0  0  0  0  0  0  0  0  0  0  0  0
   57.8954   30.9693   43.4996 H   0  0  0  0  0  0  0  0  0  0  0  0
   57.9625   29.3126   42.8108 H   0  0  0  0  0  0  0  0  0  0  0  0
   58.7270   26.9746   42.4060 H   0  0  0  0  0  0  0  0  0  0  0  0
   58.1937   25.1789   44.0586 H   0  0  0  0  0  0  0  0  0  0  0  0
   56.8945   25.7250   46.1182 H   0  0  0  0  0  0  0  0  0  0  0  0
   56.1214   28.0615   46.5296 H   0  0  0  0  0  0  0  0  0  0  0  0
   57.6769   30.6747   46.8549 H   0  0  0  0  0  0  0  0  0  0  0  0
   59.7070   32.1300   49.3860 H   0  0  0  0  0  0  0  0  0  0  0  0
   62.0201   34.0490   50.4652 H   0  0  0  0  0  0  0  0  0  0  0  0
   60.5413   33.0698   50.0464 H   0  0  0  0  0  0  0  0  0  0  0  0
   63.4355   32.5836   49.2750 H   0  0  0  0  0  0  0  0  0  0  0  0
   62.2618   31.4696   50.0470 H   0  0  0  0  0  0  0  0  0  0  0  0
   60.9930   30.7803   45.6594 H   0  0  0  0  0  0  0  0  0  0  0  0
   59.9760   28.5417   45.3291 H   0  0  0  0  0  0  0  0  0  0  0  0
   60.0014   26.1064   46.1436 H   0  0  0  0  0  0  0  0  0  0  0  0
  1  2  1  0
  2  3  1  0
  3  4  2  0
  4  5  1  0
  5  6  1  0
  6  7  1  0
  7  8  1  0
  8  9  1  0
  9 10  1  0
 10 11  1  0
 11 12  2  0
 12 13  1  0
 13 14  2  0
 14 15  1  0
 15 16  1  0
 16 17  1  0
 17 18  2  0
 18 19  1  0
 19 20  2  0
 20 21  1  0
 21 22  2  0
 14 23  1  0
 23 24  2  0
 24 25  1  0
  9 26  1  0
 26 27  1  0
  5 28  2  0
 28 29  1  0
 29 30  2  0
 30 31  1  0
 31 32  2  0
 30  3  1  0
 27  6  1  0
 24 11  1  0
 22 17  1  0
  1 33  1  0
  1 34  1  0
  1 35  1  0
  2 36  1  0
  4 37  1  0
  7 38  1  0
  7 39  1  0
  8 40  1  0
  8 41  1  0
 10 42  1  0
 10 43  1  0
 12 44  1  0
 13 45  1  0
 15 46  1  0
 15 47  1  0
 18 48  1  0
 19 49  1  0
 20 50  1  0
 21 51  1  0
 22 52  1  0
 23 53  1  0
 25 54  1  0
 26 55  1  0
 26 56  1  0
 27 57  1  0
 27 58  1  0
 28 59  1  0
 29 60  1  0
 31 61  1  0
M  END
>  <UniqueID>  (86) 
80

>  <SMILES>  (86) 
CNc1cc(N2CCN(Cc3ccc(COc4ccccc4)cc3O)CC2)ccc1C=O

>  <Energy>  (86) 
80.67349972590297

>  <Genealogy>  (86) 
CNc1cc(N2CCN(Cc3ccc(COc4ccccc4)cc3O)CC2)ccc1C=O (3D coordinates assigned)
CNc1cc(N2CCN(Cc3ccc(COc4ccccc4)cc3O)CC2)ccc1C=O (nonaromatic ring conformer: 80.67349972590297 kcal/mol)

>  <smiles>  (86) 
CNc1cc(N2CCN(Cc3ccc(COc4ccccc4)cc3O)CC2)ccc1C=O

>  <score_type>  (86) 
oracle

>  <origin>  (86) 
adg

>  <m_score__min__energy>  (86) 
-9.0099999999999998

>  <m_primary>  (86) 
energy

$$$$
86:0
     RDKit          3D

 41 42  0  0  0  0  0  0  0  0999 V2000
   60.7180   33.4010   45.7640 H   0  0  0  0  0  0  0  0  0  0  0  0
   61.6490   33.7060   46.0210 O   0  0  0  0  0  0  0  0  0  0  0  0
   62.2710   33.2500   47.1830 C   0  0  0  0  0  0  0  0  0  0  0  0
   63.6210   33.5320   47.4230 C   0  0  0  0  0  0  0  0  0  0  0  0
   64.2039   34.1022   46.6847 H   0  0  0  0  0  0  0  0  0  0  0  0
   64.2270   33.0890   48.6000 C   0  0  0  0  0  0  0  0  0  0  0  0
   65.2863   33.3099   48.7974 H   0  0  0  0  0  0  0  0  0  0  0  0
   63.4740   32.3630   49.5230 C   0  0  0  0  0  0  0  0  0  0  0  0
   63.9370   32.0155   50.4584 H   0  0  0  0  0  0  0  0  0  0  0  0
   62.1690   32.0850   49.2670 N   0  0  0  0  0  0  0  0  0  0  0  0
   61.5490   32.5050   48.1270 C   0  0  0  0  0  0  0  0  0  0  0  0
   60.2980   32.2240   47.8970 N   0  0  0  0  0  0  0  0  0  0  0  0
   59.1670   33.0900   48.0790 C   0  0  0  0  0  0  0  0  0  0  0  0
   58.0380   32.6360   48.4110 O   0  0  0  0  0  0  0  0  0  0  0  0
   59.3460   34.5690   47.8990 C   0  0  0  0  0  0  0  0  0  0  0  0
   60.3914   34.8304   48.1199 H   0  0  0  0  0  0  0  0  0  0  0  0
   58.6560   35.0823   48.5849 H   0  0  0  0  0  0  0  0  0  0  0  0
   59.0150   35.0140   46.4700 C   0  0  0  0  0  0  0  0  0  0  0  0
   59.9547   35.1787   45.9224 H   0  0  0  0  0  0  0  0  0  0  0  0
   58.4229   35.9391   46.5301 H   0  0  0  0  0  0  0  0  0  0  0  0
   58.2020   33.9900   45.7390 C   0  0  0  0  0  0  0  0  0  0  0  0
   56.9550   33.9300   45.9210 O   0  0  0  0  0  0  0  0  0  0  0  0
   58.8500   33.0850   44.8400 N   0  0  0  0  0  0  0  0  0  0  0  0
   58.1730   32.4170   43.7350 C   0  0  0  0  0  0  0  0  0  0  0  0
   58.9102   32.1628   42.9591 H   0  0  0  0  0  0  0  0  0  0  0  0
   57.4089   33.0933   43.3243 H   0  0  0  0  0  0  0  0  0  0  0  0
   57.5030   31.1580   44.2130 C   0  0  0  0  0  0  0  0  0  0  0  0
   56.2940   30.7440   43.6350 C   0  0  0  0  0  0  0  0  0  0  0  0
   55.8538   31.3242   42.8107 H   0  0  0  0  0  0  0  0  0  0  0  0
   55.6470   29.5980   44.1020 C   0  0  0  0  0  0  0  0  0  0  0  0
   54.6950   29.2831   43.6497 H   0  0  0  0  0  0  0  0  0  0  0  0
   56.2050   28.8500   45.1420 C   0  0  0  0  0  0  0  0  0  0  0  0
   55.5390   27.7250   45.6140 O   0  0  0  0  0  0  0  0  0  0  0  0
   57.4310   29.2270   45.7060 C   0  0  0  0  0  0  0  0  0  0  0  0
   57.9710   28.4290   46.7270 O   0  0  0  0  0  0  0  0  0  0  0  0
   58.4990   27.1210   46.5320 C   0  0  0  0  0  0  0  0  0  0  0  0
   58.6881   26.6525   47.5091 H   0  0  0  0  0  0  0  0  0  0  0  0
   57.7755   26.5138   45.9681 H   0  0  0  0  0  0  0  0  0  0  0  0
   59.4412   27.1862   45.9681 H   0  0  0  0  0  0  0  0  0  0  0  0
   58.0790   30.3860   45.2350 C   0  0  0  0  0  0  0  0  0  0  0  0
   59.0427   30.6883   45.6708 H   0  0  0  0  0  0  0  0  0  0  0  0
  1  2  1  0
  2  3  1  0
  3  4  2  0
  4  5  1  0
  4  6  1  0
  6  7  1  0
  6  8  2  0
  8  9  1  0
  8 10  1  0
 10 11  1  0
 11 12  2  0
 12 13  1  0
 13 14  2  0
 13 15  1  0
 15 16  1  0
 15 17  1  0
 15 18  1  0
 18 19  1  0
 18 20  1  0
 18 21  1  0
 21 22  2  0
 21 23  1  0
 23 24  1  0
 24 25  1  0
 24 26  1  0
 24 27  1  0
 27 28  2  0
 28 29  1  0
 28 30  1  0
 30 31  1  0
 30 32  2  0
 32 33  1  0
 32 34  1  0
 34 35  1  0
 35 36  1  0
 36 37  1  0
 36 38  1  0
 36 39  1  0
 34 40  2  0
 40 41  1  0
 11  3  1  0
 40 27  1  0
M  CHG  3  10  -1  23  -1  33  -1
M  END
>  <UniqueID>  (87) 
81

>  <SMILES>  (87) 
COc1cc(C[N-]C(=O)CCC(=O)/N=c2\[n-]cccc2O)ccc1[O-]

>  <Energy>  (87) 
32.54311872729354

>  <Genealogy>  (87) 
COc1cc(C[N-]C(=O)CCC(=O)N=c2[n-]cccc2O)ccc1[O-] (protonated)
COc1cc(C[N-]C(=O)CCC(=O)/N=c2\[n-]cccc2O)ccc1[O-] (cis-trans isomerization)
COc1cc(C[N-]C(=O)CCC(=O)/N=c2\[n-]cccc2O)ccc1[O-] (3D coordinates assigned)
COc1cc(C[N-]C(=O)CCC(=O)/N=c2\[n-]cccc2O)ccc1[O-] (optimized conformer: 32.54311872729354 kcal/mol)

>  <smiles>  (87) 
COc1cc(CNC(=O)CCC(=O)N=c2[nH]cccc2O)ccc1O

>  <score_type>  (87) 
oracle

>  <origin>  (87) 
adg

>  <m_score__min__energy>  (87) 
-12.859999999999999

>  <m_primary>  (87) 
energy

$$$$
87:0
     RDKit          3D

 55 58  0  0  0  0  0  0  0  0999 V2000
   56.4260   30.6510   43.2050 O   0  0  0  0  0  0  0  0  0  0  0  0
   56.7220   30.6880   44.4280 C   0  0  0  0  0  0  0  0  0  0  0  0
   56.3020   29.6110   45.2770 N   0  0  0  0  0  0  0  0  0  0  0  0
   56.8130   28.2440   45.2190 C   0  0  0  0  0  0  0  0  0  0  0  0
   58.0210   28.0910   46.1090 C   0  0  0  0  0  0  0  0  0  0  0  0
   58.3310   29.0970   47.0340 C   0  0  0  0  0  0  0  0  0  0  0  0
   59.4370   28.9510   47.8860 C   0  0  0  0  0  0  0  0  0  0  0  0
   59.7660   29.9890   48.8300 N   0  0  0  0  0  0  0  0  0  0  0  0
   61.1360   30.1230   49.3350 C   0  0  0  0  0  0  0  0  0  0  0  0
   61.1080   30.7470   50.7330 C   0  0  0  0  0  0  0  0  0  0  0  0
   60.3680   31.9530   50.7290 O   0  0  0  0  0  0  0  0  0  0  0  0
   59.0120   31.6850   50.4300 C   0  0  0  0  0  0  0  0  0  0  0  0
   58.8660   31.1320   49.0080 C   0  0  0  0  0  0  0  0  0  0  0  0
   60.2100   27.8290   47.7950 N   0  0  0  0  0  0  0  0  0  0  0  0
   59.9360   26.8450   46.8960 C   0  0  0  0  0  0  0  0  0  0  0  0
   58.8450   26.9570   46.0350 C   0  0  0  0  0  0  0  0  0  0  0  0
   58.5980   25.9640   45.1420 F   0  0  0  0  0  0  0  0  0  0  0  0
   57.5110   31.8200   44.9410 C   0  0  0  0  0  0  0  0  0  0  0  0
   58.7740   31.5950   45.5060 C   0  0  0  0  0  0  0  0  0  0  0  0
   59.5140   32.6620   46.0250 C   0  0  0  0  0  0  0  0  0  0  0  0
   59.0000   33.9670   45.9770 C   0  0  0  0  0  0  0  0  0  0  0  0
   59.7830   35.1220   46.5260 C   0  0  0  0  0  0  0  0  0  0  0  0
   60.2710   34.7830   47.8220 O   0  0  0  0  0  0  0  0  0  0  0  0
   61.5290   34.2120   48.0700 C   0  0  0  0  0  0  0  0  0  0  0  0
   62.0480   34.0560   49.3720 C   0  0  0  0  0  0  0  0  0  0  0  0
   63.3160   33.4960   49.5620 C   0  0  0  0  0  0  0  0  0  0  0  0
   64.0710   33.0840   48.4620 C   0  0  0  0  0  0  0  0  0  0  0  0
   63.5590   33.2290   47.1700 C   0  0  0  0  0  0  0  0  0  0  0  0
   62.2930   33.7890   46.9750 C   0  0  0  0  0  0  0  0  0  0  0  0
   57.7540   34.1950   45.3740 C   0  0  0  0  0  0  0  0  0  0  0  0
   57.0140   33.1280   44.8600 C   0  0  0  0  0  0  0  0  0  0  0  0
   56.0276   27.5499   45.5529 H   0  0  0  0  0  0  0  0  0  0  0  0
   57.1049   28.0180   44.1828 H   0  0  0  0  0  0  0  0  0  0  0  0
   57.7075   30.0013   47.0925 H   0  0  0  0  0  0  0  0  0  0  0  0
   61.6062   29.1299   49.3865 H   0  0  0  0  0  0  0  0  0  0  0  0
   61.7141   30.7688   48.6576 H   0  0  0  0  0  0  0  0  0  0  0  0
   60.6415   30.0397   51.4346 H   0  0  0  0  0  0  0  0  0  0  0  0
   62.1404   30.9673   51.0421 H   0  0  0  0  0  0  0  0  0  0  0  0
   58.6244   30.9453   51.1459 H   0  0  0  0  0  0  0  0  0  0  0  0
   58.4432   32.6237   50.5028 H   0  0  0  0  0  0  0  0  0  0  0  0
   57.8272   30.8087   48.8458 H   0  0  0  0  0  0  0  0  0  0  0  0
   59.1249   31.9172   48.2824 H   0  0  0  0  0  0  0  0  0  0  0  0
   61.0270   27.7020   48.4300 H   0  0  0  0  0  0  0  0  0  0  0  0
   60.5800   25.9545   46.8481 H   0  0  0  0  0  0  0  0  0  0  0  0
   59.1846   30.5751   45.5412 H   0  0  0  0  0  0  0  0  0  0  0  0
   60.5020   32.4779   46.4722 H   0  0  0  0  0  0  0  0  0  0  0  0
   60.6301   35.3422   45.8598 H   0  0  0  0  0  0  0  0  0  0  0  0
   59.1353   36.0085   46.5949 H   0  0  0  0  0  0  0  0  0  0  0  0
   61.4540   34.3756   50.2409 H   0  0  0  0  0  0  0  0  0  0  0  0
   63.7186   33.3801   50.5791 H   0  0  0  0  0  0  0  0  0  0  0  0
   65.0685   32.6454   48.6125 H   0  0  0  0  0  0  0  0  0  0  0  0
   64.1535   32.9017   46.3043 H   0  0  0  0  0  0  0  0  0  0  0  0
   61.8945   33.8981   45.9555 H   0  0  0  0  0  0  0  0  0  0  0  0
   57.3580   35.2190   45.3057 H   0  0  0  0  0  0  0  0  0  0  0  0
   56.0373   33.3148   44.3898 H   0  0  0  0  0  0  0  0  0  0  0  0
  1  2  2  0
  2  3  1  0
  3  4  1  0
  4  5  1  0
  5  6  2  0
  6  7  1  0
  7  8  1  0
  8  9  1  0
  9 10  1  0
 10 11  1  0
 11 12  1  0
 12 13  1  0
  7 14  2  0
 14 15  1  0
 15 16  2  0
 16 17  1  0
  2 18  1  0
 18 19  2  0
 19 20  1  0
 20 21  2  0
 21 22  1  0
 22 23  1  0
 23 24  1  0
 24 25  2  0
 25 26  1  0
 26 27  2  0
 27 28  1  0
 28 29  2  0
 21 30  1  0
 30 31  2  0
 16  5  1  0
 31 18  1  0
 13  8  1  0
 29 24  1  0
  4 32  1  0
  4 33  1  0
  6 34  1  0
  9 35  1  0
  9 36  1  0
 10 37  1  0
 10 38  1  0
 12 39  1  0
 12 40  1  0
 13 41  1  0
 13 42  1  0
 14 43  1  0
 15 44  1  0
 19 45  1  0
 20 46  1  0
 22 47  1  0
 22 48  1  0
 25 49  1  0
 26 50  1  0
 27 51  1  0
 28 52  1  0
 29 53  1  0
 30 54  1  0
 31 55  1  0
M  CHG  2   3  -1  14   1
M  END
>  <UniqueID>  (88) 
82

>  <SMILES>  (88) 
O=C([N-]Cc1cc(N2CCOCC2)[nH+]cc1F)c1ccc(COc2ccccc2)cc1

>  <Energy>  (88) 
65.34542508553942

>  <Genealogy>  (88) 
O=C([N-]Cc1cc(N2CCOCC2)[nH+]cc1F)c1ccc(COc2ccccc2)cc1 (protonated)
O=C([N-]Cc1cc(N2CCOCC2)[nH+]cc1F)c1ccc(COc2ccccc2)cc1 (3D coordinates assigned)
O=C([N-]Cc1cc(N2CCOCC2)[nH+]cc1F)c1ccc(COc2ccccc2)cc1 (nonaromatic ring conformer: 65.34542508553942 kcal/mol)

>  <smiles>  (88) 
O=C(NCc1cc(N2CCOCC2)ncc1F)c1ccc(COc2ccccc2)cc1

>  <score_type>  (88) 
oracle

>  <origin>  (88) 
adg

>  <m_score__min__energy>  (88) 
-8.5099999999999998

>  <m_primary>  (88) 
energy

$$$$
88:0
     RDKit          3D

 50 52  0  0  0  0  0  0  0  0999 V2000
   56.5280   31.6800   44.9140 O   0  0  0  0  0  0  0  0  0  0  0  0
   57.7160   32.0140   45.1610 C   0  0  0  0  0  0  0  0  0  0  0  0
   58.8470   31.1970   44.5860 C   0  0  0  0  0  0  0  0  0  0  0  0
   59.0370   29.8340   45.2840 C   0  0  2  0  0  0  0  0  0  0  0  0
   57.7850   29.3320   45.8450 N   0  0  0  0  0  0  0  0  0  0  0  0
   56.9560   28.3510   45.2160 C   0  0  0  0  0  0  0  0  0  0  0  0
   55.7240   28.5680   45.0480 O   0  0  0  0  0  0  0  0  0  0  0  0
   57.5510   27.0360   44.8130 C   0  0  0  0  0  0  0  0  0  0  0  0
   57.1960   25.9560   45.7890 C   0  0  0  0  0  0  0  0  0  0  0  0
   58.2880   24.8370   46.4180 S   0  0  0  0  0  0  0  0  0  0  0  0
   57.0970   24.0370   47.2890 C   0  0  0  0  0  0  0  0  0  0  0  0
   57.3070   23.0360   48.0220 O   0  0  0  0  0  0  0  0  0  0  0  0
   55.8730   24.5780   47.1170 N   0  0  0  0  0  0  0  0  0  0  0  0
   55.9210   25.6440   46.2760 C   0  0  0  0  0  0  0  0  0  0  0  0
   54.7650   26.3470   45.9390 O   0  0  0  0  0  0  0  0  0  0  0  0
   60.1220   29.8960   46.3380 C   0  0  0  0  0  0  0  0  0  0  0  0
   61.3230   29.8340   45.9600 O   0  0  0  0  0  0  0  0  0  0  0  0
   59.8370   30.1070   47.7380 N   0  0  0  0  0  0  0  0  0  0  0  0
   60.7080   30.9890   48.5280 C   0  0  0  0  0  0  0  0  0  0  0  0
   61.3540   30.2100   49.6820 C   0  0  0  0  0  0  0  0  0  0  0  0
   60.3860   29.2210   50.3740 C   0  0  0  0  0  0  0  0  0  0  0  0
   58.9260   29.4190   49.9500 C   0  0  0  0  0  0  0  0  0  0  0  0
   58.7930   29.3270   48.4240 C   0  0  0  0  0  0  0  0  0  0  0  0
   57.9640   33.2450   45.8560 N   0  0  0  0  0  0  0  0  0  0  0  0
   58.9400   33.5060   46.6770 C   0  0  0  0  0  0  0  0  0  0  0  0
   58.7370   33.7300   48.0540 C   0  0  0  0  0  0  0  0  0  0  0  0
   59.8360   33.9790   48.8790 C   0  0  0  0  0  0  0  0  0  0  0  0
   61.1200   34.0240   48.3340 C   0  0  0  0  0  0  0  0  0  0  0  0
   62.6320   34.3580   49.4520 Br  0  0  0  0  0  0  0  0  0  0  0  0
   61.2850   33.8340   46.9620 C   0  0  0  0  0  0  0  0  0  0  0  0
   60.2030   33.5860   46.1750 N   0  0  0  0  0  0  0  0  0  0  0  0
   58.6403   31.0170   43.5207 H   0  0  0  0  0  0  0  0  0  0  0  0
   59.7724   31.7715   44.7395 H   0  0  0  0  0  0  0  0  0  0  0  0
   59.3609   29.1203   44.5122 H   0  0  0  0  0  0  0  0  0  0  0  0
   57.1699   26.7599   43.8187 H   0  0  0  0  0  0  0  0  0  0  0  0
   58.6458   27.1413   44.7946 H   0  0  0  0  0  0  0  0  0  0  0  0
   54.7660   27.0820   45.2430 H   0  0  0  0  0  0  0  0  0  0  0  0
   61.4973   31.3952   47.8784 H   0  0  0  0  0  0  0  0  0  0  0  0
   60.1028   31.8075   48.9450 H   0  0  0  0  0  0  0  0  0  0  0  0
   62.2076   29.6416   49.2841 H   0  0  0  0  0  0  0  0  0  0  0  0
   61.6613   30.9466   50.4389 H   0  0  0  0  0  0  0  0  0  0  0  0
   60.6898   28.1953   50.1176 H   0  0  0  0  0  0  0  0  0  0  0  0
   60.4431   29.4067   51.4567 H   0  0  0  0  0  0  0  0  0  0  0  0
   58.3049   28.6394   50.4153 H   0  0  0  0  0  0  0  0  0  0  0  0
   58.5922   30.4148   50.2771 H   0  0  0  0  0  0  0  0  0  0  0  0
   58.8791   28.2729   48.1216 H   0  0  0  0  0  0  0  0  0  0  0  0
   57.8140   29.7401   48.1397 H   0  0  0  0  0  0  0  0  0  0  0  0
   57.7211   33.7088   48.4753 H   0  0  0  0  0  0  0  0  0  0  0  0
   59.6897   34.1395   49.9574 H   0  0  0  0  0  0  0  0  0  0  0  0
   62.2894   33.8846   46.5164 H   0  0  0  0  0  0  0  0  0  0  0  0
  1  2  2  0
  2  3  1  0
  3  4  1  0
  4  5  1  0
  5  6  1  0
  6  7  2  0
  6  8  1  0
  8  9  1  0
  9 10  1  0
 10 11  1  0
 11 12  2  0
 11 13  1  0
 13 14  1  0
 14 15  1  0
  4 16  1  0
 16 17  2  0
 16 18  1  0
 18 19  1  0
 19 20  1  0
 20 21  1  0
 21 22  1  0
 22 23  1  0
  2 24  1  0
 24 25  2  3
 25 26  1  0
 26 27  2  0
 27 28  1  0
 28 29  1  0
 28 30  2  0
 30 31  1  0
 14  9  2  0
 23 18  1  0
 31 25  1  0
  3 32  1  0
  3 33  1  0
  4 34  1  6
  8 35  1  0
  8 36  1  0
 15 37  1  0
 19 38  1  0
 19 39  1  0
 20 40  1  0
 20 41  1  0
 21 42  1  0
 21 43  1  0
 22 44  1  0
 22 45  1  0
 23 46  1  0
 23 47  1  0
 26 48  1  0
 27 49  1  0
 30 50  1  0
M  CHG  3   5  -1  13  -1  31  -1
M  END
>  <UniqueID>  (89) 
83

>  <SMILES>  (89) 
O=C(C[C@H]([N-]C(=O)Cc1sc(=O)[n-]c1O)C(=O)N1CCCCC1)N=c1ccc(Br)c[n-]1

>  <Energy>  (89) 
89.17278814988596

>  <Genealogy>  (89) 
O=C(CC([N-]C(=O)Cc1sc(=O)[n-]c1O)C(=O)N1CCCCC1)N=c1ccc(Br)c[n-]1 (protonated)
O=C(C[C@H]([N-]C(=O)Cc1sc(=O)[n-]c1O)C(=O)N1CCCCC1)N=c1ccc(Br)c[n-]1 (chirality)
O=C(C[C@H]([N-]C(=O)Cc1sc(=O)[n-]c1O)C(=O)N1CCCCC1)N=c1ccc(Br)c[n-]1 (3D coordinates assigned)
O=C(C[C@H]([N-]C(=O)Cc1sc(=O)[n-]c1O)C(=O)N1CCCCC1)N=c1ccc(Br)c[n-]1 (nonaromatic ring conformer: 89.17278814988596 kcal/mol)

>  <smiles>  (89) 
O=C(CC(NC(=O)Cc1sc(=O)[nH]c1O)C(=O)N1CCCCC1)N=c1ccc(Br)c[nH]1

>  <score_type>  (89) 
oracle

>  <origin>  (89) 
adg

>  <m_score__min__energy>  (89) 
-15.470000000000001

>  <m_primary>  (89) 
energy

$$$$
89:0
     RDKit          3D

 41 43  0  0  0  0  0  0  0  0999 V2000
   56.6305   31.8481   44.7049 H   0  0  0  0  0  0  0  0  0  0  0  0
   57.0410   30.8310   44.6210 C   0  0  0  0  0  0  0  0  0  0  0  0
   56.1280   29.7220   44.2810 C   0  0  0  0  0  0  0  0  0  0  0  0
   55.7000   29.6330   43.1020 O   0  0  0  0  0  0  0  0  0  0  0  0
   55.7390   28.7210   45.2340 N   0  0  0  0  0  0  0  0  0  0  0  0
   56.5120   27.5760   45.6230 C   0  0  0  0  0  0  0  0  0  0  0  0
   57.9170   27.6230   45.6850 C   0  0  0  0  0  0  0  0  0  0  0  0
   58.4464   28.5499   45.4193 H   0  0  0  0  0  0  0  0  0  0  0  0
   58.6430   26.4960   46.0830 C   0  0  0  0  0  0  0  0  0  0  0  0
   59.7418   26.5344   46.1172 H   0  0  0  0  0  0  0  0  0  0  0  0
   57.9750   25.3220   46.4370 C   0  0  0  0  0  0  0  0  0  0  0  0
   58.5482   24.4350   46.7445 H   0  0  0  0  0  0  0  0  0  0  0  0
   56.5790   25.2730   46.4010 C   0  0  0  0  0  0  0  0  0  0  0  0
   56.0544   24.3496   46.6875 H   0  0  0  0  0  0  0  0  0  0  0  0
   55.8470   26.3970   46.0010 C   0  0  0  0  0  0  0  0  0  0  0  0
   54.4580   26.3390   45.9740 O   0  0  0  0  0  0  0  0  0  0  0  0
   58.3500   30.6450   44.8310 C   0  0  0  0  0  0  0  0  0  0  0  0
   58.9258   30.0735   44.0882 H   0  0  0  0  0  0  0  0  0  0  0  0
   59.0540   31.1730   46.0150 C   0  0  0  0  0  0  0  0  0  0  0  0
   59.0820   30.4690   47.0600 O   0  0  0  0  0  0  0  0  0  0  0  0
   59.6560   32.4780   46.0150 N   0  0  0  0  0  0  0  0  0  0  0  0
   59.3140   33.1840   45.3260 H   0  0  0  0  0  0  0  0  0  0  0  0
   60.5440   32.9210   47.0580 C   0  0  0  0  0  0  0  0  0  0  0  0
   60.3100   34.1440   47.7200 C   0  0  0  0  0  0  0  0  0  0  0  0
   59.1280   35.0030   47.3820 C   0  0  0  0  0  0  0  0  0  0  0  0
   58.6499   35.3504   48.3098 H   0  0  0  0  0  0  0  0  0  0  0  0
   59.4616   35.8709   46.7942 H   0  0  0  0  0  0  0  0  0  0  0  0
   58.4055   34.4178   46.7942 H   0  0  0  0  0  0  0  0  0  0  0  0
   61.1660   34.5640   48.6900 N   0  0  0  0  0  0  0  0  0  0  0  0
   62.2580   33.8450   49.0570 C   0  0  0  0  0  0  0  0  0  0  0  0
   63.1000   34.3250   50.0660 C   0  0  0  0  0  0  0  0  0  0  0  0
   62.8743   35.2811   50.5609 H   0  0  0  0  0  0  0  0  0  0  0  0
   64.2270   33.5920   50.4460 C   0  0  0  0  0  0  0  0  0  0  0  0
   64.8857   33.9709   51.2413 H   0  0  0  0  0  0  0  0  0  0  0  0
   64.5190   32.3790   49.8180 C   0  0  0  0  0  0  0  0  0  0  0  0
   65.4085   31.8063   50.1192 H   0  0  0  0  0  0  0  0  0  0  0  0
   63.6850   31.8900   48.8080 C   0  0  0  0  0  0  0  0  0  0  0  0
   63.9206   30.9347   48.3162 H   0  0  0  0  0  0  0  0  0  0  0  0
   62.5440   32.6180   48.4190 C   0  0  0  0  0  0  0  0  0  0  0  0
   61.6810   32.1630   47.4030 C   0  0  0  0  0  0  0  0  0  0  0  0
   61.9340   31.0910   46.7880 O   0  0  0  0  0  0  0  0  0  0  0  0
  1  2  1  0
  2  3  1  0
  3  4  2  0
  3  5  1  0
  5  6  1  0
  6  7  2  0
  7  8  1  0
  7  9  1  0
  9 10  1  0
  9 11  2  0
 11 12  1  0
 11 13  1  0
 13 14  1  0
 13 15  2  0
 15 16  1  0
  2 17  2  0
 17 18  1  0
 17 19  1  0
 19 20  2  0
 19 21  1  0
 21 22  1  0
 21 23  1  0
 23 24  2  0
 24 25  1  0
 25 26  1  0
 25 27  1  0
 25 28  1  0
 24 29  1  0
 29 30  1  0
 30 31  2  0
 31 32  1  0
 31 33  1  0
 33 34  1  0
 33 35  2  0
 35 36  1  0
 35 37  1  0
 37 38  1  0
 37 39  2  0
 39 40  1  0
 40 41  2  0
 15  6  1  0
 40 23  1  0
 39 30  1  0
M  CHG  3   5  -1  16  -1  29  -1
M  END
>  <UniqueID>  (90) 
84

>  <SMILES>  (90) 
Cc1[n-]c2ccccc2c(=O)c1NC(=O)/C=C/C(=O)[N-]c1ccccc1[O-]

>  <Energy>  (90) 
59.11222943717735

>  <Genealogy>  (90) 
Cc1[n-]c2ccccc2c(=O)c1NC(=O)C=CC(=O)[N-]c1ccccc1[O-] (protonated)
Cc1[n-]c2ccccc2c(=O)c1NC(=O)/C=C/C(=O)[N-]c1ccccc1[O-] (cis-trans isomerization)
Cc1[n-]c2ccccc2c(=O)c1NC(=O)/C=C/C(=O)[N-]c1ccccc1[O-] (3D coordinates assigned)
Cc1[n-]c2ccccc2c(=O)c1NC(=O)/C=C/C(=O)[N-]c1ccccc1[O-] (optimized conformer: 59.11222943717735 kcal/mol)

>  <smiles>  (90) 
Cc1[nH]c2ccccc2c(=O)c1NC(=O)C=CC(=O)Nc1ccccc1O

>  <score_type>  (90) 
oracle

>  <origin>  (90) 
adg

>  <m_score__min__energy>  (90) 
-14.73

>  <m_primary>  (90) 
energy

$$$$
90:0
     RDKit          3D

 34 36  0  0  0  0  0  0  0  0999 V2000
   61.7822   33.0515   47.2790 H   0  0  0  0  0  0  0  0  0  0  0  0
   60.8240   33.2790   46.7890 C   0  0  0  0  0  0  0  0  0  0  0  0
   60.4950   34.5970   46.4840 C   0  0  0  0  0  0  0  0  0  0  0  0
   61.1992   35.4081   46.7211 H   0  0  0  0  0  0  0  0  0  0  0  0
   59.2730   34.8900   45.8780 C   0  0  0  0  0  0  0  0  0  0  0  0
   59.0209   35.9337   45.6390 H   0  0  0  0  0  0  0  0  0  0  0  0
   58.3590   33.8650   45.5690 C   0  0  0  0  0  0  0  0  0  0  0  0
   57.0340   34.2450   44.9650 C   0  0  0  0  0  0  0  0  0  0  0  0
   56.3111   34.4523   45.7677 H   0  0  0  0  0  0  0  0  0  0  0  0
   57.1588   35.1436   44.3429 H   0  0  0  0  0  0  0  0  0  0  0  0
   56.6636   33.4169   44.3429 H   0  0  0  0  0  0  0  0  0  0  0  0
   58.7130   32.5160   45.8430 C   0  0  0  0  0  0  0  0  0  0  0  0
   57.8390   31.3680   45.5040 C   0  0  0  0  0  0  0  0  0  0  0  0
   56.6730   31.5030   44.8280 N   0  0  0  0  0  0  0  0  0  0  0  0
   55.9960   30.3640   44.6910 N   0  0  0  0  0  0  0  0  0  0  0  0
   56.6040   29.3080   45.2700 C   0  0  0  0  0  0  0  0  0  0  0  0
   56.0900   28.1130   45.2380 N   0  0  0  0  0  0  0  0  0  0  0  0
   56.4980   26.9650   45.9980 C   0  0  0  0  0  0  0  0  0  0  0  0
   57.6460   26.8980   46.5110 O   0  0  0  0  0  0  0  0  0  0  0  0
   55.5490   25.9130   46.2100 N   0  0  0  0  0  0  0  0  0  0  0  0
   55.7220   24.5260   45.8850 C   0  0  0  0  0  0  0  0  0  0  0  0
   55.8360   24.0820   44.5540 C   0  0  0  0  0  0  0  0  0  0  0  0
   55.8102   24.8094   43.7292 H   0  0  0  0  0  0  0  0  0  0  0  0
   55.9820   22.7180   44.2770 C   0  0  0  0  0  0  0  0  0  0  0  0
   56.0828   22.3774   43.2359 H   0  0  0  0  0  0  0  0  0  0  0  0
   56.0000   21.7880   45.3190 C   0  0  0  0  0  0  0  0  0  0  0  0
   56.1960   19.9280   44.9360 Br  0  0  0  0  0  0  0  0  0  0  0  0
   55.8630   22.2200   46.6410 C   0  0  0  0  0  0  0  0  0  0  0  0
   55.8700   21.4873   47.4614 H   0  0  0  0  0  0  0  0  0  0  0  0
   55.7170   23.5820   46.9230 C   0  0  0  0  0  0  0  0  0  0  0  0
   55.5810   23.9870   48.2110 F   0  0  0  0  0  0  0  0  0  0  0  0
   58.0540   29.7680   46.0040 S   0  0  0  0  0  0  0  0  0  0  0  0
   59.9400   32.2460   46.4740 C   0  0  0  0  0  0  0  0  0  0  0  0
   60.2065   31.2081   46.7224 H   0  0  0  0  0  0  0  0  0  0  0  0
  1  2  1  0
  2  3  2  0
  3  4  1  0
  3  5  1  0
  5  6  1  0
  5  7  2  0
  7  8  1  0
  8  9  1  0
  8 10  1  0
  8 11  1  0
  7 12  1  0
 12 13  1  0
 13 14  2  0
 14 15  1  0
 15 16  1  0
 16 17  2  0
 17 18  1  0
 18 19  2  0
 18 20  1  0
 20 21  1  0
 21 22  2  0
 22 23  1  0
 22 24  1  0
 24 25  1  0
 24 26  2  0
 26 27  1  0
 26 28  1  0
 28 29  1  0
 28 30  2  0
 30 31  1  0
 16 32  1  0
 12 33  2  0
 33 34  1  0
 33  2  1  0
 32 13  1  0
 30 21  1  0
M  CHG  2  15  -1  20  -1
M  END
>  <UniqueID>  (91) 
85

>  <SMILES>  (91) 
Cc1ccccc1-c1n[n-]/c(=N/C(=O)[N-]c2ccc(Br)cc2F)s1

>  <Energy>  (91) 
83.59140211492571

>  <Genealogy>  (91) 
Cc1ccccc1-c1n[n-]c(=NC(=O)[N-]c2ccc(Br)cc2F)s1 (protonated)
Cc1ccccc1-c1n[n-]/c(=N/C(=O)[N-]c2ccc(Br)cc2F)s1 (cis-trans isomerization)
Cc1ccccc1-c1n[n-]/c(=N/C(=O)[N-]c2ccc(Br)cc2F)s1 (3D coordinates assigned)
Cc1ccccc1-c1n[n-]/c(=N/C(=O)[N-]c2ccc(Br)cc2F)s1 (optimized conformer: 83.59140211492571 kcal/mol)

>  <smiles>  (91) 
Cc1ccccc1-c1n[nH]c(=NC(=O)Nc2ccc(Br)cc2F)s1

>  <score_type>  (91) 
oracle

>  <origin>  (91) 
adg

>  <m_score__min__energy>  (91) 
-11.35

>  <m_primary>  (91) 
energy

$$$$
91:0
     RDKit          3D

 52 55  0  0  0  0  0  0  0  0999 V2000
   60.6100   29.2470   49.3810 C   0  0  0  0  0  0  0  0  0  0  0  0
   59.7480   29.9440   48.6230 C   0  0  0  0  0  0  0  0  0  0  0  0
   59.1570   29.5440   47.4140 C   0  0  0  0  0  0  0  0  0  0  0  0
   59.0920   28.3360   46.8240 C   0  0  0  0  0  0  0  0  0  0  0  0
   57.8510   27.6490   46.4240 C   0  0  0  0  0  0  0  0  0  0  0  0
   57.4910   26.4140   46.8150 N   0  0  0  0  0  0  0  0  0  0  0  0
   56.2430   26.2760   46.3200 C   0  0  0  0  0  0  0  0  0  0  0  0
   55.5650   25.2250   46.4740 O   0  0  0  0  0  0  0  0  0  0  0  0
   55.7720   27.3590   45.6650 N   0  0  0  0  0  0  0  0  0  0  0  0
   56.7960   28.2250   45.7530 C   0  0  0  0  0  0  0  0  0  0  0  0
   56.7670   29.5180   45.2420 O   0  0  0  0  0  0  0  0  0  0  0  0
   58.5170   30.6640   46.9030 C   0  0  0  0  0  0  0  0  0  0  0  0
   58.6640   31.6670   47.8390 C   0  0  0  0  0  0  0  0  0  0  0  0
   58.0330   33.0240   47.7510 C   0  0  0  0  0  0  0  0  0  0  0  0
   59.4020   31.2290   48.8840 N   0  0  0  0  0  0  0  0  0  0  0  0
   59.6270   31.9550   50.1080 C   0  0  0  0  0  0  0  0  0  0  0  0
   60.6910   32.8680   50.1800 C   0  0  0  0  0  0  0  0  0  0  0  0
   60.8790   33.6420   51.3280 C   0  0  0  0  0  0  0  0  0  0  0  0
   60.0040   33.5130   52.4100 C   0  0  0  0  0  0  0  0  0  0  0  0
   58.9370   32.6060   52.3500 C   0  0  0  0  0  0  0  0  0  0  0  0
   58.7450   31.8080   51.2080 C   0  0  0  0  0  0  0  0  0  0  0  0
   57.6100   30.8570   51.1530 C   0  0  0  0  0  0  0  0  0  0  0  0
   57.8290   29.6340   50.9430 O   0  0  0  0  0  0  0  0  0  0  0  0
   56.2670   31.3230   51.3110 N   0  0  0  0  0  0  0  0  0  0  0  0
   55.1970   30.5160   51.9030 C   0  0  0  0  0  0  0  0  0  0  0  0
   53.8000   30.8440   51.3250 C   0  0  0  0  0  0  0  0  0  0  0  0
   52.7280   30.5600   52.2880 N   0  0  0  0  0  0  0  0  0  0  0  0
   52.8130   29.5920   53.1890 N   0  0  0  0  0  0  0  0  0  0  0  0
   51.6580   29.5600   53.8840 C   0  0  0  0  0  0  0  0  0  0  0  0
   50.8130   30.5520   53.4210 C   0  0  0  0  0  0  0  0  0  0  0  0
   51.5240   31.1790   52.4140 C   0  0  0  0  0  0  0  0  0  0  0  0
   51.0430   32.3500   51.6530 C   0  0  0  0  0  0  0  0  0  0  0  0
   51.0330   32.3190   50.3870 O   0  0  0  0  0  0  0  0  0  0  0  0
   50.5660   33.4780   52.3060 O   0  0  0  0  0  0  0  0  0  0  0  0
   60.9996   29.6826   50.3129 H   0  0  0  0  0  0  0  0  0  0  0  0
   60.9265   28.2405   49.0700 H   0  0  0  0  0  0  0  0  0  0  0  0
   60.0424   27.8195   46.6241 H   0  0  0  0  0  0  0  0  0  0  0  0
   56.1260   30.2040   45.6160 H   0  0  0  0  0  0  0  0  0  0  0  0
   57.9937   30.7380   45.9383 H   0  0  0  0  0  0  0  0  0  0  0  0
   57.8530   33.4111   48.7648 H   0  0  0  0  0  0  0  0  0  0  0  0
   58.7059   33.7070   47.2118 H   0  0  0  0  0  0  0  0  0  0  0  0
   57.0771   32.9496   47.2118 H   0  0  0  0  0  0  0  0  0  0  0  0
   61.3797   32.9745   49.3289 H   0  0  0  0  0  0  0  0  0  0  0  0
   61.7164   34.3534   51.3801 H   0  0  0  0  0  0  0  0  0  0  0  0
   60.1531   34.1252   53.3116 H   0  0  0  0  0  0  0  0  0  0  0  0
   58.2458   32.5179   53.2011 H   0  0  0  0  0  0  0  0  0  0  0  0
   55.4137   29.4542   51.7141 H   0  0  0  0  0  0  0  0  0  0  0  0
   55.1695   30.7453   52.9785 H   0  0  0  0  0  0  0  0  0  0  0  0
   53.7664   31.9111   51.0600 H   0  0  0  0  0  0  0  0  0  0  0  0
   53.6399   30.2103   50.4402 H   0  0  0  0  0  0  0  0  0  0  0  0
   51.4240   28.8538   54.6943 H   0  0  0  0  0  0  0  0  0  0  0  0
   49.7992   30.7898   53.7754 H   0  0  0  0  0  0  0  0  0  0  0  0
  1  2  2  0
  2  3  1  0
  3  4  2  3
  4  5  1  0
  5  6  1  0
  6  7  1  0
  7  8  2  0
  7  9  1  0
  9 10  1  0
 10 11  1  0
  3 12  1  0
 12 13  2  0
 13 14  1  0
 13 15  1  0
 15 16  1  0
 16 17  2  0
 17 18  1  0
 18 19  2  0
 19 20  1  0
 20 21  2  0
 21 22  1  0
 22 23  2  0
 22 24  1  0
 24 25  1  0
 25 26  1  0
 26 27  1  0
 27 28  1  0
 28 29  2  0
 29 30  1  0
 30 31  2  0
 31 32  1  0
 32 33  2  0
 32 34  1  0
 15  2  1  0
 21 16  1  0
 31 27  1  0
 10  5  2  0
  1 35  1  0
  1 36  1  0
  4 37  1  0
 11 38  1  0
 12 39  1  0
 14 40  1  0
 14 41  1  0
 14 42  1  0
 17 43  1  0
 18 44  1  0
 19 45  1  0
 20 46  1  0
 25 47  1  0
 25 48  1  0
 26 49  1  0
 26 50  1  0
 29 51  1  0
 30 52  1  0
M  CHG  4   6  -1   9  -1  24  -1  34  -1
M  END
>  <UniqueID>  (92) 
86

>  <SMILES>  (92) 
C=c1c(=Cc2[n-]c(=O)[n-]c2O)cc(C)n1-c1ccccc1C(=O)[N-]CCn1nccc1C(=O)[O-]

>  <Energy>  (92) 
164.56609762310185

>  <Genealogy>  (92) 
C=c1c(=Cc2[n-]c(=O)[n-]c2O)cc(C)n1-c1ccccc1C(=O)[N-]CCn1nccc1C(=O)[O-] (protonated)
C=c1c(=Cc2[n-]c(=O)[n-]c2O)cc(C)n1-c1ccccc1C(=O)[N-]CCn1nccc1C(=O)[O-] (3D coordinates assigned)
C=c1c(=Cc2[n-]c(=O)[n-]c2O)cc(C)n1-c1ccccc1C(=O)[N-]CCn1nccc1C(=O)[O-] (optimized conformer: 164.56609762310185 kcal/mol)

>  <smiles>  (92) 
C=c1c(=Cc2[nH]c(=O)[nH]c2O)cc(C)n1-c1ccccc1C(=O)NCCn1nccc1C(=O)O

>  <score_type>  (92) 
oracle

>  <origin>  (92) 
adg

>  <m_score__min__energy>  (92) 
-17.329999999999998

>  <m_primary>  (92) 
energy

$$$$
92:0
     RDKit          3D

 61 64  0  0  0  0  0  0  0  0999 V2000
   59.5860   31.0240   47.3790 C   0  0  0  0  0  0  0  0  0  0  0  0
   58.8450   32.0200   46.5190 C   0  0  0  0  0  0  0  0  0  0  0  0
   57.8140   31.5660   45.6640 C   0  0  0  0  0  0  0  0  0  0  0  0
   57.5000   30.1650   45.6260 N   0  0  0  0  0  0  0  0  0  0  0  0
   56.3160   29.4110   44.6100 S   0  0  0  0  0  0  0  0  0  0  0  0
   57.0170   29.0290   43.0190 C   0  0  0  0  0  0  0  0  0  0  0  0
   55.8660   28.1330   45.2620 O   0  0  0  0  0  0  0  0  0  0  0  0
   55.1260   30.3170   44.4540 O   0  0  0  0  0  0  0  0  0  0  0  0
   57.1200   32.4910   44.8630 C   0  0  0  0  0  0  0  0  0  0  0  0
   57.4330   33.8480   44.9170 C   0  0  0  0  0  0  0  0  0  0  0  0
   58.4300   34.3030   45.7760 C   0  0  0  0  0  0  0  0  0  0  0  0
   59.1310   33.4050   46.5920 C   0  0  0  0  0  0  0  0  0  0  0  0
   60.1090   33.9190   47.5150 N   0  0  0  0  0  0  0  0  0  0  0  0
   59.6330   34.5660   48.7460 C   0  0  0  0  0  0  0  0  0  0  0  0
   59.6160   33.5870   49.8800 C   0  0  0  0  0  0  0  0  0  0  0  0
   58.7340   32.5370   50.0450 C   0  0  0  0  0  0  0  0  0  0  0  0
   59.1460   31.8700   51.1820 C   0  0  0  0  0  0  0  0  0  0  0  0
   60.2360   32.4660   51.7010 N   0  0  0  0  0  0  0  0  0  0  0  0
   60.5320   33.5130   50.9110 C   0  0  0  0  0  0  0  0  0  0  0  0
   61.4780   34.1650   47.0350 C   0  0  0  0  0  0  0  0  0  0  0  0
   62.4940   33.5430   47.9570 C   0  0  0  0  0  0  0  0  0  0  0  0
   63.0390   34.2880   49.0110 C   0  0  0  0  0  0  0  0  0  0  0  0
   63.9490   33.7050   49.8950 C   0  0  0  0  0  0  0  0  0  0  0  0
   64.3380   32.3530   49.7600 C   0  0  0  0  0  0  0  0  0  0  0  0
   65.2780   31.7370   50.6950 N   0  0  0  0  0  0  0  0  0  0  0  0
   66.6890   32.1790   50.7020 C   0  0  0  0  0  0  0  0  0  0  0  0
   67.5420   31.5000   51.7790 C   0  0  0  0  0  0  0  0  0  0  0  0
   67.1720   30.1530   51.9450 O   0  0  0  0  0  0  0  0  0  0  0  0
   65.8880   30.1130   52.5180 C   0  0  0  0  0  0  0  0  0  0  0  0
   64.8310   30.5980   51.5240 C   0  0  0  0  0  0  0  0  0  0  0  0
   63.7900   31.6200   48.6800 C   0  0  0  0  0  0  0  0  0  0  0  0
   62.8830   32.2070   47.7920 C   0  0  0  0  0  0  0  0  0  0  0  0
   62.3870   31.4670   46.7650 F   0  0  0  0  0  0  0  0  0  0  0  0
   59.4134   31.2560   48.4403 H   0  0  0  0  0  0  0  0  0  0  0  0
   59.2216   30.0092   47.1616 H   0  0  0  0  0  0  0  0  0  0  0  0
   60.6628   31.0814   47.1616 H   0  0  0  0  0  0  0  0  0  0  0  0
   57.9753   28.5068   43.1564 H   0  0  0  0  0  0  0  0  0  0  0  0
   56.3247   28.3834   42.4587 H   0  0  0  0  0  0  0  0  0  0  0  0
   57.1842   29.9607   42.4587 H   0  0  0  0  0  0  0  0  0  0  0  0
   56.3244   32.1407   44.1890 H   0  0  0  0  0  0  0  0  0  0  0  0
   56.8909   34.5617   44.2792 H   0  0  0  0  0  0  0  0  0  0  0  0
   58.6693   35.3760   45.8144 H   0  0  0  0  0  0  0  0  0  0  0  0
   60.3031   35.4010   48.9986 H   0  0  0  0  0  0  0  0  0  0  0  0
   58.6107   34.9370   48.5807 H   0  0  0  0  0  0  0  0  0  0  0  0
   57.8781   32.2837   49.4021 H   0  0  0  0  0  0  0  0  0  0  0  0
   58.6546   30.9804   51.6028 H   0  0  0  0  0  0  0  0  0  0  0  0
   60.7610   32.1640   52.5510 H   0  0  0  0  0  0  0  0  0  0  0  0
   61.3741   34.2043   51.0625 H   0  0  0  0  0  0  0  0  0  0  0  0
   61.5904   33.7307   46.0306 H   0  0  0  0  0  0  0  0  0  0  0  0
   61.6493   35.2512   47.0069 H   0  0  0  0  0  0  0  0  0  0  0  0
   62.7477   35.3405   49.1431 H   0  0  0  0  0  0  0  0  0  0  0  0
   64.3710   34.3092   50.7116 H   0  0  0  0  0  0  0  0  0  0  0  0
   67.1281   31.9547   49.7187 H   0  0  0  0  0  0  0  0  0  0  0  0
   66.6873   33.2561   50.9251 H   0  0  0  0  0  0  0  0  0  0  0  0
   68.6001   31.5477   51.4820 H   0  0  0  0  0  0  0  0  0  0  0  0
   67.3834   32.0254   52.7323 H   0  0  0  0  0  0  0  0  0  0  0  0
   65.6573   29.0787   52.8129 H   0  0  0  0  0  0  0  0  0  0  0  0
   65.8744   30.7751   53.3963 H   0  0  0  0  0  0  0  0  0  0  0  0
   64.5716   29.7628   50.8568 H   0  0  0  0  0  0  0  0  0  0  0  0
   63.9694   30.9457   52.1128 H   0  0  0  0  0  0  0  0  0  0  0  0
   64.0830   30.5695   48.5366 H   0  0  0  0  0  0  0  0  0  0  0  0
  1  2  1  0
  2  3  2  0
  3  4  1  0
  4  5  1  0
  5  6  1  0
  5  7  2  0
  5  8  2  0
  3  9  1  0
  9 10  2  0
 10 11  1  0
 11 12  2  0
 12 13  1  0
 13 14  1  0
 14 15  1  0
 15 16  1  0
 16 17  2  0
 17 18  1  0
 18 19  1  0
 13 20  1  0
 20 21  1  0
 21 22  2  0
 22 23  1  0
 23 24  2  0
 24 25  1  0
 25 26  1  0
 26 27  1  0
 27 28  1  0
 28 29  1  0
 29 30  1  0
 24 31  1  0
 31 32  2  0
 32 33  1  0
 12  2  1  0
 19 15  2  0
 32 21  1  0
 30 25  1  0
  1 34  1  0
  1 35  1  0
  1 36  1  0
  6 37  1  0
  6 38  1  0
  6 39  1  0
  9 40  1  0
 10 41  1  0
 11 42  1  0
 14 43  1  0
 14 44  1  0
 16 45  1  0
 17 46  1  0
 18 47  1  0
 19 48  1  0
 20 49  1  0
 20 50  1  0
 22 51  1  0
 23 52  1  0
 26 53  1  0
 26 54  1  0
 27 55  1  0
 27 56  1  0
 29 57  1  0
 29 58  1  0
 30 59  1  0
 30 60  1  0
 31 61  1  0
M  CHG  1   4  -1
M  END
>  <UniqueID>  (93) 
87

>  <SMILES>  (93) 
Cc1c([N-]S(C)(=O)=O)cccc1N(Cc1cc[nH]c1)Cc1ccc(N2CCOCC2)cc1F

>  <Energy>  (93) 
99.09922463373002

>  <Genealogy>  (93) 
Cc1c([N-]S(C)(=O)=O)cccc1N(Cc1cc[nH]c1)Cc1ccc(N2CCOCC2)cc1F (protonated)
Cc1c([N-]S(C)(=O)=O)cccc1N(Cc1cc[nH]c1)Cc1ccc(N2CCOCC2)cc1F (3D coordinates assigned)
Cc1c([N-]S(C)(=O)=O)cccc1N(Cc1cc[nH]c1)Cc1ccc(N2CCOCC2)cc1F (nonaromatic ring conformer: 99.09922463373002 kcal/mol)

>  <smiles>  (93) 
Cc1c(NS(C)(=O)=O)cccc1N(Cc1cc[nH]c1)Cc1ccc(N2CCOCC2)cc1F

>  <score_type>  (93) 
oracle

>  <origin>  (93) 
adg

>  <m_score__min__energy>  (93) 
-10.66

>  <m_primary>  (93) 
energy

$$$$
