0:0
     RDKit          3D

 45 47  0  0  0  0  0  0  0  0999 V2000
   55.1360   28.0070   45.9160 H   0  0  0  0  0  0  0  0  0  0  0  0
   55.9440   27.4530   45.6610 O   0  0  0  0  0  0  0  0  0  0  0  0
   55.9720   26.0620   45.7620 C   0  0  0  0  0  0  0  0  0  0  0  0
   54.8030   25.4050   45.9840 N   0  0  0  0  0  0  0  0  0  0  0  0
   54.7550   24.0510   46.0510 C   0  0  0  0  0  0  0  0  0  0  0  0
   53.3310   23.2980   46.3170 S   0  0  0  0  0  0  0  0  0  0  0  0
   55.8870   23.3210   45.8840 N   0  0  0  0  0  0  0  0  0  0  0  0
   57.0840   23.9230   45.6660 C   0  0  0  0  0  0  0  0  0  0  0  0
   58.1140   23.2130   45.5190 O   0  0  0  0  0  0  0  0  0  0  0  0
   57.1670   25.3250   45.6200 C   0  0  0  0  0  0  0  0  0  0  0  0
   58.4750   25.9790   45.3950 C   0  0  0  0  0  0  0  0  0  0  0  0
   59.0939   25.6380   44.5520 H   0  0  0  0  0  0  0  0  0  0  0  0
   58.9430   26.9730   46.1750 C   0  0  0  0  0  0  0  0  0  0  0  0
   58.9800   26.9670   47.5600 C   0  0  0  0  0  0  0  0  0  0  0  0
   58.6226   26.1656   48.2234 H   0  0  0  0  0  0  0  0  0  0  0  0
   59.5520   28.1610   47.9450 C   0  0  0  0  0  0  0  0  0  0  0  0
   59.8380   28.5330   49.3700 C   0  0  0  0  0  0  0  0  0  0  0  0
   59.3075   27.8430   50.0426 H   0  0  0  0  0  0  0  0  0  0  0  0
   60.9201   28.4670   49.5561 H   0  0  0  0  0  0  0  0  0  0  0  0
   59.4961   29.5618   49.5561 H   0  0  0  0  0  0  0  0  0  0  0  0
   59.8810   28.9060   46.8620 N   0  0  0  0  0  0  0  0  0  0  0  0
   60.5640   30.2100   46.9040 C   0  0  0  0  0  0  0  0  0  0  0  0
   60.9670   30.3743   47.9143 H   0  0  0  0  0  0  0  0  0  0  0  0
   61.3782   30.2069   46.1644 H   0  0  0  0  0  0  0  0  0  0  0  0
   59.6060   31.3240   46.5660 C   0  0  0  0  0  0  0  0  0  0  0  0
   59.8660   32.6350   46.9940 C   0  0  0  0  0  0  0  0  0  0  0  0
   60.7829   32.8552   47.5604 H   0  0  0  0  0  0  0  0  0  0  0  0
   58.9640   33.6610   46.7030 C   0  0  0  0  0  0  0  0  0  0  0  0
   59.1707   34.6857   47.0455 H   0  0  0  0  0  0  0  0  0  0  0  0
   57.8010   33.3910   45.9790 C   0  0  0  0  0  0  0  0  0  0  0  0
   57.0876   34.2007   45.7656 H   0  0  0  0  0  0  0  0  0  0  0  0
   57.5390   32.0880   45.5220 C   0  0  0  0  0  0  0  0  0  0  0  0
   56.3460   31.7610   44.7940 N   0  0  0  0  0  0  0  0  0  0  0  0
   55.9860   30.4730   44.2780 C   0  0  0  0  0  0  0  0  0  0  0  0
   55.1540   29.7450   44.8810 O   0  0  0  0  0  0  0  0  0  0  0  0
   56.5180   30.0410   42.9530 C   0  0  0  0  0  0  0  0  0  0  0  0
   57.3639   29.3541   43.1038 H   0  0  0  0  0  0  0  0  0  0  0  0
   55.7251   29.5279   42.3891 H   0  0  0  0  0  0  0  0  0  0  0  0
   56.8574   30.9224   42.3891 H   0  0  0  0  0  0  0  0  0  0  0  0
   58.4370   31.0580   45.8350 C   0  0  0  0  0  0  0  0  0  0  0  0
   58.2236   30.0307   45.5045 H   0  0  0  0  0  0  0  0  0  0  0  0
   59.5140   28.1830   45.7680 C   0  0  0  0  0  0  0  0  0  0  0  0
   59.6810   28.5820   44.4960 C   0  0  0  0  0  0  0  0  0  0  0  0
   60.1432   29.5569   44.2815 H   0  0  0  0  0  0  0  0  0  0  0  0
   59.3556   27.9338   43.6690 H   0  0  0  0  0  0  0  0  0  0  0  0
  1  2  1  0
  2  3  1  0
  3  4  1  0
  4  5  1  0
  5  6  2  0
  5  7  1  0
  7  8  1  0
  8  9  2  0
  8 10  1  0
 10 11  1  0
 11 12  1  0
 11 13  2  0
 13 14  1  0
 14 15  1  0
 14 16  2  0
 16 17  1  0
 17 18  1  0
 17 19  1  0
 17 20  1  0
 16 21  1  0
 21 22  1  0
 22 23  1  0
 22 24  1  0
 22 25  1  0
 25 26  2  0
 26 27  1  0
 26 28  1  0
 28 29  1  0
 28 30  2  0
 30 31  1  0
 30 32  1  0
 32 33  1  0
 33 34  1  0
 34 35  2  0
 34 36  1  0
 36 37  1  0
 36 38  1  0
 36 39  1  0
 32 40  2  0
 40 41  1  0
 21 42  1  0
 42 43  2  0
 43 44  1  0
 43 45  1  0
 10  3  2  0
 42 13  1  0
 40 25  1  0
M  CHG  3   4  -1   7  -1  33  -1
M  END
>  <UniqueID>  (1) 
1

>  <SMILES>  (1) 
C=c1/c(=C/c2c(O)[n-]c(=S)[n-]c2=O)cc(C)n1Cc1cccc([N-]C(C)=O)c1

>  <Energy>  (1) 
87.41043441006288

>  <Genealogy>  (1) 
C=c1c(=Cc2c(O)[n-]c(=S)[n-]c2=O)cc(C)n1Cc1cccc([N-]C(C)=O)c1 (protonated)
C=c1/c(=C/c2c(O)[n-]c(=S)[n-]c2=O)cc(C)n1Cc1cccc([N-]C(C)=O)c1 (cis-trans isomerization)
C=c1/c(=C/c2c(O)[n-]c(=S)[n-]c2=O)cc(C)n1Cc1cccc([N-]C(C)=O)c1 (3D coordinates assigned)
C=c1/c(=C/c2c(O)[n-]c(=S)[n-]c2=O)cc(C)n1Cc1cccc([N-]C(C)=O)c1 (optimized conformer: 87.41043441006288 kcal/mol)

>  <smiles>  (1) 
C=c1c(=Cc2c(O)[nH]c(=S)[nH]c2=O)cc(C)n1Cc1cccc(NC(C)=O)c1

>  <score_type>  (1) 
oracle

>  <origin>  (1) 
adg

>  <m_score__min__energy>  (1) 
-14.859999999999999

>  <m_primary>  (1) 
energy

$$$$
1:0
     RDKit          3D

 44 46  0  0  0  0  0  0  0  0999 V2000
   58.9140   29.3490   43.7280 H   0  0  0  0  0  0  0  0  0  0  0  0
   59.6080   28.9600   44.3560 O   0  0  0  0  0  0  0  0  0  0  0  0
   59.2850   27.9550   45.2680 C   0  0  0  0  0  0  0  0  0  0  0  0
   60.2710   27.4300   46.1110 C   0  0  0  0  0  0  0  0  0  0  0  0
   61.2972   27.8238   46.0667 H   0  0  0  0  0  0  0  0  0  0  0  0
   59.9560   26.4090   47.0070 C   0  0  0  0  0  0  0  0  0  0  0  0
   60.7395   25.9826   47.6506 H   0  0  0  0  0  0  0  0  0  0  0  0
   58.6490   25.9270   47.0890 C   0  0  0  0  0  0  0  0  0  0  0  0
   58.4083   25.1246   47.8019 H   0  0  0  0  0  0  0  0  0  0  0  0
   57.6360   26.4570   46.2690 C   0  0  0  0  0  0  0  0  0  0  0  0
   56.2420   25.9870   46.4610 C   0  0  0  0  0  0  0  0  0  0  0  0
   56.0110   24.9200   47.0880 O   0  0  0  0  0  0  0  0  0  0  0  0
   55.1690   26.7370   45.9930 O   0  0  0  0  0  0  0  0  0  0  0  0
   57.9720   27.4590   45.3230 C   0  0  0  0  0  0  0  0  0  0  0  0
   57.0200   27.9540   44.3700 N   0  0  0  0  0  0  0  0  0  0  0  0
   56.4390   29.2610   44.4520 C   0  0  0  0  0  0  0  0  0  0  0  0
   55.4860   29.4770   45.2480 O   0  0  0  0  0  0  0  0  0  0  0  0
   56.9610   30.3520   43.6050 C   0  0  0  0  0  0  0  0  0  0  0  0
   56.5570   30.4570   42.4170 O   0  0  0  0  0  0  0  0  0  0  0  0
   57.9610   31.2640   44.0820 N   0  0  0  0  0  0  0  0  0  0  0  0
   58.1210   31.6280   45.4590 C   0  0  0  0  0  0  0  0  0  0  0  0
   58.6630   30.7220   46.3840 C   0  0  0  0  0  0  0  0  0  0  0  0
   58.8731   29.6863   46.0789 H   0  0  0  0  0  0  0  0  0  0  0  0
   58.9360   31.1320   47.6900 C   0  0  0  0  0  0  0  0  0  0  0  0
   59.3529   30.4167   48.4142 H   0  0  0  0  0  0  0  0  0  0  0  0
   58.6800   32.4530   48.0800 C   0  0  0  0  0  0  0  0  0  0  0  0
   59.2420   33.0510   49.6370 S   0  0  0  0  0  0  0  0  0  0  0  0
   59.4440   34.5400   49.6010 O   0  0  0  0  0  0  0  0  0  0  0  0
   60.5500   32.3920   49.9710 O   0  0  0  0  0  0  0  0  0  0  0  0
   58.0730   32.6600   50.8600 N   0  0  0  0  0  0  0  0  0  0  0  0
   57.9290   31.4840   51.3950 C   0  0  0  0  0  0  0  0  0  0  0  0
   56.7800   30.7880   51.3250 N   0  0  0  0  0  0  0  0  0  0  0  0
   56.9750   29.6840   51.9870 O   0  0  0  0  0  0  0  0  0  0  0  0
   58.1940   29.6320   52.4750 C   0  0  0  0  0  0  0  0  0  0  0  0
   58.7210   28.5230   53.3210 C   0  0  0  0  0  0  0  0  0  0  0  0
   58.5980   28.7818   54.3830 H   0  0  0  0  0  0  0  0  0  0  0  0
   58.1657   27.5991   53.1020 H   0  0  0  0  0  0  0  0  0  0  0  0
   59.7881   28.3700   53.1020 H   0  0  0  0  0  0  0  0  0  0  0  0
   58.8720   30.7770   52.1200 C   0  0  0  0  0  0  0  0  0  0  0  0
   59.9087   31.0600   52.3551 H   0  0  0  0  0  0  0  0  0  0  0  0
   58.0730   33.3370   47.1770 C   0  0  0  0  0  0  0  0  0  0  0  0
   57.8264   34.3612   47.4937 H   0  0  0  0  0  0  0  0  0  0  0  0
   57.7800   32.9200   45.8740 C   0  0  0  0  0  0  0  0  0  0  0  0
   57.2814   33.6081   45.1756 H   0  0  0  0  0  0  0  0  0  0  0  0
  1  2  1  0
  2  3  1  0
  3  4  2  0
  4  5  1  0
  4  6  1  0
  6  7  1  0
  6  8  2  0
  8  9  1  0
  8 10  1  0
 10 11  1  0
 11 12  2  0
 11 13  1  0
 10 14  2  0
 14 15  1  0
 15 16  1  0
 16 17  2  0
 16 18  1  0
 18 19  2  0
 18 20  1  0
 20 21  1  0
 21 22  2  0
 22 23  1  0
 22 24  1  0
 24 25  1  0
 24 26  2  0
 26 27  1  0
 27 28  2  0
 27 29  2  0
 27 30  1  0
 30 31  2  0
 31 32  1  0
 32 33  1  0
 33 34  1  0
 34 35  1  0
 35 36  1  0
 35 37  1  0
 35 38  1  0
 34 39  2  0
 39 40  1  0
 26 41  1  0
 41 42  1  0
 41 43  2  0
 43 44  1  0
 14  3  1  0
 43 21  1  0
 39 31  1  0
M  CHG  4  13  -1  15  -1  20  -1  32  -1
M  END
>  <UniqueID>  (2) 
2

>  <SMILES>  (2) 
Cc1c/c(=N\S(=O)(=O)c2ccc([N-]C(=O)C(=O)[N-]c3c(O)cccc3C(=O)[O-])cc2)[n-]o1

>  <Energy>  (2) 
94.09236181748908

>  <Genealogy>  (2) 
Cc1cc(=NS(=O)(=O)c2ccc([N-]C(=O)C(=O)[N-]c3c(O)cccc3C(=O)[O-])cc2)[n-]o1 (protonated)
Cc1c/c(=N\S(=O)(=O)c2ccc([N-]C(=O)C(=O)[N-]c3c(O)cccc3C(=O)[O-])cc2)[n-]o1 (cis-trans isomerization)
Cc1c/c(=N\S(=O)(=O)c2ccc([N-]C(=O)C(=O)[N-]c3c(O)cccc3C(=O)[O-])cc2)[n-]o1 (3D coordinates assigned)
Cc1c/c(=N\S(=O)(=O)c2ccc([N-]C(=O)C(=O)[N-]c3c(O)cccc3C(=O)[O-])cc2)[n-]o1 (optimized conformer: 94.09236181748908 kcal/mol)

>  <smiles>  (2) 
Cc1cc(=NS(=O)(=O)c2ccc(NC(=O)C(=O)Nc3c(O)cccc3C(=O)O)cc2)[nH]o1

>  <score_type>  (2) 
oracle

>  <origin>  (2) 
adg

>  <m_score__min__energy>  (2) 
-15.279999999999999

>  <m_primary>  (2) 
energy

$$$$
2:0
     RDKit          3D

 42 45  0  0  1  0  0  0  0  0999 V2000
   63.1760   32.7300   50.6610 C   0  0  0  0  0  0  0  0  0  0  0  0
   63.2200   32.8980   49.1730 C   0  0  0  0  0  0  0  0  0  0  0  0
   64.1450   32.3300   48.4040 N   0  0  0  0  0  0  0  0  0  0  0  0
   63.9110   32.6660   47.1580 N   0  0  0  0  0  0  0  0  0  0  0  0
   62.7980   33.4770   47.1150 C   0  0  0  0  0  0  0  0  0  0  0  0
   62.4030   33.8960   46.0040 O   0  0  0  0  0  0  0  0  0  0  0  0
   62.3260   33.6530   48.3910 C   0  0  0  0  0  0  0  0  0  0  0  0
   61.1670   34.2580   48.9650 C   0  0  0  0  0  0  0  0  0  0  0  0
   59.9350   33.8430   48.9790 C   0  0  0  0  0  0  0  0  0  0  0  0
   59.3160   32.9670   48.0050 C   0  0  0  0  0  0  0  0  0  0  0  0
   58.9200   33.3260   46.7890 N   0  0  0  0  0  0  0  0  0  0  0  0
   58.3820   32.5400   45.8600 C   0  0  0  0  0  0  0  0  0  0  0  0
   57.9930   32.9630   44.6250 C   0  0  0  0  0  0  0  0  0  0  0  0
   57.4340   32.1180   43.6750 C   0  0  0  0  0  0  0  0  0  0  0  0
   57.2880   30.7930   44.0580 C   0  0  0  0  0  0  0  0  0  0  0  0
   56.5820   29.6920   42.8800 Cl  0  0  0  0  0  0  0  0  0  0  0  0
   57.6620   30.3180   45.2860 C   0  0  0  0  0  0  0  0  0  0  0  0
   58.2130   31.2040   46.1890 C   0  0  0  0  0  0  0  0  0  0  0  0
   58.6240   30.8380   47.4490 C   0  0  0  0  0  0  0  0  0  0  0  0
   58.4770   29.6300   47.7630 O   0  0  0  0  0  0  0  0  0  0  0  0
   59.1630   31.6800   48.3490 N   0  0  0  0  0  0  0  0  0  0  0  0
   59.5420   31.1190   49.6240 C   0  0  0  0  0  0  0  0  0  0  0  0
   58.4810   31.1240   50.6420 C   0  0  0  0  0  0  0  0  0  0  0  0
   58.0580   32.2250   51.3580 C   0  0  0  0  0  0  0  0  0  0  0  0
   57.0370   31.8260   52.2260 C   0  0  0  0  0  0  0  0  0  0  0  0
   56.8950   30.4760   51.9810 C   0  0  0  0  0  0  0  0  0  0  0  0
   57.7470   30.0970   51.0570 O   0  0  0  0  0  0  0  0  0  0  0  0
   63.4262   33.6854   51.1454 H   0  0  0  0  0  0  0  0  0  0  0  0
   62.1659   32.4182   50.9651 H   0  0  0  0  0  0  0  0  0  0  0  0
   63.9036   31.9631   50.9651 H   0  0  0  0  0  0  0  0  0  0  0  0
   64.9250   31.7220   48.7330 H   0  0  0  0  0  0  0  0  0  0  0  0
   64.4960   32.3470   46.3630 H   0  0  0  0  0  0  0  0  0  0  0  0
   61.3428   35.2188   49.4710 H   0  0  0  0  0  0  0  0  0  0  0  0
   59.3024   34.1899   49.8093 H   0  0  0  0  0  0  0  0  0  0  0  0
   58.1280   34.0240   44.3679 H   0  0  0  0  0  0  0  0  0  0  0  0
   57.1265   32.4769   42.6817 H   0  0  0  0  0  0  0  0  0  0  0  0
   57.5269   29.2578   45.5462 H   0  0  0  0  0  0  0  0  0  0  0  0
   59.8533   30.0768   49.4599 H   0  0  0  0  0  0  0  0  0  0  0  0
   60.3479   31.7575   50.0149 H   0  0  0  0  0  0  0  0  0  0  0  0
   58.4571   33.2455   51.2620 H   0  0  0  0  0  0  0  0  0  0  0  0
   56.4758   32.4463   52.9403 H   0  0  0  0  0  0  0  0  0  0  0  0
   56.1746   29.8150   52.4851 H   0  0  0  0  0  0  0  0  0  0  0  0
  1  2  1  0
  2  3  1  0
  3  4  1  0
  4  5  1  0
  5  6  2  0
  5  7  1  0
  7  8  1  0
  8  9  2  0
  9 10  1  0
 10 11  2  0
 11 12  1  0
 12 13  2  0
 13 14  1  0
 14 15  2  0
 15 16  1  0
 15 17  1  0
 17 18  2  0
 18 19  1  0
 19 20  2  0
 19 21  1  0
 21 22  1  0
 22 23  1  0
 23 24  2  0
 24 25  1  0
 25 26  2  0
 26 27  1  0
  7  2  2  0
 21 10  1  0
 27 23  1  0
 18 12  1  0
  1 28  1  0
  1 29  1  0
  1 30  1  0
  3 31  1  0
  4 32  1  0
  8 33  1  0
  9 34  1  0
 13 35  1  0
 14 36  1  0
 17 37  1  0
 22 38  1  0
 22 39  1  0
 24 40  1  0
 25 41  1  0
 26 42  1  0
M  END
>  <smiles>  (3) 
Cc1[nH][nH]c(=O)c1C=Cc1nc2ccc(Cl)cc2c(=O)n1Cc1ccco1

>  <score_type>  (3) 
oracle

>  <origin>  (3) 
adg

>  <m_score__min__energy>  (3) 
-8.4299999999999997

>  <m_primary>  (3) 
energy

$$$$
3:0
     RDKit          3D

 42 44  0  0  0  0  0  0  0  0999 V2000
   55.6520   29.5250   45.2370 O   0  0  0  0  0  0  0  0  0  0  0  0
   56.7670   29.8890   44.7730 C   0  0  0  0  0  0  0  0  0  0  0  0
   56.9410   31.2210   44.2760 N   0  0  0  0  0  0  0  0  0  0  0  0
   57.6340   32.2860   44.9410 C   0  0  0  0  0  0  0  0  0  0  0  0
   57.4020   32.5910   46.2960 C   0  0  0  0  0  0  0  0  0  0  0  0
   58.0690   33.6620   46.8990 C   0  0  0  0  0  0  0  0  0  0  0  0
   58.9590   34.4460   46.1580 C   0  0  0  0  0  0  0  0  0  0  0  0
   59.6180   35.5080   46.7740 O   0  0  0  0  0  0  0  0  0  0  0  0
   59.1760   34.1580   44.8040 C   0  0  0  0  0  0  0  0  0  0  0  0
   58.5090   33.0880   44.1980 C   0  0  0  0  0  0  0  0  0  0  0  0
   57.9050   28.9380   44.7230 C   0  0  0  0  0  0  0  0  0  0  0  0
   57.7810   27.6810   44.2500 C   0  0  0  0  0  0  0  0  0  0  0  0
   57.7910   26.4530   45.0740 C   0  0  0  0  0  0  0  0  0  0  0  0
   57.7350   25.1750   44.4860 C   0  0  0  0  0  0  0  0  0  0  0  0
   57.7040   24.0300   45.2890 C   0  0  0  0  0  0  0  0  0  0  0  0
   57.7080   24.1510   46.6820 C   0  0  0  0  0  0  0  0  0  0  0  0
   57.6790   23.0130   47.4780 O   0  0  0  0  0  0  0  0  0  0  0  0
   57.7360   25.4180   47.2730 C   0  0  0  0  0  0  0  0  0  0  0  0
   57.7660   26.5640   46.4720 C   0  0  0  0  0  0  0  0  0  0  0  0
   59.2390   29.4010   45.1940 C   0  0  0  0  0  0  0  0  0  0  0  0
   60.2320   29.2960   44.4220 O   0  0  0  0  0  0  0  0  0  0  0  0
   59.4440   29.9650   46.5510 C   0  0  0  0  0  0  0  0  0  0  0  0
   58.6820   29.5160   47.6460 C   0  0  0  0  0  0  0  0  0  0  0  0
   58.8990   30.0460   48.9220 C   0  0  0  0  0  0  0  0  0  0  0  0
   59.8640   31.0360   49.1150 C   0  0  0  0  0  0  0  0  0  0  0  0
   60.6110   31.5040   48.0320 C   0  0  0  0  0  0  0  0  0  0  0  0
   60.4000   30.9770   46.7540 C   0  0  0  0  0  0  0  0  0  0  0  0
   56.6945   31.9854   46.8815 H   0  0  0  0  0  0  0  0  0  0  0  0
   57.8929   33.8888   47.9609 H   0  0  0  0  0  0  0  0  0  0  0  0
   59.1060   36.2820   47.1820 H   0  0  0  0  0  0  0  0  0  0  0  0
   59.8722   34.7745   44.2164 H   0  0  0  0  0  0  0  0  0  0  0  0
   58.6729   32.8753   43.1313 H   0  0  0  0  0  0  0  0  0  0  0  0
   57.6628   27.5594   43.1631 H   0  0  0  0  0  0  0  0  0  0  0  0
   57.7155   25.0765   43.3906 H   0  0  0  0  0  0  0  0  0  0  0  0
   57.6764   23.0334   44.8241 H   0  0  0  0  0  0  0  0  0  0  0  0
   57.7344   25.5134   48.3689 H   0  0  0  0  0  0  0  0  0  0  0  0
   57.7700   27.5588   46.9414 H   0  0  0  0  0  0  0  0  0  0  0  0
   57.9121   28.7445   47.4974 H   0  0  0  0  0  0  0  0  0  0  0  0
   58.3080   29.6819   49.7753 H   0  0  0  0  0  0  0  0  0  0  0  0
   60.0360   31.4476   50.1205 H   0  0  0  0  0  0  0  0  0  0  0  0
   61.3668   32.2886   48.1844 H   0  0  0  0  0  0  0  0  0  0  0  0
   60.9847   31.3558   45.9028 H   0  0  0  0  0  0  0  0  0  0  0  0
  1  2  2  0
  2  3  1  0
  3  4  1  0
  4  5  2  0
  5  6  1  0
  6  7  2  0
  7  8  1  0
  7  9  1  0
  9 10  2  0
  2 11  1  0
 11 12  2  3
 12 13  1  0
 13 14  2  0
 14 15  1  0
 15 16  2  0
 16 17  1  0
 16 18  1  0
 18 19  2  0
 11 20  1  0
 20 21  2  0
 20 22  1  0
 22 23  2  0
 23 24  1  0
 24 25  2  0
 25 26  1  0
 26 27  2  0
 10  4  1  0
 19 13  1  0
 27 22  1  0
  5 28  1  0
  6 29  1  0
  8 30  1  0
  9 31  1  0
 10 32  1  0
 12 33  1  0
 14 34  1  0
 15 35  1  0
 18 36  1  0
 19 37  1  0
 23 38  1  0
 24 39  1  0
 25 40  1  0
 26 41  1  0
 27 42  1  0
M  CHG  2   3  -1  17  -1
M  END
>  <UniqueID>  (4) 
3

>  <SMILES>  (4) 
O=C([N-]c1ccc(O)cc1)C(=Cc1ccc([O-])cc1)C(=O)c1ccccc1

>  <Energy>  (4) 
61.9827517216142

>  <Genealogy>  (4) 
O=C([N-]c1ccc(O)cc1)C(=Cc1ccc([O-])cc1)C(=O)c1ccccc1 (protonated)
O=C([N-]c1ccc(O)cc1)C(=Cc1ccc([O-])cc1)C(=O)c1ccccc1 (3D coordinates assigned)
O=C([N-]c1ccc(O)cc1)C(=Cc1ccc([O-])cc1)C(=O)c1ccccc1 (optimized conformer: 61.9827517216142 kcal/mol)

>  <smiles>  (4) 
O=C(Nc1ccc(O)cc1)C(=Cc1ccc(O)cc1)C(=O)c1ccccc1

>  <score_type>  (4) 
oracle

>  <origin>  (4) 
adg

>  <m_score__min__energy>  (4) 
-11.51

>  <m_primary>  (4) 
energy

$$$$
4:0
     RDKit          3D

 51 54  0  0  0  0  0  0  0  0999 V2000
   60.5382   28.2716   47.4933 H   0  0  0  0  0  0  0  0  0  0  0  0
   59.8570   27.8120   46.7620 C   0  0  0  0  0  0  0  0  0  0  0  0
   59.9095   26.7310   46.5652 H   0  0  0  0  0  0  0  0  0  0  0  0
   58.9620   28.5700   46.1100 C   0  0  0  0  0  0  0  0  0  0  0  0
   58.0250   28.1490   45.1520 C   0  0  0  0  0  0  0  0  0  0  0  0
   57.6380   26.9150   44.7760 C   0  0  0  0  0  0  0  0  0  0  0  0
   57.7019   26.6731   43.7048 H   0  0  0  0  0  0  0  0  0  0  0  0
   57.1370   25.8620   45.6740 C   0  0  0  0  0  0  0  0  0  0  0  0
   57.8970   24.8880   46.2130 N   0  0  0  0  0  0  0  0  0  0  0  0
   57.0540   24.2740   47.0690 C   0  0  0  0  0  0  0  0  0  0  0  0
   57.3980   23.2840   47.7660 O   0  0  0  0  0  0  0  0  0  0  0  0
   55.8170   24.8130   47.1330 N   0  0  0  0  0  0  0  0  0  0  0  0
   55.8930   25.8260   46.2540 C   0  0  0  0  0  0  0  0  0  0  0  0
   54.8500   26.7060   45.9980 O   0  0  0  0  0  0  0  0  0  0  0  0
   57.4780   29.3020   44.6120 C   0  0  0  0  0  0  0  0  0  0  0  0
   56.7375   29.3582   43.8005 H   0  0  0  0  0  0  0  0  0  0  0  0
   58.0400   30.3660   45.2870 C   0  0  0  0  0  0  0  0  0  0  0  0
   57.7000   31.8070   45.0540 C   0  0  0  0  0  0  0  0  0  0  0  0
   57.5798   32.3164   46.0215 H   0  0  0  0  0  0  0  0  0  0  0  0
   58.5095   32.2873   44.4848 H   0  0  0  0  0  0  0  0  0  0  0  0
   56.7612   31.8748   44.4848 H   0  0  0  0  0  0  0  0  0  0  0  0
   58.9280   29.9240   46.2030 N   0  0  0  0  0  0  0  0  0  0  0  0
   59.7490   30.7630   47.0310 C   0  0  0  0  0  0  0  0  0  0  0  0
   59.1920   31.4200   48.1350 C   0  0  0  0  0  0  0  0  0  0  0  0
   58.1307   31.2718   48.3832 H   0  0  0  0  0  0  0  0  0  0  0  0
   59.9800   32.2630   48.9220 C   0  0  0  0  0  0  0  0  0  0  0  0
   59.5415   32.7597   49.8001 H   0  0  0  0  0  0  0  0  0  0  0  0
   61.3300   32.4800   48.5980 C   0  0  0  0  0  0  0  0  0  0  0  0
   62.1460   33.4020   49.4200 C   0  0  0  0  0  0  0  0  0  0  0  0
   61.8110   34.6170   49.4830 O   0  0  0  0  0  0  0  0  0  0  0  0
   63.3420   32.9460   50.1000 N   0  0  0  0  0  0  0  0  0  0  0  0
   63.5060   33.5470   50.9420 H   0  0  0  0  0  0  0  0  0  0  0  0
   64.5160   33.0600   49.2110 C   0  0  0  0  0  0  0  0  0  0  0  0
   64.4130   32.3392   48.3865 H   0  0  0  0  0  0  0  0  0  0  0  0
   64.5610   34.0886   48.8237 H   0  0  0  0  0  0  0  0  0  0  0  0
   65.8240   32.7680   49.9740 C   0  0  0  0  0  0  0  0  0  0  0  0
   66.5279   32.2730   49.2889 H   0  0  0  0  0  0  0  0  0  0  0  0
   66.2176   33.7285   50.3379 H   0  0  0  0  0  0  0  0  0  0  0  0
   65.6080   31.8600   51.1990 C   0  0  0  0  0  0  0  0  0  0  0  0
   66.5384   31.3115   51.4074 H   0  0  0  0  0  0  0  0  0  0  0  0
   65.3295   32.4916   52.0555 H   0  0  0  0  0  0  0  0  0  0  0  0
   64.4810   30.8550   50.9520 C   0  0  0  0  0  0  0  0  0  0  0  0
   64.7771   30.1846   50.1317 H   0  0  0  0  0  0  0  0  0  0  0  0
   64.3155   30.2957   51.8846 H   0  0  0  0  0  0  0  0  0  0  0  0
   63.1520   31.5520   50.5720 C   0  0  0  0  0  0  0  0  0  0  0  0
   62.6695   30.9734   49.7705 H   0  0  0  0  0  0  0  0  0  0  0  0
   62.5315   31.5938   51.4793 H   0  0  0  0  0  0  0  0  0  0  0  0
   61.8880   31.8090   47.4960 C   0  0  0  0  0  0  0  0  0  0  0  0
   62.9490   31.9555   47.2454 H   0  0  0  0  0  0  0  0  0  0  0  0
   61.1000   30.9560   46.7170 C   0  0  0  0  0  0  0  0  0  0  0  0
   61.5426   30.4351   45.8551 H   0  0  0  0  0  0  0  0  0  0  0  0
  1  2  1  0
  2  3  1  0
  2  4  2  0
  4  5  1  0
  5  6  2  0
  6  7  1  0
  6  8  1  0
  8  9  1  0
  9 10  1  0
 10 11  2  0
 10 12  1  0
 12 13  1  0
 13 14  1  0
  5 15  1  0
 15 16  1  0
 15 17  2  0
 17 18  1  0
 18 19  1  0
 18 20  1  0
 18 21  1  0
 17 22  1  0
 22 23  1  0
 23 24  2  0
 24 25  1  0
 24 26  1  0
 26 27  1  0
 26 28  2  0
 28 29  1  0
 29 30  2  0
 29 31  1  0
 31 32  1  0
 31 33  1  0
 33 34  1  0
 33 35  1  0
 33 36  1  0
 36 37  1  0
 36 38  1  0
 36 39  1  0
 39 40  1  0
 39 41  1  0
 39 42  1  0
 42 43  1  0
 42 44  1  0
 42 45  1  0
 45 46  1  0
 45 47  1  0
 28 48  1  0
 48 49  1  0
 48 50  2  0
 50 51  1  0
 22  4  1  0
 50 23  1  0
 13  8  2  0
 45 31  1  0
M  CHG  4   9  -1  12  -1  14  -1  31   1
M  END
>  <UniqueID>  (5) 
4

>  <SMILES>  (5) 
C=c1/c(=C\c2[n-]c(=O)[n-]c2[O-])cc(C)n1-c1ccc(C(=O)[NH+]2CCCCC2)cc1

>  <Energy>  (5) 
139.84557812570006

>  <Genealogy>  (5) 
C=c1c(=Cc2[n-]c(=O)[n-]c2[O-])cc(C)n1-c1ccc(C(=O)[NH+]2CCCCC2)cc1 (protonated)
C=c1/c(=C\c2[n-]c(=O)[n-]c2[O-])cc(C)n1-c1ccc(C(=O)[NH+]2CCCCC2)cc1 (cis-trans isomerization)
C=c1/c(=C\c2[n-]c(=O)[n-]c2[O-])cc(C)n1-c1ccc(C(=O)[NH+]2CCCCC2)cc1 (3D coordinates assigned)
C=c1/c(=C\c2[n-]c(=O)[n-]c2[O-])cc(C)n1-c1ccc(C(=O)[NH+]2CCCCC2)cc1 (nonaromatic ring conformer: 139.84557812570006 kcal/mol)

>  <smiles>  (5) 
C=c1c(=Cc2[nH]c(=O)[nH]c2O)cc(C)n1-c1ccc(C(=O)N2CCCCC2)cc1

>  <score_type>  (5) 
oracle

>  <origin>  (5) 
adg

>  <m_score__min__energy>  (5) 
-14.970000000000001

>  <m_primary>  (5) 
energy

$$$$
5:0
     RDKit          3D

 66 69  0  0  0  0  0  0  0  0999 V2000
   57.9770   34.3070   44.8500 C   0  0  0  0  0  0  0  0  0  0  0  0
   57.0740   33.8630   45.7290 C   0  0  0  0  0  0  0  0  0  0  0  0
   57.4720   33.2440   47.0430 C   0  0  0  0  0  0  0  0  0  0  0  0
   58.7650   32.4820   46.8830 C   0  0  0  0  0  0  0  0  0  0  0  0
   59.9760   33.0790   47.2400 C   0  0  0  0  0  0  0  0  0  0  0  0
   61.1730   32.3940   47.0180 C   0  0  0  0  0  0  0  0  0  0  0  0
   62.4950   33.0540   47.2660 C   0  0  0  0  0  0  0  0  0  0  0  0
   62.9900   32.6500   48.6150 C   0  0  0  0  0  0  0  0  0  0  0  0
   63.7150   31.6260   48.7400 O   0  0  0  0  0  0  0  0  0  0  0  0
   62.7300   33.4950   49.7360 N   0  0  0  0  0  0  0  0  0  0  0  0
   61.4720   34.2120   49.8920 C   0  0  0  0  0  0  0  0  0  0  0  0
   60.5830   33.5330   50.9400 C   0  0  0  0  0  0  0  0  0  0  0  0
   60.2000   32.1270   50.5460 C   0  0  0  0  0  0  0  0  0  0  0  0
   58.8500   31.7420   50.5070 C   0  0  0  0  0  0  0  0  0  0  0  0
   58.5190   30.4390   50.1280 C   0  0  0  0  0  0  0  0  0  0  0  0
   59.5260   29.5320   49.8070 C   0  0  0  0  0  0  0  0  0  0  0  0
   60.8610   29.9360   49.8820 C   0  0  0  0  0  0  0  0  0  0  0  0
   61.1690   31.2130   50.2430 N   0  0  0  0  0  0  0  0  0  0  0  0
   61.1380   31.1760   46.4220 N   0  0  0  0  0  0  0  0  0  0  0  0
   59.9920   30.5850   46.0710 N   0  0  0  0  0  0  0  0  0  0  0  0
   60.0720   29.3350   45.3070 C   0  0  0  0  0  0  0  0  0  0  0  0
   59.2660   28.2680   45.9820 C   0  0  0  0  0  0  0  0  0  0  0  0
   58.1030   27.7840   45.4920 N   0  0  0  0  0  0  0  0  0  0  0  0
   57.5800   26.8040   46.2760 C   0  0  0  0  0  0  0  0  0  0  0  0
   56.3140   26.1240   45.9380 C   0  0  0  0  0  0  0  0  0  0  0  0
   55.2220   26.7090   46.1720 O   0  0  0  0  0  0  0  0  0  0  0  0
   56.2990   24.8030   45.3580 N   0  0  0  0  0  0  0  0  0  0  0  0
   57.2970   24.4030   44.3560 C   0  0  0  0  0  0  0  0  0  0  0  0
   56.6510   23.6410   43.1770 C   0  0  0  0  0  0  0  0  0  0  0  0
   55.1600   23.3450   43.3900 C   0  0  0  0  0  0  0  0  0  0  0  0
   54.9090   22.8070   44.7990 C   0  0  0  0  0  0  0  0  0  0  0  0
   55.3670   23.7960   45.8870 C   0  0  0  0  0  0  0  0  0  0  0  0
   58.3490   26.4800   47.3960 C   0  0  0  0  0  0  0  0  0  0  0  0
   59.7120   27.4670   47.3890 S   0  0  0  0  0  0  0  0  0  0  0  0
   58.7910   31.2100   46.2850 C   0  0  0  0  0  0  0  0  0  0  0  0
   57.7140   30.6600   45.9250 O   0  0  0  0  0  0  0  0  0  0  0  0
   57.6469   34.7533   43.9003 H   0  0  0  0  0  0  0  0  0  0  0  0
   59.0505   34.2263   45.0760 H   0  0  0  0  0  0  0  0  0  0  0  0
   56.0051   33.9525   45.4850 H   0  0  0  0  0  0  0  0  0  0  0  0
   57.6067   34.0369   47.7934 H   0  0  0  0  0  0  0  0  0  0  0  0
   56.6824   32.5515   47.3702 H   0  0  0  0  0  0  0  0  0  0  0  0
   59.9872   34.0814   47.6928 H   0  0  0  0  0  0  0  0  0  0  0  0
   63.2159   32.7375   46.4978 H   0  0  0  0  0  0  0  0  0  0  0  0
   62.3805   34.1472   47.2224 H   0  0  0  0  0  0  0  0  0  0  0  0
   61.6823   35.2434   50.2115 H   0  0  0  0  0  0  0  0  0  0  0  0
   60.9435   34.2094   48.9273 H   0  0  0  0  0  0  0  0  0  0  0  0
   61.1277   33.4963   51.8949 H   0  0  0  0  0  0  0  0  0  0  0  0
   59.6574   34.1210   51.0263 H   0  0  0  0  0  0  0  0  0  0  0  0
   58.0603   32.4602   50.7726 H   0  0  0  0  0  0  0  0  0  0  0  0
   57.4644   30.1296   50.0831 H   0  0  0  0  0  0  0  0  0  0  0  0
   59.2725   28.5074   49.4974 H   0  0  0  0  0  0  0  0  0  0  0  0
   61.6648   29.2220   49.6492 H   0  0  0  0  0  0  0  0  0  0  0  0
   62.1790   31.4820   50.2870 H   0  0  0  0  0  0  0  0  0  0  0  0
   59.6786   29.5020   44.2934 H   0  0  0  0  0  0  0  0  0  0  0  0
   61.1223   29.0128   45.2518 H   0  0  0  0  0  0  0  0  0  0  0  0
   57.7937   25.3046   43.9682 H   0  0  0  0  0  0  0  0  0  0  0  0
   58.0205   23.7320   44.8421 H   0  0  0  0  0  0  0  0  0  0  0  0
   56.7598   24.2490   42.2667 H   0  0  0  0  0  0  0  0  0  0  0  0
   57.1667   22.6730   43.0928 H   0  0  0  0  0  0  0  0  0  0  0  0
   54.5847   24.2721   43.2502 H   0  0  0  0  0  0  0  0  0  0  0  0
   54.8439   22.5845   42.6608 H   0  0  0  0  0  0  0  0  0  0  0  0
   53.8319   22.6199   44.9205 H   0  0  0  0  0  0  0  0  0  0  0  0
   55.4908   21.8809   44.9165 H   0  0  0  0  0  0  0  0  0  0  0  0
   54.4838   24.3091   46.2953 H   0  0  0  0  0  0  0  0  0  0  0  0
   55.8908   23.2245   46.6674 H   0  0  0  0  0  0  0  0  0  0  0  0
   58.1068   25.7155   48.1489 H   0  0  0  0  0  0  0  0  0  0  0  0
  1  2  2  0
  2  3  1  0
  3  4  1  0
  4  5  2  0
  5  6  1  0
  6  7  1  0
  7  8  1  0
  8  9  2  0
  8 10  1  0
 10 11  1  0
 11 12  1  0
 12 13  1  0
 13 14  2  0
 14 15  1  0
 15 16  2  0
 16 17  1  0
 17 18  2  0
  6 19  2  0
 19 20  1  0
 20 21  1  0
 21 22  1  0
 22 23  2  0
 23 24  1  0
 24 25  1  0
 25 26  2  0
 25 27  1  0
 27 28  1  0
 28 29  1  0
 29 30  1  0
 30 31  1  0
 31 32  1  0
 24 33  2  0
 33 34  1  0
 20 35  1  0
 35 36  2  0
 35  4  1  0
 18 13  1  0
 34 22  1  0
 32 27  1  0
  1 37  1  0
  1 38  1  0
  2 39  1  0
  3 40  1  0
  3 41  1  0
  5 42  1  0
  7 43  1  0
  7 44  1  0
 11 45  1  0
 11 46  1  0
 12 47  1  0
 12 48  1  0
 14 49  1  0
 15 50  1  0
 16 51  1  0
 17 52  1  0
 18 53  1  0
 21 54  1  0
 21 55  1  0
 28 56  1  0
 28 57  1  0
 29 58  1  0
 29 59  1  0
 30 60  1  0
 30 61  1  0
 31 62  1  0
 31 63  1  0
 32 64  1  0
 32 65  1  0
 33 66  1  0
M  CHG  2  10  -1  18   1
M  END
>  <UniqueID>  (6) 
5

>  <SMILES>  (6) 
C=CCc1cc(CC(=O)[N-]CCc2cccc[nH+]2)nn(Cc2nc(C(=O)N3CCCCC3)cs2)c1=O

>  <Energy>  (6) 
89.79277353844238

>  <Genealogy>  (6) 
C=CCc1cc(CC(=O)[N-]CCc2cccc[nH+]2)nn(Cc2nc(C(=O)N3CCCCC3)cs2)c1=O (protonated)
C=CCc1cc(CC(=O)[N-]CCc2cccc[nH+]2)nn(Cc2nc(C(=O)N3CCCCC3)cs2)c1=O (3D coordinates assigned)
C=CCc1cc(CC(=O)[N-]CCc2cccc[nH+]2)nn(Cc2nc(C(=O)N3CCCCC3)cs2)c1=O (nonaromatic ring conformer: 89.79277353844238 kcal/mol)

>  <smiles>  (6) 
C=CCc1cc(CC(=O)NCCc2ccccn2)nn(Cc2nc(C(=O)N3CCCCC3)cs2)c1=O

>  <score_type>  (6) 
oracle

>  <origin>  (6) 
adg

>  <m_score__min__energy>  (6) 
-9.3699999999999992

>  <m_primary>  (6) 
energy

$$$$
6:0
     RDKit          3D

 46 48  0  0  0  0  0  0  0  0999 V2000
   55.1570   28.9790   44.5780 N   0  0  0  0  0  0  0  0  0  0  0  0
   56.4710   30.0290   44.1740 S   0  0  0  0  0  0  0  0  0  0  0  0
   56.2350   31.3850   44.7760 O   0  0  0  0  0  0  0  0  0  0  0  0
   56.5460   30.1630   42.6800 O   0  0  0  0  0  0  0  0  0  0  0  0
   57.9780   29.3590   44.8050 C   0  0  0  0  0  0  0  0  0  0  0  0
   59.2060   29.8260   44.3320 C   0  0  0  0  0  0  0  0  0  0  0  0
   60.3900   29.2980   44.8350 C   0  0  0  0  0  0  0  0  0  0  0  0
   60.3400   28.3050   45.8100 C   0  0  0  0  0  0  0  0  0  0  0  0
   59.1390   27.8240   46.2600 N   0  0  0  0  0  0  0  0  0  0  0  0
   59.1280   26.7540   47.2710 C   0  0  0  0  0  0  0  0  0  0  0  0
   59.6350   27.2720   48.5800 C   0  0  0  0  0  0  0  0  0  0  0  0
   60.3750   26.5440   49.2950 O   0  0  0  0  0  0  0  0  0  0  0  0
   59.2380   28.5750   49.0240 N   0  0  0  0  0  0  0  0  0  0  0  0
   59.9440   29.7990   48.7700 C   0  0  0  0  0  0  0  0  0  0  0  0
   59.3790   30.8140   47.9710 C   0  0  0  0  0  0  0  0  0  0  0  0
   60.0660   32.0170   47.7480 C   0  0  0  0  0  0  0  0  0  0  0  0
   59.4900   33.0390   46.9080 N   0  0  0  0  0  0  0  0  0  0  0  0
   60.3390   34.1620   46.4740 C   0  0  0  0  0  0  0  0  0  0  0  0
   59.5480   35.2390   45.7320 C   0  0  0  0  0  0  0  0  0  0  0  0
   58.6070   34.6600   44.8590 O   0  0  0  0  0  0  0  0  0  0  0  0
   57.5980   34.0420   45.6270 C   0  0  0  0  0  0  0  0  0  0  0  0
   58.1450   32.8120   46.3610 C   0  0  0  0  0  0  0  0  0  0  0  0
   61.3250   32.2030   48.3420 C   0  0  0  0  0  0  0  0  0  0  0  0
   61.8800   31.2090   49.1540 C   0  0  0  0  0  0  0  0  0  0  0  0
   61.1960   30.0120   49.3780 C   0  0  0  0  0  0  0  0  0  0  0  0
   61.7840   29.0450   50.1990 O   0  0  0  0  0  0  0  0  0  0  0  0
   57.9610   28.3390   45.7770 C   0  0  0  0  0  0  0  0  0  0  0  0
   56.8540   27.8910   46.1900 O   0  0  0  0  0  0  0  0  0  0  0  0
   55.1510   28.8700   45.6140 H   0  0  0  0  0  0  0  0  0  0  0  0
   59.2368   30.6110   43.5620 H   0  0  0  0  0  0  0  0  0  0  0  0
   61.3598   29.6623   44.4651 H   0  0  0  0  0  0  0  0  0  0  0  0
   61.2762   27.9021   46.2238 H   0  0  0  0  0  0  0  0  0  0  0  0
   58.0991   26.3869   47.3999 H   0  0  0  0  0  0  0  0  0  0  0  0
   59.7803   25.9353   46.9330 H   0  0  0  0  0  0  0  0  0  0  0  0
   58.3886   30.6611   47.5174 H   0  0  0  0  0  0  0  0  0  0  0  0
   60.8059   34.6150   47.3610 H   0  0  0  0  0  0  0  0  0  0  0  0
   61.0935   33.7628   45.7802 H   0  0  0  0  0  0  0  0  0  0  0  0
   59.0205   35.8674   46.4647 H   0  0  0  0  0  0  0  0  0  0  0  0
   60.2497   35.8452   45.1403 H   0  0  0  0  0  0  0  0  0  0  0  0
   57.2159   34.7619   46.3658 H   0  0  0  0  0  0  0  0  0  0  0  0
   56.7913   33.7188   44.9526 H   0  0  0  0  0  0  0  0  0  0  0  0
   57.4645   32.5626   47.1884 H   0  0  0  0  0  0  0  0  0  0  0  0
   58.2129   31.9897   45.6336 H   0  0  0  0  0  0  0  0  0  0  0  0
   61.8785   33.1374   48.1672 H   0  0  0  0  0  0  0  0  0  0  0  0
   62.8631   31.3711   49.6201 H   0  0  0  0  0  0  0  0  0  0  0  0
   61.3690   28.1340   50.3470 H   0  0  0  0  0  0  0  0  0  0  0  0
  1  2  1  0
  2  3  2  0
  2  4  2  0
  2  5  1  0
  5  6  2  0
  6  7  1  0
  7  8  2  0
  8  9  1  0
  9 10  1  0
 10 11  1  0
 11 12  2  0
 11 13  1  0
 13 14  1  0
 14 15  2  0
 15 16  1  0
 16 17  1  0
 17 18  1  0
 18 19  1  0
 19 20  1  0
 20 21  1  0
 21 22  1  0
 16 23  2  0
 23 24  1  0
 24 25  2  0
 25 26  1  0
  9 27  1  0
 27 28  2  0
 27  5  1  0
 25 14  1  0
 22 17  1  0
  1 29  1  0
  6 30  1  0
  7 31  1  0
  8 32  1  0
 10 33  1  0
 10 34  1  0
 15 35  1  0
 18 36  1  0
 18 37  1  0
 19 38  1  0
 19 39  1  0
 21 40  1  0
 21 41  1  0
 22 42  1  0
 22 43  1  0
 23 44  1  0
 24 45  1  0
 26 46  1  0
M  CHG  2   1  -1  13  -1
M  END
>  <UniqueID>  (7) 
6

>  <SMILES>  (7) 
[NH-]S(=O)(=O)c1cccn(CC(=O)[N-]c2cc(N3CCOCC3)ccc2O)c1=O

>  <Energy>  (7) 
60.29234637709525

>  <Genealogy>  (7) 
[NH-]S(=O)(=O)c1cccn(CC(=O)[N-]c2cc(N3CCOCC3)ccc2O)c1=O (protonated)
[NH-]S(=O)(=O)c1cccn(CC(=O)[N-]c2cc(N3CCOCC3)ccc2O)c1=O (3D coordinates assigned)
[NH-]S(=O)(=O)c1cccn(CC(=O)[N-]c2cc(N3CCOCC3)ccc2O)c1=O (nonaromatic ring conformer: 60.29234637709525 kcal/mol)

>  <smiles>  (7) 
NS(=O)(=O)c1cccn(CC(=O)Nc2cc(N3CCOCC3)ccc2O)c1=O

>  <score_type>  (7) 
oracle

>  <origin>  (7) 
adg

>  <m_score__min__energy>  (7) 
-12.84

>  <m_primary>  (7) 
energy

$$$$
7:0
     RDKit          3D

 62 65  0  0  0  0  0  0  0  0999 V2000
   55.1450   29.6660   44.8440 O   0  0  0  0  0  0  0  0  0  0  0  0
   56.3080   29.2150   44.6670 C   0  0  0  0  0  0  0  0  0  0  0  0
   56.9330   29.3360   43.3010 C   0  0  0  0  0  0  0  0  0  0  0  0
   56.7760   30.6820   42.7620 N   0  0  0  0  0  0  0  0  0  0  0  0
   57.6640   31.7840   42.9770 C   0  0  0  0  0  0  0  0  0  0  0  0
   58.0820   32.4300   41.9840 O   0  0  0  0  0  0  0  0  0  0  0  0
   58.0970   32.1980   44.3190 C   0  0  0  0  0  0  0  0  0  0  0  0
   58.7500   31.2910   45.1660 C   0  0  0  0  0  0  0  0  0  0  0  0
   59.2550   31.7170   46.4000 C   0  0  0  0  0  0  0  0  0  0  0  0
   59.1370   33.0590   46.7860 C   0  0  0  0  0  0  0  0  0  0  0  0
   59.9290   33.6310   48.2590 S   0  0  0  0  0  0  0  0  0  0  0  0
   59.3420   34.9660   48.6420 O   0  0  0  0  0  0  0  0  0  0  0  0
   59.6290   32.6560   49.3700 O   0  0  0  0  0  0  0  0  0  0  0  0
   61.6640   33.8050   48.0990 N   0  0  0  0  0  0  0  0  0  0  0  0
   62.3820   32.6970   48.7200 C   0  0  0  0  0  0  0  0  0  0  0  0
   63.7520   32.6610   48.0550 C   0  0  0  0  0  0  0  0  0  0  0  0
   63.5720   33.4030   46.7350 C   0  0  0  0  0  0  0  0  0  0  0  0
   62.1020   33.8070   46.7100 C   0  0  0  0  0  0  0  0  0  0  0  0
   58.4820   33.9640   45.9390 C   0  0  0  0  0  0  0  0  0  0  0  0
   57.9660   33.5370   44.7120 C   0  0  0  0  0  0  0  0  0  0  0  0
   57.0500   28.7800   45.8160 N   0  0  0  0  0  0  0  0  0  0  0  0
   57.7300   27.5300   45.9960 C   0  0  0  0  0  0  0  0  0  0  0  0
   59.1290   27.4230   45.8880 C   0  0  0  0  0  0  0  0  0  0  0  0
   59.7590   26.1880   46.0430 C   0  0  0  0  0  0  0  0  0  0  0  0
   58.9980   25.0410   46.2670 C   0  0  0  0  0  0  0  0  0  0  0  0
   57.5990   25.1250   46.3300 C   0  0  0  0  0  0  0  0  0  0  0  0
   56.6420   23.6680   46.5590 S   0  0  0  0  0  0  0  0  0  0  0  0
   55.3000   24.0480   47.1120 O   0  0  0  0  0  0  0  0  0  0  0  0
   57.3270   22.7850   47.5600 O   0  0  0  0  0  0  0  0  0  0  0  0
   56.4250   22.7880   45.0730 N   0  0  0  0  0  0  0  0  0  0  0  0
   57.5630   21.8850   44.8350 C   0  0  0  0  0  0  0  0  0  0  0  0
   57.4750   21.2670   43.4210 C   0  0  0  0  0  0  0  0  0  0  0  0
   56.2040   21.5030   42.8420 O   0  0  0  0  0  0  0  0  0  0  0  0
   56.0110   22.8970   42.6520 C   0  0  0  0  0  0  0  0  0  0  0  0
   56.2690   23.7070   43.9400 C   0  0  0  0  0  0  0  0  0  0  0  0
   56.9680   26.3710   46.1890 C   0  0  0  0  0  0  0  0  0  0  0  0
   58.0055   29.1033   43.3761 H   0  0  0  0  0  0  0  0  0  0  0  0
   56.4273   28.6309   42.6249 H   0  0  0  0  0  0  0  0  0  0  0  0
   58.8658   30.2409   44.8595 H   0  0  0  0  0  0  0  0  0  0  0  0
   59.7464   30.9956   47.0694 H   0  0  0  0  0  0  0  0  0  0  0  0
   62.4863   32.8672   49.8017 H   0  0  0  0  0  0  0  0  0  0  0  0
   61.8455   31.7455   48.5905 H   0  0  0  0  0  0  0  0  0  0  0  0
   64.4998   33.1667   48.6835 H   0  0  0  0  0  0  0  0  0  0  0  0
   64.1101   31.6319   47.9040 H   0  0  0  0  0  0  0  0  0  0  0  0
   64.2185   34.2922   46.6995 H   0  0  0  0  0  0  0  0  0  0  0  0
   63.8456   32.7815   45.8697 H   0  0  0  0  0  0  0  0  0  0  0  0
   61.9884   34.8107   46.2744 H   0  0  0  0  0  0  0  0  0  0  0  0
   61.5038   33.1169   46.0968 H   0  0  0  0  0  0  0  0  0  0  0  0
   58.3735   35.0160   46.2416 H   0  0  0  0  0  0  0  0  0  0  0  0
   57.4554   34.2543   44.0526 H   0  0  0  0  0  0  0  0  0  0  0  0
   59.7305   28.3201   45.6797 H   0  0  0  0  0  0  0  0  0  0  0  0
   60.8555   26.1189   45.9886 H   0  0  0  0  0  0  0  0  0  0  0  0
   59.4957   24.0684   46.3946 H   0  0  0  0  0  0  0  0  0  0  0  0
   58.5009   22.4528   44.9245 H   0  0  0  0  0  0  0  0  0  0  0  0
   57.5379   21.0759   45.5798 H   0  0  0  0  0  0  0  0  0  0  0  0
   58.2500   21.7168   42.7830 H   0  0  0  0  0  0  0  0  0  0  0  0
   57.6263   20.1806   43.5034 H   0  0  0  0  0  0  0  0  0  0  0  0
   56.7020   23.2461   41.8706 H   0  0  0  0  0  0  0  0  0  0  0  0
   54.9618   23.0540   42.3613 H   0  0  0  0  0  0  0  0  0  0  0  0
   57.1867   24.3018   43.8214 H   0  0  0  0  0  0  0  0  0  0  0  0
   55.4182   24.3786   44.1272 H   0  0  0  0  0  0  0  0  0  0  0  0
   55.8708   26.4373   46.2303 H   0  0  0  0  0  0  0  0  0  0  0  0
  1  2  2  0
  2  3  1  0
  3  4  1  0
  4  5  1  0
  5  6  2  0
  5  7  1  0
  7  8  2  0
  8  9  1  0
  9 10  2  0
 10 11  1  0
 11 12  2  0
 11 13  2  0
 11 14  1  0
 14 15  1  0
 15 16  1  0
 16 17  1  0
 17 18  1  0
 10 19  1  0
 19 20  2  0
  2 21  1  0
 21 22  1  0
 22 23  2  0
 23 24  1  0
 24 25  2  0
 25 26  1  0
 26 27  1  0
 27 28  2  0
 27 29  2  0
 27 30  1  0
 30 31  1  0
 31 32  1  0
 32 33  1  0
 33 34  1  0
 34 35  1  0
 26 36  2  0
 20  7  1  0
 36 22  1  0
 18 14  1  0
 35 30  1  0
  3 37  1  0
  3 38  1  0
  8 39  1  0
  9 40  1  0
 15 41  1  0
 15 42  1  0
 16 43  1  0
 16 44  1  0
 17 45  1  0
 17 46  1  0
 18 47  1  0
 18 48  1  0
 19 49  1  0
 20 50  1  0
 23 51  1  0
 24 52  1  0
 25 53  1  0
 31 54  1  0
 31 55  1  0
 32 56  1  0
 32 57  1  0
 34 58  1  0
 34 59  1  0
 35 60  1  0
 35 61  1  0
 36 62  1  0
M  CHG  2   4  -1  21  -1
M  END
>  <UniqueID>  (8) 
7

>  <SMILES>  (8) 
O=C(C[N-]C(=O)c1ccc(S(=O)(=O)N2CCCC2)cc1)[N-]c1cccc(S(=O)(=O)N2CCOCC2)c1

>  <Energy>  (8) 
79.64311835218008

>  <Genealogy>  (8) 
O=C(C[N-]C(=O)c1ccc(S(=O)(=O)N2CCCC2)cc1)[N-]c1cccc(S(=O)(=O)N2CCOCC2)c1 (protonated)
O=C(C[N-]C(=O)c1ccc(S(=O)(=O)N2CCCC2)cc1)[N-]c1cccc(S(=O)(=O)N2CCOCC2)c1 (3D coordinates assigned)
O=C(C[N-]C(=O)c1ccc(S(=O)(=O)N2CCCC2)cc1)[N-]c1cccc(S(=O)(=O)N2CCOCC2)c1 (nonaromatic ring conformer: 79.64311835218008 kcal/mol)

>  <smiles>  (8) 
O=C(CNC(=O)c1ccc(S(=O)(=O)N2CCCC2)cc1)Nc1cccc(S(=O)(=O)N2CCOCC2)c1

>  <score_type>  (8) 
oracle

>  <origin>  (8) 
adg

>  <m_score__min__energy>  (8) 
-15.24

>  <m_primary>  (8) 
energy

$$$$
8:0
     RDKit          3D

 53 55  0  0  0  0  0  0  0  0999 V2000
   58.2955   34.9778   44.1036 H   0  0  0  0  0  0  0  0  0  0  0  0
   58.6230   34.4650   45.0200 C   0  0  0  0  0  0  0  0  0  0  0  0
   59.5730   35.1270   46.2420 S   0  0  0  0  0  0  0  0  0  0  0  0
   59.5610   33.7200   47.1590 C   0  0  0  0  0  0  0  0  0  0  0  0
   60.1270   33.6170   48.3260 N   0  0  0  0  0  0  0  0  0  0  0  0
   61.0820   32.6260   48.7510 C   0  0  0  0  0  0  0  0  0  0  0  0
   60.7050   31.4190   48.7920 O   0  0  0  0  0  0  0  0  0  0  0  0
   62.5120   32.9760   49.0980 C   0  0  0  0  0  0  0  0  0  0  0  0
   63.0928   32.0452   49.1774 H   0  0  0  0  0  0  0  0  0  0  0  0
   62.4974   33.5288   50.0489 H   0  0  0  0  0  0  0  0  0  0  0  0
   63.1720   33.8780   48.0480 C   0  0  0  0  0  0  0  0  0  0  0  0
   64.0538   34.3615   48.4938 H   0  0  0  0  0  0  0  0  0  0  0  0
   62.4379   34.6309   47.7252 H   0  0  0  0  0  0  0  0  0  0  0  0
   63.6100   33.0740   46.8240 C   0  0  0  0  0  0  0  0  0  0  0  0
   64.1124   32.1519   47.1516 H   0  0  0  0  0  0  0  0  0  0  0  0
   62.7277   32.8161   46.2198 H   0  0  0  0  0  0  0  0  0  0  0  0
   64.3051   33.6754   46.2198 H   0  0  0  0  0  0  0  0  0  0  0  0
   58.8430   32.7420   46.5680 N   0  0  0  0  0  0  0  0  0  0  0  0
   58.3250   33.1480   45.3780 C   0  0  0  0  0  0  0  0  0  0  0  0
   57.4790   32.2400   44.5420 C   0  0  0  0  0  0  0  0  0  0  0  0
   56.4577   32.2151   44.9497 H   0  0  0  0  0  0  0  0  0  0  0  0
   57.4575   32.6150   43.5081 H   0  0  0  0  0  0  0  0  0  0  0  0
   58.0530   30.8540   44.5530 C   0  0  0  0  0  0  0  0  0  0  0  0
   57.5820   29.8100   43.8370 N   0  0  0  0  0  0  0  0  0  0  0  0
   56.4290   29.7840   42.9340 C   0  0  0  0  0  0  0  0  0  0  0  0
   55.5012   29.7631   43.5245 H   0  0  0  0  0  0  0  0  0  0  0  0
   56.4397   30.6826   42.2997 H   0  0  0  0  0  0  0  0  0  0  0  0
   56.4802   28.8868   42.2997 H   0  0  0  0  0  0  0  0  0  0  0  0
   58.3330   28.7740   44.2690 C   0  0  0  0  0  0  0  0  0  0  0  0
   58.1610   27.0690   43.7340 S   0  0  0  0  0  0  0  0  0  0  0  0
   57.7950   26.4190   45.4010 C   0  0  0  0  0  0  0  0  0  0  0  0
   57.9830   25.3353   45.4186 H   0  0  0  0  0  0  0  0  0  0  0  0
   58.4420   26.9223   46.1345 H   0  0  0  0  0  0  0  0  0  0  0  0
   56.3580   26.6800   45.7510 C   0  0  0  0  0  0  0  0  0  0  0  0
   55.8970   27.8430   45.6140 O   0  0  0  0  0  0  0  0  0  0  0  0
   55.5110   25.6560   46.2900 N   0  0  0  0  0  0  0  0  0  0  0  0
   55.9670   24.3120   46.6270 C   0  0  0  0  0  0  0  0  0  0  0  0
   56.8694   24.3784   47.2525 H   0  0  0  0  0  0  0  0  0  0  0  0
   55.1732   23.7859   47.1775 H   0  0  0  0  0  0  0  0  0  0  0  0
   56.2850   23.5560   45.3730 C   0  0  0  0  0  0  0  0  0  0  0  0
   57.3990   22.7010   45.3220 C   0  0  0  0  0  0  0  0  0  0  0  0
   58.0353   22.5760   46.2105 H   0  0  0  0  0  0  0  0  0  0  0  0
   57.7010   22.0090   44.1460 C   0  0  0  0  0  0  0  0  0  0  0  0
   58.5692   21.3343   44.1140 H   0  0  0  0  0  0  0  0  0  0  0  0
   56.9030   22.1720   43.0110 C   0  0  0  0  0  0  0  0  0  0  0  0
   57.1435   21.6265   42.0866 H   0  0  0  0  0  0  0  0  0  0  0  0
   55.7980   23.0290   43.0500 C   0  0  0  0  0  0  0  0  0  0  0  0
   55.1703   23.1578   42.1559 H   0  0  0  0  0  0  0  0  0  0  0  0
   55.4910   23.7220   44.2250 C   0  0  0  0  0  0  0  0  0  0  0  0
   54.6249   24.3996   44.2511 H   0  0  0  0  0  0  0  0  0  0  0  0
   59.2250   29.1600   45.2040 N   0  0  0  0  0  0  0  0  0  0  0  0
   59.0420   30.4590   45.3730 N   0  0  0  0  0  0  0  0  0  0  0  0
   59.5660   31.0470   46.0620 H   0  0  0  0  0  0  0  0  0  0  0  0
  1  2  1  0
  2  3  1  0
  3  4  1  0
  4  5  2  0
  5  6  1  0
  6  7  2  0
  6  8  1  0
  8  9  1  0
  8 10  1  0
  8 11  1  0
 11 12  1  0
 11 13  1  0
 11 14  1  0
 14 15  1  0
 14 16  1  0
 14 17  1  0
  4 18  1  0
 18 19  1  0
 19 20  1  0
 20 21  1  0
 20 22  1  0
 20 23  1  0
 23 24  1  0
 24 25  1  0
 25 26  1  0
 25 27  1  0
 25 28  1  0
 24 29  1  0
 29 30  1  0
 30 31  1  0
 31 32  1  0
 31 33  1  0
 31 34  1  0
 34 35  2  0
 34 36  1  0
 36 37  1  0
 37 38  1  0
 37 39  1  0
 37 40  1  0
 40 41  2  0
 41 42  1  0
 41 43  1  0
 43 44  1  0
 43 45  2  0
 45 46  1  0
 45 47  1  0
 47 48  1  0
 47 49  2  0
 49 50  1  0
 29 51  2  0
 51 52  1  0
 52 53  1  0
 19  2  2  0
 52 23  2  0
 49 40  1  0
M  CHG  3  18  -1  36  -1  52   1
M  END
>  <UniqueID>  (9) 
8

>  <SMILES>  (9) 
CCCC(=O)/N=c1\[n-]c(Cc2[nH+]nc(SCC(=O)[N-]Cc3ccccc3)n2C)cs1

>  <Energy>  (9) 
108.67203483581524

>  <Genealogy>  (9) 
CCCC(=O)N=c1[n-]c(Cc2[nH+]nc(SCC(=O)[N-]Cc3ccccc3)n2C)cs1 (protonated)
CCCC(=O)/N=c1\[n-]c(Cc2[nH+]nc(SCC(=O)[N-]Cc3ccccc3)n2C)cs1 (cis-trans isomerization)
CCCC(=O)/N=c1\[n-]c(Cc2[nH+]nc(SCC(=O)[N-]Cc3ccccc3)n2C)cs1 (3D coordinates assigned)
CCCC(=O)/N=c1\[n-]c(Cc2[nH+]nc(SCC(=O)[N-]Cc3ccccc3)n2C)cs1 (optimized conformer: 108.67203483581524 kcal/mol)

>  <smiles>  (9) 
CCCC(=O)N=c1[nH]c(Cc2nnc(SCC(=O)NCc3ccccc3)n2C)cs1

>  <score_type>  (9) 
oracle

>  <origin>  (9) 
adg

>  <m_score__min__energy>  (9) 
-10.26

>  <m_primary>  (9) 
energy

$$$$
9:0
     RDKit          3D

 90 95  0  0  0  0  0  0  0  0999 V2000
   60.7820   29.3310   47.4180 C   0  0  0  0  0  0  0  0  0  0  0  0
   60.7000   27.8700   47.5620 N   0  0  0  0  0  0  0  0  0  0  0  0
   60.5890   27.2300   46.2290 C   0  0  0  0  0  0  0  0  0  0  0  0
   60.0770   25.7890   46.3360 C   0  0  0  0  0  0  0  0  0  0  0  0
   58.6650   25.7340   46.9660 C   0  0  0  0  0  0  0  0  0  0  0  0
   57.3940   25.5300   45.7150 S   0  0  0  0  0  0  0  0  0  0  0  0
   56.0560   25.8450   46.3200 O   0  0  0  0  0  0  0  0  0  0  0  0
   57.3800   24.1120   45.2170 O   0  0  0  0  0  0  0  0  0  0  0  0
   57.7490   26.5920   44.3880 N   0  0  0  0  0  0  0  0  0  0  0  0
   57.5300   28.0060   44.3880 C   0  0  0  0  0  0  0  0  0  0  0  0
   57.8620   28.7350   45.5330 C   0  0  0  0  0  0  0  0  0  0  0  0
   57.6550   30.1140   45.5750 C   0  0  0  0  0  0  0  0  0  0  0  0
   57.1480   30.7920   44.4560 C   0  0  0  0  0  0  0  0  0  0  0  0
   56.8640   32.2650   44.5270 C   0  0  0  0  0  0  0  0  0  0  0  0
   58.1110   33.0100   44.3850 N   0  0  0  0  0  0  0  0  0  0  0  0
   58.3380   34.2410   45.0910 C   0  0  0  0  0  0  0  0  0  0  0  0
   57.3550   34.9450   45.4470 O   0  0  0  0  0  0  0  0  0  0  0  0
   59.7000   34.7210   45.4050 C   0  0  0  0  0  0  0  0  0  0  0  0
   60.4170   34.2620   46.4410 C   0  0  0  0  0  0  0  0  0  0  0  0
   59.8300   33.4930   47.5710 C   0  0  0  0  0  0  0  0  0  0  0  0
   59.7520   34.1010   48.8350 C   0  0  0  0  0  0  0  0  0  0  0  0
   59.2630   33.3960   49.9400 C   0  0  0  0  0  0  0  0  0  0  0  0
   58.8350   32.0650   49.8020 C   0  0  0  0  0  0  0  0  0  0  0  0
   58.3980   31.2870   50.9840 C   0  0  0  0  0  0  0  0  0  0  0  0
   57.4460   30.4640   50.8840 O   0  0  0  0  0  0  0  0  0  0  0  0
   59.0680   31.4430   52.2390 N   0  0  0  0  0  0  0  0  0  0  0  0
   60.5280   31.4240   52.3940 C   0  0  1  0  0  0  0  0  0  0  0  0
   61.1010   30.3180   51.4600 C   0  0  0  0  0  0  0  0  0  0  0  0
   61.5680   30.8890   50.1190 C   0  0  0  0  0  0  0  0  0  0  0  0
   62.6590   31.8770   50.4010 C   0  0  0  0  0  0  0  0  0  0  0  0
   63.8750   31.8200   49.7070 C   0  0  0  0  0  0  0  0  0  0  0  0
   64.9430   32.6290   50.1000 C   0  0  0  0  0  0  0  0  0  0  0  0
   64.8090   33.4770   51.2010 C   0  0  0  0  0  0  0  0  0  0  0  0
   65.8880   34.2490   51.6160 O   0  0  0  0  0  0  0  0  0  0  0  0
   63.5950   33.5500   51.8920 C   0  0  0  0  0  0  0  0  0  0  0  0
   62.4870   32.7770   51.4750 C   0  0  0  0  0  0  0  0  0  0  0  0
   61.0900   32.8700   52.1120 C   0  0  2  0  0  0  0  0  0  0  0  0
   61.0910   33.7820   53.3060 N   0  0  0  0  0  0  0  0  0  0  0  0
   61.4400   33.1580   54.5980 C   0  0  0  0  0  0  0  0  0  0  0  0
   60.1690   32.5760   55.1820 C   0  0  0  0  0  0  0  0  0  0  0  0
   59.0730   33.4650   54.6420 C   0  0  0  0  0  0  0  0  0  0  0  0
   59.7330   34.3150   53.5600 C   0  0  0  0  0  0  0  0  0  0  0  0
   58.8670   31.4710   48.5300 C   0  0  0  0  0  0  0  0  0  0  0  0
   59.3530   32.1770   47.4240 C   0  0  0  0  0  0  0  0  0  0  0  0
   56.8400   30.0630   43.2970 C   0  0  0  0  0  0  0  0  0  0  0  0
   57.0360   28.6790   43.2600 C   0  0  0  0  0  0  0  0  0  0  0  0
   58.3620   26.9740   47.8310 C   0  0  0  0  0  0  0  0  0  0  0  0
   59.6350   27.4790   48.5250 C   0  0  0  0  0  0  0  0  0  0  0  0
   60.8081   29.7967   48.4142 H   0  0  0  0  0  0  0  0  0  0  0  0
   61.6963   29.5943   46.8660 H   0  0  0  0  0  0  0  0  0  0  0  0
   59.9029   29.6950   46.8660 H   0  0  0  0  0  0  0  0  0  0  0  0
   59.8901   27.8122   45.6105 H   0  0  0  0  0  0  0  0  0  0  0  0
   61.5902   27.2066   45.7740 H   0  0  0  0  0  0  0  0  0  0  0  0
   60.0364   25.3484   45.3289 H   0  0  0  0  0  0  0  0  0  0  0  0
   60.7655   25.2253   46.9827 H   0  0  0  0  0  0  0  0  0  0  0  0
   58.6552   24.8532   47.6249 H   0  0  0  0  0  0  0  0  0  0  0  0
   58.2887   28.2189   46.4057 H   0  0  0  0  0  0  0  0  0  0  0  0
   57.8909   30.6739   46.4920 H   0  0  0  0  0  0  0  0  0  0  0  0
   56.1756   32.5449   43.7159 H   0  0  0  0  0  0  0  0  0  0  0  0
   56.4043   32.5027   45.4976 H   0  0  0  0  0  0  0  0  0  0  0  0
   58.8680   32.5940   43.7980 H   0  0  0  0  0  0  0  0  0  0  0  0
   60.1465   35.4909   44.7586 H   0  0  0  0  0  0  0  0  0  0  0  0
   61.4980   34.4652   46.4561 H   0  0  0  0  0  0  0  0  0  0  0  0
   60.0794   35.1440   48.9574 H   0  0  0  0  0  0  0  0  0  0  0  0
   59.2133   33.8869   50.9231 H   0  0  0  0  0  0  0  0  0  0  0  0
   60.8404   31.1698   53.4176 H   0  0  0  0  0  0  0  0  0  0  0  0
   61.9558   29.8385   51.9594 H   0  0  0  0  0  0  0  0  0  0  0  0
   60.2996   29.5914   51.2606 H   0  0  0  0  0  0  0  0  0  0  0  0
   61.9511   30.0797   49.4800 H   0  0  0  0  0  0  0  0  0  0  0  0
   60.7324   31.3761   49.5951 H   0  0  0  0  0  0  0  0  0  0  0  0
   63.9883   31.1374   48.8519 H   0  0  0  0  0  0  0  0  0  0  0  0
   65.8904   32.5982   49.5419 H   0  0  0  0  0  0  0  0  0  0  0  0
   63.5018   34.2127   52.7650 H   0  0  0  0  0  0  0  0  0  0  0  0
   60.3908   33.3389   51.4040 H   0  0  0  0  0  0  0  0  0  0  0  0
   62.1809   32.3601   54.4415 H   0  0  0  0  0  0  0  0  0  0  0  0
   61.8750   33.9017   55.2819 H   0  0  0  0  0  0  0  0  0  0  0  0
   60.0274   31.5367   54.8505 H   0  0  0  0  0  0  0  0  0  0  0  0
   60.1849   32.5468   56.2815 H   0  0  0  0  0  0  0  0  0  0  0  0
   58.2622   32.8580   54.2127 H   0  0  0  0  0  0  0  0  0  0  0  0
   58.6250   34.0859   55.4318 H   0  0  0  0  0  0  0  0  0  0  0  0
   59.1373   34.2679   52.6365 H   0  0  0  0  0  0  0  0  0  0  0  0
   59.7952   35.3626   53.8897 H   0  0  0  0  0  0  0  0  0  0  0  0
   58.5062   30.4398   48.4017 H   0  0  0  0  0  0  0  0  0  0  0  0
   59.3623   31.7002   46.4328 H   0  0  0  0  0  0  0  0  0  0  0  0
   56.4423   30.5831   42.4131 H   0  0  0  0  0  0  0  0  0  0  0  0
   56.8023   28.1162   42.3442 H   0  0  0  0  0  0  0  0  0  0  0  0
   57.9604   27.7720   47.1892 H   0  0  0  0  0  0  0  0  0  0  0  0
   57.6274   26.6957   48.6010 H   0  0  0  0  0  0  0  0  0  0  0  0
   59.3770   28.3548   49.1385 H   0  0  0  0  0  0  0  0  0  0  0  0
   60.0283   26.6539   49.1369 H   0  0  0  0  0  0  0  0  0  0  0  0
  1  2  1  0
  2  3  1  0
  3  4  1  0
  4  5  1  0
  5  6  1  0
  6  7  2  0
  6  8  2  0
  6  9  1  0
  9 10  1  0
 10 11  2  0
 11 12  1  0
 12 13  2  0
 13 14  1  0
 14 15  1  0
 15 16  1  0
 16 17  2  0
 16 18  1  0
 18 19  2  3
 19 20  1  0
 20 21  2  0
 21 22  1  0
 22 23  2  0
 23 24  1  0
 24 25  2  0
 24 26  1  0
 26 27  1  0
 27 28  1  0
 28 29  1  0
 29 30  1  0
 30 31  2  0
 31 32  1  0
 32 33  2  0
 33 34  1  0
 33 35  1  0
 35 36  2  0
 36 37  1  0
 37 38  1  0
 38 39  1  0
 39 40  1  0
 40 41  1  0
 41 42  1  0
 23 43  1  0
 43 44  2  0
 13 45  1  0
 45 46  2  0
  5 47  1  0
 47 48  1  0
 48  2  1  0
 46 10  1  0
 44 20  1  0
 37 27  1  0
 42 38  1  0
 36 30  1  0
  1 49  1  0
  1 50  1  0
  1 51  1  0
  3 52  1  0
  3 53  1  0
  4 54  1  0
  4 55  1  0
  5 56  1  0
 11 57  1  0
 12 58  1  0
 14 59  1  0
 14 60  1  0
 15 61  1  0
 18 62  1  0
 19 63  1  0
 21 64  1  0
 22 65  1  0
 27 66  1  1
 28 67  1  0
 28 68  1  0
 29 69  1  0
 29 70  1  0
 31 71  1  0
 32 72  1  0
 35 73  1  0
 37 74  1  6
 39 75  1  0
 39 76  1  0
 40 77  1  0
 40 78  1  0
 41 79  1  0
 41 80  1  0
 42 81  1  0
 42 82  1  0
 43 83  1  0
 44 84  1  0
 45 85  1  0
 46 86  1  0
 47 87  1  0
 47 88  1  0
 48 89  1  0
 48 90  1  0
M  CHG  3   9  -1  26  -1  34  -1
M  END
>  <UniqueID>  (10) 
9

>  <SMILES>  (10) 
CN1CCC(S(=O)(=O)[N-]c2ccc(CNC(=O)C=Cc3ccc(C(=O)[N-][C@H]4CCc5ccc([O-])cc5[C@@H]4N4CCCC4)cc3)cc2)CC1

>  <Energy>  (10) 
128.53559493835178

>  <Genealogy>  (10) 
CN1CCC(S(=O)(=O)[N-]c2ccc(CNC(=O)C=Cc3ccc(C(=O)[N-]C4CCc5ccc([O-])cc5C4N4CCCC4)cc3)cc2)CC1 (protonated)
CN1CCC(S(=O)(=O)[N-]c2ccc(CNC(=O)C=Cc3ccc(C(=O)[N-][C@H]4CCc5ccc([O-])cc5[C@@H]4N4CCCC4)cc3)cc2)CC1 (chirality)
CN1CCC(S(=O)(=O)[N-]c2ccc(CNC(=O)C=Cc3ccc(C(=O)[N-][C@H]4CCc5ccc([O-])cc5[C@@H]4N4CCCC4)cc3)cc2)CC1 (3D coordinates assigned)
CN1CCC(S(=O)(=O)[N-]c2ccc(CNC(=O)C=Cc3ccc(C(=O)[N-][C@H]4CCc5ccc([O-])cc5[C@@H]4N4CCCC4)cc3)cc2)CC1 (nonaromatic ring conformer: 128.53559493835178 kcal/mol)

>  <smiles>  (10) 
CN1CCC(S(=O)(=O)Nc2ccc(CNC(=O)C=Cc3ccc(C(=O)NC4CCc5ccc(O)cc5C4N4CCCC4)cc3)cc2)CC1

>  <score_type>  (10) 
oracle

>  <origin>  (10) 
adg

>  <m_score__min__energy>  (10) 
-13.880000000000001

>  <m_primary>  (10) 
energy

$$$$
10:0
     RDKit          3D

 65 68  0  0  0  0  0  0  0  0999 V2000
   57.5935   25.7079   44.8998 H   0  0  0  0  0  0  0  0  0  0  0  0
   57.1870   26.2600   45.7600 C   0  0  0  0  0  0  0  0  0  0  0  0
   55.9110   25.7820   46.3270 C   0  0  0  0  0  0  0  0  0  0  0  0
   55.9210   24.8030   47.1200 O   0  0  0  0  0  0  0  0  0  0  0  0
   54.6910   26.3410   45.9580 O   0  0  0  0  0  0  0  0  0  0  0  0
   57.8930   27.3100   46.2040 C   0  0  0  0  0  0  0  0  0  0  0  0
   58.5590   27.1427   47.0633 H   0  0  0  0  0  0  0  0  0  0  0  0
   57.8510   28.6710   45.6360 C   0  0  0  0  0  0  0  0  0  0  0  0
   58.8420   29.6190   45.9450 C   0  0  0  0  0  0  0  0  0  0  0  0
   59.6326   29.3698   46.6681 H   0  0  0  0  0  0  0  0  0  0  0  0
   58.8260   30.8800   45.3350 C   0  0  0  0  0  0  0  0  0  0  0  0
   59.6002   31.6203   45.5851 H   0  0  0  0  0  0  0  0  0  0  0  0
   57.8250   31.2010   44.4060 C   0  0  0  0  0  0  0  0  0  0  0  0
   57.7970   32.5240   43.7590 C   0  0  0  0  0  0  0  0  0  0  0  0
   57.6500   32.5710   42.5070 O   0  0  0  0  0  0  0  0  0  0  0  0
   57.9960   33.7430   44.5170 N   0  0  0  0  0  0  0  0  0  0  0  0
   59.3360   34.3370   44.6140 C   0  0  0  0  0  0  0  0  0  0  0  0
   59.9702   33.9418   43.8068 H   0  0  0  0  0  0  0  0  0  0  0  0
   59.2569   35.4302   44.5208 H   0  0  0  0  0  0  0  0  0  0  0  0
   59.9510   33.9930   45.9490 C   0  0  0  0  0  0  0  0  0  0  0  0
   61.3360   34.1190   46.1280 C   0  0  0  0  0  0  0  0  0  0  0  0
   61.9676   34.4411   45.2870 H   0  0  0  0  0  0  0  0  0  0  0  0
   61.9200   33.8390   47.3650 C   0  0  0  0  0  0  0  0  0  0  0  0
   63.0068   33.9495   47.4939 H   0  0  0  0  0  0  0  0  0  0  0  0
   61.1280   33.4170   48.4460 C   0  0  0  0  0  0  0  0  0  0  0  0
   61.6960   33.1200   49.7340 N   0  0  0  0  0  0  0  0  0  0  0  0
   61.0340   32.9700   50.5310 H   0  0  0  0  0  0  0  0  0  0  0  0
   63.0900   32.8520   49.9730 C   0  0  0  0  0  0  0  0  0  0  0  0
   63.9170   32.8350   49.0220 O   0  0  0  0  0  0  0  0  0  0  0  0
   63.5670   32.5430   51.3620 C   0  0  0  0  0  0  0  0  0  0  0  0
   62.7076   32.2487   51.9823 H   0  0  0  0  0  0  0  0  0  0  0  0
   64.0481   33.4397   51.7796 H   0  0  0  0  0  0  0  0  0  0  0  0
   64.5700   31.4190   51.3400 C   0  0  0  0  0  0  0  0  0  0  0  0
   64.1750   30.1070   51.6490 C   0  0  0  0  0  0  0  0  0  0  0  0
   63.1198   29.8918   51.8733 H   0  0  0  0  0  0  0  0  0  0  0  0
   65.1160   29.0730   51.6730 C   0  0  0  0  0  0  0  0  0  0  0  0
   64.7972   28.0469   51.9085 H   0  0  0  0  0  0  0  0  0  0  0  0
   66.4640   29.3400   51.3980 C   0  0  0  0  0  0  0  0  0  0  0  0
   67.6510   28.0390   51.4160 S   0  0  0  0  0  0  0  0  0  0  0  0
   67.1560   26.9080   52.2750 O   0  0  0  0  0  0  0  0  0  0  0  0
   68.9390   28.5500   51.9980 O   0  0  0  0  0  0  0  0  0  0  0  0
   67.9470   27.4520   49.7560 C   0  0  0  0  0  0  0  0  0  0  0  0
   68.3284   28.2829   49.1444 H   0  0  0  0  0  0  0  0  0  0  0  0
   66.9992   27.0722   49.3470 H   0  0  0  0  0  0  0  0  0  0  0  0
   68.9660   26.3180   49.7450 C   0  0  0  0  0  0  0  0  0  0  0  0
   69.2161   26.0397   50.7794 H   0  0  0  0  0  0  0  0  0  0  0  0
   68.5405   25.4477   49.2238 H   0  0  0  0  0  0  0  0  0  0  0  0
   69.8766   26.6484   49.2238 H   0  0  0  0  0  0  0  0  0  0  0  0
   66.8620   30.6460   51.0880 C   0  0  0  0  0  0  0  0  0  0  0  0
   67.9175   30.8583   50.8625 H   0  0  0  0  0  0  0  0  0  0  0  0
   65.9220   31.6820   51.0640 C   0  0  0  0  0  0  0  0  0  0  0  0
   66.2432   32.7072   50.8279 H   0  0  0  0  0  0  0  0  0  0  0  0
   59.7360   33.3360   48.2830 C   0  0  0  0  0  0  0  0  0  0  0  0
   59.1069   33.0355   49.1338 H   0  0  0  0  0  0  0  0  0  0  0  0
   59.1360   33.6330   47.0500 C   0  0  0  0  0  0  0  0  0  0  0  0
   57.6340   33.4630   46.9100 C   0  0  0  0  0  0  0  0  0  0  0  0
   57.3981   32.3886   46.8995 H   0  0  0  0  0  0  0  0  0  0  0  0
   57.1551   33.9686   47.7615 H   0  0  0  0  0  0  0  0  0  0  0  0
   57.1000   34.0980   45.6240 C   0  0  0  0  0  0  0  0  0  0  0  0
   56.0880   33.7199   45.4170 H   0  0  0  0  0  0  0  0  0  0  0  0
   57.0570   35.1915   45.7356 H   0  0  0  0  0  0  0  0  0  0  0  0
   56.8420   30.2520   44.0920 C   0  0  0  0  0  0  0  0  0  0  0  0
   56.0479   30.5030   43.3734 H   0  0  0  0  0  0  0  0  0  0  0  0
   56.8670   28.9890   44.6880 C   0  0  0  0  0  0  0  0  0  0  0  0
   56.1107   28.2393   44.4124 H   0  0  0  0  0  0  0  0  0  0  0  0
  1  2  1  0
  2  3  1  0
  3  4  2  0
  3  5  1  0
  2  6  2  0
  6  7  1  0
  6  8  1  0
  8  9  2  0
  9 10  1  0
  9 11  1  0
 11 12  1  0
 11 13  2  0
 13 14  1  0
 14 15  2  0
 14 16  1  0
 16 17  1  0
 17 18  1  0
 17 19  1  0
 17 20  1  0
 20 21  2  0
 21 22  1  0
 21 23  1  0
 23 24  1  0
 23 25  2  0
 25 26  1  0
 26 27  1  0
 26 28  1  0
 28 29  2  0
 28 30  1  0
 30 31  1  0
 30 32  1  0
 30 33  1  0
 33 34  2  0
 34 35  1  0
 34 36  1  0
 36 37  1  0
 36 38  2  0
 38 39  1  0
 39 40  2  0
 39 41  2  0
 39 42  1  0
 42 43  1  0
 42 44  1  0
 42 45  1  0
 45 46  1  0
 45 47  1  0
 45 48  1  0
 38 49  1  0
 49 50  1  0
 49 51  2  0
 51 52  1  0
 25 53  1  0
 53 54  1  0
 53 55  2  0
 55 56  1  0
 56 57  1  0
 56 58  1  0
 56 59  1  0
 59 60  1  0
 59 61  1  0
 13 62  1  0
 62 63  1  0
 62 64  2  0
 64 65  1  0
 64  8  1  0
 59 16  1  0
 55 20  1  0
 51 33  1  0
M  CHG  1   5  -1
M  END
>  <UniqueID>  (11) 
10

>  <SMILES>  (11) 
CCS(=O)(=O)c1ccc(CC(=O)Nc2ccc3c(c2)CCN(C(=O)c2ccc(/C=C\C(=O)[O-])cc2)C3)cc1

>  <Energy>  (11) 
82.72544577980003

>  <Genealogy>  (11) 
CCS(=O)(=O)c1ccc(CC(=O)Nc2ccc3c(c2)CCN(C(=O)c2ccc(C=CC(=O)[O-])cc2)C3)cc1 (protonated)
CCS(=O)(=O)c1ccc(CC(=O)Nc2ccc3c(c2)CCN(C(=O)c2ccc(/C=C\C(=O)[O-])cc2)C3)cc1 (cis-trans isomerization)
CCS(=O)(=O)c1ccc(CC(=O)Nc2ccc3c(c2)CCN(C(=O)c2ccc(/C=C\C(=O)[O-])cc2)C3)cc1 (3D coordinates assigned)
CCS(=O)(=O)c1ccc(CC(=O)Nc2ccc3c(c2)CCN(C(=O)c2ccc(/C=C\C(=O)[O-])cc2)C3)cc1 (nonaromatic ring conformer: 82.72544577980003 kcal/mol)

>  <smiles>  (11) 
CCS(=O)(=O)c1ccc(CC(=O)Nc2ccc3c(c2)CCN(C(=O)c2ccc(C=CC(=O)O)cc2)C3)cc1

>  <score_type>  (11) 
oracle

>  <origin>  (11) 
adg

>  <m_score__min__energy>  (11) 
-14.57

>  <m_primary>  (11) 
energy

$$$$
11:0
     RDKit          3D

 40 42  0  0  0  0  0  0  0  0999 V2000
   59.2550   29.5940   47.7000 C   0  0  0  0  0  0  0  0  0  0  0  0
   58.8550   30.3730   48.9190 C   0  0  0  0  0  0  0  0  0  0  0  0
   58.2630   29.6990   49.9420 N   0  0  0  0  0  0  0  0  0  0  0  0
   57.9020   30.3260   51.0870 C   0  0  0  0  0  0  0  0  0  0  0  0
   57.3430   29.6780   52.0060 O   0  0  0  0  0  0  0  0  0  0  0  0
   58.1330   31.6520   51.2350 N   0  0  0  0  0  0  0  0  0  0  0  0
   58.7200   32.3780   50.2530 C   0  0  0  0  0  0  0  0  0  0  0  0
   58.9010   33.6130   50.4380 O   0  0  0  0  0  0  0  0  0  0  0  0
   59.1040   31.7610   49.0490 C   0  0  0  0  0  0  0  0  0  0  0  0
   59.8530   32.6950   47.7340 S   0  0  0  0  0  0  0  0  0  0  0  0
   60.7600   31.8410   46.8960 O   0  0  0  0  0  0  0  0  0  0  0  0
   60.6720   33.8030   48.3350 O   0  0  0  0  0  0  0  0  0  0  0  0
   58.6450   33.3820   46.6970 N   0  0  0  0  0  0  0  0  0  0  0  0
   58.2050   32.8210   45.4540 C   0  0  0  0  0  0  0  0  0  0  0  0
   58.5660   33.4610   44.2690 C   0  0  0  0  0  0  0  0  0  0  0  0
   58.1800   32.9350   43.0360 C   0  0  0  0  0  0  0  0  0  0  0  0
   57.4020   31.7800   42.9760 C   0  0  0  0  0  0  0  0  0  0  0  0
   57.0000   31.1360   44.1550 C   0  0  0  0  0  0  0  0  0  0  0  0
   56.1320   29.9350   44.0990 C   0  0  0  0  0  0  0  0  0  0  0  0
   55.4590   29.6910   43.0610 O   0  0  0  0  0  0  0  0  0  0  0  0
   56.0300   29.0730   45.2420 N   0  0  0  0  0  0  0  0  0  0  0  0
   56.8080   27.8940   45.4890 C   0  0  0  0  0  0  0  0  0  0  0  0
   58.2120   27.8970   45.3830 C   0  0  0  0  0  0  0  0  0  0  0  0
   58.9430   26.7460   45.6920 C   0  0  0  0  0  0  0  0  0  0  0  0
   58.2860   25.5920   46.1200 C   0  0  0  0  0  0  0  0  0  0  0  0
   56.8940   25.5850   46.2370 C   0  0  0  0  0  0  0  0  0  0  0  0
   56.1570   26.7340   45.9310 C   0  0  0  0  0  0  0  0  0  0  0  0
   54.7710   26.7150   46.0690 O   0  0  0  0  0  0  0  0  0  0  0  0
   57.4190   31.6590   45.3930 C   0  0  0  0  0  0  0  0  0  0  0  0
   59.7375   28.6544   48.0073 H   0  0  0  0  0  0  0  0  0  0  0  0
   58.3614   29.3681   47.0997 H   0  0  0  0  0  0  0  0  0  0  0  0
   59.9593   30.1886   47.0997 H   0  0  0  0  0  0  0  0  0  0  0  0
   59.1590   34.3867   44.3067 H   0  0  0  0  0  0  0  0  0  0  0  0
   58.4911   33.4342   42.1065 H   0  0  0  0  0  0  0  0  0  0  0  0
   57.1021   31.3719   41.9995 H   0  0  0  0  0  0  0  0  0  0  0  0
   58.7353   28.8077   45.0561 H   0  0  0  0  0  0  0  0  0  0  0  0
   60.0389   26.7503   45.5974 H   0  0  0  0  0  0  0  0  0  0  0  0
   58.8636   24.6885   46.3651 H   0  0  0  0  0  0  0  0  0  0  0  0
   56.3761   24.6737   46.5706 H   0  0  0  0  0  0  0  0  0  0  0  0
   57.1271   31.1511   46.3241 H   0  0  0  0  0  0  0  0  0  0  0  0
  1  2  1  0
  2  3  1  0
  3  4  1  0
  4  5  2  0
  4  6  1  0
  6  7  1  0
  7  8  2  0
  7  9  1  0
  9 10  1  0
 10 11  2  0
 10 12  2  0
 10 13  1  0
 13 14  1  0
 14 15  2  0
 15 16  1  0
 16 17  2  0
 17 18  1  0
 18 19  1  0
 19 20  2  0
 19 21  1  0
 21 22  1  0
 22 23  2  0
 23 24  1  0
 24 25  2  0
 25 26  1  0
 26 27  2  0
 27 28  1  0
 18 29  2  0
  9  2  2  0
 29 14  1  0
 27 22  1  0
  1 30  1  0
  1 31  1  0
  1 32  1  0
 15 33  1  0
 16 34  1  0
 17 35  1  0
 23 36  1  0
 24 37  1  0
 25 38  1  0
 26 39  1  0
 29 40  1  0
M  CHG  5   3  -1   6  -1  13  -1  21  -1  28  -1
M  END
>  <UniqueID>  (12) 
11

>  <SMILES>  (12) 
Cc1[n-]c(=O)[n-]c(=O)c1S(=O)(=O)[N-]c1cccc(C(=O)[N-]c2ccccc2[O-])c1

>  <Energy>  (12) 
54.493779274130084

>  <Genealogy>  (12) 
Cc1[n-]c(=O)[n-]c(=O)c1S(=O)(=O)[N-]c1cccc(C(=O)[N-]c2ccccc2[O-])c1 (protonated)
Cc1[n-]c(=O)[n-]c(=O)c1S(=O)(=O)[N-]c1cccc(C(=O)[N-]c2ccccc2[O-])c1 (3D coordinates assigned)
Cc1[n-]c(=O)[n-]c(=O)c1S(=O)(=O)[N-]c1cccc(C(=O)[N-]c2ccccc2[O-])c1 (optimized conformer: 54.493779274130084 kcal/mol)

>  <smiles>  (12) 
Cc1[nH]c(=O)[nH]c(=O)c1S(=O)(=O)Nc1cccc(C(=O)Nc2ccccc2O)c1

>  <score_type>  (12) 
oracle

>  <origin>  (12) 
adg

>  <m_score__min__energy>  (12) 
-17.789999999999999

>  <m_primary>  (12) 
energy

$$$$
12:0
     RDKit          3D

 57 61  0  0  0  0  0  0  0  0999 V2000
   54.3500   26.0590   45.9500 N   0  0  0  0  0  0  0  0  0  0  0  0
   55.5800   24.8450   45.9380 S   0  0  0  0  0  0  0  0  0  0  0  0
   55.3970   23.9630   44.7350 O   0  0  0  0  0  0  0  0  0  0  0  0
   55.4660   24.0010   47.1760 O   0  0  0  0  0  0  0  0  0  0  0  0
   57.1630   25.6130   45.8880 C   0  0  0  0  0  0  0  0  0  0  0  0
   58.3270   24.8510   46.0510 C   0  0  0  0  0  0  0  0  0  0  0  0
   59.5800   25.4630   45.9860 C   0  0  0  0  0  0  0  0  0  0  0  0
   59.6790   26.8380   45.7590 C   0  0  0  0  0  0  0  0  0  0  0  0
   58.5230   27.6200   45.6010 C   0  0  0  0  0  0  0  0  0  0  0  0
   58.6320   29.0360   45.3520 N   0  0  0  0  0  0  0  0  0  0  0  0
   58.1670   29.7170   44.1460 C   0  0  0  0  0  0  0  0  0  0  0  0
   58.3580   31.2310   44.4090 C   0  0  0  0  0  0  0  0  0  0  0  0
   58.9280   31.3390   45.7500 N   0  0  0  0  0  0  0  0  0  0  0  0
   59.1440   32.5740   46.4620 C   0  0  0  0  0  0  0  0  0  0  0  0
   59.2820   33.7900   45.7700 C   0  0  0  0  0  0  0  0  0  0  0  0
   59.5000   34.9790   46.4670 C   0  0  0  0  0  0  0  0  0  0  0  0
   59.6000   34.9700   47.8600 C   0  0  0  0  0  0  0  0  0  0  0  0
   59.4980   33.7630   48.5680 C   0  0  0  0  0  0  0  0  0  0  0  0
   59.6030   33.7510   50.0740 C   0  0  0  0  0  0  0  0  0  0  0  0
   58.9760   32.5120   50.6620 C   0  0  0  0  0  0  0  0  0  0  0  0
   57.6640   32.5670   51.0180 N   0  0  0  0  0  0  0  0  0  0  0  0
   57.0220   31.5150   51.5260 N   0  0  0  0  0  0  0  0  0  0  0  0
   57.6430   30.3240   51.7090 C   0  0  0  0  0  0  0  0  0  0  0  0
   57.0000   29.3610   52.2050 O   0  0  0  0  0  0  0  0  0  0  0  0
   58.9890   30.1840   51.3450 C   0  0  0  0  0  0  0  0  0  0  0  0
   59.6730   31.2920   50.8170 C   0  0  0  0  0  0  0  0  0  0  0  0
   61.1400   31.1140   50.4950 C   0  0  0  0  0  0  0  0  0  0  0  0
   61.3680   29.8010   49.7310 C   0  0  0  0  0  0  0  0  0  0  0  0
   60.6380   28.5760   50.3390 C   0  0  0  0  0  0  0  0  0  0  0  0
   59.7530   28.8980   51.5560 C   0  0  0  0  0  0  0  0  0  0  0  0
   59.2530   32.5710   47.8630 C   0  0  0  0  0  0  0  0  0  0  0  0
   59.1050   30.0250   46.2490 C   0  0  0  0  0  0  0  0  0  0  0  0
   59.7240   29.7620   47.3140 O   0  0  0  0  0  0  0  0  0  0  0  0
   57.2640   26.9910   45.6530 C   0  0  0  0  0  0  0  0  0  0  0  0
   54.7700   26.9150   46.3780 H   0  0  0  0  0  0  0  0  0  0  0  0
   58.2536   23.7682   46.2306 H   0  0  0  0  0  0  0  0  0  0  0  0
   60.4918   24.8611   46.1138 H   0  0  0  0  0  0  0  0  0  0  0  0
   60.6701   27.3119   45.7036 H   0  0  0  0  0  0  0  0  0  0  0  0
   58.7621   29.4023   43.2760 H   0  0  0  0  0  0  0  0  0  0  0  0
   57.1163   29.4759   43.9274 H   0  0  0  0  0  0  0  0  0  0  0  0
   59.0440   31.6642   43.6663 H   0  0  0  0  0  0  0  0  0  0  0  0
   57.4059   31.7763   44.3312 H   0  0  0  0  0  0  0  0  0  0  0  0
   59.2177   33.8042   44.6720 H   0  0  0  0  0  0  0  0  0  0  0  0
   59.5935   35.9271   45.9171 H   0  0  0  0  0  0  0  0  0  0  0  0
   59.7593   35.9127   48.4041 H   0  0  0  0  0  0  0  0  0  0  0  0
   60.6651   33.7835   50.3585 H   0  0  0  0  0  0  0  0  0  0  0  0
   59.0659   34.6280   50.4643 H   0  0  0  0  0  0  0  0  0  0  0  0
   61.4794   31.9570   49.8752 H   0  0  0  0  0  0  0  0  0  0  0  0
   61.7092   31.0815   51.4357 H   0  0  0  0  0  0  0  0  0  0  0  0
   61.0129   29.9366   48.6987 H   0  0  0  0  0  0  0  0  0  0  0  0
   62.4454   29.5862   49.7869 H   0  0  0  0  0  0  0  0  0  0  0  0
   60.0011   28.1339   49.5587 H   0  0  0  0  0  0  0  0  0  0  0  0
   61.4214   27.8909   50.6952 H   0  0  0  0  0  0  0  0  0  0  0  0
   59.0382   28.0759   51.7085 H   0  0  0  0  0  0  0  0  0  0  0  0
   60.3996   29.0153   52.4381 H   0  0  0  0  0  0  0  0  0  0  0  0
   59.1455   31.6254   48.4146 H   0  0  0  0  0  0  0  0  0  0  0  0
   56.3510   27.5871   45.5078 H   0  0  0  0  0  0  0  0  0  0  0  0
  1  2  1  0
  2  3  2  0
  2  4  2  0
  2  5  1  0
  5  6  2  0
  6  7  1  0
  7  8  2  0
  8  9  1  0
  9 10  1  0
 10 11  1  0
 11 12  1  0
 12 13  1  0
 13 14  1  0
 14 15  2  0
 15 16  1  0
 16 17  2  0
 17 18  1  0
 18 19  1  0
 19 20  1  0
 20 21  2  0
 21 22  1  0
 22 23  1  0
 23 24  2  0
 23 25  1  0
 25 26  2  0
 26 27  1  0
 27 28  1  0
 28 29  1  0
 29 30  1  0
 18 31  2  0
 13 32  1  0
 32 33  2  0
  9 34  2  0
 34  5  1  0
 32 10  1  0
 31 14  1  0
 26 20  1  0
 30 25  1  0
  1 35  1  0
  6 36  1  0
  7 37  1  0
  8 38  1  0
 11 39  1  0
 11 40  1  0
 12 41  1  0
 12 42  1  0
 15 43  1  0
 16 44  1  0
 17 45  1  0
 19 46  1  0
 19 47  1  0
 27 48  1  0
 27 49  1  0
 28 50  1  0
 28 51  1  0
 29 52  1  0
 29 53  1  0
 30 54  1  0
 30 55  1  0
 31 56  1  0
 34 57  1  0
M  CHG  2   1  -1  22  -1
M  END
>  <UniqueID>  (13) 
12

>  <SMILES>  (13) 
[NH-]S(=O)(=O)c1cccc(N2CCN(c3cccc(Cc4n[n-]c(=O)c5c4CCCC5)c3)C2=O)c1

>  <Energy>  (13) 
89.85826815541607

>  <Genealogy>  (13) 
[NH-]S(=O)(=O)c1cccc(N2CCN(c3cccc(Cc4n[n-]c(=O)c5c4CCCC5)c3)C2=O)c1 (protonated)
[NH-]S(=O)(=O)c1cccc(N2CCN(c3cccc(Cc4n[n-]c(=O)c5c4CCCC5)c3)C2=O)c1 (3D coordinates assigned)
[NH-]S(=O)(=O)c1cccc(N2CCN(c3cccc(Cc4n[n-]c(=O)c5c4CCCC5)c3)C2=O)c1 (nonaromatic ring conformer: 89.85826815541607 kcal/mol)

>  <smiles>  (13) 
NS(=O)(=O)c1cccc(N2CCN(c3cccc(Cc4n[nH]c(=O)c5c4CCCC5)c3)C2=O)c1

>  <score_type>  (13) 
oracle

>  <origin>  (13) 
adg

>  <m_score__min__energy>  (13) 
-14.43

>  <m_primary>  (13) 
energy

$$$$
13:0
     RDKit          3D

 64 68  0  0  0  0  0  0  0  0999 V2000
   54.3640   26.7160   46.7540 H   0  0  0  0  0  0  0  0  0  0  0  0
   54.5870   26.3120   45.8530 O   0  0  0  0  0  0  0  0  0  0  0  0
   54.2480   24.9950   45.5610 C   0  0  0  0  0  0  0  0  0  0  0  0
   52.9900   24.5250   45.5860 N   0  0  0  0  0  0  0  0  0  0  0  0
   53.1570   23.2140   45.3140 C   0  0  0  0  0  0  0  0  0  0  0  0
   52.1930   22.4070   45.2510 O   0  0  0  0  0  0  0  0  0  0  0  0
   54.4380   22.8330   45.1240 N   0  0  0  0  0  0  0  0  0  0  0  0
   55.1280   23.9790   45.2590 C   0  0  0  0  0  0  0  0  0  0  0  0
   56.6010   24.0460   45.2130 C   0  0  0  0  0  0  0  0  0  0  0  0
   57.1575   23.1052   45.0896 H   0  0  0  0  0  0  0  0  0  0  0  0
   57.3060   25.1900   45.3130 C   0  0  0  0  0  0  0  0  0  0  0  0
   57.7310   25.9920   44.2620 C   0  0  0  0  0  0  0  0  0  0  0  0
   57.5294   25.8341   43.1922 H   0  0  0  0  0  0  0  0  0  0  0  0
   58.4550   27.0250   44.8200 C   0  0  0  0  0  0  0  0  0  0  0  0
   59.1040   28.1280   44.0410 C   0  0  0  0  0  0  0  0  0  0  0  0
   59.5363   28.8627   44.7362 H   0  0  0  0  0  0  0  0  0  0  0  0
   59.9002   27.7101   43.4074 H   0  0  0  0  0  0  0  0  0  0  0  0
   58.3520   28.6210   43.4074 H   0  0  0  0  0  0  0  0  0  0  0  0
   58.4920   26.9040   46.1670 N   0  0  0  0  0  0  0  0  0  0  0  0
   59.1660   27.7960   47.0720 C   0  0  0  0  0  0  0  0  0  0  0  0
   59.9420   27.2840   48.1210 C   0  0  0  0  0  0  0  0  0  0  0  0
   60.0237   26.1962   48.2625 H   0  0  0  0  0  0  0  0  0  0  0  0
   60.6110   28.1500   48.9860 C   0  0  0  0  0  0  0  0  0  0  0  0
   61.2204   27.7433   49.8065 H   0  0  0  0  0  0  0  0  0  0  0  0
   60.5090   29.5330   48.8130 C   0  0  0  0  0  0  0  0  0  0  0  0
   61.0444   30.2103   49.4946 H   0  0  0  0  0  0  0  0  0  0  0  0
   59.7270   30.0630   47.7740 C   0  0  0  0  0  0  0  0  0  0  0  0
   59.6270   31.5270   47.5790 C   0  0  0  0  0  0  0  0  0  0  0  0
   58.9010   31.9820   46.6530 O   0  0  0  0  0  0  0  0  0  0  0  0
   60.3480   32.4400   48.4220 N   0  0  0  0  0  0  0  0  0  0  0  0
   60.9920   33.6150   47.8210 C   0  0  0  0  0  0  0  0  0  0  0  0
   61.1778   33.4143   46.7555 H   0  0  0  0  0  0  0  0  0  0  0  0
   60.3208   34.4773   47.9472 H   0  0  0  0  0  0  0  0  0  0  0  0
   62.3310   33.9420   48.5090 C   0  0  0  0  0  0  0  0  0  0  0  0
   63.1354   33.4197   47.9704 H   0  0  0  0  0  0  0  0  0  0  0  0
   62.4498   35.0352   48.4806 H   0  0  0  0  0  0  0  0  0  0  0  0
   62.3830   33.5170   50.0010 C   0  0  0  0  0  0  0  0  0  0  0  0
   62.8022   32.5004   50.0282 H   0  0  0  0  0  0  0  0  0  0  0  0
   63.3560   34.3800   50.8410 C   0  0  0  0  0  0  0  0  0  0  0  0
   63.3766   35.3923   50.4110 H   0  0  0  0  0  0  0  0  0  0  0  0
   62.9801   34.3603   51.8746 H   0  0  0  0  0  0  0  0  0  0  0  0
   64.7750   33.8570   50.8880 C   0  0  0  0  0  0  0  0  0  0  0  0
   65.7260   34.4510   51.7370 C   0  0  0  0  0  0  0  0  0  0  0  0
   65.4373   35.3007   52.3731 H   0  0  0  0  0  0  0  0  0  0  0  0
   67.0370   33.9660   51.7760 C   0  0  0  0  0  0  0  0  0  0  0  0
   67.7740   34.4304   52.4476 H   0  0  0  0  0  0  0  0  0  0  0  0
   67.4130   32.8930   50.9640 C   0  0  0  0  0  0  0  0  0  0  0  0
   68.4434   32.5097   51.0007 H   0  0  0  0  0  0  0  0  0  0  0  0
   66.4790   32.3070   50.1050 C   0  0  0  0  0  0  0  0  0  0  0  0
   66.7763   31.4659   49.4614 H   0  0  0  0  0  0  0  0  0  0  0  0
   65.1670   32.7890   50.0630 C   0  0  0  0  0  0  0  0  0  0  0  0
   64.4374   32.3294   49.3801 H   0  0  0  0  0  0  0  0  0  0  0  0
   60.9740   33.4360   50.6130 C   0  0  0  0  0  0  0  0  0  0  0  0
   61.0526   33.1685   51.6771 H   0  0  0  0  0  0  0  0  0  0  0  0
   60.4771   34.4122   50.5127 H   0  0  0  0  0  0  0  0  0  0  0  0
   60.1510   32.3700   49.8790 C   0  0  0  0  0  0  0  0  0  0  0  0
   60.4588   31.3751   50.2332 H   0  0  0  0  0  0  0  0  0  0  0  0
   59.0869   32.5512   50.0909 H   0  0  0  0  0  0  0  0  0  0  0  0
   59.0670   29.1850   46.8970 C   0  0  0  0  0  0  0  0  0  0  0  0
   58.4685   29.5895   46.0674 H   0  0  0  0  0  0  0  0  0  0  0  0
   57.7990   25.7810   46.4820 C   0  0  0  0  0  0  0  0  0  0  0  0
   57.5940   25.3530   47.7380 C   0  0  0  0  0  0  0  0  0  0  0  0
   58.0338   25.9008   48.5844 H   0  0  0  0  0  0  0  0  0  0  0  0
   56.9862   24.4545   47.9206 H   0  0  0  0  0  0  0  0  0  0  0  0
  1  2  1  0
  2  3  1  0
  3  4  1  0
  4  5  1  0
  5  6  2  0
  5  7  1  0
  7  8  1  0
  8  9  1  0
  9 10  1  0
  9 11  2  0
 11 12  1  0
 12 13  1  0
 12 14  2  0
 14 15  1  0
 15 16  1  0
 15 17  1  0
 15 18  1  0
 14 19  1  0
 19 20  1  0
 20 21  2  0
 21 22  1  0
 21 23  1  0
 23 24  1  0
 23 25  2  0
 25 26  1  0
 25 27  1  0
 27 28  1  0
 28 29  2  0
 28 30  1  0
 30 31  1  0
 31 32  1  0
 31 33  1  0
 31 34  1  0
 34 35  1  0
 34 36  1  0
 34 37  1  0
 37 38  1  0
 37 39  1  0
 39 40  1  0
 39 41  1  0
 39 42  1  0
 42 43  2  0
 43 44  1  0
 43 45  1  0
 45 46  1  0
 45 47  2  0
 47 48  1  0
 47 49  1  0
 49 50  1  0
 49 51  2  0
 51 52  1  0
 37 53  1  0
 53 54  1  0
 53 55  1  0
 53 56  1  0
 56 57  1  0
 56 58  1  0
 27 59  2  0
 59 60  1  0
 19 61  1  0
 61 62  2  0
 62 63  1  0
 62 64  1  0
  8  3  2  0
 61 11  1  0
 59 20  1  0
 56 30  1  0
 51 42  1  0
M  CHG  2   4  -1   7  -1
M  END
>  <UniqueID>  (14) 
13

>  <SMILES>  (14) 
C=c1/c(=C/c2[n-]c(=O)[n-]c2O)cc(C)n1-c1cccc(C(=O)N2CCC(Cc3ccccc3)CC2)c1

>  <Energy>  (14) 
145.8457131514768

>  <Genealogy>  (14) 
C=c1c(=Cc2[n-]c(=O)[n-]c2O)cc(C)n1-c1cccc(C(=O)N2CCC(Cc3ccccc3)CC2)c1 (protonated)
C=c1/c(=C/c2[n-]c(=O)[n-]c2O)cc(C)n1-c1cccc(C(=O)N2CCC(Cc3ccccc3)CC2)c1 (cis-trans isomerization)
C=c1/c(=C/c2[n-]c(=O)[n-]c2O)cc(C)n1-c1cccc(C(=O)N2CCC(Cc3ccccc3)CC2)c1 (3D coordinates assigned)
C=c1/c(=C/c2[n-]c(=O)[n-]c2O)cc(C)n1-c1cccc(C(=O)N2CCC(Cc3ccccc3)CC2)c1 (nonaromatic ring conformer: 145.8457131514768 kcal/mol)

>  <smiles>  (14) 
C=c1c(=Cc2[nH]c(=O)[nH]c2O)cc(C)n1-c1cccc(C(=O)N2CCC(Cc3ccccc3)CC2)c1

>  <score_type>  (14) 
oracle

>  <origin>  (14) 
adg

>  <m_score__min__energy>  (14) 
-15.43

>  <m_primary>  (14) 
energy

$$$$
14:0
     RDKit          3D

 59 62  0  0  0  0  0  0  0  0999 V2000
   55.2055   18.9974   46.0180 H   0  0  0  0  0  0  0  0  0  0  0  0
   55.1900   20.0870   45.8680 C   0  0  0  0  0  0  0  0  0  0  0  0
   54.0040   20.7500   45.8360 N   0  0  0  0  0  0  0  0  0  0  0  0
   53.9370   22.0990   45.6500 C   0  0  0  0  0  0  0  0  0  0  0  0
   52.7940   22.7230   45.6130 N   0  0  0  0  0  0  0  0  0  0  0  0
   52.5680   24.0950   45.2520 C   0  0  0  0  0  0  0  0  0  0  0  0
   53.4010   24.9940   45.5590 O   0  0  0  0  0  0  0  0  0  0  0  0
   51.3140   24.4340   44.4930 C   0  0  0  0  0  0  0  0  0  0  0  0
   51.0871   25.3339   45.0835 H   0  0  0  0  0  0  0  0  0  0  0  0
   51.3140   24.0980   43.0090 C   0  0  0  0  0  0  0  0  0  0  0  0
   50.7908   24.7531   42.2969 H   0  0  0  0  0  0  0  0  0  0  0  0
   52.0916   23.9006   42.2564 H   0  0  0  0  0  0  0  0  0  0  0  0
   50.5170   23.2420   43.9820 C   0  0  0  0  0  0  0  0  0  0  0  0
   49.4176   23.2783   43.9735 H   0  0  0  0  0  0  0  0  0  0  0  0
   50.4797   22.1697   44.2244 H   0  0  0  0  0  0  0  0  0  0  0  0
   55.1200   22.8310   45.4900 C   0  0  0  0  0  0  0  0  0  0  0  0
   55.0772   23.9183   45.3291 H   0  0  0  0  0  0  0  0  0  0  0  0
   56.3560   22.1780   45.5350 C   0  0  0  0  0  0  0  0  0  0  0  0
   57.5250   22.9330   45.3520 O   0  0  0  0  0  0  0  0  0  0  0  0
   57.5910   24.3320   45.2910 C   0  0  0  0  0  0  0  0  0  0  0  0
   57.5650   25.0580   46.4870 C   0  0  0  0  0  0  0  0  0  0  0  0
   57.4826   24.5267   47.4466 H   0  0  0  0  0  0  0  0  0  0  0  0
   57.6430   26.4540   46.4710 C   0  0  0  0  0  0  0  0  0  0  0  0
   57.6236   27.0140   47.4176 H   0  0  0  0  0  0  0  0  0  0  0  0
   57.7460   27.1450   45.2520 C   0  0  0  0  0  0  0  0  0  0  0  0
   57.8560   28.5780   45.2050 N   0  0  0  0  0  0  0  0  0  0  0  0
   58.8160   28.9850   45.2620 H   0  0  0  0  0  0  0  0  0  0  0  0
   56.7460   29.4680   44.9900 C   0  0  0  0  0  0  0  0  0  0  0  0
   55.5740   29.0190   44.8910 O   0  0  0  0  0  0  0  0  0  0  0  0
   56.9450   30.8840   44.9150 N   0  0  0  0  0  0  0  0  0  0  0  0
   58.0370   31.6090   45.4990 C   0  0  0  0  0  0  0  0  0  0  0  0
   58.1580   32.9990   45.3460 C   0  0  0  0  0  0  0  0  0  0  0  0
   57.4132   33.5487   44.7518 H   0  0  0  0  0  0  0  0  0  0  0  0
   59.2220   33.6950   45.9450 C   0  0  0  0  0  0  0  0  0  0  0  0
   59.3640   35.1570   45.7640 C   0  0  0  0  0  0  0  0  0  0  0  0
   59.6160   35.9040   46.7460 O   0  0  0  0  0  0  0  0  0  0  0  0
   59.2220   35.7280   44.5040 O   0  0  0  0  0  0  0  0  0  0  0  0
   60.1510   32.9840   46.7250 C   0  0  0  0  0  0  0  0  0  0  0  0
   60.9965   33.5169   47.1844 H   0  0  0  0  0  0  0  0  0  0  0  0
   60.0110   31.6000   46.9240 C   0  0  0  0  0  0  0  0  0  0  0  0
   60.9900   30.8520   47.7470 C   0  0  0  0  0  0  0  0  0  0  0  0
   62.2110   30.8900   47.4300 O   0  0  0  0  0  0  0  0  0  0  0  0
   60.5870   30.0970   48.9050 N   0  0  0  0  0  0  0  0  0  0  0  0
   59.3210   29.3610   48.9370 C   0  0  0  0  0  0  0  0  0  0  0  0
   59.0237   29.1881   49.9819 H   0  0  0  0  0  0  0  0  0  0  0  0
   58.5429   29.9475   48.4266 H   0  0  0  0  0  0  0  0  0  0  0  0
   59.4457   28.3946   48.4266 H   0  0  0  0  0  0  0  0  0  0  0  0
   61.4830   30.0280   50.0610 C   0  0  0  0  0  0  0  0  0  0  0  0
   60.8910   30.0736   50.9870 H   0  0  0  0  0  0  0  0  0  0  0  0
   62.0466   29.0838   50.0322 H   0  0  0  0  0  0  0  0  0  0  0  0
   62.1845   30.8748   50.0322 H   0  0  0  0  0  0  0  0  0  0  0  0
   58.9520   30.9220   46.3010 C   0  0  0  0  0  0  0  0  0  0  0  0
   58.8409   29.8372   46.4457 H   0  0  0  0  0  0  0  0  0  0  0  0
   57.8180   26.4140   44.0570 C   0  0  0  0  0  0  0  0  0  0  0  0
   57.9367   26.9427   43.0997 H   0  0  0  0  0  0  0  0  0  0  0  0
   57.7400   25.0190   44.0740 C   0  0  0  0  0  0  0  0  0  0  0  0
   57.7955   24.4560   43.1306 H   0  0  0  0  0  0  0  0  0  0  0  0
   56.3880   20.7850   45.7110 C   0  0  0  0  0  0  0  0  0  0  0  0
   57.3486   20.2492   45.7249 H   0  0  0  0  0  0  0  0  0  0  0  0
  1  2  1  0
  2  3  1  0
  3  4  1  0
  4  5  2  0
  5  6  1  0
  6  7  2  0
  6  8  1  0
  8  9  1  0
  8 10  1  0
 10 11  1  0
 10 12  1  0
 10 13  1  0
 13 14  1  0
 13 15  1  0
  4 16  1  0
 16 17  1  0
 16 18  2  0
 18 19  1  0
 19 20  1  0
 20 21  2  0
 21 22  1  0
 21 23  1  0
 23 24  1  0
 23 25  2  0
 25 26  1  0
 26 27  1  0
 26 28  1  0
 28 29  2  0
 28 30  1  0
 30 31  1  0
 31 32  2  0
 32 33  1  0
 32 34  1  0
 34 35  1  0
 35 36  2  0
 35 37  1  0
 34 38  2  0
 38 39  1  0
 38 40  1  0
 40 41  1  0
 41 42  2  0
 41 43  1  0
 43 44  1  0
 44 45  1  0
 44 46  1  0
 44 47  1  0
 43 48  1  0
 48 49  1  0
 48 50  1  0
 48 51  1  0
 40 52  2  0
 52 53  1  0
 25 54  1  0
 54 55  1  0
 54 56  2  0
 56 57  1  0
 18 58  1  0
 58 59  1  0
 58  2  2  0
 13  8  1  0
 56 20  1  0
 52 31  1  0
M  CHG  3   3  -1  30  -1  37  -1
M  END
>  <UniqueID>  (15) 
14

>  <SMILES>  (15) 
CN(C)C(=O)c1cc([N-]C(=O)Nc2ccc(Oc3cc[n-]/c(=N\C(=O)C4CC4)c3)cc2)cc(C(=O)[O-])c1

>  <Energy>  (15) 
348.46830964538105

>  <Genealogy>  (15) 
CN(C)C(=O)c1cc([N-]C(=O)Nc2ccc(Oc3cc[n-]c(=NC(=O)C4CC4)c3)cc2)cc(C(=O)[O-])c1 (protonated)
CN(C)C(=O)c1cc([N-]C(=O)Nc2ccc(Oc3cc[n-]/c(=N\C(=O)C4CC4)c3)cc2)cc(C(=O)[O-])c1 (cis-trans isomerization)
CN(C)C(=O)c1cc([N-]C(=O)Nc2ccc(Oc3cc[n-]/c(=N\C(=O)C4CC4)c3)cc2)cc(C(=O)[O-])c1 (3D coordinates assigned)
CN(C)C(=O)c1cc([N-]C(=O)Nc2ccc(Oc3cc[n-]/c(=N\C(=O)C4CC4)c3)cc2)cc(C(=O)[O-])c1 (nonaromatic ring conformer: 348.46830964538105 kcal/mol)

>  <smiles>  (15) 
CN(C)C(=O)c1cc(NC(=O)Nc2ccc(Oc3cc[nH]c(=NC(=O)C4CC4)c3)cc2)cc(C(=O)O)c1

>  <score_type>  (15) 
oracle

>  <origin>  (15) 
adg

>  <m_score__min__energy>  (15) 
-14.49

>  <m_primary>  (15) 
energy

$$$$
15:0
     RDKit          3D

 47 49  0  0  0  0  0  0  0  0999 V2000
   57.6043   21.1697   42.8346 H   0  0  0  0  0  0  0  0  0  0  0  0
   57.2200   21.9240   43.5370 C   0  0  0  0  0  0  0  0  0  0  0  0
   55.8840   22.0280   43.7550 N   0  0  0  0  0  0  0  0  0  0  0  0
   55.3560   22.9450   44.6110 C   0  0  0  0  0  0  0  0  0  0  0  0
   54.0620   22.9730   44.7690 N   0  0  0  0  0  0  0  0  0  0  0  0
   53.2370   24.1050   45.0900 C   0  0  0  0  0  0  0  0  0  0  0  0
   53.7650   25.1130   45.6280 O   0  0  0  0  0  0  0  0  0  0  0  0
   51.7900   24.1650   44.7010 C   0  0  0  0  0  0  0  0  0  0  0  0
   51.1674   24.1908   45.6075 H   0  0  0  0  0  0  0  0  0  0  0  0
   51.6078   25.0715   44.1051 H   0  0  0  0  0  0  0  0  0  0  0  0
   51.5334   23.2767   44.1051 H   0  0  0  0  0  0  0  0  0  0  0  0
   56.2220   23.8440   45.2670 C   0  0  0  0  0  0  0  0  0  0  0  0
   55.8118   24.6279   45.9206 H   0  0  0  0  0  0  0  0  0  0  0  0
   57.6100   23.7350   45.0830 C   0  0  0  0  0  0  0  0  0  0  0  0
   58.5130   24.5980   45.7230 O   0  0  0  0  0  0  0  0  0  0  0  0
   58.4710   25.9990   45.6670 C   0  0  0  0  0  0  0  0  0  0  0  0
   57.2260   26.6370   45.6560 C   0  0  0  0  0  0  0  0  0  0  0  0
   56.3044   26.0366   45.6710 H   0  0  0  0  0  0  0  0  0  0  0  0
   57.1450   28.0330   45.6260 C   0  0  0  0  0  0  0  0  0  0  0  0
   56.1608   28.5243   45.6180 H   0  0  0  0  0  0  0  0  0  0  0  0
   58.3170   28.8120   45.6060 C   0  0  0  0  0  0  0  0  0  0  0  0
   58.2640   30.2480   45.5750 N   0  0  0  0  0  0  0  0  0  0  0  0
   58.9130   30.7760   46.2020 H   0  0  0  0  0  0  0  0  0  0  0  0
   57.2720   31.0010   44.8590 C   0  0  0  0  0  0  0  0  0  0  0  0
   56.1960   30.4520   44.4990 O   0  0  0  0  0  0  0  0  0  0  0  0
   57.4340   32.4070   44.6410 N   0  0  0  0  0  0  0  0  0  0  0  0
   58.2090   33.2980   45.4540 C   0  0  0  0  0  0  0  0  0  0  0  0
   58.8540   34.3800   44.8460 C   0  0  0  0  0  0  0  0  0  0  0  0
   58.7489   34.5413   43.7630 H   0  0  0  0  0  0  0  0  0  0  0  0
   59.6310   35.2570   45.6070 C   0  0  0  0  0  0  0  0  0  0  0  0
   60.1239   36.1133   45.1234 H   0  0  0  0  0  0  0  0  0  0  0  0
   59.7840   35.0500   46.9800 C   0  0  0  0  0  0  0  0  0  0  0  0
   60.3876   35.7498   47.5767 H   0  0  0  0  0  0  0  0  0  0  0  0
   59.1670   33.9470   47.6020 C   0  0  0  0  0  0  0  0  0  0  0  0
   59.3020   33.6760   48.9740 O   0  0  0  0  0  0  0  0  0  0  0  0
   59.1660   32.3900   49.5770 C   0  0  0  0  0  0  0  0  0  0  0  0
   57.8270   32.0710   49.7240 F   0  0  0  0  0  0  0  0  0  0  0  0
   59.7610   31.4490   48.7590 F   0  0  0  0  0  0  0  0  0  0  0  0
   59.7960   32.3710   50.8100 F   0  0  0  0  0  0  0  0  0  0  0  0
   58.3880   33.0740   46.8310 C   0  0  0  0  0  0  0  0  0  0  0  0
   57.9116   32.2046   47.3075 H   0  0  0  0  0  0  0  0  0  0  0  0
   59.5630   28.1690   45.5570 C   0  0  0  0  0  0  0  0  0  0  0  0
   60.4844   28.7668   45.4969 H   0  0  0  0  0  0  0  0  0  0  0  0
   59.6410   26.7750   45.5840 C   0  0  0  0  0  0  0  0  0  0  0  0
   60.6229   26.2812   45.5401 H   0  0  0  0  0  0  0  0  0  0  0  0
   58.1070   22.7720   44.2020 C   0  0  0  0  0  0  0  0  0  0  0  0
   59.1903   22.6824   44.0333 H   0  0  0  0  0  0  0  0  0  0  0  0
  1  2  1  0
  2  3  1  0
  3  4  1  0
  4  5  2  0
  5  6  1  0
  6  7  2  0
  6  8  1  0
  8  9  1  0
  8 10  1  0
  8 11  1  0
  4 12  1  0
 12 13  1  0
 12 14  2  0
 14 15  1  0
 15 16  1  0
 16 17  2  0
 17 18  1  0
 17 19  1  0
 19 20  1  0
 19 21  2  0
 21 22  1  0
 22 23  1  0
 22 24  1  0
 24 25  2  0
 24 26  1  0
 26 27  1  0
 27 28  2  0
 28 29  1  0
 28 30  1  0
 30 31  1  0
 30 32  2  0
 32 33  1  0
 32 34  1  0
 34 35  1  0
 35 36  1  0
 36 37  1  0
 36 38  1  0
 36 39  1  0
 34 40  2  0
 40 41  1  0
 21 42  1  0
 42 43  1  0
 42 44  2  0
 44 45  1  0
 14 46  1  0
 46 47  1  0
 46  2  2  0
 44 16  1  0
 40 27  1  0
M  CHG  2   3  -1  26  -1
M  END
>  <UniqueID>  (16) 
15

>  <SMILES>  (16) 
CC(=O)/N=c1\cc(Oc2ccc(NC(=O)[N-]c3cccc(OC(F)(F)F)c3)cc2)cc[n-]1

>  <Energy>  (16) 
70.76728447287184

>  <Genealogy>  (16) 
CC(=O)N=c1cc(Oc2ccc(NC(=O)[N-]c3cccc(OC(F)(F)F)c3)cc2)cc[n-]1 (protonated)
CC(=O)/N=c1\cc(Oc2ccc(NC(=O)[N-]c3cccc(OC(F)(F)F)c3)cc2)cc[n-]1 (cis-trans isomerization)
CC(=O)/N=c1\cc(Oc2ccc(NC(=O)[N-]c3cccc(OC(F)(F)F)c3)cc2)cc[n-]1 (3D coordinates assigned)
CC(=O)/N=c1\cc(Oc2ccc(NC(=O)[N-]c3cccc(OC(F)(F)F)c3)cc2)cc[n-]1 (optimized conformer: 70.76728447287184 kcal/mol)

>  <smiles>  (16) 
CC(=O)N=c1cc(Oc2ccc(NC(=O)Nc3cccc(OC(F)(F)F)c3)cc2)cc[nH]1

>  <score_type>  (16) 
oracle

>  <origin>  (16) 
adg

>  <m_score__min__energy>  (16) 
-11.15

>  <m_primary>  (16) 
energy

$$$$
16:0
     RDKit          3D

 47 48  0  0  0  0  0  0  0  0999 V2000
   58.7247   30.2942   52.3610 H   0  0  0  0  0  0  0  0  0  0  0  0
   58.2270   31.0060   51.6860 C   0  0  0  0  0  0  0  0  0  0  0  0
   56.8020   31.3080   51.9010 C   0  0  0  0  0  0  0  0  0  0  0  0
   56.4470   32.4190   52.3820 O   0  0  0  0  0  0  0  0  0  0  0  0
   55.8330   30.2920   51.6170 N   0  0  0  0  0  0  0  0  0  0  0  0
   54.4400   30.2930   51.9720 C   0  0  0  0  0  0  0  0  0  0  0  0
   53.5610   31.2590   51.4490 C   0  0  0  0  0  0  0  0  0  0  0  0
   53.9463   32.0317   50.7675 H   0  0  0  0  0  0  0  0  0  0  0  0
   52.1990   31.2490   51.7860 C   0  0  0  0  0  0  0  0  0  0  0  0
   51.2860   32.2760   51.2370 C   0  0  0  0  0  0  0  0  0  0  0  0
   50.7410   33.1180   51.9980 O   0  0  0  0  0  0  0  0  0  0  0  0
   51.0220   32.3290   49.8720 O   0  0  0  0  0  0  0  0  0  0  0  0
   51.7160   30.2490   52.6400 C   0  0  0  0  0  0  0  0  0  0  0  0
   50.6511   30.2336   52.9151 H   0  0  0  0  0  0  0  0  0  0  0  0
   52.5750   29.2730   53.1440 C   0  0  0  0  0  0  0  0  0  0  0  0
   52.1778   28.4893   53.8058 H   0  0  0  0  0  0  0  0  0  0  0  0
   53.9420   29.2780   52.8170 C   0  0  0  0  0  0  0  0  0  0  0  0
   54.8340   28.2600   53.3170 N   0  0  0  0  0  0  0  0  0  0  0  0
   55.8640   28.3850   53.2150 H   0  0  0  0  0  0  0  0  0  0  0  0
   54.3400   26.8460   54.1980 S   0  0  0  0  0  0  0  0  0  0  0  0
   53.6710   27.2910   55.4700 O   0  0  0  0  0  0  0  0  0  0  0  0
   53.3490   26.0470   53.3950 O   0  0  0  0  0  0  0  0  0  0  0  0
   55.7560   25.8450   54.6150 C   0  0  0  0  0  0  0  0  0  0  0  0
   55.5840   24.5560   54.1410 F   0  0  0  0  0  0  0  0  0  0  0  0
   55.9020   25.8080   55.9880 F   0  0  0  0  0  0  0  0  0  0  0  0
   56.8940   26.3940   54.0520 F   0  0  0  0  0  0  0  0  0  0  0  0
   58.9400   31.5650   50.7000 C   0  0  0  0  0  0  0  0  0  0  0  0
   59.3992   32.5503   50.8684 H   0  0  0  0  0  0  0  0  0  0  0  0
   59.1300   30.9030   49.3950 C   0  0  0  0  0  0  0  0  0  0  0  0
   58.5050   29.8420   49.1150 O   0  0  0  0  0  0  0  0  0  0  0  0
   60.0410   31.5110   48.3680 C   0  0  0  0  0  0  0  0  0  0  0  0
   60.5432   30.7082   47.8082 H   0  0  0  0  0  0  0  0  0  0  0  0
   60.7861   32.1387   48.8787 H   0  0  0  0  0  0  0  0  0  0  0  0
   59.2520   32.3700   47.4070 C   0  0  0  0  0  0  0  0  0  0  0  0
   58.4990   31.7350   46.4020 C   0  0  0  0  0  0  0  0  0  0  0  0
   58.4886   30.6366   46.3431 H   0  0  0  0  0  0  0  0  0  0  0  0
   57.7660   32.4810   45.4800 C   0  0  0  0  0  0  0  0  0  0  0  0
   57.1802   31.9704   44.7015 H   0  0  0  0  0  0  0  0  0  0  0  0
   57.7750   33.8710   45.5440 C   0  0  0  0  0  0  0  0  0  0  0  0
   57.1889   34.4566   44.8204 H   0  0  0  0  0  0  0  0  0  0  0  0
   58.5250   34.5250   46.5230 C   0  0  0  0  0  0  0  0  0  0  0  0
   58.5265   35.6242   46.5653 H   0  0  0  0  0  0  0  0  0  0  0  0
   59.2790   33.7900   47.4560 C   0  0  0  0  0  0  0  0  0  0  0  0
   60.0690   34.5340   48.5020 C   0  0  0  0  0  0  0  0  0  0  0  0
   59.7372   34.2216   49.5032 H   0  0  0  0  0  0  0  0  0  0  0  0
   61.1389   34.3079   48.3831 H   0  0  0  0  0  0  0  0  0  0  0  0
   59.9074   35.6156   48.3831 H   0  0  0  0  0  0  0  0  0  0  0  0
  1  2  1  0
  2  3  1  0
  3  4  2  0
  3  5  1  0
  5  6  1  0
  6  7  2  0
  7  8  1  0
  7  9  1  0
  9 10  1  0
 10 11  2  0
 10 12  1  0
  9 13  2  0
 13 14  1  0
 13 15  1  0
 15 16  1  0
 15 17  2  0
 17 18  1  0
 18 19  1  0
 18 20  1  0
 20 21  2  0
 20 22  2  0
 20 23  1  0
 23 24  1  0
 23 25  1  0
 23 26  1  0
  2 27  2  0
 27 28  1  0
 27 29  1  0
 29 30  2  0
 29 31  1  0
 31 32  1  0
 31 33  1  0
 31 34  1  0
 34 35  2  0
 35 36  1  0
 35 37  1  0
 37 38  1  0
 37 39  2  0
 39 40  1  0
 39 41  1  0
 41 42  1  0
 41 43  2  0
 43 44  1  0
 44 45  1  0
 44 46  1  0
 44 47  1  0
 17  6  1  0
 43 34  1  0
M  CHG  2   5  -1  12  -1
M  END
>  <UniqueID>  (17) 
16

>  <SMILES>  (17) 
Cc1ccccc1CC(=O)/C=C/C(=O)[N-]c1cc(C(=O)[O-])ccc1NS(=O)(=O)C(F)(F)F

>  <Energy>  (17) 
50.26358894794963

>  <Genealogy>  (17) 
Cc1ccccc1CC(=O)C=CC(=O)[N-]c1cc(C(=O)[O-])ccc1NS(=O)(=O)C(F)(F)F (protonated)
Cc1ccccc1CC(=O)/C=C/C(=O)[N-]c1cc(C(=O)[O-])ccc1NS(=O)(=O)C(F)(F)F (cis-trans isomerization)
Cc1ccccc1CC(=O)/C=C/C(=O)[N-]c1cc(C(=O)[O-])ccc1NS(=O)(=O)C(F)(F)F (3D coordinates assigned)
Cc1ccccc1CC(=O)/C=C/C(=O)[N-]c1cc(C(=O)[O-])ccc1NS(=O)(=O)C(F)(F)F (optimized conformer: 50.26358894794963 kcal/mol)

>  <smiles>  (17) 
Cc1ccccc1CC(=O)C=CC(=O)Nc1cc(C(=O)O)ccc1NS(=O)(=O)C(F)(F)F

>  <score_type>  (17) 
oracle

>  <origin>  (17) 
adg

>  <m_score__min__energy>  (17) 
-12.4

>  <m_primary>  (17) 
energy

$$$$
17:0
     RDKit          3D

 35 37  0  0  0  0  0  0  0  0999 V2000
   62.7690   32.8180   48.0340 C   0  0  0  0  0  0  0  0  0  0  0  0
   61.3580   32.6760   47.7050 N   0  0  0  0  0  0  0  0  0  0  0  0
   60.4190   33.7460   47.5780 C   0  0  0  0  0  0  0  0  0  0  0  0
   60.5980   34.9050   48.0400 O   0  0  0  0  0  0  0  0  0  0  0  0
   59.2570   33.3090   46.8120 C   0  0  0  0  0  0  0  0  0  0  0  0
   58.1070   33.9950   46.4290 C   0  0  0  0  0  0  0  0  0  0  0  0
   57.1580   33.3110   45.6530 C   0  0  0  0  0  0  0  0  0  0  0  0
   57.3640   31.9580   45.2860 C   0  0  0  0  0  0  0  0  0  0  0  0
   56.4100   31.2650   44.4750 N   0  0  0  0  0  0  0  0  0  0  0  0
   56.2370   29.8420   44.4330 C   0  0  0  0  0  0  0  0  0  0  0  0
   55.1750   29.3480   44.8930 O   0  0  0  0  0  0  0  0  0  0  0  0
   57.2360   28.9420   43.7530 C   0  0  0  0  0  0  0  0  0  0  0  0
   58.1490   28.2540   44.7380 C   0  0  0  0  0  0  0  0  0  0  0  0
   59.5410   28.4360   44.6690 C   0  0  0  0  0  0  0  0  0  0  0  0
   60.3830   27.8100   45.5930 C   0  0  0  0  0  0  0  0  0  0  0  0
   59.8430   27.0070   46.6000 C   0  0  0  0  0  0  0  0  0  0  0  0
   58.4590   26.8350   46.6910 C   0  0  0  0  0  0  0  0  0  0  0  0
   57.9350   26.0630   47.6740 F   0  0  0  0  0  0  0  0  0  0  0  0
   57.6130   27.4620   45.7700 C   0  0  0  0  0  0  0  0  0  0  0  0
   58.5550   31.3040   45.6560 C   0  0  0  0  0  0  0  0  0  0  0  0
   59.4770   32.0030   46.4310 C   0  0  0  0  0  0  0  0  0  0  0  0
   60.7790   31.6050   46.9550 C   0  0  0  0  0  0  0  0  0  0  0  0
   61.3390   30.4940   46.7580 O   0  0  0  0  0  0  0  0  0  0  0  0
   62.8912   32.8303   49.1271 H   0  0  0  0  0  0  0  0  0  0  0  0
   63.3309   31.9719   47.6117 H   0  0  0  0  0  0  0  0  0  0  0  0
   63.1511   33.7591   47.6117 H   0  0  0  0  0  0  0  0  0  0  0  0
   57.9471   35.0420   46.7259 H   0  0  0  0  0  0  0  0  0  0  0  0
   56.2451   33.8307   45.3265 H   0  0  0  0  0  0  0  0  0  0  0  0
   56.6910   28.1765   43.1813 H   0  0  0  0  0  0  0  0  0  0  0  0
   57.8589   29.5662   43.0954 H   0  0  0  0  0  0  0  0  0  0  0  0
   59.9705   29.0748   43.8832 H   0  0  0  0  0  0  0  0  0  0  0  0
   61.4720   27.9501   45.5268 H   0  0  0  0  0  0  0  0  0  0  0  0
   60.5074   26.5096   47.3220 H   0  0  0  0  0  0  0  0  0  0  0  0
   56.5235   27.3352   45.8531 H   0  0  0  0  0  0  0  0  0  0  0  0
   58.7518   30.2685   45.3412 H   0  0  0  0  0  0  0  0  0  0  0  0
  1  2  1  0
  2  3  1  0
  3  4  2  0
  3  5  1  0
  5  6  2  0
  6  7  1  0
  7  8  2  0
  8  9  1  0
  9 10  1  0
 10 11  2  0
 10 12  1  0
 12 13  1  0
 13 14  2  0
 14 15  1  0
 15 16  2  0
 16 17  1  0
 17 18  1  0
 17 19  2  0
  8 20  1  0
 20 21  2  0
 21 22  1  0
 22 23  2  0
 22  2  1  0
 21  5  1  0
 19 13  1  0
  1 24  1  0
  1 25  1  0
  1 26  1  0
  6 27  1  0
  7 28  1  0
 12 29  1  0
 12 30  1  0
 14 31  1  0
 15 32  1  0
 16 33  1  0
 19 34  1  0
 20 35  1  0
M  CHG  1   9  -1
M  END
>  <UniqueID>  (18) 
17

>  <SMILES>  (18) 
CN1C(=O)c2ccc([N-]C(=O)Cc3cccc(F)c3)cc2C1=O

>  <Energy>  (18) 
72.9790875107655

>  <Genealogy>  (18) 
CN1C(=O)c2ccc([N-]C(=O)Cc3cccc(F)c3)cc2C1=O (protonated)
CN1C(=O)c2ccc([N-]C(=O)Cc3cccc(F)c3)cc2C1=O (3D coordinates assigned)
CN1C(=O)c2ccc([N-]C(=O)Cc3cccc(F)c3)cc2C1=O (nonaromatic ring conformer: 72.9790875107655 kcal/mol)

>  <smiles>  (18) 
CN1C(=O)c2ccc(NC(=O)Cc3cccc(F)c3)cc2C1=O

>  <score_type>  (18) 
oracle

>  <origin>  (18) 
adg

>  <m_score__min__energy>  (18) 
-9.4000000000000004

>  <m_primary>  (18) 
energy

$$$$
18:0
     RDKit          3D

 46 48  0  0  0  0  0  0  0  0999 V2000
   56.2550   22.3340   43.8130 C   0  0  0  0  0  0  0  0  0  0  0  0
   56.5720   23.5470   44.6270 C   0  0  0  0  0  0  0  0  0  0  0  0
   57.8860   23.8140   45.0210 C   0  0  0  0  0  0  0  0  0  0  0  0
   58.1560   24.9550   45.7750 C   0  0  0  0  0  0  0  0  0  0  0  0
   57.1210   25.8330   46.1290 C   0  0  0  0  0  0  0  0  0  0  0  0
   57.4280   27.0380   46.9840 C   0  0  0  0  0  0  0  0  0  0  0  0
   58.8340   27.3990   46.8400 N   0  0  0  0  0  0  0  0  0  0  0  0
   59.3320   28.2130   45.7720 C   0  0  0  0  0  0  0  0  0  0  0  0
   60.5670   28.2050   45.5100 O   0  0  0  0  0  0  0  0  0  0  0  0
   58.3840   28.9940   44.9370 C   0  0  0  0  0  0  0  0  0  0  0  0
   58.0310   30.2860   45.3700 C   0  0  0  0  0  0  0  0  0  0  0  0
   57.0380   31.0200   44.7150 C   0  0  0  0  0  0  0  0  0  0  0  0
   56.6490   32.2930   45.2320 N   0  0  0  0  0  0  0  0  0  0  0  0
   57.3750   33.5100   45.0270 C   0  0  0  0  0  0  0  0  0  0  0  0
   56.7340   34.5850   44.8990 O   0  0  0  0  0  0  0  0  0  0  0  0
   58.8740   33.5300   44.8910 C   0  0  0  0  0  0  0  0  0  0  0  0
   59.5310   33.7560   46.2190 C   0  0  0  0  0  0  0  0  0  0  0  0
   58.8770   34.0070   47.4180 C   0  0  0  0  0  0  0  0  0  0  0  0
   59.7520   34.2150   48.4910 C   0  0  0  0  0  0  0  0  0  0  0  0
   61.0940   34.1320   48.1420 C   0  0  0  0  0  0  0  0  0  0  0  0
   61.1900   33.7820   46.5000 S   0  0  0  0  0  0  0  0  0  0  0  0
   56.4300   30.4970   43.5720 C   0  0  0  0  0  0  0  0  0  0  0  0
   56.7980   29.2360   43.0970 C   0  0  0  0  0  0  0  0  0  0  0  0
   57.7740   28.4730   43.7630 C   0  0  0  0  0  0  0  0  0  0  0  0
   58.1280   27.1200   43.2050 C   0  0  0  0  0  0  0  0  0  0  0  0
   55.8120   25.5330   45.7020 C   0  0  0  0  0  0  0  0  0  0  0  0
   54.8480   26.2880   45.9960 O   0  0  0  0  0  0  0  0  0  0  0  0
   55.5780   24.4140   44.9660 N   0  0  0  0  0  0  0  0  0  0  0  0
   56.0345   21.4901   44.4832 H   0  0  0  0  0  0  0  0  0  0  0  0
   55.3797   22.5367   43.1784 H   0  0  0  0  0  0  0  0  0  0  0  0
   57.1176   22.0826   43.1784 H   0  0  0  0  0  0  0  0  0  0  0  0
   58.6999   23.1300   44.7387 H   0  0  0  0  0  0  0  0  0  0  0  0
   59.1869   25.1681   46.0943 H   0  0  0  0  0  0  0  0  0  0  0  0
   56.7994   27.8823   46.6648 H   0  0  0  0  0  0  0  0  0  0  0  0
   57.2197   26.7993   48.0374 H   0  0  0  0  0  0  0  0  0  0  0  0
   58.5449   30.7251   46.2378 H   0  0  0  0  0  0  0  0  0  0  0  0
   59.2110   32.5659   44.4824 H   0  0  0  0  0  0  0  0  0  0  0  0
   59.1537   34.3532   44.2171 H   0  0  0  0  0  0  0  0  0  0  0  0
   57.7818   34.0392   47.5150 H   0  0  0  0  0  0  0  0  0  0  0  0
   59.4088   34.4246   49.5149 H   0  0  0  0  0  0  0  0  0  0  0  0
   61.9470   34.2712   48.8225 H   0  0  0  0  0  0  0  0  0  0  0  0
   55.6598   31.0790   43.0447 H   0  0  0  0  0  0  0  0  0  0  0  0
   56.3189   28.8351   42.1916 H   0  0  0  0  0  0  0  0  0  0  0  0
   58.3115   26.4187   44.0324 H   0  0  0  0  0  0  0  0  0  0  0  0
   57.2967   26.7491   42.5875 H   0  0  0  0  0  0  0  0  0  0  0  0
   59.0345   27.2038   42.5875 H   0  0  0  0  0  0  0  0  0  0  0  0
  1  2  1  0
  2  3  2  0
  3  4  1  0
  4  5  2  0
  5  6  1  0
  6  7  1  0
  7  8  1  0
  8  9  2  0
  8 10  1  0
 10 11  2  0
 11 12  1  0
 12 13  1  0
 13 14  1  0
 14 15  2  0
 14 16  1  0
 16 17  1  0
 17 18  2  0
 18 19  1  0
 19 20  2  0
 20 21  1  0
 12 22  2  0
 22 23  1  0
 23 24  2  0
 24 25  1  0
  5 26  1  0
 26 27  2  0
 26 28  1  0
 28  2  1  0
 24 10  1  0
 21 17  1  0
  1 29  1  0
  1 30  1  0
  1 31  1  0
  3 32  1  0
  4 33  1  0
  6 34  1  0
  6 35  1  0
 11 36  1  0
 16 37  1  0
 16 38  1  0
 18 39  1  0
 19 40  1  0
 20 41  1  0
 22 42  1  0
 23 43  1  0
 25 44  1  0
 25 45  1  0
 25 46  1  0
M  CHG  3   7  -1  13  -1  28  -1
M  END
>  <UniqueID>  (19) 
18

>  <SMILES>  (19) 
Cc1ccc(C[N-]C(=O)c2cc([N-]C(=O)Cc3cccs3)ccc2C)c(=O)[n-]1

>  <Energy>  (19) 
77.16558227775744

>  <Genealogy>  (19) 
Cc1ccc(C[N-]C(=O)c2cc([N-]C(=O)Cc3cccs3)ccc2C)c(=O)[n-]1 (protonated)
Cc1ccc(C[N-]C(=O)c2cc([N-]C(=O)Cc3cccs3)ccc2C)c(=O)[n-]1 (3D coordinates assigned)
Cc1ccc(C[N-]C(=O)c2cc([N-]C(=O)Cc3cccs3)ccc2C)c(=O)[n-]1 (optimized conformer: 77.16558227775744 kcal/mol)

>  <smiles>  (19) 
Cc1ccc(CNC(=O)c2cc(NC(=O)Cc3cccs3)ccc2C)c(=O)[nH]1

>  <score_type>  (19) 
oracle

>  <origin>  (19) 
adg

>  <m_score__min__energy>  (19) 
-13.81

>  <m_primary>  (19) 
energy

$$$$
19:0
     RDKit          3D

 47 49  0  0  0  0  0  0  0  0999 V2000
   58.8520   29.8510   48.2260 C   0  0  0  0  0  0  0  0  0  0  0  0
   59.9550   30.8240   48.2610 N   0  0  0  0  0  0  0  0  0  0  0  0
   61.1140   30.2360   48.9530 C   0  0  0  0  0  0  0  0  0  0  0  0
   60.3140   31.2400   46.8890 C   0  0  0  0  0  0  0  0  0  0  0  0
   59.2250   32.1230   46.2950 C   0  0  0  0  0  0  0  0  0  0  0  0
   58.4740   31.6750   45.1690 C   0  0  0  0  0  0  0  0  0  0  0  0
   58.7960   30.3820   44.4420 C   0  0  0  0  0  0  0  0  0  0  0  0
   57.9720   29.2200   44.9450 C   0  0  0  0  0  0  0  0  0  0  0  0
   56.6150   29.2740   44.8390 N   0  0  0  0  0  0  0  0  0  0  0  0
   55.8320   28.2760   45.2440 N   0  0  0  0  0  0  0  0  0  0  0  0
   56.3460   27.1430   45.7830 C   0  0  0  0  0  0  0  0  0  0  0  0
   55.5670   26.2230   46.1510 O   0  0  0  0  0  0  0  0  0  0  0  0
   57.7340   27.0120   45.9270 C   0  0  0  0  0  0  0  0  0  0  0  0
   58.5630   28.0870   45.5460 C   0  0  0  0  0  0  0  0  0  0  0  0
   59.9860   28.0020   45.7680 N   0  0  0  0  0  0  0  0  0  0  0  0
   60.6080   26.8290   46.3810 C   0  0  0  0  0  0  0  0  0  0  0  0
   59.7830   25.5700   46.1120 C   0  0  0  0  0  0  0  0  0  0  0  0
   58.3340   25.7790   46.5610 C   0  0  0  0  0  0  0  0  0  0  0  0
   57.4180   32.4630   44.6800 C   0  0  0  0  0  0  0  0  0  0  0  0
   57.0790   33.6610   45.3000 C   0  0  0  0  0  0  0  0  0  0  0  0
   57.8020   34.1090   46.3990 C   0  0  0  0  0  0  0  0  0  0  0  0
   58.8840   33.3680   46.8950 C   0  0  0  0  0  0  0  0  0  0  0  0
   59.6380   33.9430   48.0250 C   0  0  0  0  0  0  0  0  0  0  0  0
   59.6290   33.3050   49.3020 N   0  0  0  0  0  0  0  0  0  0  0  0
   60.3460   34.9700   47.8460 O   0  0  0  0  0  0  0  0  0  0  0  0
   58.5586   29.5922   49.2541 H   0  0  0  0  0  0  0  0  0  0  0  0
   57.9922   30.2902   47.6989 H   0  0  0  0  0  0  0  0  0  0  0  0
   59.1805   28.9431   47.6989 H   0  0  0  0  0  0  0  0  0  0  0  0
   60.9679   30.3101   50.0407 H   0  0  0  0  0  0  0  0  0  0  0  0
   61.2136   29.1783   48.6676 H   0  0  0  0  0  0  0  0  0  0  0  0
   62.0263   30.7803   48.6676 H   0  0  0  0  0  0  0  0  0  0  0  0
   61.2595   31.8015   46.9171 H   0  0  0  0  0  0  0  0  0  0  0  0
   60.4234   30.3420   46.2631 H   0  0  0  0  0  0  0  0  0  0  0  0
   58.5950   30.5199   43.3694 H   0  0  0  0  0  0  0  0  0  0  0  0
   59.8549   30.1477   44.6258 H   0  0  0  0  0  0  0  0  0  0  0  0
   60.5830   28.8540   45.6930 H   0  0  0  0  0  0  0  0  0  0  0  0
   61.6160   26.6954   45.9614 H   0  0  0  0  0  0  0  0  0  0  0  0
   60.6620   26.9879   47.4681 H   0  0  0  0  0  0  0  0  0  0  0  0
   59.8008   25.3476   45.0349 H   0  0  0  0  0  0  0  0  0  0  0  0
   60.2155   24.7310   46.6768 H   0  0  0  0  0  0  0  0  0  0  0  0
   57.7387   24.9009   46.2700 H   0  0  0  0  0  0  0  0  0  0  0  0
   58.3251   25.9114   47.6530 H   0  0  0  0  0  0  0  0  0  0  0  0
   56.8534   32.1286   43.7972 H   0  0  0  0  0  0  0  0  0  0  0  0
   56.2357   34.2559   44.9191 H   0  0  0  0  0  0  0  0  0  0  0  0
   57.5223   35.0553   46.8851 H   0  0  0  0  0  0  0  0  0  0  0  0
   60.1710   33.7080   50.0970 H   0  0  0  0  0  0  0  0  0  0  0  0
   59.1010   32.4150   49.4500 H   0  0  0  0  0  0  0  0  0  0  0  0
  1  2  1  0
  2  3  1  0
  2  4  1  0
  4  5  1  0
  5  6  2  0
  6  7  1  0
  7  8  1  0
  8  9  2  0
  9 10  1  0
 10 11  1  0
 11 12  2  0
 11 13  1  0
 13 14  2  0
 14 15  1  0
 15 16  1  0
 16 17  1  0
 17 18  1  0
  6 19  1  0
 19 20  2  0
 20 21  1  0
 21 22  2  0
 22 23  1  0
 23 24  1  0
 23 25  2  0
 22  5  1  0
 14  8  1  0
 18 13  1  0
  1 26  1  0
  1 27  1  0
  1 28  1  0
  3 29  1  0
  3 30  1  0
  3 31  1  0
  4 32  1  0
  4 33  1  0
  7 34  1  0
  7 35  1  0
 15 36  1  0
 16 37  1  0
 16 38  1  0
 17 39  1  0
 17 40  1  0
 18 41  1  0
 18 42  1  0
 19 43  1  0
 20 44  1  0
 21 45  1  0
 24 46  1  0
 24 47  1  0
M  CHG  1  10  -1
M  END
>  <UniqueID>  (20) 
19

>  <SMILES>  (20) 
CN(C)Cc1c(Cc2n[n-]c(=O)c3c2NCCC3)cccc1C(N)=O

>  <Energy>  (20) 
58.94082094552942

>  <Genealogy>  (20) 
CN(C)Cc1c(Cc2n[n-]c(=O)c3c2NCCC3)cccc1C(N)=O (protonated)
CN(C)Cc1c(Cc2n[n-]c(=O)c3c2NCCC3)cccc1C(N)=O (3D coordinates assigned)
CN(C)Cc1c(Cc2n[n-]c(=O)c3c2NCCC3)cccc1C(N)=O (nonaromatic ring conformer: 58.94082094552942 kcal/mol)

>  <smiles>  (20) 
CN(C)Cc1c(Cc2n[nH]c(=O)c3c2NCCC3)cccc1C(N)=O

>  <score_type>  (20) 
oracle

>  <origin>  (20) 
adg

>  <m_score__min__energy>  (20) 
-9.75

>  <m_primary>  (20) 
energy

$$$$
20:0
     RDKit          3D

 31 33  0  0  0  0  0  0  0  0999 V2000
   65.9390   33.0450   49.7500 N   0  0  0  0  0  0  0  0  0  0  0  0
   64.4160   32.3870   50.2300 S   0  0  0  0  0  0  0  0  0  0  0  0
   63.8890   33.1550   51.4090 O   0  0  0  0  0  0  0  0  0  0  0  0
   64.5930   30.9490   50.6330 O   0  0  0  0  0  0  0  0  0  0  0  0
   63.2800   32.4920   48.8880 C   0  0  0  0  0  0  0  0  0  0  0  0
   63.3040   33.5970   48.0280 C   0  0  0  0  0  0  0  0  0  0  0  0
   62.4130   33.6700   46.9560 C   0  0  0  0  0  0  0  0  0  0  0  0
   61.4960   32.6400   46.7330 C   0  0  0  0  0  0  0  0  0  0  0  0
   61.4630   31.5190   47.5830 C   0  0  0  0  0  0  0  0  0  0  0  0
   60.4920   30.4200   47.3450 C   0  0  0  0  0  0  0  0  0  0  0  0
   60.7470   29.1270   47.8350 C   0  0  0  0  0  0  0  0  0  0  0  0
   59.8370   28.0900   47.6150 C   0  0  0  0  0  0  0  0  0  0  0  0
   58.6590   28.3300   46.9020 C   0  0  0  0  0  0  0  0  0  0  0  0
   57.7770   27.3210   46.6890 N   0  0  0  0  0  0  0  0  0  0  0  0
   56.6260   27.5250   45.9980 C   0  0  0  0  0  0  0  0  0  0  0  0
   55.8310   26.5650   45.8210 O   0  0  0  0  0  0  0  0  0  0  0  0
   56.3350   28.7610   45.5020 N   0  0  0  0  0  0  0  0  0  0  0  0
   55.1630   28.9550   44.8030 O   0  0  0  0  0  0  0  0  0  0  0  0
   57.1890   29.8090   45.6900 C   0  0  0  0  0  0  0  0  0  0  0  0
   56.8980   30.9430   45.2210 O   0  0  0  0  0  0  0  0  0  0  0  0
   58.3860   29.6170   46.4030 C   0  0  0  0  0  0  0  0  0  0  0  0
   59.3050   30.6580   46.6270 C   0  0  0  0  0  0  0  0  0  0  0  0
   62.3650   31.4540   48.6600 C   0  0  0  0  0  0  0  0  0  0  0  0
   65.9360   33.0890   48.7060 H   0  0  0  0  0  0  0  0  0  0  0  0
   64.0264   34.4090   48.1976 H   0  0  0  0  0  0  0  0  0  0  0  0
   62.4330   34.5412   46.2848 H   0  0  0  0  0  0  0  0  0  0  0  0
   60.7953   32.7056   45.8876 H   0  0  0  0  0  0  0  0  0  0  0  0
   61.6719   28.9300   48.3970 H   0  0  0  0  0  0  0  0  0  0  0  0
   60.0480   27.0828   48.0036 H   0  0  0  0  0  0  0  0  0  0  0  0
   59.0946   31.6653   46.2383 H   0  0  0  0  0  0  0  0  0  0  0  0
   62.3527   30.5813   49.3295 H   0  0  0  0  0  0  0  0  0  0  0  0
  1  2  1  0
  2  3  2  0
  2  4  2  0
  2  5  1  0
  5  6  2  0
  6  7  1  0
  7  8  2  0
  8  9  1  0
  9 10  1  0
 10 11  2  0
 11 12  1  0
 12 13  2  0
 13 14  1  0
 14 15  1  0
 15 16  2  0
 15 17  1  0
 17 18  1  0
 17 19  1  0
 19 20  2  0
 19 21  1  0
 21 22  2  0
  9 23  2  0
 23  5  1  0
 22 10  1  0
 21 13  1  0
  1 24  1  0
  6 25  1  0
  7 26  1  0
  8 27  1  0
 11 28  1  0
 12 29  1  0
 22 30  1  0
 23 31  1  0
M  CHG  3   1  -1  14  -1  18  -1
M  END
>  <UniqueID>  (21) 
20

>  <SMILES>  (21) 
[NH-]S(=O)(=O)c1cccc(-c2ccc3[n-]c(=O)n([O-])c(=O)c3c2)c1

>  <Energy>  (21) 
44.4928571009205

>  <Genealogy>  (21) 
[NH-]S(=O)(=O)c1cccc(-c2ccc3[n-]c(=O)n([O-])c(=O)c3c2)c1 (protonated)
[NH-]S(=O)(=O)c1cccc(-c2ccc3[n-]c(=O)n([O-])c(=O)c3c2)c1 (3D coordinates assigned)
[NH-]S(=O)(=O)c1cccc(-c2ccc3[n-]c(=O)n([O-])c(=O)c3c2)c1 (optimized conformer: 44.4928571009205 kcal/mol)

>  <smiles>  (21) 
NS(=O)(=O)c1cccc(-c2ccc3[nH]c(=O)n(O)c(=O)c3c2)c1

>  <score_type>  (21) 
oracle

>  <origin>  (21) 
adg

>  <m_score__min__energy>  (21) 
-13.07

>  <m_primary>  (21) 
energy

$$$$
21:0
     RDKit          3D

 39 41  0  0  0  0  0  0  0  0999 V2000
   55.8010   28.3690   54.5470 O   0  0  0  0  0  0  0  0  0  0  0  0
   55.3840   28.9060   53.4880 C   0  0  0  0  0  0  0  0  0  0  0  0
   54.0210   28.6910   53.0960 N   0  0  0  0  0  0  0  0  0  0  0  0
   52.8840   29.4640   53.5800 C   0  0  0  0  0  0  0  0  0  0  0  0
   52.3620   30.3270   52.4690 C   0  0  0  0  0  0  0  0  0  0  0  0
   52.4200   29.8800   51.1380 C   0  0  0  0  0  0  0  0  0  0  0  0
   51.9040   30.6690   50.1070 C   0  0  0  0  0  0  0  0  0  0  0  0
   51.3150   31.9050   50.3960 C   0  0  0  0  0  0  0  0  0  0  0  0
   50.8030   32.6850   49.3650 O   0  0  0  0  0  0  0  0  0  0  0  0
   51.2370   32.3490   51.7210 C   0  0  0  0  0  0  0  0  0  0  0  0
   50.6470   33.5730   52.0140 O   0  0  0  0  0  0  0  0  0  0  0  0
   51.7550   31.5610   52.7550 C   0  0  0  0  0  0  0  0  0  0  0  0
   56.3200   29.7000   52.6690 C   0  0  0  0  0  0  0  0  0  0  0  0
   57.6730   29.3340   52.6000 C   0  0  0  0  0  0  0  0  0  0  0  0
   58.5670   30.0810   51.8270 C   0  0  0  0  0  0  0  0  0  0  0  0
   58.1240   31.2000   51.1130 C   0  0  0  0  0  0  0  0  0  0  0  0
   59.0690   31.9420   50.3300 N   0  0  0  0  0  0  0  0  0  0  0  0
   59.4440   31.6660   48.9720 C   0  0  0  0  0  0  0  0  0  0  0  0
   60.2800   30.7500   48.7530 O   0  0  0  0  0  0  0  0  0  0  0  0
   58.8450   32.3920   47.8260 C   0  0  0  0  0  0  0  0  0  0  0  0
   58.1470   31.7090   46.8130 C   0  0  0  0  0  0  0  0  0  0  0  0
   58.0280   30.3250   46.8360 O   0  0  0  0  0  0  0  0  0  0  0  0
   57.5980   32.4010   45.7820 N   0  0  0  0  0  0  0  0  0  0  0  0
   57.7180   33.7500   45.6990 C   0  0  0  0  0  0  0  0  0  0  0  0
   57.1980   34.3690   44.7340 O   0  0  0  0  0  0  0  0  0  0  0  0
   58.4000   34.4320   46.6530 N   0  0  0  0  0  0  0  0  0  0  0  0
   58.9660   33.7890   47.7070 C   0  0  0  0  0  0  0  0  0  0  0  0
   59.5830   34.4600   48.5770 O   0  0  0  0  0  0  0  0  0  0  0  0
   56.7810   31.6000   51.2260 C   0  0  0  0  0  0  0  0  0  0  0  0
   55.8850   30.8540   51.9970 C   0  0  0  0  0  0  0  0  0  0  0  0
   52.0914   28.7799   53.9172 H   0  0  0  0  0  0  0  0  0  0  0  0
   53.2008   30.0980   54.4213 H   0  0  0  0  0  0  0  0  0  0  0  0
   52.8735   28.9049   50.9070 H   0  0  0  0  0  0  0  0  0  0  0  0
   51.9608   30.3180   49.0661 H   0  0  0  0  0  0  0  0  0  0  0  0
   51.6865   31.9094   53.7961 H   0  0  0  0  0  0  0  0  0  0  0  0
   58.0317   28.4556   53.1565 H   0  0  0  0  0  0  0  0  0  0  0  0
   59.6259   29.7871   51.7798 H   0  0  0  0  0  0  0  0  0  0  0  0
   56.4336   32.5044   50.7051 H   0  0  0  0  0  0  0  0  0  0  0  0
   54.8351   31.1720   52.0777 H   0  0  0  0  0  0  0  0  0  0  0  0
  1  2  2  0
  2  3  1  0
  3  4  1  0
  4  5  1  0
  5  6  2  0
  6  7  1  0
  7  8  2  0
  8  9  1  0
  8 10  1  0
 10 11  1  0
 10 12  2  0
  2 13  1  0
 13 14  2  0
 14 15  1  0
 15 16  2  0
 16 17  1  0
 17 18  1  0
 18 19  2  0
 18 20  1  0
 20 21  2  0
 21 22  1  0
 21 23  1  0
 23 24  1  0
 24 25  2  0
 24 26  1  0
 26 27  1  0
 27 28  2  0
 16 29  1  0
 29 30  2  0
 12  5  1  0
 30 13  1  0
 27 20  1  0
  4 31  1  0
  4 32  1  0
  6 33  1  0
  7 34  1  0
 12 35  1  0
 14 36  1  0
 15 37  1  0
 29 38  1  0
 30 39  1  0
M  CHG  7   3  -1   9  -1  11  -1  17  -1  22  -1  23  -1  26  -1
M  END
>  <UniqueID>  (22) 
21

>  <SMILES>  (22) 
O=C([N-]Cc1ccc([O-])c([O-])c1)c1ccc([N-]C(=O)c2c([O-])[n-]c(=O)[n-]c2=O)cc1

>  <Energy>  (22) 
56.56354800846512

>  <Genealogy>  (22) 
O=C([N-]Cc1ccc([O-])c([O-])c1)c1ccc([N-]C(=O)c2c([O-])[n-]c(=O)[n-]c2=O)cc1 (protonated)
O=C([N-]Cc1ccc([O-])c([O-])c1)c1ccc([N-]C(=O)c2c([O-])[n-]c(=O)[n-]c2=O)cc1 (3D coordinates assigned)
O=C([N-]Cc1ccc([O-])c([O-])c1)c1ccc([N-]C(=O)c2c([O-])[n-]c(=O)[n-]c2=O)cc1 (optimized conformer: 56.56354800846512 kcal/mol)

>  <smiles>  (22) 
O=C(NCc1ccc(O)c(O)c1)c1ccc(NC(=O)c2c(O)[nH]c(=O)[nH]c2=O)cc1

>  <score_type>  (22) 
oracle

>  <origin>  (22) 
adg

>  <m_score__min__energy>  (22) 
-22.25

>  <m_primary>  (22) 
energy

$$$$
22:0
     RDKit          3D

 41 43  0  0  0  0  0  0  0  0999 V2000
   57.8410   29.8800   50.3670 O   0  0  0  0  0  0  0  0  0  0  0  0
   58.0960   30.9690   50.9460 C   0  0  0  0  0  0  0  0  0  0  0  0
   58.8040   31.9770   50.2100 N   0  0  0  0  0  0  0  0  0  0  0  0
   59.5700   31.7560   48.9890 C   0  0  0  0  0  0  0  0  0  0  0  0
   59.1490   32.7570   47.9530 C   0  0  0  0  0  0  0  0  0  0  0  0
   59.7660   34.0180   47.8930 C   0  0  0  0  0  0  0  0  0  0  0  0
   59.3960   34.9380   46.9060 C   0  0  0  0  0  0  0  0  0  0  0  0
   58.4180   34.6000   45.9660 C   0  0  0  0  0  0  0  0  0  0  0  0
   57.8110   33.3420   46.0100 C   0  0  0  0  0  0  0  0  0  0  0  0
   58.1770   32.4200   46.9950 C   0  0  0  0  0  0  0  0  0  0  0  0
   57.6760   31.1590   52.3540 C   0  0  0  0  0  0  0  0  0  0  0  0
   58.3030   31.9710   53.0850 O   0  0  0  0  0  0  0  0  0  0  0  0
   56.5540   30.3960   52.9410 C   0  0  0  0  0  0  0  0  0  0  0  0
   55.1930   30.5840   52.7220 C   0  0  0  0  0  0  0  0  0  0  0  0
   54.4820   29.7070   53.4640 N   0  0  0  0  0  0  0  0  0  0  0  0
   53.0290   29.5510   53.4530 C   0  0  0  0  0  0  0  0  0  0  0  0
   52.4310   30.4030   52.3680 C   0  0  0  0  0  0  0  0  0  0  0  0
   52.4320   29.9540   51.0370 C   0  0  0  0  0  0  0  0  0  0  0  0
   51.8380   30.7270   50.0330 C   0  0  0  0  0  0  0  0  0  0  0  0
   51.2310   31.9460   50.3520 C   0  0  0  0  0  0  0  0  0  0  0  0
   50.6440   32.7080   49.3490 O   0  0  0  0  0  0  0  0  0  0  0  0
   51.2140   32.3920   51.6790 C   0  0  0  0  0  0  0  0  0  0  0  0
   50.6060   33.6000   52.0020 O   0  0  0  0  0  0  0  0  0  0  0  0
   51.8070   31.6210   52.6850 C   0  0  0  0  0  0  0  0  0  0  0  0
   55.3690   28.9550   54.1440 C   0  0  0  0  0  0  0  0  0  0  0  0
   55.0250   27.9220   55.0070 O   0  0  0  0  0  0  0  0  0  0  0  0
   56.6490   29.3600   53.8550 C   0  0  0  0  0  0  0  0  0  0  0  0
   57.8170   28.8180   54.3790 O   0  0  0  0  0  0  0  0  0  0  0  0
   60.6427   31.8755   49.2012 H   0  0  0  0  0  0  0  0  0  0  0  0
   59.3840   30.7381   48.6158 H   0  0  0  0  0  0  0  0  0  0  0  0
   60.5431   34.2829   48.6251 H   0  0  0  0  0  0  0  0  0  0  0  0
   59.8748   35.9276   46.8696 H   0  0  0  0  0  0  0  0  0  0  0  0
   58.1261   35.3245   45.1915 H   0  0  0  0  0  0  0  0  0  0  0  0
   57.0435   33.0767   45.2680 H   0  0  0  0  0  0  0  0  0  0  0  0
   57.7029   31.4277   47.0205 H   0  0  0  0  0  0  0  0  0  0  0  0
   54.7601   31.3353   52.0451 H   0  0  0  0  0  0  0  0  0  0  0  0
   52.7768   28.4962   53.2691 H   0  0  0  0  0  0  0  0  0  0  0  0
   52.6236   29.8662   54.4258 H   0  0  0  0  0  0  0  0  0  0  0  0
   52.9011   28.9920   50.7831 H   0  0  0  0  0  0  0  0  0  0  0  0
   51.8485   30.3752   48.9908 H   0  0  0  0  0  0  0  0  0  0  0  0
   51.7844   31.9700   53.7279 H   0  0  0  0  0  0  0  0  0  0  0  0
  1  2  2  0
  2  3  1  0
  3  4  1  0
  4  5  1  0
  5  6  2  0
  6  7  1  0
  7  8  2  0
  8  9  1  0
  9 10  2  0
  2 11  1  0
 11 12  2  0
 11 13  1  0
 13 14  2  0
 14 15  1  0
 15 16  1  0
 16 17  1  0
 17 18  2  0
 18 19  1  0
 19 20  2  0
 20 21  1  0
 20 22  1  0
 22 23  1  0
 22 24  2  0
 15 25  1  0
 25 26  1  0
 25 27  2  0
 27 28  1  0
 10  5  1  0
 27 13  1  0
 24 17  1  0
  4 29  1  0
  4 30  1  0
  6 31  1  0
  7 32  1  0
  8 33  1  0
  9 34  1  0
 10 35  1  0
 14 36  1  0
 16 37  1  0
 16 38  1  0
 18 39  1  0
 19 40  1  0
 24 41  1  0
M  CHG  5   3  -1  21  -1  23  -1  26  -1  28  -1
M  END
>  <UniqueID>  (23) 
22

>  <SMILES>  (23) 
O=C([N-]Cc1ccccc1)C(=O)c1cn(Cc2ccc([O-])c([O-])c2)c([O-])c1[O-]

>  <Energy>  (23) 
72.85823665579305

>  <Genealogy>  (23) 
O=C([N-]Cc1ccccc1)C(=O)c1cn(Cc2ccc([O-])c([O-])c2)c([O-])c1[O-] (protonated)
O=C([N-]Cc1ccccc1)C(=O)c1cn(Cc2ccc([O-])c([O-])c2)c([O-])c1[O-] (3D coordinates assigned)
O=C([N-]Cc1ccccc1)C(=O)c1cn(Cc2ccc([O-])c([O-])c2)c([O-])c1[O-] (optimized conformer: 72.85823665579305 kcal/mol)

>  <smiles>  (23) 
O=C(NCc1ccccc1)C(=O)c1cn(Cc2ccc(O)c(O)c2)c(O)c1O

>  <score_type>  (23) 
oracle

>  <origin>  (23) 
adg

>  <m_score__min__energy>  (23) 
-19.449999999999999

>  <m_primary>  (23) 
energy

$$$$
23:0
     RDKit          3D

 56 59  0  0  0  0  0  0  0  0999 V2000
   59.0161   32.1034   42.9283 H   0  0  0  0  0  0  0  0  0  0  0  0
   58.1160   31.9030   43.5280 C   0  0  0  0  0  0  0  0  0  0  0  0
   57.1110   31.3220   42.9350 N   0  0  0  0  0  0  0  0  0  0  0  0
   56.2200   30.2930   43.4740 C   0  0  0  0  0  0  0  0  0  0  0  0
   55.5224   30.7609   44.1843 H   0  0  0  0  0  0  0  0  0  0  0  0
   55.6764   29.8340   42.6350 H   0  0  0  0  0  0  0  0  0  0  0  0
   56.9920   29.2090   44.1870 C   0  0  0  0  0  0  0  0  0  0  0  0
   56.9750   29.1340   45.5880 C   0  0  0  0  0  0  0  0  0  0  0  0
   56.4057   29.8747   46.1687 H   0  0  0  0  0  0  0  0  0  0  0  0
   57.6770   28.1240   46.2490 C   0  0  0  0  0  0  0  0  0  0  0  0
   57.6452   28.0653   47.3470 H   0  0  0  0  0  0  0  0  0  0  0  0
   58.4230   27.1830   45.5220 C   0  0  0  0  0  0  0  0  0  0  0  0
   59.1660   26.1090   46.2160 C   0  0  0  0  0  0  0  0  0  0  0  0
   58.7950   24.9130   46.0790 O   0  0  0  0  0  0  0  0  0  0  0  0
   60.3110   26.3880   47.0340 N   0  0  0  0  0  0  0  0  0  0  0  0
   60.4920   27.5560   47.8460 C   0  0  0  0  0  0  0  0  0  0  0  0
   60.3860   27.4180   49.2380 C   0  0  0  0  0  0  0  0  0  0  0  0
   60.1529   26.4347   49.6725 H   0  0  0  0  0  0  0  0  0  0  0  0
   60.5740   28.5190   50.0770 C   0  0  0  0  0  0  0  0  0  0  0  0
   60.5050   28.3965   51.1680 H   0  0  0  0  0  0  0  0  0  0  0  0
   60.8490   29.7730   49.5330 C   0  0  0  0  0  0  0  0  0  0  0  0
   61.0023   30.6378   50.1953 H   0  0  0  0  0  0  0  0  0  0  0  0
   60.9300   29.9320   48.1480 C   0  0  0  0  0  0  0  0  0  0  0  0
   61.1399   30.9253   47.7246 H   0  0  0  0  0  0  0  0  0  0  0  0
   60.7460   28.8360   47.2920 C   0  0  0  0  0  0  0  0  0  0  0  0
   60.7560   29.0540   45.8750 N   0  0  0  0  0  0  0  0  0  0  0  0
   60.7460   30.0250   45.4900 H   0  0  0  0  0  0  0  0  0  0  0  0
   60.6700   28.2690   45.1950 H   0  0  0  0  0  0  0  0  0  0  0  0
   58.4820   27.2900   44.1230 C   0  0  0  0  0  0  0  0  0  0  0  0
   59.0906   26.5786   43.5455 H   0  0  0  0  0  0  0  0  0  0  0  0
   57.7720   28.2950   43.4600 C   0  0  0  0  0  0  0  0  0  0  0  0
   57.8244   28.3704   42.3638 H   0  0  0  0  0  0  0  0  0  0  0  0
   58.1330   32.3120   44.9490 C   0  0  0  0  0  0  0  0  0  0  0  0
   58.8860   31.5000   46.2230 S   0  0  0  0  0  0  0  0  0  0  0  0
   58.5300   32.6990   47.3520 C   0  0  0  0  0  0  0  0  0  0  0  0
   58.8090   32.6800   48.6240 N   0  0  0  0  0  0  0  0  0  0  0  0
   59.8990   33.3390   49.2950 C   0  0  0  0  0  0  0  0  0  0  0  0
   59.7180   33.9200   50.4000 O   0  0  0  0  0  0  0  0  0  0  0  0
   61.2450   33.3460   48.6770 C   0  0  0  0  0  0  0  0  0  0  0  0
   62.3690   32.8990   49.3980 C   0  0  0  0  0  0  0  0  0  0  0  0
   62.2494   32.5496   50.4342 H   0  0  0  0  0  0  0  0  0  0  0  0
   63.6350   32.8960   48.8070 C   0  0  0  0  0  0  0  0  0  0  0  0
   64.5057   32.5399   49.3772 H   0  0  0  0  0  0  0  0  0  0  0  0
   63.7980   33.3440   47.4940 C   0  0  0  0  0  0  0  0  0  0  0  0
   64.7959   33.3410   47.0311 H   0  0  0  0  0  0  0  0  0  0  0  0
   62.6920   33.7960   46.7690 C   0  0  0  0  0  0  0  0  0  0  0  0
   62.8204   34.1493   45.7352 H   0  0  0  0  0  0  0  0  0  0  0  0
   61.4230   33.8000   47.3550 C   0  0  0  0  0  0  0  0  0  0  0  0
   60.5571   34.1601   46.7800 H   0  0  0  0  0  0  0  0  0  0  0  0
   57.8800   33.7300   46.7740 N   0  0  0  0  0  0  0  0  0  0  0  0
   57.5880   34.5910   47.2900 H   0  0  0  0  0  0  0  0  0  0  0  0
   57.6480   33.5270   45.4460 C   0  0  0  0  0  0  0  0  0  0  0  0
   56.9520   34.5500   44.6030 C   0  0  0  0  0  0  0  0  0  0  0  0
   56.4531   35.2833   45.2536 H   0  0  0  0  0  0  0  0  0  0  0  0
   57.6884   35.0644   43.9680 H   0  0  0  0  0  0  0  0  0  0  0  0
   56.2032   34.0539   43.9680 H   0  0  0  0  0  0  0  0  0  0  0  0
  1  2  1  0
  2  3  2  3
  3  4  1  0
  4  5  1  0
  4  6  1  0
  4  7  1  0
  7  8  2  0
  8  9  1  0
  8 10  1  0
 10 11  1  0
 10 12  2  0
 12 13  1  0
 13 14  2  0
 13 15  1  0
 15 16  1  0
 16 17  2  0
 17 18  1  0
 17 19  1  0
 19 20  1  0
 19 21  2  0
 21 22  1  0
 21 23  1  0
 23 24  1  0
 23 25  2  0
 25 26  1  0
 26 27  1  0
 26 28  1  0
 12 29  1  0
 29 30  1  0
 29 31  2  0
 31 32  1  0
  2 33  1  0
 33 34  1  0
 34 35  1  0
 35 36  2  0
 36 37  1  0
 37 38  2  0
 37 39  1  0
 39 40  2  0
 40 41  1  0
 40 42  1  0
 42 43  1  0
 42 44  2  0
 44 45  1  0
 44 46  1  0
 46 47  1  0
 46 48  2  0
 48 49  1  0
 35 50  1  0
 50 51  1  0
 50 52  1  0
 52 53  1  0
 53 54  1  0
 53 55  1  0
 53 56  1  0
 31  7  1  0
 52 33  2  0
 25 16  1  0
 48 39  1  0
M  CHG  1  15  -1
M  END
>  <UniqueID>  (24) 
23

>  <SMILES>  (24) 
Cc1[nH]/c(=N/C(=O)c2ccccc2)sc1C=NCc1ccc(C(=O)[N-]c2ccccc2N)cc1

>  <Energy>  (24) 
102.20093948534182

>  <Genealogy>  (24) 
Cc1[nH]c(=NC(=O)c2ccccc2)sc1C=NCc1ccc(C(=O)[N-]c2ccccc2N)cc1 (protonated)
Cc1[nH]/c(=N/C(=O)c2ccccc2)sc1C=NCc1ccc(C(=O)[N-]c2ccccc2N)cc1 (cis-trans isomerization)
Cc1[nH]/c(=N/C(=O)c2ccccc2)sc1C=NCc1ccc(C(=O)[N-]c2ccccc2N)cc1 (3D coordinates assigned)
Cc1[nH]/c(=N/C(=O)c2ccccc2)sc1C=NCc1ccc(C(=O)[N-]c2ccccc2N)cc1 (optimized conformer: 102.20093948534182 kcal/mol)

>  <smiles>  (24) 
Cc1[nH]c(=NC(=O)c2ccccc2)sc1C=NCc1ccc(C(=O)Nc2ccccc2N)cc1

>  <score_type>  (24) 
oracle

>  <origin>  (24) 
adg

>  <m_score__min__energy>  (24) 
-11.1

>  <m_primary>  (24) 
energy

$$$$
24:0
     RDKit          3D

 54 56  0  0  0  0  0  0  0  0999 V2000
   60.0290   21.8580   44.1270 C   0  0  0  0  0  0  0  0  0  0  0  0
   59.5060   22.4880   45.2920 O   0  0  0  0  0  0  0  0  0  0  0  0
   58.2620   23.1340   45.3580 C   0  0  0  0  0  0  0  0  0  0  0  0
   58.1500   24.5210   45.5580 C   0  0  0  0  0  0  0  0  0  0  0  0
   56.8930   25.1440   45.6260 C   0  0  0  0  0  0  0  0  0  0  0  0
   56.8240   26.5760   45.7340 N   0  0  0  0  0  0  0  0  0  0  0  0
   57.7420   27.3480   46.5170 C   0  0  0  0  0  0  0  0  0  0  0  0
   58.5780   26.7770   47.2700 O   0  0  0  0  0  0  0  0  0  0  0  0
   57.6920   28.7740   46.4530 N   0  0  0  0  0  0  0  0  0  0  0  0
   57.1820   29.6200   45.0330 S   0  0  0  0  0  0  0  0  0  0  0  0
   55.6810   29.6650   44.9920 O   0  0  0  0  0  0  0  0  0  0  0  0
   57.6790   28.8890   43.8170 O   0  0  0  0  0  0  0  0  0  0  0  0
   57.8050   31.2670   45.0750 C   0  0  0  0  0  0  0  0  0  0  0  0
   57.4430   32.1940   44.0890 C   0  0  0  0  0  0  0  0  0  0  0  0
   57.9480   33.4950   44.1330 C   0  0  0  0  0  0  0  0  0  0  0  0
   58.8150   33.8780   45.1590 C   0  0  0  0  0  0  0  0  0  0  0  0
   59.1910   32.9580   46.1550 C   0  0  0  0  0  0  0  0  0  0  0  0
   60.1110   33.3630   47.2480 C   0  0  0  0  0  0  0  0  0  0  0  0
   59.6050   33.8750   48.4550 C   0  0  0  0  0  0  0  0  0  0  0  0
   60.4730   34.2670   49.4770 C   0  0  0  0  0  0  0  0  0  0  0  0
   61.8540   34.1480   49.3100 C   0  0  0  0  0  0  0  0  0  0  0  0
   62.3780   33.6190   48.1200 C   0  0  0  0  0  0  0  0  0  0  0  0
   63.8640   33.5280   47.9240 C   0  0  0  0  0  0  0  0  0  0  0  0
   64.1320   33.0350   46.6420 O   0  0  0  0  0  0  0  0  0  0  0  0
   61.5040   33.2420   47.0880 C   0  0  0  0  0  0  0  0  0  0  0  0
   58.6780   31.6490   46.1010 C   0  0  0  0  0  0  0  0  0  0  0  0
   55.7210   24.3640   45.4890 C   0  0  0  0  0  0  0  0  0  0  0  0
   54.3640   24.9570   45.6120 C   0  0  0  0  0  0  0  0  0  0  0  0
   53.3400   24.2370   45.4590 O   0  0  0  0  0  0  0  0  0  0  0  0
   54.1970   26.2960   45.9440 O   0  0  0  0  0  0  0  0  0  0  0  0
   55.8410   22.9810   45.2720 C   0  0  0  0  0  0  0  0  0  0  0  0
   57.1040   22.3610   45.2100 C   0  0  0  0  0  0  0  0  0  0  0  0
   57.2480   20.9800   45.0030 O   0  0  0  0  0  0  0  0  0  0  0  0
   57.3050   20.0080   46.0420 C   0  0  0  0  0  0  0  0  0  0  0  0
   60.7056   21.0429   44.4234 H   0  0  0  0  0  0  0  0  0  0  0  0
   59.2016   21.4485   43.5288 H   0  0  0  0  0  0  0  0  0  0  0  0
   60.5837   22.5959   43.5288 H   0  0  0  0  0  0  0  0  0  0  0  0
   59.0613   25.1280   45.6629 H   0  0  0  0  0  0  0  0  0  0  0  0
   56.0600   27.0810   45.2320 H   0  0  0  0  0  0  0  0  0  0  0  0
   56.7603   31.8967   43.2794 H   0  0  0  0  0  0  0  0  0  0  0  0
   57.6622   34.2206   43.3572 H   0  0  0  0  0  0  0  0  0  0  0  0
   59.2064   34.9056   45.1885 H   0  0  0  0  0  0  0  0  0  0  0  0
   58.5180   33.9677   48.5960 H   0  0  0  0  0  0  0  0  0  0  0  0
   60.0671   34.6707   50.4163 H   0  0  0  0  0  0  0  0  0  0  0  0
   62.5333   34.4697   50.1131 H   0  0  0  0  0  0  0  0  0  0  0  0
   64.3111   34.5270   48.0344 H   0  0  0  0  0  0  0  0  0  0  0  0
   64.2942   32.8509   48.6766 H   0  0  0  0  0  0  0  0  0  0  0  0
   64.8470   32.3550   46.7510 H   0  0  0  0  0  0  0  0  0  0  0  0
   61.9119   32.8483   46.1453 H   0  0  0  0  0  0  0  0  0  0  0  0
   58.9654   30.9189   46.8719 H   0  0  0  0  0  0  0  0  0  0  0  0
   54.9332   22.3723   45.1485 H   0  0  0  0  0  0  0  0  0  0  0  0
   57.2754   20.5131   47.0187 H   0  0  0  0  0  0  0  0  0  0  0  0
   56.4452   19.3274   45.9550 H   0  0  0  0  0  0  0  0  0  0  0  0
   58.2384   19.4326   45.9550 H   0  0  0  0  0  0  0  0  0  0  0  0
  1  2  1  0
  2  3  1  0
  3  4  2  0
  4  5  1  0
  5  6  1  0
  6  7  1  0
  7  8  2  0
  7  9  1  0
  9 10  1  0
 10 11  2  0
 10 12  2  0
 10 13  1  0
 13 14  2  0
 14 15  1  0
 15 16  2  0
 16 17  1  0
 17 18  1  0
 18 19  2  0
 19 20  1  0
 20 21  2  0
 21 22  1  0
 22 23  1  0
 23 24  1  0
 22 25  2  0
 17 26  2  0
  5 27  2  0
 27 28  1  0
 28 29  2  0
 28 30  1  0
 27 31  1  0
 31 32  2  0
 32 33  1  0
 33 34  1  0
 32  3  1  0
 26 13  1  0
 25 18  1  0
  1 35  1  0
  1 36  1  0
  1 37  1  0
  4 38  1  0
  6 39  1  0
 14 40  1  0
 15 41  1  0
 16 42  1  0
 19 43  1  0
 20 44  1  0
 21 45  1  0
 23 46  1  0
 23 47  1  0
 24 48  1  0
 25 49  1  0
 26 50  1  0
 31 51  1  0
 34 52  1  0
 34 53  1  0
 34 54  1  0
M  CHG  2   9  -1  30  -1
M  END
>  <UniqueID>  (25) 
24

>  <SMILES>  (25) 
COc1cc(NC(=O)[N-]S(=O)(=O)c2cccc(-c3cccc(CO)c3)c2)c(C(=O)[O-])cc1OC

>  <Energy>  (25) 
68.86789126787329

>  <Genealogy>  (25) 
COc1cc(NC(=O)[N-]S(=O)(=O)c2cccc(-c3cccc(CO)c3)c2)c(C(=O)[O-])cc1OC (protonated)
COc1cc(NC(=O)[N-]S(=O)(=O)c2cccc(-c3cccc(CO)c3)c2)c(C(=O)[O-])cc1OC (3D coordinates assigned)
COc1cc(NC(=O)[N-]S(=O)(=O)c2cccc(-c3cccc(CO)c3)c2)c(C(=O)[O-])cc1OC (optimized conformer: 68.86789126787329 kcal/mol)

>  <smiles>  (25) 
COc1cc(NC(=O)NS(=O)(=O)c2cccc(-c3cccc(CO)c3)c2)c(C(=O)O)cc1OC

>  <score_type>  (25) 
oracle

>  <origin>  (25) 
adg

>  <m_score__min__energy>  (25) 
-14.15

>  <m_primary>  (25) 
energy

$$$$
25:0
     RDKit          3D

 84 89  0  0  0  0  0  0  0  0999 V2000
   55.8380   25.2740   45.9270 C   0  0  0  0  0  0  0  0  0  0  0  0
   55.7570   26.6890   46.2700 N   0  0  0  0  0  0  0  0  0  0  0  0
   57.3330   27.4140   46.1780 S   0  0  0  0  0  0  0  0  0  0  0  0
   57.7830   27.8370   47.5510 O   0  0  0  0  0  0  0  0  0  0  0  0
   58.3070   26.3980   45.6510 O   0  0  0  0  0  0  0  0  0  0  0  0
   57.3060   28.8060   45.0970 C   0  0  0  0  0  0  0  0  0  0  0  0
   57.1370   28.6160   43.7230 C   0  0  0  0  0  0  0  0  0  0  0  0
   57.1310   29.7090   42.8570 C   0  0  0  0  0  0  0  0  0  0  0  0
   57.2650   31.0160   43.3500 C   0  0  0  0  0  0  0  0  0  0  0  0
   57.3720   32.1370   42.3490 C   0  0  0  0  0  0  0  0  0  0  0  0
   57.4160   31.2160   44.7460 C   0  0  0  0  0  0  0  0  0  0  0  0
   57.5400   32.5620   45.3500 C   0  0  0  0  0  0  0  0  0  0  0  0
   56.7110   33.4510   45.0190 O   0  0  0  0  0  0  0  0  0  0  0  0
   58.6200   32.8920   46.2470 N   0  0  0  0  0  0  0  0  0  0  0  0
   59.9120   32.1850   46.0640 C   0  0  0  0  0  0  0  0  0  0  0  0
   61.0330   32.6470   46.9990 C   0  0  0  0  0  0  0  0  0  0  0  0
   60.4620   33.0790   48.3170 C   0  0  0  0  0  0  0  0  0  0  0  0
   60.6970   32.4380   49.4940 C   0  0  0  0  0  0  0  0  0  0  0  0
   62.0640   32.0890   49.9580 C   0  0  0  0  0  0  0  0  0  0  0  0
   63.0660   33.0630   49.8030 C   0  0  0  0  0  0  0  0  0  0  0  0
   64.3820   32.8110   50.1770 C   0  0  0  0  0  0  0  0  0  0  0  0
   64.7300   31.5680   50.7000 C   0  0  0  0  0  0  0  0  0  0  0  0
   66.3900   31.2480   51.1690 Cl  0  0  0  0  0  0  0  0  0  0  0  0
   63.7630   30.5690   50.8250 C   0  0  0  0  0  0  0  0  0  0  0  0
   62.4270   30.7940   50.4450 C   0  0  0  0  0  0  0  0  0  0  0  0
   61.5070   29.5790   50.5520 C   0  0  0  0  0  0  0  0  0  0  0  0
   60.1240   29.6760   49.9040 C   0  0  0  0  0  0  0  0  0  0  0  0
   59.2770   30.7270   50.5730 C   0  0  0  0  0  0  0  0  0  0  0  0
   58.1420   30.3850   51.3190 C   0  0  0  0  0  0  0  0  0  0  0  0
   57.3810   31.3870   51.9440 C   0  0  0  0  0  0  0  0  0  0  0  0
   56.2380   31.1170   52.7100 O   0  0  0  0  0  0  0  0  0  0  0  0
   55.2310   30.1460   52.4150 C   0  0  0  0  0  0  0  0  0  0  0  0
   53.9760   30.3540   53.2810 C   0  0  0  0  0  0  0  0  0  0  0  0
   52.9510   31.1460   52.5670 N   0  0  0  0  0  0  0  0  0  0  0  0
   52.8080   30.6910   51.1680 C   0  0  0  0  0  0  0  0  0  0  0  0
   51.5320   31.2700   50.5210 C   0  0  0  0  0  0  0  0  0  0  0  0
   51.0770   32.3970   51.2400 O   0  0  0  0  0  0  0  0  0  0  0  0
   50.6350   32.0060   52.5300 C   0  0  0  0  0  0  0  0  0  0  0  0
   51.6420   31.0810   53.2490 C   0  0  0  0  0  0  0  0  0  0  0  0
   57.7690   32.7210   51.7790 C   0  0  0  0  0  0  0  0  0  0  0  0
   58.8470   33.0410   51.0110 N   0  0  0  0  0  0  0  0  0  0  0  0
   59.6010   32.0780   50.4100 C   0  0  0  0  0  0  0  0  0  0  0  0
   59.5410   34.2520   48.1740 C   0  0  0  0  0  0  0  0  0  0  0  0
   58.3220   33.8390   47.3430 C   0  0  0  0  0  0  0  0  0  0  0  0
   57.4440   30.1040   45.6040 C   0  0  0  0  0  0  0  0  0  0  0  0
   55.8723   24.6747   46.8487 H   0  0  0  0  0  0  0  0  0  0  0  0
   54.9547   24.9886   45.3368 H   0  0  0  0  0  0  0  0  0  0  0  0
   56.7481   25.0913   45.3368 H   0  0  0  0  0  0  0  0  0  0  0  0
   57.0081   27.5996   43.3226 H   0  0  0  0  0  0  0  0  0  0  0  0
   57.0200   29.5448   41.7750 H   0  0  0  0  0  0  0  0  0  0  0  0
   57.4635   33.0957   42.8805 H   0  0  0  0  0  0  0  0  0  0  0  0
   58.2594   31.9815   41.7178 H   0  0  0  0  0  0  0  0  0  0  0  0
   56.4712   32.1522   41.7178 H   0  0  0  0  0  0  0  0  0  0  0  0
   59.7426   31.1119   46.2364 H   0  0  0  0  0  0  0  0  0  0  0  0
   60.2477   32.4117   45.0413 H   0  0  0  0  0  0  0  0  0  0  0  0
   61.7358   31.8166   47.1620 H   0  0  0  0  0  0  0  0  0  0  0  0
   61.5573   33.4973   46.5386 H   0  0  0  0  0  0  0  0  0  0  0  0
   62.8043   34.0432   49.3778 H   0  0  0  0  0  0  0  0  0  0  0  0
   65.1470   33.5927   50.0598 H   0  0  0  0  0  0  0  0  0  0  0  0
   64.0510   29.5870   51.2283 H   0  0  0  0  0  0  0  0  0  0  0  0
   62.0289   28.7295   50.0873 H   0  0  0  0  0  0  0  0  0  0  0  0
   61.3038   29.4775   51.6283 H   0  0  0  0  0  0  0  0  0  0  0  0
   60.2437   29.9354   48.8417 H   0  0  0  0  0  0  0  0  0  0  0  0
   59.6209   28.7040   50.0137 H   0  0  0  0  0  0  0  0  0  0  0  0
   57.8459   29.3300   51.4157 H   0  0  0  0  0  0  0  0  0  0  0  0
   54.9517   30.2316   51.3545 H   0  0  0  0  0  0  0  0  0  0  0  0
   55.6393   29.1482   52.6331 H   0  0  0  0  0  0  0  0  0  0  0  0
   53.5531   29.3720   53.5395 H   0  0  0  0  0  0  0  0  0  0  0  0
   54.2688   30.9046   54.1871 H   0  0  0  0  0  0  0  0  0  0  0  0
   53.6845   31.0219   50.5916 H   0  0  0  0  0  0  0  0  0  0  0  0
   52.7335   29.5935   51.1643 H   0  0  0  0  0  0  0  0  0  0  0  0
   51.7548   31.5676   49.4857 H   0  0  0  0  0  0  0  0  0  0  0  0
   50.7467   30.4999   50.5352 H   0  0  0  0  0  0  0  0  0  0  0  0
   50.4883   32.9091   53.1407 H   0  0  0  0  0  0  0  0  0  0  0  0
   49.6978   31.4439   52.4044 H   0  0  0  0  0  0  0  0  0  0  0  0
   51.7570   31.4069   54.2933 H   0  0  0  0  0  0  0  0  0  0  0  0
   51.2689   30.0465   53.2244 H   0  0  0  0  0  0  0  0  0  0  0  0
   57.1974   33.5195   52.2747 H   0  0  0  0  0  0  0  0  0  0  0  0
   59.0830   34.0500   50.8700 H   0  0  0  0  0  0  0  0  0  0  0  0
   59.2117   34.5844   49.1695 H   0  0  0  0  0  0  0  0  0  0  0  0
   60.0684   35.0759   47.6710 H   0  0  0  0  0  0  0  0  0  0  0  0
   57.5912   33.3668   48.0160 H   0  0  0  0  0  0  0  0  0  0  0  0
   57.9406   34.7558   46.8696 H   0  0  0  0  0  0  0  0  0  0  0  0
   57.5757   30.2545   46.6857 H   0  0  0  0  0  0  0  0  0  0  0  0
  1  2  1  0
  2  3  1  0
  3  4  2  0
  3  5  2  0
  3  6  1  0
  6  7  2  0
  7  8  1  0
  8  9  2  0
  9 10  1  0
  9 11  1  0
 11 12  1  0
 12 13  2  0
 12 14  1  0
 14 15  1  0
 15 16  1  0
 16 17  1  0
 17 18  2  3
 18 19  1  0
 19 20  2  0
 20 21  1  0
 21 22  2  0
 22 23  1  0
 22 24  1  0
 24 25  2  0
 25 26  1  0
 26 27  1  0
 27 28  1  0
 28 29  2  0
 29 30  1  0
 30 31  1  0
 31 32  1  0
 32 33  1  0
 33 34  1  0
 34 35  1  0
 35 36  1  0
 36 37  1  0
 37 38  1  0
 38 39  1  0
 30 40  2  0
 40 41  1  0
 41 42  2  0
 17 43  1  0
 43 44  1  0
 11 45  2  0
 45  6  1  0
 44 14  1  0
 42 18  1  0
 25 19  1  0
 42 28  1  0
 39 34  1  0
  1 46  1  0
  1 47  1  0
  1 48  1  0
  7 49  1  0
  8 50  1  0
 10 51  1  0
 10 52  1  0
 10 53  1  0
 15 54  1  0
 15 55  1  0
 16 56  1  0
 16 57  1  0
 20 58  1  0
 21 59  1  0
 24 60  1  0
 26 61  1  0
 26 62  1  0
 27 63  1  0
 27 64  1  0
 29 65  1  0
 32 66  1  0
 32 67  1  0
 33 68  1  0
 33 69  1  0
 35 70  1  0
 35 71  1  0
 36 72  1  0
 36 73  1  0
 38 74  1  0
 38 75  1  0
 39 76  1  0
 39 77  1  0
 40 78  1  0
 41 79  1  0
 43 80  1  0
 43 81  1  0
 44 82  1  0
 44 83  1  0
 45 84  1  0
M  CHG  2   2  -1  41   1
M  END
>  <UniqueID>  (26) 
25

>  <SMILES>  (26) 
C[N-]S(=O)(=O)c1ccc(C)c(C(=O)N2CCC(=C3c4ccc(Cl)cc4CCc4cc(OCCN5CCOCC5)c[nH+]c43)CC2)c1

>  <Energy>  (26) 
134.44403624690747

>  <Genealogy>  (26) 
C[N-]S(=O)(=O)c1ccc(C)c(C(=O)N2CCC(=C3c4ccc(Cl)cc4CCc4cc(OCCN5CCOCC5)c[nH+]c43)CC2)c1 (protonated)
C[N-]S(=O)(=O)c1ccc(C)c(C(=O)N2CCC(=C3c4ccc(Cl)cc4CCc4cc(OCCN5CCOCC5)c[nH+]c43)CC2)c1 (3D coordinates assigned)
C[N-]S(=O)(=O)c1ccc(C)c(C(=O)N2CCC(=C3c4ccc(Cl)cc4CCc4cc(OCCN5CCOCC5)c[nH+]c43)CC2)c1 (nonaromatic ring conformer: 134.44403624690747 kcal/mol)

>  <smiles>  (26) 
CNS(=O)(=O)c1ccc(C)c(C(=O)N2CCC(=C3c4ccc(Cl)cc4CCc4cc(OCCN5CCOCC5)cnc43)CC2)c1

>  <score_type>  (26) 
oracle

>  <origin>  (26) 
adg

>  <m_score__min__energy>  (26) 
-10.800000000000001

>  <m_primary>  (26) 
energy

$$$$
26:0
     RDKit          3D

 76 80  0  0  0  0  0  0  0  0999 V2000
   64.4910   30.1390   51.1750 O   0  0  0  0  0  0  0  0  0  0  0  0
   63.5880   30.8460   50.6520 C   0  0  0  0  0  0  0  0  0  0  0  0
   63.9840   31.8920   49.7530 N   0  0  0  0  0  0  0  0  0  0  0  0
   63.1050   32.6680   48.9330 C   0  0  0  0  0  0  0  0  0  0  0  0
   62.1950   33.5380   49.5440 C   0  0  0  0  0  0  0  0  0  0  0  0
   61.3140   34.2970   48.7670 C   0  0  0  0  0  0  0  0  0  0  0  0
   61.3190   34.1750   47.3690 C   0  0  0  0  0  0  0  0  0  0  0  0
   60.3450   34.9640   46.5340 C   0  0  0  0  0  0  0  0  0  0  0  0
   58.9320   34.9650   47.1310 C   0  0  0  0  0  0  0  0  0  0  0  0
   58.0050   34.1810   46.2800 N   0  0  0  0  0  0  0  0  0  0  0  0
   57.7620   32.8100   46.8010 C   0  0  0  0  0  0  0  0  0  0  0  0
   58.5680   31.7430   46.0410 C   0  0  0  0  0  0  0  0  0  0  0  0
   58.2820   31.7440   44.5820 N   0  0  0  0  0  0  0  0  0  0  0  0
   57.3700   30.6510   44.1880 C   0  0  0  0  0  0  0  0  0  0  0  0
   57.8440   29.3430   44.7680 C   0  0  0  0  0  0  0  0  0  0  0  0
   59.2170   29.0390   44.8130 C   0  0  0  0  0  0  0  0  0  0  0  0
   59.6510   27.8200   45.3420 C   0  0  0  0  0  0  0  0  0  0  0  0
   58.7230   26.8950   45.8250 C   0  0  0  0  0  0  0  0  0  0  0  0
   57.3570   27.1880   45.7840 C   0  0  0  0  0  0  0  0  0  0  0  0
   56.9160   28.4060   45.2580 C   0  0  0  0  0  0  0  0  0  0  0  0
   55.5850   28.6720   45.2230 F   0  0  0  0  0  0  0  0  0  0  0  0
   57.7870   33.0470   44.0800 C   0  0  0  0  0  0  0  0  0  0  0  0
   58.4170   34.2060   44.8570 C   0  0  0  0  0  0  0  0  0  0  0  0
   62.2000   33.2670   46.7610 C   0  0  0  0  0  0  0  0  0  0  0  0
   63.0880   32.5180   47.5370 C   0  0  0  0  0  0  0  0  0  0  0  0
   62.1240   30.5280   50.9110 C   0  0  0  0  0  0  0  0  0  0  0  0
   61.3900   30.1870   49.5900 C   0  0  0  0  0  0  0  0  0  0  0  0
   60.3570   29.0470   49.7160 C   0  0  0  0  0  0  0  0  0  0  0  0
   59.6410   29.0410   51.0100 N   0  0  0  0  0  0  0  0  0  0  0  0
   58.3410   29.7440   51.0330 C   0  0  0  0  0  0  0  0  0  0  0  0
   58.4410   31.1990   51.4360 C   0  0  0  0  0  0  0  0  0  0  0  0
   59.0130   32.1450   50.5680 C   0  0  0  0  0  0  0  0  0  0  0  0
   59.1460   33.4790   50.9660 C   0  0  0  0  0  0  0  0  0  0  0  0
   58.7210   33.8760   52.2350 C   0  0  0  0  0  0  0  0  0  0  0  0
   58.1480   32.9470   53.1030 C   0  0  0  0  0  0  0  0  0  0  0  0
   58.0150   31.6110   52.7110 C   0  0  0  0  0  0  0  0  0  0  0  0
   60.4630   29.1820   52.2340 C   0  0  0  0  0  0  0  0  0  0  0  0
   61.9520   29.4020   51.9440 C   0  0  0  0  0  0  0  0  0  0  0  0
   62.1725   33.6253   50.6403 H   0  0  0  0  0  0  0  0  0  0  0  0
   60.6143   34.9924   49.2537 H   0  0  0  0  0  0  0  0  0  0  0  0
   60.6999   36.0028   46.4639 H   0  0  0  0  0  0  0  0  0  0  0  0
   60.2907   34.4897   45.5430 H   0  0  0  0  0  0  0  0  0  0  0  0
   58.9640   34.5195   48.1362 H   0  0  0  0  0  0  0  0  0  0  0  0
   58.5711   36.0027   47.1858 H   0  0  0  0  0  0  0  0  0  0  0  0
   58.0484   32.7795   47.8626 H   0  0  0  0  0  0  0  0  0  0  0  0
   56.6941   32.5838   46.6652 H   0  0  0  0  0  0  0  0  0  0  0  0
   59.6402   31.9384   46.1902 H   0  0  0  0  0  0  0  0  0  0  0  0
   58.2766   30.7592   46.4376 H   0  0  0  0  0  0  0  0  0  0  0  0
   56.3587   30.8690   44.5619 H   0  0  0  0  0  0  0  0  0  0  0  0
   57.3561   30.5731   43.0909 H   0  0  0  0  0  0  0  0  0  0  0  0
   59.9515   29.7631   44.4306 H   0  0  0  0  0  0  0  0  0  0  0  0
   60.7259   27.5889   45.3779 H   0  0  0  0  0  0  0  0  0  0  0  0
   59.0672   25.9353   46.2379 H   0  0  0  0  0  0  0  0  0  0  0  0
   56.6275   26.4589   46.1663 H   0  0  0  0  0  0  0  0  0  0  0  0
   58.0453   33.1445   43.0152 H   0  0  0  0  0  0  0  0  0  0  0  0
   56.6960   33.0846   44.2153 H   0  0  0  0  0  0  0  0  0  0  0  0
   59.5124   34.1241   44.7987 H   0  0  0  0  0  0  0  0  0  0  0  0
   58.0756   35.1518   44.4111 H   0  0  0  0  0  0  0  0  0  0  0  0
   62.1912   33.1445   45.6679 H   0  0  0  0  0  0  0  0  0  0  0  0
   63.7757   31.8089   47.0531 H   0  0  0  0  0  0  0  0  0  0  0  0
   61.6652   31.4319   51.3382 H   0  0  0  0  0  0  0  0  0  0  0  0
   60.8664   31.0901   49.2433 H   0  0  0  0  0  0  0  0  0  0  0  0
   62.1576   29.8410   48.8822 H   0  0  0  0  0  0  0  0  0  0  0  0
   59.6174   29.1564   48.9092 H   0  0  0  0  0  0  0  0  0  0  0  0
   60.9109   28.0991   49.6479 H   0  0  0  0  0  0  0  0  0  0  0  0
   57.9009   29.6924   50.0262 H   0  0  0  0  0  0  0  0  0  0  0  0
   57.7194   29.2437   51.7902 H   0  0  0  0  0  0  0  0  0  0  0  0
   59.3578   31.8345   49.5706 H   0  0  0  0  0  0  0  0  0  0  0  0
   59.5860   34.2163   50.2783 H   0  0  0  0  0  0  0  0  0  0  0  0
   58.8382   34.9232   52.5508 H   0  0  0  0  0  0  0  0  0  0  0  0
   57.8003   33.2652   54.0969 H   0  0  0  0  0  0  0  0  0  0  0  0
   57.5748   30.8788   53.4039 H   0  0  0  0  0  0  0  0  0  0  0  0
   60.0886   30.0421   52.8085 H   0  0  0  0  0  0  0  0  0  0  0  0
   60.3766   28.2393   52.7942 H   0  0  0  0  0  0  0  0  0  0  0  0
   62.4677   29.6796   52.8751 H   0  0  0  0  0  0  0  0  0  0  0  0
   62.3834   28.4733   51.5422 H   0  0  0  0  0  0  0  0  0  0  0  0
  1  2  2  0
  2  3  1  0
  3  4  1  0
  4  5  2  0
  5  6  1  0
  6  7  2  0
  7  8  1  0
  8  9  1  0
  9 10  1  0
 10 11  1  0
 11 12  1  0
 12 13  1  0
 13 14  1  0
 14 15  1  0
 15 16  2  0
 16 17  1  0
 17 18  2  0
 18 19  1  0
 19 20  2  0
 20 21  1  0
 13 22  1  0
 22 23  1  0
  7 24  1  0
 24 25  2  0
  2 26  1  0
 26 27  1  0
 27 28  1  0
 28 29  1  0
 29 30  1  0
 30 31  1  0
 31 32  2  0
 32 33  1  0
 33 34  2  0
 34 35  1  0
 35 36  2  0
 29 37  1  0
 37 38  1  0
 25  4  1  0
 38 26  1  0
 23 10  1  0
 36 31  1  0
 20 15  1  0
  5 39  1  0
  6 40  1  0
  8 41  1  0
  8 42  1  0
  9 43  1  0
  9 44  1  0
 11 45  1  0
 11 46  1  0
 12 47  1  0
 12 48  1  0
 14 49  1  0
 14 50  1  0
 16 51  1  0
 17 52  1  0
 18 53  1  0
 19 54  1  0
 22 55  1  0
 22 56  1  0
 23 57  1  0
 23 58  1  0
 24 59  1  0
 25 60  1  0
 26 61  1  0
 27 62  1  0
 27 63  1  0
 28 64  1  0
 28 65  1  0
 30 66  1  0
 30 67  1  0
 32 68  1  0
 33 69  1  0
 34 70  1  0
 35 71  1  0
 36 72  1  0
 37 73  1  0
 37 74  1  0
 38 75  1  0
 38 76  1  0
M  CHG  1   3  -1
M  END
>  <UniqueID>  (27) 
26

>  <SMILES>  (27) 
O=C([N-]c1ccc(CCN2CCN(Cc3ccccc3F)CC2)cc1)C1CCN(Cc2ccccc2)CC1

>  <Energy>  (27) 
107.6526398128732

>  <Genealogy>  (27) 
O=C([N-]c1ccc(CCN2CCN(Cc3ccccc3F)CC2)cc1)C1CCN(Cc2ccccc2)CC1 (protonated)
O=C([N-]c1ccc(CCN2CCN(Cc3ccccc3F)CC2)cc1)C1CCN(Cc2ccccc2)CC1 (3D coordinates assigned)
O=C([N-]c1ccc(CCN2CCN(Cc3ccccc3F)CC2)cc1)C1CCN(Cc2ccccc2)CC1 (nonaromatic ring conformer: 107.6526398128732 kcal/mol)

>  <smiles>  (27) 
O=C(Nc1ccc(CCN2CCN(Cc3ccccc3F)CC2)cc1)C1CCN(Cc2ccccc2)CC1

>  <score_type>  (27) 
oracle

>  <origin>  (27) 
adg

>  <m_score__min__energy>  (27) 
-12.32

>  <m_primary>  (27) 
energy

$$$$
27:0
     RDKit          3D

 33 35  0  0  0  0  0  0  0  0999 V2000
   58.2316   27.3046   44.8653 H   0  0  0  0  0  0  0  0  0  0  0  0
   57.5970   28.2020   44.9090 C   0  0  0  0  0  0  0  0  0  0  0  0
   57.9840   29.4530   44.6080 N   0  0  0  0  0  0  0  0  0  0  0  0
   56.8730   30.1970   44.8220 C   0  0  0  0  0  0  0  0  0  0  0  0
   56.8110   31.4800   44.6180 N   0  0  0  0  0  0  0  0  0  0  0  0
   57.5660   32.4880   45.3110 C   0  0  0  0  0  0  0  0  0  0  0  0
   58.0310   33.5960   44.5930 C   0  0  0  0  0  0  0  0  0  0  0  0
   57.8205   33.6776   43.5164 H   0  0  0  0  0  0  0  0  0  0  0  0
   58.7610   34.5990   45.2360 C   0  0  0  0  0  0  0  0  0  0  0  0
   59.2320   35.6880   44.5120 O   0  0  0  0  0  0  0  0  0  0  0  0
   59.0190   34.5080   46.6070 C   0  0  0  0  0  0  0  0  0  0  0  0
   59.6040   35.2949   47.1055 H   0  0  0  0  0  0  0  0  0  0  0  0
   58.5390   33.4240   47.3500 C   0  0  0  0  0  0  0  0  0  0  0  0
   58.8280   33.3760   48.7240 O   0  0  0  0  0  0  0  0  0  0  0  0
   59.7870   32.5090   49.3320 C   0  0  0  0  0  0  0  0  0  0  0  0
   59.8482   32.7380   50.4062 H   0  0  0  0  0  0  0  0  0  0  0  0
   59.4657   31.4686   49.1763 H   0  0  0  0  0  0  0  0  0  0  0  0
   61.1540   32.6880   48.7100 C   0  0  0  0  0  0  0  0  0  0  0  0
   61.9780   33.7310   49.1730 C   0  0  0  0  0  0  0  0  0  0  0  0
   61.6192   34.3930   49.9749 H   0  0  0  0  0  0  0  0  0  0  0  0
   63.2460   33.9340   48.6250 C   0  0  0  0  0  0  0  0  0  0  0  0
   63.8759   34.7591   48.9888 H   0  0  0  0  0  0  0  0  0  0  0  0
   63.7150   33.0920   47.6170 C   0  0  0  0  0  0  0  0  0  0  0  0
   64.7104   33.2590   47.1796 H   0  0  0  0  0  0  0  0  0  0  0  0
   62.9210   32.0370   47.1630 C   0  0  0  0  0  0  0  0  0  0  0  0
   63.2989   31.3696   46.3745 H   0  0  0  0  0  0  0  0  0  0  0  0
   61.6470   31.8220   47.7040 C   0  0  0  0  0  0  0  0  0  0  0  0
   60.6420   30.3330   47.0280 Br  0  0  0  0  0  0  0  0  0  0  0  0
   57.7890   32.4250   46.6990 C   0  0  0  0  0  0  0  0  0  0  0  0
   57.3741   31.5885   47.2806 H   0  0  0  0  0  0  0  0  0  0  0  0
   55.7990   29.4860   45.2260 N   0  0  0  0  0  0  0  0  0  0  0  0
   56.2770   28.2330   45.2800 C   0  0  0  0  0  0  0  0  0  0  0  0
   55.5210   27.1320   45.6580 O   0  0  0  0  0  0  0  0  0  0  0  0
  1  2  1  0
  2  3  1  0
  3  4  1  0
  4  5  2  0
  5  6  1  0
  6  7  2  0
  7  8  1  0
  7  9  1  0
  9 10  1  0
  9 11  2  0
 11 12  1  0
 11 13  1  0
 13 14  1  0
 14 15  1  0
 15 16  1  0
 15 17  1  0
 15 18  1  0
 18 19  2  0
 19 20  1  0
 19 21  1  0
 21 22  1  0
 21 23  2  0
 23 24  1  0
 23 25  1  0
 25 26  1  0
 25 27  2  0
 27 28  1  0
 13 29  2  0
 29 30  1  0
  4 31  1  0
 31 32  1  0
 32 33  1  0
 32  2  2  0
 29  6  1  0
 27 18  1  0
M  CHG  4   3  -1  10  -1  31  -1  33  -1
M  END
>  <UniqueID>  (28) 
27

>  <SMILES>  (28) 
[O-]c1cc(/N=c2\[n-]cc([O-])[n-]2)cc(OCc2ccccc2Br)c1

>  <Energy>  (28) 
70.23933350123181

>  <Genealogy>  (28) 
[O-]c1cc(N=c2[n-]cc([O-])[n-]2)cc(OCc2ccccc2Br)c1 (protonated)
[O-]c1cc(/N=c2\[n-]cc([O-])[n-]2)cc(OCc2ccccc2Br)c1 (cis-trans isomerization)
[O-]c1cc(/N=c2\[n-]cc([O-])[n-]2)cc(OCc2ccccc2Br)c1 (3D coordinates assigned)
[O-]c1cc(/N=c2\[n-]cc([O-])[n-]2)cc(OCc2ccccc2Br)c1 (optimized conformer: 70.23933350123181 kcal/mol)

>  <smiles>  (28) 
Oc1cc(N=c2[nH]cc(O)[nH]2)cc(OCc2ccccc2Br)c1

>  <score_type>  (28) 
oracle

>  <origin>  (28) 
adg

>  <m_score__min__energy>  (28) 
-15.050000000000001

>  <m_primary>  (28) 
energy

$$$$
28:0
     RDKit          3D

 35 36  0  0  1  0  0  0  0  0999 V2000
   57.7910   26.9590   42.4900 N   0  0  0  0  0  0  0  0  0  0  0  0
   58.0230   26.7260   43.7380 C   0  0  0  0  0  0  0  0  0  0  0  0
   58.0140   25.4380   44.1210 N   0  0  0  0  0  0  0  0  0  0  0  0
   58.2460   25.0970   45.4040 C   0  0  0  0  0  0  0  0  0  0  0  0
   58.2400   23.4170   45.9360 Cl  0  0  0  0  0  0  0  0  0  0  0  0
   58.4900   26.1380   46.2820 C   0  0  0  0  0  0  0  0  0  0  0  0
   58.5000   27.4440   45.8980 C   0  0  0  0  0  0  0  0  0  0  0  0
   58.7350   28.3640   46.7700 N   0  0  0  0  0  0  0  0  0  0  0  0
   59.2460   29.6460   46.3550 C   0  0  0  0  0  0  0  0  0  0  0  0
   58.0720   30.6050   46.4230 C   0  0  1  0  0  0  0  0  0  0  0  0
   58.6000   31.8600   47.1200 C   0  0  0  0  0  0  0  0  0  0  0  0
   59.3760   32.6240   46.2570 O   0  0  0  0  0  0  0  0  0  0  0  0
   58.5850   33.0410   45.1790 C   0  0  0  0  0  0  0  0  0  0  0  0
   58.3360   31.7950   44.3450 C   0  0  0  0  0  0  0  0  0  0  0  0
   57.5750   30.9110   45.1370 N   0  0  0  0  0  0  0  0  0  0  0  0
   56.4370   29.9580   44.4020 S   0  0  0  0  0  0  0  0  0  0  0  0
   56.7730   29.3760   42.8370 N   0  0  0  0  0  0  0  0  0  0  0  0
   56.1080   28.7820   45.2790 O   0  0  0  0  0  0  0  0  0  0  0  0
   55.1410   30.7520   44.2970 O   0  0  0  0  0  0  0  0  0  0  0  0
   58.2610   27.7430   44.5960 N   0  0  0  0  0  0  0  0  0  0  0  0
   56.8620   27.3050   42.1780 H   0  0  0  0  0  0  0  0  0  0  0  0
   57.8260   24.6830   43.4260 H   0  0  0  0  0  0  0  0  0  0  0  0
   58.6847   25.8996   47.3381 H   0  0  0  0  0  0  0  0  0  0  0  0
   60.0483   29.9751   47.0318 H   0  0  0  0  0  0  0  0  0  0  0  0
   59.6723   29.6015   45.3419 H   0  0  0  0  0  0  0  0  0  0  0  0
   57.2292   30.1598   46.9721 H   0  0  0  0  0  0  0  0  0  0  0  0
   57.7481   32.4636   47.4664 H   0  0  0  0  0  0  0  0  0  0  0  0
   59.2259   31.5498   47.9698 H   0  0  0  0  0  0  0  0  0  0  0  0
   57.6330   33.4572   45.5403 H   0  0  0  0  0  0  0  0  0  0  0  0
   59.0804   33.8293   44.5931 H   0  0  0  0  0  0  0  0  0  0  0  0
   57.7809   32.0567   43.4321 H   0  0  0  0  0  0  0  0  0  0  0  0
   59.2860   31.3303   44.0423 H   0  0  0  0  0  0  0  0  0  0  0  0
   56.2570   28.4900   42.6220 H   0  0  0  0  0  0  0  0  0  0  0  0
   57.7740   29.1530   42.6730 H   0  0  0  0  0  0  0  0  0  0  0  0
   58.2610   28.7380   44.2600 H   0  0  0  0  0  0  0  0  0  0  0  0
  1  2  2  3
  2  3  1  0
  3  4  1  0
  4  5  1  0
  4  6  2  0
  6  7  1  0
  7  8  2  0
  8  9  1  0
  9 10  1  0
 10 11  1  0
 11 12  1  0
 12 13  1  0
 13 14  1  0
 14 15  1  0
 15 16  1  0
 16 17  1  0
 16 18  2  0
 16 19  2  0
  7 20  1  0
 20  2  1  0
 15 10  1  0
  1 21  1  0
  3 22  1  0
  6 23  1  0
  9 24  1  0
  9 25  1  0
 10 26  1  1
 11 27  1  0
 11 28  1  0
 13 29  1  0
 13 30  1  0
 14 31  1  0
 14 32  1  0
 17 33  1  0
 17 34  1  0
 20 35  1  0
M  END
>  <smiles>  (29) 
N=c1[nH]c(Cl)cc(=NCC2COCCN2S(N)(=O)=O)[nH]1

>  <score_type>  (29) 
oracle

>  <origin>  (29) 
adg

>  <m_score__min__energy>  (29) 
-6.9800000000000004

>  <m_primary>  (29) 
energy

$$$$
29:0
     RDKit          3D

 49 51  0  0  0  0  0  0  0  0999 V2000
   65.9870   33.5000   51.5720 C   0  0  0  0  0  0  0  0  0  0  0  0
   64.8460   33.4290   50.6000 C   0  0  0  0  0  0  0  0  0  0  0  0
   64.9280   32.6010   49.4710 C   0  0  0  0  0  0  0  0  0  0  0  0
   63.8490   32.5050   48.5880 C   0  0  0  0  0  0  0  0  0  0  0  0
   62.6710   33.2260   48.8320 C   0  0  0  0  0  0  0  0  0  0  0  0
   61.2930   33.0980   47.7400 S   0  0  0  0  0  0  0  0  0  0  0  0
   60.0140   33.3950   48.4730 O   0  0  0  0  0  0  0  0  0  0  0  0
   61.2270   31.6920   47.2160 O   0  0  0  0  0  0  0  0  0  0  0  0
   61.4610   34.1950   46.3980 N   0  0  0  0  0  0  0  0  0  0  0  0
   60.3210   35.1090   46.3070 C   0  0  0  0  0  0  0  0  0  0  0  0
   59.1550   34.4450   45.6400 C   0  0  0  0  0  0  0  0  0  0  0  0
   58.4640   35.1010   44.8140 O   0  0  0  0  0  0  0  0  0  0  0  0
   58.8560   33.0670   45.9140 N   0  0  0  0  0  0  0  0  0  0  0  0
   57.7120   32.3790   45.3780 C   0  0  0  0  0  0  0  0  0  0  0  0
   56.7490   33.0400   44.9000 O   0  0  0  0  0  0  0  0  0  0  0  0
   57.6320   30.9000   45.4080 C   0  0  0  0  0  0  0  0  0  0  0  0
   56.8150   30.2010   44.5030 C   0  0  0  0  0  0  0  0  0  0  0  0
   56.7400   28.8060   44.5440 C   0  0  0  0  0  0  0  0  0  0  0  0
   57.4670   28.0790   45.5010 C   0  0  0  0  0  0  0  0  0  0  0  0
   57.3940   26.6390   45.5320 N   0  0  0  0  0  0  0  0  0  0  0  0
   58.5060   25.7490   45.2340 C   0  0  0  0  0  0  0  0  0  0  0  0
   58.0340   24.3340   45.6170 C   0  0  0  0  0  0  0  0  0  0  0  0
   56.5180   24.4100   45.8440 C   0  0  0  0  0  0  0  0  0  0  0  0
   56.2470   25.8610   45.8300 C   0  0  0  0  0  0  0  0  0  0  0  0
   55.0970   26.3510   45.9940 O   0  0  0  0  0  0  0  0  0  0  0  0
   58.2860   28.7770   46.4050 C   0  0  0  0  0  0  0  0  0  0  0  0
   58.3600   30.1730   46.3650 C   0  0  0  0  0  0  0  0  0  0  0  0
   62.5830   34.0420   49.9670 C   0  0  0  0  0  0  0  0  0  0  0  0
   63.6610   34.1390   50.8500 C   0  0  0  0  0  0  0  0  0  0  0  0
   65.5953   33.4756   52.5996 H   0  0  0  0  0  0  0  0  0  0  0  0
   66.6568   32.6418   51.4145 H   0  0  0  0  0  0  0  0  0  0  0  0
   66.5453   34.4346   51.4145 H   0  0  0  0  0  0  0  0  0  0  0  0
   65.8453   32.0248   49.2797 H   0  0  0  0  0  0  0  0  0  0  0  0
   63.9239   31.8619   47.6987 H   0  0  0  0  0  0  0  0  0  0  0  0
   60.0270   35.4200   47.3203 H   0  0  0  0  0  0  0  0  0  0  0  0
   60.6179   35.9825   45.7079 H   0  0  0  0  0  0  0  0  0  0  0  0
   59.4950   32.5480   46.5570 H   0  0  0  0  0  0  0  0  0  0  0  0
   56.2294   30.7567   43.7558 H   0  0  0  0  0  0  0  0  0  0  0  0
   56.1060   28.2727   43.8204 H   0  0  0  0  0  0  0  0  0  0  0  0
   58.7534   25.7923   44.1630 H   0  0  0  0  0  0  0  0  0  0  0  0
   59.4107   26.0355   45.7903 H   0  0  0  0  0  0  0  0  0  0  0  0
   58.2588   23.6282   44.8038 H   0  0  0  0  0  0  0  0  0  0  0  0
   58.5484   23.9816   46.5232 H   0  0  0  0  0  0  0  0  0  0  0  0
   55.9723   23.8990   45.0371 H   0  0  0  0  0  0  0  0  0  0  0  0
   56.1962   23.9201   46.7748 H   0  0  0  0  0  0  0  0  0  0  0  0
   58.8737   28.2207   47.1501 H   0  0  0  0  0  0  0  0  0  0  0  0
   58.9935   30.7064   47.0889 H   0  0  0  0  0  0  0  0  0  0  0  0
   61.6611   34.6089   50.1638 H   0  0  0  0  0  0  0  0  0  0  0  0
   63.5811   34.7741   51.7446 H   0  0  0  0  0  0  0  0  0  0  0  0
  1  2  1  0
  2  3  2  0
  3  4  1  0
  4  5  2  0
  5  6  1  0
  6  7  2  0
  6  8  2  0
  6  9  1  0
  9 10  1  0
 10 11  1  0
 11 12  2  0
 11 13  1  0
 13 14  1  0
 14 15  2  0
 14 16  1  0
 16 17  2  0
 17 18  1  0
 18 19  2  0
 19 20  1  0
 20 21  1  0
 21 22  1  0
 22 23  1  0
 23 24  1  0
 24 25  2  0
 19 26  1  0
 26 27  2  0
  5 28  1  0
 28 29  2  0
 29  2  1  0
 27 16  1  0
 24 20  1  0
  1 30  1  0
  1 31  1  0
  1 32  1  0
  3 33  1  0
  4 34  1  0
 10 35  1  0
 10 36  1  0
 13 37  1  0
 17 38  1  0
 18 39  1  0
 21 40  1  0
 21 41  1  0
 22 42  1  0
 22 43  1  0
 23 44  1  0
 23 45  1  0
 26 46  1  0
 27 47  1  0
 28 48  1  0
 29 49  1  0
M  CHG  1   9  -1
M  END
>  <UniqueID>  (30) 
28

>  <SMILES>  (30) 
Cc1ccc(S(=O)(=O)[N-]CC(=O)NC(=O)c2ccc(N3CCCC3=O)cc2)cc1

>  <Energy>  (30) 
59.647566677268465

>  <Genealogy>  (30) 
Cc1ccc(S(=O)(=O)[N-]CC(=O)NC(=O)c2ccc(N3CCCC3=O)cc2)cc1 (protonated)
Cc1ccc(S(=O)(=O)[N-]CC(=O)NC(=O)c2ccc(N3CCCC3=O)cc2)cc1 (3D coordinates assigned)
Cc1ccc(S(=O)(=O)[N-]CC(=O)NC(=O)c2ccc(N3CCCC3=O)cc2)cc1 (nonaromatic ring conformer: 59.647566677268465 kcal/mol)

>  <smiles>  (30) 
Cc1ccc(S(=O)(=O)NCC(=O)NC(=O)c2ccc(N3CCCC3=O)cc2)cc1

>  <score_type>  (30) 
oracle

>  <origin>  (30) 
adg

>  <m_score__min__energy>  (30) 
-11.35

>  <m_primary>  (30) 
energy

$$$$
30:0
     RDKit          3D

 34 36  0  0  0  0  0  0  0  0999 V2000
   58.7310   22.7960   45.0380 C   0  0  0  0  0  0  0  0  0  0  0  0
   57.6670   23.8100   45.3120 C   0  0  0  0  0  0  0  0  0  0  0  0
   56.3300   23.4140   45.4260 C   0  0  0  0  0  0  0  0  0  0  0  0
   55.3600   24.3850   45.6700 C   0  0  0  0  0  0  0  0  0  0  0  0
   54.1480   24.0550   45.7630 O   0  0  0  0  0  0  0  0  0  0  0  0
   55.7420   25.7230   45.8010 C   0  0  0  0  0  0  0  0  0  0  0  0
   54.7740   26.7040   45.9960 O   0  0  0  0  0  0  0  0  0  0  0  0
   57.1090   26.0510   45.6980 C   0  0  0  0  0  0  0  0  0  0  0  0
   57.6000   27.4420   45.8400 C   0  0  0  0  0  0  0  0  0  0  0  0
   58.7290   27.6960   46.6320 C   0  0  0  0  0  0  0  0  0  0  0  0
   59.2100   29.0000   46.7780 C   0  0  0  0  0  0  0  0  0  0  0  0
   58.5550   30.0630   46.1550 C   0  0  0  0  0  0  0  0  0  0  0  0
   57.3980   29.8370   45.4000 C   0  0  0  0  0  0  0  0  0  0  0  0
   56.7560   30.9590   44.7750 N   0  0  0  0  0  0  0  0  0  0  0  0
   57.4050   32.0900   44.1780 C   0  0  0  0  0  0  0  0  0  0  0  0
   57.4030   32.2480   42.9290 O   0  0  0  0  0  0  0  0  0  0  0  0
   58.0310   33.1060   45.0320 C   0  0  0  0  0  0  0  0  0  0  0  0
   58.9490   34.0560   44.6270 C   0  0  0  0  0  0  0  0  0  0  0  0
   59.2520   34.7840   45.7570 C   0  0  0  0  0  0  0  0  0  0  0  0
   58.5020   34.2350   46.7790 C   0  0  0  0  0  0  0  0  0  0  0  0
   57.7850   33.2380   46.3150 O   0  0  0  0  0  0  0  0  0  0  0  0
   56.9300   28.5210   45.2330 C   0  0  0  0  0  0  0  0  0  0  0  0
   57.9980   25.0910   45.4490 O   0  0  0  0  0  0  0  0  0  0  0  0
   59.1295   22.4162   45.9903 H   0  0  0  0  0  0  0  0  0  0  0  0
   58.3035   21.9627   44.4610 H   0  0  0  0  0  0  0  0  0  0  0  0
   59.5428   23.2631   44.4610 H   0  0  0  0  0  0  0  0  0  0  0  0
   56.0492   22.3553   45.3249 H   0  0  0  0  0  0  0  0  0  0  0  0
   59.2386   26.8646   47.1410 H   0  0  0  0  0  0  0  0  0  0  0  0
   60.1073   29.1889   47.3856 H   0  0  0  0  0  0  0  0  0  0  0  0
   58.9501   31.0845   46.2577 H   0  0  0  0  0  0  0  0  0  0  0  0
   59.3534   34.2008   43.6143 H   0  0  0  0  0  0  0  0  0  0  0  0
   59.9500   35.6310   45.8304 H   0  0  0  0  0  0  0  0  0  0  0  0
   58.5051   34.5808   47.8232 H   0  0  0  0  0  0  0  0  0  0  0  0
   56.0337   28.3337   44.6235 H   0  0  0  0  0  0  0  0  0  0  0  0
  1  2  1  0
  2  3  2  0
  3  4  1  0
  4  5  2  0
  4  6  1  0
  6  7  1  0
  6  8  2  0
  8  9  1  0
  9 10  2  0
 10 11  1  0
 11 12  2  0
 12 13  1  0
 13 14  1  0
 14 15  1  0
 15 16  2  0
 15 17  1  0
 17 18  2  0
 18 19  1  0
 19 20  2  0
 20 21  1  0
 13 22  2  0
  8 23  1  0
 23  2  1  0
 22  9  1  0
 21 17  1  0
  1 24  1  0
  1 25  1  0
  1 26  1  0
  3 27  1  0
 10 28  1  0
 11 29  1  0
 12 30  1  0
 18 31  1  0
 19 32  1  0
 20 33  1  0
 22 34  1  0
M  CHG  2   7  -1  14  -1
M  END
>  <UniqueID>  (31) 
29

>  <SMILES>  (31) 
Cc1cc(=O)c([O-])c(-c2cccc([N-]C(=O)c3ccco3)c2)o1

>  <Energy>  (31) 
71.11248996183863

>  <Genealogy>  (31) 
Cc1cc(=O)c([O-])c(-c2cccc([N-]C(=O)c3ccco3)c2)o1 (protonated)
Cc1cc(=O)c([O-])c(-c2cccc([N-]C(=O)c3ccco3)c2)o1 (3D coordinates assigned)
Cc1cc(=O)c([O-])c(-c2cccc([N-]C(=O)c3ccco3)c2)o1 (optimized conformer: 71.11248996183863 kcal/mol)

>  <smiles>  (31) 
Cc1cc(=O)c(O)c(-c2cccc(NC(=O)c3ccco3)c2)o1

>  <score_type>  (31) 
oracle

>  <origin>  (31) 
adg

>  <m_score__min__energy>  (31) 
-12.73

>  <m_primary>  (31) 
energy

$$$$
31:0
     RDKit          3D

 55 57  0  0  0  0  0  0  0  0999 V2000
   56.0150   29.6017   53.4492 H   0  0  0  0  0  0  0  0  0  0  0  0
   56.6290   30.1930   52.7540 C   0  0  0  0  0  0  0  0  0  0  0  0
   57.3970   29.5700   51.8250 N   0  0  0  0  0  0  0  0  0  0  0  0
   58.1700   30.2340   50.9240 C   0  0  0  0  0  0  0  0  0  0  0  0
   58.8770   29.5080   50.1080 N   0  0  0  0  0  0  0  0  0  0  0  0
   58.8330   29.3730   48.6780 C   0  0  0  0  0  0  0  0  0  0  0  0
   58.8630   28.2380   48.1370 O   0  0  0  0  0  0  0  0  0  0  0  0
   58.8290   30.5520   47.8670 N   0  0  0  0  0  0  0  0  0  0  0  0
   58.3160   31.3900   48.2170 H   0  0  0  0  0  0  0  0  0  0  0  0
   59.6880   30.6880   46.6900 C   0  0  0  0  0  0  0  0  0  0  0  0
   59.0860   31.0249   45.8332 H   0  0  0  0  0  0  0  0  0  0  0  0
   60.1463   29.7160   46.4552 H   0  0  0  0  0  0  0  0  0  0  0  0
   60.7700   31.7000   46.9740 C   0  0  0  0  0  0  0  0  0  0  0  0
   62.0800   31.2100   47.1220 C   0  0  0  0  0  0  0  0  0  0  0  0
   62.2701   30.1305   47.0294 H   0  0  0  0  0  0  0  0  0  0  0  0
   63.1380   32.0740   47.3840 C   0  0  0  0  0  0  0  0  0  0  0  0
   64.1580   31.6764   47.4918 H   0  0  0  0  0  0  0  0  0  0  0  0
   62.9080   33.4410   47.5100 C   0  0  0  0  0  0  0  0  0  0  0  0
   63.7479   34.1245   47.7035 H   0  0  0  0  0  0  0  0  0  0  0  0
   61.6130   33.9440   47.3910 C   0  0  0  0  0  0  0  0  0  0  0  0
   61.4449   35.0278   47.4748 H   0  0  0  0  0  0  0  0  0  0  0  0
   60.5190   33.0920   47.1660 C   0  0  0  0  0  0  0  0  0  0  0  0
   58.8920   33.8230   47.0100 S   0  0  0  0  0  0  0  0  0  0  0  0
   57.9520   33.0590   47.9010 O   0  0  0  0  0  0  0  0  0  0  0  0
   58.9090   35.2600   47.4540 O   0  0  0  0  0  0  0  0  0  0  0  0
   58.2170   33.8730   45.3360 C   0  0  0  0  0  0  0  0  0  0  0  0
   57.4978   34.7050   45.3130 H   0  0  0  0  0  0  0  0  0  0  0  0
   59.2990   34.1820   44.2970 C   0  0  0  0  0  0  0  0  0  0  0  0
   60.2345   34.4492   44.8102 H   0  0  0  0  0  0  0  0  0  0  0  0
   59.4664   33.2958   43.6673 H   0  0  0  0  0  0  0  0  0  0  0  0
   58.9732   35.0230   43.6673 H   0  0  0  0  0  0  0  0  0  0  0  0
   57.4200   32.6110   44.9820 C   0  0  0  0  0  0  0  0  0  0  0  0
   57.1017   32.1070   45.9065 H   0  0  0  0  0  0  0  0  0  0  0  0
   56.5340   32.8901   44.3928 H   0  0  0  0  0  0  0  0  0  0  0  0
   58.0528   31.9309   44.3928 H   0  0  0  0  0  0  0  0  0  0  0  0
   58.1990   31.6610   50.9670 C   0  0  0  0  0  0  0  0  0  0  0  0
   59.0220   32.3900   50.0900 O   0  0  0  0  0  0  0  0  0  0  0  0
   60.0890   33.2750   50.4580 C   0  0  0  0  0  0  0  0  0  0  0  0
   60.1874   34.0545   49.6882 H   0  0  0  0  0  0  0  0  0  0  0  0
   59.8473   33.7161   51.4363 H   0  0  0  0  0  0  0  0  0  0  0  0
   61.4010   32.5430   50.5830 C   0  0  0  0  0  0  0  0  0  0  0  0
   61.4220   31.1390   50.6250 C   0  0  0  0  0  0  0  0  0  0  0  0
   60.4780   30.5760   50.5813 H   0  0  0  0  0  0  0  0  0  0  0  0
   62.6360   30.4540   50.7220 C   0  0  0  0  0  0  0  0  0  0  0  0
   62.6450   29.3548   50.7630 H   0  0  0  0  0  0  0  0  0  0  0  0
   63.8400   31.1650   50.7670 C   0  0  0  0  0  0  0  0  0  0  0  0
   64.7945   30.6240   50.8458 H   0  0  0  0  0  0  0  0  0  0  0  0
   63.8320   32.5610   50.7120 C   0  0  0  0  0  0  0  0  0  0  0  0
   65.3560   33.4400   50.7650 Cl  0  0  0  0  0  0  0  0  0  0  0  0
   62.6190   33.2540   50.6130 C   0  0  0  0  0  0  0  0  0  0  0  0
   62.6240   34.6090   50.5320 F   0  0  0  0  0  0  0  0  0  0  0  0
   57.4070   32.3180   51.9330 C   0  0  0  0  0  0  0  0  0  0  0  0
   57.4086   33.4168   51.9847 H   0  0  0  0  0  0  0  0  0  0  0  0
   56.6210   31.5830   52.8240 C   0  0  0  0  0  0  0  0  0  0  0  0
   56.0019   32.0978   53.5735 H   0  0  0  0  0  0  0  0  0  0  0  0
  1  2  1  0
  2  3  1  0
  3  4  1  0
  4  5  2  0
  5  6  1  0
  6  7  2  0
  6  8  1  0
  8  9  1  0
  8 10  1  0
 10 11  1  0
 10 12  1  0
 10 13  1  0
 13 14  2  0
 14 15  1  0
 14 16  1  0
 16 17  1  0
 16 18  2  0
 18 19  1  0
 18 20  1  0
 20 21  1  0
 20 22  2  0
 22 23  1  0
 23 24  2  0
 23 25  2  0
 23 26  1  0
 26 27  1  0
 26 28  1  0
 28 29  1  0
 28 30  1  0
 28 31  1  0
 26 32  1  0
 32 33  1  0
 32 34  1  0
 32 35  1  0
  4 36  1  0
 36 37  1  0
 37 38  1  0
 38 39  1  0
 38 40  1  0
 38 41  1  0
 41 42  2  0
 42 43  1  0
 42 44  1  0
 44 45  1  0
 44 46  2  0
 46 47  1  0
 46 48  1  0
 48 49  1  0
 48 50  2  0
 50 51  1  0
 36 52  2  0
 52 53  1  0
 52 54  1  0
 54 55  1  0
 54  2  2  0
 22 13  1  0
 50 41  1  0
M  CHG  1   3  -1
M  END
>  <UniqueID>  (32) 
30

>  <SMILES>  (32) 
CC(C)S(=O)(=O)c1ccccc1CNC(=O)/N=c1/[n-]cccc1OCc1cccc(Cl)c1F

>  <Energy>  (32) 
74.30058085695283

>  <Genealogy>  (32) 
CC(C)S(=O)(=O)c1ccccc1CNC(=O)N=c1[n-]cccc1OCc1cccc(Cl)c1F (protonated)
CC(C)S(=O)(=O)c1ccccc1CNC(=O)/N=c1/[n-]cccc1OCc1cccc(Cl)c1F (cis-trans isomerization)
CC(C)S(=O)(=O)c1ccccc1CNC(=O)/N=c1/[n-]cccc1OCc1cccc(Cl)c1F (3D coordinates assigned)
CC(C)S(=O)(=O)c1ccccc1CNC(=O)/N=c1/[n-]cccc1OCc1cccc(Cl)c1F (optimized conformer: 74.30058085695283 kcal/mol)

>  <smiles>  (32) 
CC(C)S(=O)(=O)c1ccccc1CNC(=O)N=c1[nH]cccc1OCc1cccc(Cl)c1F

>  <score_type>  (32) 
oracle

>  <origin>  (32) 
adg

>  <m_score__min__energy>  (32) 
-10.67

>  <m_primary>  (32) 
energy

$$$$
32:0
     RDKit          3D

 32 35  0  0  0  0  0  0  0  0999 V2000
   55.2650   21.3910   48.3350 O   0  0  0  0  0  0  0  0  0  0  0  0
   56.3500   21.3080   47.4680 C   0  0  0  0  0  0  0  0  0  0  0  0
   57.3570   20.3690   47.7200 C   0  0  0  0  0  0  0  0  0  0  0  0
   58.4400   20.2430   46.8450 C   0  0  0  0  0  0  0  0  0  0  0  0
   59.4350   19.3050   47.1110 O   0  0  0  0  0  0  0  0  0  0  0  0
   58.5140   21.0600   45.7090 C   0  0  0  0  0  0  0  0  0  0  0  0
   57.5130   22.0010   45.4540 C   0  0  0  0  0  0  0  0  0  0  0  0
   56.4330   22.1440   46.3380 C   0  0  0  0  0  0  0  0  0  0  0  0
   55.3840   23.1430   46.0530 C   0  0  0  0  0  0  0  0  0  0  0  0
   54.0650   22.8700   45.7440 C   0  0  0  0  0  0  0  0  0  0  0  0
   53.5190   21.5960   45.6420 O   0  0  0  0  0  0  0  0  0  0  0  0
   53.3450   23.9930   45.5640 N   0  0  0  0  0  0  0  0  0  0  0  0
   54.2250   24.9960   45.7560 C   0  0  0  0  0  0  0  0  0  0  0  0
   53.8770   26.3370   45.6430 O   0  0  0  0  0  0  0  0  0  0  0  0
   55.4930   24.5250   46.0540 C   0  0  0  0  0  0  0  0  0  0  0  0
   56.7080   25.3430   46.2400 C   0  0  0  0  0  0  0  0  0  0  0  0
   56.6760   26.6940   46.3840 N   0  0  0  0  0  0  0  0  0  0  0  0
   57.9690   27.0030   46.5400 C   0  0  0  0  0  0  0  0  0  0  0  0
   58.5280   28.2660   46.7240 C   0  0  0  0  0  0  0  0  0  0  0  0
   59.9280   28.3470   46.8690 C   0  0  0  0  0  0  0  0  0  0  0  0
   60.6910   29.9070   47.1040 Cl  0  0  0  0  0  0  0  0  0  0  0  0
   60.7180   27.1740   46.8230 C   0  0  0  0  0  0  0  0  0  0  0  0
   60.1160   25.9160   46.6330 C   0  0  0  0  0  0  0  0  0  0  0  0
   58.7300   25.8770   46.4950 C   0  0  0  0  0  0  0  0  0  0  0  0
   57.9530   24.8010   46.3090 N   0  0  0  0  0  0  0  0  0  0  0  0
   57.2959   19.7269   48.6111 H   0  0  0  0  0  0  0  0  0  0  0  0
   60.0610   18.9780   46.3850 H   0  0  0  0  0  0  0  0  0  0  0  0
   59.3624   20.9603   45.0160 H   0  0  0  0  0  0  0  0  0  0  0  0
   57.5721   22.6329   44.5555 H   0  0  0  0  0  0  0  0  0  0  0  0
   57.8992   29.1680   46.7550 H   0  0  0  0  0  0  0  0  0  0  0  0
   61.8098   27.2457   46.9365 H   0  0  0  0  0  0  0  0  0  0  0  0
   60.7183   24.9963   46.5948 H   0  0  0  0  0  0  0  0  0  0  0  0
  1  2  1  0
  2  3  2  0
  3  4  1  0
  4  5  1  0
  4  6  2  0
  6  7  1  0
  7  8  2  0
  8  9  1  0
  9 10  2  0
 10 11  1  0
 10 12  1  0
 12 13  1  0
 13 14  1  0
 13 15  2  0
 15 16  1  0
 16 17  2  0
 17 18  1  0
 18 19  2  0
 19 20  1  0
 20 21  1  0
 20 22  2  0
 22 23  1  0
 23 24  2  0
 24 25  1  0
  8  2  1  0
 15  9  1  0
 25 16  1  0
 24 18  1  0
  3 26  1  0
  5 27  1  0
  6 28  1  0
  7 29  1  0
 19 30  1  0
 22 31  1  0
 23 32  1  0
M  CHG  5   1  -1  11  -1  12  -1  14  -1  25  -1
M  END
>  <UniqueID>  (33) 
31

>  <SMILES>  (33) 
[O-]c1cc(O)ccc1-c1c([O-])[n-]c([O-])c1-c1nc2cc(Cl)ccc2[n-]1

>  <Energy>  (33) 
105.50158892380578

>  <Genealogy>  (33) 
[O-]c1cc(O)ccc1-c1c([O-])[n-]c([O-])c1-c1nc2cc(Cl)ccc2[n-]1 (protonated)
[O-]c1cc(O)ccc1-c1c([O-])[n-]c([O-])c1-c1nc2cc(Cl)ccc2[n-]1 (3D coordinates assigned)
[O-]c1cc(O)ccc1-c1c([O-])[n-]c([O-])c1-c1nc2cc(Cl)ccc2[n-]1 (optimized conformer: 105.50158892380578 kcal/mol)

>  <smiles>  (33) 
Oc1ccc(-c2c(O)[nH]c(O)c2-c2nc3cc(Cl)ccc3[nH]2)c(O)c1

>  <score_type>  (33) 
oracle

>  <origin>  (33) 
adg

>  <m_score__min__energy>  (33) 
-14.57

>  <m_primary>  (33) 
energy

$$$$
33:0
     RDKit          3D

 34 36  0  0  1  0  0  0  0  0999 V2000
   57.3430   33.0690   46.8740 O   0  0  0  0  0  0  0  0  0  0  0  0
   57.3220   32.9670   45.5990 C   0  0  0  0  0  0  0  0  0  0  0  0
   58.0200   33.9870   44.8130 C   0  0  0  0  0  0  0  0  0  0  0  0
   59.7700   34.1610   45.2120 S   0  0  0  0  0  0  0  0  0  0  0  0
   60.0410   34.3280   46.9570 C   0  0  0  0  0  0  0  0  0  0  0  0
   59.2380   35.0050   47.7970 N   0  0  0  0  0  0  0  0  0  0  0  0
   59.7240   34.9350   49.0250 N   0  0  0  0  0  0  0  0  0  0  0  0
   60.8500   34.1990   48.9310 C   0  0  0  0  0  0  0  0  0  0  0  0
   61.5720   33.9360   49.9450 O   0  0  0  0  0  0  0  0  0  0  0  0
   61.0550   33.8190   47.6570 N   0  0  0  0  0  0  0  0  0  0  0  0
   62.1600   33.0250   47.2020 C   0  0  0  0  0  0  0  0  0  0  0  0
   63.1990   33.8440   46.4270 C   0  0  0  0  0  0  0  0  0  0  0  0
   63.5370   33.1850   47.7240 C   0  0  0  0  0  0  0  0  0  0  0  0
   56.6490   31.9040   44.9390 N   0  0  0  0  0  0  0  0  0  0  0  0
   57.2040   30.7460   44.8660 C   0  0  0  0  0  0  0  0  0  0  0  0
   58.5400   30.6900   44.6340 N   0  0  0  0  0  0  0  0  0  0  0  0
   59.1900   29.5050   44.5450 C   0  0  0  0  0  0  0  0  0  0  0  0
   58.5150   28.2950   44.6870 C   0  0  0  0  0  0  0  0  0  0  0  0
   57.1560   28.3310   44.9230 C   0  0  0  0  0  0  0  0  0  0  0  0
   56.5420   29.5640   45.0050 C   0  0  0  0  0  0  0  0  0  0  0  0
   55.1790   29.5870   45.2420 O   0  0  0  0  0  0  0  0  0  0  0  0
   57.9338   33.7211   43.7491 H   0  0  0  0  0  0  0  0  0  0  0  0
   57.5447   34.9497   45.0524 H   0  0  0  0  0  0  0  0  0  0  0  0
   59.2990   35.3750   49.8870 H   0  0  0  0  0  0  0  0  0  0  0  0
   61.5331   32.1295   47.0791 H   0  0  0  0  0  0  0  0  0  0  0  0
   63.6168   33.4594   45.4849 H   0  0  0  0  0  0  0  0  0  0  0  0
   63.2542   34.8674   46.0274 H   0  0  0  0  0  0  0  0  0  0  0  0
   64.2188   32.3218   47.7345 H   0  0  0  0  0  0  0  0  0  0  0  0
   63.9584   33.5399   48.6761 H   0  0  0  0  0  0  0  0  0  0  0  0
   59.1220   31.5550   44.5150 H   0  0  0  0  0  0  0  0  0  0  0  0
   60.2737   29.4981   44.3566 H   0  0  0  0  0  0  0  0  0  0  0  0
   59.0506   27.3370   44.6130 H   0  0  0  0  0  0  0  0  0  0  0  0
   56.5782   27.4026   45.0424 H   0  0  0  0  0  0  0  0  0  0  0  0
   54.7740   30.4480   45.6220 H   0  0  0  0  0  0  0  0  0  0  0  0
  1  2  2  0
  2  3  1  0
  3  4  1  0
  4  5  1  0
  5  6  2  0
  6  7  1  0
  7  8  1  0
  8  9  2  0
  8 10  1  0
 10 11  1  0
 11 12  1  0
 12 13  1  0
  2 14  1  0
 14 15  2  0
 15 16  1  0
 16 17  1  0
 17 18  2  0
 18 19  1  0
 19 20  2  0
 20 21  1  0
 10  5  1  0
 13 11  1  0
 20 15  1  0
  3 22  1  0
  3 23  1  0
  7 24  1  0
 11 25  1  0
 12 26  1  0
 12 27  1  0
 13 28  1  0
 13 29  1  0
 16 30  1  0
 17 31  1  0
 18 32  1  0
 19 33  1  0
 21 34  1  0
M  END
>  <smiles>  (34) 
O=C(CSc1n[nH]c(=O)n1C1CC1)N=c1[nH]cccc1O

>  <score_type>  (34) 
oracle

>  <origin>  (34) 
adg

>  <m_score__min__energy>  (34) 
-7.7000000000000002

>  <m_primary>  (34) 
energy

$$$$
34:0
     RDKit          3D

 45 47  0  0  0  0  0  0  0  0999 V2000
   56.9590   24.3010   47.3530 H   0  0  0  0  0  0  0  0  0  0  0  0
   57.2830   23.4450   46.9180 O   0  0  0  0  0  0  0  0  0  0  0  0
   56.9510   23.1220   45.6020 C   0  0  0  0  0  0  0  0  0  0  0  0
   57.6700   22.1300   44.9200 C   0  0  0  0  0  0  0  0  0  0  0  0
   58.4979   21.6095   45.4236 H   0  0  0  0  0  0  0  0  0  0  0  0
   57.3390   21.8000   43.6030 C   0  0  0  0  0  0  0  0  0  0  0  0
   57.9066   21.0217   43.0719 H   0  0  0  0  0  0  0  0  0  0  0  0
   56.2880   22.4580   42.9610 C   0  0  0  0  0  0  0  0  0  0  0  0
   56.0263   22.1949   41.9255 H   0  0  0  0  0  0  0  0  0  0  0  0
   55.5690   23.4490   43.6310 C   0  0  0  0  0  0  0  0  0  0  0  0
   54.7487   23.9715   43.1171 H   0  0  0  0  0  0  0  0  0  0  0  0
   55.8870   23.7830   44.9580 C   0  0  0  0  0  0  0  0  0  0  0  0
   55.1260   24.8400   45.6560 C   0  0  0  0  0  0  0  0  0  0  0  0
   53.8670   24.8270   45.6050 O   0  0  0  0  0  0  0  0  0  0  0  0
   55.7800   25.8950   46.3700 N   0  0  0  0  0  0  0  0  0  0  0  0
   57.1050   26.4030   46.0290 C   0  0  0  0  0  0  0  0  0  0  0  0
   57.3745   26.0531   45.0216 H   0  0  0  0  0  0  0  0  0  0  0  0
   57.8222   26.0306   46.7752 H   0  0  0  0  0  0  0  0  0  0  0  0
   57.1360   27.9090   46.0500 C   0  0  0  0  0  0  0  0  0  0  0  0
   57.9520   28.4990   46.8060 O   0  0  0  0  0  0  0  0  0  0  0  0
   56.2670   28.7090   45.2280 N   0  0  0  0  0  0  0  0  0  0  0  0
   56.5880   29.7210   44.4750 C   0  0  0  0  0  0  0  0  0  0  0  0
   57.0550   30.9020   44.9340 N   0  0  0  0  0  0  0  0  0  0  0  0
   57.3200   31.7670   43.9190 C   0  0  0  0  0  0  0  0  0  0  0  0
   57.8860   33.1320   44.1830 C   0  0  0  0  0  0  0  0  0  0  0  0
   58.9463   33.1407   43.8903 H   0  0  0  0  0  0  0  0  0  0  0  0
   57.3085   33.8615   43.5963 H   0  0  0  0  0  0  0  0  0  0  0  0
   57.7780   33.5100   45.6400 C   0  0  0  0  0  0  0  0  0  0  0  0
   56.6510   33.4970   46.2080 O   0  0  0  0  0  0  0  0  0  0  0  0
   58.9520   33.8170   46.4120 N   0  0  0  0  0  0  0  0  0  0  0  0
   60.3130   33.7070   45.9110 C   0  0  0  0  0  0  0  0  0  0  0  0
   60.4739   32.7210   45.4506 H   0  0  0  0  0  0  0  0  0  0  0  0
   60.5240   34.4615   45.1389 H   0  0  0  0  0  0  0  0  0  0  0  0
   61.2140   33.8790   47.1270 C   0  0  0  0  0  0  0  0  0  0  0  0
   61.6236   32.9067   47.4383 H   0  0  0  0  0  0  0  0  0  0  0  0
   62.0655   34.5387   46.9039 H   0  0  0  0  0  0  0  0  0  0  0  0
   60.3350   34.4610   48.2320 C   0  0  0  0  0  0  0  0  0  0  0  0
   60.5496   33.9660   49.1906 H   0  0  0  0  0  0  0  0  0  0  0  0
   60.5222   35.5363   48.3689 H   0  0  0  0  0  0  0  0  0  0  0  0
   58.8950   34.1970   47.8120 C   0  0  0  0  0  0  0  0  0  0  0  0
   58.4646   33.3820   48.4124 H   0  0  0  0  0  0  0  0  0  0  0  0
   58.2610   35.0829   47.9645 H   0  0  0  0  0  0  0  0  0  0  0  0
   57.0660   31.2730   42.6410 C   0  0  0  0  0  0  0  0  0  0  0  0
   57.2187   31.8142   41.6956 H   0  0  0  0  0  0  0  0  0  0  0  0
   56.4840   29.7010   42.8000 S   0  0  0  0  0  0  0  0  0  0  0  0
  1  2  1  0
  2  3  1  0
  3  4  2  0
  4  5  1  0
  4  6  1  0
  6  7  1  0
  6  8  2  0
  8  9  1  0
  8 10  1  0
 10 11  1  0
 10 12  2  0
 12 13  1  0
 13 14  2  0
 13 15  1  0
 15 16  1  0
 16 17  1  0
 16 18  1  0
 16 19  1  0
 19 20  2  0
 19 21  1  0
 21 22  2  0
 22 23  1  0
 23 24  1  0
 24 25  1  0
 25 26  1  0
 25 27  1  0
 25 28  1  0
 28 29  2  0
 28 30  1  0
 30 31  1  0
 31 32  1  0
 31 33  1  0
 31 34  1  0
 34 35  1  0
 34 36  1  0
 34 37  1  0
 37 38  1  0
 37 39  1  0
 37 40  1  0
 40 41  1  0
 40 42  1  0
 24 43  2  0
 43 44  1  0
 43 45  1  0
 12  3  1  0
 45 22  1  0
 40 30  1  0
M  CHG  2  15  -1  23  -1
M  END
>  <UniqueID>  (35) 
32

>  <SMILES>  (35) 
O=C(C[N-]C(=O)c1ccccc1O)/N=c1\[n-]c(CC(=O)N2CCCC2)cs1

>  <Energy>  (35) 
77.25915866423352

>  <Genealogy>  (35) 
O=C(C[N-]C(=O)c1ccccc1O)N=c1[n-]c(CC(=O)N2CCCC2)cs1 (protonated)
O=C(C[N-]C(=O)c1ccccc1O)/N=c1\[n-]c(CC(=O)N2CCCC2)cs1 (cis-trans isomerization)
O=C(C[N-]C(=O)c1ccccc1O)/N=c1\[n-]c(CC(=O)N2CCCC2)cs1 (3D coordinates assigned)
O=C(C[N-]C(=O)c1ccccc1O)/N=c1\[n-]c(CC(=O)N2CCCC2)cs1 (nonaromatic ring conformer: 77.25915866423352 kcal/mol)

>  <smiles>  (35) 
O=C(CNC(=O)c1ccccc1O)N=c1[nH]c(CC(=O)N2CCCC2)cs1

>  <score_type>  (35) 
oracle

>  <origin>  (35) 
adg

>  <m_score__min__energy>  (35) 
-12.69

>  <m_primary>  (35) 
energy

$$$$
35:0
     RDKit          3D

 57 60  0  0  0  0  0  0  0  0999 V2000
   59.8960   29.5360   52.1020 C   0  0  0  0  0  0  0  0  0  0  0  0
   59.1390   30.7020   51.6620 N   0  0  0  0  0  0  0  0  0  0  0  0
   57.7310   30.8140   51.7220 C   0  0  0  0  0  0  0  0  0  0  0  0
   56.9540   29.8320   51.8530 O   0  0  0  0  0  0  0  0  0  0  0  0
   57.2850   32.1430   51.6020 N   0  0  0  0  0  0  0  0  0  0  0  0
   58.4520   33.0000   51.4420 C   0  0  0  0  0  0  0  0  0  0  0  0
   59.6850   32.0560   51.5600 C   0  0  2  0  0  0  0  0  0  0  0  0
   60.6080   32.1790   50.3670 C   0  0  0  0  0  0  0  0  0  0  0  0
   61.6140   33.1570   50.3570 C   0  0  0  0  0  0  0  0  0  0  0  0
   62.4750   33.2740   49.2620 C   0  0  0  0  0  0  0  0  0  0  0  0
   62.3350   32.4210   48.1650 C   0  0  0  0  0  0  0  0  0  0  0  0
   61.3160   31.4550   48.1470 C   0  0  0  0  0  0  0  0  0  0  0  0
   61.2010   30.4950   46.9930 C   0  0  0  0  0  0  0  0  0  0  0  0
   60.6700   29.1430   47.4800 C   0  0  0  0  0  0  0  0  0  0  0  0
   59.7010   28.5600   46.4890 C   0  0  0  0  0  0  0  0  0  0  0  0
   59.7900   27.2070   46.1230 C   0  0  0  0  0  0  0  0  0  0  0  0
   58.8850   26.6650   45.2080 C   0  0  0  0  0  0  0  0  0  0  0  0
   57.8770   27.4640   44.6600 C   0  0  0  0  0  0  0  0  0  0  0  0
   57.7640   28.8090   45.0360 C   0  0  0  0  0  0  0  0  0  0  0  0
   56.4770   29.8180   44.3860 S   0  0  0  0  0  0  0  0  0  0  0  0
   56.4960   29.7250   42.8860 O   0  0  0  0  0  0  0  0  0  0  0  0
   55.1330   29.3630   44.8820 O   0  0  0  0  0  0  0  0  0  0  0  0
   56.7320   31.4680   44.8560 N   0  0  0  0  0  0  0  0  0  0  0  0
   57.5710   32.3930   44.1560 C   0  0  0  0  0  0  0  0  0  0  0  0
   58.2650   31.9660   43.1950 O   0  0  0  0  0  0  0  0  0  0  0  0
   57.5920   33.8580   44.5140 C   0  0  0  0  0  0  0  0  0  0  0  0
   58.3350   34.1250   45.7880 C   0  0  0  0  0  0  0  0  0  0  0  0
   59.4790   34.9030   45.9170 C   0  0  0  0  0  0  0  0  0  0  0  0
   59.9880   34.9190   47.2200 C   0  0  0  0  0  0  0  0  0  0  0  0
   59.2550   34.1480   48.1150 C   0  0  0  0  0  0  0  0  0  0  0  0
   57.9760   33.4400   47.2830 S   0  0  0  0  0  0  0  0  0  0  0  0
   58.6730   29.3520   45.9540 C   0  0  0  0  0  0  0  0  0  0  0  0
   60.4570   31.3380   49.2500 C   0  0  0  0  0  0  0  0  0  0  0  0
   59.9159   29.5053   53.2014 H   0  0  0  0  0  0  0  0  0  0  0  0
   59.4183   28.6225   51.7183 H   0  0  0  0  0  0  0  0  0  0  0  0
   60.9249   29.6006   51.7183 H   0  0  0  0  0  0  0  0  0  0  0  0
   56.2870   32.4580   51.5980 H   0  0  0  0  0  0  0  0  0  0  0  0
   58.4364   33.4898   50.4572 H   0  0  0  0  0  0  0  0  0  0  0  0
   58.4771   33.7984   52.1983 H   0  0  0  0  0  0  0  0  0  0  0  0
   60.2968   32.3181   52.4358 H   0  0  0  0  0  0  0  0  0  0  0  0
   61.7258   33.8355   51.2156 H   0  0  0  0  0  0  0  0  0  0  0  0
   63.2647   34.0397   49.2643 H   0  0  0  0  0  0  0  0  0  0  0  0
   63.0250   32.5062   47.3126 H   0  0  0  0  0  0  0  0  0  0  0  0
   60.5096   30.9084   46.2440 H   0  0  0  0  0  0  0  0  0  0  0  0
   62.1958   30.3500   46.5464 H   0  0  0  0  0  0  0  0  0  0  0  0
   61.5141   28.4497   47.6093 H   0  0  0  0  0  0  0  0  0  0  0  0
   60.1476   29.2938   48.4362 H   0  0  0  0  0  0  0  0  0  0  0  0
   60.5754   26.5720   46.5587 H   0  0  0  0  0  0  0  0  0  0  0  0
   58.9653   25.6070   44.9177 H   0  0  0  0  0  0  0  0  0  0  0  0
   57.1716   27.0360   43.9325 H   0  0  0  0  0  0  0  0  0  0  0  0
   58.0780   34.4138   43.6986 H   0  0  0  0  0  0  0  0  0  0  0  0
   56.5510   34.1825   44.6589 H   0  0  0  0  0  0  0  0  0  0  0  0
   59.9375   35.4503   45.0802 H   0  0  0  0  0  0  0  0  0  0  0  0
   60.8839   35.4881   47.5092 H   0  0  0  0  0  0  0  0  0  0  0  0
   59.4742   34.0223   49.1856 H   0  0  0  0  0  0  0  0  0  0  0  0
   58.5803   30.4053   46.2572 H   0  0  0  0  0  0  0  0  0  0  0  0
   59.6583   30.5817   49.2411 H   0  0  0  0  0  0  0  0  0  0  0  0
  1  2  1  0
  2  3  1  0
  3  4  2  0
  3  5  1  0
  5  6  1  0
  6  7  1  0
  7  8  1  0
  8  9  2  0
  9 10  1  0
 10 11  2  0
 11 12  1  0
 12 13  1  0
 13 14  1  0
 14 15  1  0
 15 16  2  0
 16 17  1  0
 17 18  2  0
 18 19  1  0
 19 20  1  0
 20 21  2  0
 20 22  2  0
 20 23  1  0
 23 24  1  0
 24 25  2  0
 24 26  1  0
 26 27  1  0
 27 28  2  0
 28 29  1  0
 29 30  2  0
 30 31  1  0
 19 32  2  0
 12 33  2  0
  7  2  1  0
 33  8  1  0
 32 15  1  0
 31 27  1  0
  1 34  1  0
  1 35  1  0
  1 36  1  0
  5 37  1  0
  6 38  1  0
  6 39  1  0
  7 40  1  1
  9 41  1  0
 10 42  1  0
 11 43  1  0
 13 44  1  0
 13 45  1  0
 14 46  1  0
 14 47  1  0
 16 48  1  0
 17 49  1  0
 18 50  1  0
 26 51  1  0
 26 52  1  0
 28 53  1  0
 29 54  1  0
 30 55  1  0
 32 56  1  0
 33 57  1  0
M  CHG  1  23  -1
M  END
>  <UniqueID>  (36) 
33

>  <SMILES>  (36) 
CN1C(=O)NC[C@@H]1c1cccc(CCc2cccc(S(=O)(=O)[N-]C(=O)Cc3cccs3)c2)c1

>  <Energy>  (36) 
95.09377194578346

>  <Genealogy>  (36) 
CN1C(=O)NCC1c1cccc(CCc2cccc(S(=O)(=O)[N-]C(=O)Cc3cccs3)c2)c1 (protonated)
CN1C(=O)NC[C@@H]1c1cccc(CCc2cccc(S(=O)(=O)[N-]C(=O)Cc3cccs3)c2)c1 (chirality)
CN1C(=O)NC[C@@H]1c1cccc(CCc2cccc(S(=O)(=O)[N-]C(=O)Cc3cccs3)c2)c1 (3D coordinates assigned)
CN1C(=O)NC[C@@H]1c1cccc(CCc2cccc(S(=O)(=O)[N-]C(=O)Cc3cccs3)c2)c1 (nonaromatic ring conformer: 95.09377194578346 kcal/mol)

>  <smiles>  (36) 
CN1C(=O)NCC1c1cccc(CCc2cccc(S(=O)(=O)NC(=O)Cc3cccs3)c2)c1

>  <score_type>  (36) 
oracle

>  <origin>  (36) 
adg

>  <m_score__min__energy>  (36) 
-12.300000000000001

>  <m_primary>  (36) 
energy

$$$$
36:0
     RDKit          3D

 61 63  0  0  0  0  0  0  0  0999 V2000
   54.3100   23.8350   44.5890 C   0  0  0  0  0  0  0  0  0  0  0  0
   54.7100   24.8430   45.6080 C   0  0  0  0  0  0  0  0  0  0  0  0
   54.1420   25.9650   45.6320 O   0  0  0  0  0  0  0  0  0  0  0  0
   55.7640   24.5450   46.5270 N   0  0  0  0  0  0  0  0  0  0  0  0
   57.4240   24.4190   46.0380 S   0  0  0  0  0  0  0  0  0  0  0  0
   58.0330   23.1810   46.6340 O   0  0  0  0  0  0  0  0  0  0  0  0
   57.4880   24.2990   44.5400 O   0  0  0  0  0  0  0  0  0  0  0  0
   58.3160   25.8520   46.5460 C   0  0  0  0  0  0  0  0  0  0  0  0
   59.7050   25.9230   46.3770 C   0  0  0  0  0  0  0  0  0  0  0  0
   60.4020   27.0790   46.7470 C   0  0  0  0  0  0  0  0  0  0  0  0
   59.7200   28.1780   47.2980 C   0  0  0  0  0  0  0  0  0  0  0  0
   60.4560   29.4100   47.6820 C   0  0  0  0  0  0  0  0  0  0  0  0
   60.5360   29.8050   49.0290 C   0  0  0  0  0  0  0  0  0  0  0  0
   61.2340   30.9610   49.3890 C   0  0  0  0  0  0  0  0  0  0  0  0
   61.8530   31.7500   48.4100 C   0  0  0  0  0  0  0  0  0  0  0  0
   62.6280   32.9740   48.8080 C   0  0  0  0  0  0  0  0  0  0  0  0
   61.4830   34.2940   49.3370 S   0  0  0  0  0  0  0  0  0  0  0  0
   60.2980   34.0100   48.0190 C   0  0  0  0  0  0  0  0  0  0  0  0
   59.0750   33.3960   48.3030 C   0  0  0  0  0  0  0  0  0  0  0  0
   58.1450   33.1800   47.2840 C   0  0  0  0  0  0  0  0  0  0  0  0
   58.4270   33.5660   45.9640 C   0  0  0  0  0  0  0  0  0  0  0  0
   57.4450   33.3280   44.9380 N   0  0  0  0  0  0  0  0  0  0  0  0
   57.3930   32.1400   44.0910 C   0  0  0  0  0  0  0  0  0  0  0  0
   57.8890   30.9090   44.8580 C   0  0  0  0  0  0  0  0  0  0  0  0
   56.8620   29.8450   44.8560 N   0  0  0  0  0  0  0  0  0  0  0  0
   57.4150   28.6010   44.2900 C   0  0  0  0  0  0  0  0  0  0  0  0
   55.6810   30.2530   44.0700 C   0  0  0  0  0  0  0  0  0  0  0  0
   59.6590   34.1980   45.6890 C   0  0  0  0  0  0  0  0  0  0  0  0
   60.5810   34.4210   46.7130 C   0  0  0  0  0  0  0  0  0  0  0  0
   61.7760   31.3620   47.0640 C   0  0  0  0  0  0  0  0  0  0  0  0
   61.0840   30.2010   46.7030 C   0  0  0  0  0  0  0  0  0  0  0  0
   58.3280   28.0940   47.4770 C   0  0  0  0  0  0  0  0  0  0  0  0
   57.6340   26.9370   47.1080 C   0  0  0  0  0  0  0  0  0  0  0  0
   53.9495   22.9265   45.0937 H   0  0  0  0  0  0  0  0  0  0  0  0
   53.5076   24.2479   43.9600 H   0  0  0  0  0  0  0  0  0  0  0  0
   55.1772   23.5854   43.9600 H   0  0  0  0  0  0  0  0  0  0  0  0
   60.2498   25.0671   45.9520 H   0  0  0  0  0  0  0  0  0  0  0  0
   61.4918   27.1280   46.6056 H   0  0  0  0  0  0  0  0  0  0  0  0
   60.0455   29.1995   49.8054 H   0  0  0  0  0  0  0  0  0  0  0  0
   61.2980   31.2535   50.4475 H   0  0  0  0  0  0  0  0  0  0  0  0
   63.3035   32.7231   49.6391 H   0  0  0  0  0  0  0  0  0  0  0  0
   63.2124   33.3273   47.9457 H   0  0  0  0  0  0  0  0  0  0  0  0
   58.8445   33.0821   49.3318 H   0  0  0  0  0  0  0  0  0  0  0  0
   57.1819   32.7027   47.5179 H   0  0  0  0  0  0  0  0  0  0  0  0
   56.7010   34.0500   44.7860 H   0  0  0  0  0  0  0  0  0  0  0  0
   56.3550   31.9710   43.7684 H   0  0  0  0  0  0  0  0  0  0  0  0
   58.0418   32.2987   43.2170 H   0  0  0  0  0  0  0  0  0  0  0  0
   58.8037   30.5293   44.3793 H   0  0  0  0  0  0  0  0  0  0  0  0
   58.0962   31.1996   45.8985 H   0  0  0  0  0  0  0  0  0  0  0  0
   57.7143   27.9278   45.1069 H   0  0  0  0  0  0  0  0  0  0  0  0
   56.6510   28.1087   43.6704 H   0  0  0  0  0  0  0  0  0  0  0  0
   58.2924   28.8384   43.6704 H   0  0  0  0  0  0  0  0  0  0  0  0
   54.8657   30.5347   44.7526 H   0  0  0  0  0  0  0  0  0  0  0  0
   55.9419   31.1131   43.4358 H   0  0  0  0  0  0  0  0  0  0  0  0
   55.3553   29.4153   43.4358 H   0  0  0  0  0  0  0  0  0  0  0  0
   59.8936   34.5163   44.6625 H   0  0  0  0  0  0  0  0  0  0  0  0
   61.5347   34.9224   46.4914 H   0  0  0  0  0  0  0  0  0  0  0  0
   62.2618   31.9733   46.2892 H   0  0  0  0  0  0  0  0  0  0  0  0
   61.0306   29.9043   45.6451 H   0  0  0  0  0  0  0  0  0  0  0  0
   57.7808   28.9442   47.9103 H   0  0  0  0  0  0  0  0  0  0  0  0
   56.5461   26.8797   47.2604 H   0  0  0  0  0  0  0  0  0  0  0  0
  1  2  1  0
  2  3  2  0
  2  4  1  0
  4  5  1  0
  5  6  2  0
  5  7  2  0
  5  8  1  0
  8  9  2  0
  9 10  1  0
 10 11  2  0
 11 12  1  0
 12 13  2  0
 13 14  1  0
 14 15  2  0
 15 16  1  0
 16 17  1  0
 17 18  1  0
 18 19  2  0
 19 20  1  0
 20 21  2  0
 21 22  1  0
 22 23  1  0
 23 24  1  0
 24 25  1  0
 25 26  1  0
 25 27  1  0
 21 28  1  0
 28 29  2  0
 15 30  1  0
 30 31  2  0
 11 32  1  0
 32 33  2  0
 33  8  1  0
 31 12  1  0
 29 18  1  0
  1 34  1  0
  1 35  1  0
  1 36  1  0
  9 37  1  0
 10 38  1  0
 13 39  1  0
 14 40  1  0
 16 41  1  0
 16 42  1  0
 19 43  1  0
 20 44  1  0
 22 45  1  0
 23 46  1  0
 23 47  1  0
 24 48  1  0
 24 49  1  0
 26 50  1  0
 26 51  1  0
 26 52  1  0
 27 53  1  0
 27 54  1  0
 27 55  1  0
 28 56  1  0
 29 57  1  0
 30 58  1  0
 31 59  1  0
 32 60  1  0
 33 61  1  0
M  CHG  1   4  -1
M  END
>  <UniqueID>  (37) 
34

>  <SMILES>  (37) 
CC(=O)[N-]S(=O)(=O)c1ccc(-c2ccc(CSc3ccc(NCCN(C)C)cc3)cc2)cc1

>  <Energy>  (37) 
61.71232944047655

>  <Genealogy>  (37) 
CC(=O)[N-]S(=O)(=O)c1ccc(-c2ccc(CSc3ccc(NCCN(C)C)cc3)cc2)cc1 (protonated)
CC(=O)[N-]S(=O)(=O)c1ccc(-c2ccc(CSc3ccc(NCCN(C)C)cc3)cc2)cc1 (3D coordinates assigned)
CC(=O)[N-]S(=O)(=O)c1ccc(-c2ccc(CSc3ccc(NCCN(C)C)cc3)cc2)cc1 (optimized conformer: 61.71232944047655 kcal/mol)

>  <smiles>  (37) 
CC(=O)NS(=O)(=O)c1ccc(-c2ccc(CSc3ccc(NCCN(C)C)cc3)cc2)cc1

>  <score_type>  (37) 
oracle

>  <origin>  (37) 
adg

>  <m_score__min__energy>  (37) 
-11.6

>  <m_primary>  (37) 
energy

$$$$
37:0
     RDKit          3D

 72 76  0  0  0  0  0  0  0  0999 V2000
   50.6400   33.3170   52.1320 O   0  0  0  0  0  0  0  0  0  0  0  0
   51.1200   32.3430   51.4920 C   0  0  0  0  0  0  0  0  0  0  0  0
   51.0220   32.3220   50.1060 O   0  0  0  0  0  0  0  0  0  0  0  0
   51.7790   31.2380   52.2050 C   0  0  0  0  0  0  0  0  0  0  0  0
   51.1950   30.5540   53.2710 C   0  0  0  0  0  0  0  0  0  0  0  0
   52.2690   29.3660   53.7850 S   0  0  0  0  0  0  0  0  0  0  0  0
   53.4790   29.7120   52.6690 C   0  0  0  0  0  0  0  0  0  0  0  0
   54.7600   28.9450   52.4920 C   0  0  0  0  0  0  0  0  0  0  0  0
   55.9450   29.7950   52.7700 N   0  0  2  0  0  0  0  0  0  0  0  0
   57.1870   28.9880   52.7680 C   0  0  0  0  0  0  0  0  0  0  0  0
   58.4580   29.8490   52.9540 C   0  0  0  0  0  0  0  0  0  0  0  0
   58.1710   31.2540   53.5060 C   0  0  1  0  0  0  0  0  0  0  0  0
   57.7970   32.1230   52.4300 O   0  0  0  0  0  0  0  0  0  0  0  0
   58.5850   32.4270   51.3070 C   0  0  0  0  0  0  0  0  0  0  0  0
   58.5910   31.5210   50.2400 C   0  0  0  0  0  0  0  0  0  0  0  0
   59.3590   31.7700   49.0980 C   0  0  0  0  0  0  0  0  0  0  0  0
   60.1420   32.9310   49.0110 C   0  0  0  0  0  0  0  0  0  0  0  0
   60.9830   33.1890   47.8280 C   0  0  0  0  0  0  0  0  0  0  0  0
   62.2320   33.0760   47.9300 O   0  0  0  0  0  0  0  0  0  0  0  0
   60.4260   33.5790   46.5610 N   0  0  0  0  0  0  0  0  0  0  0  0
   59.4390   34.6400   46.3390 C   0  0  0  0  0  0  0  0  0  0  0  0
   58.1260   34.2650   47.0500 C   0  0  0  0  0  0  0  0  0  0  0  0
   57.2020   33.3770   46.1860 C   0  0  0  0  0  0  0  0  0  0  0  0
   57.9730   32.6410   45.1630 N   0  0  0  0  0  0  0  0  0  0  0  0
   57.1110   31.6430   44.4940 C   0  0  0  0  0  0  0  0  0  0  0  0
   57.7570   30.2820   44.4920 C   0  0  0  0  0  0  0  0  0  0  0  0
   58.9060   30.0370   45.2640 C   0  0  0  0  0  0  0  0  0  0  0  0
   59.4860   28.7660   45.2800 C   0  0  0  0  0  0  0  0  0  0  0  0
   58.9240   27.7300   44.5310 C   0  0  0  0  0  0  0  0  0  0  0  0
   57.7790   27.9640   43.7630 C   0  0  0  0  0  0  0  0  0  0  0  0
   57.1950   29.2350   43.7450 C   0  0  0  0  0  0  0  0  0  0  0  0
   58.5750   33.5760   44.1800 C   0  0  0  0  0  0  0  0  0  0  0  0
   59.1700   34.8410   44.8370 C   0  0  0  0  0  0  0  0  0  0  0  0
   60.1540   33.8320   50.0840 C   0  0  0  0  0  0  0  0  0  0  0  0
   59.3740   33.5900   51.2200 C   0  0  0  0  0  0  0  0  0  0  0  0
   57.0620   31.1930   54.5670 C   0  0  0  0  0  0  0  0  0  0  0  0
   55.7760   30.4930   54.0670 C   0  0  0  0  0  0  0  0  0  0  0  0
   53.0550   30.7640   51.8670 C   0  0  0  0  0  0  0  0  0  0  0  0
   50.2031   30.7565   53.7013 H   0  0  0  0  0  0  0  0  0  0  0  0
   54.7632   28.0897   53.1838 H   0  0  0  0  0  0  0  0  0  0  0  0
   54.8169   28.6038   51.4478 H   0  0  0  0  0  0  0  0  0  0  0  0
   56.0060   30.5180   52.0160 H   0  0  0  0  0  0  0  0  0  0  0  0
   57.1335   28.2576   53.5887 H   0  0  0  0  0  0  0  0  0  0  0  0
   57.2607   28.4938   51.7880 H   0  0  0  0  0  0  0  0  0  0  0  0
   59.1304   29.3307   53.6535 H   0  0  0  0  0  0  0  0  0  0  0  0
   58.9098   29.9781   51.9594 H   0  0  0  0  0  0  0  0  0  0  0  0
   59.0789   31.6503   53.9843 H   0  0  0  0  0  0  0  0  0  0  0  0
   57.9859   30.6044   50.3003 H   0  0  0  0  0  0  0  0  0  0  0  0
   59.3491   31.0524   48.2643 H   0  0  0  0  0  0  0  0  0  0  0  0
   59.8374   35.5807   46.7467 H   0  0  0  0  0  0  0  0  0  0  0  0
   58.3711   33.7207   47.9739 H   0  0  0  0  0  0  0  0  0  0  0  0
   57.5847   35.2004   47.2549 H   0  0  0  0  0  0  0  0  0  0  0  0
   56.6878   32.6543   46.8367 H   0  0  0  0  0  0  0  0  0  0  0  0
   56.4744   34.0247   45.6750 H   0  0  0  0  0  0  0  0  0  0  0  0
   56.1503   31.5838   45.0264 H   0  0  0  0  0  0  0  0  0  0  0  0
   56.9568   31.9578   43.4514 H   0  0  0  0  0  0  0  0  0  0  0  0
   59.3503   30.8493   45.8579 H   0  0  0  0  0  0  0  0  0  0  0  0
   60.3868   28.5811   45.8836 H   0  0  0  0  0  0  0  0  0  0  0  0
   59.3819   26.7300   44.5451 H   0  0  0  0  0  0  0  0  0  0  0  0
   57.3372   27.1479   43.1725 H   0  0  0  0  0  0  0  0  0  0  0  0
   56.2919   29.4146   43.1432 H   0  0  0  0  0  0  0  0  0  0  0  0
   59.3773   33.0501   43.6417 H   0  0  0  0  0  0  0  0  0  0  0  0
   57.7724   33.9033   43.5027 H   0  0  0  0  0  0  0  0  0  0  0  0
   60.1179   35.0883   44.3367 H   0  0  0  0  0  0  0  0  0  0  0  0
   58.4382   35.6552   44.7294 H   0  0  0  0  0  0  0  0  0  0  0  0
   60.7803   34.7348   50.0329 H   0  0  0  0  0  0  0  0  0  0  0  0
   59.3771   34.3122   52.0497 H   0  0  0  0  0  0  0  0  0  0  0  0
   57.4431   30.6419   55.4394 H   0  0  0  0  0  0  0  0  0  0  0  0
   56.7928   32.2297   54.8176 H   0  0  0  0  0  0  0  0  0  0  0  0
   55.4665   29.7546   54.8213 H   0  0  0  0  0  0  0  0  0  0  0  0
   55.0205   31.2779   53.9144 H   0  0  0  0  0  0  0  0  0  0  0  0
   53.6593   31.1832   51.0490 H   0  0  0  0  0  0  0  0  0  0  0  0
  1  2  2  0
  2  3  1  0
  2  4  1  0
  4  5  2  0
  5  6  1  0
  6  7  1  0
  7  8  1  0
  8  9  1  0
  9 10  1  0
 10 11  1  0
 11 12  1  0
 12 13  1  0
 13 14  1  0
 14 15  2  0
 15 16  1  0
 16 17  2  0
 17 18  1  0
 18 19  2  0
 18 20  1  0
 20 21  1  0
 21 22  1  0
 22 23  1  0
 23 24  1  0
 24 25  1  0
 25 26  1  0
 26 27  2  0
 27 28  1  0
 28 29  2  0
 29 30  1  0
 30 31  2  0
 24 32  1  0
 32 33  1  0
 17 34  1  0
 34 35  2  0
 12 36  1  0
 36 37  1  0
  7 38  2  0
 38  4  1  0
 37  9  1  0
 35 14  1  0
 33 21  1  0
 31 26  1  0
  5 39  1  0
  8 40  1  0
  8 41  1  0
  9 42  1  6
 10 43  1  0
 10 44  1  0
 11 45  1  0
 11 46  1  0
 12 47  1  1
 15 48  1  0
 16 49  1  0
 21 50  1  0
 22 51  1  0
 22 52  1  0
 23 53  1  0
 23 54  1  0
 25 55  1  0
 25 56  1  0
 27 57  1  0
 28 58  1  0
 29 59  1  0
 30 60  1  0
 31 61  1  0
 32 62  1  0
 32 63  1  0
 33 64  1  0
 33 65  1  0
 34 66  1  0
 35 67  1  0
 36 68  1  0
 36 69  1  0
 37 70  1  0
 37 71  1  0
 38 72  1  0
M  CHG  3   3  -1   9   1  20  -1
M  END
>  <UniqueID>  (38) 
35

>  <SMILES>  (38) 
O=C([O-])c1csc(C[NH+]2CCC(Oc3ccc(C(=O)[N-]C4CCN(Cc5ccccc5)CC4)cc3)CC2)c1

>  <Energy>  (38) 
119.23874752738567

>  <Genealogy>  (38) 
O=C([O-])c1csc(C[NH+]2CCC(Oc3ccc(C(=O)[N-]C4CCN(Cc5ccccc5)CC4)cc3)CC2)c1 (protonated)
O=C([O-])c1csc(C[NH+]2CCC(Oc3ccc(C(=O)[N-]C4CCN(Cc5ccccc5)CC4)cc3)CC2)c1 (3D coordinates assigned)
O=C([O-])c1csc(C[NH+]2CCC(Oc3ccc(C(=O)[N-]C4CCN(Cc5ccccc5)CC4)cc3)CC2)c1 (nonaromatic ring conformer: 119.23874752738567 kcal/mol)

>  <smiles>  (38) 
O=C(O)c1csc(CN2CCC(Oc3ccc(C(=O)NC4CCN(Cc5ccccc5)CC4)cc3)CC2)c1

>  <score_type>  (38) 
oracle

>  <origin>  (38) 
adg

>  <m_score__min__energy>  (38) 
-13.630000000000001

>  <m_primary>  (38) 
energy

$$$$
38:0
     RDKit          3D

 50 52  0  0  0  0  0  0  0  0999 V2000
   57.2720   27.3060   46.1430 C   0  0  0  0  0  0  0  0  0  0  0  0
   57.0590   28.6780   45.5900 C   0  0  0  0  0  0  0  0  0  0  0  0
   56.0690   28.9940   44.7370 N   0  0  0  0  0  0  0  0  0  0  0  0
   56.2500   30.3130   44.5060 C   0  0  0  0  0  0  0  0  0  0  0  0
   57.3000   30.8430   45.1680 N   0  0  0  0  0  0  0  0  0  0  0  0
   57.8040   29.8060   45.8600 C   0  0  0  0  0  0  0  0  0  0  0  0
   59.0300   29.9000   46.7230 C   0  0  0  0  0  0  0  0  0  0  0  0
   59.2650   31.3340   47.1950 C   0  0  0  0  0  0  0  0  0  0  0  0
   59.9340   31.3330   48.4930 N   0  0  0  0  0  0  0  0  0  0  0  0
   59.8590   30.2600   49.4370 C   0  0  0  0  0  0  0  0  0  0  0  0
   60.6500   29.2860   49.3180 O   0  0  0  0  0  0  0  0  0  0  0  0
   58.8860   30.2670   50.5460 C   0  0  0  0  0  0  0  0  0  0  0  0
   58.8950   29.2200   51.4670 C   0  0  0  0  0  0  0  0  0  0  0  0
   57.9940   29.2090   52.5420 C   0  0  0  0  0  0  0  0  0  0  0  0
   58.0560   28.0480   53.5070 C   0  0  0  0  0  0  0  0  0  0  0  0
   57.1180   30.2630   52.7150 N   0  0  0  0  0  0  0  0  0  0  0  0
   56.1560   30.2800   53.8390 C   0  0  0  0  0  0  0  0  0  0  0  0
   54.9140   29.4510   53.4940 C   0  0  0  0  0  0  0  0  0  0  0  0
   53.8000   30.3390   53.0110 C   0  0  0  0  0  0  0  0  0  0  0  0
   52.7550   30.7010   53.8780 C   0  0  0  0  0  0  0  0  0  0  0  0
   51.7030   31.4990   53.4170 C   0  0  0  0  0  0  0  0  0  0  0  0
   51.6820   31.9330   52.0880 C   0  0  0  0  0  0  0  0  0  0  0  0
   50.6370   32.7270   51.6320 O   0  0  0  0  0  0  0  0  0  0  0  0
   52.7120   31.5660   51.2180 C   0  0  0  0  0  0  0  0  0  0  0  0
   53.7660   30.7680   51.6740 C   0  0  0  0  0  0  0  0  0  0  0  0
   57.0940   31.2960   51.8060 C   0  0  0  0  0  0  0  0  0  0  0  0
   56.2720   32.2460   51.9370 O   0  0  0  0  0  0  0  0  0  0  0  0
   57.9710   31.3160   50.7140 C   0  0  0  0  0  0  0  0  0  0  0  0
   57.8960   32.3800   49.8080 O   0  0  0  0  0  0  0  0  0  0  0  0
   57.2654   27.3486   47.2422 H   0  0  0  0  0  0  0  0  0  0  0  0
   56.4662   26.6420   45.7969 H   0  0  0  0  0  0  0  0  0  0  0  0
   58.2412   26.9176   45.7969 H   0  0  0  0  0  0  0  0  0  0  0  0
   55.6013   30.9007   43.8398 H   0  0  0  0  0  0  0  0  0  0  0  0
   58.9015   29.2498   47.6009 H   0  0  0  0  0  0  0  0  0  0  0  0
   59.8994   29.5821   46.1288 H   0  0  0  0  0  0  0  0  0  0  0  0
   59.8945   31.8595   46.4619 H   0  0  0  0  0  0  0  0  0  0  0  0
   58.2953   31.8445   47.2907 H   0  0  0  0  0  0  0  0  0  0  0  0
   59.6144   28.3962   51.3496 H   0  0  0  0  0  0  0  0  0  0  0  0
   58.0357   28.4277   54.5392 H   0  0  0  0  0  0  0  0  0  0  0  0
   57.1918   27.3877   53.3422 H   0  0  0  0  0  0  0  0  0  0  0  0
   58.9856   27.4834   53.3422 H   0  0  0  0  0  0  0  0  0  0  0  0
   56.6367   29.8571   54.7335 H   0  0  0  0  0  0  0  0  0  0  0  0
   55.8490   31.3190   54.0293 H   0  0  0  0  0  0  0  0  0  0  0  0
   55.1693   28.7296   52.7038 H   0  0  0  0  0  0  0  0  0  0  0  0
   54.5786   28.9228   54.3987 H   0  0  0  0  0  0  0  0  0  0  0  0
   52.7644   30.3557   54.9224 H   0  0  0  0  0  0  0  0  0  0  0  0
   50.8907   31.7857   54.1011 H   0  0  0  0  0  0  0  0  0  0  0  0
   52.6937   31.9056   50.1719 H   0  0  0  0  0  0  0  0  0  0  0  0
   54.5708   30.4754   50.9836 H   0  0  0  0  0  0  0  0  0  0  0  0
   58.5420   32.4930   49.0370 H   0  0  0  0  0  0  0  0  0  0  0  0
  1  2  1  0
  2  3  1  0
  3  4  1  0
  4  5  2  0
  5  6  1  0
  6  7  1  0
  7  8  1  0
  8  9  1  0
  9 10  1  0
 10 11  2  0
 10 12  1  0
 12 13  1  0
 13 14  2  0
 14 15  1  0
 14 16  1  0
 16 17  1  0
 17 18  1  0
 18 19  1  0
 19 20  2  0
 20 21  1  0
 21 22  2  0
 22 23  1  0
 22 24  1  0
 24 25  2  0
 16 26  1  0
 26 27  2  0
 26 28  1  0
 28 29  1  0
  6  2  2  0
 28 12  2  0
 25 19  1  0
  1 30  1  0
  1 31  1  0
  1 32  1  0
  4 33  1  0
  7 34  1  0
  7 35  1  0
  8 36  1  0
  8 37  1  0
 13 38  1  0
 15 39  1  0
 15 40  1  0
 15 41  1  0
 17 42  1  0
 17 43  1  0
 18 44  1  0
 18 45  1  0
 20 46  1  0
 21 47  1  0
 24 48  1  0
 25 49  1  0
 29 50  1  0
M  CHG  3   3  -1   9  -1  23  -1
M  END
>  <UniqueID>  (39) 
36

>  <SMILES>  (39) 
Cc1[n-]cnc1CC[N-]C(=O)c1cc(C)n(CCc2ccc([O-])cc2)c(=O)c1O

>  <Energy>  (39) 
82.88370558407628

>  <Genealogy>  (39) 
Cc1[n-]cnc1CC[N-]C(=O)c1cc(C)n(CCc2ccc([O-])cc2)c(=O)c1O (protonated)
Cc1[n-]cnc1CC[N-]C(=O)c1cc(C)n(CCc2ccc([O-])cc2)c(=O)c1O (3D coordinates assigned)
Cc1[n-]cnc1CC[N-]C(=O)c1cc(C)n(CCc2ccc([O-])cc2)c(=O)c1O (optimized conformer: 82.88370558407628 kcal/mol)

>  <smiles>  (39) 
Cc1[nH]cnc1CCNC(=O)c1cc(C)n(CCc2ccc(O)cc2)c(=O)c1O

>  <score_type>  (39) 
oracle

>  <origin>  (39) 
adg

>  <m_score__min__energy>  (39) 
-13.56

>  <m_primary>  (39) 
energy

$$$$
39:0
     RDKit          3D

 50 53  0  0  0  0  0  0  0  0999 V2000
   56.1740   28.2590   45.2520 O   0  0  0  0  0  0  0  0  0  0  0  0
   57.4020   28.5370   45.1820 C   0  0  0  0  0  0  0  0  0  0  0  0
   58.3290   27.5490   44.7170 N   0  0  0  0  0  0  0  0  0  0  0  0
   59.2530   26.8240   45.5830 C   0  0  0  0  0  0  0  0  0  0  0  0
   58.6000   26.4800   46.9290 C   0  0  0  0  0  0  0  0  0  0  0  0
   57.2520   25.7580   46.7860 C   0  0  0  0  0  0  0  0  0  0  0  0
   57.2040   24.9630   45.5590 N   0  0  0  0  0  0  0  0  0  0  0  0
   57.4440   23.6420   45.4580 C   0  0  0  0  0  0  0  0  0  0  0  0
   57.3400   23.2810   44.1280 C   0  0  0  0  0  0  0  0  0  0  0  0
   57.0330   24.4540   43.4620 C   0  0  0  0  0  0  0  0  0  0  0  0
   56.9600   25.4550   44.3570 N   0  0  0  0  0  0  0  0  0  0  0  0
   57.8960   29.8800   45.5790 C   0  0  0  0  0  0  0  0  0  0  0  0
   58.6120   30.0240   46.7770 C   0  0  0  0  0  0  0  0  0  0  0  0
   59.0980   31.2360   47.1820 N   0  0  0  0  0  0  0  0  0  0  0  0
   59.8550   31.2890   48.4480 C   0  0  0  0  0  0  0  0  0  0  0  0
   61.1980   31.9430   48.2350 C   0  0  0  0  0  0  0  0  0  0  0  0
   62.1410   31.3510   47.3760 C   0  0  0  0  0  0  0  0  0  0  0  0
   63.3730   31.9700   47.1450 C   0  0  0  0  0  0  0  0  0  0  0  0
   63.6710   33.1860   47.7640 C   0  0  0  0  0  0  0  0  0  0  0  0
   62.7400   33.7860   48.6150 C   0  0  0  0  0  0  0  0  0  0  0  0
   61.5050   33.1720   48.8510 C   0  0  0  0  0  0  0  0  0  0  0  0
   60.6160   33.7720   49.6800 F   0  0  0  0  0  0  0  0  0  0  0  0
   58.8890   32.3570   46.4170 C   0  0  0  0  0  0  0  0  0  0  0  0
   59.3690   33.5700   46.8170 N   0  0  0  0  0  0  0  0  0  0  0  0
   59.1840   34.7040   46.0910 C   0  0  0  0  0  0  0  0  0  0  0  0
   59.6510   35.7960   46.5060 O   0  0  0  0  0  0  0  0  0  0  0  0
   58.4780   34.6550   44.8890 C   0  0  0  0  0  0  0  0  0  0  0  0
   57.9680   33.4360   44.4450 C   0  0  0  0  0  0  0  0  0  0  0  0
   58.1660   32.2680   45.2040 C   0  0  0  0  0  0  0  0  0  0  0  0
   57.6700   31.0220   44.7870 C   0  0  0  0  0  0  0  0  0  0  0  0
   57.0360   30.9270   43.6990 O   0  0  0  0  0  0  0  0  0  0  0  0
   59.5567   25.8923   45.0832 H   0  0  0  0  0  0  0  0  0  0  0  0
   60.1264   27.4649   45.7738 H   0  0  0  0  0  0  0  0  0  0  0  0
   59.2854   25.8304   47.4932 H   0  0  0  0  0  0  0  0  0  0  0  0
   58.4060   27.4302   47.4481 H   0  0  0  0  0  0  0  0  0  0  0  0
   57.1081   25.0928   47.6502 H   0  0  0  0  0  0  0  0  0  0  0  0
   56.4550   26.5149   46.7414 H   0  0  0  0  0  0  0  0  0  0  0  0
   57.6822   22.9654   46.2919 H   0  0  0  0  0  0  0  0  0  0  0  0
   57.4725   22.2791   43.6936 H   0  0  0  0  0  0  0  0  0  0  0  0
   56.8746   24.5519   42.3779 H   0  0  0  0  0  0  0  0  0  0  0  0
   56.7520   26.4580   44.1480 H   0  0  0  0  0  0  0  0  0  0  0  0
   58.7868   29.1390   47.4065 H   0  0  0  0  0  0  0  0  0  0  0  0
   59.2833   31.8691   49.1874 H   0  0  0  0  0  0  0  0  0  0  0  0
   60.0132   30.2626   48.8106 H   0  0  0  0  0  0  0  0  0  0  0  0
   61.9079   30.3956   46.8831 H   0  0  0  0  0  0  0  0  0  0  0  0
   64.1079   31.4992   46.4755 H   0  0  0  0  0  0  0  0  0  0  0  0
   64.6407   33.6721   47.5810 H   0  0  0  0  0  0  0  0  0  0  0  0
   62.9783   34.7437   49.1009 H   0  0  0  0  0  0  0  0  0  0  0  0
   58.3252   35.5695   44.2971 H   0  0  0  0  0  0  0  0  0  0  0  0
   57.4093   33.3871   43.4987 H   0  0  0  0  0  0  0  0  0  0  0  0
  1  2  2  0
  2  3  1  0
  3  4  1  0
  4  5  1  0
  5  6  1  0
  6  7  1  0
  7  8  1  0
  8  9  2  0
  9 10  1  0
 10 11  2  0
  2 12  1  0
 12 13  2  0
 13 14  1  0
 14 15  1  0
 15 16  1  0
 16 17  2  0
 17 18  1  0
 18 19  2  0
 19 20  1  0
 20 21  2  0
 21 22  1  0
 14 23  1  0
 23 24  1  0
 24 25  1  0
 25 26  2  0
 25 27  1  0
 27 28  2  0
 28 29  1  0
 29 30  1  0
 30 31  2  0
 11  7  1  0
 30 12  1  0
 21 16  1  0
 29 23  2  0
  4 32  1  0
  4 33  1  0
  5 34  1  0
  5 35  1  0
  6 36  1  0
  6 37  1  0
  8 38  1  0
  9 39  1  0
 10 40  1  0
 11 41  1  0
 13 42  1  0
 15 43  1  0
 15 44  1  0
 17 45  1  0
 18 46  1  0
 19 47  1  0
 20 48  1  0
 27 49  1  0
 28 50  1  0
M  CHG  3   3  -1  11   1  24  -1
M  END
>  <UniqueID>  (40) 
37

>  <SMILES>  (40) 
O=C([N-]CCCn1ccc[nH+]1)c1cn(Cc2ccccc2F)c2[n-]c(=O)ccc2c1=O

>  <Energy>  (40) 
86.93005392817194

>  <Genealogy>  (40) 
O=C([N-]CCCn1ccc[nH+]1)c1cn(Cc2ccccc2F)c2[n-]c(=O)ccc2c1=O (protonated)
O=C([N-]CCCn1ccc[nH+]1)c1cn(Cc2ccccc2F)c2[n-]c(=O)ccc2c1=O (3D coordinates assigned)
O=C([N-]CCCn1ccc[nH+]1)c1cn(Cc2ccccc2F)c2[n-]c(=O)ccc2c1=O (optimized conformer: 86.93005392817194 kcal/mol)

>  <smiles>  (40) 
O=C(NCCCn1cccn1)c1cn(Cc2ccccc2F)c2[nH]c(=O)ccc2c1=O

>  <score_type>  (40) 
oracle

>  <origin>  (40) 
adg

>  <m_score__min__energy>  (40) 
-9.5999999999999996

>  <m_primary>  (40) 
energy

$$$$
40:0
     RDKit          3D

 36 39  0  0  0  0  0  0  0  0999 V2000
   55.8698   22.0484   47.8262 H   0  0  0  0  0  0  0  0  0  0  0  0
   56.1120   23.0440   47.4260 C   0  0  0  0  0  0  0  0  0  0  0  0
   57.3880   23.5120   47.3410 N   0  0  0  0  0  0  0  0  0  0  0  0
   57.2080   24.7280   46.8080 C   0  0  0  0  0  0  0  0  0  0  0  0
   58.1450   25.6980   46.4860 C   0  0  0  0  0  0  0  0  0  0  0  0
   59.3740   25.5150   46.6780 O   0  0  0  0  0  0  0  0  0  0  0  0
   57.6900   26.8690   45.9500 N   0  0  0  0  0  0  0  0  0  0  0  0
   56.3490   27.0840   45.7290 C   0  0  0  0  0  0  0  0  0  0  0  0
   55.9200   28.2110   45.2410 N   0  0  0  0  0  0  0  0  0  0  0  0
   56.6550   29.4430   45.1360 C   0  0  0  0  0  0  0  0  0  0  0  0
   56.3700   30.3080   44.0730 C   0  0  0  0  0  0  0  0  0  0  0  0
   55.5778   30.0485   43.3553 H   0  0  0  0  0  0  0  0  0  0  0  0
   57.0840   31.4980   43.9170 C   0  0  0  0  0  0  0  0  0  0  0  0
   56.8462   32.1716   43.0805 H   0  0  0  0  0  0  0  0  0  0  0  0
   58.1000   31.8400   44.8170 C   0  0  0  0  0  0  0  0  0  0  0  0
   58.8240   33.0610   44.6060 N   0  0  0  0  0  0  0  0  0  0  0  0
   58.5060   34.3470   45.1570 C   0  0  0  0  0  0  0  0  0  0  0  0
   57.4640   34.9510   44.7930 O   0  0  0  0  0  0  0  0  0  0  0  0
   59.4410   35.0300   46.0050 N   0  0  0  0  0  0  0  0  0  0  0  0
   60.3140   34.5180   46.8270 C   0  0  0  0  0  0  0  0  0  0  0  0
   60.0630   34.5970   48.1620 N   0  0  0  0  0  0  0  0  0  0  0  0
   60.9090   34.0860   49.0960 C   0  0  0  0  0  0  0  0  0  0  0  0
   60.6696   34.1807   50.1654 H   0  0  0  0  0  0  0  0  0  0  0  0
   62.0800   33.4420   48.6980 C   0  0  0  0  0  0  0  0  0  0  0  0
   62.7733   33.0342   49.4484 H   0  0  0  0  0  0  0  0  0  0  0  0
   62.3620   33.3210   47.3380 C   0  0  0  0  0  0  0  0  0  0  0  0
   63.2781   32.8083   47.0095 H   0  0  0  0  0  0  0  0  0  0  0  0
   61.4810   33.8510   46.3930 C   0  0  0  0  0  0  0  0  0  0  0  0
   61.6943   33.7498   45.3186 H   0  0  0  0  0  0  0  0  0  0  0  0
   58.4280   30.9470   45.8520 C   0  0  0  0  0  0  0  0  0  0  0  0
   59.2510   31.1865   46.5415 H   0  0  0  0  0  0  0  0  0  0  0  0
   57.7130   29.7560   46.0090 C   0  0  0  0  0  0  0  0  0  0  0  0
   57.9788   29.0605   46.8187 H   0  0  0  0  0  0  0  0  0  0  0  0
   55.4400   26.1180   46.0640 N   0  0  0  0  0  0  0  0  0  0  0  0
   55.8960   24.9580   46.5950 C   0  0  0  0  0  0  0  0  0  0  0  0
   55.1600   23.9070   46.9760 N   0  0  0  0  0  0  0  0  0  0  0  0
  1  2  1  0
  2  3  2  0
  3  4  1  0
  4  5  1  0
  5  6  2  0
  5  7  1  0
  7  8  1  0
  8  9  2  0
  9 10  1  0
 10 11  2  0
 11 12  1  0
 11 13  1  0
 13 14  1  0
 13 15  2  0
 15 16  1  0
 16 17  1  0
 17 18  2  0
 17 19  1  0
 19 20  2  3
 20 21  1  0
 21 22  1  0
 22 23  1  0
 22 24  2  0
 24 25  1  0
 24 26  1  0
 26 27  1  0
 26 28  2  0
 28 29  1  0
 15 30  1  0
 30 31  1  0
 30 32  2  0
 32 33  1  0
  8 34  1  0
 34 35  1  0
 35 36  1  0
 36  2  1  0
 35  4  2  0
 32 10  1  0
 28 20  1  0
M  CHG  5   7  -1  16  -1  21  -1  34  -1  36  -1
M  END
>  <UniqueID>  (41) 
38

>  <SMILES>  (41) 
O=C(N=c1cccc[n-]1)[N-]c1ccc(/N=c2\[n-]c(=O)c3nc[n-]c3[n-]2)cc1

>  <Energy>  (41) 
97.5682731107263

>  <Genealogy>  (41) 
O=C(N=c1cccc[n-]1)[N-]c1ccc(N=c2[n-]c(=O)c3nc[n-]c3[n-]2)cc1 (protonated)
O=C(N=c1cccc[n-]1)[N-]c1ccc(/N=c2\[n-]c(=O)c3nc[n-]c3[n-]2)cc1 (cis-trans isomerization)
O=C(N=c1cccc[n-]1)[N-]c1ccc(/N=c2\[n-]c(=O)c3nc[n-]c3[n-]2)cc1 (3D coordinates assigned)
O=C(N=c1cccc[n-]1)[N-]c1ccc(/N=c2\[n-]c(=O)c3nc[n-]c3[n-]2)cc1 (optimized conformer: 97.5682731107263 kcal/mol)

>  <smiles>  (41) 
O=C(N=c1cccc[nH]1)Nc1ccc(N=c2[nH]c(=O)c3nc[nH]c3[nH]2)cc1

>  <score_type>  (41) 
oracle

>  <origin>  (41) 
adg

>  <m_score__min__energy>  (41) 
-14.98

>  <m_primary>  (41) 
energy

$$$$
41:0
     RDKit          3D

 60 62  0  0  1  0  0  0  0  0999 V2000
   64.1450   33.1840   49.7860 C   0  0  0  0  0  0  0  0  0  0  0  0
   63.8670   32.0770   48.8160 C   0  0  0  0  0  0  0  0  0  0  0  0
   62.5590   32.2950   48.1400 N   0  0  0  0  0  0  0  0  0  0  0  0
   62.6420   33.6090   47.6100 C   0  0  0  0  0  0  0  0  0  0  0  0
   63.3620   33.7980   46.3320 C   0  0  0  0  0  0  0  0  0  0  0  0
   62.4340   31.2160   47.2240 C   0  0  0  0  0  0  0  0  0  0  0  0
   61.2670   30.3330   47.3840 C   0  0  0  0  0  0  0  0  0  0  0  0
   60.5360   29.7950   46.3480 C   0  0  0  0  0  0  0  0  0  0  0  0
   59.4630   28.9480   46.6080 C   0  0  0  0  0  0  0  0  0  0  0  0
   58.6810   28.3560   45.5980 N   0  0  0  0  0  0  0  0  0  0  0  0
   57.9530   29.0940   44.8380 C   0  0  0  0  0  0  0  0  0  0  0  0
   57.0970   28.6000   43.9270 N   0  0  0  0  0  0  0  0  0  0  0  0
   56.3790   29.4500   43.1890 C   0  0  0  0  0  0  0  0  0  0  0  0
   56.5050   30.8110   43.3480 C   0  0  0  0  0  0  0  0  0  0  0  0
   57.3870   31.3030   44.2840 C   0  0  0  0  0  0  0  0  0  0  0  0
   57.5100   32.5700   44.4330 N   0  0  0  0  0  0  0  0  0  0  0  0
   58.1210   33.1210   45.5930 C   0  0  0  0  0  0  0  0  0  0  0  0
   58.9290   34.2410   45.3700 C   0  0  0  0  0  0  0  0  0  0  0  0
   59.5590   34.8460   46.4160 C   0  0  0  0  0  0  0  0  0  0  0  0
   59.3890   34.3400   47.6870 C   0  0  0  0  0  0  0  0  0  0  0  0
   58.5940   33.2340   47.9230 C   0  0  0  0  0  0  0  0  0  0  0  0
   58.4010   32.6970   49.2060 N   0  0  0  0  0  0  0  0  0  0  0  0
   59.5540   32.8890   50.4980 S   0  0  0  0  0  0  0  0  0  0  0  0
   58.9140   34.0530   51.7000 C   0  0  0  0  0  0  0  0  0  0  0  0
   60.7940   33.4800   49.8930 O   0  0  0  0  0  0  0  0  0  0  0  0
   59.8030   31.5540   51.1430 O   0  0  0  0  0  0  0  0  0  0  0  0
   57.9490   32.6140   46.8610 C   0  0  0  0  0  0  0  0  0  0  0  0
   58.0900   30.4400   45.0060 N   0  0  0  0  0  0  0  0  0  0  0  0
   59.1250   28.6430   47.9240 C   0  0  0  0  0  0  0  0  0  0  0  0
   59.8480   29.1750   48.9790 C   0  0  0  0  0  0  0  0  0  0  0  0
   60.9060   30.0100   48.6990 C   0  0  0  0  0  0  0  0  0  0  0  0
   61.6130   30.5270   49.7870 O   0  0  0  0  0  0  0  0  0  0  0  0
   64.0495   32.8036   50.8137 H   0  0  0  0  0  0  0  0  0  0  0  0
   65.1659   33.5619   49.6283 H   0  0  0  0  0  0  0  0  0  0  0  0
   63.4237   33.9994   49.6283 H   0  0  0  0  0  0  0  0  0  0  0  0
   64.6654   32.0488   48.0599 H   0  0  0  0  0  0  0  0  0  0  0  0
   63.8308   31.1237   49.3637 H   0  0  0  0  0  0  0  0  0  0  0  0
   61.6127   33.9675   47.4617 H   0  0  0  0  0  0  0  0  0  0  0  0
   63.2398   34.1653   48.3470 H   0  0  0  0  0  0  0  0  0  0  0  0
   64.4073   34.0724   46.5371 H   0  0  0  0  0  0  0  0  0  0  0  0
   63.3351   32.8624   45.7542 H   0  0  0  0  0  0  0  0  0  0  0  0
   62.8791   34.5998   45.7542 H   0  0  0  0  0  0  0  0  0  0  0  0
   62.3895   31.6440   46.2117 H   0  0  0  0  0  0  0  0  0  0  0  0
   63.3057   30.5742   47.4193 H   0  0  0  0  0  0  0  0  0  0  0  0
   60.8021   30.0365   45.3083 H   0  0  0  0  0  0  0  0  0  0  0  0
   57.0530   27.5590   43.8580 H   0  0  0  0  0  0  0  0  0  0  0  0
   55.6750   29.0557   42.4414 H   0  0  0  0  0  0  0  0  0  0  0  0
   55.9067   31.4995   42.7331 H   0  0  0  0  0  0  0  0  0  0  0  0
   59.0558   34.6334   44.3502 H   0  0  0  0  0  0  0  0  0  0  0  0
   60.1954   35.7274   46.2482 H   0  0  0  0  0  0  0  0  0  0  0  0
   59.8973   34.8272   48.5322 H   0  0  0  0  0  0  0  0  0  0  0  0
   57.5240   32.1580   49.3790 H   0  0  0  0  0  0  0  0  0  0  0  0
   59.1183   33.6815   52.7150 H   0  0  0  0  0  0  0  0  0  0  0  0
   59.4024   35.0289   51.5615 H   0  0  0  0  0  0  0  0  0  0  0  0
   57.8284   34.1634   51.5615 H   0  0  0  0  0  0  0  0  0  0  0  0
   57.3119   31.7333   47.0301 H   0  0  0  0  0  0  0  0  0  0  0  0
   58.7680   30.8150   45.7270 H   0  0  0  0  0  0  0  0  0  0  0  0
   58.2762   27.9736   48.1276 H   0  0  0  0  0  0  0  0  0  0  0  0
   59.5822   28.9352   50.0191 H   0  0  0  0  0  0  0  0  0  0  0  0
   61.6890   31.5040   50.0090 H   0  0  0  0  0  0  0  0  0  0  0  0
  1  2  1  0
  2  3  1  0
  3  4  1  0
  4  5  1  0
  3  6  1  0
  6  7  1  0
  7  8  2  0
  8  9  1  0
  9 10  1  0
 10 11  2  0
 11 12  1  0
 12 13  1  0
 13 14  2  0
 14 15  1  0
 15 16  2  0
 16 17  1  0
 17 18  2  0
 18 19  1  0
 19 20  2  0
 20 21  1  0
 21 22  1  0
 22 23  1  0
 23 24  1  0
 23 25  2  0
 23 26  2  0
 21 27  2  0
 15 28  1  0
  9 29  2  0
 29 30  1  0
 30 31  2  0
 31 32  1  0
 31  7  1  0
 28 11  1  0
 27 17  1  0
  1 33  1  0
  1 34  1  0
  1 35  1  0
  2 36  1  0
  2 37  1  0
  4 38  1  0
  4 39  1  0
  5 40  1  0
  5 41  1  0
  5 42  1  0
  6 43  1  0
  6 44  1  0
  8 45  1  0
 12 46  1  0
 13 47  1  0
 14 48  1  0
 18 49  1  0
 19 50  1  0
 20 51  1  0
 22 52  1  0
 24 53  1  0
 24 54  1  0
 24 55  1  0
 27 56  1  0
 28 57  1  0
 29 58  1  0
 30 59  1  0
 32 60  1  0
M  END
>  <smiles>  (42) 
CCN(CC)Cc1cc(N=c2[nH]ccc(=Nc3cccc(NS(C)(=O)=O)c3)[nH]2)ccc1O

>  <score_type>  (42) 
oracle

>  <origin>  (42) 
adg

>  <m_score__min__energy>  (42) 
-9.1899999999999995

>  <m_primary>  (42) 
energy

$$$$
42:0
     RDKit          3D

 70 73  0  0  0  0  0  0  0  0999 V2000
   56.6030   29.0000   52.5750 C   0  0  0  0  0  0  0  0  0  0  0  0
   56.2560   30.4860   52.4140 C   0  0  0  0  0  0  0  0  0  0  0  0
   54.9650   30.6700   51.6080 C   0  0  0  0  0  0  0  0  0  0  0  0
   57.4040   31.2530   51.7870 C   0  0  0  0  0  0  0  0  0  0  0  0
   57.6230   32.6080   52.0900 C   0  0  0  0  0  0  0  0  0  0  0  0
   58.6900   33.2990   51.5120 C   0  0  0  0  0  0  0  0  0  0  0  0
   59.5560   32.6540   50.6150 C   0  0  0  0  0  0  0  0  0  0  0  0
   60.6900   33.3470   50.0780 N   0  0  0  0  0  0  0  0  0  0  0  0
   60.7140   34.0290   48.8160 C   0  0  0  0  0  0  0  0  0  0  0  0
   61.7870   34.5610   48.4290 O   0  0  0  0  0  0  0  0  0  0  0  0
   59.4870   34.1200   47.9550 C   0  0  0  0  0  0  0  0  0  0  0  0
   59.8280   33.8070   46.6150 O   0  0  0  0  0  0  0  0  0  0  0  0
   58.7920   34.1650   45.7210 C   0  0  0  0  0  0  0  0  0  0  0  0
   58.2130   32.9400   45.0590 C   0  0  0  0  0  0  0  0  0  0  0  0
   57.8990   31.7970   45.8150 C   0  0  0  0  0  0  0  0  0  0  0  0
   57.3520   30.6700   45.1920 C   0  0  0  0  0  0  0  0  0  0  0  0
   57.1290   30.6710   43.8130 C   0  0  0  0  0  0  0  0  0  0  0  0
   57.4500   31.8000   43.0530 C   0  0  0  0  0  0  0  0  0  0  0  0
   57.9830   32.9350   43.6720 C   0  0  0  0  0  0  0  0  0  0  0  0
   59.3610   31.2920   50.3220 C   0  0  0  0  0  0  0  0  0  0  0  0
   60.2280   30.6050   49.4020 N   0  0  0  0  0  0  0  0  0  0  0  0
   60.3670   31.1190   48.0290 C   0  0  0  0  0  0  0  0  0  0  0  0
   60.9210   30.0430   47.0860 C   0  0  0  0  0  0  0  0  0  0  0  0
   60.2590   28.7590   47.3540 N   0  0  0  0  0  0  0  0  0  0  0  0
   59.4870   28.1120   46.3240 C   0  0  0  0  0  0  0  0  0  0  0  0
   59.7240   28.4300   44.9770 C   0  0  0  0  0  0  0  0  0  0  0  0
   58.9700   27.8370   43.9670 C   0  0  0  0  0  0  0  0  0  0  0  0
   57.9660   26.9260   44.2860 C   0  0  0  0  0  0  0  0  0  0  0  0
   57.7000   26.5960   45.6250 C   0  0  0  0  0  0  0  0  0  0  0  0
   56.3700   25.4860   45.9870 S   0  0  0  0  0  0  0  0  0  0  0  0
   54.8750   26.3570   46.0050 N   0  0  0  0  0  0  0  0  0  0  0  0
   56.2830   24.4100   44.9410 O   0  0  0  0  0  0  0  0  0  0  0  0
   56.5970   24.8400   47.3250 O   0  0  0  0  0  0  0  0  0  0  0  0
   58.4810   27.1800   46.6520 C   0  0  0  0  0  0  0  0  0  0  0  0
   58.2900   26.8480   47.9970 O   0  0  0  0  0  0  0  0  0  0  0  0
   60.2010   28.2440   48.7330 C   0  0  0  0  0  0  0  0  0  0  0  0
   60.7410   29.2700   49.7360 C   0  0  0  0  0  0  0  0  0  0  0  0
   58.2830   30.6050   50.9040 C   0  0  0  0  0  0  0  0  0  0  0  0
   56.6612   28.7509   53.6448 H   0  0  0  0  0  0  0  0  0  0  0  0
   55.8237   28.3877   52.0978 H   0  0  0  0  0  0  0  0  0  0  0  0
   57.5729   28.7962   52.0978 H   0  0  0  0  0  0  0  0  0  0  0  0
   56.0860   30.8988   53.4193 H   0  0  0  0  0  0  0  0  0  0  0  0
   54.1164   30.7909   52.2974 H   0  0  0  0  0  0  0  0  0  0  0  0
   55.0528   31.5647   50.9741 H   0  0  0  0  0  0  0  0  0  0  0  0
   54.7994   29.7864   50.9741 H   0  0  0  0  0  0  0  0  0  0  0  0
   56.9493   33.1276   52.7872 H   0  0  0  0  0  0  0  0  0  0  0  0
   58.8533   34.3578   51.7617 H   0  0  0  0  0  0  0  0  0  0  0  0
   58.7308   33.4080   48.3172 H   0  0  0  0  0  0  0  0  0  0  0  0
   59.0801   35.1409   48.0018 H   0  0  0  0  0  0  0  0  0  0  0  0
   57.9979   34.6842   46.2777 H   0  0  0  0  0  0  0  0  0  0  0  0
   59.2069   34.8243   44.9443 H   0  0  0  0  0  0  0  0  0  0  0  0
   58.0839   31.7888   46.8993 H   0  0  0  0  0  0  0  0  0  0  0  0
   57.0972   29.7819   45.7889 H   0  0  0  0  0  0  0  0  0  0  0  0
   56.7007   29.7832   43.3247 H   0  0  0  0  0  0  0  0  0  0  0  0
   57.2829   31.7953   41.9658 H   0  0  0  0  0  0  0  0  0  0  0  0
   58.2228   33.8256   43.0726 H   0  0  0  0  0  0  0  0  0  0  0  0
   59.3802   31.4412   47.6651 H   0  0  0  0  0  0  0  0  0  0  0  0
   61.0706   31.9644   48.0436 H   0  0  0  0  0  0  0  0  0  0  0  0
   60.7343   30.3397   46.0433 H   0  0  0  0  0  0  0  0  0  0  0  0
   62.0031   29.9359   47.2523 H   0  0  0  0  0  0  0  0  0  0  0  0
   60.5112   29.1531   44.7174 H   0  0  0  0  0  0  0  0  0  0  0  0
   59.1681   28.0889   42.9147 H   0  0  0  0  0  0  0  0  0  0  0  0
   57.3763   26.4609   43.4823 H   0  0  0  0  0  0  0  0  0  0  0  0
   55.1160   27.3750   46.0020 H   0  0  0  0  0  0  0  0  0  0  0  0
   57.6950   26.0920   48.3070 H   0  0  0  0  0  0  0  0  0  0  0  0
   59.1555   28.0129   48.9851 H   0  0  0  0  0  0  0  0  0  0  0  0
   60.8254   27.3403   48.7918 H   0  0  0  0  0  0  0  0  0  0  0  0
   60.4154   28.9963   50.7504 H   0  0  0  0  0  0  0  0  0  0  0  0
   61.8400   29.2800   49.6913 H   0  0  0  0  0  0  0  0  0  0  0  0
   58.1248   29.5431   50.6645 H   0  0  0  0  0  0  0  0  0  0  0  0
  1  2  1  0
  2  3  1  0
  2  4  1  0
  4  5  2  0
  5  6  1  0
  6  7  2  0
  7  8  1  0
  8  9  1  0
  9 10  2  0
  9 11  1  0
 11 12  1  0
 12 13  1  0
 13 14  1  0
 14 15  2  0
 15 16  1  0
 16 17  2  0
 17 18  1  0
 18 19  2  0
  7 20  1  0
 20 21  1  0
 21 22  1  0
 22 23  1  0
 23 24  1  0
 24 25  1  0
 25 26  2  0
 26 27  1  0
 27 28  2  0
 28 29  1  0
 29 30  1  0
 30 31  1  0
 30 32  2  0
 30 33  2  0
 29 34  2  0
 34 35  1  0
 24 36  1  0
 36 37  1  0
 20 38  2  0
 38  4  1  0
 19 14  1  0
 37 21  1  0
 34 25  1  0
  1 39  1  0
  1 40  1  0
  1 41  1  0
  2 42  1  0
  3 43  1  0
  3 44  1  0
  3 45  1  0
  5 46  1  0
  6 47  1  0
 11 48  1  0
 11 49  1  0
 13 50  1  0
 13 51  1  0
 15 52  1  0
 16 53  1  0
 17 54  1  0
 18 55  1  0
 19 56  1  0
 22 57  1  0
 22 58  1  0
 23 59  1  0
 23 60  1  0
 26 61  1  0
 27 62  1  0
 28 63  1  0
 31 64  1  0
 35 65  1  0
 36 66  1  0
 36 67  1  0
 37 68  1  0
 37 69  1  0
 38 70  1  0
M  CHG  2   8  -1  31  -1
M  END
>  <UniqueID>  (43) 
39

>  <SMILES>  (43) 
CC(C)c1ccc([N-]C(=O)COCc2ccccc2)c(N2CCN(c3cccc(S([NH-])(=O)=O)c3O)CC2)c1

>  <Energy>  (43) 
86.07446906375598

>  <Genealogy>  (43) 
CC(C)c1ccc([N-]C(=O)COCc2ccccc2)c(N2CCN(c3cccc(S([NH-])(=O)=O)c3O)CC2)c1 (protonated)
CC(C)c1ccc([N-]C(=O)COCc2ccccc2)c(N2CCN(c3cccc(S([NH-])(=O)=O)c3O)CC2)c1 (3D coordinates assigned)
CC(C)c1ccc([N-]C(=O)COCc2ccccc2)c(N2CCN(c3cccc(S([NH-])(=O)=O)c3O)CC2)c1 (nonaromatic ring conformer: 86.07446906375598 kcal/mol)

>  <smiles>  (43) 
CC(C)c1ccc(NC(=O)COCc2ccccc2)c(N2CCN(c3cccc(S(N)(=O)=O)c3O)CC2)c1

>  <score_type>  (43) 
oracle

>  <origin>  (43) 
adg

>  <m_score__min__energy>  (43) 
-13.67

>  <m_primary>  (43) 
energy

$$$$
43:0
     RDKit          3D

 64 67  0  0  0  0  0  0  0  0999 V2000
   58.2071   35.1781   44.6790 H   0  0  0  0  0  0  0  0  0  0  0  0
   58.2870   34.1290   45.0000 C   0  0  0  0  0  0  0  0  0  0  0  0
   59.2680   33.7580   45.8620 N   0  0  0  0  0  0  0  0  0  0  0  0
   59.4130   32.4710   46.2810 C   0  0  0  0  0  0  0  0  0  0  0  0
   60.4680   32.1200   47.2610 C   0  0  0  0  0  0  0  0  0  0  0  0
   60.2150   31.0980   48.1160 N   0  0  0  0  0  0  0  0  0  0  0  0
   61.0760   30.7050   49.0880 C   0  0  0  0  0  0  0  0  0  0  0  0
   60.7670   29.7050   49.8630 N   0  0  0  0  0  0  0  0  0  0  0  0
   59.4000   29.2580   50.1200 C   0  0  0  0  0  0  0  0  0  0  0  0
   58.7840   29.4304   49.2251 H   0  0  0  0  0  0  0  0  0  0  0  0
   59.4056   28.1849   50.3616 H   0  0  0  0  0  0  0  0  0  0  0  0
   58.8170   30.0420   51.2990 C   0  0  0  0  0  0  0  0  0  0  0  0
   57.8859   29.5563   51.6262 H   0  0  0  0  0  0  0  0  0  0  0  0
   59.5597   30.0496   52.1104 H   0  0  0  0  0  0  0  0  0  0  0  0
   58.5230   31.4430   50.9240 N   0  0  0  0  0  0  0  0  0  0  0  0
   57.2020   31.8760   51.4470 C   0  0  0  0  0  0  0  0  0  0  0  0
   56.6925   32.4735   50.6766 H   0  0  0  0  0  0  0  0  0  0  0  0
   56.6215   30.9758   51.6972 H   0  0  0  0  0  0  0  0  0  0  0  0
   57.3430   32.7250   52.7240 C   0  0  0  0  0  0  0  0  0  0  0  0
   56.3369   33.0157   53.0605 H   0  0  0  0  0  0  0  0  0  0  0  0
   57.8711   32.1062   53.4644 H   0  0  0  0  0  0  0  0  0  0  0  0
   58.1140   33.9050   52.5440 O   0  0  0  0  0  0  0  0  0  0  0  0
   59.0970   33.7940   51.5240 C   0  0  0  0  0  0  0  0  0  0  0  0
   58.6563   34.1394   50.5772 H   0  0  0  0  0  0  0  0  0  0  0  0
   59.9551   34.4082   51.8346 H   0  0  0  0  0  0  0  0  0  0  0  0
   59.6170   32.3610   51.3240 C   0  0  0  0  0  0  0  0  0  0  0  0
   60.3868   32.3653   50.5382 H   0  0  0  0  0  0  0  0  0  0  0  0
   60.0368   32.0072   52.2772 H   0  0  0  0  0  0  0  0  0  0  0  0
   62.2950   31.3910   49.2630 C   0  0  0  0  0  0  0  0  0  0  0  0
   63.2630   30.9630   50.3470 C   0  0  0  0  0  0  0  0  0  0  0  0
   62.8186   31.1595   51.3339 H   0  0  0  0  0  0  0  0  0  0  0  0
   63.4734   29.8879   50.2471 H   0  0  0  0  0  0  0  0  0  0  0  0
   64.1998   31.5308   50.2471 H   0  0  0  0  0  0  0  0  0  0  0  0
   62.5750   32.5080   48.4320 C   0  0  0  0  0  0  0  0  0  0  0  0
   63.8250   33.3360   48.6610 C   0  0  0  0  0  0  0  0  0  0  0  0
   63.9966   33.4497   49.7416 H   0  0  0  0  0  0  0  0  0  0  0  0
   64.6884   32.8306   48.2038 H   0  0  0  0  0  0  0  0  0  0  0  0
   63.6965   34.3282   48.2038 H   0  0  0  0  0  0  0  0  0  0  0  0
   61.6980   32.8170   47.3560 C   0  0  0  0  0  0  0  0  0  0  0  0
   62.0750   33.8600   46.3240 C   0  0  0  0  0  0  0  0  0  0  0  0
   62.4064   34.7769   46.8335 H   0  0  0  0  0  0  0  0  0  0  0  0
   62.8908   33.4749   45.6946 H   0  0  0  0  0  0  0  0  0  0  0  0
   61.2015   34.0855   45.6946 H   0  0  0  0  0  0  0  0  0  0  0  0
   58.5080   31.4960   45.8330 C   0  0  0  0  0  0  0  0  0  0  0  0
   58.5945   30.4600   46.1925 H   0  0  0  0  0  0  0  0  0  0  0  0
   57.4950   31.8400   44.9290 C   0  0  0  0  0  0  0  0  0  0  0  0
   56.6710   30.9090   44.5330 N   0  0  0  0  0  0  0  0  0  0  0  0
   56.9180   29.4970   44.4890 C   0  0  0  0  0  0  0  0  0  0  0  0
   57.1800   28.9590   43.3820 O   0  0  0  0  0  0  0  0  0  0  0  0
   56.8110   28.7000   45.6800 N   0  0  0  0  0  0  0  0  0  0  0  0
   56.6270   29.1790   46.5900 H   0  0  0  0  0  0  0  0  0  0  0  0
   57.1150   27.2980   45.7140 C   0  0  0  0  0  0  0  0  0  0  0  0
   58.4550   26.8880   45.6530 C   0  0  0  0  0  0  0  0  0  0  0  0
   59.2541   27.6396   45.5725 H   0  0  0  0  0  0  0  0  0  0  0  0
   58.7800   25.5290   45.6940 C   0  0  0  0  0  0  0  0  0  0  0  0
   59.8322   25.2139   45.6341 H   0  0  0  0  0  0  0  0  0  0  0  0
   57.7700   24.5700   45.8110 C   0  0  0  0  0  0  0  0  0  0  0  0
   58.0262   23.5005   45.8330 H   0  0  0  0  0  0  0  0  0  0  0  0
   56.4350   24.9710   45.9000 C   0  0  0  0  0  0  0  0  0  0  0  0
   55.6417   24.2152   45.9973 H   0  0  0  0  0  0  0  0  0  0  0  0
   56.1020   26.3300   45.8660 C   0  0  0  0  0  0  0  0  0  0  0  0
   54.7720   26.7100   46.0110 O   0  0  0  0  0  0  0  0  0  0  0  0
   57.3800   33.1840   44.5200 C   0  0  0  0  0  0  0  0  0  0  0  0
   56.5806   33.4856   43.8271 H   0  0  0  0  0  0  0  0  0  0  0  0
  1  2  1  0
  2  3  1  0
  3  4  1  0
  4  5  1  0
  5  6  1  0
  6  7  1  0
  7  8  2  0
  8  9  1  0
  9 10  1  0
  9 11  1  0
  9 12  1  0
 12 13  1  0
 12 14  1  0
 12 15  1  0
 15 16  1  0
 16 17  1  0
 16 18  1  0
 16 19  1  0
 19 20  1  0
 19 21  1  0
 19 22  1  0
 22 23  1  0
 23 24  1  0
 23 25  1  0
 23 26  1  0
 26 27  1  0
 26 28  1  0
  7 29  1  0
 29 30  1  0
 30 31  1  0
 30 32  1  0
 30 33  1  0
 29 34  2  0
 34 35  1  0
 35 36  1  0
 35 37  1  0
 35 38  1  0
 34 39  1  0
 39 40  1  0
 40 41  1  0
 40 42  1  0
 40 43  1  0
  4 44  2  0
 44 45  1  0
 44 46  1  0
 46 47  2  3
 47 48  1  0
 48 49  2  0
 48 50  1  0
 50 51  1  0
 50 52  1  0
 52 53  2  0
 53 54  1  0
 53 55  1  0
 55 56  1  0
 55 57  2  0
 57 58  1  0
 57 59  1  0
 59 60  1  0
 59 61  2  0
 61 62  1  0
 46 63  1  0
 63 64  1  0
 63  2  2  0
 39  5  2  0
 61 52  1  0
 26 15  1  0
M  CHG  3   3  -1   6  -1  62  -1
M  END
>  <UniqueID>  (44) 
40

>  <SMILES>  (44) 
Cc1c(-c2cc(=NC(=O)Nc3ccccc3[O-])cc[n-]2)[n-]/c(=N\CCN2CCOCC2)c(C)c1C

>  <Energy>  (44) 
105.70548559673398

>  <Genealogy>  (44) 
Cc1c(-c2cc(=NC(=O)Nc3ccccc3[O-])cc[n-]2)[n-]c(=NCCN2CCOCC2)c(C)c1C (protonated)
Cc1c(-c2cc(=NC(=O)Nc3ccccc3[O-])cc[n-]2)[n-]/c(=N\CCN2CCOCC2)c(C)c1C (cis-trans isomerization)
Cc1c(-c2cc(=NC(=O)Nc3ccccc3[O-])cc[n-]2)[n-]/c(=N\CCN2CCOCC2)c(C)c1C (3D coordinates assigned)
Cc1c(-c2cc(=NC(=O)Nc3ccccc3[O-])cc[n-]2)[n-]/c(=N\CCN2CCOCC2)c(C)c1C (nonaromatic ring conformer: 105.70548559673398 kcal/mol)

>  <smiles>  (44) 
Cc1c(-c2cc(=NC(=O)Nc3ccccc3O)cc[nH]2)[nH]c(=NCCN2CCOCC2)c(C)c1C

>  <score_type>  (44) 
oracle

>  <origin>  (44) 
adg

>  <m_score__min__energy>  (44) 
-15.359999999999999

>  <m_primary>  (44) 
energy

$$$$
44:0
     RDKit          3D

 40 42  0  0  0  0  0  0  0  0999 V2000
   60.9020   28.9310   49.0740 O   0  0  0  0  0  0  0  0  0  0  0  0
   60.7090   29.4890   47.9600 C   0  0  0  0  0  0  0  0  0  0  0  0
   60.5100   28.6500   46.7380 C   0  0  0  0  0  0  0  0  0  0  0  0
   59.0830   28.7630   46.2590 C   0  0  0  0  0  0  0  0  0  0  0  0
   58.2300   27.6610   46.3870 C   0  0  0  0  0  0  0  0  0  0  0  0
   56.9120   27.7040   45.9090 C   0  0  0  0  0  0  0  0  0  0  0  0
   56.0500   26.5020   46.0620 C   0  0  0  0  0  0  0  0  0  0  0  0
   54.7940   26.5940   46.0390 O   0  0  0  0  0  0  0  0  0  0  0  0
   56.6220   25.2460   46.2360 O   0  0  0  0  0  0  0  0  0  0  0  0
   56.4460   28.8860   45.2940 C   0  0  0  0  0  0  0  0  0  0  0  0
   55.1450   28.9450   44.7990 O   0  0  0  0  0  0  0  0  0  0  0  0
   57.2890   30.0120   45.1660 C   0  0  0  0  0  0  0  0  0  0  0  0
   56.7630   31.2590   44.4870 C   0  0  0  0  0  0  0  0  0  0  0  0
   57.3860   32.4800   45.0880 C   0  0  0  0  0  0  0  0  0  0  0  0
   57.7640   33.5510   44.3590 N   0  0  0  0  0  0  0  0  0  0  0  0
   58.2370   34.4130   45.2760 C   0  0  0  0  0  0  0  0  0  0  0  0
   58.1320   33.8480   46.5260 C   0  0  0  0  0  0  0  0  0  0  0  0
   57.5910   32.6240   46.4140 N   0  0  0  0  0  0  0  0  0  0  0  0
   58.6260   29.9340   45.6270 C   0  0  0  0  0  0  0  0  0  0  0  0
   59.5260   30.9940   45.4650 O   0  0  0  0  0  0  0  0  0  0  0  0
   60.5750   30.9120   47.8640 N   0  0  0  0  0  0  0  0  0  0  0  0
   61.6410   31.8670   47.7530 C   0  0  0  0  0  0  0  0  0  0  0  0
   62.8040   31.7830   48.5410 C   0  0  0  0  0  0  0  0  0  0  0  0
   63.8280   32.7240   48.3850 C   0  0  0  0  0  0  0  0  0  0  0  0
   63.7060   33.7420   47.4360 C   0  0  0  0  0  0  0  0  0  0  0  0
   62.5630   33.8170   46.6350 C   0  0  0  0  0  0  0  0  0  0  0  0
   61.5380   32.8770   46.7880 C   0  0  0  0  0  0  0  0  0  0  0  0
   61.1888   28.9959   45.9445 H   0  0  0  0  0  0  0  0  0  0  0  0
   60.7258   27.5996   46.9830 H   0  0  0  0  0  0  0  0  0  0  0  0
   58.5996   26.7450   46.8710 H   0  0  0  0  0  0  0  0  0  0  0  0
   57.0056   31.2181   43.4149 H   0  0  0  0  0  0  0  0  0  0  0  0
   55.6728   31.3087   44.6251 H   0  0  0  0  0  0  0  0  0  0  0  0
   58.6437   35.4121   45.0608 H   0  0  0  0  0  0  0  0  0  0  0  0
   58.4421   34.3236   47.4681 H   0  0  0  0  0  0  0  0  0  0  0  0
   59.6020   31.7750   46.1000 H   0  0  0  0  0  0  0  0  0  0  0  0
   62.9084   30.9760   49.2811 H   0  0  0  0  0  0  0  0  0  0  0  0
   64.7306   32.6620   49.0107 H   0  0  0  0  0  0  0  0  0  0  0  0
   64.5093   34.4843   47.3192 H   0  0  0  0  0  0  0  0  0  0  0  0
   62.4693   34.6153   45.8841 H   0  0  0  0  0  0  0  0  0  0  0  0
   60.6460   32.9315   46.1466 H   0  0  0  0  0  0  0  0  0  0  0  0
  1  2  2  0
  2  3  1  0
  3  4  1  0
  4  5  2  0
  5  6  1  0
  6  7  1  0
  7  8  2  0
  7  9  1  0
  6 10  2  0
 10 11  1  0
 10 12  1  0
 12 13  1  0
 13 14  1  0
 14 15  2  0
 15 16  1  0
 16 17  2  0
 17 18  1  0
 12 19  2  0
 19 20  1  0
  2 21  1  0
 21 22  1  0
 22 23  2  0
 23 24  1  0
 24 25  2  0
 25 26  1  0
 26 27  2  0
 19  4  1  0
 27 22  1  0
 18 14  1  0
  3 28  1  0
  3 29  1  0
  5 30  1  0
 13 31  1  0
 13 32  1  0
 16 33  1  0
 17 34  1  0
 20 35  1  0
 23 36  1  0
 24 37  1  0
 25 38  1  0
 26 39  1  0
 27 40  1  0
M  CHG  4   9  -1  11  -1  18  -1  21  -1
M  END
>  <UniqueID>  (45) 
41

>  <SMILES>  (45) 
O=C(Cc1cc(C(=O)[O-])c([O-])c(Cc2ncc[n-]2)c1O)[N-]c1ccccc1

>  <Energy>  (45) 
75.68372877384712

>  <Genealogy>  (45) 
O=C(Cc1cc(C(=O)[O-])c([O-])c(Cc2ncc[n-]2)c1O)[N-]c1ccccc1 (protonated)
O=C(Cc1cc(C(=O)[O-])c([O-])c(Cc2ncc[n-]2)c1O)[N-]c1ccccc1 (3D coordinates assigned)
O=C(Cc1cc(C(=O)[O-])c([O-])c(Cc2ncc[n-]2)c1O)[N-]c1ccccc1 (optimized conformer: 75.68372877384712 kcal/mol)

>  <smiles>  (45) 
O=C(Cc1cc(C(=O)O)c(O)c(Cc2ncc[nH]2)c1O)Nc1ccccc1

>  <score_type>  (45) 
oracle

>  <origin>  (45) 
adg

>  <m_score__min__energy>  (45) 
-15.09

>  <m_primary>  (45) 
energy

$$$$
45:0
     RDKit          3D

 86 90  0  0  0  0  0  0  0  0999 V2000
   53.9260   29.3480   53.1980 C   0  0  0  0  0  0  0  0  0  0  0  0
   54.4890   30.1180   52.0080 C   0  0  0  0  0  0  0  0  0  0  0  0
   55.9120   30.0450   51.9840 O   0  0  0  0  0  0  0  0  0  0  0  0
   56.7450   31.1700   51.9390 C   0  0  0  0  0  0  0  0  0  0  0  0
   56.2500   32.3270   52.0450 O   0  0  0  0  0  0  0  0  0  0  0  0
   58.1670   31.0020   51.7720 N   0  0  0  0  0  0  0  0  0  0  0  0
   59.0030   32.1630   51.4310 C   0  0  0  0  0  0  0  0  0  0  0  0
   60.3950   32.0200   52.0410 C   0  0  0  0  0  0  0  0  0  0  0  0
   60.9370   30.6940   51.7210 N   0  0  0  0  0  0  0  0  0  0  0  0
   62.2190   30.5140   51.0730 C   0  0  0  0  0  0  0  0  0  0  0  0
   62.5050   29.3990   50.5430 O   0  0  0  0  0  0  0  0  0  0  0  0
   63.2040   31.6450   50.9690 C   0  0  0  0  0  0  0  0  0  0  0  0
   63.2680   32.1350   49.6290 O   0  0  0  0  0  0  0  0  0  0  0  0
   62.1600   32.6020   48.8970 C   0  0  0  0  0  0  0  0  0  0  0  0
   61.5490   31.8320   47.8860 C   0  0  0  0  0  0  0  0  0  0  0  0
   60.4380   32.3310   47.1650 C   0  0  0  0  0  0  0  0  0  0  0  0
   59.7760   31.5870   46.1490 C   0  0  0  0  0  0  0  0  0  0  0  0
   60.2220   30.1720   45.8330 C   0  0  0  0  0  0  0  0  0  0  0  0
   58.7420   32.2270   45.4050 C   0  0  0  0  0  0  0  0  0  0  0  0
   58.0560   31.5910   44.1960 C   0  0  0  0  0  0  0  0  0  0  0  0
   56.5760   31.2330   44.4310 C   0  0  0  0  0  0  0  0  0  0  0  0
   56.3290   29.7720   44.6760 C   0  0  0  0  0  0  0  0  0  0  0  0
   55.1620   29.3410   44.8590 O   0  0  0  0  0  0  0  0  0  0  0  0
   57.4440   28.8820   44.7840 N   0  0  0  0  0  0  0  0  0  0  0  0
   57.5460   27.8610   45.8220 C   0  0  0  0  0  0  0  0  0  0  0  0
   57.0420   26.5280   45.3310 C   0  0  0  0  0  0  0  0  0  0  0  0
   57.7200   25.8750   44.2860 C   0  0  0  0  0  0  0  0  0  0  0  0
   57.3320   24.5950   43.8770 C   0  0  0  0  0  0  0  0  0  0  0  0
   56.2600   23.9410   44.5140 C   0  0  0  0  0  0  0  0  0  0  0  0
   55.8850   22.5580   44.1180 C   0  0  0  0  0  0  0  0  0  0  0  0
   56.3000   22.0750   43.0220 O   0  0  0  0  0  0  0  0  0  0  0  0
   55.0730   21.7420   44.9730 N   0  0  0  0  0  0  0  0  0  0  0  0
   55.4660   21.2830   46.2800 C   0  0  0  0  0  0  0  0  0  0  0  0
   54.6360   21.4800   47.4000 C   0  0  0  0  0  0  0  0  0  0  0  0
   54.9850   20.9500   48.6440 C   0  0  0  0  0  0  0  0  0  0  0  0
   56.1750   20.2360   48.7880 C   0  0  0  0  0  0  0  0  0  0  0  0
   57.0140   20.0380   47.6880 C   0  0  0  0  0  0  0  0  0  0  0  0
   56.6660   20.5590   46.4280 C   0  0  0  0  0  0  0  0  0  0  0  0
   57.5380   20.3400   45.3110 N   0  0  0  0  0  0  0  0  0  0  0  0
   55.5820   24.5930   45.5540 C   0  0  0  0  0  0  0  0  0  0  0  0
   55.9790   25.8650   45.9730 C   0  0  0  0  0  0  0  0  0  0  0  0
   58.3740   33.5400   45.7720 C   0  0  0  0  0  0  0  0  0  0  0  0
   57.4630   34.1450   45.1490 O   0  0  0  0  0  0  0  0  0  0  0  0
   58.9800   34.1680   46.7690 O   0  0  0  0  0  0  0  0  0  0  0  0
   59.9780   33.6370   47.4560 C   0  0  0  0  0  0  0  0  0  0  0  0
   60.5810   34.3920   48.4660 C   0  0  0  0  0  0  0  0  0  0  0  0
   61.6580   33.8760   49.1850 C   0  0  0  0  0  0  0  0  0  0  0  0
   62.2380   34.6400   50.1890 O   0  0  0  0  0  0  0  0  0  0  0  0
   60.1270   29.5410   52.1300 C   0  0  0  0  0  0  0  0  0  0  0  0
   58.7210   29.6600   51.5360 C   0  0  0  0  0  0  0  0  0  0  0  0
   54.2683   29.8161   54.1327 H   0  0  0  0  0  0  0  0  0  0  0  0
   52.8268   29.3664   53.1598 H   0  0  0  0  0  0  0  0  0  0  0  0
   54.2768   28.3062   53.1598 H   0  0  0  0  0  0  0  0  0  0  0  0
   54.0902   29.6863   51.0781 H   0  0  0  0  0  0  0  0  0  0  0  0
   54.1921   31.1732   52.0991 H   0  0  0  0  0  0  0  0  0  0  0  0
   59.0932   32.2347   50.3371 H   0  0  0  0  0  0  0  0  0  0  0  0
   58.5306   33.0710   51.8340 H   0  0  0  0  0  0  0  0  0  0  0  0
   61.0571   32.7957   51.6289 H   0  0  0  0  0  0  0  0  0  0  0  0
   60.3297   32.1350   53.1330 H   0  0  0  0  0  0  0  0  0  0  0  0
   62.8900   32.4603   51.6373 H   0  0  0  0  0  0  0  0  0  0  0  0
   64.1989   31.2763   51.2594 H   0  0  0  0  0  0  0  0  0  0  0  0
   61.9409   30.8305   47.6547 H   0  0  0  0  0  0  0  0  0  0  0  0
   60.3948   29.6239   46.7710 H   0  0  0  0  0  0  0  0  0  0  0  0
   59.4407   29.6630   45.2494 H   0  0  0  0  0  0  0  0  0  0  0  0
   61.1539   30.2030   45.2494 H   0  0  0  0  0  0  0  0  0  0  0  0
   58.1114   32.2982   43.3553 H   0  0  0  0  0  0  0  0  0  0  0  0
   58.5828   30.6473   43.9915 H   0  0  0  0  0  0  0  0  0  0  0  0
   56.2197   31.7950   45.3069 H   0  0  0  0  0  0  0  0  0  0  0  0
   56.0364   31.4952   43.5090 H   0  0  0  0  0  0  0  0  0  0  0  0
   58.5996   27.7577   46.1206 H   0  0  0  0  0  0  0  0  0  0  0  0
   56.9277   28.1723   46.6769 H   0  0  0  0  0  0  0  0  0  0  0  0
   58.5626   26.3752   43.7861 H   0  0  0  0  0  0  0  0  0  0  0  0
   57.8664   24.0972   43.0544 H   0  0  0  0  0  0  0  0  0  0  0  0
   53.7049   22.0561   47.2943 H   0  0  0  0  0  0  0  0  0  0  0  0
   54.3222   21.0954   49.5097 H   0  0  0  0  0  0  0  0  0  0  0  0
   56.4538   19.8276   49.7706 H   0  0  0  0  0  0  0  0  0  0  0  0
   57.9500   19.4727   47.8076 H   0  0  0  0  0  0  0  0  0  0  0  0
   57.2270   20.5630   44.3370 H   0  0  0  0  0  0  0  0  0  0  0  0
   58.4960   19.9370   45.4390 H   0  0  0  0  0  0  0  0  0  0  0  0
   54.7303   24.0986   46.0440 H   0  0  0  0  0  0  0  0  0  0  0  0
   55.4575   26.3519   46.8102 H   0  0  0  0  0  0  0  0  0  0  0  0
   60.2034   35.3995   48.6949 H   0  0  0  0  0  0  0  0  0  0  0  0
   60.5994   28.6158   51.7683 H   0  0  0  0  0  0  0  0  0  0  0  0
   60.0574   29.5162   53.2275 H   0  0  0  0  0  0  0  0  0  0  0  0
   58.7702   29.4754   50.4527 H   0  0  0  0  0  0  0  0  0  0  0  0
   58.0690   28.9187   52.0211 H   0  0  0  0  0  0  0  0  0  0  0  0
  1  2  1  0
  2  3  1  0
  3  4  1  0
  4  5  2  0
  4  6  1  0
  6  7  1  0
  7  8  1  0
  8  9  1  0
  9 10  1  0
 10 11  2  0
 10 12  1  0
 12 13  1  0
 13 14  1  0
 14 15  2  0
 15 16  1  0
 16 17  1  0
 17 18  1  0
 17 19  2  0
 19 20  1  0
 20 21  1  0
 21 22  1  0
 22 23  2  0
 22 24  1  0
 24 25  1  0
 25 26  1  0
 26 27  2  0
 27 28  1  0
 28 29  2  0
 29 30  1  0
 30 31  2  0
 30 32  1  0
 32 33  1  0
 33 34  2  0
 34 35  1  0
 35 36  2  0
 36 37  1  0
 37 38  2  0
 38 39  1  0
 29 40  1  0
 40 41  2  0
 19 42  1  0
 42 43  2  0
 42 44  1  0
 44 45  1  0
 45 46  1  0
 46 47  2  0
 47 48  1  0
  9 49  1  0
 49 50  1  0
 50  6  1  0
 47 14  1  0
 45 16  2  0
 41 26  1  0
 38 33  1  0
  1 51  1  0
  1 52  1  0
  1 53  1  0
  2 54  1  0
  2 55  1  0
  7 56  1  0
  7 57  1  0
  8 58  1  0
  8 59  1  0
 12 60  1  0
 12 61  1  0
 15 62  1  0
 18 63  1  0
 18 64  1  0
 18 65  1  0
 20 66  1  0
 20 67  1  0
 21 68  1  0
 21 69  1  0
 25 70  1  0
 25 71  1  0
 27 72  1  0
 28 73  1  0
 34 74  1  0
 35 75  1  0
 36 76  1  0
 37 77  1  0
 39 78  1  0
 39 79  1  0
 40 80  1  0
 41 81  1  0
 46 82  1  0
 49 83  1  0
 49 84  1  0
 50 85  1  0
 50 86  1  0
M  CHG  3  24  -1  32  -1  48  -1
M  END
>  <UniqueID>  (46) 
42

>  <SMILES>  (46) 
CCOC(=O)N1CCN(C(=O)COc2cc3c(C)c(CCC(=O)[N-]Cc4ccc(C(=O)[N-]c5ccccc5N)cc4)c(=O)oc3cc2[O-])CC1

>  <Energy>  (46) 
106.54612325712088

>  <Genealogy>  (46) 
CCOC(=O)N1CCN(C(=O)COc2cc3c(C)c(CCC(=O)[N-]Cc4ccc(C(=O)[N-]c5ccccc5N)cc4)c(=O)oc3cc2[O-])CC1 (protonated)
CCOC(=O)N1CCN(C(=O)COc2cc3c(C)c(CCC(=O)[N-]Cc4ccc(C(=O)[N-]c5ccccc5N)cc4)c(=O)oc3cc2[O-])CC1 (3D coordinates assigned)
CCOC(=O)N1CCN(C(=O)COc2cc3c(C)c(CCC(=O)[N-]Cc4ccc(C(=O)[N-]c5ccccc5N)cc4)c(=O)oc3cc2[O-])CC1 (nonaromatic ring conformer: 106.54612325712088 kcal/mol)

>  <smiles>  (46) 
CCOC(=O)N1CCN(C(=O)COc2cc3c(C)c(CCC(=O)NCc4ccc(C(=O)Nc5ccccc5N)cc4)c(=O)oc3cc2O)CC1

>  <score_type>  (46) 
oracle

>  <origin>  (46) 
adg

>  <m_score__min__energy>  (46) 
-14.31

>  <m_primary>  (46) 
energy

$$$$
46:0
     RDKit          3D

 54 56  0  0  0  0  0  0  0  0999 V2000
   56.5470   24.6530   44.9920 C   0  0  0  0  0  0  0  0  0  0  0  0
   55.5390   25.2810   45.9590 C   0  0  0  0  0  0  0  0  0  0  0  0
   54.0970   24.9020   45.6080 C   0  0  0  0  0  0  0  0  0  0  0  0
   55.7040   26.7340   46.0210 N   0  0  0  0  0  0  0  0  0  0  0  0
   56.9440   27.4450   46.1640 C   0  0  0  0  0  0  0  0  0  0  0  0
   57.8080   27.0340   46.9840 O   0  0  0  0  0  0  0  0  0  0  0  0
   57.1850   28.6760   45.3620 C   0  0  0  0  0  0  0  0  0  0  0  0
   56.2040   29.1000   44.4420 C   0  0  0  0  0  0  0  0  0  0  0  0
   56.3690   30.2770   43.7110 C   0  0  0  0  0  0  0  0  0  0  0  0
   57.5130   31.0510   43.8800 C   0  0  0  0  0  0  0  0  0  0  0  0
   58.5020   30.6480   44.7750 C   0  0  0  0  0  0  0  0  0  0  0  0
   58.3500   29.4700   45.5260 C   0  0  0  0  0  0  0  0  0  0  0  0
   59.4160   29.0460   46.3870 N   0  0  0  0  0  0  0  0  0  0  0  0
   59.8300   29.7370   47.5720 C   0  0  0  0  0  0  0  0  0  0  0  0
   61.0220   29.6220   47.9630 O   0  0  0  0  0  0  0  0  0  0  0  0
   58.8410   30.4630   48.4310 C   0  0  0  0  0  0  0  0  0  0  0  0
   59.5890   32.0340   48.9740 S   0  0  0  0  0  0  0  0  0  0  0  0
   59.0490   32.9550   47.5250 C   0  0  0  0  0  0  0  0  0  0  0  0
   57.7250   32.8160   47.0940 C   0  0  0  0  0  0  0  0  0  0  0  0
   57.2600   33.5440   45.9970 C   0  0  0  0  0  0  0  0  0  0  0  0
   58.1120   34.4290   45.3340 C   0  0  0  0  0  0  0  0  0  0  0  0
   59.4360   34.5760   45.7560 C   0  0  0  0  0  0  0  0  0  0  0  0
   59.9220   33.8290   46.8380 C   0  0  0  0  0  0  0  0  0  0  0  0
   61.3270   34.0010   47.2520 C   0  0  0  0  0  0  0  0  0  0  0  0
   61.5740   34.5210   48.3720 O   0  0  0  0  0  0  0  0  0  0  0  0
   62.4180   33.6210   46.4030 N   0  0  0  0  0  0  0  0  0  0  0  0
   63.7680   33.3190   46.8690 C   0  0  0  0  0  0  0  0  0  0  0  0
   63.7150   32.6700   48.2140 C   0  0  0  0  0  0  0  0  0  0  0  0
   64.4950   33.0060   49.3020 C   0  0  0  0  0  0  0  0  0  0  0  0
   64.1360   32.1240   50.2990 C   0  0  0  0  0  0  0  0  0  0  0  0
   63.1630   31.3070   49.7560 C   0  0  0  0  0  0  0  0  0  0  0  0
   62.9350   31.6580   48.5120 O   0  0  0  0  0  0  0  0  0  0  0  0
   57.3441   24.1564   45.5647 H   0  0  0  0  0  0  0  0  0  0  0  0
   56.0355   23.9135   44.3584 H   0  0  0  0  0  0  0  0  0  0  0  0
   56.9854   25.4381   44.3584 H   0  0  0  0  0  0  0  0  0  0  0  0
   55.7473   24.8715   46.9585 H   0  0  0  0  0  0  0  0  0  0  0  0
   53.5220   24.7509   46.5335 H   0  0  0  0  0  0  0  0  0  0  0  0
   53.6384   25.7101   45.0192 H   0  0  0  0  0  0  0  0  0  0  0  0
   54.0950   23.9728   45.0192 H   0  0  0  0  0  0  0  0  0  0  0  0
   55.2967   28.4948   44.2987 H   0  0  0  0  0  0  0  0  0  0  0  0
   55.5926   30.5939   42.9991 H   0  0  0  0  0  0  0  0  0  0  0  0
   57.6367   31.9816   43.3067 H   0  0  0  0  0  0  0  0  0  0  0  0
   59.4099   31.2574   44.8948 H   0  0  0  0  0  0  0  0  0  0  0  0
   57.9274   30.6672   47.8533 H   0  0  0  0  0  0  0  0  0  0  0  0
   58.5788   29.8487   49.3050 H   0  0  0  0  0  0  0  0  0  0  0  0
   57.0469   32.1296   47.6222 H   0  0  0  0  0  0  0  0  0  0  0  0
   56.2219   33.4201   45.6551 H   0  0  0  0  0  0  0  0  0  0  0  0
   57.7406   35.0116   44.4780 H   0  0  0  0  0  0  0  0  0  0  0  0
   60.1006   35.2818   45.2362 H   0  0  0  0  0  0  0  0  0  0  0  0
   64.2551   32.6380   46.1556 H   0  0  0  0  0  0  0  0  0  0  0  0
   64.3404   34.2554   46.9439 H   0  0  0  0  0  0  0  0  0  0  0  0
   65.2451   33.8084   49.3612 H   0  0  0  0  0  0  0  0  0  0  0  0
   64.5421   32.0797   51.3203 H   0  0  0  0  0  0  0  0  0  0  0  0
   62.6564   30.4869   50.2858 H   0  0  0  0  0  0  0  0  0  0  0  0
  1  2  1  0
  2  3  1  0
  2  4  1  0
  4  5  1  0
  5  6  2  0
  5  7  1  0
  7  8  2  0
  8  9  1  0
  9 10  2  0
 10 11  1  0
 11 12  2  0
 12 13  1  0
 13 14  1  0
 14 15  2  0
 14 16  1  0
 16 17  1  0
 17 18  1  0
 18 19  2  0
 19 20  1  0
 20 21  2  0
 21 22  1  0
 22 23  2  0
 23 24  1  0
 24 25  2  0
 24 26  1  0
 26 27  1  0
 27 28  1  0
 28 29  2  0
 29 30  1  0
 30 31  2  0
 31 32  1  0
 12  7  1  0
 23 18  1  0
 32 28  1  0
  1 33  1  0
  1 34  1  0
  1 35  1  0
  2 36  1  0
  3 37  1  0
  3 38  1  0
  3 39  1  0
  8 40  1  0
  9 41  1  0
 10 42  1  0
 11 43  1  0
 16 44  1  0
 16 45  1  0
 19 46  1  0
 20 47  1  0
 21 48  1  0
 22 49  1  0
 27 50  1  0
 27 51  1  0
 29 52  1  0
 30 53  1  0
 31 54  1  0
M  CHG  3   4  -1  13  -1  26  -1
M  END
>  <UniqueID>  (47) 
43

>  <SMILES>  (47) 
CC(C)[N-]C(=O)c1ccccc1[N-]C(=O)CSc1ccccc1C(=O)[N-]Cc1ccco1

>  <Energy>  (47) 
81.0457064793103

>  <Genealogy>  (47) 
CC(C)[N-]C(=O)c1ccccc1[N-]C(=O)CSc1ccccc1C(=O)[N-]Cc1ccco1 (protonated)
CC(C)[N-]C(=O)c1ccccc1[N-]C(=O)CSc1ccccc1C(=O)[N-]Cc1ccco1 (3D coordinates assigned)
CC(C)[N-]C(=O)c1ccccc1[N-]C(=O)CSc1ccccc1C(=O)[N-]Cc1ccco1 (optimized conformer: 81.0457064793103 kcal/mol)

>  <smiles>  (47) 
CC(C)NC(=O)c1ccccc1NC(=O)CSc1ccccc1C(=O)NCc1ccco1

>  <score_type>  (47) 
oracle

>  <origin>  (47) 
adg

>  <m_score__min__energy>  (47) 
-13.66

>  <m_primary>  (47) 
energy

$$$$
47:0
     RDKit          3D

 52 55  0  0  0  0  0  0  0  0999 V2000
   61.6400   30.9620   48.4640 O   0  0  0  0  0  0  0  0  0  0  0  0
   60.6300   31.2500   47.7660 C   0  0  0  0  0  0  0  0  0  0  0  0
   59.9510   30.1810   47.0060 C   0  0  0  0  0  0  0  0  0  0  0  0
   60.2450   29.9460   45.6540 C   0  0  0  0  0  0  0  0  0  0  0  0
   59.5730   28.9310   44.9710 C   0  0  0  0  0  0  0  0  0  0  0  0
   58.6110   28.1560   45.6310 C   0  0  0  0  0  0  0  0  0  0  0  0
   57.8630   27.0720   44.9000 C   0  0  0  0  0  0  0  0  0  0  0  0
   57.4550   25.9700   45.8510 C   0  0  0  0  0  0  0  0  0  0  0  0
   56.1280   25.8530   46.3050 C   0  0  0  0  0  0  0  0  0  0  0  0
   55.1570   26.7660   45.9110 O   0  0  0  0  0  0  0  0  0  0  0  0
   55.7830   24.8410   47.1420 N   0  0  0  0  0  0  0  0  0  0  0  0
   56.6970   23.9250   47.5500 C   0  0  0  0  0  0  0  0  0  0  0  0
   56.3520   22.9950   48.3260 O   0  0  0  0  0  0  0  0  0  0  0  0
   57.9820   24.0090   47.1220 N   0  0  0  0  0  0  0  0  0  0  0  0
   58.3810   25.0020   46.2850 C   0  0  0  0  0  0  0  0  0  0  0  0
   59.5820   25.0420   45.9070 O   0  0  0  0  0  0  0  0  0  0  0  0
   58.3290   28.4370   46.9760 C   0  0  0  0  0  0  0  0  0  0  0  0
   58.9960   29.4300   47.6220 N   0  0  0  0  0  0  0  0  0  0  0  0
   60.1610   32.6090   47.7340 N   0  0  0  0  0  0  0  0  0  0  0  0
   59.0600   33.0100   48.6250 C   0  0  0  0  0  0  0  0  0  0  0  0
   57.7040   32.9510   47.9070 C   0  0  0  0  0  0  0  0  0  0  0  0
   57.6410   33.7800   46.6160 C   0  0  0  0  0  0  0  0  0  0  0  0
   58.4600   33.1790   45.5520 N   0  0  0  0  0  0  0  0  0  0  0  0
   57.8400   32.2780   44.6170 C   0  0  0  0  0  0  0  0  0  0  0  0
   58.0170   32.4610   43.2370 C   0  0  0  0  0  0  0  0  0  0  0  0
   57.4090   31.5910   42.3270 C   0  0  0  0  0  0  0  0  0  0  0  0
   56.6210   30.5330   42.7870 C   0  0  0  0  0  0  0  0  0  0  0  0
   56.4370   30.3400   44.1600 C   0  0  0  0  0  0  0  0  0  0  0  0
   55.6510   29.2790   44.6050 O   0  0  0  0  0  0  0  0  0  0  0  0
   57.0450   31.2110   45.0740 C   0  0  0  0  0  0  0  0  0  0  0  0
   59.8920   33.4960   45.3780 C   0  0  0  0  0  0  0  0  0  0  0  0
   60.7020   33.4990   46.6890 C   0  0  0  0  0  0  0  0  0  0  0  0
   60.9992   30.5570   45.1365 H   0  0  0  0  0  0  0  0  0  0  0  0
   59.7995   28.7393   43.9118 H   0  0  0  0  0  0  0  0  0  0  0  0
   56.9621   27.5029   44.4388 H   0  0  0  0  0  0  0  0  0  0  0  0
   58.5211   26.6471   44.1277 H   0  0  0  0  0  0  0  0  0  0  0  0
   57.5656   27.8520   47.5099 H   0  0  0  0  0  0  0  0  0  0  0  0
   59.0358   32.3317   49.4906 H   0  0  0  0  0  0  0  0  0  0  0  0
   59.2359   34.0476   48.9449 H   0  0  0  0  0  0  0  0  0  0  0  0
   57.4925   31.9016   47.6542 H   0  0  0  0  0  0  0  0  0  0  0  0
   56.9616   33.3803   48.5959 H   0  0  0  0  0  0  0  0  0  0  0  0
   56.5962   33.8342   46.2761 H   0  0  0  0  0  0  0  0  0  0  0  0
   58.0344   34.7847   46.8301 H   0  0  0  0  0  0  0  0  0  0  0  0
   58.6366   33.2924   42.8697 H   0  0  0  0  0  0  0  0  0  0  0  0
   57.5514   31.7398   41.2465 H   0  0  0  0  0  0  0  0  0  0  0  0
   56.1444   29.8505   42.0680 H   0  0  0  0  0  0  0  0  0  0  0  0
   55.9750   28.3200   44.5490 H   0  0  0  0  0  0  0  0  0  0  0  0
   56.9000   31.0598   46.1539 H   0  0  0  0  0  0  0  0  0  0  0  0
   60.3315   32.7472   44.7026 H   0  0  0  0  0  0  0  0  0  0  0  0
   59.9427   34.5173   44.9727 H   0  0  0  0  0  0  0  0  0  0  0  0
   61.7294   33.1791   46.4609 H   0  0  0  0  0  0  0  0  0  0  0  0
   60.6543   34.5227   47.0887 H   0  0  0  0  0  0  0  0  0  0  0  0
  1  2  2  0
  2  3  1  0
  3  4  2  0
  4  5  1  0
  5  6  2  0
  6  7  1  0
  7  8  1  0
  8  9  2  0
  9 10  1  0
  9 11  1  0
 11 12  1  0
 12 13  2  0
 12 14  1  0
 14 15  1  0
 15 16  2  0
  6 17  1  0
 17 18  2  0
  2 19  1  0
 19 20  1  0
 20 21  1  0
 21 22  1  0
 22 23  1  0
 23 24  1  0
 24 25  2  0
 25 26  1  0
 26 27  2  0
 27 28  1  0
 28 29  1  0
 28 30  2  0
 23 31  1  0
 31 32  1  0
 18  3  1  0
 32 19  1  0
 15  8  1  0
 30 24  1  0
  4 33  1  0
  5 34  1  0
  7 35  1  0
  7 36  1  0
 17 37  1  0
 20 38  1  0
 20 39  1  0
 21 40  1  0
 21 41  1  0
 22 42  1  0
 22 43  1  0
 25 44  1  0
 26 45  1  0
 27 46  1  0
 29 47  1  0
 30 48  1  0
 31 49  1  0
 31 50  1  0
 32 51  1  0
 32 52  1  0
M  CHG  3  10  -1  11  -1  14  -1
M  END
>  <UniqueID>  (48) 
44

>  <SMILES>  (48) 
O=C(c1ccc(Cc2c([O-])[n-]c(=O)[n-]c2=O)cn1)N1CCCN(c2cccc(O)c2)CC1

>  <Energy>  (48) 
70.78858553163738

>  <Genealogy>  (48) 
O=C(c1ccc(Cc2c([O-])[n-]c(=O)[n-]c2=O)cn1)N1CCCN(c2cccc(O)c2)CC1 (protonated)
O=C(c1ccc(Cc2c([O-])[n-]c(=O)[n-]c2=O)cn1)N1CCCN(c2cccc(O)c2)CC1 (3D coordinates assigned)
O=C(c1ccc(Cc2c([O-])[n-]c(=O)[n-]c2=O)cn1)N1CCCN(c2cccc(O)c2)CC1 (nonaromatic ring conformer: 70.78858553163738 kcal/mol)

>  <smiles>  (48) 
O=C(c1ccc(Cc2c(O)[nH]c(=O)[nH]c2=O)cn1)N1CCCN(c2cccc(O)c2)CC1

>  <score_type>  (48) 
oracle

>  <origin>  (48) 
adg

>  <m_score__min__energy>  (48) 
-14.48

>  <m_primary>  (48) 
energy

$$$$
48:0
     RDKit          3D

 50 52  0  0  0  0  0  0  0  0999 V2000
   65.7530   32.7310   49.7540 C   0  0  0  0  0  0  0  0  0  0  0  0
   64.3370   32.2320   49.6620 C   0  0  0  0  0  0  0  0  0  0  0  0
   63.8220   31.4190   50.6790 C   0  0  0  0  0  0  0  0  0  0  0  0
   62.5240   30.9250   50.5950 C   0  0  0  0  0  0  0  0  0  0  0  0
   61.7290   31.2290   49.4920 C   0  0  0  0  0  0  0  0  0  0  0  0
   62.2260   32.0140   48.4340 C   0  0  0  0  0  0  0  0  0  0  0  0
   61.2960   32.3310   47.2730 C   0  0  0  0  0  0  0  0  0  0  0  0
   60.5500   33.6050   47.4060 N   0  0  0  0  0  0  0  0  0  0  0  0
   60.6040   34.5360   46.2660 C   0  0  0  0  0  0  0  0  0  0  0  0
   59.5980   34.1710   45.1650 C   0  0  0  0  0  0  0  0  0  0  0  0
   58.4230   33.4670   45.7020 N   0  0  0  0  0  0  0  0  0  0  0  0
   57.4980   32.8030   44.8060 C   0  0  0  0  0  0  0  0  0  0  0  0
   56.3950   32.3780   45.2490 O   0  0  0  0  0  0  0  0  0  0  0  0
   57.8210   32.6280   43.3400 C   0  0  0  0  0  0  0  0  0  0  0  0
   57.3990   31.2610   42.7840 C   0  0  0  0  0  0  0  0  0  0  0  0
   57.3980   30.2570   43.8610 N   0  0  0  0  0  0  0  0  0  0  0  0
   58.5880   29.8650   44.4080 C   0  0  0  0  0  0  0  0  0  0  0  0
   58.6260   28.8850   45.3970 C   0  0  0  0  0  0  0  0  0  0  0  0
   57.4270   28.3110   45.8090 C   0  0  0  0  0  0  0  0  0  0  0  0
   57.4220   27.4230   46.7020 O   0  0  0  0  0  0  0  0  0  0  0  0
   56.2600   28.7080   45.2420 N   0  0  0  0  0  0  0  0  0  0  0  0
   56.2330   29.6630   44.2770 C   0  0  0  0  0  0  0  0  0  0  0  0
   55.1260   29.9910   43.7700 O   0  0  0  0  0  0  0  0  0  0  0  0
   58.0420   33.7070   47.1020 C   0  0  0  0  0  0  0  0  0  0  0  0
   59.2320   33.5270   48.0660 C   0  0  0  0  0  0  0  0  0  0  0  0
   63.5490   32.5300   48.5310 C   0  0  0  0  0  0  0  0  0  0  0  0
   64.1160   33.3270   47.5310 O   0  0  0  0  0  0  0  0  0  0  0  0
   66.0383   32.8316   50.8116 H   0  0  0  0  0  0  0  0  0  0  0  0
   66.4266   32.0161   49.2589 H   0  0  0  0  0  0  0  0  0  0  0  0
   65.8296   33.7103   49.2589 H   0  0  0  0  0  0  0  0  0  0  0  0
   64.4470   31.1695   51.5491 H   0  0  0  0  0  0  0  0  0  0  0  0
   62.1244   30.2927   51.4016 H   0  0  0  0  0  0  0  0  0  0  0  0
   60.6973   30.8500   49.4470 H   0  0  0  0  0  0  0  0  0  0  0  0
   61.8995   32.3818   46.3547 H   0  0  0  0  0  0  0  0  0  0  0  0
   60.5418   31.5305   47.2520 H   0  0  0  0  0  0  0  0  0  0  0  0
   60.3798   35.5505   46.6273 H   0  0  0  0  0  0  0  0  0  0  0  0
   61.6130   34.4769   45.8318 H   0  0  0  0  0  0  0  0  0  0  0  0
   59.2629   35.0944   44.6700 H   0  0  0  0  0  0  0  0  0  0  0  0
   60.1013   33.4984   44.4549 H   0  0  0  0  0  0  0  0  0  0  0  0
   57.2994   33.4122   42.7716 H   0  0  0  0  0  0  0  0  0  0  0  0
   58.9139   32.6983   43.2367 H   0  0  0  0  0  0  0  0  0  0  0  0
   56.3882   31.3379   42.3569 H   0  0  0  0  0  0  0  0  0  0  0  0
   58.1114   30.9531   42.0044 H   0  0  0  0  0  0  0  0  0  0  0  0
   59.5245   30.3280   44.0637 H   0  0  0  0  0  0  0  0  0  0  0  0
   59.5819   28.5719   45.8423 H   0  0  0  0  0  0  0  0  0  0  0  0
   57.6625   34.7353   47.1950 H   0  0  0  0  0  0  0  0  0  0  0  0
   57.2712   32.9710   47.3742 H   0  0  0  0  0  0  0  0  0  0  0  0
   59.1803   34.3150   48.8318 H   0  0  0  0  0  0  0  0  0  0  0  0
   59.1474   32.5175   48.4946 H   0  0  0  0  0  0  0  0  0  0  0  0
   64.9180   33.0660   46.9770 H   0  0  0  0  0  0  0  0  0  0  0  0
  1  2  1  0
  2  3  2  0
  3  4  1  0
  4  5  2  0
  5  6  1  0
  6  7  1  0
  7  8  1  0
  8  9  1  0
  9 10  1  0
 10 11  1  0
 11 12  1  0
 12 13  2  0
 12 14  1  0
 14 15  1  0
 15 16  1  0
 16 17  1  0
 17 18  2  0
 18 19  1  0
 19 20  2  0
 19 21  1  0
 21 22  1  0
 22 23  2  0
 11 24  1  0
 24 25  1  0
  6 26  2  0
 26 27  1  0
 26  2  1  0
 25  8  1  0
 22 16  1  0
  1 28  1  0
  1 29  1  0
  1 30  1  0
  3 31  1  0
  4 32  1  0
  5 33  1  0
  7 34  1  0
  7 35  1  0
  9 36  1  0
  9 37  1  0
 10 38  1  0
 10 39  1  0
 14 40  1  0
 14 41  1  0
 15 42  1  0
 15 43  1  0
 17 44  1  0
 18 45  1  0
 24 46  1  0
 24 47  1  0
 25 48  1  0
 25 49  1  0
 27 50  1  0
M  CHG  1  21  -1
M  END
>  <UniqueID>  (49) 
45

>  <SMILES>  (49) 
Cc1cccc(CN2CCN(C(=O)CCn3ccc(=O)[n-]c3=O)CC2)c1O

>  <Energy>  (49) 
64.8407445038756

>  <Genealogy>  (49) 
Cc1cccc(CN2CCN(C(=O)CCn3ccc(=O)[n-]c3=O)CC2)c1O (protonated)
Cc1cccc(CN2CCN(C(=O)CCn3ccc(=O)[n-]c3=O)CC2)c1O (3D coordinates assigned)
Cc1cccc(CN2CCN(C(=O)CCn3ccc(=O)[n-]c3=O)CC2)c1O (nonaromatic ring conformer: 64.8407445038756 kcal/mol)

>  <smiles>  (49) 
Cc1cccc(CN2CCN(C(=O)CCn3ccc(=O)[nH]c3=O)CC2)c1O

>  <score_type>  (49) 
oracle

>  <origin>  (49) 
adg

>  <m_score__min__energy>  (49) 
-10.449999999999999

>  <m_primary>  (49) 
energy

$$$$
49:0
     RDKit          3D

 44 46  0  0  0  0  0  0  0  0999 V2000
   60.5716   34.3770   47.7875 H   0  0  0  0  0  0  0  0  0  0  0  0
   60.5020   34.2130   46.7020 C   0  0  0  0  0  0  0  0  0  0  0  0
   61.5140   33.7230   46.0530 N   0  0  0  0  0  0  0  0  0  0  0  0
   62.8460   33.6120   46.5720 C   0  0  0  0  0  0  0  0  0  0  0  0
   63.6340   34.5850   46.4220 O   0  0  0  0  0  0  0  0  0  0  0  0
   63.3020   32.4030   47.3520 C   0  0  2  0  0  0  0  0  0  0  0  0
   63.9867   32.0545   46.5648 H   0  0  0  0  0  0  0  0  0  0  0  0
   62.2430   31.7690   48.2540 C   0  0  0  0  0  0  0  0  0  0  0  0
   62.1906   30.6748   48.3543 H   0  0  0  0  0  0  0  0  0  0  0  0
   61.1469   31.8290   48.3250 H   0  0  0  0  0  0  0  0  0  0  0  0
   63.4040   32.5350   48.8750 C   0  0  2  0  0  0  0  0  0  0  0  0
   64.2072   32.3283   49.5976 H   0  0  0  0  0  0  0  0  0  0  0  0
   63.0160   33.8650   49.5320 C   0  0  0  0  0  0  0  0  0  0  0  0
   63.0477   33.7565   50.6262 H   0  0  0  0  0  0  0  0  0  0  0  0
   63.7232   34.6479   49.2206 H   0  0  0  0  0  0  0  0  0  0  0  0
   61.9988   34.1448   49.2206 H   0  0  0  0  0  0  0  0  0  0  0  0
   59.2430   34.5540   45.9740 C   0  0  0  0  0  0  0  0  0  0  0  0
   58.5450   35.0511   46.6637 H   0  0  0  0  0  0  0  0  0  0  0  0
   59.4775   35.2276   45.1366 H   0  0  0  0  0  0  0  0  0  0  0  0
   58.6100   33.2990   45.4410 C   0  0  0  0  0  0  0  0  0  0  0  0
   58.1130   33.2600   44.1290 C   0  0  0  0  0  0  0  0  0  0  0  0
   58.2339   34.1338   43.4719 H   0  0  0  0  0  0  0  0  0  0  0  0
   57.4650   32.1160   43.6530 C   0  0  0  0  0  0  0  0  0  0  0  0
   57.0822   32.0912   42.6220 H   0  0  0  0  0  0  0  0  0  0  0  0
   57.3020   31.0010   44.4860 C   0  0  0  0  0  0  0  0  0  0  0  0
   56.4400   29.5850   43.8930 S   0  0  0  0  0  0  0  0  0  0  0  0
   57.3190   28.7600   42.9950 O   0  0  0  0  0  0  0  0  0  0  0  0
   55.2350   30.0400   43.1170 O   0  0  0  0  0  0  0  0  0  0  0  0
   55.9230   28.6080   45.2300 N   0  0  0  0  0  0  0  0  0  0  0  0
   56.6000   27.4380   45.7120 C   0  0  0  0  0  0  0  0  0  0  0  0
   58.0010   27.3860   45.8360 C   0  0  0  0  0  0  0  0  0  0  0  0
   58.6094   28.2557   45.5471 H   0  0  0  0  0  0  0  0  0  0  0  0
   58.6220   26.2330   46.3250 C   0  0  0  0  0  0  0  0  0  0  0  0
   59.7169   26.2008   46.4257 H   0  0  0  0  0  0  0  0  0  0  0  0
   57.8570   25.1220   46.6860 C   0  0  0  0  0  0  0  0  0  0  0  0
   58.3483   24.2174   47.0737 H   0  0  0  0  0  0  0  0  0  0  0  0
   56.4660   25.1610   46.5540 C   0  0  0  0  0  0  0  0  0  0  0  0
   55.8636   24.2836   46.8319 H   0  0  0  0  0  0  0  0  0  0  0  0
   55.8380   26.3140   46.0690 C   0  0  0  0  0  0  0  0  0  0  0  0
   54.4530   26.3400   45.9480 O   0  0  0  0  0  0  0  0  0  0  0  0
   57.8000   31.0360   45.7950 C   0  0  0  0  0  0  0  0  0  0  0  0
   57.6834   30.1595   46.4494 H   0  0  0  0  0  0  0  0  0  0  0  0
   58.4440   32.1800   46.2720 C   0  0  0  0  0  0  0  0  0  0  0  0
   58.8231   32.2041   47.3043 H   0  0  0  0  0  0  0  0  0  0  0  0
  1  2  1  0
  2  3  2  0
  3  4  1  0
  4  5  2  0
  4  6  1  0
  6  7  1  6
  6  8  1  0
  8  9  1  0
  8 10  1  0
  8 11  1  0
 11 12  1  1
 11 13  1  0
 13 14  1  0
 13 15  1  0
 13 16  1  0
  2 17  1  0
 17 18  1  0
 17 19  1  0
 17 20  1  0
 20 21  2  0
 21 22  1  0
 21 23  1  0
 23 24  1  0
 23 25  2  0
 25 26  1  0
 26 27  2  0
 26 28  2  0
 26 29  1  0
 29 30  1  0
 30 31  2  0
 31 32  1  0
 31 33  1  0
 33 34  1  0
 33 35  2  0
 35 36  1  0
 35 37  1  0
 37 38  1  0
 37 39  2  0
 39 40  1  0
 25 41  1  0
 41 42  1  0
 41 43  2  0
 43 44  1  0
 11  6  1  0
 43 20  1  0
 39 30  1  0
M  CHG  2  29  -1  40  -1
M  END
>  <UniqueID>  (50) 
46

>  <SMILES>  (50) 
C[C@H]1C[C@H]1C(=O)/N=C/Cc1ccc(S(=O)(=O)[N-]c2ccccc2[O-])cc1

>  <Energy>  (50) 
312.4377504318346

>  <Genealogy>  (50) 
CC1CC1C(=O)N=CCc1ccc(S(=O)(=O)[N-]c2ccccc2[O-])cc1 (protonated)
C[C@H]1C[C@H]1C(=O)N=CCc1ccc(S(=O)(=O)[N-]c2ccccc2[O-])cc1 (chirality)
C[C@H]1C[C@H]1C(=O)/N=C/Cc1ccc(S(=O)(=O)[N-]c2ccccc2[O-])cc1 (cis-trans isomerization)
C[C@H]1C[C@H]1C(=O)/N=C/Cc1ccc(S(=O)(=O)[N-]c2ccccc2[O-])cc1 (3D coordinates assigned)
C[C@H]1C[C@H]1C(=O)/N=C/Cc1ccc(S(=O)(=O)[N-]c2ccccc2[O-])cc1 (nonaromatic ring conformer: 312.4377504318346 kcal/mol)

>  <smiles>  (50) 
CC1CC1C(=O)N=CCc1ccc(S(=O)(=O)Nc2ccccc2O)cc1

>  <score_type>  (50) 
oracle

>  <origin>  (50) 
adg

>  <m_score__min__energy>  (50) 
-15.08

>  <m_primary>  (50) 
energy

$$$$
50:0
     RDKit          3D

 43 45  0  0  0  0  0  0  0  0999 V2000
   59.9370   26.9460   46.6090 C   0  0  0  0  0  0  0  0  0  0  0  0
   60.2930   27.9080   45.4780 C   0  0  0  0  0  0  0  0  0  0  0  0
   59.3470   29.0430   45.4400 N   0  0  0  0  0  0  0  0  0  0  0  0
   58.1840   28.8570   44.7450 C   0  0  0  0  0  0  0  0  0  0  0  0
   57.2190   29.8690   44.6310 C   0  0  0  0  0  0  0  0  0  0  0  0
   55.9750   29.6130   43.8510 C   0  0  0  0  0  0  0  0  0  0  0  0
   55.9960   29.6400   42.5920 O   0  0  0  0  0  0  0  0  0  0  0  0
   54.7700   29.3420   44.4890 O   0  0  0  0  0  0  0  0  0  0  0  0
   57.4590   31.1000   45.2640 C   0  0  0  0  0  0  0  0  0  0  0  0
   56.6150   32.0350   45.1730 O   0  0  0  0  0  0  0  0  0  0  0  0
   58.6400   31.2910   46.0030 C   0  0  0  0  0  0  0  0  0  0  0  0
   58.8870   32.5160   46.6570 C   0  0  0  0  0  0  0  0  0  0  0  0
   60.0490   32.7020   47.4100 C   0  0  0  0  0  0  0  0  0  0  0  0
   60.3450   34.2440   48.2080 S   0  0  0  0  0  0  0  0  0  0  0  0
   59.7290   34.2270   49.5790 O   0  0  0  0  0  0  0  0  0  0  0  0
   59.7250   35.3490   47.3980 O   0  0  0  0  0  0  0  0  0  0  0  0
   62.0610   34.4860   48.3300 N   0  0  0  0  0  0  0  0  0  0  0  0
   62.8950   33.7930   49.0540 C   0  0  0  0  0  0  0  0  0  0  0  0
   64.1710   33.4210   48.5840 C   0  0  0  0  0  0  0  0  0  0  0  0
   65.0190   32.6800   49.4070 C   0  0  0  0  0  0  0  0  0  0  0  0
   64.6100   32.3190   50.6940 C   0  0  0  0  0  0  0  0  0  0  0  0
   65.4980   31.4880   51.5720 C   0  0  0  0  0  0  0  0  0  0  0  0
   63.3300   32.6890   51.1220 C   0  0  0  0  0  0  0  0  0  0  0  0
   62.5140   33.4130   50.3080 N   0  0  0  0  0  0  0  0  0  0  0  0
   60.9800   31.6690   47.5080 C   0  0  0  0  0  0  0  0  0  0  0  0
   60.7550   30.4500   46.8660 C   0  0  0  0  0  0  0  0  0  0  0  0
   59.5870   30.2370   46.0940 C   0  0  0  0  0  0  0  0  0  0  0  0
   60.1181   27.4354   47.5773 H   0  0  0  0  0  0  0  0  0  0  0  0
   58.8759   26.6665   46.5322 H   0  0  0  0  0  0  0  0  0  0  0  0
   60.5605   26.0430   46.5322 H   0  0  0  0  0  0  0  0  0  0  0  0
   61.3114   28.2920   45.6377 H   0  0  0  0  0  0  0  0  0  0  0  0
   60.2346   27.3669   44.5221 H   0  0  0  0  0  0  0  0  0  0  0  0
   57.9999   27.8862   44.2616 H   0  0  0  0  0  0  0  0  0  0  0  0
   58.1565   33.3341   46.5732 H   0  0  0  0  0  0  0  0  0  0  0  0
   64.4958   33.7133   47.5745 H   0  0  0  0  0  0  0  0  0  0  0  0
   66.0122   32.3789   49.0423 H   0  0  0  0  0  0  0  0  0  0  0  0
   65.2718   31.6997   52.6275 H   0  0  0  0  0  0  0  0  0  0  0  0
   65.3230   30.4217   51.3662 H   0  0  0  0  0  0  0  0  0  0  0  0
   66.5504   31.7333   51.3662 H   0  0  0  0  0  0  0  0  0  0  0  0
   62.9812   32.3929   52.1224 H   0  0  0  0  0  0  0  0  0  0  0  0
   61.5670   33.6780   50.6630 H   0  0  0  0  0  0  0  0  0  0  0  0
   61.8984   31.8155   48.0954 H   0  0  0  0  0  0  0  0  0  0  0  0
   61.4961   29.6427   46.9612 H   0  0  0  0  0  0  0  0  0  0  0  0
  1  2  1  0
  2  3  1  0
  3  4  1  0
  4  5  2  0
  5  6  1  0
  6  7  2  0
  6  8  1  0
  5  9  1  0
  9 10  2  0
  9 11  1  0
 11 12  2  0
 12 13  1  0
 13 14  1  0
 14 15  2  0
 14 16  2  0
 14 17  1  0
 17 18  2  3
 18 19  1  0
 19 20  2  0
 20 21  1  0
 21 22  1  0
 21 23  2  0
 23 24  1  0
 13 25  2  0
 25 26  1  0
 26 27  2  0
 27  3  1  0
 27 11  1  0
 24 18  1  0
  1 28  1  0
  1 29  1  0
  1 30  1  0
  2 31  1  0
  2 32  1  0
  4 33  1  0
 12 34  1  0
 19 35  1  0
 20 36  1  0
 22 37  1  0
 22 38  1  0
 22 39  1  0
 23 40  1  0
 24 41  1  0
 25 42  1  0
 26 43  1  0
M  CHG  1   8  -1
M  END
>  <UniqueID>  (51) 
47

>  <SMILES>  (51) 
CCn1cc(C(=O)[O-])c(=O)c2cc(S(=O)(=O)N=c3ccc(C)c[nH]3)ccc21

>  <Energy>  (51) 
61.32394585489536

>  <Genealogy>  (51) 
CCn1cc(C(=O)[O-])c(=O)c2cc(S(=O)(=O)N=c3ccc(C)c[nH]3)ccc21 (protonated)
CCn1cc(C(=O)[O-])c(=O)c2cc(S(=O)(=O)N=c3ccc(C)c[nH]3)ccc21 (3D coordinates assigned)
CCn1cc(C(=O)[O-])c(=O)c2cc(S(=O)(=O)N=c3ccc(C)c[nH]3)ccc21 (optimized conformer: 61.32394585489536 kcal/mol)

>  <smiles>  (51) 
CCn1cc(C(=O)O)c(=O)c2cc(S(=O)(=O)N=c3ccc(C)c[nH]3)ccc21

>  <score_type>  (51) 
oracle

>  <origin>  (51) 
adg

>  <m_score__min__energy>  (51) 
-11.27

>  <m_primary>  (51) 
energy

$$$$
51:0
     RDKit          3D

 57 61  0  0  0  0  0  0  0  0999 V2000
   59.9130   34.4620   48.9730 C   0  0  0  0  0  0  0  0  0  0  0  0
   58.8800   33.5970   48.5060 O   0  0  0  0  0  0  0  0  0  0  0  0
   58.5480   33.4210   47.1520 C   0  0  0  0  0  0  0  0  0  0  0  0
   58.5420   34.5440   46.3150 C   0  0  0  0  0  0  0  0  0  0  0  0
   58.2250   34.4140   44.9600 C   0  0  0  0  0  0  0  0  0  0  0  0
   57.9170   33.1590   44.4280 C   0  0  0  0  0  0  0  0  0  0  0  0
   57.9310   32.0190   45.2510 C   0  0  0  0  0  0  0  0  0  0  0  0
   57.5940   30.7170   44.7510 N   0  0  0  0  0  0  0  0  0  0  0  0
   56.9940   29.6470   45.4930 C   0  0  0  0  0  0  0  0  0  0  0  0
   55.8340   29.2390   45.2150 O   0  0  0  0  0  0  0  0  0  0  0  0
   57.7700   28.9800   46.5850 C   0  0  0  0  0  0  0  0  0  0  0  0
   59.5690   29.0670   46.2680 S   0  0  0  0  0  0  0  0  0  0  0  0
   59.9390   29.9650   47.7740 C   0  0  0  0  0  0  0  0  0  0  0  0
   61.1230   30.6330   47.8800 N   0  0  0  0  0  0  0  0  0  0  0  0
   61.4170   31.2960   49.0250 C   0  0  0  0  0  0  0  0  0  0  0  0
   60.5260   31.3070   50.0830 C   0  0  0  0  0  0  0  0  0  0  0  0
   61.1820   32.1630   51.3860 S   0  0  0  0  0  0  0  0  0  0  0  0
   62.6240   32.5340   50.5680 C   0  0  0  0  0  0  0  0  0  0  0  0
   62.6030   31.9890   49.2920 C   0  0  0  0  0  0  0  0  0  0  0  0
   63.7140   32.1650   48.4710 C   0  0  0  0  0  0  0  0  0  0  0  0
   63.7510   31.6860   47.3080 O   0  0  0  0  0  0  0  0  0  0  0  0
   64.7740   32.8690   48.9520 N   0  0  0  0  0  0  0  0  0  0  0  0
   64.7770   33.4050   50.2100 C   0  0  0  0  0  0  0  0  0  0  0  0
   65.7920   34.0440   50.5950 O   0  0  0  0  0  0  0  0  0  0  0  0
   63.6900   33.2460   51.0380 N   0  0  0  0  0  0  0  0  0  0  0  0
   63.6610   33.7950   52.4010 C   0  0  0  0  0  0  0  0  0  0  0  0
   59.3110   30.6320   49.9760 C   0  0  0  0  0  0  0  0  0  0  0  0
   58.3740   30.6050   51.0660 N   0  0  0  0  0  0  0  0  0  0  0  0
   58.5190   29.6190   52.1430 C   0  0  0  0  0  0  0  0  0  0  0  0
   57.1490   29.0330   52.5480 C   0  0  0  0  0  0  0  0  0  0  0  0
   56.0030   29.9110   52.2400 N   0  0  0  0  0  0  0  0  0  0  0  0
   56.3590   31.3350   52.2840 C   0  0  0  0  0  0  0  0  0  0  0  0
   57.3690   31.6650   51.1780 C   0  0  0  0  0  0  0  0  0  0  0  0
   59.0460   29.9660   48.8130 N   0  0  0  0  0  0  0  0  0  0  0  0
   58.2260   32.1590   46.6140 C   0  0  0  0  0  0  0  0  0  0  0  0
   59.9182   34.4664   50.0730 H   0  0  0  0  0  0  0  0  0  0  0  0
   60.8854   34.1048   48.6031 H   0  0  0  0  0  0  0  0  0  0  0  0
   59.7322   35.4821   48.6031 H   0  0  0  0  0  0  0  0  0  0  0  0
   58.7882   35.5340   46.7265 H   0  0  0  0  0  0  0  0  0  0  0  0
   58.2179   35.3019   44.3106 H   0  0  0  0  0  0  0  0  0  0  0  0
   57.6628   33.0627   43.3621 H   0  0  0  0  0  0  0  0  0  0  0  0
   57.5494   29.4809   47.5392 H   0  0  0  0  0  0  0  0  0  0  0  0
   57.4747   27.9211   46.6248 H   0  0  0  0  0  0  0  0  0  0  0  0
   63.7045   32.9715   53.1290 H   0  0  0  0  0  0  0  0  0  0  0  0
   64.5253   34.4596   52.5471 H   0  0  0  0  0  0  0  0  0  0  0  0
   62.7315   34.3648   52.5471 H   0  0  0  0  0  0  0  0  0  0  0  0
   59.1709   28.8030   51.7977 H   0  0  0  0  0  0  0  0  0  0  0  0
   58.9575   30.1199   53.0187 H   0  0  0  0  0  0  0  0  0  0  0  0
   57.0087   28.0817   52.0138 H   0  0  0  0  0  0  0  0  0  0  0  0
   57.1680   28.9080   53.6407 H   0  0  0  0  0  0  0  0  0  0  0  0
   55.6550   29.6860   51.2780 H   0  0  0  0  0  0  0  0  0  0  0  0
   55.4521   31.9405   52.1398 H   0  0  0  0  0  0  0  0  0  0  0  0
   56.8112   31.5610   53.2609 H   0  0  0  0  0  0  0  0  0  0  0  0
   56.8374   31.7621   50.2199 H   0  0  0  0  0  0  0  0  0  0  0  0
   57.8749   32.6089   51.4292 H   0  0  0  0  0  0  0  0  0  0  0  0
   58.1420   29.4550   48.7030 H   0  0  0  0  0  0  0  0  0  0  0  0
   58.2060   31.2759   47.2696 H   0  0  0  0  0  0  0  0  0  0  0  0
  1  2  1  0
  2  3  1  0
  3  4  2  0
  4  5  1  0
  5  6  2  0
  6  7  1  0
  7  8  1  0
  8  9  1  0
  9 10  2  0
  9 11  1  0
 11 12  1  0
 12 13  1  0
 13 14  2  0
 14 15  1  0
 15 16  2  0
 16 17  1  0
 17 18  1  0
 18 19  2  0
 19 20  1  0
 20 21  2  0
 20 22  1  0
 22 23  1  0
 23 24  2  0
 23 25  1  0
 25 26  1  0
 16 27  1  0
 27 28  1  0
 28 29  1  0
 29 30  1  0
 30 31  1  0
 31 32  1  0
 32 33  1  0
 27 34  2  0
  7 35  2  0
 35  3  1  0
 34 13  1  0
 19 15  1  0
 33 28  1  0
 25 18  1  0
  1 36  1  0
  1 37  1  0
  1 38  1  0
  4 39  1  0
  5 40  1  0
  6 41  1  0
 11 42  1  0
 11 43  1  0
 26 44  1  0
 26 45  1  0
 26 46  1  0
 29 47  1  0
 29 48  1  0
 30 49  1  0
 30 50  1  0
 31 51  1  0
 32 52  1  0
 32 53  1  0
 33 54  1  0
 33 55  1  0
 34 56  1  0
 35 57  1  0
M  CHG  3   8  -1  22  -1  34   1
M  END
>  <UniqueID>  (52) 
48

>  <SMILES>  (52) 
COc1cccc([N-]C(=O)CSc2nc3c(sc4c3c(=O)[n-]c(=O)n4C)c(N3CCNCC3)[nH+]2)c1

>  <Energy>  (52) 
109.61203384820051

>  <Genealogy>  (52) 
COc1cccc([N-]C(=O)CSc2nc3c(sc4c3c(=O)[n-]c(=O)n4C)c(N3CCNCC3)[nH+]2)c1 (protonated)
COc1cccc([N-]C(=O)CSc2nc3c(sc4c3c(=O)[n-]c(=O)n4C)c(N3CCNCC3)[nH+]2)c1 (3D coordinates assigned)
COc1cccc([N-]C(=O)CSc2nc3c(sc4c3c(=O)[n-]c(=O)n4C)c(N3CCNCC3)[nH+]2)c1 (nonaromatic ring conformer: 109.61203384820051 kcal/mol)

>  <smiles>  (52) 
COc1cccc(NC(=O)CSc2nc(N3CCNCC3)c3sc4c(c(=O)[nH]c(=O)n4C)c3n2)c1

>  <score_type>  (52) 
oracle

>  <origin>  (52) 
adg

>  <m_score__min__energy>  (52) 
-10.970000000000001

>  <m_primary>  (52) 
energy

$$$$
52:0
     RDKit          3D

 37 38  0  0  0  0  0  0  0  0999 V2000
   55.6690   23.0260   46.9710 C   0  0  0  0  0  0  0  0  0  0  0  0
   55.7210   24.4420   47.1230 O   0  0  0  0  0  0  0  0  0  0  0  0
   56.7800   25.2500   46.6810 C   0  0  0  0  0  0  0  0  0  0  0  0
   58.1250   24.8500   46.7950 C   0  0  0  0  0  0  0  0  0  0  0  0
   59.1480   25.6840   46.3400 C   0  0  0  0  0  0  0  0  0  0  0  0
   58.8440   26.9210   45.7690 C   0  0  0  0  0  0  0  0  0  0  0  0
   57.5090   27.3390   45.6480 C   0  0  0  0  0  0  0  0  0  0  0  0
   57.2130   28.6720   45.0070 C   0  0  0  0  0  0  0  0  0  0  0  0
   57.9960   29.7260   45.6490 N   0  0  0  0  0  0  0  0  0  0  0  0
   57.6940   31.1190   45.4850 C   0  0  0  0  0  0  0  0  0  0  0  0
   56.6850   31.4750   44.8180 O   0  0  0  0  0  0  0  0  0  0  0  0
   58.5580   32.1390   46.0950 C   0  0  0  0  0  0  0  0  0  0  0  0
   58.5160   33.4970   45.8410 C   0  0  0  0  0  0  0  0  0  0  0  0
   59.5030   34.0570   46.6230 C   0  0  0  0  0  0  0  0  0  0  0  0
   60.0800   33.0040   47.3070 C   0  0  0  0  0  0  0  0  0  0  0  0
   61.2250   33.1040   48.2600 C   0  0  0  0  0  0  0  0  0  0  0  0
   62.7570   33.2660   47.3620 S   0  0  0  0  0  0  0  0  0  0  0  0
   63.5090   31.7180   47.2010 N   0  0  0  0  0  0  0  0  0  0  0  0
   62.4770   33.8280   45.9980 O   0  0  0  0  0  0  0  0  0  0  0  0
   63.6800   34.1940   48.1010 O   0  0  0  0  0  0  0  0  0  0  0  0
   59.5020   31.8750   46.9700 O   0  0  0  0  0  0  0  0  0  0  0  0
   56.4770   26.4940   46.1060 C   0  0  0  0  0  0  0  0  0  0  0  0
   55.1450   26.8830   45.9950 O   0  0  0  0  0  0  0  0  0  0  0  0
   55.6516   22.5511   47.9631 H   0  0  0  0  0  0  0  0  0  0  0  0
   54.7601   22.7499   46.4163 H   0  0  0  0  0  0  0  0  0  0  0  0
   56.5552   22.6840   46.4163 H   0  0  0  0  0  0  0  0  0  0  0  0
   58.3708   23.8765   47.2443 H   0  0  0  0  0  0  0  0  0  0  0  0
   60.1968   25.3654   46.4317 H   0  0  0  0  0  0  0  0  0  0  0  0
   59.6553   27.5723   45.4117 H   0  0  0  0  0  0  0  0  0  0  0  0
   57.4715   28.6268   43.9388 H   0  0  0  0  0  0  0  0  0  0  0  0
   56.1429   28.8973   45.1253 H   0  0  0  0  0  0  0  0  0  0  0  0
   58.8060   29.4440   46.2460 H   0  0  0  0  0  0  0  0  0  0  0  0
   57.8349   34.0227   45.1556 H   0  0  0  0  0  0  0  0  0  0  0  0
   59.7749   35.1208   46.6890 H   0  0  0  0  0  0  0  0  0  0  0  0
   61.0861   33.9845   48.9045 H   0  0  0  0  0  0  0  0  0  0  0  0
   61.2625   32.1926   48.8747 H   0  0  0  0  0  0  0  0  0  0  0  0
   64.4820   31.8850   46.8590 H   0  0  0  0  0  0  0  0  0  0  0  0
  1  2  1  0
  2  3  1  0
  3  4  2  0
  4  5  1  0
  5  6  2  0
  6  7  1  0
  7  8  1  0
  8  9  1  0
  9 10  1  0
 10 11  2  0
 10 12  1  0
 12 13  2  0
 13 14  1  0
 14 15  2  0
 15 16  1  0
 16 17  1  0
 17 18  1  0
 17 19  2  0
 17 20  2  0
 15 21  1  0
  7 22  2  0
 22 23  1  0
 22  3  1  0
 21 12  1  0
  1 24  1  0
  1 25  1  0
  1 26  1  0
  4 27  1  0
  5 28  1  0
  6 29  1  0
  8 30  1  0
  8 31  1  0
  9 32  1  0
 13 33  1  0
 14 34  1  0
 16 35  1  0
 16 36  1  0
 18 37  1  0
M  CHG  2  18  -1  23  -1
M  END
>  <UniqueID>  (53) 
49

>  <SMILES>  (53) 
COc1cccc(CNC(=O)c2ccc(CS([NH-])(=O)=O)o2)c1[O-]

>  <Energy>  (53) 
53.42848436269502

>  <Genealogy>  (53) 
COc1cccc(CNC(=O)c2ccc(CS([NH-])(=O)=O)o2)c1[O-] (protonated)
COc1cccc(CNC(=O)c2ccc(CS([NH-])(=O)=O)o2)c1[O-] (3D coordinates assigned)
COc1cccc(CNC(=O)c2ccc(CS([NH-])(=O)=O)o2)c1[O-] (optimized conformer: 53.42848436269502 kcal/mol)

>  <smiles>  (53) 
COc1cccc(CNC(=O)c2ccc(CS(N)(=O)=O)o2)c1O

>  <score_type>  (53) 
oracle

>  <origin>  (53) 
adg

>  <m_score__min__energy>  (53) 
-11.720000000000001

>  <m_primary>  (53) 
energy

$$$$
53:0
     RDKit          3D

 34 35  0  0  0  0  0  0  0  0999 V2000
   54.9420   28.5390   54.0180 O   0  0  0  0  0  0  0  0  0  0  0  0
   54.2990   29.0500   53.0610 C   0  0  0  0  0  0  0  0  0  0  0  0
   52.8050   29.0210   53.0720 C   0  0  0  0  0  0  0  0  0  0  0  0
   52.2630   30.0160   52.0810 C   0  0  0  0  0  0  0  0  0  0  0  0
   52.2630   29.7040   50.7110 C   0  0  0  0  0  0  0  0  0  0  0  0
   51.7340   30.6030   49.7810 C   0  0  0  0  0  0  0  0  0  0  0  0
   51.1910   31.8180   50.2100 C   0  0  0  0  0  0  0  0  0  0  0  0
   50.6680   32.7080   49.2780 O   0  0  0  0  0  0  0  0  0  0  0  0
   51.1720   32.1330   51.5730 C   0  0  0  0  0  0  0  0  0  0  0  0
   50.6250   33.3390   51.9990 O   0  0  0  0  0  0  0  0  0  0  0  0
   51.7000   31.2350   52.5100 C   0  0  0  0  0  0  0  0  0  0  0  0
   51.6630   31.5570   53.8640 O   0  0  0  0  0  0  0  0  0  0  0  0
   54.9650   29.6060   51.9630 O   0  0  0  0  0  0  0  0  0  0  0  0
   55.6520   30.8570   52.0030 C   0  0  0  0  0  0  0  0  0  0  0  0
   57.1580   30.6520   52.1960 C   0  0  0  0  0  0  0  0  0  0  0  0
   57.8290   31.8900   52.7320 C   0  0  0  0  0  0  0  0  0  0  0  0
   57.8830   33.0630   51.9590 C   0  0  0  0  0  0  0  0  0  0  0  0
   58.4720   34.2210   52.4760 C   0  0  0  0  0  0  0  0  0  0  0  0
   59.0100   34.2160   53.7650 C   0  0  0  0  0  0  0  0  0  0  0  0
   58.9580   33.0550   54.5420 C   0  0  0  0  0  0  0  0  0  0  0  0
   58.3680   31.8960   54.0290 C   0  0  0  0  0  0  0  0  0  0  0  0
   52.4583   28.0125   52.8022 H   0  0  0  0  0  0  0  0  0  0  0  0
   52.4464   29.2822   54.0786 H   0  0  0  0  0  0  0  0  0  0  0  0
   52.6819   28.7463   50.3684 H   0  0  0  0  0  0  0  0  0  0  0  0
   51.7448   30.3543   48.7095 H   0  0  0  0  0  0  0  0  0  0  0  0
   55.4803   31.3918   51.0572 H   0  0  0  0  0  0  0  0  0  0  0  0
   55.2667   31.4407   52.8520 H   0  0  0  0  0  0  0  0  0  0  0  0
   57.3166   29.8261   52.9051 H   0  0  0  0  0  0  0  0  0  0  0  0
   57.5995   30.4224   51.2150 H   0  0  0  0  0  0  0  0  0  0  0  0
   57.4603   33.0699   50.9435 H   0  0  0  0  0  0  0  0  0  0  0  0
   58.5117   35.1364   51.8673 H   0  0  0  0  0  0  0  0  0  0  0  0
   59.4753   35.1270   54.1694 H   0  0  0  0  0  0  0  0  0  0  0  0
   59.3814   33.0534   55.5572 H   0  0  0  0  0  0  0  0  0  0  0  0
   58.3257   30.9848   54.6438 H   0  0  0  0  0  0  0  0  0  0  0  0
  1  2  2  0
  2  3  1  0
  3  4  1  0
  4  5  2  0
  5  6  1  0
  6  7  2  0
  7  8  1  0
  7  9  1  0
  9 10  1  0
  9 11  2  0
 11 12  1  0
  2 13  1  0
 13 14  1  0
 14 15  1  0
 15 16  1  0
 16 17  2  0
 17 18  1  0
 18 19  2  0
 19 20  1  0
 20 21  2  0
 11  4  1  0
 21 16  1  0
  3 22  1  0
  3 23  1  0
  5 24  1  0
  6 25  1  0
 14 26  1  0
 14 27  1  0
 15 28  1  0
 15 29  1  0
 17 30  1  0
 18 31  1  0
 19 32  1  0
 20 33  1  0
 21 34  1  0
M  CHG  3   8  -1  10  -1  12  -1
M  END
>  <UniqueID>  (54) 
50

>  <SMILES>  (54) 
O=C(Cc1ccc([O-])c([O-])c1[O-])OCCc1ccccc1

>  <Energy>  (54) 
30.168526088864226

>  <Genealogy>  (54) 
O=C(Cc1ccc([O-])c([O-])c1[O-])OCCc1ccccc1 (protonated)
O=C(Cc1ccc([O-])c([O-])c1[O-])OCCc1ccccc1 (3D coordinates assigned)
O=C(Cc1ccc([O-])c([O-])c1[O-])OCCc1ccccc1 (optimized conformer: 30.168526088864226 kcal/mol)

>  <smiles>  (54) 
O=C(Cc1ccc(O)c(O)c1O)OCCc1ccccc1

>  <score_type>  (54) 
oracle

>  <origin>  (54) 
adg

>  <m_score__min__energy>  (54) 
-16.149999999999999

>  <m_primary>  (54) 
energy

$$$$
54:0
     RDKit          3D

 46 49  0  0  0  0  0  0  0  0999 V2000
   60.9963   30.0051   45.5371 H   0  0  0  0  0  0  0  0  0  0  0  0
   60.0960   30.3020   46.0950 C   0  0  0  0  0  0  0  0  0  0  0  0
   60.2060   31.2440   47.0430 C   0  0  0  0  0  0  0  0  0  0  0  0
   59.3201   31.4659   47.6561 H   0  0  0  0  0  0  0  0  0  0  0  0
   61.4500   32.0050   47.3150 C   0  0  0  0  0  0  0  0  0  0  0  0
   61.7360   33.2450   46.7050 C   0  0  0  0  0  0  0  0  0  0  0  0
   61.0168   33.6862   45.9992 H   0  0  0  0  0  0  0  0  0  0  0  0
   62.9290   33.9160   46.9930 C   0  0  0  0  0  0  0  0  0  0  0  0
   63.1413   34.8854   46.5184 H   0  0  0  0  0  0  0  0  0  0  0  0
   63.8510   33.3590   47.8810 C   0  0  0  0  0  0  0  0  0  0  0  0
   64.7860   33.8917   48.1090 H   0  0  0  0  0  0  0  0  0  0  0  0
   63.5860   32.1250   48.4800 C   0  0  0  0  0  0  0  0  0  0  0  0
   64.3151   31.6840   49.1757 H   0  0  0  0  0  0  0  0  0  0  0  0
   62.3950   31.4500   48.1960 C   0  0  0  0  0  0  0  0  0  0  0  0
   62.1954   30.4758   48.6661 H   0  0  0  0  0  0  0  0  0  0  0  0
   58.8140   29.6490   45.7720 C   0  0  0  0  0  0  0  0  0  0  0  0
   58.6410   28.3210   45.9430 N   0  0  0  0  0  0  0  0  0  0  0  0
   57.3630   28.0540   45.6090 C   0  0  0  0  0  0  0  0  0  0  0  0
   56.8160   26.6860   45.6310 C   0  0  0  0  0  0  0  0  0  0  0  0
   57.5400   25.5060   45.4490 C   0  0  0  0  0  0  0  0  0  0  0  0
   58.6105   25.4087   45.2155 H   0  0  0  0  0  0  0  0  0  0  0  0
   56.6240   24.4870   45.6250 C   0  0  0  0  0  0  0  0  0  0  0  0
   56.7680   23.0970   45.5780 C   0  0  0  0  0  0  0  0  0  0  0  0
   57.9530   22.6140   45.3080 N   0  0  0  0  0  0  0  0  0  0  0  0
   58.4240   21.9120   44.1230 C   0  0  0  0  0  0  0  0  0  0  0  0
   59.0130   21.0341   44.4268 H   0  0  0  0  0  0  0  0  0  0  0  0
   57.5616   21.5853   43.5234 H   0  0  0  0  0  0  0  0  0  0  0  0
   59.0533   22.5861   43.5234 H   0  0  0  0  0  0  0  0  0  0  0  0
   55.5860   22.3250   45.8330 C   0  0  0  0  0  0  0  0  0  0  0  0
   55.4670   20.4070   45.8310 Br  0  0  0  0  0  0  0  0  0  0  0  0
   54.3720   22.9970   46.1180 C   0  0  0  0  0  0  0  0  0  0  0  0
   53.4634   22.4086   46.3134 H   0  0  0  0  0  0  0  0  0  0  0  0
   54.3070   24.3600   46.1550 N   0  0  0  0  0  0  0  0  0  0  0  0
   55.4260   25.0770   45.9070 C   0  0  0  0  0  0  0  0  0  0  0  0
   55.5230   26.4150   45.9250 N   0  0  0  0  0  0  0  0  0  0  0  0
   54.7600   27.0980   46.1280 H   0  0  0  0  0  0  0  0  0  0  0  0
   56.7150   29.2190   45.2280 C   0  0  0  0  0  0  0  0  0  0  0  0
   55.3390   29.3520   44.8580 N   0  0  0  0  0  0  0  0  0  0  0  0
   54.7960   28.5360   44.5030 H   0  0  0  0  0  0  0  0  0  0  0  0
   54.8700   30.2840   44.8610 H   0  0  0  0  0  0  0  0  0  0  0  0
   57.6410   30.2440   45.3110 C   0  0  0  0  0  0  0  0  0  0  0  0
   57.4250   31.6530   44.9250 C   0  0  0  0  0  0  0  0  0  0  0  0
   56.2540   32.1140   44.8630 O   0  0  0  0  0  0  0  0  0  0  0  0
   58.5280   32.4990   44.5980 N   0  0  0  0  0  0  0  0  0  0  0  0
   59.4990   32.1190   44.5440 H   0  0  0  0  0  0  0  0  0  0  0  0
   58.3690   33.5030   44.3620 H   0  0  0  0  0  0  0  0  0  0  0  0
  1  2  1  0
  2  3  2  0
  3  4  1  0
  3  5  1  0
  5  6  2  0
  6  7  1  0
  6  8  1  0
  8  9  1  0
  8 10  2  0
 10 11  1  0
 10 12  1  0
 12 13  1  0
 12 14  2  0
 14 15  1  0
  2 16  1  0
 16 17  1  0
 17 18  1  0
 18 19  1  0
 19 20  2  0
 20 21  1  0
 20 22  1  0
 22 23  1  0
 23 24  2  0
 24 25  1  0
 25 26  1  0
 25 27  1  0
 25 28  1  0
 23 29  1  0
 29 30  1  0
 29 31  2  0
 31 32  1  0
 31 33  1  0
 33 34  1  0
 34 35  1  0
 35 36  1  0
 18 37  2  0
 37 38  1  0
 38 39  1  0
 38 40  1  0
 37 41  1  0
 41 42  1  0
 42 43  2  0
 42 44  1  0
 44 45  1  0
 44 46  1  0
 14  5  1  0
 41 16  2  0
 35 19  1  0
 34 22  2  0
M  CHG  2  17  -1  33  -1
M  END
>  <UniqueID>  (55) 
51

>  <SMILES>  (55) 
C/N=c1\c(Br)c[n-]c2[nH]c(-c3[n-]c(/C=C/c4ccccc4)c(C(N)=O)c3N)cc12

>  <Energy>  (55) 
130.04526946135547

>  <Genealogy>  (55) 
CN=c1c(Br)c[n-]c2[nH]c(-c3[n-]c(C=Cc4ccccc4)c(C(N)=O)c3N)cc12 (protonated)
C/N=c1\c(Br)c[n-]c2[nH]c(-c3[n-]c(/C=C/c4ccccc4)c(C(N)=O)c3N)cc12 (cis-trans isomerization)
C/N=c1\c(Br)c[n-]c2[nH]c(-c3[n-]c(/C=C/c4ccccc4)c(C(N)=O)c3N)cc12 (3D coordinates assigned)
C/N=c1\c(Br)c[n-]c2[nH]c(-c3[n-]c(/C=C/c4ccccc4)c(C(N)=O)c3N)cc12 (optimized conformer: 130.04526946135547 kcal/mol)

>  <smiles>  (55) 
CN=c1c(Br)c[nH]c2[nH]c(-c3[nH]c(C=Cc4ccccc4)c(C(N)=O)c3N)cc12

>  <score_type>  (55) 
oracle

>  <origin>  (55) 
adg

>  <m_score__min__energy>  (55) 
-12.4

>  <m_primary>  (55) 
energy

$$$$
55:0
     RDKit          3D

 23 23  0  0  0  0  0  0  0  0999 V2000
   59.5830   33.6350   48.9780 C   0  0  0  0  0  0  0  0  0  0  0  0
   59.1420   33.5840   47.5440 C   0  0  0  0  0  0  0  0  0  0  0  0
   59.4600   34.6350   46.6700 C   0  0  0  0  0  0  0  0  0  0  0  0
   59.0180   34.6030   45.3460 C   0  0  0  0  0  0  0  0  0  0  0  0
   58.2490   33.5320   44.8880 C   0  0  0  0  0  0  0  0  0  0  0  0
   57.9070   32.4820   45.7490 C   0  0  0  0  0  0  0  0  0  0  0  0
   57.1250   31.4340   45.2370 O   0  0  0  0  0  0  0  0  0  0  0  0
   57.2000   30.9230   43.9070 C   0  0  0  0  0  0  0  0  0  0  0  0
   56.1130   29.9190   43.6620 C   0  0  0  0  0  0  0  0  0  0  0  0
   55.1520   29.6250   44.6770 N   0  0  0  0  0  0  0  0  0  0  0  0
   56.0330   29.3470   42.5430 O   0  0  0  0  0  0  0  0  0  0  0  0
   58.3520   32.5180   47.0870 C   0  0  0  0  0  0  0  0  0  0  0  0
   58.7066   33.5336   49.6350 H   0  0  0  0  0  0  0  0  0  0  0  0
   60.2860   32.8122   49.1749 H   0  0  0  0  0  0  0  0  0  0  0  0
   60.0796   34.5966   49.1749 H   0  0  0  0  0  0  0  0  0  0  0  0
   60.0585   35.4854   47.0287 H   0  0  0  0  0  0  0  0  0  0  0  0
   59.2766   35.4245   44.6617 H   0  0  0  0  0  0  0  0  0  0  0  0
   57.9088   33.5126   43.8421 H   0  0  0  0  0  0  0  0  0  0  0  0
   57.0912   31.7539   43.1944 H   0  0  0  0  0  0  0  0  0  0  0  0
   58.1738   30.4294   43.7725 H   0  0  0  0  0  0  0  0  0  0  0  0
   54.3960   28.9290   44.4990 H   0  0  0  0  0  0  0  0  0  0  0  0
   55.1940   30.0990   45.6060 H   0  0  0  0  0  0  0  0  0  0  0  0
   58.0782   31.7057   47.7763 H   0  0  0  0  0  0  0  0  0  0  0  0
  1  2  1  0
  2  3  2  0
  3  4  1  0
  4  5  2  0
  5  6  1  0
  6  7  1  0
  7  8  1  0
  8  9  1  0
  9 10  1  0
  9 11  2  0
  6 12  2  0
 12  2  1  0
  1 13  1  0
  1 14  1  0
  1 15  1  0
  3 16  1  0
  4 17  1  0
  5 18  1  0
  8 19  1  0
  8 20  1  0
 10 21  1  0
 10 22  1  0
 12 23  1  0
M  END
>  <UniqueID>  (56) 
52

>  <SMILES>  (56) 
Cc1cccc(OCC(N)=O)c1

>  <Energy>  (56) 
18.19202449682436

>  <Genealogy>  (56) 
Cc1cccc(OCC(N)=O)c1 (3D coordinates assigned)
Cc1cccc(OCC(N)=O)c1 (optimized conformer: 18.19202449682436 kcal/mol)

>  <smiles>  (56) 
Cc1cccc(OCC(N)=O)c1

>  <score_type>  (56) 
oracle

>  <origin>  (56) 
adg

>  <m_score__min__energy>  (56) 
-6.3300000000000001

>  <m_primary>  (56) 
energy

$$$$
56:0
     RDKit          3D

 57 60  0  0  0  0  0  0  0  0999 V2000
   57.9610   29.6420   50.8290 O   0  0  0  0  0  0  0  0  0  0  0  0
   58.5120   30.3790   49.9650 C   0  0  0  0  0  0  0  0  0  0  0  0
   59.6030   29.7950   49.1000 C   0  0  0  0  0  0  0  0  0  0  0  0
   59.1210   28.9940   47.9540 N   0  0  0  0  0  0  0  0  0  0  0  0
   59.4020   27.5420   48.0860 C   0  0  0  0  0  0  0  0  0  0  0  0
   59.4790   26.8160   46.7300 C   0  0  0  0  0  0  0  0  0  0  0  0
   58.5650   27.4340   45.7590 N   0  0  0  0  0  0  0  0  0  0  0  0
   57.7950   26.6230   44.8520 C   0  0  0  0  0  0  0  0  0  0  0  0
   57.6900   26.9740   43.6450 O   0  0  0  0  0  0  0  0  0  0  0  0
   57.0840   25.4070   45.3170 C   0  0  0  0  0  0  0  0  0  0  0  0
   57.7080   24.1500   45.2190 C   0  0  0  0  0  0  0  0  0  0  0  0
   57.0620   22.9990   45.6820 C   0  0  0  0  0  0  0  0  0  0  0  0
   55.7870   23.0910   46.2470 C   0  0  0  0  0  0  0  0  0  0  0  0
   55.1550   24.3340   46.3480 C   0  0  0  0  0  0  0  0  0  0  0  0
   55.7960   25.4910   45.8890 C   0  0  0  0  0  0  0  0  0  0  0  0
   55.1360   26.7150   45.9860 O   0  0  0  0  0  0  0  0  0  0  0  0
   58.5980   28.8890   45.5620 C   0  0  0  0  0  0  0  0  0  0  0  0
   59.4510   29.5690   46.6360 C   0  0  0  0  0  0  0  0  0  0  0  0
   58.1360   31.7580   49.8570 N   0  0  0  0  0  0  0  0  0  0  0  0
   58.6970   32.6500   48.8870 C   0  0  0  0  0  0  0  0  0  0  0  0
   58.2990   32.5190   47.5510 C   0  0  0  0  0  0  0  0  0  0  0  0
   58.7550   33.4190   46.5850 C   0  0  0  0  0  0  0  0  0  0  0  0
   59.6170   34.4550   46.9480 C   0  0  0  0  0  0  0  0  0  0  0  0
   60.0440   34.5800   48.2740 C   0  0  0  0  0  0  0  0  0  0  0  0
   59.6090   33.6710   49.2540 C   0  0  0  0  0  0  0  0  0  0  0  0
   60.1610   33.7650   50.6240 C   0  0  0  0  0  0  0  0  0  0  0  0
   59.3840   33.7820   51.6180 O   0  0  0  0  0  0  0  0  0  0  0  0
   61.5740   33.8870   50.8170 N   0  0  0  0  0  0  0  0  0  0  0  0
   62.5070   32.7840   50.6360 C   0  0  0  0  0  0  0  0  0  0  0  0
   62.9530   32.7530   49.2100 C   0  0  0  0  0  0  0  0  0  0  0  0
   62.8410   31.6830   48.3450 C   0  0  0  0  0  0  0  0  0  0  0  0
   63.3300   32.1330   47.1350 C   0  0  0  0  0  0  0  0  0  0  0  0
   63.7130   33.4440   47.3380 C   0  0  0  0  0  0  0  0  0  0  0  0
   63.4720   33.7860   48.5840 O   0  0  0  0  0  0  0  0  0  0  0  0
   60.2097   30.6243   48.7073 H   0  0  0  0  0  0  0  0  0  0  0  0
   60.1735   29.1073   49.7416 H   0  0  0  0  0  0  0  0  0  0  0  0
   60.3638   27.4173   48.6050 H   0  0  0  0  0  0  0  0  0  0  0  0
   58.5691   27.0966   48.6498 H   0  0  0  0  0  0  0  0  0  0  0  0
   60.5081   26.8755   46.3462 H   0  0  0  0  0  0  0  0  0  0  0  0
   59.1861   25.7654   46.8734 H   0  0  0  0  0  0  0  0  0  0  0  0
   58.7114   24.0717   44.7750 H   0  0  0  0  0  0  0  0  0  0  0  0
   57.5580   22.0205   45.6013 H   0  0  0  0  0  0  0  0  0  0  0  0
   55.2807   22.1853   46.6123 H   0  0  0  0  0  0  0  0  0  0  0  0
   54.1500   24.4032   46.7899 H   0  0  0  0  0  0  0  0  0  0  0  0
   59.0242   29.1083   44.5719 H   0  0  0  0  0  0  0  0  0  0  0  0
   57.5707   29.2757   45.6337 H   0  0  0  0  0  0  0  0  0  0  0  0
   60.5166   29.4035   46.4188 H   0  0  0  0  0  0  0  0  0  0  0  0
   59.2449   30.6495   46.6422 H   0  0  0  0  0  0  0  0  0  0  0  0
   57.6226   31.7018   47.2602 H   0  0  0  0  0  0  0  0  0  0  0  0
   58.4348   33.3113   45.5382 H   0  0  0  0  0  0  0  0  0  0  0  0
   59.9610   35.1742   46.1901 H   0  0  0  0  0  0  0  0  0  0  0  0
   60.7262   35.3968   48.5524 H   0  0  0  0  0  0  0  0  0  0  0  0
   63.3784   32.9267   51.2919 H   0  0  0  0  0  0  0  0  0  0  0  0
   62.0141   31.8345   50.8919 H   0  0  0  0  0  0  0  0  0  0  0  0
   62.4453   30.6821   48.5722 H   0  0  0  0  0  0  0  0  0  0  0  0
   63.4004   31.5619   46.1975 H   0  0  0  0  0  0  0  0  0  0  0  0
   64.1526   34.1017   46.5737 H   0  0  0  0  0  0  0  0  0  0  0  0
  1  2  2  0
  2  3  1  0
  3  4  1  0
  4  5  1  0
  5  6  1  0
  6  7  1  0
  7  8  1  0
  8  9  2  0
  8 10  1  0
 10 11  2  0
 11 12  1  0
 12 13  2  0
 13 14  1  0
 14 15  2  0
 15 16  1  0
  7 17  1  0
 17 18  1  0
  2 19  1  0
 19 20  1  0
 20 21  2  0
 21 22  1  0
 22 23  2  0
 23 24  1  0
 24 25  2  0
 25 26  1  0
 26 27  2  0
 26 28  1  0
 28 29  1  0
 29 30  1  0
 30 31  2  0
 31 32  1  0
 32 33  2  0
 33 34  1  0
 18  4  1  0
 25 20  1  0
 34 30  1  0
 15 10  1  0
  3 35  1  0
  3 36  1  0
  5 37  1  0
  5 38  1  0
  6 39  1  0
  6 40  1  0
 11 41  1  0
 12 42  1  0
 13 43  1  0
 14 44  1  0
 17 45  1  0
 17 46  1  0
 18 47  1  0
 18 48  1  0
 21 49  1  0
 22 50  1  0
 23 51  1  0
 24 52  1  0
 29 53  1  0
 29 54  1  0
 31 55  1  0
 32 56  1  0
 33 57  1  0
M  CHG  3  16  -1  19  -1  28  -1
M  END
>  <UniqueID>  (57) 
53

>  <SMILES>  (57) 
O=C(CN1CCN(C(=O)c2ccccc2[O-])CC1)[N-]c1ccccc1C(=O)[N-]Cc1ccco1

>  <Energy>  (57) 
105.08049062258898

>  <Genealogy>  (57) 
O=C(CN1CCN(C(=O)c2ccccc2[O-])CC1)[N-]c1ccccc1C(=O)[N-]Cc1ccco1 (protonated)
O=C(CN1CCN(C(=O)c2ccccc2[O-])CC1)[N-]c1ccccc1C(=O)[N-]Cc1ccco1 (3D coordinates assigned)
O=C(CN1CCN(C(=O)c2ccccc2[O-])CC1)[N-]c1ccccc1C(=O)[N-]Cc1ccco1 (nonaromatic ring conformer: 105.08049062258898 kcal/mol)

>  <smiles>  (57) 
O=C(CN1CCN(C(=O)c2ccccc2O)CC1)Nc1ccccc1C(=O)NCc1ccco1

>  <score_type>  (57) 
oracle

>  <origin>  (57) 
adg

>  <m_score__min__energy>  (57) 
-15.220000000000001

>  <m_primary>  (57) 
energy

$$$$
57:0
     RDKit          3D

 48 50  0  0  1  0  0  0  0  0999 V2000
   64.5810   33.2530   50.5790 C   0  0  0  0  0  0  0  0  0  0  0  0
   64.4760   33.0820   49.0900 C   0  0  0  0  0  0  0  0  0  0  0  0
   63.2150   33.6600   48.6560 N   0  0  0  0  0  0  0  0  0  0  0  0
   62.4630   33.0370   47.5930 C   0  0  0  0  0  0  0  0  0  0  0  0
   62.9140   31.9780   47.0430 O   0  0  0  0  0  0  0  0  0  0  0  0
   61.2360   33.5830   47.1490 N   0  0  0  0  0  0  0  0  0  0  0  0
   60.3130   32.9080   46.6050 C   0  0  0  0  0  0  0  0  0  0  0  0
   60.2390   31.5990   46.8140 N   0  0  0  0  0  0  0  0  0  0  0  0
   59.2740   30.7970   46.2660 C   0  0  0  0  0  0  0  0  0  0  0  0
   59.3200   29.3580   46.6100 C   0  0  0  0  0  0  0  0  0  0  0  0
   60.0900   29.2090   47.7300 O   0  0  0  0  0  0  0  0  0  0  0  0
   59.4740   29.2930   48.9410 C   0  0  0  0  0  0  0  0  0  0  0  0
   59.2310   30.6390   49.5100 C   0  0  0  0  0  0  0  0  0  0  0  0
   58.1740   30.4490   50.6100 C   0  0  0  0  0  0  0  0  0  0  0  0
   58.5710   29.4340   51.4740 O   0  0  0  0  0  0  0  0  0  0  0  0
   59.8970   29.0990   51.3460 C   0  0  0  0  0  0  0  0  0  0  0  0
   60.2970   28.5390   50.0210 C   0  0  0  0  0  0  0  0  0  0  0  0
   58.3130   31.3250   45.4530 C   0  0  0  0  0  0  0  0  0  0  0  0
   57.2510   30.6170   44.7880 C   0  0  0  0  0  0  0  0  0  0  0  0
   56.6000   30.7400   43.6010 C   0  0  0  0  0  0  0  0  0  0  0  0
   55.6230   29.7450   43.4570 C   0  0  0  0  0  0  0  0  0  0  0  0
   55.7190   29.0320   44.5930 N   0  0  0  0  0  0  0  0  0  0  0  0
   56.6570   29.5300   45.3670 N   0  0  0  0  0  0  0  0  0  0  0  0
   58.3910   32.7080   45.2330 C   0  0  0  0  0  0  0  0  0  0  0  0
   59.3740   33.4880   45.7990 C   0  0  0  0  0  0  0  0  0  0  0  0
   59.4000   35.2010   45.4730 Cl  0  0  0  0  0  0  0  0  0  0  0  0
   64.0688   32.4189   51.0809 H   0  0  0  0  0  0  0  0  0  0  0  0
   65.6409   33.2627   50.8731 H   0  0  0  0  0  0  0  0  0  0  0  0
   64.1102   34.2026   50.8731 H   0  0  0  0  0  0  0  0  0  0  0  0
   65.3122   33.5981   48.5957 H   0  0  0  0  0  0  0  0  0  0  0  0
   64.5168   32.0150   48.8255 H   0  0  0  0  0  0  0  0  0  0  0  0
   62.8100   34.5120   49.0730 H   0  0  0  0  0  0  0  0  0  0  0  0
   60.9720   31.1760   47.4380 H   0  0  0  0  0  0  0  0  0  0  0  0
   58.3023   28.9898   46.8066 H   0  0  0  0  0  0  0  0  0  0  0  0
   59.7483   28.7824   45.7762 H   0  0  0  0  0  0  0  0  0  0  0  0
   58.4897   28.8583   48.7127 H   0  0  0  0  0  0  0  0  0  0  0  0
   60.1589   31.0464   49.9377 H   0  0  0  0  0  0  0  0  0  0  0  0
   58.8889   31.3463   48.7401 H   0  0  0  0  0  0  0  0  0  0  0  0
   58.0619   31.3863   51.1747 H   0  0  0  0  0  0  0  0  0  0  0  0
   57.2133   30.1778   50.1479 H   0  0  0  0  0  0  0  0  0  0  0  0
   60.4936   30.0058   51.5240 H   0  0  0  0  0  0  0  0  0  0  0  0
   60.0763   28.2973   52.0775 H   0  0  0  0  0  0  0  0  0  0  0  0
   61.3728   28.6961   49.8539 H   0  0  0  0  0  0  0  0  0  0  0  0
   60.1027   27.4572   49.9777 H   0  0  0  0  0  0  0  0  0  0  0  0
   56.8118   31.5176   42.8523 H   0  0  0  0  0  0  0  0  0  0  0  0
   54.9376   29.5849   42.6117 H   0  0  0  0  0  0  0  0  0  0  0  0
   55.1490   28.1930   44.8740 H   0  0  0  0  0  0  0  0  0  0  0  0
   57.6408   33.1859   44.5858 H   0  0  0  0  0  0  0  0  0  0  0  0
  1  2  1  0
  2  3  1  0
  3  4  1  0
  4  5  2  0
  4  6  1  0
  6  7  2  0
  7  8  1  0
  8  9  1  0
  9 10  1  0
 10 11  1  0
 11 12  1  0
 12 13  1  0
 13 14  1  0
 14 15  1  0
 15 16  1  0
 16 17  1  0
  9 18  2  0
 18 19  1  0
 19 20  1  0
 20 21  2  0
 21 22  1  0
 22 23  1  0
 18 24  1  0
 24 25  2  0
 25 26  1  0
 25  7  1  0
 17 12  1  0
 23 19  2  0
  1 27  1  0
  1 28  1  0
  1 29  1  0
  2 30  1  0
  2 31  1  0
  3 32  1  0
  8 33  1  0
 10 34  1  0
 10 35  1  0
 12 36  1  0
 13 37  1  0
 13 38  1  0
 14 39  1  0
 14 40  1  0
 16 41  1  0
 16 42  1  0
 17 43  1  0
 17 44  1  0
 20 45  1  0
 21 46  1  0
 22 47  1  0
 24 48  1  0
M  END
>  <smiles>  (58) 
CCNC(=O)N=c1[nH]c(COC2CCOCC2)c(-c2cc[nH]n2)cc1Cl

>  <score_type>  (58) 
oracle

>  <origin>  (58) 
adg

>  <m_score__min__energy>  (58) 
-8.2100000000000009

>  <m_primary>  (58) 
energy

$$$$
58:0
     RDKit          3D

 48 51  0  0  0  0  0  0  0  0999 V2000
   59.1600   30.4470   47.1500 C   0  0  0  0  0  0  0  0  0  0  0  0
   57.8740   30.0010   46.7440 O   0  0  0  0  0  0  0  0  0  0  0  0
   57.5460   29.8370   45.3970 C   0  0  0  0  0  0  0  0  0  0  0  0
   57.6390   28.5560   44.8080 C   0  0  0  0  0  0  0  0  0  0  0  0
   58.0690   27.3520   45.6180 C   0  0  0  0  0  0  0  0  0  0  0  0
   56.9600   26.3370   45.7540 C   0  0  0  0  0  0  0  0  0  0  0  0
   55.6860   26.7970   45.8840 N   0  0  0  0  0  0  0  0  0  0  0  0
   54.6420   25.9770   45.9960 N   0  0  0  0  0  0  0  0  0  0  0  0
   54.7910   24.6290   45.9850 C   0  0  0  0  0  0  0  0  0  0  0  0
   53.7770   23.8930   46.1060 O   0  0  0  0  0  0  0  0  0  0  0  0
   56.0730   24.0790   45.8420 C   0  0  0  0  0  0  0  0  0  0  0  0
   57.1780   24.9390   45.7370 C   0  0  0  0  0  0  0  0  0  0  0  0
   58.5470   24.3010   45.6630 C   0  0  0  0  0  0  0  0  0  0  0  0
   58.5360   23.1540   44.6440 C   0  0  0  0  0  0  0  0  0  0  0  0
   57.3630   22.1580   44.8330 C   0  0  0  0  0  0  0  0  0  0  0  0
   56.3140   22.5880   45.8770 C   0  0  0  0  0  0  0  0  0  0  0  0
   57.3920   28.4150   43.4340 C   0  0  0  0  0  0  0  0  0  0  0  0
   57.0000   29.5130   42.6690 C   0  0  0  0  0  0  0  0  0  0  0  0
   56.8600   30.7670   43.2610 C   0  0  0  0  0  0  0  0  0  0  0  0
   57.1330   30.9460   44.6270 C   0  0  0  0  0  0  0  0  0  0  0  0
   56.9570   32.2290   45.2520 N   0  0  0  0  0  0  0  0  0  0  0  0
   57.9880   33.5890   44.9400 S   0  0  0  0  0  0  0  0  0  0  0  0
   57.1460   34.7870   44.6040 O   0  0  0  0  0  0  0  0  0  0  0  0
   58.8790   33.2820   43.7700 O   0  0  0  0  0  0  0  0  0  0  0  0
   58.9750   33.9240   46.3470 C   0  0  0  0  0  0  0  0  0  0  0  0
   60.2400   34.4520   46.3310 C   0  0  0  0  0  0  0  0  0  0  0  0
   60.6770   34.5590   47.5980 N   0  0  0  0  0  0  0  0  0  0  0  0
   59.6530   34.0870   48.3410 C   0  0  0  0  0  0  0  0  0  0  0  0
   58.5910   33.6860   47.6110 N   0  0  0  0  0  0  0  0  0  0  0  0
   59.2119   30.4650   48.2486 H   0  0  0  0  0  0  0  0  0  0  0  0
   59.9263   29.7621   46.7579 H   0  0  0  0  0  0  0  0  0  0  0  0
   59.3377   31.4593   46.7579 H   0  0  0  0  0  0  0  0  0  0  0  0
   58.9266   26.8765   45.1196 H   0  0  0  0  0  0  0  0  0  0  0  0
   58.3376   27.6992   46.6266 H   0  0  0  0  0  0  0  0  0  0  0  0
   59.2847   25.0561   45.3538 H   0  0  0  0  0  0  0  0  0  0  0  0
   58.8141   23.9025   46.6529 H   0  0  0  0  0  0  0  0  0  0  0  0
   58.4636   23.5872   43.6355 H   0  0  0  0  0  0  0  0  0  0  0  0
   59.4656   22.5851   44.7931 H   0  0  0  0  0  0  0  0  0  0  0  0
   56.8543   22.0402   43.8648 H   0  0  0  0  0  0  0  0  0  0  0  0
   57.8067   21.2230   45.2058 H   0  0  0  0  0  0  0  0  0  0  0  0
   55.3675   22.0684   45.6669 H   0  0  0  0  0  0  0  0  0  0  0  0
   56.6939   22.3243   46.8751 H   0  0  0  0  0  0  0  0  0  0  0  0
   57.5085   27.4308   42.9567 H   0  0  0  0  0  0  0  0  0  0  0  0
   56.8005   29.3890   41.5944 H   0  0  0  0  0  0  0  0  0  0  0  0
   56.5330   31.6236   42.6533 H   0  0  0  0  0  0  0  0  0  0  0  0
   56.2340   32.3450   45.9950 H   0  0  0  0  0  0  0  0  0  0  0  0
   60.8037   34.7401   45.4314 H   0  0  0  0  0  0  0  0  0  0  0  0
   59.6817   34.0342   49.4394 H   0  0  0  0  0  0  0  0  0  0  0  0
  1  2  1  0
  2  3  1  0
  3  4  2  0
  4  5  1  0
  5  6  1  0
  6  7  2  0
  7  8  1  0
  8  9  1  0
  9 10  2  0
  9 11  1  0
 11 12  2  0
 12 13  1  0
 13 14  1  0
 14 15  1  0
 15 16  1  0
  4 17  1  0
 17 18  2  0
 18 19  1  0
 19 20  2  0
 20 21  1  0
 21 22  1  0
 22 23  2  0
 22 24  2  0
 22 25  1  0
 25 26  2  0
 26 27  1  0
 27 28  1  0
 28 29  2  0
 20  3  1  0
 29 25  1  0
 12  6  1  0
 16 11  1  0
  1 30  1  0
  1 31  1  0
  1 32  1  0
  5 33  1  0
  5 34  1  0
 13 35  1  0
 13 36  1  0
 14 37  1  0
 14 38  1  0
 15 39  1  0
 15 40  1  0
 16 41  1  0
 16 42  1  0
 17 43  1  0
 18 44  1  0
 19 45  1  0
 21 46  1  0
 26 47  1  0
 28 48  1  0
M  CHG  2   8  -1  27  -1
M  END
>  <UniqueID>  (59) 
54

>  <SMILES>  (59) 
COc1c(Cc2n[n-]c(=O)c3c2CCCC3)cccc1NS(=O)(=O)c1c[n-]cn1

>  <Energy>  (59) 
96.62210377972167

>  <Genealogy>  (59) 
COc1c(Cc2n[n-]c(=O)c3c2CCCC3)cccc1NS(=O)(=O)c1c[n-]cn1 (protonated)
COc1c(Cc2n[n-]c(=O)c3c2CCCC3)cccc1NS(=O)(=O)c1c[n-]cn1 (3D coordinates assigned)
COc1c(Cc2n[n-]c(=O)c3c2CCCC3)cccc1NS(=O)(=O)c1c[n-]cn1 (nonaromatic ring conformer: 96.62210377972167 kcal/mol)

>  <smiles>  (59) 
COc1c(Cc2n[nH]c(=O)c3c2CCCC3)cccc1NS(=O)(=O)c1c[nH]cn1

>  <score_type>  (59) 
oracle

>  <origin>  (59) 
adg

>  <m_score__min__energy>  (59) 
-12.289999999999999

>  <m_primary>  (59) 
energy

$$$$
59:0
     RDKit          3D

 42 45  0  0  0  0  0  0  0  0999 V2000
   59.2360   29.1600   48.4790 C   0  0  0  0  0  0  0  0  0  0  0  0
   58.7280   30.0830   47.6480 C   0  0  0  0  0  0  0  0  0  0  0  0
   58.3910   29.9280   46.2920 C   0  0  0  0  0  0  0  0  0  0  0  0
   58.3510   28.8320   45.5090 C   0  0  0  0  0  0  0  0  0  0  0  0
   57.6400   27.5800   45.8240 C   0  0  0  0  0  0  0  0  0  0  0  0
   56.2450   27.5070   45.7020 C   0  0  0  0  0  0  0  0  0  0  0  0
   55.5190   28.5970   45.2340 O   0  0  0  0  0  0  0  0  0  0  0  0
   55.5940   26.3630   46.0330 N   0  0  0  0  0  0  0  0  0  0  0  0
   56.2690   25.2820   46.4990 C   0  0  0  0  0  0  0  0  0  0  0  0
   55.4590   23.9190   46.8870 S   0  0  0  0  0  0  0  0  0  0  0  0
   57.6170   25.3350   46.6530 N   0  0  0  0  0  0  0  0  0  0  0  0
   58.3140   26.4570   46.3370 C   0  0  0  0  0  0  0  0  0  0  0  0
   59.5620   26.4790   46.5110 O   0  0  0  0  0  0  0  0  0  0  0  0
   58.0370   31.1870   45.8340 C   0  0  0  0  0  0  0  0  0  0  0  0
   58.1280   32.0460   46.9100 C   0  0  0  0  0  0  0  0  0  0  0  0
   57.7630   33.4990   46.8760 C   0  0  0  0  0  0  0  0  0  0  0  0
   58.5290   31.3750   48.0110 N   0  0  0  0  0  0  0  0  0  0  0  0
   58.7310   31.9530   49.3130 C   0  0  0  0  0  0  0  0  0  0  0  0
   57.7730   31.7370   50.3130 C   0  0  0  0  0  0  0  0  0  0  0  0
   57.9630   32.2520   51.5960 C   0  0  0  0  0  0  0  0  0  0  0  0
   59.1130   32.9870   51.8900 C   0  0  0  0  0  0  0  0  0  0  0  0
   60.0750   33.2100   50.9020 C   0  0  0  0  0  0  0  0  0  0  0  0
   59.8990   32.6940   49.6050 C   0  0  0  0  0  0  0  0  0  0  0  0
   60.9100   32.9700   48.5550 C   0  0  0  0  0  0  0  0  0  0  0  0
   60.6690   33.9390   47.6330 N   0  0  0  0  0  0  0  0  0  0  0  0
   61.5470   34.2180   46.6690 N   0  0  0  0  0  0  0  0  0  0  0  0
   62.7160   33.5350   46.5780 C   0  0  0  0  0  0  0  0  0  0  0  0
   63.5370   33.8080   45.6650 O   0  0  0  0  0  0  0  0  0  0  0  0
   62.9930   32.5560   47.4740 N   0  0  0  0  0  0  0  0  0  0  0  0
   62.1160   32.2530   48.4630 C   0  0  0  0  0  0  0  0  0  0  0  0
   62.3840   31.3220   49.2670 O   0  0  0  0  0  0  0  0  0  0  0  0
   59.4538   29.4219   49.5249 H   0  0  0  0  0  0  0  0  0  0  0  0
   59.4347   28.1414   48.1143 H   0  0  0  0  0  0  0  0  0  0  0  0
   58.8950   28.8754   44.5539 H   0  0  0  0  0  0  0  0  0  0  0  0
   57.7401   31.4512   44.8083 H   0  0  0  0  0  0  0  0  0  0  0  0
   57.6680   33.8773   47.9045 H   0  0  0  0  0  0  0  0  0  0  0  0
   58.5476   34.0619   46.3493 H   0  0  0  0  0  0  0  0  0  0  0  0
   56.8055   33.6243   46.3493 H   0  0  0  0  0  0  0  0  0  0  0  0
   56.8659   31.1580   50.0851 H   0  0  0  0  0  0  0  0  0  0  0  0
   57.2067   32.0788   52.3757 H   0  0  0  0  0  0  0  0  0  0  0  0
   59.2619   33.3915   52.9020 H   0  0  0  0  0  0  0  0  0  0  0  0
   60.9768   33.7933   51.1398 H   0  0  0  0  0  0  0  0  0  0  0  0
  1  2  2  0
  2  3  1  0
  3  4  2  3
  4  5  1  0
  5  6  2  0
  6  7  1  0
  6  8  1  0
  8  9  1  0
  9 10  2  0
  9 11  1  0
 11 12  1  0
 12 13  2  0
  3 14  1  0
 14 15  2  0
 15 16  1  0
 15 17  1  0
 17 18  1  0
 18 19  2  0
 19 20  1  0
 20 21  2  0
 21 22  1  0
 22 23  2  0
 23 24  1  0
 24 25  2  0
 25 26  1  0
 26 27  1  0
 27 28  2  0
 27 29  1  0
 29 30  1  0
 30 31  2  0
 17  2  1  0
 23 18  1  0
 30 24  1  0
 12  5  1  0
  1 32  1  0
  1 33  1  0
  4 34  1  0
 14 35  1  0
 16 36  1  0
 16 37  1  0
 16 38  1  0
 19 39  1  0
 20 40  1  0
 21 41  1  0
 22 42  1  0
M  CHG  5   7  -1   8  -1  11  -1  26  -1  29  -1
M  END
>  <UniqueID>  (60) 
55

>  <SMILES>  (60) 
C=c1c(=Cc2c([O-])[n-]c(=S)[n-]c2=O)cc(C)n1-c1ccccc1-c1n[n-]c(=O)[n-]c1=O

>  <Energy>  (60) 
103.58036929093375

>  <Genealogy>  (60) 
C=c1c(=Cc2c([O-])[n-]c(=S)[n-]c2=O)cc(C)n1-c1ccccc1-c1n[n-]c(=O)[n-]c1=O (protonated)
C=c1c(=Cc2c([O-])[n-]c(=S)[n-]c2=O)cc(C)n1-c1ccccc1-c1n[n-]c(=O)[n-]c1=O (3D coordinates assigned)
C=c1c(=Cc2c([O-])[n-]c(=S)[n-]c2=O)cc(C)n1-c1ccccc1-c1n[n-]c(=O)[n-]c1=O (optimized conformer: 103.58036929093375 kcal/mol)

>  <smiles>  (60) 
C=c1c(=Cc2c(O)[nH]c(=S)[nH]c2=O)cc(C)n1-c1ccccc1-c1n[nH]c(=O)[nH]c1=O

>  <score_type>  (60) 
oracle

>  <origin>  (60) 
adg

>  <m_score__min__energy>  (60) 
-17.260000000000002

>  <m_primary>  (60) 
energy

$$$$
60:0
     RDKit          3D

 57 61  0  0  0  0  0  0  0  0999 V2000
   57.4990   29.7000   42.2320 H   0  0  0  0  0  0  0  0  0  0  0  0
   57.1020   29.5620   43.1510 O   0  0  0  0  0  0  0  0  0  0  0  0
   57.8750   29.3530   44.2950 C   0  0  0  0  0  0  0  0  0  0  0  0
   58.0720   30.3020   45.2620 C   0  0  0  0  0  0  0  0  0  0  0  0
   57.3860   31.6080   45.2630 C   0  0  0  0  0  0  0  0  0  0  0  0
   56.7177   31.8697   46.0966 H   0  0  0  0  0  0  0  0  0  0  0  0
   57.5610   32.4520   44.2930 N   0  0  0  0  0  0  0  0  0  0  0  0
   57.6900   33.8900   44.5060 C   0  0  0  0  0  0  0  0  0  0  0  0
   57.9645   34.3734   43.5568 H   0  0  0  0  0  0  0  0  0  0  0  0
   56.7287   34.2837   44.8679 H   0  0  0  0  0  0  0  0  0  0  0  0
   58.7460   34.1760   45.5280 C   0  0  0  0  0  0  0  0  0  0  0  0
   60.0340   34.0600   45.3060 O   0  0  0  0  0  0  0  0  0  0  0  0
   60.6770   34.3600   46.4110 C   0  0  0  0  0  0  0  0  0  0  0  0
   61.7706   34.3548   46.5293 H   0  0  0  0  0  0  0  0  0  0  0  0
   59.7710   34.6830   47.4020 C   0  0  0  0  0  0  0  0  0  0  0  0
   60.0000   34.9767   48.4370 H   0  0  0  0  0  0  0  0  0  0  0  0
   58.5220   34.5630   46.8320 C   0  0  0  0  0  0  0  0  0  0  0  0
   57.5501   34.7391   47.3161 H   0  0  0  0  0  0  0  0  0  0  0  0
   58.9260   29.7400   46.2230 C   0  0  0  0  0  0  0  0  0  0  0  0
   59.5530   30.4690   47.2530 C   0  0  0  0  0  0  0  0  0  0  0  0
   59.5250   31.7270   47.1340 O   0  0  0  0  0  0  0  0  0  0  0  0
   60.1630   29.9380   48.3700 N   0  0  0  0  0  0  0  0  0  0  0  0
   60.6150   30.9200   49.3990 C   0  0  0  0  0  0  0  0  0  0  0  0
   59.7588   31.5386   49.7060 H   0  0  0  0  0  0  0  0  0  0  0  0
   61.0184   30.3649   50.2587 H   0  0  0  0  0  0  0  0  0  0  0  0
   61.7030   31.8180   48.8530 C   0  0  0  0  0  0  0  0  0  0  0  0
   62.4710   31.4050   47.7490 C   0  0  0  0  0  0  0  0  0  0  0  0
   62.2698   30.4323   47.2764 H   0  0  0  0  0  0  0  0  0  0  0  0
   63.4880   32.2230   47.2490 C   0  0  0  0  0  0  0  0  0  0  0  0
   64.0859   31.8905   46.3876 H   0  0  0  0  0  0  0  0  0  0  0  0
   63.7470   33.4610   47.8400 C   0  0  0  0  0  0  0  0  0  0  0  0
   64.5513   34.1006   47.4477 H   0  0  0  0  0  0  0  0  0  0  0  0
   62.9840   33.8870   48.9300 C   0  0  0  0  0  0  0  0  0  0  0  0
   63.1849   34.8653   49.3911 H   0  0  0  0  0  0  0  0  0  0  0  0
   61.9650   33.0730   49.4370 C   0  0  0  0  0  0  0  0  0  0  0  0
   61.2310   33.5180   50.4870 F   0  0  0  0  0  0  0  0  0  0  0  0
   60.3810   28.6030   48.6400 C   0  0  0  0  0  0  0  0  0  0  0  0
   60.7150   28.2560   49.8060 O   0  0  0  0  0  0  0  0  0  0  0  0
   60.3700   27.6120   47.7210 N   0  0  0  0  0  0  0  0  0  0  0  0
   59.9590   27.4880   46.4450 C   0  0  0  0  0  0  0  0  0  0  0  0
   60.2600   26.4160   45.8610 O   0  0  0  0  0  0  0  0  0  0  0  0
   59.1670   28.4360   45.7920 C   0  0  0  0  0  0  0  0  0  0  0  0
   58.5200   28.2090   44.6060 N   0  0  0  0  0  0  0  0  0  0  0  0
   58.4470   26.9610   43.8240 C   0  0  0  0  0  0  0  0  0  0  0  0
   58.0668   27.1918   42.8179 H   0  0  0  0  0  0  0  0  0  0  0  0
   59.4567   26.5276   43.7723 H   0  0  0  0  0  0  0  0  0  0  0  0
   57.5320   25.9510   44.4740 C   0  0  0  0  0  0  0  0  0  0  0  0
   56.9210   26.2230   45.7120 C   0  0  0  0  0  0  0  0  0  0  0  0
   57.0839   27.1947   46.2012 H   0  0  0  0  0  0  0  0  0  0  0  0
   56.1080   25.2640   46.3230 C   0  0  0  0  0  0  0  0  0  0  0  0
   55.6208   25.4889   47.2832 H   0  0  0  0  0  0  0  0  0  0  0  0
   55.9130   24.0210   45.7170 C   0  0  0  0  0  0  0  0  0  0  0  0
   55.2745   23.2670   46.2006 H   0  0  0  0  0  0  0  0  0  0  0  0
   56.5290   23.7360   44.4970 C   0  0  0  0  0  0  0  0  0  0  0  0
   56.3734   22.7575   44.0193 H   0  0  0  0  0  0  0  0  0  0  0  0
   57.3430   24.6910   43.8810 C   0  0  0  0  0  0  0  0  0  0  0  0
   57.8380   24.4551   42.9274 H   0  0  0  0  0  0  0  0  0  0  0  0
  1  2  1  0
  2  3  1  0
  3  4  2  0
  4  5  1  0
  5  6  1  0
  5  7  2  0
  7  8  1  0
  8  9  1  0
  8 10  1  0
  8 11  1  0
 11 12  1  0
 12 13  1  0
 13 14  1  0
 13 15  2  0
 15 16  1  0
 15 17  1  0
 17 18  1  0
  4 19  1  0
 19 20  1  0
 20 21  2  0
 20 22  1  0
 22 23  1  0
 23 24  1  0
 23 25  1  0
 23 26  1  0
 26 27  2  0
 27 28  1  0
 27 29  1  0
 29 30  1  0
 29 31  2  0
 31 32  1  0
 31 33  1  0
 33 34  1  0
 33 35  2  0
 35 36  1  0
 22 37  1  0
 37 38  2  0
 37 39  1  0
 39 40  1  0
 40 41  2  0
 40 42  1  0
 42 43  1  0
 43 44  1  0
 44 45  1  0
 44 46  1  0
 44 47  1  0
 47 48  2  0
 48 49  1  0
 48 50  1  0
 50 51  1  0
 50 52  2  0
 52 53  1  0
 52 54  1  0
 54 55  1  0
 54 56  2  0
 56 57  1  0
 43  3  1  0
 56 47  1  0
 17 11  2  0
 42 19  2  0
 35 26  1  0
M  CHG  1  39  -1
M  END
>  <UniqueID>  (61) 
56

>  <SMILES>  (61) 
O=c1[n-]c(=O)n(Cc2ccccc2F)c(=O)c2c(/C=N/Cc3ccco3)c(O)n(Cc3ccccc3)c12

>  <Energy>  (61) 
160.4053473867492

>  <Genealogy>  (61) 
O=c1[n-]c(=O)n(Cc2ccccc2F)c(=O)c2c(C=NCc3ccco3)c(O)n(Cc3ccccc3)c12 (protonated)
O=c1[n-]c(=O)n(Cc2ccccc2F)c(=O)c2c(/C=N/Cc3ccco3)c(O)n(Cc3ccccc3)c12 (cis-trans isomerization)
O=c1[n-]c(=O)n(Cc2ccccc2F)c(=O)c2c(/C=N/Cc3ccco3)c(O)n(Cc3ccccc3)c12 (3D coordinates assigned)
O=c1[n-]c(=O)n(Cc2ccccc2F)c(=O)c2c(/C=N/Cc3ccco3)c(O)n(Cc3ccccc3)c12 (optimized conformer: 160.4053473867492 kcal/mol)

>  <smiles>  (61) 
O=c1[nH]c(=O)n(Cc2ccccc2F)c(=O)c2c(C=NCc3ccco3)c(O)n(Cc3ccccc3)c12

>  <score_type>  (61) 
oracle

>  <origin>  (61) 
adg

>  <m_score__min__energy>  (61) 
-10.08

>  <m_primary>  (61) 
energy

$$$$
61:0
     RDKit          3D

 43 45  0  0  0  0  0  0  0  0999 V2000
   57.5420   20.3440   45.8400 C   0  0  0  0  0  0  0  0  0  0  0  0
   57.2030   21.7990   45.9560 C   0  0  0  0  0  0  0  0  0  0  0  0
   57.2740   22.3990   47.1730 N   0  0  0  0  0  0  0  0  0  0  0  0
   56.9830   23.7140   47.3600 C   0  0  0  0  0  0  0  0  0  0  0  0
   57.0740   24.1980   48.5190 O   0  0  0  0  0  0  0  0  0  0  0  0
   56.5880   24.5150   46.2640 C   0  0  0  0  0  0  0  0  0  0  0  0
   56.2630   25.9590   46.4120 C   0  0  0  0  0  0  0  0  0  0  0  0
   55.1510   26.4040   46.0140 O   0  0  0  0  0  0  0  0  0  0  0  0
   57.2370   26.8590   46.9580 N   0  0  0  0  0  0  0  0  0  0  0  0
   58.0310   27.8080   46.2320 C   0  0  0  0  0  0  0  0  0  0  0  0
   59.3860   27.5760   45.9310 C   0  0  0  0  0  0  0  0  0  0  0  0
   60.1140   28.5160   45.1980 C   0  0  0  0  0  0  0  0  0  0  0  0
   59.4980   29.6860   44.7470 C   0  0  0  0  0  0  0  0  0  0  0  0
   58.1430   29.9160   45.0170 C   0  0  0  0  0  0  0  0  0  0  0  0
   57.3570   31.3820   44.4240 S   0  0  0  0  0  0  0  0  0  0  0  0
   55.8650   31.2040   44.5000 O   0  0  0  0  0  0  0  0  0  0  0  0
   57.7260   31.5920   42.9830 O   0  0  0  0  0  0  0  0  0  0  0  0
   57.8170   32.7880   45.3510 N   0  0  0  0  0  0  0  0  0  0  0  0
   58.6850   33.6710   44.5540 C   0  0  0  0  0  0  0  0  0  0  0  0
   59.2680   34.7980   45.4310 C   0  0  0  0  0  0  0  0  0  0  0  0
   58.6360   34.8420   46.6950 O   0  0  0  0  0  0  0  0  0  0  0  0
   58.8920   33.6410   47.4020 C   0  0  0  0  0  0  0  0  0  0  0  0
   58.5030   32.3890   46.5890 C   0  0  0  0  0  0  0  0  0  0  0  0
   57.4140   28.9720   45.7550 C   0  0  0  0  0  0  0  0  0  0  0  0
   56.5130   23.9060   44.9990 C   0  0  0  0  0  0  0  0  0  0  0  0
   56.8170   22.5530   44.8350 C   0  0  0  0  0  0  0  0  0  0  0  0
   56.6940   21.7800   43.0850 Br  0  0  0  0  0  0  0  0  0  0  0  0
   57.6432   19.9098   46.8456 H   0  0  0  0  0  0  0  0  0  0  0  0
   56.7411   19.8233   45.2946 H   0  0  0  0  0  0  0  0  0  0  0  0
   58.4906   20.2309   45.2946 H   0  0  0  0  0  0  0  0  0  0  0  0
   59.8733   26.6514   46.2741 H   0  0  0  0  0  0  0  0  0  0  0  0
   61.1758   28.3345   44.9751 H   0  0  0  0  0  0  0  0  0  0  0  0
   60.0782   30.4280   44.1788 H   0  0  0  0  0  0  0  0  0  0  0  0
   59.5101   33.0797   44.1302 H   0  0  0  0  0  0  0  0  0  0  0  0
   58.0866   34.1227   43.7490 H   0  0  0  0  0  0  0  0  0  0  0  0
   60.3442   34.6209   45.5741 H   0  0  0  0  0  0  0  0  0  0  0  0
   59.0968   35.7584   44.9227 H   0  0  0  0  0  0  0  0  0  0  0  0
   59.9654   33.5908   47.6370 H   0  0  0  0  0  0  0  0  0  0  0  0
   58.2807   33.6519   48.3164 H   0  0  0  0  0  0  0  0  0  0  0  0
   59.4110   31.8220   46.3361 H   0  0  0  0  0  0  0  0  0  0  0  0
   57.8281   31.7624   47.1906 H   0  0  0  0  0  0  0  0  0  0  0  0
   56.3478   29.1472   45.9613 H   0  0  0  0  0  0  0  0  0  0  0  0
   56.2107   24.5036   44.1264 H   0  0  0  0  0  0  0  0  0  0  0  0
  1  2  1  0
  2  3  1  0
  3  4  1  0
  4  5  2  0
  4  6  1  0
  6  7  1  0
  7  8  2  0
  7  9  1  0
  9 10  1  0
 10 11  2  0
 11 12  1  0
 12 13  2  0
 13 14  1  0
 14 15  1  0
 15 16  2  0
 15 17  2  0
 15 18  1  0
 18 19  1  0
 19 20  1  0
 20 21  1  0
 21 22  1  0
 22 23  1  0
 14 24  2  0
  6 25  2  0
 25 26  1  0
 26 27  1  0
 26  2  2  0
 24 10  1  0
 23 18  1  0
  1 28  1  0
  1 29  1  0
  1 30  1  0
 11 31  1  0
 12 32  1  0
 13 33  1  0
 19 34  1  0
 19 35  1  0
 20 36  1  0
 20 37  1  0
 22 38  1  0
 22 39  1  0
 23 40  1  0
 23 41  1  0
 24 42  1  0
 25 43  1  0
M  CHG  2   3  -1   9  -1
M  END
>  <UniqueID>  (62) 
57

>  <SMILES>  (62) 
Cc1[n-]c(=O)c(C(=O)[N-]c2cccc(S(=O)(=O)N3CCOCC3)c2)cc1Br

>  <Energy>  (62) 
58.19304199217673

>  <Genealogy>  (62) 
Cc1[n-]c(=O)c(C(=O)[N-]c2cccc(S(=O)(=O)N3CCOCC3)c2)cc1Br (protonated)
Cc1[n-]c(=O)c(C(=O)[N-]c2cccc(S(=O)(=O)N3CCOCC3)c2)cc1Br (3D coordinates assigned)
Cc1[n-]c(=O)c(C(=O)[N-]c2cccc(S(=O)(=O)N3CCOCC3)c2)cc1Br (nonaromatic ring conformer: 58.19304199217673 kcal/mol)

>  <smiles>  (62) 
Cc1[nH]c(=O)c(C(=O)Nc2cccc(S(=O)(=O)N3CCOCC3)c2)cc1Br

>  <score_type>  (62) 
oracle

>  <origin>  (62) 
adg

>  <m_score__min__energy>  (62) 
-13.130000000000001

>  <m_primary>  (62) 
energy

$$$$
62:0
     RDKit          3D

 44 46  0  0  0  0  0  0  0  0999 V2000
   58.5730   29.2150   48.8420 O   0  0  0  0  0  0  0  0  0  0  0  0
   59.6670   29.0770   48.2330 C   0  0  0  0  0  0  0  0  0  0  0  0
   59.8960   27.8590   47.3910 C   0  0  0  0  0  0  0  0  0  0  0  0
   58.7610   27.6340   46.4860 N   0  0  0  0  0  0  0  0  0  0  0  0
   57.4970   27.1010   47.0190 C   0  0  0  0  0  0  0  0  0  0  0  0
   57.0730   25.8630   46.2720 C   0  0  0  0  0  0  0  0  0  0  0  0
   58.0170   24.8500   46.0250 C   0  0  0  0  0  0  0  0  0  0  0  0
   57.6580   23.7070   45.3060 C   0  0  0  0  0  0  0  0  0  0  0  0
   56.3530   23.5620   44.8300 C   0  0  0  0  0  0  0  0  0  0  0  0
   55.4040   24.5580   45.0740 C   0  0  0  0  0  0  0  0  0  0  0  0
   55.7560   25.7060   45.7920 C   0  0  0  0  0  0  0  0  0  0  0  0
   54.7960   26.6870   46.0110 O   0  0  0  0  0  0  0  0  0  0  0  0
   58.7610   28.2740   45.1970 C   0  0  0  0  0  0  0  0  0  0  0  0
   59.2680   27.6750   44.2100 O   0  0  0  0  0  0  0  0  0  0  0  0
   58.1760   29.6170   45.0070 C   0  0  0  0  0  0  0  0  0  0  0  0
   58.9470   30.7740   45.1930 C   0  0  0  0  0  0  0  0  0  0  0  0
   58.3750   32.0350   45.0150 C   0  0  0  0  0  0  0  0  0  0  0  0
   57.0270   32.1300   44.6670 C   0  0  0  0  0  0  0  0  0  0  0  0
   56.2840   31.0030   44.5090 N   0  0  0  0  0  0  0  0  0  0  0  0
   56.8200   29.7640   44.6750 C   0  0  0  0  0  0  0  0  0  0  0  0
   60.6380   30.1320   48.2210 N   0  0  0  0  0  0  0  0  0  0  0  0
   60.4930   31.3960   47.9290 C   0  0  0  0  0  0  0  0  0  0  0  0
   61.4430   31.9690   47.1390 N   0  0  0  0  0  0  0  0  0  0  0  0
   61.3960   33.2720   46.7570 C   0  0  0  0  0  0  0  0  0  0  0  0
   60.3470   34.0830   47.1790 C   0  0  0  0  0  0  0  0  0  0  0  0
   59.3670   33.5490   48.0110 C   0  0  0  0  0  0  0  0  0  0  0  0
   59.4330   32.2070   48.4150 C   0  0  0  0  0  0  0  0  0  0  0  0
   58.4870   31.7280   49.3180 O   0  0  0  0  0  0  0  0  0  0  0  0
   60.8106   27.9979   46.7959 H   0  0  0  0  0  0  0  0  0  0  0  0
   60.0004   26.9860   48.0520 H   0  0  0  0  0  0  0  0  0  0  0  0
   57.6322   26.8509   48.0816 H   0  0  0  0  0  0  0  0  0  0  0  0
   56.7164   27.8666   46.8985 H   0  0  0  0  0  0  0  0  0  0  0  0
   59.0452   24.9584   46.4005 H   0  0  0  0  0  0  0  0  0  0  0  0
   58.4035   22.9211   45.1148 H   0  0  0  0  0  0  0  0  0  0  0  0
   56.0720   22.6626   44.2624 H   0  0  0  0  0  0  0  0  0  0  0  0
   54.3763   24.4391   44.7002 H   0  0  0  0  0  0  0  0  0  0  0  0
   60.0054   30.6875   45.4799 H   0  0  0  0  0  0  0  0  0  0  0  0
   58.9803   32.9438   45.1476 H   0  0  0  0  0  0  0  0  0  0  0  0
   56.5654   33.1177   44.5205 H   0  0  0  0  0  0  0  0  0  0  0  0
   56.1878   28.8728   44.5485 H   0  0  0  0  0  0  0  0  0  0  0  0
   62.1870   33.6857   46.1143 H   0  0  0  0  0  0  0  0  0  0  0  0
   60.2928   35.1340   46.8588 H   0  0  0  0  0  0  0  0  0  0  0  0
   58.5359   34.1829   48.3537 H   0  0  0  0  0  0  0  0  0  0  0  0
   58.4450   30.7500   49.5790 H   0  0  0  0  0  0  0  0  0  0  0  0
  1  2  2  0
  2  3  1  0
  3  4  1  0
  4  5  1  0
  5  6  1  0
  6  7  2  0
  7  8  1  0
  8  9  2  0
  9 10  1  0
 10 11  2  0
 11 12  1  0
  4 13  1  0
 13 14  2  0
 13 15  1  0
 15 16  2  0
 16 17  1  0
 17 18  2  0
 18 19  1  0
 19 20  2  0
  2 21  1  0
 21 22  2  3
 22 23  1  0
 23 24  1  0
 24 25  2  0
 25 26  1  0
 26 27  2  0
 27 28  1  0
 11  6  1  0
 20 15  1  0
 27 22  1  0
  3 29  1  0
  3 30  1  0
  5 31  1  0
  5 32  1  0
  7 33  1  0
  8 34  1  0
  9 35  1  0
 10 36  1  0
 16 37  1  0
 17 38  1  0
 18 39  1  0
 20 40  1  0
 24 41  1  0
 25 42  1  0
 26 43  1  0
 28 44  1  0
M  CHG  2  12  -1  23  -1
M  END
>  <UniqueID>  (63) 
58

>  <SMILES>  (63) 
O=C(CN(Cc1ccccc1[O-])C(=O)c1cccnc1)N=c1[n-]cccc1O

>  <Energy>  (63) 
61.596204475816634

>  <Genealogy>  (63) 
O=C(CN(Cc1ccccc1[O-])C(=O)c1cccnc1)N=c1[n-]cccc1O (protonated)
O=C(CN(Cc1ccccc1[O-])C(=O)c1cccnc1)N=c1[n-]cccc1O (3D coordinates assigned)
O=C(CN(Cc1ccccc1[O-])C(=O)c1cccnc1)N=c1[n-]cccc1O (optimized conformer: 61.596204475816634 kcal/mol)

>  <smiles>  (63) 
O=C(CN(Cc1ccccc1O)C(=O)c1cccnc1)N=c1[nH]cccc1O

>  <score_type>  (63) 
oracle

>  <origin>  (63) 
adg

>  <m_score__min__energy>  (63) 
-12.960000000000001

>  <m_primary>  (63) 
energy

$$$$
63:0
     RDKit          3D

 49 52  0  0  0  0  0  0  0  0999 V2000
   60.2980   33.4770   53.2510 C   0  0  0  0  0  0  0  0  0  0  0  0
   59.6090   33.8260   51.9630 C   0  0  0  0  0  0  0  0  0  0  0  0
   58.3850   34.1250   51.9840 O   0  0  0  0  0  0  0  0  0  0  0  0
   60.2950   33.7900   50.7030 N   0  0  0  0  0  0  0  0  0  0  0  0
   59.6920   33.6310   49.4110 C   0  0  0  0  0  0  0  0  0  0  0  0
   58.9040   32.5090   49.0980 C   0  0  0  0  0  0  0  0  0  0  0  0
   58.3360   32.3780   47.8260 C   0  0  0  0  0  0  0  0  0  0  0  0
   58.5610   33.3600   46.8500 C   0  0  0  0  0  0  0  0  0  0  0  0
   57.7650   33.2720   45.2780 S   0  0  0  0  0  0  0  0  0  0  0  0
   57.9580   34.5480   44.5050 O   0  0  0  0  0  0  0  0  0  0  0  0
   56.2970   33.0340   45.4850 O   0  0  0  0  0  0  0  0  0  0  0  0
   58.4460   31.9500   44.3860 N   0  0  0  0  0  0  0  0  0  0  0  0
   58.3960   30.5970   44.8540 C   0  0  0  0  0  0  0  0  0  0  0  0
   57.2200   29.8600   44.6710 C   0  0  0  0  0  0  0  0  0  0  0  0
   57.0870   28.5930   45.2460 C   0  0  0  0  0  0  0  0  0  0  0  0
   58.1310   28.0480   46.0130 C   0  0  0  0  0  0  0  0  0  0  0  0
   57.9480   26.7180   46.7030 C   0  0  0  0  0  0  0  0  0  0  0  0
   56.7510   25.9640   46.1670 C   0  0  0  0  0  0  0  0  0  0  0  0
   55.5170   26.5120   46.3670 N   0  0  0  0  0  0  0  0  0  0  0  0
   54.4010   25.9330   45.9250 N   0  0  0  0  0  0  0  0  0  0  0  0
   54.4300   24.7620   45.2400 C   0  0  0  0  0  0  0  0  0  0  0  0
   53.3430   24.2530   44.8490 O   0  0  0  0  0  0  0  0  0  0  0  0
   55.6630   24.1360   44.9790 C   0  0  0  0  0  0  0  0  0  0  0  0
   55.7380   22.9310   44.2490 C   0  0  0  0  0  0  0  0  0  0  0  0
   56.9730   22.3300   44.0000 C   0  0  0  0  0  0  0  0  0  0  0  0
   58.1460   22.9080   44.4860 C   0  0  0  0  0  0  0  0  0  0  0  0
   58.0920   24.0960   45.2190 C   0  0  0  0  0  0  0  0  0  0  0  0
   56.8540   24.7370   45.4620 C   0  0  0  0  0  0  0  0  0  0  0  0
   59.3420   28.7540   46.1210 C   0  0  0  0  0  0  0  0  0  0  0  0
   59.4700   30.0230   45.5520 C   0  0  0  0  0  0  0  0  0  0  0  0
   59.3770   34.4620   47.1520 C   0  0  0  0  0  0  0  0  0  0  0  0
   59.9460   34.5900   48.4230 C   0  0  0  0  0  0  0  0  0  0  0  0
   59.6728   33.7937   54.0988 H   0  0  0  0  0  0  0  0  0  0  0  0
   60.4571   32.3896   53.2988 H   0  0  0  0  0  0  0  0  0  0  0  0
   61.2688   33.9921   53.2988 H   0  0  0  0  0  0  0  0  0  0  0  0
   58.7334   31.7309   49.8566 H   0  0  0  0  0  0  0  0  0  0  0  0
   57.7118   31.5033   47.5909 H   0  0  0  0  0  0  0  0  0  0  0  0
   56.3978   30.2794   44.0726 H   0  0  0  0  0  0  0  0  0  0  0  0
   56.1603   28.0194   45.0974 H   0  0  0  0  0  0  0  0  0  0  0  0
   58.8508   26.1092   46.5468 H   0  0  0  0  0  0  0  0  0  0  0  0
   57.7789   26.9096   47.7729 H   0  0  0  0  0  0  0  0  0  0  0  0
   54.8167   22.4618   43.8734 H   0  0  0  0  0  0  0  0  0  0  0  0
   57.0215   21.3975   43.4186 H   0  0  0  0  0  0  0  0  0  0  0  0
   59.1160   22.4270   44.2915 H   0  0  0  0  0  0  0  0  0  0  0  0
   59.0203   24.5372   45.6109 H   0  0  0  0  0  0  0  0  0  0  0  0
   60.1920   28.3051   46.6558 H   0  0  0  0  0  0  0  0  0  0  0  0
   60.4163   30.5749   45.6513 H   0  0  0  0  0  0  0  0  0  0  0  0
   59.5694   35.2276   46.3859 H   0  0  0  0  0  0  0  0  0  0  0  0
   60.5963   35.4483   48.6476 H   0  0  0  0  0  0  0  0  0  0  0  0
  1  2  1  0
  2  3  2  0
  2  4  1  0
  4  5  1  0
  5  6  2  0
  6  7  1  0
  7  8  2  0
  8  9  1  0
  9 10  2  0
  9 11  2  0
  9 12  1  0
 12 13  1  0
 13 14  2  0
 14 15  1  0
 15 16  2  0
 16 17  1  0
 17 18  1  0
 18 19  2  0
 19 20  1  0
 20 21  1  0
 21 22  2  0
 21 23  1  0
 23 24  2  0
 24 25  1  0
 25 26  2  0
 26 27  1  0
 27 28  2  0
 16 29  1  0
 29 30  2  0
  8 31  1  0
 31 32  2  0
 32  5  1  0
 30 13  1  0
 28 18  1  0
 28 23  1  0
  1 33  1  0
  1 34  1  0
  1 35  1  0
  6 36  1  0
  7 37  1  0
 14 38  1  0
 15 39  1  0
 17 40  1  0
 17 41  1  0
 24 42  1  0
 25 43  1  0
 26 44  1  0
 27 45  1  0
 29 46  1  0
 30 47  1  0
 31 48  1  0
 32 49  1  0
M  CHG  3   4  -1  12  -1  20  -1
M  END
>  <UniqueID>  (64) 
59

>  <SMILES>  (64) 
CC(=O)[N-]c1ccc(S(=O)(=O)[N-]c2ccc(Cc3n[n-]c(=O)c4ccccc34)cc2)cc1

>  <Energy>  (64) 
64.29149712313446

>  <Genealogy>  (64) 
CC(=O)[N-]c1ccc(S(=O)(=O)[N-]c2ccc(Cc3n[n-]c(=O)c4ccccc34)cc2)cc1 (protonated)
CC(=O)[N-]c1ccc(S(=O)(=O)[N-]c2ccc(Cc3n[n-]c(=O)c4ccccc34)cc2)cc1 (3D coordinates assigned)
CC(=O)[N-]c1ccc(S(=O)(=O)[N-]c2ccc(Cc3n[n-]c(=O)c4ccccc34)cc2)cc1 (optimized conformer: 64.29149712313446 kcal/mol)

>  <smiles>  (64) 
CC(=O)Nc1ccc(S(=O)(=O)Nc2ccc(Cc3n[nH]c(=O)c4ccccc34)cc2)cc1

>  <score_type>  (64) 
oracle

>  <origin>  (64) 
adg

>  <m_score__min__energy>  (64) 
-14.49

>  <m_primary>  (64) 
energy

$$$$
64:0
     RDKit          3D

 44 47  0  0  0  0  0  0  0  0999 V2000
   56.2990   24.4700   44.4370 C   0  0  0  0  0  0  0  0  0  0  0  0
   55.6330   25.0730   45.9710 S   0  0  0  0  0  0  0  0  0  0  0  0
   54.7740   26.2750   45.6960 O   0  0  0  0  0  0  0  0  0  0  0  0
   54.8110   23.9890   46.6090 O   0  0  0  0  0  0  0  0  0  0  0  0
   56.9440   25.5110   47.0160 N   0  0  0  0  0  0  0  0  0  0  0  0
   58.0970   26.2710   46.6250 C   0  0  0  0  0  0  0  0  0  0  0  0
   59.3980   25.7490   46.7190 C   0  0  0  0  0  0  0  0  0  0  0  0
   60.4960   26.5290   46.3530 C   0  0  0  0  0  0  0  0  0  0  0  0
   60.3090   27.8270   45.8790 C   0  0  0  0  0  0  0  0  0  0  0  0
   59.0160   28.3600   45.7550 C   0  0  0  0  0  0  0  0  0  0  0  0
   58.8470   29.7370   45.2390 C   0  0  0  0  0  0  0  0  0  0  0  0
   58.5360   29.9040   44.0280 O   0  0  0  0  0  0  0  0  0  0  0  0
   59.0140   30.8770   46.1030 N   0  0  0  0  0  0  0  0  0  0  0  0
   58.7870   32.2300   45.6720 C   0  0  0  0  0  0  0  0  0  0  0  0
   57.6950   32.5150   44.8390 C   0  0  0  0  0  0  0  0  0  0  0  0
   57.4110   33.8360   44.4960 C   0  0  0  0  0  0  0  0  0  0  0  0
   58.1810   34.8440   44.9760 N   0  0  0  0  0  0  0  0  0  0  0  0
   59.2440   34.6140   45.7910 C   0  0  0  0  0  0  0  0  0  0  0  0
   59.9250   35.5960   46.1910 O   0  0  0  0  0  0  0  0  0  0  0  0
   59.5830   33.2940   46.1650 C   0  0  0  0  0  0  0  0  0  0  0  0
   60.7700   33.0350   47.0200 C   0  0  0  0  0  0  0  0  0  0  0  0
   61.9380   33.7220   46.8950 N   0  0  0  0  0  0  0  0  0  0  0  0
   62.7150   33.1610   47.8310 C   0  0  0  0  0  0  0  0  0  0  0  0
   64.0330   33.4760   48.1500 C   0  0  0  0  0  0  0  0  0  0  0  0
   64.6490   32.7430   49.1820 C   0  0  0  0  0  0  0  0  0  0  0  0
   63.9370   31.7250   49.8590 C   0  0  0  0  0  0  0  0  0  0  0  0
   62.6060   31.4320   49.5050 C   0  0  0  0  0  0  0  0  0  0  0  0
   62.0320   32.1800   48.4800 C   0  0  0  0  0  0  0  0  0  0  0  0
   60.7930   32.0740   47.9820 N   0  0  0  0  0  0  0  0  0  0  0  0
   57.9100   27.5770   46.1430 C   0  0  0  0  0  0  0  0  0  0  0  0
   56.6530   28.0870   46.1100 F   0  0  0  0  0  0  0  0  0  0  0  0
   57.0998   23.7450   44.6447 H   0  0  0  0  0  0  0  0  0  0  0  0
   55.5019   23.9802   43.8585 H   0  0  0  0  0  0  0  0  0  0  0  0
   56.7075   25.3117   43.8585 H   0  0  0  0  0  0  0  0  0  0  0  0
   59.5517   24.7222   47.0823 H   0  0  0  0  0  0  0  0  0  0  0  0
   61.5128   26.1182   46.4388 H   0  0  0  0  0  0  0  0  0  0  0  0
   61.1805   28.4376   45.6003 H   0  0  0  0  0  0  0  0  0  0  0  0
   59.2710   30.7260   47.1030 H   0  0  0  0  0  0  0  0  0  0  0  0
   57.0645   31.6984   44.4575 H   0  0  0  0  0  0  0  0  0  0  0  0
   56.5611   34.0612   43.8350 H   0  0  0  0  0  0  0  0  0  0  0  0
   64.5741   34.2699   47.6144 H   0  0  0  0  0  0  0  0  0  0  0  0
   65.6894   32.9629   49.4635 H   0  0  0  0  0  0  0  0  0  0  0  0
   64.4257   31.1595   50.6661 H   0  0  0  0  0  0  0  0  0  0  0  0
   62.0402   30.6412   50.0193 H   0  0  0  0  0  0  0  0  0  0  0  0
  1  2  1  0
  2  3  2  0
  2  4  2  0
  2  5  1  0
  5  6  1  0
  6  7  2  0
  7  8  1  0
  8  9  2  0
  9 10  1  0
 10 11  1  0
 11 12  2  0
 11 13  1  0
 13 14  1  0
 14 15  1  0
 15 16  2  0
 16 17  1  0
 17 18  1  0
 18 19  2  0
 18 20  1  0
 20 21  1  0
 21 22  2  0
 22 23  1  0
 23 24  2  0
 24 25  1  0
 25 26  2  0
 26 27  1  0
 27 28  2  0
 28 29  1  0
 10 30  2  0
 30 31  1  0
 30  6  1  0
 20 14  2  0
 29 21  1  0
 28 23  1  0
  1 32  1  0
  1 33  1  0
  1 34  1  0
  7 35  1  0
  8 36  1  0
  9 37  1  0
 13 38  1  0
 15 39  1  0
 16 40  1  0
 24 41  1  0
 25 42  1  0
 26 43  1  0
 27 44  1  0
M  CHG  3   5  -1  17  -1  29  -1
M  END
>  <UniqueID>  (65) 
60

>  <SMILES>  (65) 
CS(=O)(=O)[N-]c1cccc(C(=O)Nc2cc[n-]c(=O)c2-c2nc3ccccc3[n-]2)c1F

>  <Energy>  (65) 
96.95767077018166

>  <Genealogy>  (65) 
CS(=O)(=O)[N-]c1cccc(C(=O)Nc2cc[n-]c(=O)c2-c2nc3ccccc3[n-]2)c1F (protonated)
CS(=O)(=O)[N-]c1cccc(C(=O)Nc2cc[n-]c(=O)c2-c2nc3ccccc3[n-]2)c1F (3D coordinates assigned)
CS(=O)(=O)[N-]c1cccc(C(=O)Nc2cc[n-]c(=O)c2-c2nc3ccccc3[n-]2)c1F (optimized conformer: 96.95767077018166 kcal/mol)

>  <smiles>  (65) 
CS(=O)(=O)Nc1cccc(C(=O)Nc2cc[nH]c(=O)c2-c2nc3ccccc3[nH]2)c1F

>  <score_type>  (65) 
oracle

>  <origin>  (65) 
adg

>  <m_score__min__energy>  (65) 
-12.08

>  <m_primary>  (65) 
energy

$$$$
65:0
     RDKit          3D

 45 47  0  0  0  0  0  0  0  0999 V2000
   59.8722   29.0532   47.6480 H   0  0  0  0  0  0  0  0  0  0  0  0
   59.3790   28.3450   46.9660 C   0  0  0  0  0  0  0  0  0  0  0  0
   59.5952   27.2690   47.0400 H   0  0  0  0  0  0  0  0  0  0  0  0
   58.5130   28.7940   46.0430 C   0  0  0  0  0  0  0  0  0  0  0  0
   57.8100   28.0200   45.1090 C   0  0  0  0  0  0  0  0  0  0  0  0
   57.8760   26.6780   44.9580 C   0  0  0  0  0  0  0  0  0  0  0  0
   58.4535   26.2951   44.1036 H   0  0  0  0  0  0  0  0  0  0  0  0
   57.2370   25.6810   45.8450 C   0  0  0  0  0  0  0  0  0  0  0  0
   57.8360   24.6050   46.3860 N   0  0  0  0  0  0  0  0  0  0  0  0
   56.8650   24.0480   47.1420 C   0  0  0  0  0  0  0  0  0  0  0  0
   57.0470   22.9990   47.8140 O   0  0  0  0  0  0  0  0  0  0  0  0
   55.6870   24.7060   47.1260 N   0  0  0  0  0  0  0  0  0  0  0  0
   55.9410   25.7380   46.3040 C   0  0  0  0  0  0  0  0  0  0  0  0
   55.0070   26.7150   45.9830 O   0  0  0  0  0  0  0  0  0  0  0  0
   57.0100   28.9090   44.3970 C   0  0  0  0  0  0  0  0  0  0  0  0
   56.3105   28.6576   43.5861 H   0  0  0  0  0  0  0  0  0  0  0  0
   57.2640   30.1670   44.9050 C   0  0  0  0  0  0  0  0  0  0  0  0
   56.5850   31.4230   44.4490 C   0  0  0  0  0  0  0  0  0  0  0  0
   56.2688   32.0078   45.3254 H   0  0  0  0  0  0  0  0  0  0  0  0
   57.2840   32.0186   43.8435 H   0  0  0  0  0  0  0  0  0  0  0  0
   55.7038   31.1644   43.8435 H   0  0  0  0  0  0  0  0  0  0  0  0
   58.1700   30.0990   45.9040 N   0  0  0  0  0  0  0  0  0  0  0  0
   58.6560   31.2150   46.6690 C   0  0  0  0  0  0  0  0  0  0  0  0
   58.7460   31.1240   48.0640 C   0  0  0  0  0  0  0  0  0  0  0  0
   58.4626   30.1899   48.5711 H   0  0  0  0  0  0  0  0  0  0  0  0
   59.1940   32.2140   48.8140 C   0  0  0  0  0  0  0  0  0  0  0  0
   59.2739   32.1296   49.9078 H   0  0  0  0  0  0  0  0  0  0  0  0
   59.5430   33.4170   48.1790 C   0  0  0  0  0  0  0  0  0  0  0  0
   60.0110   34.6000   48.9850 C   0  0  0  0  0  0  0  0  0  0  0  0
   60.3319   35.3985   48.2998 H   0  0  0  0  0  0  0  0  0  0  0  0
   59.1794   34.9468   49.6160 H   0  0  0  0  0  0  0  0  0  0  0  0
   61.1300   34.2320   49.8480 N   0  0  0  0  0  0  0  0  0  0  0  0
   62.4470   33.8400   49.4300 C   0  0  0  0  0  0  0  0  0  0  0  0
   63.4280   34.5180   49.8330 O   0  0  0  0  0  0  0  0  0  0  0  0
   62.7020   32.6770   48.5600 C   0  0  0  0  0  0  0  0  0  0  0  0
   62.9630   31.5470   49.0520 O   0  0  0  0  0  0  0  0  0  0  0  0
   62.6180   32.8320   47.1400 N   0  0  0  0  0  0  0  0  0  0  0  0
   63.3560   33.8570   46.4150 C   0  0  0  0  0  0  0  0  0  0  0  0
   63.8435   34.5341   47.1319 H   0  0  0  0  0  0  0  0  0  0  0  0
   64.1198   33.3808   45.7827 H   0  0  0  0  0  0  0  0  0  0  0  0
   62.6621   34.4304   45.7827 H   0  0  0  0  0  0  0  0  0  0  0  0
   59.4700   33.5000   46.7790 C   0  0  0  0  0  0  0  0  0  0  0  0
   59.7661   34.4293   46.2704 H   0  0  0  0  0  0  0  0  0  0  0  0
   59.0230   32.4080   46.0270 C   0  0  0  0  0  0  0  0  0  0  0  0
   58.9300   32.5180   44.6790 F   0  0  0  0  0  0  0  0  0  0  0  0
  1  2  1  0
  2  3  1  0
  2  4  2  0
  4  5  1  0
  5  6  2  0
  6  7  1  0
  6  8  1  0
  8  9  1  0
  9 10  1  0
 10 11  2  0
 10 12  1  0
 12 13  1  0
 13 14  1  0
  5 15  1  0
 15 16  1  0
 15 17  2  0
 17 18  1  0
 18 19  1  0
 18 20  1  0
 18 21  1  0
 17 22  1  0
 22 23  1  0
 23 24  2  0
 24 25  1  0
 24 26  1  0
 26 27  1  0
 26 28  2  0
 28 29  1  0
 29 30  1  0
 29 31  1  0
 29 32  1  0
 32 33  1  0
 33 34  2  0
 33 35  1  0
 35 36  2  0
 35 37  1  0
 37 38  1  0
 38 39  1  0
 38 40  1  0
 38 41  1  0
 28 42  1  0
 42 43  1  0
 42 44  2  0
 44 45  1  0
 22  4  1  0
 44 23  1  0
 13  8  2  0
M  CHG  5   9  -1  12  -1  14  -1  32  -1  37  -1
M  END
>  <UniqueID>  (66) 
61

>  <SMILES>  (66) 
C=c1/c(=C/c2[n-]c(=O)[n-]c2[O-])cc(C)n1-c1ccc(C[N-]C(=O)C(=O)[N-]C)cc1F

>  <Energy>  (66) 
112.4351913064075

>  <Genealogy>  (66) 
C=c1c(=Cc2[n-]c(=O)[n-]c2[O-])cc(C)n1-c1ccc(C[N-]C(=O)C(=O)[N-]C)cc1F (protonated)
C=c1/c(=C/c2[n-]c(=O)[n-]c2[O-])cc(C)n1-c1ccc(C[N-]C(=O)C(=O)[N-]C)cc1F (cis-trans isomerization)
C=c1/c(=C/c2[n-]c(=O)[n-]c2[O-])cc(C)n1-c1ccc(C[N-]C(=O)C(=O)[N-]C)cc1F (3D coordinates assigned)
C=c1/c(=C/c2[n-]c(=O)[n-]c2[O-])cc(C)n1-c1ccc(C[N-]C(=O)C(=O)[N-]C)cc1F (optimized conformer: 112.4351913064075 kcal/mol)

>  <smiles>  (66) 
C=c1c(=Cc2[nH]c(=O)[nH]c2O)cc(C)n1-c1ccc(CNC(=O)C(=O)NC)cc1F

>  <score_type>  (66) 
oracle

>  <origin>  (66) 
adg

>  <m_score__min__energy>  (66) 
-16.440000000000001

>  <m_primary>  (66) 
energy

$$$$
66:0
     RDKit          3D

 51 54  0  0  0  0  0  0  0  0999 V2000
   64.1810   31.8580   50.5220 C   0  0  0  0  0  0  0  0  0  0  0  0
   63.1010   31.1500   51.1200 O   0  0  0  0  0  0  0  0  0  0  0  0
   61.7860   31.2410   50.6520 C   0  0  0  0  0  0  0  0  0  0  0  0
   60.9100   31.8320   51.3420 O   0  0  0  0  0  0  0  0  0  0  0  0
   61.4260   30.6450   49.3460 C   0  0  0  0  0  0  0  0  0  0  0  0
   60.7330   29.4240   49.2900 C   0  0  0  0  0  0  0  0  0  0  0  0
   60.3930   28.8580   48.0580 C   0  0  0  0  0  0  0  0  0  0  0  0
   60.7390   29.5020   46.8590 C   0  0  0  0  0  0  0  0  0  0  0  0
   60.4030   28.8750   45.5290 C   0  0  0  0  0  0  0  0  0  0  0  0
   59.0340   28.3150   45.5490 N   0  0  0  0  0  0  0  0  0  0  0  0
   58.8100   27.0650   46.0790 C   0  0  0  0  0  0  0  0  0  0  0  0
   59.7750   26.3840   46.5270 O   0  0  0  0  0  0  0  0  0  0  0  0
   57.5080   26.5300   46.1430 C   0  0  0  0  0  0  0  0  0  0  0  0
   57.2840   25.1800   46.7140 C   0  0  0  0  0  0  0  0  0  0  0  0
   56.2970   24.9940   47.4780 O   0  0  0  0  0  0  0  0  0  0  0  0
   58.1360   24.0040   46.3130 C   0  0  0  0  0  0  0  0  0  0  0  0
   57.6110   23.3420   45.0650 C   0  0  0  0  0  0  0  0  0  0  0  0
   56.6340   23.9830   44.2830 C   0  0  0  0  0  0  0  0  0  0  0  0
   56.1320   23.3670   43.1320 C   0  0  0  0  0  0  0  0  0  0  0  0
   56.6030   22.1080   42.7510 C   0  0  0  0  0  0  0  0  0  0  0  0
   57.5750   21.4640   43.5190 C   0  0  0  0  0  0  0  0  0  0  0  0
   58.0780   22.0760   44.6720 C   0  0  0  0  0  0  0  0  0  0  0  0
   56.4350   27.2810   45.6420 C   0  0  0  0  0  0  0  0  0  0  0  0
   55.1480   26.7500   45.6430 O   0  0  0  0  0  0  0  0  0  0  0  0
   56.6650   28.5570   45.1150 C   0  0  0  0  0  0  0  0  0  0  0  0
   55.6150   29.3460   44.6150 C   0  0  0  0  0  0  0  0  0  0  0  0
   55.8800   30.6130   44.0950 C   0  0  0  0  0  0  0  0  0  0  0  0
   57.1910   31.0820   44.0750 C   0  0  0  0  0  0  0  0  0  0  0  0
   58.1980   30.3090   44.5560 N   0  0  0  0  0  0  0  0  0  0  0  0
   57.9840   29.0650   45.0760 C   0  0  0  0  0  0  0  0  0  0  0  0
   61.4310   30.7210   46.9120 C   0  0  0  0  0  0  0  0  0  0  0  0
   61.7700   31.2890   48.1440 C   0  0  0  0  0  0  0  0  0  0  0  0
   64.8237   32.2793   51.3090 H   0  0  0  0  0  0  0  0  0  0  0  0
   64.7694   31.1698   49.8974 H   0  0  0  0  0  0  0  0  0  0  0  0
   63.7846   32.6721   49.8974 H   0  0  0  0  0  0  0  0  0  0  0  0
   60.4561   28.9099   50.2222 H   0  0  0  0  0  0  0  0  0  0  0  0
   59.8506   27.9015   48.0274 H   0  0  0  0  0  0  0  0  0  0  0  0
   60.4692   29.6401   44.7415 H   0  0  0  0  0  0  0  0  0  0  0  0
   61.1162   28.0616   45.3299 H   0  0  0  0  0  0  0  0  0  0  0  0
   59.1626   24.3530   46.1277 H   0  0  0  0  0  0  0  0  0  0  0  0
   58.1143   23.2675   47.1297 H   0  0  0  0  0  0  0  0  0  0  0  0
   56.2621   24.9752   44.5783 H   0  0  0  0  0  0  0  0  0  0  0  0
   55.3662   23.8739   42.5266 H   0  0  0  0  0  0  0  0  0  0  0  0
   56.2079   21.6240   41.8457 H   0  0  0  0  0  0  0  0  0  0  0  0
   57.9460   20.4735   43.2169 H   0  0  0  0  0  0  0  0  0  0  0  0
   58.8429   21.5638   45.2741 H   0  0  0  0  0  0  0  0  0  0  0  0
   54.5835   28.9642   44.6337 H   0  0  0  0  0  0  0  0  0  0  0  0
   55.0614   31.2355   43.7046 H   0  0  0  0  0  0  0  0  0  0  0  0
   57.4110   32.0803   43.6688 H   0  0  0  0  0  0  0  0  0  0  0  0
   61.7086   31.2331   45.9789 H   0  0  0  0  0  0  0  0  0  0  0  0
   62.3099   32.2469   48.1732 H   0  0  0  0  0  0  0  0  0  0  0  0
  1  2  1  0
  2  3  1  0
  3  4  2  0
  3  5  1  0
  5  6  2  0
  6  7  1  0
  7  8  2  0
  8  9  1  0
  9 10  1  0
 10 11  1  0
 11 12  2  0
 11 13  1  0
 13 14  1  0
 14 15  2  0
 14 16  1  0
 16 17  1  0
 17 18  2  0
 18 19  1  0
 19 20  2  0
 20 21  1  0
 21 22  2  0
 13 23  2  0
 23 24  1  0
 23 25  1  0
 25 26  2  0
 26 27  1  0
 27 28  2  0
 28 29  1  0
 29 30  2  0
  8 31  1  0
 31 32  2  0
 32  5  1  0
 30 10  1  0
 22 17  1  0
 30 25  1  0
  1 33  1  0
  1 34  1  0
  1 35  1  0
  6 36  1  0
  7 37  1  0
  9 38  1  0
  9 39  1  0
 16 40  1  0
 16 41  1  0
 18 42  1  0
 19 43  1  0
 20 44  1  0
 21 45  1  0
 22 46  1  0
 26 47  1  0
 27 48  1  0
 28 49  1  0
 31 50  1  0
 32 51  1  0
M  CHG  1  24  -1
M  END
>  <UniqueID>  (67) 
62

>  <SMILES>  (67) 
COC(=O)c1ccc(Cn2c(=O)c(C(=O)Cc3ccccc3)c([O-])c3cccnc32)cc1

>  <Energy>  (67) 
68.40601482306974

>  <Genealogy>  (67) 
COC(=O)c1ccc(Cn2c(=O)c(C(=O)Cc3ccccc3)c([O-])c3cccnc32)cc1 (protonated)
COC(=O)c1ccc(Cn2c(=O)c(C(=O)Cc3ccccc3)c([O-])c3cccnc32)cc1 (3D coordinates assigned)
COC(=O)c1ccc(Cn2c(=O)c(C(=O)Cc3ccccc3)c([O-])c3cccnc32)cc1 (optimized conformer: 68.40601482306974 kcal/mol)

>  <smiles>  (67) 
COC(=O)c1ccc(Cn2c(=O)c(C(=O)Cc3ccccc3)c(O)c3cccnc32)cc1

>  <score_type>  (67) 
oracle

>  <origin>  (67) 
adg

>  <m_score__min__energy>  (67) 
-11.380000000000001

>  <m_primary>  (67) 
energy

$$$$
67:0
     RDKit          3D

 49 51  0  0  0  0  0  0  0  0999 V2000
   62.8090   31.6420   47.1230 C   0  0  0  0  0  0  0  0  0  0  0  0
   61.7570   30.7610   47.5030 O   0  0  0  0  0  0  0  0  0  0  0  0
   60.6490   30.4440   46.7000 C   0  0  0  0  0  0  0  0  0  0  0  0
   60.4420   29.1470   46.1950 C   0  0  0  0  0  0  0  0  0  0  0  0
   59.3390   28.8570   45.3690 C   0  0  0  0  0  0  0  0  0  0  0  0
   59.1320   27.5140   44.8870 N   0  0  0  0  0  0  0  0  0  0  0  0
   58.9380   26.3700   45.7780 C   0  0  0  0  0  0  0  0  0  0  0  0
   57.5450   25.8210   45.6340 C   0  0  0  0  0  0  0  0  0  0  0  0
   57.3320   24.5400   45.1060 C   0  0  0  0  0  0  0  0  0  0  0  0
   56.0360   24.0270   45.0190 C   0  0  0  0  0  0  0  0  0  0  0  0
   54.9640   24.7980   45.4750 C   0  0  0  0  0  0  0  0  0  0  0  0
   55.1880   26.0310   46.0010 N   0  0  0  0  0  0  0  0  0  0  0  0
   56.4400   26.5530   46.0940 C   0  0  0  0  0  0  0  0  0  0  0  0
   58.4350   29.8930   45.0400 C   0  0  0  0  0  0  0  0  0  0  0  0
   57.0560   29.6230   43.9590 S   0  0  0  0  0  0  0  0  0  0  0  0
   57.3010   28.1890   43.0200 N   0  0  0  0  0  0  0  0  0  0  0  0
   55.7960   29.4630   44.7620 O   0  0  0  0  0  0  0  0  0  0  0  0
   56.8870   30.8110   43.0510 O   0  0  0  0  0  0  0  0  0  0  0  0
   58.6390   31.1790   45.5580 C   0  0  0  0  0  0  0  0  0  0  0  0
   59.7320   31.4580   46.3870 C   0  0  0  0  0  0  0  0  0  0  0  0
   59.9210   32.7880   46.8990 N   0  0  0  0  0  0  0  0  0  0  0  0
   60.4710   33.8440   46.0420 C   0  0  0  0  0  0  0  0  0  0  0  0
   59.6580   35.1470   46.1870 C   0  0  0  0  0  0  0  0  0  0  0  0
   58.9500   35.2730   47.4760 N   0  0  0  0  0  0  0  0  0  0  0  0
   59.6450   34.5820   48.5680 C   0  0  0  0  0  0  0  0  0  0  0  0
   59.6640   33.0690   48.3150 C   0  0  0  0  0  0  0  0  0  0  0  0
   63.2921   32.0466   48.0246 H   0  0  0  0  0  0  0  0  0  0  0  0
   63.5505   31.0914   46.5254 H   0  0  0  0  0  0  0  0  0  0  0  0
   62.3972   32.4686   46.5254 H   0  0  0  0  0  0  0  0  0  0  0  0
   61.1529   28.3471   46.4494 H   0  0  0  0  0  0  0  0  0  0  0  0
   59.1120   27.3420   43.8560 H   0  0  0  0  0  0  0  0  0  0  0  0
   59.6648   25.5848   45.5226 H   0  0  0  0  0  0  0  0  0  0  0  0
   59.0852   26.6992   46.8172 H   0  0  0  0  0  0  0  0  0  0  0  0
   58.1858   23.9388   44.7602 H   0  0  0  0  0  0  0  0  0  0  0  0
   55.8612   23.0267   44.5960 H   0  0  0  0  0  0  0  0  0  0  0  0
   53.9380   24.4069   45.4083 H   0  0  0  0  0  0  0  0  0  0  0  0
   56.5869   27.5517   46.5310 H   0  0  0  0  0  0  0  0  0  0  0  0
   57.0480   27.3700   43.6190 H   0  0  0  0  0  0  0  0  0  0  0  0
   56.6180   28.2090   42.2300 H   0  0  0  0  0  0  0  0  0  0  0  0
   57.9292   31.9817   45.3093 H   0  0  0  0  0  0  0  0  0  0  0  0
   61.5147   34.0362   46.3315 H   0  0  0  0  0  0  0  0  0  0  0  0
   60.4189   33.5109   44.9950 H   0  0  0  0  0  0  0  0  0  0  0  0
   60.3478   35.9980   46.0867 H   0  0  0  0  0  0  0  0  0  0  0  0
   58.8881   35.1306   45.4015 H   0  0  0  0  0  0  0  0  0  0  0  0
   57.9920   34.8610   47.3770 H   0  0  0  0  0  0  0  0  0  0  0  0
   60.6789   34.9521   48.6316 H   0  0  0  0  0  0  0  0  0  0  0  0
   59.1147   34.7801   49.5112 H   0  0  0  0  0  0  0  0  0  0  0  0
   60.4562   32.6100   48.9247 H   0  0  0  0  0  0  0  0  0  0  0  0
   58.6842   32.6504   48.5885 H   0  0  0  0  0  0  0  0  0  0  0  0
  1  2  1  0
  2  3  1  0
  3  4  2  0
  4  5  1  0
  5  6  1  0
  6  7  1  0
  7  8  1  0
  8  9  2  0
  9 10  1  0
 10 11  2  0
 11 12  1  0
 12 13  2  0
  5 14  2  0
 14 15  1  0
 15 16  1  0
 15 17  2  0
 15 18  2  0
 14 19  1  0
 19 20  2  0
 20 21  1  0
 21 22  1  0
 22 23  1  0
 23 24  1  0
 24 25  1  0
 25 26  1  0
 20  3  1  0
 26 21  1  0
 13  8  1  0
  1 27  1  0
  1 28  1  0
  1 29  1  0
  4 30  1  0
  6 31  1  0
  7 32  1  0
  7 33  1  0
  9 34  1  0
 10 35  1  0
 11 36  1  0
 13 37  1  0
 16 38  1  0
 16 39  1  0
 19 40  1  0
 22 41  1  0
 22 42  1  0
 23 43  1  0
 23 44  1  0
 24 45  1  0
 25 46  1  0
 25 47  1  0
 26 48  1  0
 26 49  1  0
M  END
>  <UniqueID>  (68) 
63

>  <SMILES>  (68) 
COc1cc(NCc2cccnc2)c(S(N)(=O)=O)cc1N1CCNCC1

>  <Energy>  (68) 
60.7740092725031

>  <Genealogy>  (68) 
COc1cc(NCc2cccnc2)c(S(N)(=O)=O)cc1N1CCNCC1 (3D coordinates assigned)
COc1cc(NCc2cccnc2)c(S(N)(=O)=O)cc1N1CCNCC1 (nonaromatic ring conformer: 60.7740092725031 kcal/mol)

>  <smiles>  (68) 
COc1cc(NCc2cccnc2)c(S(N)(=O)=O)cc1N1CCNCC1

>  <score_type>  (68) 
oracle

>  <origin>  (68) 
adg

>  <m_score__min__energy>  (68) 
-8.3399999999999999

>  <m_primary>  (68) 
energy

$$$$
68:0
     RDKit          3D

 56 59  0  0  0  0  0  0  0  0999 V2000
   58.2300   29.8110   44.1600 C   0  0  0  0  0  0  0  0  0  0  0  0
   56.9700   30.2250   44.8570 C   0  0  0  0  0  0  0  0  0  0  0  0
   56.1110   29.3550   45.1480 O   0  0  0  0  0  0  0  0  0  0  0  0
   56.7130   31.5930   45.2040 N   0  0  0  0  0  0  0  0  0  0  0  0
   57.7190   32.6030   45.3920 C   0  0  0  0  0  0  0  0  0  0  0  0
   58.0280   33.4640   44.3360 C   0  0  0  0  0  0  0  0  0  0  0  0
   58.9770   34.4790   44.5060 C   0  0  0  0  0  0  0  0  0  0  0  0
   59.6620   34.5990   45.7170 C   0  0  0  0  0  0  0  0  0  0  0  0
   59.4190   33.6950   46.7670 C   0  0  0  0  0  0  0  0  0  0  0  0
   60.2110   33.7660   48.0230 C   0  0  0  0  0  0  0  0  0  0  0  0
   59.5510   33.6020   49.1920 C   0  0  0  0  0  0  0  0  0  0  0  0
   59.9800   33.6850   50.6530 C   0  0  2  0  0  0  0  0  0  0  0  0
   61.4290   33.7080   51.1270 C   0  0  1  0  0  0  0  0  0  0  0  0
   61.5990   32.3060   51.6500 C   0  0  0  0  0  0  0  0  0  0  0  0
   60.3470   31.9470   52.1570 O   0  0  0  0  0  0  0  0  0  0  0  0
   59.4260   32.4840   51.3020 N   0  0  0  0  0  0  0  0  0  0  0  0
   58.2190   32.7740   52.0680 C   0  0  0  0  0  0  0  0  0  0  0  0
   62.5410   34.2050   50.2060 C   0  0  0  0  0  0  0  0  0  0  0  0
   62.4870   33.5660   48.8980 N   0  0  0  0  0  0  0  0  0  0  0  0
   63.1350   32.3070   48.6200 C   0  0  0  0  0  0  0  0  0  0  0  0
   64.1870   32.0060   49.2400 O   0  0  0  0  0  0  0  0  0  0  0  0
   62.5680   31.3620   47.5950 C   0  0  0  0  0  0  0  0  0  0  0  0
   61.2980   30.6990   48.0470 C   0  0  0  0  0  0  0  0  0  0  0  0
   60.5110   29.9710   47.1430 C   0  0  0  0  0  0  0  0  0  0  0  0
   59.3280   29.3710   47.5770 C   0  0  0  0  0  0  0  0  0  0  0  0
   58.9350   29.5200   48.9070 C   0  0  0  0  0  0  0  0  0  0  0  0
   59.7030   30.2420   49.7760 N   0  0  0  0  0  0  0  0  0  0  0  0
   60.8590   30.8330   49.3750 C   0  0  0  0  0  0  0  0  0  0  0  0
   61.6460   34.2020   47.8920 C   0  0  0  0  0  0  0  0  0  0  0  0
   58.4360   32.7040   46.5950 C   0  0  0  0  0  0  0  0  0  0  0  0
   58.9967   29.5591   44.9075 H   0  0  0  0  0  0  0  0  0  0  0  0
   58.0288   28.9317   43.5304 H   0  0  0  0  0  0  0  0  0  0  0  0
   58.5895   30.6383   43.5304 H   0  0  0  0  0  0  0  0  0  0  0  0
   57.5231   33.3437   43.3662 H   0  0  0  0  0  0  0  0  0  0  0  0
   59.1832   35.1821   43.6856 H   0  0  0  0  0  0  0  0  0  0  0  0
   60.3970   35.4064   45.8508 H   0  0  0  0  0  0  0  0  0  0  0  0
   58.4861   33.3588   49.0623 H   0  0  0  0  0  0  0  0  0  0  0  0
   59.6322   34.6993   50.8983 H   0  0  0  0  0  0  0  0  0  0  0  0
   61.5708   34.5135   51.8626 H   0  0  0  0  0  0  0  0  0  0  0  0
   61.8956   31.6253   50.8384 H   0  0  0  0  0  0  0  0  0  0  0  0
   62.3845   32.2472   52.4178 H   0  0  0  0  0  0  0  0  0  0  0  0
   58.4451   32.7197   53.1431 H   0  0  0  0  0  0  0  0  0  0  0  0
   57.8606   33.7838   51.8193 H   0  0  0  0  0  0  0  0  0  0  0  0
   57.4410   32.0372   51.8193 H   0  0  0  0  0  0  0  0  0  0  0  0
   62.4359   35.2922   50.0756 H   0  0  0  0  0  0  0  0  0  0  0  0
   63.5064   33.9535   50.6695 H   0  0  0  0  0  0  0  0  0  0  0  0
   62.3600   31.9270   46.6744 H   0  0  0  0  0  0  0  0  0  0  0  0
   63.3127   30.5692   47.4308 H   0  0  0  0  0  0  0  0  0  0  0  0
   60.8256   29.8730   46.0935 H   0  0  0  0  0  0  0  0  0  0  0  0
   58.7120   28.7868   46.8776 H   0  0  0  0  0  0  0  0  0  0  0  0
   58.0024   29.0540   49.2578 H   0  0  0  0  0  0  0  0  0  0  0  0
   59.3930   30.3540   50.7660 H   0  0  0  0  0  0  0  0  0  0  0  0
   61.4531   31.4182   50.0924 H   0  0  0  0  0  0  0  0  0  0  0  0
   61.7016   35.2935   48.0166 H   0  0  0  0  0  0  0  0  0  0  0  0
   62.0096   33.9046   46.8973 H   0  0  0  0  0  0  0  0  0  0  0  0
   58.2263   31.9992   47.4131 H   0  0  0  0  0  0  0  0  0  0  0  0
  1  2  1  0
  2  3  2  0
  2  4  1  0
  4  5  1  0
  5  6  2  0
  6  7  1  0
  7  8  2  0
  8  9  1  0
  9 10  1  0
 10 11  2  0
 11 12  1  0
 12 13  1  0
 13 14  1  0
 14 15  1  0
 15 16  1  0
 16 17  1  0
 13 18  1  0
 18 19  1  0
 19 20  1  0
 20 21  2  0
 20 22  1  0
 22 23  1  0
 23 24  2  0
 24 25  1  0
 25 26  2  0
 26 27  1  0
 27 28  2  0
 19 29  1  0
  9 30  2  0
 30  5  1  0
 29 10  1  0
 16 12  1  0
 28 23  1  0
  1 31  1  0
  1 32  1  0
  1 33  1  0
  6 34  1  0
  7 35  1  0
  8 36  1  0
 11 37  1  0
 12 38  1  1
 13 39  1  1
 14 40  1  0
 14 41  1  0
 17 42  1  0
 17 43  1  0
 17 44  1  0
 18 45  1  0
 18 46  1  0
 22 47  1  0
 22 48  1  0
 24 49  1  0
 25 50  1  0
 26 51  1  0
 27 52  1  0
 28 53  1  0
 29 54  1  0
 29 55  1  0
 30 56  1  0
M  CHG  2   4  -1  27   1
M  END
>  <UniqueID>  (69) 
64

>  <SMILES>  (69) 
CC(=O)[N-]c1cccc(C2=C[C@@H]3[C@@H](CON3C)CN(C(=O)Cc3ccc[nH+]c3)C2)c1

>  <Energy>  (69) 
92.3417620558235

>  <Genealogy>  (69) 
CC(=O)[N-]c1cccc(C2=CC3C(CON3C)CN(C(=O)Cc3ccc[nH+]c3)C2)c1 (protonated)
CC(=O)[N-]c1cccc(C2=C[C@@H]3[C@@H](CON3C)CN(C(=O)Cc3ccc[nH+]c3)C2)c1 (chirality)
CC(=O)[N-]c1cccc(C2=C[C@@H]3[C@@H](CON3C)CN(C(=O)Cc3ccc[nH+]c3)C2)c1 (3D coordinates assigned)
CC(=O)[N-]c1cccc(C2=C[C@@H]3[C@@H](CON3C)CN(C(=O)Cc3ccc[nH+]c3)C2)c1 (nonaromatic ring conformer: 92.3417620558235 kcal/mol)

>  <smiles>  (69) 
CC(=O)Nc1cccc(C2=CC3C(CON3C)CN(C(=O)Cc3cccnc3)C2)c1

>  <score_type>  (69) 
oracle

>  <origin>  (69) 
adg

>  <m_score__min__energy>  (69) 
-7.2999999999999998

>  <m_primary>  (69) 
energy

$$$$
69:0
     RDKit          3D

 38 40  0  0  0  0  0  0  0  0999 V2000
   58.6260   27.5650   44.1350 O   0  0  0  0  0  0  0  0  0  0  0  0
   57.6680   27.5440   44.9550 C   0  0  0  0  0  0  0  0  0  0  0  0
   56.8270   28.7010   45.1180 N   0  0  0  0  0  0  0  0  0  0  0  0
   57.0120   29.9360   44.4070 C   0  0  0  0  0  0  0  0  0  0  0  0
   56.8600   30.0100   43.0120 C   0  0  0  0  0  0  0  0  0  0  0  0
   57.0790   31.2150   42.3420 C   0  0  0  0  0  0  0  0  0  0  0  0
   57.4590   32.3560   43.0540 C   0  0  0  0  0  0  0  0  0  0  0  0
   57.6200   32.2990   44.4460 C   0  0  0  0  0  0  0  0  0  0  0  0
   58.0540   33.4910   45.2030 C   0  0  0  0  0  0  0  0  0  0  0  0
   57.5870   34.6170   44.8810 O   0  0  0  0  0  0  0  0  0  0  0  0
   58.9990   33.3960   46.2840 N   0  0  0  0  0  0  0  0  0  0  0  0
   59.1850   34.4620   47.2550 C   0  0  0  0  0  0  0  0  0  0  0  0
   60.5040   34.1610   47.9550 C   0  0  0  0  0  0  0  0  0  0  0  0
   60.8440   32.7130   47.6110 C   0  0  0  0  0  0  0  0  0  0  0  0
   60.0310   32.3750   46.3700 C   0  0  0  0  0  0  0  0  0  0  0  0
   57.4200   31.0790   45.1130 C   0  0  0  0  0  0  0  0  0  0  0  0
   57.4310   26.3140   45.7460 C   0  0  0  0  0  0  0  0  0  0  0  0
   58.4940   25.4340   45.9930 C   0  0  0  0  0  0  0  0  0  0  0  0
   58.2930   24.3060   46.7220 N   0  0  0  0  0  0  0  0  0  0  0  0
   57.0650   24.0000   47.2110 C   0  0  0  0  0  0  0  0  0  0  0  0
   56.9000   22.9520   47.8860 O   0  0  0  0  0  0  0  0  0  0  0  0
   56.0120   24.8220   46.9670 N   0  0  0  0  0  0  0  0  0  0  0  0
   56.1620   25.9620   46.2440 C   0  0  0  0  0  0  0  0  0  0  0  0
   55.1500   26.6740   46.0050 O   0  0  0  0  0  0  0  0  0  0  0  0
   55.9980   28.6350   45.7510 H   0  0  0  0  0  0  0  0  0  0  0  0
   56.5670   29.1140   42.4451 H   0  0  0  0  0  0  0  0  0  0  0  0
   56.9521   31.2666   41.2506 H   0  0  0  0  0  0  0  0  0  0  0  0
   57.6325   33.3023   42.5206 H   0  0  0  0  0  0  0  0  0  0  0  0
   59.2341   35.4372   46.7484 H   0  0  0  0  0  0  0  0  0  0  0  0
   58.3496   34.5093   47.9690 H   0  0  0  0  0  0  0  0  0  0  0  0
   61.2926   34.8355   47.5902 H   0  0  0  0  0  0  0  0  0  0  0  0
   60.4251   34.3083   49.0422 H   0  0  0  0  0  0  0  0  0  0  0  0
   61.9194   32.6120   47.4027 H   0  0  0  0  0  0  0  0  0  0  0  0
   60.6082   32.0348   48.4443 H   0  0  0  0  0  0  0  0  0  0  0  0
   60.6698   32.3994   45.4749 H   0  0  0  0  0  0  0  0  0  0  0  0
   59.5985   31.3654   46.4311 H   0  0  0  0  0  0  0  0  0  0  0  0
   57.5846   31.0186   46.1989 H   0  0  0  0  0  0  0  0  0  0  0  0
   59.4946   25.6580   45.5948 H   0  0  0  0  0  0  0  0  0  0  0  0
  1  2  2  0
  2  3  1  0
  3  4  1  0
  4  5  2  0
  5  6  1  0
  6  7  2  0
  7  8  1  0
  8  9  1  0
  9 10  2  0
  9 11  1  0
 11 12  1  0
 12 13  1  0
 13 14  1  0
 14 15  1  0
  8 16  2  0
  2 17  1  0
 17 18  2  0
 18 19  1  0
 19 20  1  0
 20 21  2  0
 20 22  1  0
 22 23  1  0
 23 24  2  0
 16  4  1  0
 23 17  1  0
 15 11  1  0
  3 25  1  0
  5 26  1  0
  6 27  1  0
  7 28  1  0
 12 29  1  0
 12 30  1  0
 13 31  1  0
 13 32  1  0
 14 33  1  0
 14 34  1  0
 15 35  1  0
 15 36  1  0
 16 37  1  0
 18 38  1  0
M  CHG  2  19  -1  22  -1
M  END
>  <UniqueID>  (70) 
65

>  <SMILES>  (70) 
O=C(Nc1cccc(C(=O)N2CCCC2)c1)c1c[n-]c(=O)[n-]c1=O

>  <Energy>  (70) 
54.45942047299991

>  <Genealogy>  (70) 
O=C(Nc1cccc(C(=O)N2CCCC2)c1)c1c[n-]c(=O)[n-]c1=O (protonated)
O=C(Nc1cccc(C(=O)N2CCCC2)c1)c1c[n-]c(=O)[n-]c1=O (3D coordinates assigned)
O=C(Nc1cccc(C(=O)N2CCCC2)c1)c1c[n-]c(=O)[n-]c1=O (nonaromatic ring conformer: 54.45942047299991 kcal/mol)

>  <smiles>  (70) 
O=C(Nc1cccc(C(=O)N2CCCC2)c1)c1c[nH]c(=O)[nH]c1=O

>  <score_type>  (70) 
oracle

>  <origin>  (70) 
adg

>  <m_score__min__energy>  (70) 
-12.029999999999999

>  <m_primary>  (70) 
energy

$$$$
70:0
     RDKit          3D

 56 59  0  0  0  0  0  0  0  0999 V2000
   55.5588   24.0600   47.4975 H   0  0  0  0  0  0  0  0  0  0  0  0
   56.2200   24.7580   46.9630 C   0  0  0  0  0  0  0  0  0  0  0  0
   55.7110   25.8970   46.4280 N   0  0  0  0  0  0  0  0  0  0  0  0
   56.4820   26.7980   45.7610 C   0  0  0  0  0  0  0  0  0  0  0  0
   55.8970   27.8490   45.2490 N   0  0  0  0  0  0  0  0  0  0  0  0
   56.3170   29.2590   45.2300 C   0  0  0  0  0  0  0  0  0  0  0  0
   55.5489   29.8393   45.7622 H   0  0  0  0  0  0  0  0  0  0  0  0
   56.3550   29.8170   43.7920 C   0  0  0  0  0  0  0  0  0  0  0  0
   55.3437   29.7568   43.3634 H   0  0  0  0  0  0  0  0  0  0  0  0
   57.0739   29.2137   43.2183 H   0  0  0  0  0  0  0  0  0  0  0  0
   56.8280   31.2850   43.7400 C   0  0  0  0  0  0  0  0  0  0  0  0
   55.9413   31.9358   43.7300 H   0  0  0  0  0  0  0  0  0  0  0  0
   57.4383   31.3951   42.8315 H   0  0  0  0  0  0  0  0  0  0  0  0
   57.6830   31.6750   44.8880 N   0  0  0  0  0  0  0  0  0  0  0  0
   58.5240   32.8270   44.5330 C   0  0  0  0  0  0  0  0  0  0  0  0
   58.8815   33.3167   45.4508 H   0  0  0  0  0  0  0  0  0  0  0  0
   59.3854   32.4837   43.9412 H   0  0  0  0  0  0  0  0  0  0  0  0
   57.9345   33.5428   43.9412 H   0  0  0  0  0  0  0  0  0  0  0  0
   58.5150   30.5550   45.3620 C   0  0  0  0  0  0  0  0  0  0  0  0
   59.2514   30.9271   46.0895 H   0  0  0  0  0  0  0  0  0  0  0  0
   59.0406   30.1010   44.5090 H   0  0  0  0  0  0  0  0  0  0  0  0
   57.6210   29.5040   46.0310 C   0  0  0  0  0  0  0  0  0  0  0  0
   57.3578   29.8520   47.0408 H   0  0  0  0  0  0  0  0  0  0  0  0
   58.1795   28.5571   46.0704 H   0  0  0  0  0  0  0  0  0  0  0  0
   57.8660   26.5490   45.6420 C   0  0  0  0  0  0  0  0  0  0  0  0
   58.5136   27.2827   45.1396 H   0  0  0  0  0  0  0  0  0  0  0  0
   58.4200   25.3670   46.1630 C   0  0  0  0  0  0  0  0  0  0  0  0
   59.8770   25.0890   46.0480 C   0  0  0  0  0  0  0  0  0  0  0  0
   60.2630   23.9770   45.5970 O   0  0  0  0  0  0  0  0  0  0  0  0
   60.8660   26.0200   46.5140 N   0  0  0  0  0  0  0  0  0  0  0  0
   60.6460   27.0090   47.3310 C   0  0  0  0  0  0  0  0  0  0  0  0
   60.5700   26.8040   48.6770 N   0  0  0  0  0  0  0  0  0  0  0  0
   60.3920   27.8290   49.5530 C   0  0  0  0  0  0  0  0  0  0  0  0
   60.3129   27.6225   50.6306 H   0  0  0  0  0  0  0  0  0  0  0  0
   60.3090   29.1500   49.0850 C   0  0  0  0  0  0  0  0  0  0  0  0
   60.1790   30.2680   49.9780 N   0  0  0  0  0  0  0  0  0  0  0  0
   60.7230   30.2370   50.8690 H   0  0  0  0  0  0  0  0  0  0  0  0
   59.1940   31.3060   49.8290 C   0  0  0  0  0  0  0  0  0  0  0  0
   58.5230   31.4120   48.7680 O   0  0  0  0  0  0  0  0  0  0  0  0
   58.9540   32.2660   50.9250 C   0  0  0  0  0  0  0  0  0  0  0  0
   57.7880   32.1490   51.7030 C   0  0  0  0  0  0  0  0  0  0  0  0
   56.8820   31.1710   51.4470 F   0  0  0  0  0  0  0  0  0  0  0  0
   57.5360   33.0550   52.7370 C   0  0  0  0  0  0  0  0  0  0  0  0
   56.6179   32.9624   53.3358 H   0  0  0  0  0  0  0  0  0  0  0  0
   58.4460   34.0770   53.0120 C   0  0  0  0  0  0  0  0  0  0  0  0
   58.2402   34.7936   53.8208 H   0  0  0  0  0  0  0  0  0  0  0  0
   59.6170   34.1900   52.2610 C   0  0  0  0  0  0  0  0  0  0  0  0
   60.3363   34.9909   52.4873 H   0  0  0  0  0  0  0  0  0  0  0  0
   59.8820   33.2900   51.2210 C   0  0  0  0  0  0  0  0  0  0  0  0
   61.4190   33.4310   50.3710 Cl  0  0  0  0  0  0  0  0  0  0  0  0
   60.3270   29.3710   47.7020 C   0  0  0  0  0  0  0  0  0  0  0  0
   60.2131   30.3919   47.3086 H   0  0  0  0  0  0  0  0  0  0  0  0
   60.4890   28.3000   46.8210 C   0  0  0  0  0  0  0  0  0  0  0  0
   60.4930   28.4714   45.7344 H   0  0  0  0  0  0  0  0  0  0  0  0
   57.5790   24.4700   46.8370 C   0  0  0  0  0  0  0  0  0  0  0  0
   57.9892   23.5432   47.2645 H   0  0  0  0  0  0  0  0  0  0  0  0
  1  2  1  0
  2  3  1  0
  3  4  1  0
  4  5  2  3
  5  6  1  0
  6  7  1  0
  6  8  1  0
  8  9  1  0
  8 10  1  0
  8 11  1  0
 11 12  1  0
 11 13  1  0
 11 14  1  0
 14 15  1  0
 15 16  1  0
 15 17  1  0
 15 18  1  0
 14 19  1  0
 19 20  1  0
 19 21  1  0
 19 22  1  0
 22 23  1  0
 22 24  1  0
  4 25  1  0
 25 26  1  0
 25 27  2  0
 27 28  1  0
 28 29  2  0
 28 30  1  0
 30 31  2  0
 31 32  1  0
 32 33  1  0
 33 34  1  0
 33 35  2  0
 35 36  1  0
 36 37  1  0
 36 38  1  0
 38 39  2  0
 38 40  1  0
 40 41  2  0
 41 42  1  0
 41 43  1  0
 43 44  1  0
 43 45  2  0
 45 46  1  0
 45 47  1  0
 47 48  1  0
 47 49  2  0
 49 50  1  0
 35 51  1  0
 51 52  1  0
 51 53  2  0
 53 54  1  0
 27 55  1  0
 55 56  1  0
 55  2  2  0
 22  6  1  0
 53 31  1  0
 49 40  1  0
M  CHG  2   3  -1  32  -1
M  END
>  <UniqueID>  (71) 
66

>  <SMILES>  (71) 
CN1CCC(N=c2cc(C(=O)/N=c3/ccc(NC(=O)c4c(F)cccc4Cl)c[n-]3)cc[n-]2)CC1

>  <Energy>  (71) 
86.20524760797045

>  <Genealogy>  (71) 
CN1CCC(N=c2cc(C(=O)N=c3ccc(NC(=O)c4c(F)cccc4Cl)c[n-]3)cc[n-]2)CC1 (protonated)
CN1CCC(N=c2cc(C(=O)/N=c3/ccc(NC(=O)c4c(F)cccc4Cl)c[n-]3)cc[n-]2)CC1 (cis-trans isomerization)
CN1CCC(N=c2cc(C(=O)/N=c3/ccc(NC(=O)c4c(F)cccc4Cl)c[n-]3)cc[n-]2)CC1 (3D coordinates assigned)
CN1CCC(N=c2cc(C(=O)/N=c3/ccc(NC(=O)c4c(F)cccc4Cl)c[n-]3)cc[n-]2)CC1 (nonaromatic ring conformer: 86.20524760797045 kcal/mol)

>  <smiles>  (71) 
CN1CCC(N=c2cc(C(=O)N=c3ccc(NC(=O)c4c(F)cccc4Cl)c[nH]3)cc[nH]2)CC1

>  <score_type>  (71) 
oracle

>  <origin>  (71) 
adg

>  <m_score__min__energy>  (71) 
-12.31

>  <m_primary>  (71) 
energy

$$$$
71:0
     RDKit          3D

 58 62  0  0  0  0  0  0  0  0999 V2000
   61.4470   28.0380   50.8040 C   0  0  0  0  0  0  0  0  0  0  0  0
   60.5450   28.0140   49.6110 C   0  0  0  0  0  0  0  0  0  0  0  0
   59.4490   28.8820   49.5350 C   0  0  0  0  0  0  0  0  0  0  0  0
   58.6100   28.8280   48.4200 C   0  0  0  0  0  0  0  0  0  0  0  0
   58.8670   27.9110   47.3940 C   0  0  0  0  0  0  0  0  0  0  0  0
   57.7980   27.8140   46.0000 S   0  0  0  0  0  0  0  0  0  0  0  0
   56.5330   27.0880   46.3710 O   0  0  0  0  0  0  0  0  0  0  0  0
   58.4630   27.0450   44.8940 O   0  0  0  0  0  0  0  0  0  0  0  0
   57.4040   29.4190   45.4670 N   0  0  0  0  0  0  0  0  0  0  0  0
   56.2930   29.8130   44.8000 C   0  0  0  0  0  0  0  0  0  0  0  0
   55.3830   29.0200   44.4450 O   0  0  0  0  0  0  0  0  0  0  0  0
   56.2390   31.1460   44.5520 N   0  0  0  0  0  0  0  0  0  0  0  0
   57.3820   31.5900   45.1080 C   0  0  0  0  0  0  0  0  0  0  0  0
   57.8400   32.9030   45.1590 C   0  0  0  0  0  0  0  0  0  0  0  0
   59.0630   33.1480   45.8080 C   0  0  0  0  0  0  0  0  0  0  0  0
   59.8040   32.0850   46.3960 C   0  0  0  0  0  0  0  0  0  0  0  0
   61.0970   32.3530   47.0730 C   0  0  0  0  0  0  0  0  0  0  0  0
   62.0820   31.3530   47.1520 C   0  0  0  0  0  0  0  0  0  0  0  0
   63.3050   31.6080   47.7800 C   0  0  0  0  0  0  0  0  0  0  0  0
   63.5710   32.8720   48.3270 C   0  0  0  0  0  0  0  0  0  0  0  0
   64.8930   33.1490   49.0010 C   0  0  0  0  0  0  0  0  0  0  0  0
   64.9140   32.7960   50.4370 N   0  0  0  0  0  0  0  0  0  0  0  0
   66.2100   32.3530   50.9950 C   0  0  0  0  0  0  0  0  0  0  0  0
   66.3440   30.8260   51.0700 C   0  0  0  0  0  0  0  0  0  0  0  0
   65.1370   30.2050   51.7670 C   0  0  0  0  0  0  0  0  0  0  0  0
   63.8540   30.5980   51.0400 C   0  0  0  0  0  0  0  0  0  0  0  0
   63.7100   32.1250   50.9730 C   0  0  0  0  0  0  0  0  0  0  0  0
   62.5790   33.8620   48.2780 C   0  0  0  0  0  0  0  0  0  0  0  0
   61.3560   33.6080   47.6500 C   0  0  0  0  0  0  0  0  0  0  0  0
   59.2980   30.7650   46.3240 C   0  0  0  0  0  0  0  0  0  0  0  0
   58.0850   30.5600   45.6640 C   0  0  0  0  0  0  0  0  0  0  0  0
   59.9660   27.0530   47.5130 C   0  0  0  0  0  0  0  0  0  0  0  0
   60.7710   27.1230   48.6070 N   0  0  0  0  0  0  0  0  0  0  0  0
   60.8412   28.0219   51.7220 H   0  0  0  0  0  0  0  0  0  0  0  0
   62.1054   27.1571   50.7836 H   0  0  0  0  0  0  0  0  0  0  0  0
   62.0576   28.9527   50.7836 H   0  0  0  0  0  0  0  0  0  0  0  0
   59.2509   29.5991   50.3453 H   0  0  0  0  0  0  0  0  0  0  0  0
   57.7470   29.5062   48.3479 H   0  0  0  0  0  0  0  0  0  0  0  0
   57.2636   33.7231   44.7060 H   0  0  0  0  0  0  0  0  0  0  0  0
   59.4523   34.1754   45.8619 H   0  0  0  0  0  0  0  0  0  0  0  0
   61.8890   30.3617   46.7161 H   0  0  0  0  0  0  0  0  0  0  0  0
   64.0626   30.8131   47.8454 H   0  0  0  0  0  0  0  0  0  0  0  0
   65.6727   32.5662   48.4888 H   0  0  0  0  0  0  0  0  0  0  0  0
   65.0669   34.2331   48.9340 H   0  0  0  0  0  0  0  0  0  0  0  0
   67.0171   32.7442   50.3582 H   0  0  0  0  0  0  0  0  0  0  0  0
   66.2726   32.7382   52.0235 H   0  0  0  0  0  0  0  0  0  0  0  0
   66.4183   30.4208   50.0500 H   0  0  0  0  0  0  0  0  0  0  0  0
   67.2471   30.5813   51.6484 H   0  0  0  0  0  0  0  0  0  0  0  0
   65.2374   29.1096   51.7620 H   0  0  0  0  0  0  0  0  0  0  0  0
   65.0910   30.5711   52.8033 H   0  0  0  0  0  0  0  0  0  0  0  0
   63.8807   30.1933   50.0175 H   0  0  0  0  0  0  0  0  0  0  0  0
   62.9962   30.1873   51.5927 H   0  0  0  0  0  0  0  0  0  0  0  0
   62.8552   32.3684   50.3248 H   0  0  0  0  0  0  0  0  0  0  0  0
   63.5618   32.4869   52.0011 H   0  0  0  0  0  0  0  0  0  0  0  0
   62.7643   34.8446   48.7365 H   0  0  0  0  0  0  0  0  0  0  0  0
   60.5904   34.3967   47.6072 H   0  0  0  0  0  0  0  0  0  0  0  0
   59.8452   29.9243   46.7754 H   0  0  0  0  0  0  0  0  0  0  0  0
   60.1792   26.3207   46.7204 H   0  0  0  0  0  0  0  0  0  0  0  0
  1  2  1  0
  2  3  2  0
  3  4  1  0
  4  5  2  0
  5  6  1  0
  6  7  2  0
  6  8  2  0
  6  9  1  0
  9 10  1  0
 10 11  2  0
 10 12  1  0
 12 13  1  0
 13 14  2  0
 14 15  1  0
 15 16  2  0
 16 17  1  0
 17 18  2  0
 18 19  1  0
 19 20  2  0
 20 21  1  0
 21 22  1  0
 22 23  1  0
 23 24  1  0
 24 25  1  0
 25 26  1  0
 26 27  1  0
 20 28  1  0
 28 29  2  0
 16 30  1  0
 30 31  2  0
  5 32  1  0
 32 33  2  0
 33  2  1  0
 31  9  1  0
 31 13  1  0
 29 17  1  0
 27 22  1  0
  1 34  1  0
  1 35  1  0
  1 36  1  0
  3 37  1  0
  4 38  1  0
 14 39  1  0
 15 40  1  0
 18 41  1  0
 19 42  1  0
 21 43  1  0
 21 44  1  0
 23 45  1  0
 23 46  1  0
 24 47  1  0
 24 48  1  0
 25 49  1  0
 25 50  1  0
 26 51  1  0
 26 52  1  0
 27 53  1  0
 27 54  1  0
 28 55  1  0
 29 56  1  0
 30 57  1  0
 32 58  1  0
M  CHG  1  12  -1
M  END
>  <UniqueID>  (72) 
67

>  <SMILES>  (72) 
Cc1ccc(S(=O)(=O)n2c(=O)[n-]c3ccc(-c4ccc(CN5CCCCC5)cc4)cc32)cn1

>  <Energy>  (72) 
113.43289163911416

>  <Genealogy>  (72) 
Cc1ccc(S(=O)(=O)n2c(=O)[n-]c3ccc(-c4ccc(CN5CCCCC5)cc4)cc32)cn1 (protonated)
Cc1ccc(S(=O)(=O)n2c(=O)[n-]c3ccc(-c4ccc(CN5CCCCC5)cc4)cc32)cn1 (3D coordinates assigned)
Cc1ccc(S(=O)(=O)n2c(=O)[n-]c3ccc(-c4ccc(CN5CCCCC5)cc4)cc32)cn1 (nonaromatic ring conformer: 113.43289163911416 kcal/mol)

>  <smiles>  (72) 
Cc1ccc(S(=O)(=O)n2c(=O)[nH]c3ccc(-c4ccc(CN5CCCCC5)cc4)cc32)cn1

>  <score_type>  (72) 
oracle

>  <origin>  (72) 
adg

>  <m_score__min__energy>  (72) 
-11.289999999999999

>  <m_primary>  (72) 
energy

$$$$
72:0
     RDKit          3D

 45 47  0  0  0  0  0  0  0  0999 V2000
   58.0249   31.3677   51.8300 H   0  0  0  0  0  0  0  0  0  0  0  0
   58.9550   31.3880   51.2430 C   0  0  0  0  0  0  0  0  0  0  0  0
   60.0820   31.6300   51.8370 N   0  0  0  0  0  0  0  0  0  0  0  0
   60.9110   32.6460   51.4120 O   0  0  0  0  0  0  0  0  0  0  0  0
   62.2950   32.4200   51.2020 C   0  0  0  0  0  0  0  0  0  0  0  0
   62.8779   33.1610   51.7688 H   0  0  0  0  0  0  0  0  0  0  0  0
   62.5578   31.4081   51.5441 H   0  0  0  0  0  0  0  0  0  0  0  0
   62.6060   32.5510   49.7390 C   0  0  0  0  0  0  0  0  0  0  0  0
   62.4100   31.4570   48.8810 C   0  0  0  0  0  0  0  0  0  0  0  0
   61.9898   30.5200   49.2752 H   0  0  0  0  0  0  0  0  0  0  0  0
   62.7470   31.5540   47.5270 C   0  0  0  0  0  0  0  0  0  0  0  0
   62.5877   30.6958   46.8576 H   0  0  0  0  0  0  0  0  0  0  0  0
   63.2860   32.7410   47.0250 C   0  0  0  0  0  0  0  0  0  0  0  0
   63.5457   32.8182   45.9589 H   0  0  0  0  0  0  0  0  0  0  0  0
   63.4960   33.8310   47.8750 C   0  0  0  0  0  0  0  0  0  0  0  0
   63.9231   34.7636   47.4778 H   0  0  0  0  0  0  0  0  0  0  0  0
   63.1630   33.7360   49.2310 C   0  0  0  0  0  0  0  0  0  0  0  0
   63.3379   34.5912   49.9003 H   0  0  0  0  0  0  0  0  0  0  0  0
   58.9040   31.1350   49.7630 C   0  0  0  0  0  0  0  0  0  0  0  0
   58.2646   30.2600   49.5744 H   0  0  0  0  0  0  0  0  0  0  0  0
   59.9322   30.9603   49.4133 H   0  0  0  0  0  0  0  0  0  0  0  0
   58.3420   32.3310   48.9950 C   0  0  0  0  0  0  0  0  0  0  0  0
   57.4072   32.6506   49.4787 H   0  0  0  0  0  0  0  0  0  0  0  0
   58.1765   32.0078   47.9567 H   0  0  0  0  0  0  0  0  0  0  0  0
   59.3110   33.5300   48.9570 C   0  0  0  0  0  0  0  0  0  0  0  0
   60.0829   33.3809   49.7264 H   0  0  0  0  0  0  0  0  0  0  0  0
   58.7172   34.4377   49.1400 H   0  0  0  0  0  0  0  0  0  0  0  0
   59.9920   33.6990   47.6190 C   0  0  0  0  0  0  0  0  0  0  0  0
   61.0792   33.8577   47.6727 H   0  0  0  0  0  0  0  0  0  0  0  0
   59.4830   33.6870   46.3660 C   0  0  0  0  0  0  0  0  0  0  0  0
   59.4850   34.8300   45.6390 N   0  0  0  0  0  0  0  0  0  0  0  0
   58.8030   34.6160   44.5250 N   0  0  0  0  0  0  0  0  0  0  0  0
   58.4070   33.3380   44.5830 C   0  0  0  0  0  0  0  0  0  0  0  0
   57.6710   32.7250   43.6330 N   0  0  0  0  0  0  0  0  0  0  0  0
   57.3570   31.4100   43.7650 C   0  0  0  0  0  0  0  0  0  0  0  0
   56.6440   30.8710   42.8750 O   0  0  0  0  0  0  0  0  0  0  0  0
   57.8510   30.6540   44.8690 C   0  0  0  0  0  0  0  0  0  0  0  0
   57.5100   29.3410   44.9760 C   0  0  0  0  0  0  0  0  0  0  0  0
   58.3282   28.6102   44.8952 H   0  0  0  0  0  0  0  0  0  0  0  0
   56.1570   28.7980   45.1890 C   0  0  0  0  0  0  0  0  0  0  0  0
   55.1560   29.4870   44.8660 O   0  0  0  0  0  0  0  0  0  0  0  0
   55.9740   27.4890   45.6180 O   0  0  0  0  0  0  0  0  0  0  0  0
   58.6610   31.3470   45.8210 C   0  0  0  0  0  0  0  0  0  0  0  0
   59.2350   30.7290   46.7470 O   0  0  0  0  0  0  0  0  0  0  0  0
   58.8300   32.6980   45.6850 N   0  0  0  0  0  0  0  0  0  0  0  0
  1  2  1  0
  2  3  2  3
  3  4  1  0
  4  5  1  0
  5  6  1  0
  5  7  1  0
  5  8  1  0
  8  9  2  0
  9 10  1  0
  9 11  1  0
 11 12  1  0
 11 13  2  0
 13 14  1  0
 13 15  1  0
 15 16  1  0
 15 17  2  0
 17 18  1  0
  2 19  1  0
 19 20  1  0
 19 21  1  0
 19 22  1  0
 22 23  1  0
 22 24  1  0
 22 25  1  0
 25 26  1  0
 25 27  1  0
 25 28  1  0
 28 29  1  0
 28 30  2  3
 30 31  1  0
 31 32  1  0
 32 33  2  0
 33 34  1  0
 34 35  1  0
 35 36  2  0
 35 37  1  0
 37 38  2  0
 38 39  1  0
 38 40  1  0
 40 41  2  0
 40 42  1  0
 37 43  1  0
 43 44  2  0
 43 45  1  0
 17  8  1  0
 45 30  1  0
 45 33  1  0
M  CHG  3  31  -1  34  -1  42  -1
M  END
>  <UniqueID>  (73) 
68

>  <SMILES>  (73) 
O=C([O-])/C=c1/c(=O)[n-]c2n[n-]c(=CCCCC=NOCc3ccccc3)n2c1=O

>  <Energy>  (73) 
110.32649141479142

>  <Genealogy>  (73) 
O=C([O-])C=c1c(=O)[n-]c2n[n-]c(=CCCCC=NOCc3ccccc3)n2c1=O (protonated)
O=C([O-])/C=c1/c(=O)[n-]c2n[n-]c(=CCCCC=NOCc3ccccc3)n2c1=O (cis-trans isomerization)
O=C([O-])/C=c1/c(=O)[n-]c2n[n-]c(=CCCCC=NOCc3ccccc3)n2c1=O (3D coordinates assigned)
O=C([O-])/C=c1/c(=O)[n-]c2n[n-]c(=CCCCC=NOCc3ccccc3)n2c1=O (optimized conformer: 110.32649141479142 kcal/mol)

>  <smiles>  (73) 
O=C(O)C=c1c(=O)[nH]c2n[nH]c(=CCCCC=NOCc3ccccc3)n2c1=O

>  <score_type>  (73) 
oracle

>  <origin>  (73) 
adg

>  <m_score__min__energy>  (73) 
-13.08

>  <m_primary>  (73) 
energy

$$$$
73:0
     RDKit          3D

 36 37  0  0  0  0  0  0  0  0999 V2000
   56.5430   27.0560   45.2930 N   0  0  0  0  0  0  0  0  0  0  0  0
   57.4630   27.0250   46.3880 C   0  0  0  0  0  0  0  0  0  0  0  0
   57.3960   26.0720   47.2110 O   0  0  0  0  0  0  0  0  0  0  0  0
   58.4970   28.0750   46.5630 C   0  0  0  0  0  0  0  0  0  0  0  0
   59.0950   28.6650   45.4340 C   0  0  0  0  0  0  0  0  0  0  0  0
   60.0710   29.6540   45.5830 C   0  0  0  0  0  0  0  0  0  0  0  0
   60.4650   30.0800   46.8560 C   0  0  0  0  0  0  0  0  0  0  0  0
   61.4870   31.0840   46.9560 N   0  0  0  0  0  0  0  0  0  0  0  0
   61.4290   32.3060   47.7030 C   0  0  0  0  0  0  0  0  0  0  0  0
   62.0990   32.4540   48.7600 O   0  0  0  0  0  0  0  0  0  0  0  0
   60.5400   33.4150   47.2330 C   0  0  0  0  0  0  0  0  0  0  0  0
   59.1230   32.9130   46.9510 C   0  0  0  0  0  0  0  0  0  0  0  0
   58.2420   34.0400   45.8050 S   0  0  0  0  0  0  0  0  0  0  0  0
   57.6580   32.7490   44.7110 C   0  0  0  0  0  0  0  0  0  0  0  0
   57.8670   32.8510   43.3720 N   0  0  0  0  0  0  0  0  0  0  0  0
   57.4280   31.8880   42.5200 C   0  0  0  0  0  0  0  0  0  0  0  0
   57.6640   32.0190   41.1170 N   0  0  0  0  0  0  0  0  0  0  0  0
   56.7460   30.7760   43.0230 C   0  0  0  0  0  0  0  0  0  0  0  0
   56.5360   30.6930   44.4010 C   0  0  0  0  0  0  0  0  0  0  0  0
   55.9200   29.7100   44.8890 O   0  0  0  0  0  0  0  0  0  0  0  0
   56.9950   31.6770   45.2170 N   0  0  0  0  0  0  0  0  0  0  0  0
   59.8970   29.4680   47.9870 C   0  0  0  0  0  0  0  0  0  0  0  0
   58.9220   28.4780   47.8410 C   0  0  0  0  0  0  0  0  0  0  0  0
   56.6470   27.7310   44.5050 H   0  0  0  0  0  0  0  0  0  0  0  0
   55.7900   26.3360   45.2280 H   0  0  0  0  0  0  0  0  0  0  0  0
   58.7918   28.3451   44.4262 H   0  0  0  0  0  0  0  0  0  0  0  0
   60.5337   30.1017   44.6911 H   0  0  0  0  0  0  0  0  0  0  0  0
   60.4963   34.1924   48.0101 H   0  0  0  0  0  0  0  0  0  0  0  0
   60.9561   33.8199   46.2987 H   0  0  0  0  0  0  0  0  0  0  0  0
   59.1795   31.9120   46.4983 H   0  0  0  0  0  0  0  0  0  0  0  0
   58.5691   32.8761   47.9006 H   0  0  0  0  0  0  0  0  0  0  0  0
   58.6240   32.1930   40.7480 H   0  0  0  0  0  0  0  0  0  0  0  0
   56.8720   31.9390   40.4410 H   0  0  0  0  0  0  0  0  0  0  0  0
   56.3835   29.9855   42.3494 H   0  0  0  0  0  0  0  0  0  0  0  0
   60.2223   29.7705   48.9933 H   0  0  0  0  0  0  0  0  0  0  0  0
   58.4829   28.0096   48.7342 H   0  0  0  0  0  0  0  0  0  0  0  0
  1  2  1  0
  2  3  2  0
  2  4  1  0
  4  5  2  0
  5  6  1  0
  6  7  2  0
  7  8  1  0
  8  9  1  0
  9 10  2  0
  9 11  1  0
 11 12  1  0
 12 13  1  0
 13 14  1  0
 14 15  2  0
 15 16  1  0
 16 17  1  0
 16 18  2  0
 18 19  1  0
 19 20  2  0
 19 21  1  0
  7 22  1  0
 22 23  2  0
 23  4  1  0
 21 14  1  0
  1 24  1  0
  1 25  1  0
  5 26  1  0
  6 27  1  0
 11 28  1  0
 11 29  1  0
 12 30  1  0
 12 31  1  0
 17 32  1  0
 17 33  1  0
 18 34  1  0
 22 35  1  0
 23 36  1  0
M  CHG  2   8  -1  21  -1
M  END
>  <UniqueID>  (74) 
69

>  <SMILES>  (74) 
NC(=O)c1ccc([N-]C(=O)CCSc2nc(N)cc(=O)[n-]2)cc1

>  <Energy>  (74) 
33.9596685861108

>  <Genealogy>  (74) 
NC(=O)c1ccc([N-]C(=O)CCSc2nc(N)cc(=O)[n-]2)cc1 (protonated)
NC(=O)c1ccc([N-]C(=O)CCSc2nc(N)cc(=O)[n-]2)cc1 (3D coordinates assigned)
NC(=O)c1ccc([N-]C(=O)CCSc2nc(N)cc(=O)[n-]2)cc1 (optimized conformer: 33.9596685861108 kcal/mol)

>  <smiles>  (74) 
NC(=O)c1ccc(NC(=O)CCSc2nc(N)cc(=O)[nH]2)cc1

>  <score_type>  (74) 
oracle

>  <origin>  (74) 
adg

>  <m_score__min__energy>  (74) 
-10.710000000000001

>  <m_primary>  (74) 
energy

$$$$
74:0
     RDKit          3D

 55 58  0  0  0  0  0  0  0  0999 V2000
   55.9780   28.5970   45.0290 O   0  0  0  0  0  0  0  0  0  0  0  0
   57.1610   28.3300   45.3730 C   0  0  0  0  0  0  0  0  0  0  0  0
   58.2910   28.7070   44.4540 C   0  0  0  0  0  0  0  0  0  0  0  0
   58.0350   29.9880   43.7900 N   0  0  0  0  0  0  0  0  0  0  0  0
   58.1470   31.2570   44.4590 C   0  0  0  0  0  0  0  0  0  0  0  0
   57.8130   32.4580   43.8200 C   0  0  0  0  0  0  0  0  0  0  0  0
   57.9160   33.6710   44.5010 C   0  0  0  0  0  0  0  0  0  0  0  0
   58.3630   33.7110   45.8240 C   0  0  0  0  0  0  0  0  0  0  0  0
   58.4450   34.9480   46.4640 O   0  0  0  0  0  0  0  0  0  0  0  0
   58.7160   32.5150   46.4700 C   0  0  0  0  0  0  0  0  0  0  0  0
   59.3190   32.4990   48.1620 S   0  0  0  0  0  0  0  0  0  0  0  0
   61.0330   32.6060   47.6640 C   0  0  0  0  0  0  0  0  0  0  0  0
   61.5180   33.7700   47.0490 C   0  0  0  0  0  0  0  0  0  0  0  0
   62.8530   33.8660   46.6730 C   0  0  0  0  0  0  0  0  0  0  0  0
   63.7160   32.7820   46.9040 C   0  0  0  0  0  0  0  0  0  0  0  0
   63.2330   31.6160   47.5100 C   0  0  0  0  0  0  0  0  0  0  0  0
   61.8940   31.5300   47.8920 C   0  0  0  0  0  0  0  0  0  0  0  0
   58.5950   31.2990   45.7870 C   0  0  0  0  0  0  0  0  0  0  0  0
   57.3760   27.6890   46.6360 N   0  0  0  0  0  0  0  0  0  0  0  0
   58.4660   27.9040   47.5390 C   0  0  0  0  0  0  0  0  0  0  0  0
   59.4320   26.9130   47.7780 C   0  0  0  0  0  0  0  0  0  0  0  0
   60.4500   27.1340   48.7100 C   0  0  0  0  0  0  0  0  0  0  0  0
   60.5000   28.3320   49.4390 C   0  0  0  0  0  0  0  0  0  0  0  0
   61.4910   28.5330   50.4580 N   0  0  0  0  0  0  0  0  0  0  0  0
   61.9820   29.8890   50.7120 C   0  0  0  0  0  0  0  0  0  0  0  0
   63.3750   29.8190   51.3410 C   0  0  0  0  0  0  0  0  0  0  0  0
   63.3760   28.9700   52.4720 O   0  0  0  0  0  0  0  0  0  0  0  0
   63.0920   27.6420   52.0830 C   0  0  0  0  0  0  0  0  0  0  0  0
   61.6740   27.5340   51.5120 C   0  0  0  0  0  0  0  0  0  0  0  0
   59.5300   29.3150   49.2040 C   0  0  0  0  0  0  0  0  0  0  0  0
   58.5160   29.0990   48.2670 C   0  0  0  0  0  0  0  0  0  0  0  0
   59.2181   28.7869   45.0407 H   0  0  0  0  0  0  0  0  0  0  0  0
   58.3837   27.9291   43.6818 H   0  0  0  0  0  0  0  0  0  0  0  0
   57.7760   29.9850   42.7790 H   0  0  0  0  0  0  0  0  0  0  0  0
   57.4677   32.4445   42.7757 H   0  0  0  0  0  0  0  0  0  0  0  0
   57.6423   34.6063   43.9908 H   0  0  0  0  0  0  0  0  0  0  0  0
   58.9850   35.0910   47.3090 H   0  0  0  0  0  0  0  0  0  0  0  0
   60.8367   34.6133   46.8629 H   0  0  0  0  0  0  0  0  0  0  0  0
   63.2305   34.7837   46.1983 H   0  0  0  0  0  0  0  0  0  0  0  0
   64.7733   32.8494   46.6082 H   0  0  0  0  0  0  0  0  0  0  0  0
   63.9100   30.7668   47.6851 H   0  0  0  0  0  0  0  0  0  0  0  0
   61.5165   30.6153   48.3725 H   0  0  0  0  0  0  0  0  0  0  0  0
   58.8555   30.3616   46.3003 H   0  0  0  0  0  0  0  0  0  0  0  0
   59.3874   25.9602   47.2302 H   0  0  0  0  0  0  0  0  0  0  0  0
   61.2176   26.3632   48.8732 H   0  0  0  0  0  0  0  0  0  0  0  0
   62.0358   30.4430   49.7632 H   0  0  0  0  0  0  0  0  0  0  0  0
   61.2952   30.4042   51.3997 H   0  0  0  0  0  0  0  0  0  0  0  0
   64.0865   29.4298   50.5979 H   0  0  0  0  0  0  0  0  0  0  0  0
   63.6676   30.8301   51.6604 H   0  0  0  0  0  0  0  0  0  0  0  0
   63.8148   27.3286   51.3153 H   0  0  0  0  0  0  0  0  0  0  0  0
   63.1667   26.9918   52.9671 H   0  0  0  0  0  0  0  0  0  0  0  0
   61.5239   26.5281   51.0929 H   0  0  0  0  0  0  0  0  0  0  0  0
   60.9429   27.7118   52.3144 H   0  0  0  0  0  0  0  0  0  0  0  0
   59.5667   30.2631   49.7606 H   0  0  0  0  0  0  0  0  0  0  0  0
   57.7522   29.8728   48.1003 H   0  0  0  0  0  0  0  0  0  0  0  0
  1  2  2  0
  2  3  1  0
  3  4  1  0
  4  5  1  0
  5  6  2  0
  6  7  1  0
  7  8  2  0
  8  9  1  0
  8 10  1  0
 10 11  1  0
 11 12  1  0
 12 13  2  0
 13 14  1  0
 14 15  2  0
 15 16  1  0
 16 17  2  0
 10 18  2  0
  2 19  1  0
 19 20  1  0
 20 21  2  0
 21 22  1  0
 22 23  2  0
 23 24  1  0
 24 25  1  0
 25 26  1  0
 26 27  1  0
 27 28  1  0
 28 29  1  0
 23 30  1  0
 30 31  2  0
 18  5  1  0
 31 20  1  0
 17 12  1  0
 29 24  1  0
  3 32  1  0
  3 33  1  0
  4 34  1  0
  6 35  1  0
  7 36  1  0
  9 37  1  0
 13 38  1  0
 14 39  1  0
 15 40  1  0
 16 41  1  0
 17 42  1  0
 18 43  1  0
 21 44  1  0
 22 45  1  0
 25 46  1  0
 25 47  1  0
 26 48  1  0
 26 49  1  0
 28 50  1  0
 28 51  1  0
 29 52  1  0
 29 53  1  0
 30 54  1  0
 31 55  1  0
M  CHG  1  19  -1
M  END
>  <UniqueID>  (75) 
70

>  <SMILES>  (75) 
O=C(CNc1ccc(O)c(Sc2ccccc2)c1)[N-]c1ccc(N2CCOCC2)cc1

>  <Energy>  (75) 
62.05477667458441

>  <Genealogy>  (75) 
O=C(CNc1ccc(O)c(Sc2ccccc2)c1)[N-]c1ccc(N2CCOCC2)cc1 (protonated)
O=C(CNc1ccc(O)c(Sc2ccccc2)c1)[N-]c1ccc(N2CCOCC2)cc1 (3D coordinates assigned)
O=C(CNc1ccc(O)c(Sc2ccccc2)c1)[N-]c1ccc(N2CCOCC2)cc1 (nonaromatic ring conformer: 62.05477667458441 kcal/mol)

>  <smiles>  (75) 
O=C(CNc1ccc(O)c(Sc2ccccc2)c1)Nc1ccc(N2CCOCC2)cc1

>  <score_type>  (75) 
oracle

>  <origin>  (75) 
adg

>  <m_score__min__energy>  (75) 
-10.609999999999999

>  <m_primary>  (75) 
energy

$$$$
75:0
     RDKit          3D

 57 60  0  0  0  0  0  0  0  0999 V2000
   66.7390   32.7660   50.5790 C   0  0  0  0  0  0  0  0  0  0  0  0
   65.7820   32.8590   49.5320 O   0  0  0  0  0  0  0  0  0  0  0  0
   64.5250   32.2500   49.6040 C   0  0  0  0  0  0  0  0  0  0  0  0
   64.3410   31.2450   50.3420 O   0  0  0  0  0  0  0  0  0  0  0  0
   63.4110   32.7870   48.8130 C   0  0  0  0  0  0  0  0  0  0  0  0
   63.3750   32.8950   47.4280 C   0  0  0  0  0  0  0  0  0  0  0  0
   62.1770   33.4360   46.9470 C   0  0  0  0  0  0  0  0  0  0  0  0
   61.2760   33.7660   47.9550 C   0  0  0  0  0  0  0  0  0  0  0  0
   59.8930   34.3330   47.7580 C   0  0  0  0  0  0  0  0  0  0  0  0
   59.1790   33.7960   46.5740 N   0  0  0  0  0  0  0  0  0  0  0  0
   59.3780   34.6270   45.3660 C   0  0  0  0  0  0  0  0  0  0  0  0
   58.9250   33.8540   44.1180 C   0  0  0  0  0  0  0  0  0  0  0  0
   57.7540   33.0200   44.4190 N   0  0  0  0  0  0  0  0  0  0  0  0
   57.4400   31.9100   43.5510 C   0  0  0  0  0  0  0  0  0  0  0  0
   57.8220   31.9340   42.3490 O   0  0  0  0  0  0  0  0  0  0  0  0
   56.7010   30.6960   44.0450 C   0  0  0  0  0  0  0  0  0  0  0  0
   57.4380   30.0460   45.1760 C   0  0  0  0  0  0  0  0  0  0  0  0
   58.4630   30.6430   45.8210 N   0  0  0  0  0  0  0  0  0  0  0  0
   58.8520   29.7190   46.7160 C   0  0  0  0  0  0  0  0  0  0  0  0
   60.0210   29.8880   47.6340 C   0  0  0  0  0  0  0  0  0  0  0  0
   59.5510   30.3350   48.9950 C   0  0  0  0  0  0  0  0  0  0  0  0
   58.8620   31.5560   49.1130 C   0  0  0  0  0  0  0  0  0  0  0  0
   58.4510   32.0220   50.3640 C   0  0  0  0  0  0  0  0  0  0  0  0
   58.7270   31.2790   51.5120 C   0  0  0  0  0  0  0  0  0  0  0  0
   59.4220   30.0720   51.4120 C   0  0  0  0  0  0  0  0  0  0  0  0
   59.8460   29.5980   50.1650 C   0  0  0  0  0  0  0  0  0  0  0  0
   60.7590   28.0950   50.1140 Cl  0  0  0  0  0  0  0  0  0  0  0  0
   58.0700   28.5950   46.5910 C   0  0  0  0  0  0  0  0  0  0  0  0
   57.1660   28.7980   45.6170 N   0  0  0  0  0  0  0  0  0  0  0  0
   56.9020   33.3960   45.5550 C   0  0  0  0  0  0  0  0  0  0  0  0
   57.7390   33.5470   46.8440 C   0  0  0  0  0  0  0  0  0  0  0  0
   61.9590   33.3600   49.4400 S   0  0  0  0  0  0  0  0  0  0  0  0
   66.2256   32.8159   51.5505 H   0  0  0  0  0  0  0  0  0  0  0  0
   67.2791   31.8111   50.4983 H   0  0  0  0  0  0  0  0  0  0  0  0
   67.4529   33.5990   50.4983 H   0  0  0  0  0  0  0  0  0  0  0  0
   64.2048   32.5863   46.7752 H   0  0  0  0  0  0  0  0  0  0  0  0
   61.9682   33.5856   45.8774 H   0  0  0  0  0  0  0  0  0  0  0  0
   59.2960   34.1054   48.6534 H   0  0  0  0  0  0  0  0  0  0  0  0
   60.0150   35.4133   47.5906 H   0  0  0  0  0  0  0  0  0  0  0  0
   59.6210   32.8630   46.3840 H   0  0  0  0  0  0  0  0  0  0  0  0
   58.7872   35.5504   45.4573 H   0  0  0  0  0  0  0  0  0  0  0  0
   60.4452   34.8758   45.2699 H   0  0  0  0  0  0  0  0  0  0  0  0
   58.6637   34.5702   43.3250 H   0  0  0  0  0  0  0  0  0  0  0  0
   59.7475   33.2021   43.7885 H   0  0  0  0  0  0  0  0  0  0  0  0
   55.7023   30.9988   44.3926 H   0  0  0  0  0  0  0  0  0  0  0  0
   56.6174   29.9746   43.2188 H   0  0  0  0  0  0  0  0  0  0  0  0
   60.5506   28.9286   47.7290 H   0  0  0  0  0  0  0  0  0  0  0  0
   60.6975   30.6496   47.2188 H   0  0  0  0  0  0  0  0  0  0  0  0
   58.6451   32.1488   48.2122 H   0  0  0  0  0  0  0  0  0  0  0  0
   57.9091   32.9759   50.4441 H   0  0  0  0  0  0  0  0  0  0  0  0
   58.3972   31.6439   52.4959 H   0  0  0  0  0  0  0  0  0  0  0  0
   59.6379   29.4894   52.3197 H   0  0  0  0  0  0  0  0  0  0  0  0
   58.1682   27.6782   47.1908 H   0  0  0  0  0  0  0  0  0  0  0  0
   56.4067   34.3527   45.3328 H   0  0  0  0  0  0  0  0  0  0  0  0
   56.1546   32.6043   45.7115 H   0  0  0  0  0  0  0  0  0  0  0  0
   57.3398   34.3918   47.4245 H   0  0  0  0  0  0  0  0  0  0  0  0
   57.6665   32.5989   47.3970 H   0  0  0  0  0  0  0  0  0  0  0  0
  1  2  1  0
  2  3  1  0
  3  4  2  0
  3  5  1  0
  5  6  2  0
  6  7  1  0
  7  8  2  0
  8  9  1  0
  9 10  1  0
 10 11  1  0
 11 12  1  0
 12 13  1  0
 13 14  1  0
 14 15  2  0
 14 16  1  0
 16 17  1  0
 17 18  2  0
 18 19  1  0
 19 20  1  0
 20 21  1  0
 21 22  2  0
 22 23  1  0
 23 24  2  0
 24 25  1  0
 25 26  2  0
 26 27  1  0
 19 28  2  0
 28 29  1  0
 13 30  1  0
 30 31  1  0
  8 32  1  0
 32  5  1  0
 31 10  1  0
 29 17  1  0
 26 21  1  0
  1 33  1  0
  1 34  1  0
  1 35  1  0
  6 36  1  0
  7 37  1  0
  9 38  1  0
  9 39  1  0
 10 40  1  0
 11 41  1  0
 11 42  1  0
 12 43  1  0
 12 44  1  0
 16 45  1  0
 16 46  1  0
 20 47  1  0
 20 48  1  0
 22 49  1  0
 23 50  1  0
 24 51  1  0
 25 52  1  0
 28 53  1  0
 30 54  1  0
 30 55  1  0
 31 56  1  0
 31 57  1  0
M  CHG  2  10   1  29  -1
M  END
>  <UniqueID>  (76) 
71

>  <SMILES>  (76) 
COC(=O)c1ccc(C[NH+]2CCN(C(=O)Cc3nc(Cc4ccccc4Cl)c[n-]3)CC2)s1

>  <Energy>  (76) 
111.4654645332954

>  <Genealogy>  (76) 
COC(=O)c1ccc(C[NH+]2CCN(C(=O)Cc3nc(Cc4ccccc4Cl)c[n-]3)CC2)s1 (protonated)
COC(=O)c1ccc(C[NH+]2CCN(C(=O)Cc3nc(Cc4ccccc4Cl)c[n-]3)CC2)s1 (3D coordinates assigned)
COC(=O)c1ccc(C[NH+]2CCN(C(=O)Cc3nc(Cc4ccccc4Cl)c[n-]3)CC2)s1 (nonaromatic ring conformer: 111.4654645332954 kcal/mol)

>  <smiles>  (76) 
COC(=O)c1ccc(CN2CCN(C(=O)Cc3nc(Cc4ccccc4Cl)c[nH]3)CC2)s1

>  <score_type>  (76) 
oracle

>  <origin>  (76) 
adg

>  <m_score__min__energy>  (76) 
-8.0600000000000005

>  <m_primary>  (76) 
energy

$$$$
76:0
     RDKit          3D

 40 42  0  0  0  0  0  0  0  0999 V2000
   54.7870   26.7030   45.0260 H   0  0  0  0  0  0  0  0  0  0  0  0
   54.8270   26.3150   45.9950 N   0  0  0  0  0  0  0  0  0  0  0  0
   55.6500   25.1920   46.3010 C   0  0  0  0  0  0  0  0  0  0  0  0
   55.9800   24.9740   47.4980 O   0  0  0  0  0  0  0  0  0  0  0  0
   56.1640   24.3220   45.2210 C   0  0  0  0  0  0  0  0  0  0  0  0
   55.2420   23.7000   44.3590 C   0  0  0  0  0  0  0  0  0  0  0  0
   54.1712   23.9368   44.4438 H   0  0  0  0  0  0  0  0  0  0  0  0
   55.6740   22.7850   43.3970 C   0  0  0  0  0  0  0  0  0  0  0  0
   54.9444   22.3073   42.7266 H   0  0  0  0  0  0  0  0  0  0  0  0
   57.0290   22.4760   43.2850 C   0  0  0  0  0  0  0  0  0  0  0  0
   57.3649   21.7392   42.5405 H   0  0  0  0  0  0  0  0  0  0  0  0
   57.9600   23.1010   44.1170 C   0  0  0  0  0  0  0  0  0  0  0  0
   59.0263   22.8450   44.0311 H   0  0  0  0  0  0  0  0  0  0  0  0
   57.5480   24.0510   45.0600 C   0  0  0  0  0  0  0  0  0  0  0  0
   58.5390   24.7040   45.8050 O   0  0  0  0  0  0  0  0  0  0  0  0
   58.5560   26.0720   46.1230 C   0  0  0  0  0  0  0  0  0  0  0  0
   58.8430   26.4250   47.4480 C   0  0  0  0  0  0  0  0  0  0  0  0
   59.0622   25.6383   48.1849 H   0  0  0  0  0  0  0  0  0  0  0  0
   58.8540   27.7640   47.8440 C   0  0  0  0  0  0  0  0  0  0  0  0
   59.0463   28.0222   48.8958 H   0  0  0  0  0  0  0  0  0  0  0  0
   58.6220   28.7770   46.9110 C   0  0  0  0  0  0  0  0  0  0  0  0
   58.5850   30.1420   47.3550 N   0  0  0  0  0  0  0  0  0  0  0  0
   59.5950   30.9520   47.5220 C   0  0  0  0  0  0  0  0  0  0  0  0
   60.8500   30.4630   47.3450 N   0  0  0  0  0  0  0  0  0  0  0  0
   61.9620   31.2310   47.4890 C   0  0  0  0  0  0  0  0  0  0  0  0
   62.9571   30.7866   47.3394 H   0  0  0  0  0  0  0  0  0  0  0  0
   61.8470   32.5900   47.8280 C   0  0  0  0  0  0  0  0  0  0  0  0
   63.0410   33.4550   47.9870 C   0  0  0  0  0  0  0  0  0  0  0  0
   62.9410   34.5490   48.6070 O   0  0  0  0  0  0  0  0  0  0  0  0
   64.3170   33.0740   47.4650 N   0  0  0  0  0  0  0  0  0  0  0  0
   64.4920   32.1190   47.0830 H   0  0  0  0  0  0  0  0  0  0  0  0
   65.1270   33.7290   47.5400 H   0  0  0  0  0  0  0  0  0  0  0  0
   60.5590   33.1260   47.9840 C   0  0  0  0  0  0  0  0  0  0  0  0
   60.4368   34.1917   48.2277 H   0  0  0  0  0  0  0  0  0  0  0  0
   59.4320   32.3160   47.8320 C   0  0  0  0  0  0  0  0  0  0  0  0
   58.4243   32.7401   47.9535 H   0  0  0  0  0  0  0  0  0  0  0  0
   58.3330   28.4360   45.5810 C   0  0  0  0  0  0  0  0  0  0  0  0
   58.1136   29.2292   44.8511 H   0  0  0  0  0  0  0  0  0  0  0  0
   58.3210   27.0960   45.1730 C   0  0  0  0  0  0  0  0  0  0  0  0
   58.0970   26.7730   43.4570 Cl  0  0  0  0  0  0  0  0  0  0  0  0
  1  2  1  0
  2  3  1  0
  3  4  2  0
  3  5  1  0
  5  6  2  0
  6  7  1  0
  6  8  1  0
  8  9  1  0
  8 10  2  0
 10 11  1  0
 10 12  1  0
 12 13  1  0
 12 14  2  0
 14 15  1  0
 15 16  1  0
 16 17  2  0
 17 18  1  0
 17 19  1  0
 19 20  1  0
 19 21  2  0
 21 22  1  0
 22 23  2  0
 23 24  1  0
 24 25  1  0
 25 26  1  0
 25 27  2  0
 27 28  1  0
 28 29  2  0
 28 30  1  0
 30 31  1  0
 30 32  1  0
 27 33  1  0
 33 34  1  0
 33 35  2  0
 35 36  1  0
 21 37  1  0
 37 38  1  0
 37 39  2  0
 39 40  1  0
 14  5  1  0
 39 16  1  0
 35 23  1  0
M  CHG  2   2  -1  24  -1
M  END
>  <UniqueID>  (77) 
72

>  <SMILES>  (77) 
[NH-]C(=O)c1ccccc1Oc1ccc(/N=c2\ccc(C(N)=O)c[n-]2)cc1Cl

>  <Energy>  (77) 
69.15593895595669

>  <Genealogy>  (77) 
[NH-]C(=O)c1ccccc1Oc1ccc(N=c2ccc(C(N)=O)c[n-]2)cc1Cl (protonated)
[NH-]C(=O)c1ccccc1Oc1ccc(/N=c2\ccc(C(N)=O)c[n-]2)cc1Cl (cis-trans isomerization)
[NH-]C(=O)c1ccccc1Oc1ccc(/N=c2\ccc(C(N)=O)c[n-]2)cc1Cl (3D coordinates assigned)
[NH-]C(=O)c1ccccc1Oc1ccc(/N=c2\ccc(C(N)=O)c[n-]2)cc1Cl (optimized conformer: 69.15593895595669 kcal/mol)

>  <smiles>  (77) 
NC(=O)c1ccc(=Nc2ccc(Oc3ccccc3C(N)=O)c(Cl)c2)[nH]c1

>  <score_type>  (77) 
oracle

>  <origin>  (77) 
adg

>  <m_score__min__energy>  (77) 
-12.029999999999999

>  <m_primary>  (77) 
energy

$$$$
77:0
     RDKit          3D

 48 51  0  0  1  0  0  0  0  0999 V2000
   59.6010   35.5740   46.7500 C   0  0  0  0  0  0  0  0  0  0  0  0
   59.1800   34.1290   46.8370 C   0  0  0  0  0  0  0  0  0  0  0  0
   58.6700   33.4590   45.8440 N   0  0  0  0  0  0  0  0  0  0  0  0
   58.3090   32.3280   45.8060 C   0  0  0  0  0  0  0  0  0  0  0  0
   57.7230   31.3830   44.8390 C   0  0  0  0  0  0  0  0  0  0  0  0
   57.5420   31.8840   43.5580 C   0  0  0  0  0  0  0  0  0  0  0  0
   57.0040   31.0500   42.6160 C   0  0  0  0  0  0  0  0  0  0  0  0
   56.6620   29.7550   42.9610 C   0  0  0  0  0  0  0  0  0  0  0  0
   56.1270   28.9560   41.9840 F   0  0  0  0  0  0  0  0  0  0  0  0
   56.8420   29.2520   44.2420 C   0  0  0  0  0  0  0  0  0  0  0  0
   57.3910   30.1020   45.2040 C   0  0  0  0  0  0  0  0  0  0  0  0
   58.6720   31.7850   47.5510 S   0  0  0  0  0  0  0  0  0  0  0  0
   59.3060   33.3780   48.0140 C   0  0  0  0  0  0  0  0  0  0  0  0
   59.8370   33.8010   49.3270 C   0  0  0  0  0  0  0  0  0  0  0  0
   59.9290   32.7300   50.2660 N   0  0  0  0  0  0  0  0  0  0  0  0
   58.9230   32.4540   51.0110 C   0  0  0  0  0  0  0  0  0  0  0  0
   57.9170   31.5260   50.8700 C   0  0  0  0  0  0  0  0  0  0  0  0
   57.0800   31.6360   51.9620 C   0  0  0  0  0  0  0  0  0  0  0  0
   55.8820   30.8530   52.2440 C   0  0  0  0  0  0  0  0  0  0  0  0
   55.9970   29.7780   53.1020 C   0  0  0  0  0  0  0  0  0  0  0  0
   54.8670   29.0030   53.3880 C   0  0  0  0  0  0  0  0  0  0  0  0
   53.6700   29.3720   52.7770 C   0  0  0  0  0  0  0  0  0  0  0  0
   53.5660   30.4390   51.9280 C   0  0  0  0  0  0  0  0  0  0  0  0
   51.9890   30.7990   51.2140 S   0  0  0  0  0  0  0  0  0  0  0  0
   51.7820   29.8440   49.8040 N   0  0  0  0  0  0  0  0  0  0  0  0
   51.8850   32.2600   50.9440 O   0  0  0  0  0  0  0  0  0  0  0  0
   50.9250   30.3860   52.2060 O   0  0  0  0  0  0  0  0  0  0  0  0
   54.6780   31.1860   51.6580 C   0  0  0  0  0  0  0  0  0  0  0  0
   57.5760   32.6160   52.7430 N   0  0  0  0  0  0  0  0  0  0  0  0
   58.6680   33.0970   52.1740 N   0  0  0  0  0  0  0  0  0  0  0  0
   59.7201   35.9829   47.7642 H   0  0  0  0  0  0  0  0  0  0  0  0
   60.5573   35.6455   46.2112 H   0  0  0  0  0  0  0  0  0  0  0  0
   58.8327   36.1479   46.2112 H   0  0  0  0  0  0  0  0  0  0  0  0
   57.8219   32.9180   43.3077 H   0  0  0  0  0  0  0  0  0  0  0  0
   56.8441   31.4081   41.5883 H   0  0  0  0  0  0  0  0  0  0  0  0
   56.5614   28.2180   44.4911 H   0  0  0  0  0  0  0  0  0  0  0  0
   57.5543   29.7521   46.2340 H   0  0  0  0  0  0  0  0  0  0  0  0
   60.8417   34.2235   49.1785 H   0  0  0  0  0  0  0  0  0  0  0  0
   59.1359   34.5405   49.7411 H   0  0  0  0  0  0  0  0  0  0  0  0
   57.8003   30.8206   50.0341 H   0  0  0  0  0  0  0  0  0  0  0  0
   56.9679   29.5325   53.5570 H   0  0  0  0  0  0  0  0  0  0  0  0
   54.9215   28.1389   54.0666 H   0  0  0  0  0  0  0  0  0  0  0  0
   52.7682   28.7782   52.9871 H   0  0  0  0  0  0  0  0  0  0  0  0
   51.9910   28.8420   49.9470 H   0  0  0  0  0  0  0  0  0  0  0  0
   52.3230   30.2240   48.9960 H   0  0  0  0  0  0  0  0  0  0  0  0
   54.6136   32.0478   50.9774 H   0  0  0  0  0  0  0  0  0  0  0  0
   57.1930   32.9560   53.6370 H   0  0  0  0  0  0  0  0  0  0  0  0
   59.2590   33.8800   52.5820 H   0  0  0  0  0  0  0  0  0  0  0  0
  1  2  1  0
  2  3  1  0
  3  4  2  0
  4  5  1  0
  5  6  2  0
  6  7  1  0
  7  8  2  0
  8  9  1  0
  8 10  1  0
 10 11  2  0
  4 12  1  0
 12 13  1  0
 13 14  1  0
 14 15  1  0
 15 16  2  0
 16 17  1  0
 17 18  2  0
 18 19  1  0
 19 20  2  0
 20 21  1  0
 21 22  2  0
 22 23  1  0
 23 24  1  0
 24 25  1  0
 24 26  2  0
 24 27  2  0
 23 28  2  0
 18 29  1  0
 29 30  1  0
 13  2  2  0
 30 16  1  0
 11  5  1  0
 28 19  1  0
  1 31  1  0
  1 32  1  0
  1 33  1  0
  6 34  1  0
  7 35  1  0
 10 36  1  0
 11 37  1  0
 14 38  1  0
 14 39  1  0
 17 40  1  0
 20 41  1  0
 21 42  1  0
 22 43  1  0
 25 44  1  0
 25 45  1  0
 28 46  1  0
 29 47  1  0
 30 48  1  0
M  END
>  <smiles>  (78) 
Cc1nc(-c2ccc(F)cc2)sc1CN=c1cc(-c2cccc(S(N)(=O)=O)c2)[nH][nH]1

>  <score_type>  (78) 
oracle

>  <origin>  (78) 
adg

>  <m_score__min__energy>  (78) 
-10.119999999999999

>  <m_primary>  (78) 
energy

$$$$
78:0
     RDKit          3D

 46 49  0  0  0  0  0  0  0  0999 V2000
   62.8080   33.5160   49.3390 O   0  0  0  0  0  0  0  0  0  0  0  0
   62.0780   32.9770   48.4650 C   0  0  0  0  0  0  0  0  0  0  0  0
   62.6460   31.9480   47.5310 C   0  0  0  0  0  0  0  0  0  0  0  0
   61.5820   30.9120   47.1450 C   0  0  0  0  0  0  0  0  0  0  0  0
   60.2750   31.5570   46.7460 C   0  0  0  0  0  0  0  0  0  0  0  0
   59.4160   30.9200   45.8390 C   0  0  0  0  0  0  0  0  0  0  0  0
   58.1670   31.4770   45.5340 C   0  0  0  0  0  0  0  0  0  0  0  0
   57.1050   30.6820   44.3680 S   0  0  0  0  0  0  0  0  0  0  0  0
   55.7020   31.1880   44.5550 O   0  0  0  0  0  0  0  0  0  0  0  0
   57.5430   31.0320   42.9730 O   0  0  0  0  0  0  0  0  0  0  0  0
   57.1240   28.9470   44.5650 N   0  0  0  0  0  0  0  0  0  0  0  0
   58.1210   28.3370   43.6590 C   0  0  0  0  0  0  0  0  0  0  0  0
   58.5200   26.9080   44.0850 C   0  0  0  0  0  0  0  0  0  0  0  0
   57.5180   26.3280   44.9900 N   0  0  0  0  0  0  0  0  0  0  0  0
   57.0220   24.9910   44.7840 C   0  0  0  0  0  0  0  0  0  0  0  0
   57.0270   24.4210   43.4990 C   0  0  0  0  0  0  0  0  0  0  0  0
   56.5350   23.1280   43.2970 C   0  0  0  0  0  0  0  0  0  0  0  0
   56.0270   22.3950   44.3720 C   0  0  0  0  0  0  0  0  0  0  0  0
   55.5380   21.1100   44.1690 O   0  0  0  0  0  0  0  0  0  0  0  0
   56.0090   22.9570   45.6520 C   0  0  0  0  0  0  0  0  0  0  0  0
   56.5010   24.2490   45.8580 C   0  0  0  0  0  0  0  0  0  0  0  0
   57.0900   27.1010   46.1650 C   0  0  0  0  0  0  0  0  0  0  0  0
   57.3800   28.5930   45.9680 C   0  0  0  0  0  0  0  0  0  0  0  0
   57.7650   32.6640   46.1620 C   0  0  0  0  0  0  0  0  0  0  0  0
   58.6070   33.2930   47.0820 C   0  0  0  0  0  0  0  0  0  0  0  0
   59.8600   32.7460   47.3760 C   0  0  0  0  0  0  0  0  0  0  0  0
   60.7240   33.4030   48.3080 N   0  0  0  0  0  0  0  0  0  0  0  0
   63.0081   32.4486   46.6209 H   0  0  0  0  0  0  0  0  0  0  0  0
   63.4726   31.4301   48.0395 H   0  0  0  0  0  0  0  0  0  0  0  0
   61.9568   30.3180   46.2984 H   0  0  0  0  0  0  0  0  0  0  0  0
   61.3917   30.2798   48.0248 H   0  0  0  0  0  0  0  0  0  0  0  0
   59.7246   29.9771   45.3640 H   0  0  0  0  0  0  0  0  0  0  0  0
   57.6961   28.2959   42.6452 H   0  0  0  0  0  0  0  0  0  0  0  0
   59.0273   28.9593   43.6963 H   0  0  0  0  0  0  0  0  0  0  0  0
   58.6037   26.2758   43.1887 H   0  0  0  0  0  0  0  0  0  0  0  0
   59.4831   26.9566   44.6142 H   0  0  0  0  0  0  0  0  0  0  0  0
   57.4203   24.9956   42.6475 H   0  0  0  0  0  0  0  0  0  0  0  0
   56.5480   22.6870   42.2893 H   0  0  0  0  0  0  0  0  0  0  0  0
   55.6069   22.3813   46.4987 H   0  0  0  0  0  0  0  0  0  0  0  0
   56.4803   24.6876   46.8666 H   0  0  0  0  0  0  0  0  0  0  0  0
   56.0095   26.9602   46.3157 H   0  0  0  0  0  0  0  0  0  0  0  0
   57.6479   26.7457   47.0440 H   0  0  0  0  0  0  0  0  0  0  0  0
   56.7255   29.1860   46.6237 H   0  0  0  0  0  0  0  0  0  0  0  0
   58.4296   28.8049   46.2200 H   0  0  0  0  0  0  0  0  0  0  0  0
   56.7830   33.1017   45.9295 H   0  0  0  0  0  0  0  0  0  0  0  0
   58.2837   34.2209   47.5765 H   0  0  0  0  0  0  0  0  0  0  0  0
  1  2  2  0
  2  3  1  0
  3  4  1  0
  4  5  1  0
  5  6  2  0
  6  7  1  0
  7  8  1  0
  8  9  2  0
  8 10  2  0
  8 11  1  0
 11 12  1  0
 12 13  1  0
 13 14  1  0
 14 15  1  0
 15 16  2  0
 16 17  1  0
 17 18  2  0
 18 19  1  0
 18 20  1  0
 20 21  2  0
 14 22  1  0
 22 23  1  0
  7 24  2  0
 24 25  1  0
 25 26  2  0
 26 27  1  0
 27  2  1  0
 26  5  1  0
 23 11  1  0
 21 15  1  0
  3 28  1  0
  3 29  1  0
  4 30  1  0
  4 31  1  0
  6 32  1  0
 12 33  1  0
 12 34  1  0
 13 35  1  0
 13 36  1  0
 16 37  1  0
 17 38  1  0
 20 39  1  0
 21 40  1  0
 22 41  1  0
 22 42  1  0
 23 43  1  0
 23 44  1  0
 24 45  1  0
 25 46  1  0
M  CHG  2  19  -1  27  -1
M  END
>  <UniqueID>  (79) 
73

>  <SMILES>  (79) 
O=C1CCc2cc(S(=O)(=O)N3CCN(c4ccc([O-])cc4)CC3)ccc2[N-]1

>  <Energy>  (79) 
56.90856235202435

>  <Genealogy>  (79) 
O=C1CCc2cc(S(=O)(=O)N3CCN(c4ccc([O-])cc4)CC3)ccc2[N-]1 (protonated)
O=C1CCc2cc(S(=O)(=O)N3CCN(c4ccc([O-])cc4)CC3)ccc2[N-]1 (3D coordinates assigned)
O=C1CCc2cc(S(=O)(=O)N3CCN(c4ccc([O-])cc4)CC3)ccc2[N-]1 (nonaromatic ring conformer: 56.90856235202435 kcal/mol)

>  <smiles>  (79) 
O=C1CCc2cc(S(=O)(=O)N3CCN(c4ccc(O)cc4)CC3)ccc2N1

>  <score_type>  (79) 
oracle

>  <origin>  (79) 
adg

>  <m_score__min__energy>  (79) 
-11.08

>  <m_primary>  (79) 
energy

$$$$
79:0
     RDKit          3D

 75 79  0  0  0  0  0  0  0  0999 V2000
   57.9720   27.2010   42.7280 C   0  0  0  0  0  0  0  0  0  0  0  0
   58.3820   27.7600   44.0670 C   0  0  0  0  0  0  0  0  0  0  0  0
   59.1190   26.9440   44.9430 C   0  0  0  0  0  0  0  0  0  0  0  0
   59.5120   27.4180   46.1920 C   0  0  0  0  0  0  0  0  0  0  0  0
   59.1490   28.7000   46.5980 C   0  0  0  0  0  0  0  0  0  0  0  0
   58.3940   29.5290   45.7600 C   0  0  0  0  0  0  0  0  0  0  0  0
   57.9540   30.7990   46.2760 N   0  0  0  0  0  0  0  0  0  0  0  0
   58.6890   32.0280   46.1260 C   0  0  0  0  0  0  0  0  0  0  0  0
   58.2290   32.9710   45.1970 C   0  0  0  0  0  0  0  0  0  0  0  0
   58.8770   34.1980   45.0470 C   0  0  0  0  0  0  0  0  0  0  0  0
   60.0020   34.4920   45.8160 C   0  0  0  0  0  0  0  0  0  0  0  0
   60.5000   33.5560   46.7290 C   0  0  0  0  0  0  0  0  0  0  0  0
   61.7190   33.8470   47.4290 N   0  0  0  0  0  0  0  0  0  0  0  0
   62.9970   33.8800   46.7050 C   0  0  0  0  0  0  0  0  0  0  0  0
   64.0750   33.1320   47.5000 C   0  0  0  0  0  0  0  0  0  0  0  0
   64.0020   33.4410   48.9380 N   0  0  0  0  0  0  0  0  0  0  0  0
   64.8180   32.6970   49.8650 C   0  0  0  0  0  0  0  0  0  0  0  0
   66.1620   33.0530   50.0760 C   0  0  0  0  0  0  0  0  0  0  0  0
   66.9550   32.3180   50.9630 C   0  0  0  0  0  0  0  0  0  0  0  0
   66.4200   31.2190   51.6430 C   0  0  0  0  0  0  0  0  0  0  0  0
   65.0860   30.8550   51.4360 C   0  0  0  0  0  0  0  0  0  0  0  0
   64.2870   31.5870   50.5490 C   0  0  0  0  0  0  0  0  0  0  0  0
   63.0490   34.4490   49.4240 C   0  0  0  0  0  0  0  0  0  0  0  0
   61.6590   34.1440   48.8650 C   0  0  0  0  0  0  0  0  0  0  0  0
   59.8520   32.3110   46.8850 C   0  0  0  0  0  0  0  0  0  0  0  0
   60.4500   31.2860   47.7600 C   0  0  0  0  0  0  0  0  0  0  0  0
   61.2250   30.4230   47.2670 O   0  0  0  0  0  0  0  0  0  0  0  0
   60.1270   31.2730   49.1580 N   0  0  0  0  0  0  0  0  0  0  0  0
   60.6880   30.3470   50.0940 C   0  0  0  0  0  0  0  0  0  0  0  0
   61.7300   29.6970   49.8050 O   0  0  0  0  0  0  0  0  0  0  0  0
   60.0980   30.2270   51.3610 O   0  0  0  0  0  0  0  0  0  0  0  0
   58.8130   30.6740   51.7110 C   0  0  0  0  0  0  0  0  0  0  0  0
   57.7730   29.7650   51.9900 C   0  0  0  0  0  0  0  0  0  0  0  0
   56.5040   30.2280   52.3350 C   0  0  0  0  0  0  0  0  0  0  0  0
   56.2520   31.5980   52.3960 C   0  0  0  0  0  0  0  0  0  0  0  0
   57.2670   32.5110   52.1020 C   0  0  0  0  0  0  0  0  0  0  0  0
   58.5540   32.0620   51.7520 C   0  0  0  0  0  0  0  0  0  0  0  0
   59.6120   33.0470   51.4170 C   0  0  0  0  0  0  0  0  0  0  0  0
   60.9770   32.8130   51.7740 N   0  0  0  0  0  0  0  0  0  0  0  0
   59.3120   34.1110   50.8100 O   0  0  0  0  0  0  0  0  0  0  0  0
   58.0630   29.0910   44.4480 C   0  0  0  0  0  0  0  0  0  0  0  0
   57.3620   30.0220   43.4840 C   0  0  0  0  0  0  0  0  0  0  0  0
   57.3276   26.3224   42.8792 H   0  0  0  0  0  0  0  0  0  0  0  0
   57.4204   27.9676   42.1640 H   0  0  0  0  0  0  0  0  0  0  0  0
   58.8689   26.9052   42.1640 H   0  0  0  0  0  0  0  0  0  0  0  0
   59.3877   25.9216   44.6390 H   0  0  0  0  0  0  0  0  0  0  0  0
   60.1098   26.7792   46.8588 H   0  0  0  0  0  0  0  0  0  0  0  0
   59.4591   29.0651   47.5882 H   0  0  0  0  0  0  0  0  0  0  0  0
   57.0270   30.8390   46.7600 H   0  0  0  0  0  0  0  0  0  0  0  0
   57.3480   32.7417   44.5795 H   0  0  0  0  0  0  0  0  0  0  0  0
   58.4997   34.9337   44.3214 H   0  0  0  0  0  0  0  0  0  0  0  0
   60.5012   35.4658   45.7043 H   0  0  0  0  0  0  0  0  0  0  0  0
   62.8710   33.4003   45.7231 H   0  0  0  0  0  0  0  0  0  0  0  0
   63.3087   34.9267   46.5740 H   0  0  0  0  0  0  0  0  0  0  0  0
   63.9351   32.0499   47.3601 H   0  0  0  0  0  0  0  0  0  0  0  0
   65.0598   33.4526   47.1293 H   0  0  0  0  0  0  0  0  0  0  0  0
   66.5913   33.9131   49.5412 H   0  0  0  0  0  0  0  0  0  0  0  0
   68.0041   32.6054   51.1266 H   0  0  0  0  0  0  0  0  0  0  0  0
   67.0472   30.6425   52.3389 H   0  0  0  0  0  0  0  0  0  0  0  0
   64.6632   29.9918   51.9710 H   0  0  0  0  0  0  0  0  0  0  0  0
   63.2396   31.2933   50.3859 H   0  0  0  0  0  0  0  0  0  0  0  0
   63.0163   34.4234   50.5232 H   0  0  0  0  0  0  0  0  0  0  0  0
   63.3683   35.4476   49.0909 H   0  0  0  0  0  0  0  0  0  0  0  0
   61.2420   33.2745   49.3943 H   0  0  0  0  0  0  0  0  0  0  0  0
   61.0222   35.0288   49.0118 H   0  0  0  0  0  0  0  0  0  0  0  0
   59.3890   31.9280   49.5010 H   0  0  0  0  0  0  0  0  0  0  0  0
   57.9636   28.6830   51.9352 H   0  0  0  0  0  0  0  0  0  0  0  0
   55.7003   29.5113   52.5594 H   0  0  0  0  0  0  0  0  0  0  0  0
   55.2519   31.9603   52.6762 H   0  0  0  0  0  0  0  0  0  0  0  0
   57.0587   33.5903   52.1444 H   0  0  0  0  0  0  0  0  0  0  0  0
   61.7000   33.5400   51.5730 H   0  0  0  0  0  0  0  0  0  0  0  0
   61.2880   31.8970   52.1670 H   0  0  0  0  0  0  0  0  0  0  0  0
   56.7944   30.7758   44.0494 H   0  0  0  0  0  0  0  0  0  0  0  0
   58.1084   30.5239   42.8507 H   0  0  0  0  0  0  0  0  0  0  0  0
   56.6734   29.4434   42.8507 H   0  0  0  0  0  0  0  0  0  0  0  0
  1  2  1  0
  2  3  2  0
  3  4  1  0
  4  5  2  0
  5  6  1  0
  6  7  1  0
  7  8  1  0
  8  9  2  0
  9 10  1  0
 10 11  2  0
 11 12  1  0
 12 13  1  0
 13 14  1  0
 14 15  1  0
 15 16  1  0
 16 17  1  0
 17 18  2  0
 18 19  1  0
 19 20  2  0
 20 21  1  0
 21 22  2  0
 16 23  1  0
 23 24  1  0
 12 25  2  0
 25 26  1  0
 26 27  2  0
 26 28  1  0
 28 29  1  0
 29 30  2  0
 29 31  1  0
 31 32  1  0
 32 33  2  0
 33 34  1  0
 34 35  2  0
 35 36  1  0
 36 37  2  0
 37 38  1  0
 38 39  1  0
 38 40  2  0
  6 41  2  0
 41 42  1  0
 41  2  1  0
 25  8  1  0
 37 32  1  0
 24 13  1  0
 22 17  1  0
  1 43  1  0
  1 44  1  0
  1 45  1  0
  3 46  1  0
  4 47  1  0
  5 48  1  0
  7 49  1  0
  9 50  1  0
 10 51  1  0
 11 52  1  0
 14 53  1  0
 14 54  1  0
 15 55  1  0
 15 56  1  0
 18 57  1  0
 19 58  1  0
 20 59  1  0
 21 60  1  0
 22 61  1  0
 23 62  1  0
 23 63  1  0
 24 64  1  0
 24 65  1  0
 28 66  1  0
 33 67  1  0
 34 68  1  0
 35 69  1  0
 36 70  1  0
 39 71  1  0
 39 72  1  0
 42 73  1  0
 42 74  1  0
 42 75  1  0
M  END
>  <UniqueID>  (80) 
74

>  <SMILES>  (80) 
Cc1cccc(Nc2cccc(N3CCN(c4ccccc4)CC3)c2C(=O)NC(=O)Oc2ccccc2C(N)=O)c1C

>  <Energy>  (80) 
113.4646448714181

>  <Genealogy>  (80) 
Cc1cccc(Nc2cccc(N3CCN(c4ccccc4)CC3)c2C(=O)NC(=O)Oc2ccccc2C(N)=O)c1C (3D coordinates assigned)
Cc1cccc(Nc2cccc(N3CCN(c4ccccc4)CC3)c2C(=O)NC(=O)Oc2ccccc2C(N)=O)c1C (nonaromatic ring conformer: 113.4646448714181 kcal/mol)

>  <smiles>  (80) 
Cc1cccc(Nc2cccc(N3CCN(c4ccccc4)CC3)c2C(=O)NC(=O)Oc2ccccc2C(N)=O)c1C

>  <score_type>  (80) 
oracle

>  <origin>  (80) 
adg

>  <m_score__min__energy>  (80) 
-10.18

>  <m_primary>  (80) 
energy

$$$$
80:0
     RDKit          3D

 15 15  0  0  0  0  0  0  0  0999 V2000
   55.6170   29.1370   45.0010 N   0  0  0  0  0  0  0  0  0  0  0  0
   56.3390   29.7200   43.9130 C   0  0  0  0  0  0  0  0  0  0  0  0
   56.3950   29.1040   42.8150 O   0  0  0  0  0  0  0  0  0  0  0  0
   57.0150   31.0260   44.0680 C   0  0  0  0  0  0  0  0  0  0  0  0
   57.6080   31.6710   42.9700 C   0  0  0  0  0  0  0  0  0  0  0  0
   58.2370   32.9030   43.1530 C   0  0  0  0  0  0  0  0  0  0  0  0
   58.2720   33.4860   44.4210 C   0  0  0  0  0  0  0  0  0  0  0  0
   57.6720   32.8190   45.4940 C   0  0  0  0  0  0  0  0  0  0  0  0
   57.6950   33.4750   46.9910 S   0  0  0  0  0  0  0  0  0  0  0  0
   57.0650   31.6200   45.2940 N   0  0  0  0  0  0  0  0  0  0  0  0
   55.5470   29.6140   45.9260 H   0  0  0  0  0  0  0  0  0  0  0  0
   55.1450   28.2140   44.8790 H   0  0  0  0  0  0  0  0  0  0  0  0
   57.5767   31.2080   41.9727 H   0  0  0  0  0  0  0  0  0  0  0  0
   58.7049   33.4144   42.2989 H   0  0  0  0  0  0  0  0  0  0  0  0
   58.7650   34.4573   44.5742 H   0  0  0  0  0  0  0  0  0  0  0  0
  1  2  1  0
  2  3  2  0
  2  4  1  0
  4  5  2  0
  5  6  1  0
  6  7  2  0
  7  8  1  0
  8  9  2  0
  8 10  1  0
 10  4  1  0
  1 11  1  0
  1 12  1  0
  5 13  1  0
  6 14  1  0
  7 15  1  0
M  CHG  1  10  -1
M  END
>  <UniqueID>  (81) 
75

>  <SMILES>  (81) 
NC(=O)c1cccc(=S)[n-]1

>  <Energy>  (81) 
13.08731359199463

>  <Genealogy>  (81) 
NC(=O)c1cccc(=S)[n-]1 (protonated)
NC(=O)c1cccc(=S)[n-]1 (3D coordinates assigned)
NC(=O)c1cccc(=S)[n-]1 (optimized conformer: 13.08731359199463 kcal/mol)

>  <smiles>  (81) 
NC(=O)c1cccc(=S)[nH]1

>  <score_type>  (81) 
oracle

>  <origin>  (81) 
adg

>  <m_score__min__energy>  (81) 
-8.5099999999999998

>  <m_primary>  (81) 
energy

$$$$
81:0
     RDKit          3D

 44 46  0  0  0  0  0  0  0  0999 V2000
   58.9286   35.4722   44.7299 H   0  0  0  0  0  0  0  0  0  0  0  0
   58.9140   34.6550   45.4660 C   0  0  0  0  0  0  0  0  0  0  0  0
   57.6940   34.1470   45.9220 C   0  0  0  0  0  0  0  0  0  0  0  0
   56.7491   34.5652   45.5448 H   0  0  0  0  0  0  0  0  0  0  0  0
   57.6740   33.1080   46.8570 C   0  0  0  0  0  0  0  0  0  0  0  0
   56.7124   32.7106   47.2139 H   0  0  0  0  0  0  0  0  0  0  0  0
   58.8780   32.5690   47.3430 C   0  0  0  0  0  0  0  0  0  0  0  0
   58.8670   31.4300   48.3280 C   0  0  0  0  0  0  0  0  0  0  0  0
   57.8615   31.3394   48.7647 H   0  0  0  0  0  0  0  0  0  0  0  0
   59.6068   31.6352   49.1157 H   0  0  0  0  0  0  0  0  0  0  0  0
   59.2190   30.1730   47.6660 N   0  0  0  0  0  0  0  0  0  0  0  0
   58.4130   29.4720   46.9280 C   0  0  0  0  0  0  0  0  0  0  0  0
   58.4320   28.1190   47.0210 N   0  0  0  0  0  0  0  0  0  0  0  0
   57.6040   27.3590   46.2530 C   0  0  0  0  0  0  0  0  0  0  0  0
   57.6280   25.9190   46.3570 N   0  0  0  0  0  0  0  0  0  0  0  0
   56.5860   25.2240   47.1240 C   0  0  0  0  0  0  0  0  0  0  0  0
   56.8537   25.2346   48.1909 H   0  0  0  0  0  0  0  0  0  0  0  0
   55.6264   25.7390   46.9693 H   0  0  0  0  0  0  0  0  0  0  0  0
   56.4520   23.7730   46.6520 C   0  0  0  0  0  0  0  0  0  0  0  0
   55.7807   23.2321   47.3352 H   0  0  0  0  0  0  0  0  0  0  0  0
   56.0424   23.7709   45.6311 H   0  0  0  0  0  0  0  0  0  0  0  0
   57.7110   23.1320   46.6360 O   0  0  0  0  0  0  0  0  0  0  0  0
   58.5330   23.7350   45.6570 C   0  0  0  0  0  0  0  0  0  0  0  0
   59.4699   23.1649   45.5721 H   0  0  0  0  0  0  0  0  0  0  0  0
   57.9957   23.7346   44.6971 H   0  0  0  0  0  0  0  0  0  0  0  0
   58.8590   25.1830   46.0360 C   0  0  0  0  0  0  0  0  0  0  0  0
   59.5228   25.1873   46.9131 H   0  0  0  0  0  0  0  0  0  0  0  0
   59.3545   25.6715   45.1841 H   0  0  0  0  0  0  0  0  0  0  0  0
   56.7550   27.9720   45.3870 N   0  0  0  0  0  0  0  0  0  0  0  0
   56.7280   29.3280   45.2870 C   0  0  0  0  0  0  0  0  0  0  0  0
   55.9230   29.9240   44.4590 N   0  0  0  0  0  0  0  0  0  0  0  0
   56.2080   30.1630   43.0450 C   0  0  0  0  0  0  0  0  0  0  0  0
   55.2752   30.4329   42.5283 H   0  0  0  0  0  0  0  0  0  0  0  0
   56.6322   29.2471   42.6078 H   0  0  0  0  0  0  0  0  0  0  0  0
   57.2000   31.2800   42.8900 C   0  0  0  0  0  0  0  0  0  0  0  0
   57.3620   32.0430   41.4500 S   0  0  0  0  0  0  0  0  0  0  0  0
   57.9690   31.7150   44.0130 N   0  0  0  0  0  0  0  0  0  0  0  0
   57.8560   31.2540   44.9430 H   0  0  0  0  0  0  0  0  0  0  0  0
   58.6530   32.4990   43.9200 H   0  0  0  0  0  0  0  0  0  0  0  0
   57.5550   30.0720   46.0610 N   0  0  0  0  0  0  0  0  0  0  0  0
   60.1000   33.0850   46.8790 C   0  0  0  0  0  0  0  0  0  0  0  0
   61.0477   32.6692   47.2519 H   0  0  0  0  0  0  0  0  0  0  0  0
   60.1150   34.1250   45.9450 C   0  0  0  0  0  0  0  0  0  0  0  0
   61.0741   34.5269   45.5864 H   0  0  0  0  0  0  0  0  0  0  0  0
  1  2  1  0
  2  3  2  0
  3  4  1  0
  3  5  1  0
  5  6  1  0
  5  7  2  0
  7  8  1  0
  8  9  1  0
  8 10  1  0
  8 11  1  0
 11 12  2  0
 12 13  1  0
 13 14  2  0
 14 15  1  0
 15 16  1  0
 16 17  1  0
 16 18  1  0
 16 19  1  0
 19 20  1  0
 19 21  1  0
 19 22  1  0
 22 23  1  0
 23 24  1  0
 23 25  1  0
 23 26  1  0
 26 27  1  0
 26 28  1  0
 14 29  1  0
 29 30  1  0
 30 31  2  3
 31 32  1  0
 32 33  1  0
 32 34  1  0
 32 35  1  0
 35 36  2  0
 35 37  1  0
 37 38  1  0
 37 39  1  0
 30 40  1  0
  7 41  1  0
 41 42  1  0
 41 43  2  0
 43 44  1  0
 43  2  1  0
 40 12  1  0
 26 15  1  0
M  CHG  2  29  -1  40  -1
M  END
>  <UniqueID>  (82) 
76

>  <SMILES>  (82) 
NC(=S)CN=c1[n-]c(N2CCOCC2)n/c(=N/Cc2ccccc2)[n-]1

>  <Energy>  (82) 
42.75353682017353

>  <Genealogy>  (82) 
NC(=S)CN=c1[n-]c(N2CCOCC2)nc(=NCc2ccccc2)[n-]1 (protonated)
NC(=S)CN=c1[n-]c(N2CCOCC2)n/c(=N/Cc2ccccc2)[n-]1 (cis-trans isomerization)
NC(=S)CN=c1[n-]c(N2CCOCC2)n/c(=N/Cc2ccccc2)[n-]1 (3D coordinates assigned)
NC(=S)CN=c1[n-]c(N2CCOCC2)n/c(=N/Cc2ccccc2)[n-]1 (nonaromatic ring conformer: 42.75353682017353 kcal/mol)

>  <smiles>  (82) 
NC(=S)CN=c1[nH]c(N2CCOCC2)nc(=NCc2ccccc2)[nH]1

>  <score_type>  (82) 
oracle

>  <origin>  (82) 
adg

>  <m_score__min__energy>  (82) 
-10.43

>  <m_primary>  (82) 
energy

$$$$
82:0
     RDKit          3D

 30 31  0  0  0  0  0  0  0  0999 V2000
   61.8167   26.7111   46.7733 H   0  0  0  0  0  0  0  0  0  0  0  0
   60.7830   27.0870   46.7900 C   0  0  0  0  0  0  0  0  0  0  0  0
   60.3080   27.7000   48.0460 C   0  0  0  0  0  0  0  0  0  0  0  0
   59.4480   27.1170   48.7600 O   0  0  0  0  0  0  0  0  0  0  0  0
   60.7940   29.0070   48.3930 N   0  0  0  0  0  0  0  0  0  0  0  0
   60.4510   30.1460   47.8660 C   0  0  0  0  0  0  0  0  0  0  0  0
   61.3630   30.9970   47.3490 N   0  0  0  0  0  0  0  0  0  0  0  0
   60.8240   32.1150   46.8640 N   0  0  0  0  0  0  0  0  0  0  0  0
   59.4810   32.1570   46.9920 C   0  0  0  0  0  0  0  0  0  0  0  0
   58.4940   33.5000   46.4560 S   0  0  0  0  0  0  0  0  0  0  0  0
   59.1810   34.7930   46.7940 O   0  0  0  0  0  0  0  0  0  0  0  0
   57.1640   33.4540   47.1550 O   0  0  0  0  0  0  0  0  0  0  0  0
   58.2380   33.3900   44.7000 C   0  0  0  0  0  0  0  0  0  0  0  0
   57.2441   32.9629   44.5004 H   0  0  0  0  0  0  0  0  0  0  0  0
   58.3012   34.3947   44.2566 H   0  0  0  0  0  0  0  0  0  0  0  0
   59.0103   32.7443   44.2566 H   0  0  0  0  0  0  0  0  0  0  0  0
   58.8830   30.7710   47.7390 S   0  0  0  0  0  0  0  0  0  0  0  0
   60.0620   26.9490   45.6670 C   0  0  0  0  0  0  0  0  0  0  0  0
   60.4872   26.3236   44.8682 H   0  0  0  0  0  0  0  0  0  0  0  0
   58.7430   27.5680   45.4140 C   0  0  0  0  0  0  0  0  0  0  0  0
   58.6360   28.8640   44.8780 C   0  0  0  0  0  0  0  0  0  0  0  0
   59.5448   29.4211   44.6064 H   0  0  0  0  0  0  0  0  0  0  0  0
   57.3800   29.4470   44.6890 C   0  0  0  0  0  0  0  0  0  0  0  0
   57.3014   30.4527   44.2504 H   0  0  0  0  0  0  0  0  0  0  0  0
   56.2230   28.7530   45.0570 C   0  0  0  0  0  0  0  0  0  0  0  0
   54.9760   29.3380   44.8670 O   0  0  0  0  0  0  0  0  0  0  0  0
   56.3230   27.4750   45.6210 C   0  0  0  0  0  0  0  0  0  0  0  0
   55.1760   26.7860   45.9970 O   0  0  0  0  0  0  0  0  0  0  0  0
   57.5800   26.8900   45.8090 C   0  0  0  0  0  0  0  0  0  0  0  0
   57.6568   25.8936   46.2687 H   0  0  0  0  0  0  0  0  0  0  0  0
  1  2  1  0
  2  3  1  0
  3  4  2  0
  3  5  1  0
  5  6  2  0
  6  7  1  0
  7  8  1  0
  8  9  2  0
  9 10  1  0
 10 11  2  0
 10 12  2  0
 10 13  1  0
 13 14  1  0
 13 15  1  0
 13 16  1  0
  9 17  1  0
  2 18  2  3
 18 19  1  0
 18 20  1  0
 20 21  2  0
 21 22  1  0
 21 23  1  0
 23 24  1  0
 23 25  2  0
 25 26  1  0
 25 27  1  0
 27 28  1  0
 27 29  2  0
 29 30  1  0
 17  6  1  0
 29 20  1  0
M  CHG  3   7  -1  26  -1  28  -1
M  END
>  <UniqueID>  (83) 
77

>  <SMILES>  (83) 
CS(=O)(=O)c1n[n-]/c(=N/C(=O)C=Cc2ccc([O-])c([O-])c2)s1

>  <Energy>  (83) 
73.11312337299137

>  <Genealogy>  (83) 
CS(=O)(=O)c1n[n-]c(=NC(=O)C=Cc2ccc([O-])c([O-])c2)s1 (protonated)
CS(=O)(=O)c1n[n-]/c(=N/C(=O)C=Cc2ccc([O-])c([O-])c2)s1 (cis-trans isomerization)
CS(=O)(=O)c1n[n-]/c(=N/C(=O)C=Cc2ccc([O-])c([O-])c2)s1 (3D coordinates assigned)
CS(=O)(=O)c1n[n-]/c(=N/C(=O)C=Cc2ccc([O-])c([O-])c2)s1 (optimized conformer: 73.11312337299137 kcal/mol)

>  <smiles>  (83) 
CS(=O)(=O)c1n[nH]c(=NC(=O)C=Cc2ccc(O)c(O)c2)s1

>  <score_type>  (83) 
oracle

>  <origin>  (83) 
adg

>  <m_score__min__energy>  (83) 
-16.739999999999998

>  <m_primary>  (83) 
energy

$$$$
83:0
     RDKit          3D

 41 43  0  0  0  0  0  0  0  0999 V2000
   60.0660   33.9730   47.0690 C   0  0  0  0  0  0  0  0  0  0  0  0
   61.4210   33.3580   47.2510 C   0  0  0  0  0  0  0  0  0  0  0  0
   62.5340   33.7460   46.4860 C   0  0  0  0  0  0  0  0  0  0  0  0
   63.7100   33.0970   46.8360 C   0  0  0  0  0  0  0  0  0  0  0  0
   63.3780   32.0520   48.1090 S   0  0  0  0  0  0  0  0  0  0  0  0
   61.7360   32.4030   48.2250 C   0  0  0  0  0  0  0  0  0  0  0  0
   60.8110   31.8100   49.2570 C   0  0  0  0  0  0  0  0  0  0  0  0
   60.2080   30.5290   48.8090 N   0  0  0  0  0  0  0  0  0  0  0  0
   61.0250   29.9070   47.7290 C   0  0  0  0  0  0  0  0  0  0  0  0
   60.2250   28.9190   46.8710 C   0  0  0  0  0  0  0  0  0  0  0  0
   59.0500   29.5820   46.2950 N   0  0  0  0  0  0  0  0  0  0  0  0
   58.4480   29.1080   45.0740 C   0  0  0  0  0  0  0  0  0  0  0  0
   57.8580   29.9220   44.3120 O   0  0  0  0  0  0  0  0  0  0  0  0
   58.4360   27.6490   44.7140 C   0  0  0  0  0  0  0  0  0  0  0  0
   57.3380   26.9510   45.4540 C   0  0  0  0  0  0  0  0  0  0  0  0
   57.4590   25.7330   46.0120 N   0  0  0  0  0  0  0  0  0  0  0  0
   56.2270   25.4990   46.5140 C   0  0  0  0  0  0  0  0  0  0  0  0
   55.9380   24.4420   47.1310 O   0  0  0  0  0  0  0  0  0  0  0  0
   55.3290   26.4860   46.3010 N   0  0  0  0  0  0  0  0  0  0  0  0
   56.0480   27.3950   45.6220 C   0  0  0  0  0  0  0  0  0  0  0  0
   55.5340   28.6010   45.1650 O   0  0  0  0  0  0  0  0  0  0  0  0
   58.5450   30.8050   46.9270 C   0  0  0  0  0  0  0  0  0  0  0  0
   58.7750   30.7280   48.4400 C   0  0  0  0  0  0  0  0  0  0  0  0
   59.6199   34.1755   48.0539 H   0  0  0  0  0  0  0  0  0  0  0  0
   60.1631   34.9153   46.5098 H   0  0  0  0  0  0  0  0  0  0  0  0
   59.4207   33.2796   46.5098 H   0  0  0  0  0  0  0  0  0  0  0  0
   62.4784   34.4957   45.6830 H   0  0  0  0  0  0  0  0  0  0  0  0
   64.6915   33.2421   46.3611 H   0  0  0  0  0  0  0  0  0  0  0  0
   61.3817   31.6280   50.1796 H   0  0  0  0  0  0  0  0  0  0  0  0
   59.9922   32.5255   49.4234 H   0  0  0  0  0  0  0  0  0  0  0  0
   60.2210   29.8720   49.6260 H   0  0  0  0  0  0  0  0  0  0  0  0
   61.4119   30.7046   47.0777 H   0  0  0  0  0  0  0  0  0  0  0  0
   61.8371   29.3435   48.2117 H   0  0  0  0  0  0  0  0  0  0  0  0
   60.8644   28.5431   46.0587 H   0  0  0  0  0  0  0  0  0  0  0  0
   59.8907   28.0838   47.5040 H   0  0  0  0  0  0  0  0  0  0  0  0
   58.2720   27.5417   43.6316 H   0  0  0  0  0  0  0  0  0  0  0  0
   59.4014   27.1998   44.9900 H   0  0  0  0  0  0  0  0  0  0  0  0
   59.0780   31.6762   46.5186 H   0  0  0  0  0  0  0  0  0  0  0  0
   57.4687   30.9064   46.7235 H   0  0  0  0  0  0  0  0  0  0  0  0
   58.4241   31.6661   48.8949 H   0  0  0  0  0  0  0  0  0  0  0  0
   58.2183   29.8547   48.8107 H   0  0  0  0  0  0  0  0  0  0  0  0
  1  2  1  0
  2  3  1  0
  3  4  2  0
  4  5  1  0
  5  6  1  0
  6  7  1  0
  7  8  1  0
  8  9  1  0
  9 10  1  0
 10 11  1  0
 11 12  1  0
 12 13  2  0
 12 14  1  0
 14 15  1  0
 15 16  1  0
 16 17  1  0
 17 18  2  0
 17 19  1  0
 19 20  1  0
 20 21  1  0
 11 22  1  0
 22 23  1  0
  6  2  2  0
 23  8  1  0
 20 15  2  0
  1 24  1  0
  1 25  1  0
  1 26  1  0
  3 27  1  0
  4 28  1  0
  7 29  1  0
  7 30  1  0
  8 31  1  0
  9 32  1  0
  9 33  1  0
 10 34  1  0
 10 35  1  0
 14 36  1  0
 14 37  1  0
 22 38  1  0
 22 39  1  0
 23 40  1  0
 23 41  1  0
M  CHG  4   8   1  16  -1  19  -1  21  -1
M  END
>  <UniqueID>  (84) 
78

>  <SMILES>  (84) 
Cc1ccsc1C[NH+]1CCN(C(=O)Cc2[n-]c(=O)[n-]c2[O-])CC1

>  <Energy>  (84) 
103.07367613953522

>  <Genealogy>  (84) 
Cc1ccsc1C[NH+]1CCN(C(=O)Cc2[n-]c(=O)[n-]c2[O-])CC1 (protonated)
Cc1ccsc1C[NH+]1CCN(C(=O)Cc2[n-]c(=O)[n-]c2[O-])CC1 (3D coordinates assigned)
Cc1ccsc1C[NH+]1CCN(C(=O)Cc2[n-]c(=O)[n-]c2[O-])CC1 (nonaromatic ring conformer: 103.07367613953522 kcal/mol)

>  <smiles>  (84) 
Cc1ccsc1CN1CCN(C(=O)Cc2[nH]c(=O)[nH]c2O)CC1

>  <score_type>  (84) 
oracle

>  <origin>  (84) 
adg

>  <m_score__min__energy>  (84) 
-13.92

>  <m_primary>  (84) 
energy

$$$$
84:0
     RDKit          3D

 44 46  0  0  0  0  0  0  0  0999 V2000
   52.3630   28.8780   48.1520 H   0  0  0  0  0  0  0  0  0  0  0  0
   51.7020   29.2650   48.8140 O   0  0  0  0  0  0  0  0  0  0  0  0
   52.1180   30.0640   49.8770 C   0  0  0  0  0  0  0  0  0  0  0  0
   51.3800   31.2020   50.2140 C   0  0  0  0  0  0  0  0  0  0  0  0
   50.4815   31.4644   49.6363 H   0  0  0  0  0  0  0  0  0  0  0  0
   51.7810   32.0070   51.2830 C   0  0  0  0  0  0  0  0  0  0  0  0
   51.0360   33.1290   51.6220 O   0  0  0  0  0  0  0  0  0  0  0  0
   52.9280   31.6810   52.0150 C   0  0  0  0  0  0  0  0  0  0  0  0
   53.2350   32.3142   52.8604 H   0  0  0  0  0  0  0  0  0  0  0  0
   58.9670   30.1010   46.7360 C   0  0  0  0  0  0  0  0  0  0  0  0
   60.1870   30.6410   47.3880 C   0  0  0  0  0  0  0  0  0  0  0  0
   54.9238   29.1602   52.9087 H   0  0  0  0  0  0  0  0  0  0  0  0
   54.9100   30.1490   52.4270 C   0  0  0  0  0  0  0  0  0  0  0  0
   60.9695   32.0459   48.7335 H   0  0  0  0  0  0  0  0  0  0  0  0
   53.6930   30.5460   51.6760 C   0  0  0  0  0  0  0  0  0  0  0  0
   58.3410   32.3730   49.9650 C   0  0  0  0  0  0  0  0  0  0  0  0
   58.5557   33.3568   49.5223 H   0  0  0  0  0  0  0  0  0  0  0  0
   57.3420   32.2500   50.9360 C   0  0  0  0  0  0  0  0  0  0  0  0
   56.7597   33.1346   51.2335 H   0  0  0  0  0  0  0  0  0  0  0  0
   57.0750   31.0080   51.5350 C   0  0  0  0  0  0  0  0  0  0  0  0
   55.9950   30.9300   52.5510 C   0  0  0  0  0  0  0  0  0  0  0  0
   56.0892   31.5471   53.4567 H   0  0  0  0  0  0  0  0  0  0  0  0
   60.1450   31.3450   48.5360 C   0  0  0  0  0  0  0  0  0  0  0  0
   59.0720   31.2460   49.5520 C   0  0  0  0  0  0  0  0  0  0  0  0
   58.5440   28.7850   47.0060 C   0  0  0  0  0  0  0  0  0  0  0  0
   59.2690   27.9720   47.8720 O   0  0  0  0  0  0  0  0  0  0  0  0
   57.3950   28.2760   46.3910 C   0  0  0  0  0  0  0  0  0  0  0  0
   57.0695   27.2470   46.6037 H   0  0  0  0  0  0  0  0  0  0  0  0
   56.6600   29.0700   45.5080 C   0  0  0  0  0  0  0  0  0  0  0  0
   55.5220   28.5590   44.8960 O   0  0  0  0  0  0  0  0  0  0  0  0
   57.0660   30.3800   45.2420 C   0  0  0  0  0  0  0  0  0  0  0  0
   56.4840   31.0041   44.5478 H   0  0  0  0  0  0  0  0  0  0  0  0
   58.2110   30.9010   45.8560 C   0  0  0  0  0  0  0  0  0  0  0  0
   58.5820   32.2160   45.5950 O   0  0  0  0  0  0  0  0  0  0  0  0
   61.5250   30.3340   46.7760 C   0  0  0  0  0  0  0  0  0  0  0  0
   62.2630   30.1647   47.5739 H   0  0  0  0  0  0  0  0  0  0  0  0
   61.4448   29.4309   46.1531 H   0  0  0  0  0  0  0  0  0  0  0  0
   61.8465   31.1817   46.1531 H   0  0  0  0  0  0  0  0  0  0  0  0
   57.8200   29.8840   51.1280 C   0  0  0  0  0  0  0  0  0  0  0  0
   57.6154   28.9013   51.5779 H   0  0  0  0  0  0  0  0  0  0  0  0
   58.8170   30.0080   50.1570 C   0  0  0  0  0  0  0  0  0  0  0  0
   59.4067   29.1265   49.8650 H   0  0  0  0  0  0  0  0  0  0  0  0
   53.2670   29.7350   50.6100 C   0  0  0  0  0  0  0  0  0  0  0  0
   53.8405   28.8336   50.3483 H   0  0  0  0  0  0  0  0  0  0  0  0
  1  2  1  0
  2  3  1  0
  3  4  2  0
  4  5  1  0
  4  6  1  0
  6  7  1  0
  6  8  2  0
  8  9  1  0
  8 10  1  0
 10 11  1  0
 11 12  1  0
 11 13  2  0
 13 14  1  0
 13 15  1  0
 15 16  2  0
 16 17  1  0
 16 18  1  0
 18 19  1  0
 18 20  2  0
 20 21  1  0
 21 22  1  0
 21 23  2  0
 23 24  1  0
 24 25  2  0
 25 26  1  0
 25 27  1  0
 27 28  1  0
 27 29  2  0
 29 30  1  0
 29 31  1  0
 31 32  1  0
 31 33  2  0
 33 34  1  0
 23 35  1  0
 35 36  1  0
 35 37  1  0
 35 38  1  0
 20 39  1  0
 39 40  1  0
 39 41  2  0
 41 42  1  0
 10 43  2  0
 43 44  1  0
 43  3  1  0
 41 15  1  0
 33 24  1  0
M  CHG  4   7  -1  26  -1  30  -1  34  -1
M  END
>  <UniqueID>  (85) 
79

>  <SMILES>  (85) 
C/C(=C/c1ccc(/C=C/c2cc([O-])cc(O)c2)cc1)c1c([O-])cc([O-])cc1[O-]

>  <Energy>  (85) 
63.23783586828486

>  <Genealogy>  (85) 
CC(=Cc1ccc(C=Cc2cc([O-])cc(O)c2)cc1)c1c([O-])cc([O-])cc1[O-] (protonated)
C/C(=C/c1ccc(/C=C/c2cc([O-])cc(O)c2)cc1)c1c([O-])cc([O-])cc1[O-] (cis-trans isomerization)
C/C(=C/c1ccc(/C=C/c2cc([O-])cc(O)c2)cc1)c1c([O-])cc([O-])cc1[O-] (3D coordinates assigned)
C/C(=C/c1ccc(/C=C/c2cc([O-])cc(O)c2)cc1)c1c([O-])cc([O-])cc1[O-] (optimized conformer: 63.23783586828486 kcal/mol)

>  <smiles>  (85) 
CC(=Cc1ccc(C=Cc2cc(O)cc(O)c2)cc1)c1c(O)cc(O)cc1O

>  <score_type>  (85) 
oracle

>  <origin>  (85) 
adg

>  <m_score__min__energy>  (85) 
-16.16

>  <m_primary>  (85) 
energy

$$$$
85:0
     RDKit          3D

 58 61  0  0  0  0  0  0  0  0999 V2000
   63.0440   33.8400   46.4780 C   0  0  0  0  0  0  0  0  0  0  0  0
   63.2980   32.9680   47.8920 S   0  0  0  0  0  6  0  0  0  0  0  0
   64.5670   33.4040   48.6240 O   0  0  0  0  0  0  0  0  0  0  0  0
   63.3380   34.5450   48.9830 O   0  0  0  0  0  0  0  0  0  0  0  0
   62.0610   32.2850   48.6640 N   0  0  2  0  0  0  0  0  0  0  0  0
   62.2390   30.8450   48.7040 C   0  0  0  0  0  0  0  0  0  0  0  0
   60.9420   30.0800   48.8140 C   0  0  0  0  0  0  0  0  0  0  0  0
   60.2180   30.3350   47.5840 N   0  0  0  0  0  0  0  0  0  0  0  0
   59.5140   29.3310   46.8640 C   0  0  0  0  0  0  0  0  0  0  0  0
   60.0780   28.0970   46.6230 C   0  0  0  0  0  0  0  0  0  0  0  0
   59.4090   27.1130   45.9230 C   0  0  0  0  0  0  0  0  0  0  0  0
   58.1160   27.3140   45.4200 C   0  0  0  0  0  0  0  0  0  0  0  0
   57.4880   26.2070   44.6770 C   0  0  0  0  0  0  0  0  0  0  0  0
   56.9390   25.1460   45.4510 N   0  0  0  0  0  0  0  0  0  0  0  0
   57.4810   23.9400   45.6510 C   0  0  0  0  0  0  0  0  0  0  0  0
   58.5600   23.6190   45.1290 O   0  0  0  0  0  0  0  0  0  0  0  0
   56.8750   22.9640   46.4520 C   0  0  0  0  0  0  0  0  0  0  0  0
   55.6740   23.2370   47.0660 C   0  0  0  0  0  0  0  0  0  0  0  0
   55.0000   22.2970   47.8920 N   0  0  0  0  0  0  0  0  0  0  0  0
   55.4810   21.6480   49.0810 C   0  0  0  0  0  0  0  0  0  0  0  0
   54.2700   21.6910   50.0090 C   0  0  0  0  0  0  0  0  0  0  0  0
   53.1340   21.4440   49.0590 C   0  0  0  0  0  0  0  0  0  0  0  0
   53.6590   21.8060   47.6780 C   0  0  0  0  0  0  0  0  0  0  0  0
   55.1490   24.4540   46.8480 N   0  0  0  0  0  0  0  0  0  0  0  0
   55.7510   25.3760   46.0740 C   0  0  0  0  0  0  0  0  0  0  0  0
   55.1390   26.4800   45.9590 O   0  0  0  0  0  0  0  0  0  0  0  0
   57.5640   28.5400   45.6650 C   0  0  0  0  0  0  0  0  0  0  0  0
   56.3270   28.8560   45.2510 F   0  0  0  0  0  0  0  0  0  0  0  0
   58.2430   29.5410   46.3740 C   0  0  0  0  0  0  0  0  0  0  0  0
   60.2520   31.6990   47.1160 C   0  0  0  0  0  0  0  0  0  0  0  0
   59.8580   31.9970   45.9750 O   0  0  0  0  0  0  0  0  0  0  0  0
   60.7880   32.6900   48.0990 C   0  0  0  0  0  0  0  0  0  0  0  0
   62.7445   34.8680   46.7300 H   0  0  0  0  0  0  0  0  0  0  0  0
   63.9729   33.8625   45.8892 H   0  0  0  0  0  0  0  0  0  0  0  0
   62.2483   33.3602   45.8892 H   0  0  0  0  0  0  0  0  0  0  0  0
   64.1740   32.4240   47.8580 H   0  0  0  0  0  0  0  0  0  0  0  0
   63.6890   34.1340   49.7930 H   0  0  0  0  0  0  0  0  0  0  0  0
   62.0120   32.5910   49.6700 H   0  0  0  0  0  0  0  0  0  0  0  0
   62.7507   30.5318   47.7820 H   0  0  0  0  0  0  0  0  0  0  0  0
   62.8264   30.6168   49.6056 H   0  0  0  0  0  0  0  0  0  0  0  0
   61.1418   29.0038   48.9230 H   0  0  0  0  0  0  0  0  0  0  0  0
   60.3626   30.3966   49.6938 H   0  0  0  0  0  0  0  0  0  0  0  0
   61.0907   27.8900   46.9993 H   0  0  0  0  0  0  0  0  0  0  0  0
   59.9039   26.1450   45.7554 H   0  0  0  0  0  0  0  0  0  0  0  0
   56.6747   26.6321   44.0705 H   0  0  0  0  0  0  0  0  0  0  0  0
   58.3034   25.7493   44.0977 H   0  0  0  0  0  0  0  0  0  0  0  0
   57.3564   21.9845   46.5896 H   0  0  0  0  0  0  0  0  0  0  0  0
   55.7818   20.6109   48.8713 H   0  0  0  0  0  0  0  0  0  0  0  0
   56.3721   22.1310   49.5083 H   0  0  0  0  0  0  0  0  0  0  0  0
   54.3269   20.9044   50.7758 H   0  0  0  0  0  0  0  0  0  0  0  0
   54.1783   22.6314   50.5722 H   0  0  0  0  0  0  0  0  0  0  0  0
   52.8334   20.3863   49.0889 H   0  0  0  0  0  0  0  0  0  0  0  0
   52.2490   22.0412   49.3239 H   0  0  0  0  0  0  0  0  0  0  0  0
   53.6735   20.9191   47.0275 H   0  0  0  0  0  0  0  0  0  0  0  0
   53.0239   22.5556   47.1834 H   0  0  0  0  0  0  0  0  0  0  0  0
   57.7526   30.5112   46.5422 H   0  0  0  0  0  0  0  0  0  0  0  0
   60.9206   33.6555   47.5888 H   0  0  0  0  0  0  0  0  0  0  0  0
   60.0656   32.7626   48.9253 H   0  0  0  0  0  0  0  0  0  0  0  0
  1  2  1  0
  2  3  2  0
  2  4  1  0
  2  5  1  0
  5  6  1  0
  6  7  1  0
  7  8  1  0
  8  9  1  0
  9 10  2  0
 10 11  1  0
 11 12  2  0
 12 13  1  0
 13 14  1  0
 14 15  1  0
 15 16  2  0
 15 17  1  0
 17 18  2  0
 18 19  1  0
 19 20  1  0
 20 21  1  0
 21 22  1  0
 22 23  1  0
 18 24  1  0
 24 25  1  0
 25 26  2  0
 12 27  1  0
 27 28  1  0
 27 29  2  0
  8 30  1  0
 30 31  2  0
 30 32  1  0
 32  5  1  0
 29  9  1  0
 25 14  1  0
 23 19  1  0
  1 33  1  0
  1 34  1  0
  1 35  1  0
  2 36  1  0
  4 37  1  0
  5 38  1  1
  6 39  1  0
  6 40  1  0
  7 41  1  0
  7 42  1  0
 10 43  1  0
 11 44  1  0
 13 45  1  0
 13 46  1  0
 17 47  1  0
 20 48  1  0
 20 49  1  0
 21 50  1  0
 21 51  1  0
 22 52  1  0
 22 53  1  0
 23 54  1  0
 23 55  1  0
 29 56  1  0
 32 57  1  0
 32 58  1  0
M  CHG  2   5   1  24  -1
M  END
>  <UniqueID>  (86) 
80

>  <SMILES>  (86) 
C[SH](=O)(O)[N@@H+]1CCN(c2ccc(Cn3c(=O)cc(N4CCCC4)[n-]c3=O)c(F)c2)C(=O)C1

>  <Energy>  (86) 
9999

>  <Genealogy>  (86) 
C[SH](=O)(O)[NH+]1CCN(c2ccc(Cn3c(=O)cc(N4CCCC4)[n-]c3=O)c(F)c2)C(=O)C1 (protonated)
C[SH](=O)(O)[N@@H+]1CCN(c2ccc(Cn3c(=O)cc(N4CCCC4)[n-]c3=O)c(F)c2)C(=O)C1 (chirality)
C[SH](=O)(O)[N@@H+]1CCN(c2ccc(Cn3c(=O)cc(N4CCCC4)[n-]c3=O)c(F)c2)C(=O)C1 (3D coordinates assigned)
C[SH](=O)(O)[N@@H+]1CCN(c2ccc(Cn3c(=O)cc(N4CCCC4)[n-]c3=O)c(F)c2)C(=O)C1 (nonaromatic ring conformer: 9999 kcal/mol)

>  <smiles>  (86) 
C[SH](=O)([O-])N1CCN(c2ccc(Cn3c(=O)cc(N4CCCC4)[nH]c3=O)c(F)c2)C(=O)C1

>  <score_type>  (86) 
oracle

>  <origin>  (86) 
adg

>  <m_score__min__energy>  (86) 
-7.9800000000000004

>  <m_primary>  (86) 
energy

$$$$
86:0
     RDKit          3D

 28 29  0  0  0  0  0  0  0  0999 V2000
   58.0900   21.7530   44.0330 C   0  0  0  0  0  0  0  0  0  0  0  0
   56.4290   22.4540   43.7790 S   0  0  0  0  0  0  0  0  0  0  0  0
   56.8160   23.9730   44.6420 C   0  0  0  0  0  0  0  0  0  0  0  0
   58.1100   24.3270   44.8440 N   0  0  0  0  0  0  0  0  0  0  0  0
   58.4310   25.4760   45.4930 C   0  0  0  0  0  0  0  0  0  0  0  0
   59.6440   25.7690   45.6570 O   0  0  0  0  0  0  0  0  0  0  0  0
   57.4130   26.3210   45.9740 C   0  0  0  0  0  0  0  0  0  0  0  0
   57.7420   27.6220   46.6740 C   0  0  0  0  0  0  0  0  0  0  0  0
   57.6380   28.7920   45.7190 C   0  0  0  0  0  0  0  0  0  0  0  0
   57.0250   28.5830   44.4700 C   0  0  0  0  0  0  0  0  0  0  0  0
   56.9190   29.6220   43.5450 C   0  0  0  0  0  0  0  0  0  0  0  0
   57.4180   30.8860   43.8530 C   0  0  0  0  0  0  0  0  0  0  0  0
   58.0250   31.1220   45.0900 C   0  0  0  0  0  0  0  0  0  0  0  0
   58.6320   32.7380   45.4290 Cl  0  0  0  0  0  0  0  0  0  0  0  0
   58.1380   30.0810   46.0330 C   0  0  0  0  0  0  0  0  0  0  0  0
   58.8880   30.4230   47.5950 Cl  0  0  0  0  0  0  0  0  0  0  0  0
   56.0790   25.9290   45.7510 C   0  0  0  0  0  0  0  0  0  0  0  0
   55.0220   26.7170   46.1970 O   0  0  0  0  0  0  0  0  0  0  0  0
   55.8150   24.7690   45.0940 N   0  0  0  0  0  0  0  0  0  0  0  0
   58.2912   21.6681   45.1111 H   0  0  0  0  0  0  0  0  0  0  0  0
   58.1419   20.7562   43.5707 H   0  0  0  0  0  0  0  0  0  0  0  0
   58.8404   22.4112   43.5707 H   0  0  0  0  0  0  0  0  0  0  0  0
   57.0370   27.7719   47.5050 H   0  0  0  0  0  0  0  0  0  0  0  0
   58.7742   27.5668   47.0503 H   0  0  0  0  0  0  0  0  0  0  0  0
   56.6249   27.5893   44.2200 H   0  0  0  0  0  0  0  0  0  0  0  0
   56.4406   29.4430   42.5708 H   0  0  0  0  0  0  0  0  0  0  0  0
   57.3339   31.7016   43.1197 H   0  0  0  0  0  0  0  0  0  0  0  0
   54.1120   26.3120   46.3810 H   0  0  0  0  0  0  0  0  0  0  0  0
  1  2  1  0
  2  3  1  0
  3  4  2  0
  4  5  1  0
  5  6  2  0
  5  7  1  0
  7  8  1  0
  8  9  1  0
  9 10  2  0
 10 11  1  0
 11 12  2  0
 12 13  1  0
 13 14  1  0
 13 15  2  0
 15 16  1  0
  7 17  2  0
 17 18  1  0
 17 19  1  0
 19  3  1  0
 15  9  1  0
  1 20  1  0
  1 21  1  0
  1 22  1  0
  8 23  1  0
  8 24  1  0
 10 25  1  0
 11 26  1  0
 12 27  1  0
 18 28  1  0
M  CHG  1  19  -1
M  END
>  <UniqueID>  (87) 
81

>  <SMILES>  (87) 
CSc1nc(=O)c(Cc2cccc(Cl)c2Cl)c(O)[n-]1

>  <Energy>  (87) 
28.897260374997153

>  <Genealogy>  (87) 
CSc1nc(=O)c(Cc2cccc(Cl)c2Cl)c(O)[n-]1 (protonated)
CSc1nc(=O)c(Cc2cccc(Cl)c2Cl)c(O)[n-]1 (3D coordinates assigned)
CSc1nc(=O)c(Cc2cccc(Cl)c2Cl)c(O)[n-]1 (optimized conformer: 28.897260374997153 kcal/mol)

>  <smiles>  (87) 
CSc1nc(=O)c(Cc2cccc(Cl)c2Cl)c(O)[nH]1

>  <score_type>  (87) 
oracle

>  <origin>  (87) 
adg

>  <m_score__min__energy>  (87) 
-9.3100000000000005

>  <m_primary>  (87) 
energy

$$$$
87:0
     RDKit          3D

 60 62  0  0  0  0  0  0  0  0999 V2000
   61.4420   29.9440   49.5220 O   0  0  0  0  0  0  0  0  0  0  0  0
   61.5670   30.8420   48.6450 C   0  0  0  0  0  0  0  0  0  0  0  0
   62.4950   31.9120   48.8360 N   0  0  0  0  0  0  0  0  0  0  0  0
   62.3940   33.4160   47.9800 S   0  0  0  0  0  0  0  0  0  0  0  0
   63.6200   34.2310   48.2820 O   0  0  0  0  0  0  0  0  0  0  0  0
   62.3400   33.1640   46.4990 O   0  0  0  0  0  0  0  0  0  0  0  0
   60.9480   34.3240   48.4980 C   0  0  0  0  0  0  0  0  0  0  0  0
   59.8730   34.2570   47.4490 C   0  0  0  0  0  0  0  0  0  0  0  0
   58.7110   33.5000   47.6710 C   0  0  0  0  0  0  0  0  0  0  0  0
   57.7090   33.4470   46.6980 C   0  0  0  0  0  0  0  0  0  0  0  0
   57.8560   34.1530   45.5010 C   0  0  0  0  0  0  0  0  0  0  0  0
   58.9970   34.9310   45.2840 C   0  0  0  0  0  0  0  0  0  0  0  0
   60.0030   34.9850   46.2530 C   0  0  0  0  0  0  0  0  0  0  0  0
   60.7810   30.7990   47.4490 N   0  0  0  0  0  0  0  0  0  0  0  0
   59.7770   29.7660   47.2050 C   0  0  0  0  0  0  0  0  0  0  0  0
   60.3980   28.5720   46.4730 C   0  0  0  0  0  0  0  0  0  0  0  0
   59.6000   27.3170   46.7220 C   0  0  0  0  0  0  0  0  0  0  0  0
   60.0830   26.4730   47.5270 O   0  0  0  0  0  0  0  0  0  0  0  0
   58.3450   27.0300   46.0460 N   0  0  0  0  0  0  0  0  0  0  0  0
   58.2040   27.3490   44.6120 C   0  0  0  0  0  0  0  0  0  0  0  0
   57.7050   28.7580   44.4130 C   0  0  0  0  0  0  0  0  0  0  0  0
   58.6100   29.8040   44.1640 C   0  0  0  0  0  0  0  0  0  0  0  0
   58.1530   31.1190   44.0350 C   0  0  0  0  0  0  0  0  0  0  0  0
   56.7880   31.4000   44.1450 C   0  0  0  0  0  0  0  0  0  0  0  0
   55.8790   30.3650   44.3760 C   0  0  0  0  0  0  0  0  0  0  0  0
   56.3320   29.0490   44.5060 C   0  0  0  0  0  0  0  0  0  0  0  0
   57.1660   26.4930   46.7570 C   0  0  0  0  0  0  0  0  0  0  0  0
   56.5790   25.3000   46.0420 C   0  0  0  0  0  0  0  0  0  0  0  0
   57.4010   24.2060   45.7180 C   0  0  0  0  0  0  0  0  0  0  0  0
   56.8720   23.0940   45.0600 C   0  0  0  0  0  0  0  0  0  0  0  0
   55.5200   23.0650   44.7090 C   0  0  0  0  0  0  0  0  0  0  0  0
   54.6900   24.1480   45.0190 C   0  0  0  0  0  0  0  0  0  0  0  0
   53.3400   24.1220   44.6740 O   0  0  0  0  0  0  0  0  0  0  0  0
   55.2180   25.2650   45.6790 C   0  0  0  0  0  0  0  0  0  0  0  0
   54.3800   26.3330   45.9820 O   0  0  0  0  0  0  0  0  0  0  0  0
   60.5661   33.8909   49.4343 H   0  0  0  0  0  0  0  0  0  0  0  0
   61.2279   35.3769   48.6501 H   0  0  0  0  0  0  0  0  0  0  0  0
   58.5891   32.9469   48.6140 H   0  0  0  0  0  0  0  0  0  0  0  0
   56.8031   32.8485   46.8748 H   0  0  0  0  0  0  0  0  0  0  0  0
   57.0739   34.0965   44.7295 H   0  0  0  0  0  0  0  0  0  0  0  0
   59.1033   35.5014   44.3495 H   0  0  0  0  0  0  0  0  0  0  0  0
   60.8991   35.5989   46.0794 H   0  0  0  0  0  0  0  0  0  0  0  0
   60.8720   31.5830   46.7630 H   0  0  0  0  0  0  0  0  0  0  0  0
   59.3667   29.4263   48.1674 H   0  0  0  0  0  0  0  0  0  0  0  0
   58.9780   30.1893   46.5785 H   0  0  0  0  0  0  0  0  0  0  0  0
   60.4149   28.7802   45.3930 H   0  0  0  0  0  0  0  0  0  0  0  0
   61.4202   28.4203   46.8499 H   0  0  0  0  0  0  0  0  0  0  0  0
   59.1835   27.2429   44.1229 H   0  0  0  0  0  0  0  0  0  0  0  0
   57.4730   26.6552   44.1712 H   0  0  0  0  0  0  0  0  0  0  0  0
   59.6842   29.5868   44.0701 H   0  0  0  0  0  0  0  0  0  0  0  0
   58.8682   31.9333   43.8468 H   0  0  0  0  0  0  0  0  0  0  0  0
   56.4300   32.4357   44.0497 H   0  0  0  0  0  0  0  0  0  0  0  0
   54.8044   30.5859   44.4558 H   0  0  0  0  0  0  0  0  0  0  0  0
   55.6112   28.2369   44.6819 H   0  0  0  0  0  0  0  0  0  0  0  0
   57.4685   26.1884   47.7698 H   0  0  0  0  0  0  0  0  0  0  0  0
   56.3998   27.2814   46.7951 H   0  0  0  0  0  0  0  0  0  0  0  0
   58.4680   24.2265   45.9848 H   0  0  0  0  0  0  0  0  0  0  0  0
   57.5207   22.2394   44.8176 H   0  0  0  0  0  0  0  0  0  0  0  0
   55.1071   22.1888   44.1877 H   0  0  0  0  0  0  0  0  0  0  0  0
   52.7610   24.9500   44.7360 H   0  0  0  0  0  0  0  0  0  0  0  0
  1  2  2  0
  2  3  1  0
  3  4  1  0
  4  5  2  0
  4  6  2  0
  4  7  1  0
  7  8  1  0
  8  9  2  0
  9 10  1  0
 10 11  2  0
 11 12  1  0
 12 13  2  0
  2 14  1  0
 14 15  1  0
 15 16  1  0
 16 17  1  0
 17 18  2  0
 17 19  1  0
 19 20  1  0
 20 21  1  0
 21 22  2  0
 22 23  1  0
 23 24  2  0
 24 25  1  0
 25 26  2  0
 19 27  1  0
 27 28  1  0
 28 29  2  0
 29 30  1  0
 30 31  2  0
 31 32  1  0
 32 33  1  0
 32 34  2  0
 34 35  1  0
 13  8  1  0
 26 21  1  0
 34 28  1  0
  7 36  1  0
  7 37  1  0
  9 38  1  0
 10 39  1  0
 11 40  1  0
 12 41  1  0
 13 42  1  0
 14 43  1  0
 15 44  1  0
 15 45  1  0
 16 46  1  0
 16 47  1  0
 20 48  1  0
 20 49  1  0
 22 50  1  0
 23 51  1  0
 24 52  1  0
 25 53  1  0
 26 54  1  0
 27 55  1  0
 27 56  1  0
 29 57  1  0
 30 58  1  0
 31 59  1  0
 33 60  1  0
M  CHG  2   3  -1  35  -1
M  END
>  <UniqueID>  (88) 
82

>  <SMILES>  (88) 
O=C([N-]S(=O)(=O)Cc1ccccc1)NCCC(=O)N(Cc1ccccc1)Cc1cccc(O)c1[O-]

>  <Energy>  (88) 
49.057470525338275

>  <Genealogy>  (88) 
O=C([N-]S(=O)(=O)Cc1ccccc1)NCCC(=O)N(Cc1ccccc1)Cc1cccc(O)c1[O-] (protonated)
O=C([N-]S(=O)(=O)Cc1ccccc1)NCCC(=O)N(Cc1ccccc1)Cc1cccc(O)c1[O-] (3D coordinates assigned)
O=C([N-]S(=O)(=O)Cc1ccccc1)NCCC(=O)N(Cc1ccccc1)Cc1cccc(O)c1[O-] (optimized conformer: 49.057470525338275 kcal/mol)

>  <smiles>  (88) 
O=C(NCCC(=O)N(Cc1ccccc1)Cc1cccc(O)c1O)NS(=O)(=O)Cc1ccccc1

>  <score_type>  (88) 
oracle

>  <origin>  (88) 
adg

>  <m_score__min__energy>  (88) 
-14.619999999999999

>  <m_primary>  (88) 
energy

$$$$
88:0
     RDKit          3D

 58 60  0  0  0  0  0  0  0  0999 V2000
   63.7130   33.2100   46.9620 C   0  0  0  0  0  0  0  0  0  0  0  0
   62.9980   32.4130   48.0060 C   0  0  0  0  0  0  0  0  0  0  0  0
   62.3100   31.2320   47.7980 C   0  0  0  0  0  0  0  0  0  0  0  0
   61.8060   30.8630   49.0320 C   0  0  0  0  0  0  0  0  0  0  0  0
   60.9640   29.6880   49.2990 C   0  0  0  0  0  0  0  0  0  0  0  0
   61.4560   28.6640   49.8460 O   0  0  0  0  0  0  0  0  0  0  0  0
   59.5880   29.7080   48.9090 N   0  0  0  0  0  0  0  0  0  0  0  0
   58.5020   30.1610   49.7680 C   0  0  0  0  0  0  0  0  0  0  0  0
   58.8610   31.4450   50.4870 C   0  0  0  0  0  0  0  0  0  0  0  0
   59.1120   31.3840   51.8710 C   0  0  0  0  0  0  0  0  0  0  0  0
   59.4860   32.5250   52.5800 C   0  0  0  0  0  0  0  0  0  0  0  0
   59.6210   33.7450   51.9230 C   0  0  0  0  0  0  0  0  0  0  0  0
   59.3790   33.8310   50.5530 C   0  0  0  0  0  0  0  0  0  0  0  0
   58.9970   32.6940   49.8150 C   0  0  0  0  0  0  0  0  0  0  0  0
   58.7260   32.8570   48.3340 C   0  0  0  0  0  0  0  0  0  0  0  0
   59.7640   33.6900   47.6960 N   0  0  0  0  0  0  0  0  0  0  0  0
   59.3280   35.0900   47.5560 C   0  0  0  0  0  0  0  0  0  0  0  0
   60.2520   33.1220   46.4170 C   0  0  0  0  0  0  0  0  0  0  0  0
   59.2610   32.1940   45.7440 C   0  0  0  0  0  0  0  0  0  0  0  0
   58.2260   32.7140   44.9500 C   0  0  0  0  0  0  0  0  0  0  0  0
   57.3050   31.8600   44.3380 C   0  0  0  0  0  0  0  0  0  0  0  0
   57.4160   30.4700   44.4960 C   0  0  0  0  0  0  0  0  0  0  0  0
   56.3990   29.5490   43.8700 C   0  0  0  0  0  0  0  0  0  0  0  0
   55.2500   29.3590   44.7520 N   0  0  0  0  0  0  0  0  0  0  0  0
   58.4490   29.9470   45.2880 C   0  0  0  0  0  0  0  0  0  0  0  0
   59.3690   30.8010   45.9010 C   0  0  0  0  0  0  0  0  0  0  0  0
   62.1600   31.7610   49.9730 N   0  0  0  0  0  0  0  0  0  0  0  0
   62.8890   32.7070   49.3570 C   0  0  0  0  0  0  0  0  0  0  0  0
   63.4390   33.9090   50.0600 C   0  0  0  0  0  0  0  0  0  0  0  0
   64.3718   33.9443   47.4486 H   0  0  0  0  0  0  0  0  0  0  0  0
   64.3151   32.5362   46.3348 H   0  0  0  0  0  0  0  0  0  0  0  0
   62.9780   33.7357   46.3348 H   0  0  0  0  0  0  0  0  0  0  0  0
   62.1883   30.6954   46.8455 H   0  0  0  0  0  0  0  0  0  0  0  0
   57.6075   30.3346   49.1517 H   0  0  0  0  0  0  0  0  0  0  0  0
   58.3126   29.3841   50.5233 H   0  0  0  0  0  0  0  0  0  0  0  0
   59.0118   30.4245   52.3995 H   0  0  0  0  0  0  0  0  0  0  0  0
   59.6750   32.4610   53.6618 H   0  0  0  0  0  0  0  0  0  0  0  0
   59.9190   34.6420   52.4857 H   0  0  0  0  0  0  0  0  0  0  0  0
   59.4877   34.7990   50.0419 H   0  0  0  0  0  0  0  0  0  0  0  0
   58.7178   31.8652   47.8583 H   0  0  0  0  0  0  0  0  0  0  0  0
   57.7520   33.3524   48.2079 H   0  0  0  0  0  0  0  0  0  0  0  0
   59.1902   35.5326   48.5535 H   0  0  0  0  0  0  0  0  0  0  0  0
   60.0916   35.6585   47.0050 H   0  0  0  0  0  0  0  0  0  0  0  0
   58.3766   35.1244   47.0050 H   0  0  0  0  0  0  0  0  0  0  0  0
   60.4718   33.9524   45.7299 H   0  0  0  0  0  0  0  0  0  0  0  0
   61.1444   32.5232   46.6514 H   0  0  0  0  0  0  0  0  0  0  0  0
   58.1398   33.8015   44.8089 H   0  0  0  0  0  0  0  0  0  0  0  0
   56.4896   32.2788   43.7299 H   0  0  0  0  0  0  0  0  0  0  0  0
   56.0551   29.9854   42.9206 H   0  0  0  0  0  0  0  0  0  0  0  0
   56.8723   28.5713   43.6964 H   0  0  0  0  0  0  0  0  0  0  0  0
   54.5720   30.1400   44.5970 H   0  0  0  0  0  0  0  0  0  0  0  0
   54.7700   28.4650   44.4930 H   0  0  0  0  0  0  0  0  0  0  0  0
   58.5350   28.8592   45.4270 H   0  0  0  0  0  0  0  0  0  0  0  0
   60.1829   30.3810   46.5103 H   0  0  0  0  0  0  0  0  0  0  0  0
   61.9090   31.7380   50.9870 H   0  0  0  0  0  0  0  0  0  0  0  0
   63.3711   33.7606   51.1478 H   0  0  0  0  0  0  0  0  0  0  0  0
   64.4917   34.0511   49.7743 H   0  0  0  0  0  0  0  0  0  0  0  0
   62.8583   34.7985   49.7743 H   0  0  0  0  0  0  0  0  0  0  0  0
  1  2  1  0
  2  3  1  0
  3  4  2  0
  4  5  1  0
  5  6  2  0
  5  7  1  0
  7  8  1  0
  8  9  1  0
  9 10  2  0
 10 11  1  0
 11 12  2  0
 12 13  1  0
 13 14  2  0
 14 15  1  0
 15 16  1  0
 16 17  1  0
 16 18  1  0
 18 19  1  0
 19 20  2  0
 20 21  1  0
 21 22  2  0
 22 23  1  0
 23 24  1  0
 22 25  1  0
 25 26  2  0
  4 27  1  0
 27 28  1  0
 28 29  1  0
 28  2  2  0
 14  9  1  0
 26 19  1  0
  1 30  1  0
  1 31  1  0
  1 32  1  0
  3 33  1  0
  8 34  1  0
  8 35  1  0
 10 36  1  0
 11 37  1  0
 12 38  1  0
 13 39  1  0
 15 40  1  0
 15 41  1  0
 17 42  1  0
 17 43  1  0
 17 44  1  0
 18 45  1  0
 18 46  1  0
 20 47  1  0
 21 48  1  0
 23 49  1  0
 23 50  1  0
 24 51  1  0
 24 52  1  0
 25 53  1  0
 26 54  1  0
 27 55  1  0
 29 56  1  0
 29 57  1  0
 29 58  1  0
M  CHG  1   7  -1
M  END
>  <UniqueID>  (89) 
83

>  <SMILES>  (89) 
Cc1cc(C(=O)[N-]Cc2ccccc2CN(C)Cc2ccc(CN)cc2)[nH]c1C

>  <Energy>  (89) 
81.799421061631

>  <Genealogy>  (89) 
Cc1cc(C(=O)[N-]Cc2ccccc2CN(C)Cc2ccc(CN)cc2)[nH]c1C (protonated)
Cc1cc(C(=O)[N-]Cc2ccccc2CN(C)Cc2ccc(CN)cc2)[nH]c1C (3D coordinates assigned)
Cc1cc(C(=O)[N-]Cc2ccccc2CN(C)Cc2ccc(CN)cc2)[nH]c1C (optimized conformer: 81.799421061631 kcal/mol)

>  <smiles>  (89) 
Cc1cc(C(=O)NCc2ccccc2CN(C)Cc2ccc(CN)cc2)[nH]c1C

>  <score_type>  (89) 
oracle

>  <origin>  (89) 
adg

>  <m_score__min__energy>  (89) 
-10.220000000000001

>  <m_primary>  (89) 
energy

$$$$
89:0
     RDKit          3D

 47 49  0  0  0  0  0  0  0  0999 V2000
   58.9440   29.2040   45.0490 O   0  0  0  0  0  0  0  0  0  0  0  0
   58.3450   28.2940   45.6820 C   0  0  0  0  0  0  0  0  0  0  0  0
   57.0550   27.7560   45.1530 C   0  0  0  0  0  0  0  0  0  0  0  0
   56.0130   28.7720   45.2450 N   0  0  0  0  0  0  0  0  0  0  0  0
   55.7810   29.7640   44.2380 C   0  0  0  0  0  0  0  0  0  0  0  0
   54.7630   29.6770   43.4990 O   0  0  0  0  0  0  0  0  0  0  0  0
   56.7260   30.8940   44.0730 C   0  0  0  0  0  0  0  0  0  0  0  0
   57.2400   31.2190   42.8030 C   0  0  0  0  0  0  0  0  0  0  0  0
   58.1340   32.2830   42.6530 C   0  0  0  0  0  0  0  0  0  0  0  0
   58.5240   33.0360   43.7630 C   0  0  0  0  0  0  0  0  0  0  0  0
   58.0140   32.7330   45.0330 C   0  0  0  0  0  0  0  0  0  0  0  0
   58.5230   33.6550   46.4450 S   0  0  0  0  0  0  0  0  0  0  0  0
   57.3470   33.8390   47.3640 O   0  0  0  0  0  0  0  0  0  0  0  0
   59.0140   35.0130   46.0190 O   0  0  0  0  0  0  0  0  0  0  0  0
   59.7840   32.7810   47.2780 N   0  0  0  0  0  0  0  0  0  0  0  0
   60.3260   31.7100   46.4430 C   0  0  0  0  0  0  0  0  0  0  0  0
   61.7460   31.4670   46.9300 C   0  0  0  0  0  0  0  0  0  0  0  0
   62.1540   32.7550   47.6280 C   0  0  0  0  0  0  0  0  0  0  0  0
   60.9200   33.6480   47.5890 C   0  0  0  0  0  0  0  0  0  0  0  0
   57.1210   31.6620   45.1850 C   0  0  0  0  0  0  0  0  0  0  0  0
   58.8260   27.8420   46.9540 N   0  0  0  0  0  0  0  0  0  0  0  0
   59.1520   28.6560   48.0890 C   0  0  0  0  0  0  0  0  0  0  0  0
   60.1040   28.1790   49.0030 C   0  0  0  0  0  0  0  0  0  0  0  0
   60.4640   28.9440   50.1150 C   0  0  0  0  0  0  0  0  0  0  0  0
   59.8870   30.2000   50.3180 C   0  0  0  0  0  0  0  0  0  0  0  0
   58.9550   30.7010   49.4020 C   0  0  0  0  0  0  0  0  0  0  0  0
   58.3980   31.9630   49.6080 O   0  0  0  0  0  0  0  0  0  0  0  0
   58.5920   29.9340   48.2860 C   0  0  0  0  0  0  0  0  0  0  0  0
   57.1868   27.4642   44.1006 H   0  0  0  0  0  0  0  0  0  0  0  0
   56.7582   26.8809   45.7497 H   0  0  0  0  0  0  0  0  0  0  0  0
   56.9362   30.6321   41.9237 H   0  0  0  0  0  0  0  0  0  0  0  0
   58.5319   32.5282   41.6572 H   0  0  0  0  0  0  0  0  0  0  0  0
   59.2327   33.8683   43.6402 H   0  0  0  0  0  0  0  0  0  0  0  0
   59.7231   30.7969   46.5557 H   0  0  0  0  0  0  0  0  0  0  0  0
   60.3099   31.9858   45.3783 H   0  0  0  0  0  0  0  0  0  0  0  0
   61.7732   30.6217   47.6334 H   0  0  0  0  0  0  0  0  0  0  0  0
   62.4264   31.2139   46.1036 H   0  0  0  0  0  0  0  0  0  0  0  0
   62.4487   32.5518   48.6681 H   0  0  0  0  0  0  0  0  0  0  0  0
   63.0166   33.2294   47.1372 H   0  0  0  0  0  0  0  0  0  0  0  0
   60.7713   34.1322   48.5655 H   0  0  0  0  0  0  0  0  0  0  0  0
   61.0297   34.4421   46.8358 H   0  0  0  0  0  0  0  0  0  0  0  0
   56.7255   31.4198   46.1825 H   0  0  0  0  0  0  0  0  0  0  0  0
   60.5701   27.1956   48.8427 H   0  0  0  0  0  0  0  0  0  0  0  0
   61.2030   28.5568   50.8319 H   0  0  0  0  0  0  0  0  0  0  0  0
   60.1657   30.7962   51.1994 H   0  0  0  0  0  0  0  0  0  0  0  0
   58.3430   32.6470   48.8620 H   0  0  0  0  0  0  0  0  0  0  0  0
   57.8667   30.3316   47.5608 H   0  0  0  0  0  0  0  0  0  0  0  0
  1  2  2  0
  2  3  1  0
  3  4  1  0
  4  5  1  0
  5  6  2  0
  5  7  1  0
  7  8  2  0
  8  9  1  0
  9 10  2  0
 10 11  1  0
 11 12  1  0
 12 13  2  0
 12 14  2  0
 12 15  1  0
 15 16  1  0
 16 17  1  0
 17 18  1  0
 18 19  1  0
 11 20  2  0
  2 21  1  0
 21 22  1  0
 22 23  2  0
 23 24  1  0
 24 25  2  0
 25 26  1  0
 26 27  1  0
 26 28  2  0
 20  7  1  0
 28 22  1  0
 19 15  1  0
  3 29  1  0
  3 30  1  0
  8 31  1  0
  9 32  1  0
 10 33  1  0
 16 34  1  0
 16 35  1  0
 17 36  1  0
 17 37  1  0
 18 38  1  0
 18 39  1  0
 19 40  1  0
 19 41  1  0
 20 42  1  0
 23 43  1  0
 24 44  1  0
 25 45  1  0
 27 46  1  0
 28 47  1  0
M  CHG  2   4  -1  21  -1
M  END
>  <UniqueID>  (90) 
84

>  <SMILES>  (90) 
O=C(C[N-]C(=O)c1cccc(S(=O)(=O)N2CCCC2)c1)[N-]c1cccc(O)c1

>  <Energy>  (90) 
49.57733832004953

>  <Genealogy>  (90) 
O=C(C[N-]C(=O)c1cccc(S(=O)(=O)N2CCCC2)c1)[N-]c1cccc(O)c1 (protonated)
O=C(C[N-]C(=O)c1cccc(S(=O)(=O)N2CCCC2)c1)[N-]c1cccc(O)c1 (3D coordinates assigned)
O=C(C[N-]C(=O)c1cccc(S(=O)(=O)N2CCCC2)c1)[N-]c1cccc(O)c1 (nonaromatic ring conformer: 49.57733832004953 kcal/mol)

>  <smiles>  (90) 
O=C(CNC(=O)c1cccc(S(=O)(=O)N2CCCC2)c1)Nc1cccc(O)c1

>  <score_type>  (90) 
oracle

>  <origin>  (90) 
adg

>  <m_score__min__energy>  (90) 
-13.869999999999999

>  <m_primary>  (90) 
energy

$$$$
90:0
     RDKit          3D

 46 49  0  0  0  0  0  0  0  0999 V2000
   58.0370   32.3410   42.6360 C   0  0  0  0  0  0  0  0  0  0  0  0
   58.1220   32.8090   44.0640 C   0  0  0  0  0  0  0  0  0  0  0  0
   59.0340   33.8260   44.3930 C   0  0  0  0  0  0  0  0  0  0  0  0
   59.1170   34.3090   45.7010 C   0  0  0  0  0  0  0  0  0  0  0  0
   58.2900   33.7840   46.6940 C   0  0  0  0  0  0  0  0  0  0  0  0
   57.3920   32.7600   46.3870 C   0  0  0  0  0  0  0  0  0  0  0  0
   57.3220   32.2430   45.0870 C   0  0  0  0  0  0  0  0  0  0  0  0
   56.4190   31.1590   44.8320 N   0  0  0  0  0  0  0  0  0  0  0  0
   56.6950   29.7680   45.0510 C   0  0  0  0  0  0  0  0  0  0  0  0
   55.7560   28.9410   44.9020 O   0  0  0  0  0  0  0  0  0  0  0  0
   58.0270   29.2890   45.4950 C   0  0  0  0  0  0  0  0  0  0  0  0
   59.0910   29.1740   44.5880 C   0  0  0  0  0  0  0  0  0  0  0  0
   60.3230   28.7140   45.0570 C   0  0  0  0  0  0  0  0  0  0  0  0
   61.2990   28.6000   44.2690 O   0  0  0  0  0  0  0  0  0  0  0  0
   60.4710   28.3860   46.3660 N   0  0  0  0  0  0  0  0  0  0  0  0
   59.4300   28.4930   47.2320 C   0  0  0  0  0  0  0  0  0  0  0  0
   59.6380   28.0200   48.9460 S   0  0  0  0  0  0  0  0  0  0  0  0
   58.9210   29.5620   49.6170 C   0  0  0  0  0  0  0  0  0  0  0  0
   59.7920   30.7450   49.2940 C   0  0  0  0  0  0  0  0  0  0  0  0
   59.4760   32.0050   49.7990 C   0  0  0  0  0  0  0  0  0  0  0  0
   60.2600   33.0990   49.4340 C   0  0  0  0  0  0  0  0  0  0  0  0
   59.9680   34.2360   49.9000 O   0  0  0  0  0  0  0  0  0  0  0  0
   61.3230   32.9360   48.5800 N   0  0  0  0  0  0  0  0  0  0  0  0
   62.0910   34.0110   48.2100 C   0  0  0  0  0  0  0  0  0  0  0  0
   63.1660   33.8530   47.3330 C   0  0  0  0  0  0  0  0  0  0  0  0
   63.4620   32.5920   46.8290 C   0  0  0  0  0  0  0  0  0  0  0  0
   62.6870   31.4990   47.2060 C   0  0  0  0  0  0  0  0  0  0  0  0
   61.6120   31.6790   48.0890 C   0  0  0  0  0  0  0  0  0  0  0  0
   60.8520   30.6060   48.4520 N   0  0  0  0  0  0  0  0  0  0  0  0
   58.2250   28.9370   46.7930 N   0  0  0  0  0  0  0  0  0  0  0  0
   57.8405   31.2589   42.6159 H   0  0  0  0  0  0  0  0  0  0  0  0
   57.2205   32.8715   42.1243 H   0  0  0  0  0  0  0  0  0  0  0  0
   58.9879   32.5505   42.1243 H   0  0  0  0  0  0  0  0  0  0  0  0
   59.6879   34.2452   43.6141 H   0  0  0  0  0  0  0  0  0  0  0  0
   59.8355   35.1044   45.9483 H   0  0  0  0  0  0  0  0  0  0  0  0
   58.3454   34.1771   47.7199 H   0  0  0  0  0  0  0  0  0  0  0  0
   56.7349   32.3564   47.1714 H   0  0  0  0  0  0  0  0  0  0  0  0
   58.9574   29.4407   43.5292 H   0  0  0  0  0  0  0  0  0  0  0  0
   57.9251   29.7173   49.1766 H   0  0  0  0  0  0  0  0  0  0  0  0
   58.8477   29.4682   50.7105 H   0  0  0  0  0  0  0  0  0  0  0  0
   58.6193   32.1348   50.4767 H   0  0  0  0  0  0  0  0  0  0  0  0
   61.8571   35.0091   48.6089 H   0  0  0  0  0  0  0  0  0  0  0  0
   63.7752   34.7217   47.0426 H   0  0  0  0  0  0  0  0  0  0  0  0
   64.3051   32.4584   46.1352 H   0  0  0  0  0  0  0  0  0  0  0  0
   62.9167   30.4976   46.8129 H   0  0  0  0  0  0  0  0  0  0  0  0
   61.0760   29.6610   48.0650 H   0  0  0  0  0  0  0  0  0  0  0  0
  1  2  1  0
  2  3  2  0
  3  4  1  0
  4  5  2  0
  5  6  1  0
  6  7  2  0
  7  8  1  0
  8  9  1  0
  9 10  2  0
  9 11  1  0
 11 12  2  0
 12 13  1  0
 13 14  2  0
 13 15  1  0
 15 16  1  0
 16 17  1  0
 17 18  1  0
 18 19  1  0
 19 20  2  0
 20 21  1  0
 21 22  2  0
 21 23  1  0
 23 24  1  0
 24 25  2  0
 25 26  1  0
 26 27  2  0
 27 28  1  0
 28 29  2  0
 16 30  2  0
  7  2  1  0
 30 11  1  0
 29 19  1  0
 28 23  1  0
  1 31  1  0
  1 32  1  0
  1 33  1  0
  3 34  1  0
  4 35  1  0
  5 36  1  0
  6 37  1  0
 12 38  1  0
 18 39  1  0
 18 40  1  0
 20 41  1  0
 24 42  1  0
 25 43  1  0
 26 44  1  0
 27 45  1  0
 29 46  1  0
M  CHG  3   8  -1  15  -1  29   1
M  END
>  <UniqueID>  (91) 
85

>  <SMILES>  (91) 
Cc1ccccc1[N-]C(=O)c1cc(=O)[n-]c(SCc2cc(=O)n3ccccc3[nH+]2)n1

>  <Energy>  (91) 
58.86489788609767

>  <Genealogy>  (91) 
Cc1ccccc1[N-]C(=O)c1cc(=O)[n-]c(SCc2cc(=O)n3ccccc3[nH+]2)n1 (protonated)
Cc1ccccc1[N-]C(=O)c1cc(=O)[n-]c(SCc2cc(=O)n3ccccc3[nH+]2)n1 (3D coordinates assigned)
Cc1ccccc1[N-]C(=O)c1cc(=O)[n-]c(SCc2cc(=O)n3ccccc3[nH+]2)n1 (optimized conformer: 58.86489788609767 kcal/mol)

>  <smiles>  (91) 
Cc1ccccc1NC(=O)c1cc(=O)[nH]c(SCc2cc(=O)n3ccccc3n2)n1

>  <score_type>  (91) 
oracle

>  <origin>  (91) 
adg

>  <m_score__min__energy>  (91) 
-11.039999999999999

>  <m_primary>  (91) 
energy

$$$$
91:0
     RDKit          3D

 55 58  0  0  0  0  0  0  0  0999 V2000
   55.1520   31.3170   51.6230 C   0  0  0  0  0  0  0  0  0  0  0  0
   54.7770   30.2470   52.3420 C   0  0  0  0  0  0  0  0  0  0  0  0
   53.4680   29.8030   52.6000 C   0  0  0  0  0  0  0  0  0  0  0  0
   52.2740   30.3770   52.3580 C   0  0  0  0  0  0  0  0  0  0  0  0
   51.7940   30.8420   51.0480 C   0  0  0  0  0  0  0  0  0  0  0  0
   51.7210   30.0530   49.9610 N   0  0  0  0  0  0  0  0  0  0  0  0
   51.1200   30.8430   49.0420 C   0  0  0  0  0  0  0  0  0  0  0  0
   50.8900   30.4570   47.8650 O   0  0  0  0  0  0  0  0  0  0  0  0
   50.7820   32.0730   49.4850 N   0  0  0  0  0  0  0  0  0  0  0  0
   51.2010   32.0520   50.7610 C   0  0  0  0  0  0  0  0  0  0  0  0
   51.0190   33.1040   51.6510 O   0  0  0  0  0  0  0  0  0  0  0  0
   53.5930   28.5630   53.2040 C   0  0  0  0  0  0  0  0  0  0  0  0
   54.9440   28.3220   53.3500 C   0  0  0  0  0  0  0  0  0  0  0  0
   55.5370   27.0800   53.9380 C   0  0  0  0  0  0  0  0  0  0  0  0
   55.6590   29.3420   52.8310 N   0  0  0  0  0  0  0  0  0  0  0  0
   57.0890   29.3890   52.7430 C   0  0  0  0  0  0  0  0  0  0  0  0
   57.7080   29.7460   51.5400 C   0  0  0  0  0  0  0  0  0  0  0  0
   59.1020   29.7810   51.4490 C   0  0  0  0  0  0  0  0  0  0  0  0
   59.8980   29.4490   52.5610 C   0  0  0  0  0  0  0  0  0  0  0  0
   61.3800   29.4740   52.4850 C   0  0  0  0  0  0  0  0  0  0  0  0
   62.0330   28.4740   52.8920 O   0  0  0  0  0  0  0  0  0  0  0  0
   62.0820   30.6040   51.9410 N   0  0  0  0  0  0  0  0  0  0  0  0
   63.5410   30.6720   51.9080 C   0  0  0  0  0  0  0  0  0  0  0  0
   63.9990   32.0970   51.5860 C   0  0  0  0  0  0  0  0  0  0  0  0
   63.4050   32.5640   50.2900 C   0  0  0  0  0  0  0  0  0  0  0  0
   64.1270   32.4620   49.0940 C   0  0  0  0  0  0  0  0  0  0  0  0
   63.5350   32.8750   47.9010 C   0  0  0  0  0  0  0  0  0  0  0  0
   62.2330   33.3790   47.9060 C   0  0  0  0  0  0  0  0  0  0  0  0
   61.5300   33.4580   49.1180 C   0  0  0  0  0  0  0  0  0  0  0  0
   60.1520   33.9760   49.1710 C   0  0  0  0  0  0  0  0  0  0  0  0
   59.3520   33.7510   50.3290 N   0  0  0  0  0  0  0  0  0  0  0  0
   59.6740   34.6230   48.2010 O   0  0  0  0  0  0  0  0  0  0  0  0
   62.1330   33.0460   50.2690 N   0  0  0  0  0  0  0  0  0  0  0  0
   59.2650   29.1060   53.7690 C   0  0  0  0  0  0  0  0  0  0  0  0
   57.8710   29.0720   53.8590 C   0  0  0  0  0  0  0  0  0  0  0  0
   56.2199   31.5506   51.5006 H   0  0  0  0  0  0  0  0  0  0  0  0
   54.3913   31.9601   51.1563 H   0  0  0  0  0  0  0  0  0  0  0  0
   51.5982   30.5097   53.2158 H   0  0  0  0  0  0  0  0  0  0  0  0
   52.7722   27.8973   53.5091 H   0  0  0  0  0  0  0  0  0  0  0  0
   55.5067   27.1434   55.0358 H   0  0  0  0  0  0  0  0  0  0  0  0
   54.9596   26.2049   53.6052 H   0  0  0  0  0  0  0  0  0  0  0  0
   56.5806   26.9789   53.6052 H   0  0  0  0  0  0  0  0  0  0  0  0
   57.0950   30.0000   50.6626 H   0  0  0  0  0  0  0  0  0  0  0  0
   59.5804   30.0701   50.5016 H   0  0  0  0  0  0  0  0  0  0  0  0
   61.5540   31.3790   51.4860 H   0  0  0  0  0  0  0  0  0  0  0  0
   63.9404   30.3754   52.8890 H   0  0  0  0  0  0  0  0  0  0  0  0
   63.9135   29.9915   51.1282 H   0  0  0  0  0  0  0  0  0  0  0  0
   63.6781   32.7708   52.3940 H   0  0  0  0  0  0  0  0  0  0  0  0
   65.0953   32.1046   51.4960 H   0  0  0  0  0  0  0  0  0  0  0  0
   65.1509   32.0600   49.0959 H   0  0  0  0  0  0  0  0  0  0  0  0
   64.0937   32.8037   46.9561 H   0  0  0  0  0  0  0  0  0  0  0  0
   61.7626   33.7111   46.9687 H   0  0  0  0  0  0  0  0  0  0  0  0
   59.7920   33.5900   51.2620 H   0  0  0  0  0  0  0  0  0  0  0  0
   59.8736   28.8619   54.6522 H   0  0  0  0  0  0  0  0  0  0  0  0
   57.3881   28.7958   54.8080 H   0  0  0  0  0  0  0  0  0  0  0  0
  1  2  2  0
  2  3  1  0
  3  4  2  3
  4  5  1  0
  5  6  1  0
  6  7  1  0
  7  8  2  0
  7  9  1  0
  9 10  1  0
 10 11  1  0
  3 12  1  0
 12 13  2  0
 13 14  1  0
 13 15  1  0
 15 16  1  0
 16 17  2  0
 17 18  1  0
 18 19  2  0
 19 20  1  0
 20 21  2  0
 20 22  1  0
 22 23  1  0
 23 24  1  0
 24 25  1  0
 25 26  2  0
 26 27  1  0
 27 28  2  0
 28 29  1  0
 29 30  1  0
 30 31  1  0
 30 32  2  0
 29 33  2  0
 19 34  1  0
 34 35  2  0
 15  2  1  0
 35 16  1  0
 10  5  2  0
 33 25  1  0
  1 36  1  0
  1 37  1  0
  4 38  1  0
 12 39  1  0
 14 40  1  0
 14 41  1  0
 14 42  1  0
 17 43  1  0
 18 44  1  0
 22 45  1  0
 23 46  1  0
 23 47  1  0
 24 48  1  0
 24 49  1  0
 26 50  1  0
 27 51  1  0
 28 52  1  0
 31 53  1  0
 34 54  1  0
 35 55  1  0
M  CHG  4   6  -1   9  -1  11  -1  31  -1
M  END
>  <UniqueID>  (92) 
86

>  <SMILES>  (92) 
C=c1c(=Cc2[n-]c(=O)[n-]c2[O-])cc(C)n1-c1ccc(C(=O)NCCc2cccc(C([NH-])=O)n2)cc1

>  <Energy>  (92) 
133.22920534198295

>  <Genealogy>  (92) 
C=c1c(=Cc2[n-]c(=O)[n-]c2[O-])cc(C)n1-c1ccc(C(=O)NCCc2cccc(C([NH-])=O)n2)cc1 (protonated)
C=c1c(=Cc2[n-]c(=O)[n-]c2[O-])cc(C)n1-c1ccc(C(=O)NCCc2cccc(C([NH-])=O)n2)cc1 (3D coordinates assigned)
C=c1c(=Cc2[n-]c(=O)[n-]c2[O-])cc(C)n1-c1ccc(C(=O)NCCc2cccc(C([NH-])=O)n2)cc1 (optimized conformer: 133.22920534198295 kcal/mol)

>  <smiles>  (92) 
C=c1c(=Cc2[nH]c(=O)[nH]c2O)cc(C)n1-c1ccc(C(=O)NCCc2cccc(C(N)=O)n2)cc1

>  <score_type>  (92) 
oracle

>  <origin>  (92) 
adg

>  <m_score__min__energy>  (92) 
-16.719999999999999

>  <m_primary>  (92) 
energy

$$$$
