0:0
     RDKit          3D

 45 47  0  0  0  0  0  0  0  0999 V2000
   58.7650   31.1980   43.8990 O   0  0  0  0  0  0  0  0  0  0  0  0
   57.7610   31.8410   44.3130 C   0  0  0  0  0  0  0  0  0  0  0  0
   57.8950   33.2890   44.6560 C   0  0  0  0  0  0  0  0  0  0  0  0
   57.7020   33.5240   46.4570 S   0  0  0  0  0  0  0  0  0  0  0  0
   59.4450   33.2820   46.8450 C   0  0  0  0  0  0  0  0  0  0  0  0
   60.3560   34.0490   46.1810 N   0  0  0  0  0  0  0  0  0  0  0  0
   61.6890   33.9600   46.4200 C   0  0  0  0  0  0  0  0  0  0  0  0
   62.1700   33.0620   47.3680 C   0  0  0  0  0  0  0  0  0  0  0  0
   61.2670   32.2520   48.0590 C   0  0  0  0  0  0  0  0  0  0  0  0
   59.8850   32.3450   47.8130 C   0  0  0  0  0  0  0  0  0  0  0  0
   58.9500   31.4560   48.5520 C   0  0  0  0  0  0  0  0  0  0  0  0
   58.3600   31.8880   49.5780 O   0  0  0  0  0  0  0  0  0  0  0  0
   58.5800   30.1600   48.0560 N   0  0  0  0  0  0  0  0  0  0  0  0
   59.2770   29.3540   47.3030 C   0  0  0  0  0  0  0  0  0  0  0  0
   59.4970   28.0460   47.7520 C   0  0  0  0  0  0  0  0  0  0  0  0
   60.2410   27.1610   46.9680 C   0  0  0  0  0  0  0  0  0  0  0  0
   60.7690   27.5890   45.7520 C   0  0  0  0  0  0  0  0  0  0  0  0
   60.5510   28.9030   45.3370 C   0  0  0  0  0  0  0  0  0  0  0  0
   59.8260   29.7580   46.1130 N   0  0  0  0  0  0  0  0  0  0  0  0
   56.4970   31.1910   44.4910 N   0  0  0  0  0  0  0  0  0  0  0  0
   56.3140   29.7990   44.7760 C   0  0  0  0  0  0  0  0  0  0  0  0
   55.1580   29.3370   44.9830 O   0  0  0  0  0  0  0  0  0  0  0  0
   57.4530   28.9300   44.7640 N   0  0  0  0  0  0  0  0  0  0  0  0
   57.3600   27.5070   44.9310 C   0  0  0  0  0  0  0  0  0  0  0  0
   56.7070   26.9890   46.0600 C   0  0  0  0  0  0  0  0  0  0  0  0
   56.5940   25.6070   46.2400 C   0  0  0  0  0  0  0  0  0  0  0  0
   57.1130   24.7330   45.2810 C   0  0  0  0  0  0  0  0  0  0  0  0
   57.7390   25.2400   44.1400 C   0  0  0  0  0  0  0  0  0  0  0  0
   57.8620   26.6220   43.9580 C   0  0  0  0  0  0  0  0  0  0  0  0
   58.4200   27.0920   42.8140 F   0  0  0  0  0  0  0  0  0  0  0  0
   58.8881   33.6465   44.3462 H   0  0  0  0  0  0  0  0  0  0  0  0
   57.1136   33.8584   44.1315 H   0  0  0  0  0  0  0  0  0  0  0  0
   62.3904   34.5988   45.8633 H   0  0  0  0  0  0  0  0  0  0  0  0
   63.2489   32.9912   47.5705 H   0  0  0  0  0  0  0  0  0  0  0  0
   61.6400   31.5335   48.8037 H   0  0  0  0  0  0  0  0  0  0  0  0
   59.0858   27.7169   48.7177 H   0  0  0  0  0  0  0  0  0  0  0  0
   60.4094   26.1291   47.3098 H   0  0  0  0  0  0  0  0  0  0  0  0
   61.3519   26.8979   45.1254 H   0  0  0  0  0  0  0  0  0  0  0  0
   60.9659   29.2508   44.3794 H   0  0  0  0  0  0  0  0  0  0  0  0
   59.7330   30.7370   45.7740 H   0  0  0  0  0  0  0  0  0  0  0  0
   58.3550   29.3230   44.4140 H   0  0  0  0  0  0  0  0  0  0  0  0
   56.2815   27.6743   46.8079 H   0  0  0  0  0  0  0  0  0  0  0  0
   56.0967   25.2078   47.1363 H   0  0  0  0  0  0  0  0  0  0  0  0
   57.0285   23.6457   45.4247 H   0  0  0  0  0  0  0  0  0  0  0  0
   58.1370   24.5501   43.3813 H   0  0  0  0  0  0  0  0  0  0  0  0
  1  2  2  0
  2  3  1  0
  3  4  1  0
  4  5  1  0
  5  6  2  0
  6  7  1  0
  7  8  2  0
  8  9  1  0
  9 10  2  0
 10 11  1  0
 11 12  2  0
 11 13  1  0
 13 14  2  3
 14 15  1  0
 15 16  2  0
 16 17  1  0
 17 18  2  0
 18 19  1  0
  2 20  1  0
 20 21  1  0
 21 22  2  0
 21 23  1  0
 23 24  1  0
 24 25  2  0
 25 26  1  0
 26 27  2  0
 27 28  1  0
 28 29  2  0
 29 30  1  0
 10  5  1  0
 19 14  1  0
 29 24  1  0
  3 31  1  0
  3 32  1  0
  7 33  1  0
  8 34  1  0
  9 35  1  0
 15 36  1  0
 16 37  1  0
 17 38  1  0
 18 39  1  0
 19 40  1  0
 23 41  1  0
 25 42  1  0
 26 43  1  0
 27 44  1  0
 28 45  1  0
M  CHG  1  20  -1
M  END
>  <UniqueID>  (1) 
1

>  <SMILES>  (1) 
O=C(CSc1ncccc1C(=O)N=c1cccc[nH]1)[N-]C(=O)Nc1ccccc1F

>  <Energy>  (1) 
61.34563993517277

>  <Genealogy>  (1) 
O=C(CSc1ncccc1C(=O)N=c1cccc[nH]1)[N-]C(=O)Nc1ccccc1F (protonated)
O=C(CSc1ncccc1C(=O)N=c1cccc[nH]1)[N-]C(=O)Nc1ccccc1F (3D coordinates assigned)
O=C(CSc1ncccc1C(=O)N=c1cccc[nH]1)[N-]C(=O)Nc1ccccc1F (optimized conformer: 61.34563993517277 kcal/mol)

>  <smiles>  (1) 
O=C(CSc1ncccc1C(=O)N=c1cccc[nH]1)NC(=O)Nc1ccccc1F

>  <score_type>  (1) 
oracle

>  <origin>  (1) 
adg

>  <m_score__min__energy>  (1) 
-9.9100000000000001

>  <m_primary>  (1) 
energy

$$$$
1:0
     RDKit          3D

 22 23  0  0  0  0  0  0  0  0999 V2000
   57.4370   23.9400   47.8040 C   0  0  0  0  0  0  0  0  0  0  0  0
   56.9720   24.9910   47.1200 C   0  0  0  0  0  0  0  0  0  0  0  0
   55.6820   24.9730   46.6910 N   0  0  0  0  0  0  0  0  0  0  0  0
   55.1550   26.0080   45.9930 C   0  0  0  0  0  0  0  0  0  0  0  0
   53.9580   25.9620   45.6080 O   0  0  0  0  0  0  0  0  0  0  0  0
   55.9170   27.0930   45.7070 N   0  0  0  0  0  0  0  0  0  0  0  0
   57.2150   27.1860   46.1080 C   0  0  0  0  0  0  0  0  0  0  0  0
   57.9460   28.2740   45.7880 C   0  0  0  0  0  0  0  0  0  0  0  0
   57.5100   29.3390   44.8580 C   0  0  0  0  0  0  0  0  0  0  0  0
   58.1850   30.5300   44.6770 C   0  0  0  0  0  0  0  0  0  0  0  0
   57.4330   31.2730   43.7890 C   0  0  0  0  0  0  0  0  0  0  0  0
   56.3250   30.5120   43.4790 C   0  0  0  0  0  0  0  0  0  0  0  0
   56.3710   29.3390   44.1340 N   0  0  0  0  0  0  0  0  0  0  0  0
   57.7800   26.1110   46.8310 C   0  0  0  0  0  0  0  0  0  0  0  0
   58.9840   26.1520   47.2180 O   0  0  0  0  0  0  0  0  0  0  0  0
   58.4775   23.9327   48.1609 H   0  0  0  0  0  0  0  0  0  0  0  0
   56.7790   23.0828   48.0097 H   0  0  0  0  0  0  0  0  0  0  0  0
   58.9380   28.3767   46.2521 H   0  0  0  0  0  0  0  0  0  0  0  0
   59.1338   30.8278   45.1472 H   0  0  0  0  0  0  0  0  0  0  0  0
   57.6708   32.2756   43.4040 H   0  0  0  0  0  0  0  0  0  0  0  0
   55.5205   30.8203   42.7950 H   0  0  0  0  0  0  0  0  0  0  0  0
   55.6240   28.6080   44.1140 H   0  0  0  0  0  0  0  0  0  0  0  0
  1  2  2  0
  2  3  1  0
  3  4  1  0
  4  5  2  0
  4  6  1  0
  6  7  1  0
  7  8  2  3
  8  9  1  0
  9 10  2  0
 10 11  1  0
 11 12  2  0
 12 13  1  0
  7 14  1  0
 14 15  2  0
 14  2  1  0
 13  9  1  0
  1 16  1  0
  1 17  1  0
  8 18  1  0
 10 19  1  0
 11 20  1  0
 12 21  1  0
 13 22  1  0
M  CHG  2   3  -1   6  -1
M  END
>  <UniqueID>  (2) 
2

>  <SMILES>  (2) 
C=c1[n-]c(=O)[n-]c(=Cc2ccc[nH]2)c1=O

>  <Energy>  (2) 
55.48792789391645

>  <Genealogy>  (2) 
C=c1[n-]c(=O)[n-]c(=Cc2ccc[nH]2)c1=O (protonated)
C=c1[n-]c(=O)[n-]c(=Cc2ccc[nH]2)c1=O (3D coordinates assigned)
C=c1[n-]c(=O)[n-]c(=Cc2ccc[nH]2)c1=O (optimized conformer: 55.48792789391645 kcal/mol)

>  <smiles>  (2) 
C=c1[nH]c(=O)[nH]c(=Cc2ccc[nH]2)c1=O

>  <score_type>  (2) 
oracle

>  <origin>  (2) 
adg

>  <m_score__min__energy>  (2) 
-10.69

>  <m_primary>  (2) 
energy

$$$$
2:0
     RDKit          3D

 48 51  0  0  0  0  0  0  0  0999 V2000
   65.1320   31.9740   50.3820 C   0  0  0  0  0  0  0  0  0  0  0  0
   65.0050   32.9450   49.3480 O   0  0  0  0  0  0  0  0  0  0  0  0
   63.7990   33.2730   48.7130 C   0  0  0  0  0  0  0  0  0  0  0  0
   62.7440   33.7560   49.4960 C   0  0  0  0  0  0  0  0  0  0  0  0
   61.5210   34.0960   48.9080 C   0  0  0  0  0  0  0  0  0  0  0  0
   61.3410   33.9590   47.5260 C   0  0  0  0  0  0  0  0  0  0  0  0
   59.7900   34.3670   46.8030 S   0  0  0  0  0  0  0  0  0  0  0  0
   58.9070   34.9900   47.8480 O   0  0  0  0  0  0  0  0  0  0  0  0
   59.9720   35.3640   45.6920 O   0  0  0  0  0  0  0  0  0  0  0  0
   59.0520   32.8960   46.1600 C   0  0  0  0  0  0  0  0  0  0  0  0
   59.0800   31.7180   46.9100 C   0  0  0  0  0  0  0  0  0  0  0  0
   58.5300   30.5560   46.4410 N   0  0  0  0  0  0  0  0  0  0  0  0
   58.5910   29.3700   47.3230 C   0  0  0  0  0  0  0  0  0  0  0  0
   59.3580   29.6710   48.5870 C   0  0  0  0  0  0  0  0  0  0  0  0
   58.6800   30.0560   49.7570 C   0  0  0  0  0  0  0  0  0  0  0  0
   59.3950   30.3520   50.9230 C   0  0  0  0  0  0  0  0  0  0  0  0
   60.7900   30.2790   50.9260 C   0  0  0  0  0  0  0  0  0  0  0  0
   61.4730   29.9160   49.7630 C   0  0  0  0  0  0  0  0  0  0  0  0
   60.7630   29.6190   48.5960 C   0  0  0  0  0  0  0  0  0  0  0  0
   57.9280   30.5230   45.1970 C   0  0  0  0  0  0  0  0  0  0  0  0
   57.3400   29.3450   44.6760 C   0  0  0  0  0  0  0  0  0  0  0  0
   56.7380   29.3380   43.4170 C   0  0  0  0  0  0  0  0  0  0  0  0
   56.7090   30.4970   42.6460 C   0  0  0  0  0  0  0  0  0  0  0  0
   57.2790   31.6730   43.1310 C   0  0  0  0  0  0  0  0  0  0  0  0
   57.8890   31.7020   44.4000 C   0  0  0  0  0  0  0  0  0  0  0  0
   58.4610   32.8860   44.8940 C   0  0  0  0  0  0  0  0  0  0  0  0
   58.4480   33.9410   44.2000 O   0  0  0  0  0  0  0  0  0  0  0  0
   62.3900   33.4690   46.7370 C   0  0  0  0  0  0  0  0  0  0  0  0
   63.6130   33.1300   47.3240 C   0  0  0  0  0  0  0  0  0  0  0  0
   65.0670   32.4706   51.3614 H   0  0  0  0  0  0  0  0  0  0  0  0
   64.3230   31.2342   50.2917 H   0  0  0  0  0  0  0  0  0  0  0  0
   66.1041   31.4672   50.2917 H   0  0  0  0  0  0  0  0  0  0  0  0
   62.8776   33.8691   50.5820 H   0  0  0  0  0  0  0  0  0  0  0  0
   60.6980   34.4722   49.5333 H   0  0  0  0  0  0  0  0  0  0  0  0
   59.5557   31.7245   47.9018 H   0  0  0  0  0  0  0  0  0  0  0  0
   57.5674   29.0663   47.5877 H   0  0  0  0  0  0  0  0  0  0  0  0
   59.1078   28.5614   46.7853 H   0  0  0  0  0  0  0  0  0  0  0  0
   57.5822   30.1249   49.7558 H   0  0  0  0  0  0  0  0  0  0  0  0
   58.8580   30.6424   51.8380 H   0  0  0  0  0  0  0  0  0  0  0  0
   61.3507   30.5074   51.8444 H   0  0  0  0  0  0  0  0  0  0  0  0
   62.5718   29.8637   49.7654 H   0  0  0  0  0  0  0  0  0  0  0  0
   61.3063   29.3432   47.6801 H   0  0  0  0  0  0  0  0  0  0  0  0
   57.3580   28.4211   45.2728 H   0  0  0  0  0  0  0  0  0  0  0  0
   56.2844   28.4128   43.0321 H   0  0  0  0  0  0  0  0  0  0  0  0
   56.2358   30.4846   41.6531 H   0  0  0  0  0  0  0  0  0  0  0  0
   57.2521   32.5857   42.5176 H   0  0  0  0  0  0  0  0  0  0  0  0
   62.2510   33.3506   45.6523 H   0  0  0  0  0  0  0  0  0  0  0  0
   64.4338   32.7498   46.6981 H   0  0  0  0  0  0  0  0  0  0  0  0
  1  2  1  0
  2  3  1  0
  3  4  2  0
  4  5  1  0
  5  6  2  0
  6  7  1  0
  7  8  2  0
  7  9  2  0
  7 10  1  0
 10 11  2  0
 11 12  1  0
 12 13  1  0
 13 14  1  0
 14 15  2  0
 15 16  1  0
 16 17  2  0
 17 18  1  0
 18 19  2  0
 12 20  1  0
 20 21  2  0
 21 22  1  0
 22 23  2  0
 23 24  1  0
 24 25  2  0
 25 26  1  0
 26 27  2  0
  6 28  1  0
 28 29  2  0
 29  3  1  0
 26 10  1  0
 19 14  1  0
 25 20  1  0
  1 30  1  0
  1 31  1  0
  1 32  1  0
  4 33  1  0
  5 34  1  0
 11 35  1  0
 13 36  1  0
 13 37  1  0
 15 38  1  0
 16 39  1  0
 17 40  1  0
 18 41  1  0
 19 42  1  0
 21 43  1  0
 22 44  1  0
 23 45  1  0
 24 46  1  0
 28 47  1  0
 29 48  1  0
M  END
>  <UniqueID>  (3) 
3

>  <SMILES>  (3) 
COc1ccc(S(=O)(=O)c2cn(Cc3ccccc3)c3ccccc3c2=O)cc1

>  <Energy>  (3) 
63.86315029527374

>  <Genealogy>  (3) 
COc1ccc(S(=O)(=O)c2cn(Cc3ccccc3)c3ccccc3c2=O)cc1 (3D coordinates assigned)
COc1ccc(S(=O)(=O)c2cn(Cc3ccccc3)c3ccccc3c2=O)cc1 (optimized conformer: 63.86315029527374 kcal/mol)

>  <smiles>  (3) 
COc1ccc(S(=O)(=O)c2cn(Cc3ccccc3)c3ccccc3c2=O)cc1

>  <score_type>  (3) 
oracle

>  <origin>  (3) 
adg

>  <m_score__min__energy>  (3) 
-8.7400000000000002

>  <m_primary>  (3) 
energy

$$$$
3:0
     RDKit          3D

 43 44  0  0  0  0  0  0  0  0999 V2000
   58.3947   30.1806   49.1067 H   0  0  0  0  0  0  0  0  0  0  0  0
   58.8440   31.1820   49.0340 C   0  0  0  0  0  0  0  0  0  0  0  0
   59.1850   32.0320   50.0660 C   0  0  0  0  0  0  0  0  0  0  0  0
   59.0743   31.8119   51.1381 H   0  0  0  0  0  0  0  0  0  0  0  0
   59.6750   33.1740   49.5490 N   0  0  0  0  0  0  0  0  0  0  0  0
   59.9890   33.9990   50.1070 H   0  0  0  0  0  0  0  0  0  0  0  0
   59.6540   33.1080   48.2240 N   0  0  0  0  0  0  0  0  0  0  0  0
   59.9060   34.2830   47.3700 C   0  0  0  0  0  0  0  0  0  0  0  0
   60.2257   35.1213   48.0064 H   0  0  0  0  0  0  0  0  0  0  0  0
   58.9735   34.5184   46.8360 H   0  0  0  0  0  0  0  0  0  0  0  0
   60.9960   34.0150   46.3200 C   0  0  0  0  0  0  0  0  0  0  0  0
   61.2354   34.9613   45.8128 H   0  0  0  0  0  0  0  0  0  0  0  0
   60.6026   33.2639   45.6192 H   0  0  0  0  0  0  0  0  0  0  0  0
   62.5010   33.3510   47.0330 S   0  0  0  0  0  0  0  0  0  0  0  0
   63.6600   33.7740   46.1740 O   0  0  0  0  0  0  0  0  0  0  0  0
   62.4340   31.8500   47.0560 O   0  0  0  0  0  0  0  0  0  0  0  0
   62.7450   33.9560   48.6970 C   0  0  0  0  0  0  0  0  0  0  0  0
   61.7865   33.9211   49.2356 H   0  0  0  0  0  0  0  0  0  0  0  0
   63.1209   34.9882   48.6406 H   0  0  0  0  0  0  0  0  0  0  0  0
   63.7680   33.1100   49.4470 C   0  0  0  0  0  0  0  0  0  0  0  0
   63.6209   33.2317   50.5303 H   0  0  0  0  0  0  0  0  0  0  0  0
   63.6382   32.0519   49.1759 H   0  0  0  0  0  0  0  0  0  0  0  0
   64.7830   33.4361   49.1759 H   0  0  0  0  0  0  0  0  0  0  0  0
   59.1930   31.8700   47.8910 C   0  0  0  0  0  0  0  0  0  0  0  0
   59.1250   31.3380   46.7020 N   0  0  0  0  0  0  0  0  0  0  0  0
   59.7130   30.1190   46.2360 C   0  0  0  0  0  0  0  0  0  0  0  0
   60.6300   29.5620   46.9010 O   0  0  0  0  0  0  0  0  0  0  0  0
   59.1780   29.4550   45.0050 C   0  0  0  0  0  0  0  0  0  0  0  0
   59.5914   29.9542   44.1163 H   0  0  0  0  0  0  0  0  0  0  0  0
   59.4722   28.3951   45.0175 H   0  0  0  0  0  0  0  0  0  0  0  0
   57.6800   29.5410   44.9670 C   0  0  0  0  0  0  0  0  0  0  0  0
   56.9040   30.5870   44.5020 C   0  0  0  0  0  0  0  0  0  0  0  0
   57.3970   31.8720   43.9220 C   0  0  0  0  0  0  0  0  0  0  0  0
   57.6623   32.5635   44.7353 H   0  0  0  0  0  0  0  0  0  0  0  0
   58.2844   31.6777   43.3018 H   0  0  0  0  0  0  0  0  0  0  0  0
   56.6074   32.3212   43.3018 H   0  0  0  0  0  0  0  0  0  0  0  0
   55.6080   30.2160   44.5020 N   0  0  0  0  0  0  0  0  0  0  0  0
   55.5230   28.9740   44.9600 N   0  0  0  0  0  0  0  0  0  0  0  0
   56.7670   28.5420   45.2470 C   0  0  0  0  0  0  0  0  0  0  0  0
   57.0770   27.1570   45.7190 C   0  0  0  0  0  0  0  0  0  0  0  0
   57.0815   27.1368   46.8188 H   0  0  0  0  0  0  0  0  0  0  0  0
   56.3123   26.4616   45.3427 H   0  0  0  0  0  0  0  0  0  0  0  0
   58.0652   26.8540   45.3427 H   0  0  0  0  0  0  0  0  0  0  0  0
  1  2  1  0
  2  3  2  0
  3  4  1  0
  3  5  1  0
  5  6  1  0
  5  7  1  0
  7  8  1  0
  8  9  1  0
  8 10  1  0
  8 11  1  0
 11 12  1  0
 11 13  1  0
 11 14  1  0
 14 15  2  0
 14 16  2  0
 14 17  1  0
 17 18  1  0
 17 19  1  0
 17 20  1  0
 20 21  1  0
 20 22  1  0
 20 23  1  0
  7 24  1  0
 24 25  2  0
 25 26  1  0
 26 27  2  0
 26 28  1  0
 28 29  1  0
 28 30  1  0
 28 31  1  0
 31 32  1  0
 32 33  1  0
 33 34  1  0
 33 35  1  0
 33 36  1  0
 32 37  2  0
 37 38  1  0
 38 39  1  0
 39 40  1  0
 40 41  1  0
 40 42  1  0
 40 43  1  0
 24  2  1  0
 39 31  2  0
M  CHG  1  38  -1
M  END
>  <UniqueID>  (4) 
4

>  <SMILES>  (4) 
CCS(=O)(=O)CCn1[nH]cc/c1=N/C(=O)Cc1c(C)n[n-]c1C

>  <Energy>  (4) 
99.51363897623003

>  <Genealogy>  (4) 
CCS(=O)(=O)CCn1[nH]ccc1=NC(=O)Cc1c(C)n[n-]c1C (protonated)
CCS(=O)(=O)CCn1[nH]cc/c1=N/C(=O)Cc1c(C)n[n-]c1C (cis-trans isomerization)
CCS(=O)(=O)CCn1[nH]cc/c1=N/C(=O)Cc1c(C)n[n-]c1C (3D coordinates assigned)
CCS(=O)(=O)CCn1[nH]cc/c1=N/C(=O)Cc1c(C)n[n-]c1C (optimized conformer: 99.51363897623003 kcal/mol)

>  <smiles>  (4) 
CCS(=O)(=O)CCn1[nH]ccc1=NC(=O)Cc1c(C)n[nH]c1C

>  <score_type>  (4) 
oracle

>  <origin>  (4) 
adg

>  <m_score__min__energy>  (4) 
-9.0099999999999998

>  <m_primary>  (4) 
energy

$$$$
4:0
     RDKit          3D

 34 36  0  0  0  0  0  0  0  0999 V2000
   55.4000   29.9790   43.8180 C   0  0  0  0  0  0  0  0  0  0  0  0
   56.4360   30.0760   44.6590 C   0  0  0  0  0  0  0  0  0  0  0  0
   57.0010   31.2940   44.8480 N   0  0  0  0  0  0  0  0  0  0  0  0
   58.0430   31.5000   45.6920 C   0  0  0  0  0  0  0  0  0  0  0  0
   58.5930   32.8720   45.8410 C   0  0  0  0  0  0  0  0  0  0  0  0
   59.0320   33.3180   47.1020 C   0  0  0  0  0  0  0  0  0  0  0  0
   59.5590   34.6030   47.2560 C   0  0  0  0  0  0  0  0  0  0  0  0
   59.6650   35.4540   46.1550 C   0  0  0  0  0  0  0  0  0  0  0  0
   59.2460   35.0210   44.8950 C   0  0  0  0  0  0  0  0  0  0  0  0
   58.7160   33.7370   44.7350 C   0  0  0  0  0  0  0  0  0  0  0  0
   58.5910   30.4080   46.3820 C   0  0  0  0  0  0  0  0  0  0  0  0
   58.0670   29.1050   46.2140 C   0  0  0  0  0  0  0  0  0  0  0  0
   58.6450   28.0590   46.8780 C   0  0  0  0  0  0  0  0  0  0  0  0
   60.0610   28.0340   47.3610 C   0  0  0  0  0  0  0  0  0  0  0  0
   60.1430   26.7720   48.2220 C   0  0  0  0  0  0  0  0  0  0  0  0
   58.9100   25.9330   47.8780 C   0  0  0  0  0  0  0  0  0  0  0  0
   58.0090   26.8190   47.1690 N   0  0  0  0  0  0  0  0  0  0  0  0
   56.9380   28.9550   45.3580 C   0  0  0  0  0  0  0  0  0  0  0  0
   56.3470   27.8460   45.2460 O   0  0  0  0  0  0  0  0  0  0  0  0
   54.9215   29.0038   43.6449 H   0  0  0  0  0  0  0  0  0  0  0  0
   55.0267   30.8745   43.2996 H   0  0  0  0  0  0  0  0  0  0  0  0
   58.9596   32.6498   47.9728 H   0  0  0  0  0  0  0  0  0  0  0  0
   59.8911   34.9446   48.2475 H   0  0  0  0  0  0  0  0  0  0  0  0
   60.0785   36.4657   46.2795 H   0  0  0  0  0  0  0  0  0  0  0  0
   59.3331   35.6912   44.0271 H   0  0  0  0  0  0  0  0  0  0  0  0
   58.3928   33.3997   43.7391 H   0  0  0  0  0  0  0  0  0  0  0  0
   59.4399   30.5675   47.0631 H   0  0  0  0  0  0  0  0  0  0  0  0
   60.7608   27.9745   46.5144 H   0  0  0  0  0  0  0  0  0  0  0  0
   60.3314   28.9425   47.9191 H   0  0  0  0  0  0  0  0  0  0  0  0
   61.0609   26.2121   47.9898 H   0  0  0  0  0  0  0  0  0  0  0  0
   60.1695   27.0212   49.2931 H   0  0  0  0  0  0  0  0  0  0  0  0
   59.1921   25.0833   47.2388 H   0  0  0  0  0  0  0  0  0  0  0  0
   58.4394   25.5190   48.7820 H   0  0  0  0  0  0  0  0  0  0  0  0
   57.1710   26.4360   46.6820 H   0  0  0  0  0  0  0  0  0  0  0  0
  1  2  2  0
  2  3  1  0
  3  4  1  0
  4  5  1  0
  5  6  2  0
  6  7  1  0
  7  8  2  0
  8  9  1  0
  9 10  2  0
  4 11  2  0
 11 12  1  0
 12 13  2  3
 13 14  1  0
 14 15  1  0
 15 16  1  0
 16 17  1  0
 12 18  1  0
 18 19  2  0
 18  2  1  0
 10  5  1  0
 17 13  1  0
  1 20  1  0
  1 21  1  0
  6 22  1  0
  7 23  1  0
  8 24  1  0
  9 25  1  0
 10 26  1  0
 11 27  1  0
 14 28  1  0
 14 29  1  0
 15 30  1  0
 15 31  1  0
 16 32  1  0
 16 33  1  0
 17 34  1  0
M  CHG  1   3  -1
M  END
>  <UniqueID>  (5) 
5

>  <SMILES>  (5) 
C=c1[n-]c(-c2ccccc2)cc(=C2CCCN2)c1=O

>  <Energy>  (5) 
58.011934120917225

>  <Genealogy>  (5) 
C=c1[n-]c(-c2ccccc2)cc(=C2CCCN2)c1=O (protonated)
C=c1[n-]c(-c2ccccc2)cc(=C2CCCN2)c1=O (3D coordinates assigned)
C=c1[n-]c(-c2ccccc2)cc(=C2CCCN2)c1=O (nonaromatic ring conformer: 58.011934120917225 kcal/mol)

>  <smiles>  (5) 
C=c1[nH]c(-c2ccccc2)cc(=C2CCCN2)c1=O

>  <score_type>  (5) 
oracle

>  <origin>  (5) 
adg

>  <m_score__min__energy>  (5) 
-7.96

>  <m_primary>  (5) 
energy

$$$$
5:0
     RDKit          3D

 45 47  0  0  0  0  0  0  0  0999 V2000
   57.5890   27.7514   43.0389 H   0  0  0  0  0  0  0  0  0  0  0  0
   57.4000   28.6570   43.6340 C   0  0  0  0  0  0  0  0  0  0  0  0
   56.9960   30.1740   43.0260 S   0  0  0  0  0  0  0  0  0  0  0  0
   56.8880   30.8660   44.5510 C   0  0  0  0  0  0  0  0  0  0  0  0
   56.6180   32.1220   44.7520 N   0  0  0  0  0  0  0  0  0  0  0  0
   57.2580   32.9880   45.7050 C   0  0  0  0  0  0  0  0  0  0  0  0
   58.1060   32.3930   46.7000 N   0  0  0  0  0  0  0  0  0  0  0  0
   57.8730   31.4230   47.0100 H   0  0  0  0  0  0  0  0  0  0  0  0
   59.2620   33.0270   47.2760 C   0  0  0  0  0  0  0  0  0  0  0  0
   59.1700   33.5940   48.5540 C   0  0  0  0  0  0  0  0  0  0  0  0
   58.2148   33.5631   49.0986 H   0  0  0  0  0  0  0  0  0  0  0  0
   60.2860   34.1990   49.1410 C   0  0  0  0  0  0  0  0  0  0  0  0
   60.2019   34.6553   50.1384 H   0  0  0  0  0  0  0  0  0  0  0  0
   61.5060   34.2250   48.4640 C   0  0  0  0  0  0  0  0  0  0  0  0
   62.3764   34.7171   48.9224 H   0  0  0  0  0  0  0  0  0  0  0  0
   61.6270   33.6260   47.2010 C   0  0  0  0  0  0  0  0  0  0  0  0
   62.9320   33.6720   46.4640 C   0  0  0  0  0  0  0  0  0  0  0  0
   63.7605   33.7012   47.1869 H   0  0  0  0  0  0  0  0  0  0  0  0
   63.0280   32.7767   45.8322 H   0  0  0  0  0  0  0  0  0  0  0  0
   62.9648   34.5719   45.8322 H   0  0  0  0  0  0  0  0  0  0  0  0
   60.5000   33.0340   46.6080 C   0  0  0  0  0  0  0  0  0  0  0  0
   60.5860   32.5721   45.6134 H   0  0  0  0  0  0  0  0  0  0  0  0
   57.0850   34.2780   45.6640 N   0  0  0  0  0  0  0  0  0  0  0  0
   57.8660   34.9280   45.4270 H   0  0  0  0  0  0  0  0  0  0  0  0
   56.1600   34.7080   45.8860 H   0  0  0  0  0  0  0  0  0  0  0  0
   57.1670   29.9790   45.5320 N   0  0  0  0  0  0  0  0  0  0  0  0
   57.4530   28.7500   45.0240 C   0  0  0  0  0  0  0  0  0  0  0  0
   57.7390   27.5800   45.9120 C   0  0  0  0  0  0  0  0  0  0  0  0
   56.7907   27.1572   46.2751 H   0  0  0  0  0  0  0  0  0  0  0  0
   58.2910   26.8185   45.3416 H   0  0  0  0  0  0  0  0  0  0  0  0
   58.5670   28.0180   47.0800 C   0  0  0  0  0  0  0  0  0  0  0  0
   58.9640   27.1570   47.9110 O   0  0  0  0  0  0  0  0  0  0  0  0
   58.9770   29.3900   47.1930 N   0  0  0  0  0  0  0  0  0  0  0  0
   58.8620   30.0010   46.3530 H   0  0  0  0  0  0  0  0  0  0  0  0
   59.6480   29.9390   48.3390 C   0  0  0  0  0  0  0  0  0  0  0  0
   61.0500   30.0550   48.3840 C   0  0  0  0  0  0  0  0  0  0  0  0
   61.6537   29.7386   47.5206 H   0  0  0  0  0  0  0  0  0  0  0  0
   61.6790   30.5710   49.5220 C   0  0  0  0  0  0  0  0  0  0  0  0
   62.7744   30.6682   49.5476 H   0  0  0  0  0  0  0  0  0  0  0  0
   60.9180   30.9630   50.6260 C   0  0  0  0  0  0  0  0  0  0  0  0
   61.4142   31.3760   51.5167 H   0  0  0  0  0  0  0  0  0  0  0  0
   59.5270   30.8310   50.6000 C   0  0  0  0  0  0  0  0  0  0  0  0
   58.5730   31.3120   51.9920 Cl  0  0  0  0  0  0  0  0  0  0  0  0
   58.8950   30.3140   49.4640 C   0  0  0  0  0  0  0  0  0  0  0  0
   57.8010   30.2004   49.4517 H   0  0  0  0  0  0  0  0  0  0  0  0
  1  2  1  0
  2  3  1  0
  3  4  1  0
  4  5  2  0
  5  6  1  0
  6  7  1  0
  7  8  1  0
  7  9  1  0
  9 10  2  0
 10 11  1  0
 10 12  1  0
 12 13  1  0
 12 14  2  0
 14 15  1  0
 14 16  1  0
 16 17  1  0
 17 18  1  0
 17 19  1  0
 17 20  1  0
 16 21  2  0
 21 22  1  0
  6 23  2  0
 23 24  1  0
 23 25  1  0
  4 26  1  0
 26 27  1  0
 27 28  1  0
 28 29  1  0
 28 30  1  0
 28 31  1  0
 31 32  2  0
 31 33  1  0
 33 34  1  0
 33 35  1  0
 35 36  2  0
 36 37  1  0
 36 38  1  0
 38 39  1  0
 38 40  2  0
 40 41  1  0
 40 42  1  0
 42 43  1  0
 42 44  2  0
 44 45  1  0
 27  2  2  0
 44 35  1  0
 21  9  1  0
M  CHG  2  23   1  26  -1
M  END
>  <UniqueID>  (6) 
6

>  <SMILES>  (6) 
Cc1cccc(NC(=[NH2+])/N=c2\[n-]c(CC(=O)Nc3cccc(Cl)c3)cs2)c1

>  <Energy>  (6) 
86.27239283425631

>  <Genealogy>  (6) 
Cc1cccc(NC(=[NH2+])N=c2[n-]c(CC(=O)Nc3cccc(Cl)c3)cs2)c1 (protonated)
Cc1cccc(NC(=[NH2+])/N=c2\[n-]c(CC(=O)Nc3cccc(Cl)c3)cs2)c1 (cis-trans isomerization)
Cc1cccc(NC(=[NH2+])/N=c2\[n-]c(CC(=O)Nc3cccc(Cl)c3)cs2)c1 (3D coordinates assigned)
Cc1cccc(NC(=[NH2+])/N=c2\[n-]c(CC(=O)Nc3cccc(Cl)c3)cs2)c1 (optimized conformer: 86.27239283425631 kcal/mol)

>  <smiles>  (6) 
Cc1cccc(NC(=N)N=c2[nH]c(CC(=O)Nc3cccc(Cl)c3)cs2)c1

>  <score_type>  (6) 
oracle

>  <origin>  (6) 
adg

>  <m_score__min__energy>  (6) 
-9.0099999999999998

>  <m_primary>  (6) 
energy

$$$$
6:0
     RDKit          3D

 63 66  0  0  0  0  0  0  0  0999 V2000
   65.9710   32.6890   49.8020 C   0  0  0  0  0  0  0  0  0  0  0  0
   64.7600   32.2750   50.5700 C   0  0  0  0  0  0  0  0  0  0  0  0
   64.8870   31.3590   51.4290 O   0  0  0  0  0  0  0  0  0  0  0  0
   63.4640   32.8780   50.3540 N   0  0  0  0  0  0  0  0  0  0  0  0
   62.3390   32.4190   51.1800 C   0  0  0  0  0  0  0  0  0  0  0  0
   61.0580   33.2140   50.8960 C   0  0  0  0  0  0  0  0  0  0  0  0
   60.8500   33.3630   49.4440 N   0  0  0  0  0  0  0  0  0  0  0  0
   59.4990   33.3530   48.9240 C   0  0  0  0  0  0  0  0  0  0  0  0
   58.5340   33.0530   49.6780 O   0  0  0  0  0  0  0  0  0  0  0  0
   59.1850   33.7600   47.5410 C   0  0  0  0  0  0  0  0  0  0  0  0
   59.6980   34.9470   47.0060 C   0  0  0  0  0  0  0  0  0  0  0  0
   59.4510   35.2830   45.6680 C   0  0  0  0  0  0  0  0  0  0  0  0
   58.6960   34.4280   44.8600 C   0  0  0  0  0  0  0  0  0  0  0  0
   58.1700   33.2370   45.3860 C   0  0  0  0  0  0  0  0  0  0  0  0
   57.4690   32.2940   44.4890 C   0  0  0  0  0  0  0  0  0  0  0  0
   57.8340   31.0150   44.2930 C   0  0  0  0  0  0  0  0  0  0  0  0
   57.1760   29.8500   44.9280 C   0  0  0  0  0  0  0  0  0  0  0  0
   55.9200   29.7450   44.8750 O   0  0  0  0  0  0  0  0  0  0  0  0
   57.9640   28.7810   45.5890 C   0  0  0  0  0  0  0  0  0  0  0  0
   58.4640   28.9860   46.8920 C   0  0  0  0  0  0  0  0  0  0  0  0
   59.2170   27.9870   47.5380 C   0  0  0  0  0  0  0  0  0  0  0  0
   59.6810   28.1470   48.8860 N   0  0  0  0  0  0  0  0  0  0  0  0
   60.3480   29.6200   49.5090 S   0  0  0  0  0  0  0  0  0  0  0  0
   61.7760   29.3840   49.9180 O   0  0  0  0  0  0  0  0  0  0  0  0
   60.3150   30.6840   48.4500 O   0  0  0  0  0  0  0  0  0  0  0  0
   59.4300   30.1090   50.9370 C   0  0  0  0  0  0  0  0  0  0  0  0
   60.0950   30.2460   52.1640 C   0  0  0  0  0  0  0  0  0  0  0  0
   59.3840   30.5730   53.3200 C   0  0  0  0  0  0  0  0  0  0  0  0
   58.0040   30.7630   53.2640 C   0  0  0  0  0  0  0  0  0  0  0  0
   57.3250   30.6200   52.0460 C   0  0  0  0  0  0  0  0  0  0  0  0
   55.5870   30.8490   51.9860 Cl  0  0  0  0  0  0  0  0  0  0  0  0
   58.0370   30.2930   50.8800 C   0  0  0  0  0  0  0  0  0  0  0  0
   59.5060   26.7980   46.8600 C   0  0  0  0  0  0  0  0  0  0  0  0
   58.9990   26.5740   45.5750 C   0  0  0  0  0  0  0  0  0  0  0  0
   58.2400   27.5660   44.9350 C   0  0  0  0  0  0  0  0  0  0  0  0
   57.8000   27.3380   43.6700 F   0  0  0  0  0  0  0  0  0  0  0  0
   58.4440   32.8970   46.7220 C   0  0  0  0  0  0  0  0  0  0  0  0
   61.9870   33.7530   48.5910 C   0  0  0  0  0  0  0  0  0  0  0  0
   63.2600   33.9870   49.4100 C   0  0  0  0  0  0  0  0  0  0  0  0
   66.7734   32.9633   50.5026 H   0  0  0  0  0  0  0  0  0  0  0  0
   66.3066   31.8545   49.1687 H   0  0  0  0  0  0  0  0  0  0  0  0
   65.7255   33.5542   49.1687 H   0  0  0  0  0  0  0  0  0  0  0  0
   62.1522   31.3561   50.9672 H   0  0  0  0  0  0  0  0  0  0  0  0
   62.6073   32.5713   52.2358 H   0  0  0  0  0  0  0  0  0  0  0  0
   60.1989   32.6827   51.3315 H   0  0  0  0  0  0  0  0  0  0  0  0
   61.1547   34.2138   51.3445 H   0  0  0  0  0  0  0  0  0  0  0  0
   60.2974   35.6188   47.6380 H   0  0  0  0  0  0  0  0  0  0  0  0
   59.8514   36.2199   45.2535 H   0  0  0  0  0  0  0  0  0  0  0  0
   58.5131   34.6893   43.8073 H   0  0  0  0  0  0  0  0  0  0  0  0
   56.5880   32.6643   43.9443 H   0  0  0  0  0  0  0  0  0  0  0  0
   58.6783   30.8207   43.6153 H   0  0  0  0  0  0  0  0  0  0  0  0
   58.2635   29.9362   47.4087 H   0  0  0  0  0  0  0  0  0  0  0  0
   61.1833   30.0949   52.2159 H   0  0  0  0  0  0  0  0  0  0  0  0
   59.9141   30.6811   54.2778 H   0  0  0  0  0  0  0  0  0  0  0  0
   57.4477   31.0252   54.1760 H   0  0  0  0  0  0  0  0  0  0  0  0
   57.5055   30.1810   49.9235 H   0  0  0  0  0  0  0  0  0  0  0  0
   60.1357   26.0343   47.3399 H   0  0  0  0  0  0  0  0  0  0  0  0
   59.1957   25.6190   45.0658 H   0  0  0  0  0  0  0  0  0  0  0  0
   58.0734   31.9445   47.1287 H   0  0  0  0  0  0  0  0  0  0  0  0
   62.1756   32.9518   47.8612 H   0  0  0  0  0  0  0  0  0  0  0  0
   61.7277   34.6953   48.0863 H   0  0  0  0  0  0  0  0  0  0  0  0
   64.1231   34.0503   48.7310 H   0  0  0  0  0  0  0  0  0  0  0  0
   63.1580   34.9259   49.9739 H   0  0  0  0  0  0  0  0  0  0  0  0
  1  2  1  0
  2  3  2  0
  2  4  1  0
  4  5  1  0
  5  6  1  0
  6  7  1  0
  7  8  1  0
  8  9  2  0
  8 10  1  0
 10 11  2  0
 11 12  1  0
 12 13  2  0
 13 14  1  0
 14 15  1  0
 15 16  2  3
 16 17  1  0
 17 18  2  0
 17 19  1  0
 19 20  2  0
 20 21  1  0
 21 22  1  0
 22 23  1  0
 23 24  2  0
 23 25  2  0
 23 26  1  0
 26 27  2  0
 27 28  1  0
 28 29  2  0
 29 30  1  0
 30 31  1  0
 30 32  2  0
 21 33  2  0
 33 34  1  0
 34 35  2  0
 35 36  1  0
 14 37  2  0
  7 38  1  0
 38 39  1  0
 39  4  1  0
 37 10  1  0
 35 19  1  0
 32 26  1  0
  1 40  1  0
  1 41  1  0
  1 42  1  0
  5 43  1  0
  5 44  1  0
  6 45  1  0
  6 46  1  0
 11 47  1  0
 12 48  1  0
 13 49  1  0
 15 50  1  0
 16 51  1  0
 20 52  1  0
 27 53  1  0
 28 54  1  0
 29 55  1  0
 32 56  1  0
 33 57  1  0
 34 58  1  0
 37 59  1  0
 38 60  1  0
 38 61  1  0
 39 62  1  0
 39 63  1  0
M  CHG  1  22  -1
M  END
>  <UniqueID>  (7) 
7

>  <SMILES>  (7) 
CC(=O)N1CCN(C(=O)c2cccc(C=CC(=O)c3cc([N-]S(=O)(=O)c4cccc(Cl)c4)ccc3F)c2)CC1

>  <Energy>  (7) 
89.31441222480682

>  <Genealogy>  (7) 
CC(=O)N1CCN(C(=O)c2cccc(C=CC(=O)c3cc([N-]S(=O)(=O)c4cccc(Cl)c4)ccc3F)c2)CC1 (protonated)
CC(=O)N1CCN(C(=O)c2cccc(C=CC(=O)c3cc([N-]S(=O)(=O)c4cccc(Cl)c4)ccc3F)c2)CC1 (3D coordinates assigned)
CC(=O)N1CCN(C(=O)c2cccc(C=CC(=O)c3cc([N-]S(=O)(=O)c4cccc(Cl)c4)ccc3F)c2)CC1 (nonaromatic ring conformer: 89.31441222480682 kcal/mol)

>  <smiles>  (7) 
CC(=O)N1CCN(C(=O)c2cccc(C=CC(=O)c3cc(NS(=O)(=O)c4cccc(Cl)c4)ccc3F)c2)CC1

>  <score_type>  (7) 
oracle

>  <origin>  (7) 
adg

>  <m_score__min__energy>  (7) 
-11.98

>  <m_primary>  (7) 
energy

$$$$
7:0
     RDKit          3D

 46 48  0  0  1  0  0  0  0  0999 V2000
   55.6950   27.0390   45.6310 N   0  0  0  0  0  0  0  0  0  0  0  0
   57.1050   26.9290   45.6710 C   0  0  0  0  0  0  0  0  0  0  0  0
   57.6490   25.9970   45.0290 O   0  0  0  0  0  0  0  0  0  0  0  0
   57.8880   27.8870   46.4450 C   0  0  0  0  0  0  0  0  0  0  0  0
   58.9000   27.5110   47.3040 C   0  0  0  0  0  0  0  0  0  0  0  0
   59.6070   28.4100   48.0060 N   0  0  0  0  0  0  0  0  0  0  0  0
   59.3170   29.7380   47.8660 C   0  0  0  0  0  0  0  0  0  0  0  0
   60.0330   30.5390   48.5680 N   0  0  0  0  0  0  0  0  0  0  0  0
   61.0250   31.3660   47.9540 C   0  0  0  0  0  0  0  0  0  0  0  0
   60.7980   32.8380   48.2070 C   0  0  0  0  0  0  0  0  0  0  0  0
   59.8200   33.4310   47.2470 C   0  0  0  0  0  0  0  0  0  0  0  0
   60.3890   34.1000   46.1560 C   0  0  0  0  0  0  0  0  0  0  0  0
   59.5000   34.6520   45.2570 C   0  0  0  0  0  0  0  0  0  0  0  0
   58.1320   34.5690   45.3910 C   0  0  0  0  0  0  0  0  0  0  0  0
   57.5990   33.9050   46.4730 C   0  0  0  0  0  0  0  0  0  0  0  0
   58.4560   33.3290   47.4120 C   0  0  0  0  0  0  0  0  0  0  0  0
   57.9380   32.6640   48.4970 O   0  0  0  0  0  0  0  0  0  0  0  0
   58.3430   30.1650   47.0430 N   0  0  0  0  0  0  0  0  0  0  0  0
   57.6310   29.2450   46.3360 C   0  0  0  0  0  0  0  0  0  0  0  0
   56.6860   29.5910   45.5320 N   0  0  0  0  0  0  0  0  0  0  0  0
   57.0250   30.3910   44.4060 C   0  0  0  0  0  0  0  0  0  0  0  0
   57.9160   31.4430   44.4600 C   0  0  0  0  0  0  0  0  0  0  0  0
   58.1420   32.1250   43.2820 C   0  0  0  0  0  0  0  0  0  0  0  0
   57.5450   31.8210   42.0910 C   0  0  0  0  0  0  0  0  0  0  0  0
   57.7720   32.5060   40.9040 O   0  0  0  0  0  0  0  0  0  0  0  0
   56.6540   30.7680   42.0360 C   0  0  0  0  0  0  0  0  0  0  0  0
   56.4190   30.0790   43.2080 C   0  0  0  0  0  0  0  0  0  0  0  0
   55.0890   26.2180   45.3740 H   0  0  0  0  0  0  0  0  0  0  0  0
   55.1940   27.9170   45.8490 H   0  0  0  0  0  0  0  0  0  0  0  0
   59.1344   26.4422   47.4169 H   0  0  0  0  0  0  0  0  0  0  0  0
   60.3560   28.0990   48.6390 H   0  0  0  0  0  0  0  0  0  0  0  0
   62.0111   31.0884   48.3547 H   0  0  0  0  0  0  0  0  0  0  0  0
   60.9656   31.2035   46.8677 H   0  0  0  0  0  0  0  0  0  0  0  0
   60.4132   32.9665   49.2294 H   0  0  0  0  0  0  0  0  0  0  0  0
   61.7592   33.3559   48.0730 H   0  0  0  0  0  0  0  0  0  0  0  0
   61.4781   34.1804   46.0240 H   0  0  0  0  0  0  0  0  0  0  0  0
   59.9059   35.1874   44.3860 H   0  0  0  0  0  0  0  0  0  0  0  0
   57.4716   35.0287   44.6410 H   0  0  0  0  0  0  0  0  0  0  0  0
   56.5085   33.8292   46.5962 H   0  0  0  0  0  0  0  0  0  0  0  0
   58.4920   31.9840   49.0000 H   0  0  0  0  0  0  0  0  0  0  0  0
   58.1500   31.1810   46.9600 H   0  0  0  0  0  0  0  0  0  0  0  0
   58.4212   31.7241   45.3958 H   0  0  0  0  0  0  0  0  0  0  0  0
   58.8484   32.9679   43.3030 H   0  0  0  0  0  0  0  0  0  0  0  0
   57.2180   32.4150   40.0660 H   0  0  0  0  0  0  0  0  0  0  0  0
   56.1525   30.4900   41.0973 H   0  0  0  0  0  0  0  0  0  0  0  0
   55.7114   29.2371   43.1851 H   0  0  0  0  0  0  0  0  0  0  0  0
  1  2  1  0
  2  3  2  0
  2  4  1  0
  4  5  2  0
  5  6  1  0
  6  7  1  0
  7  8  2  0
  8  9  1  0
  9 10  1  0
 10 11  1  0
 11 12  2  0
 12 13  1  0
 13 14  2  0
 14 15  1  0
 15 16  2  0
 16 17  1  0
  7 18  1  0
 18 19  1  0
 19 20  2  0
 20 21  1  0
 21 22  2  0
 22 23  1  0
 23 24  2  0
 24 25  1  0
 24 26  1  0
 26 27  2  0
 19  4  1  0
 27 21  1  0
 16 11  1  0
  1 28  1  0
  1 29  1  0
  5 30  1  0
  6 31  1  0
  9 32  1  0
  9 33  1  0
 10 34  1  0
 10 35  1  0
 12 36  1  0
 13 37  1  0
 14 38  1  0
 15 39  1  0
 17 40  1  0
 18 41  1  0
 22 42  1  0
 23 43  1  0
 25 44  1  0
 26 45  1  0
 27 46  1  0
M  END
>  <smiles>  (8) 
NC(=O)c1c[nH]c(=NCCc2ccccc2O)[nH]c1=Nc1ccc(O)cc1

>  <score_type>  (8) 
oracle

>  <origin>  (8) 
adg

>  <m_score__min__energy>  (8) 
-8.6099999999999994

>  <m_primary>  (8) 
energy

$$$$
8:0
     RDKit          3D

 38 38  0  0  1  0  0  0  0  0999 V2000
   60.8950   33.8770   46.3530 C   0  0  0  0  0  0  0  0  0  0  0  0
   59.5850   33.8470   46.9460 N   0  0  0  0  0  0  0  0  0  0  0  0
   59.5040   34.5800   48.1780 C   0  0  0  0  0  0  0  0  0  0  0  0
   58.6200   34.2540   45.9600 C   0  0  0  0  0  0  0  0  0  0  0  0
   57.4350   33.3160   45.8720 C   0  0  0  0  0  0  0  0  0  0  0  0
   57.5500   32.4320   44.2960 S   0  0  0  0  0  0  0  0  0  0  0  0
   57.0810   30.7170   44.6140 C   0  0  0  0  0  0  0  0  0  0  0  0
   56.1060   30.0040   44.6240 N   0  0  0  0  0  0  0  0  0  0  0  0
   56.0530   28.7470   44.9020 N   0  0  0  0  0  0  0  0  0  0  0  0
   57.1740   28.1590   45.2120 C   0  0  0  0  0  0  0  0  0  0  0  0
   57.4780   26.9220   45.5400 N   0  0  0  0  0  0  0  0  0  0  0  0
   56.3950   26.0140   45.6550 C   0  0  0  0  0  0  0  0  0  0  0  0
   55.2410   26.3840   46.0150 O   0  0  0  0  0  0  0  0  0  0  0  0
   56.6480   24.5790   45.3360 C   0  0  0  0  0  0  0  0  0  0  0  0
   57.0620   24.3400   43.9180 C   0  0  0  0  0  0  0  0  0  0  0  0
   57.7370   24.0770   46.2650 C   0  0  0  0  0  0  0  0  0  0  0  0
   55.3900   23.7480   45.6020 C   0  0  0  0  0  0  0  0  0  0  0  0
   58.4230   29.4740   45.1070 S   0  0  0  0  0  0  0  0  0  0  0  0
   61.6564   33.8944   47.1467 H   0  0  0  0  0  0  0  0  0  0  0  0
   61.0358   32.9818   45.7294 H   0  0  0  0  0  0  0  0  0  0  0  0
   60.9947   34.7777   45.7294 H   0  0  0  0  0  0  0  0  0  0  0  0
   59.5811   33.8827   49.0253 H   0  0  0  0  0  0  0  0  0  0  0  0
   60.3272   35.3081   48.2263 H   0  0  0  0  0  0  0  0  0  0  0  0
   58.5417   35.1108   48.2263 H   0  0  0  0  0  0  0  0  0  0  0  0
   58.2541   35.2580   46.2208 H   0  0  0  0  0  0  0  0  0  0  0  0
   59.1231   34.2424   44.9818 H   0  0  0  0  0  0  0  0  0  0  0  0
   57.4612   32.5996   46.7064 H   0  0  0  0  0  0  0  0  0  0  0  0
   56.4920   33.8794   45.9303 H   0  0  0  0  0  0  0  0  0  0  0  0
   55.1170   28.2110   44.8780 H   0  0  0  0  0  0  0  0  0  0  0  0
   58.0145   23.7901   43.9019 H   0  0  0  0  0  0  0  0  0  0  0  0
   56.2889   23.7493   43.4049 H   0  0  0  0  0  0  0  0  0  0  0  0
   57.1869   25.3049   43.4049 H   0  0  0  0  0  0  0  0  0  0  0  0
   57.4234   24.2216   47.3094 H   0  0  0  0  0  0  0  0  0  0  0  0
   57.9126   23.0071   46.0796 H   0  0  0  0  0  0  0  0  0  0  0  0
   58.6646   24.6384   46.0796 H   0  0  0  0  0  0  0  0  0  0  0  0
   55.2391   23.6483   46.6870 H   0  0  0  0  0  0  0  0  0  0  0  0
   54.5185   24.2487   45.1551 H   0  0  0  0  0  0  0  0  0  0  0  0
   55.5086   22.7499   45.1551 H   0  0  0  0  0  0  0  0  0  0  0  0
  1  2  1  0
  2  3  1  0
  2  4  1  0
  4  5  1  0
  5  6  1  0
  6  7  1  0
  7  8  2  0
  8  9  1  0
  9 10  1  0
 10 11  2  0
 11 12  1  0
 12 13  2  0
 12 14  1  0
 14 15  1  0
 14 16  1  0
 14 17  1  0
 10 18  1  0
 18  7  1  0
  1 19  1  0
  1 20  1  0
  1 21  1  0
  3 22  1  0
  3 23  1  0
  3 24  1  0
  4 25  1  0
  4 26  1  0
  5 27  1  0
  5 28  1  0
  9 29  1  0
 15 30  1  0
 15 31  1  0
 15 32  1  0
 16 33  1  0
 16 34  1  0
 16 35  1  0
 17 36  1  0
 17 37  1  0
 17 38  1  0
M  END
>  <smiles>  (9) 
CN(C)CCSc1n[nH]c(=NC(=O)C(C)(C)C)s1

>  <score_type>  (9) 
oracle

>  <origin>  (9) 
adg

>  <m_score__min__energy>  (9) 
-7.5300000000000002

>  <m_primary>  (9) 
energy

$$$$
9:0
     RDKit          3D

 31 33  0  0  0  0  0  0  0  0999 V2000
   56.0410   27.1430   45.7740 H   0  0  0  0  0  0  0  0  0  0  0  0
   55.1470   26.7120   45.9780 O   0  0  0  0  0  0  0  0  0  0  0  0
   54.9270   25.3700   45.6870 C   0  0  0  0  0  0  0  0  0  0  0  0
   53.7150   24.7930   45.6740 N   0  0  0  0  0  0  0  0  0  0  0  0
   54.0020   23.5090   45.3640 C   0  0  0  0  0  0  0  0  0  0  0  0
   53.1150   22.6240   45.2560 O   0  0  0  0  0  0  0  0  0  0  0  0
   55.3160   23.2490   45.1850 N   0  0  0  0  0  0  0  0  0  0  0  0
   55.8970   24.4460   45.3820 C   0  0  0  0  0  0  0  0  0  0  0  0
   57.3750   24.6770   45.3530 C   0  0  0  0  0  0  0  0  0  0  0  0
   57.7344   24.6082   44.3156 H   0  0  0  0  0  0  0  0  0  0  0  0
   57.8722   23.9148   45.9709 H   0  0  0  0  0  0  0  0  0  0  0  0
   57.6900   26.0320   45.8970 C   0  0  0  0  0  0  0  0  0  0  0  0
   57.5310   26.2600   47.1270 O   0  0  0  0  0  0  0  0  0  0  0  0
   58.1230   27.0670   44.9980 N   0  0  0  0  0  0  0  0  0  0  0  0
   57.7340   28.3070   45.0080 C   0  0  0  0  0  0  0  0  0  0  0  0
   56.4720   28.7030   44.7330 N   0  0  0  0  0  0  0  0  0  0  0  0
   56.5220   30.0400   44.8580 C   0  0  0  0  0  0  0  0  0  0  0  0
   55.6750   30.7258   44.7093 H   0  0  0  0  0  0  0  0  0  0  0  0
   57.8060   30.4170   45.2030 C   0  0  0  0  0  0  0  0  0  0  0  0
   58.3060   31.7930   45.4410 C   0  0  0  0  0  0  0  0  0  0  0  0
   57.7840   32.8670   44.6940 C   0  0  0  0  0  0  0  0  0  0  0  0
   57.0080   32.6788   43.9374 H   0  0  0  0  0  0  0  0  0  0  0  0
   58.2440   34.1710   44.9060 C   0  0  0  0  0  0  0  0  0  0  0  0
   57.8299   35.0022   44.3163 H   0  0  0  0  0  0  0  0  0  0  0  0
   59.2280   34.4190   45.8650 C   0  0  0  0  0  0  0  0  0  0  0  0
   59.6830   35.7150   46.0740 O   0  0  0  0  0  0  0  0  0  0  0  0
   59.7540   33.3640   46.6140 C   0  0  0  0  0  0  0  0  0  0  0  0
   60.5294   33.5603   47.3692 H   0  0  0  0  0  0  0  0  0  0  0  0
   59.2970   32.0580   46.4060 C   0  0  0  0  0  0  0  0  0  0  0  0
   59.7148   31.2322   47.0005 H   0  0  0  0  0  0  0  0  0  0  0  0
   58.5770   29.3170   45.2990 N   0  0  0  0  0  0  0  0  0  0  0  0
  1  2  1  0
  2  3  1  0
  3  4  1  0
  4  5  1  0
  5  6  2  0
  5  7  1  0
  7  8  1  0
  8  9  1  0
  9 10  1  0
  9 11  1  0
  9 12  1  0
 12 13  2  0
 12 14  1  0
 14 15  2  0
 15 16  1  0
 16 17  1  0
 17 18  1  0
 17 19  2  0
 19 20  1  0
 20 21  2  0
 21 22  1  0
 21 23  1  0
 23 24  1  0
 23 25  2  0
 25 26  1  0
 25 27  1  0
 27 28  1  0
 27 29  2  0
 29 30  1  0
 19 31  1  0
  8  3  2  0
 31 15  1  0
 29 20  1  0
M  CHG  5   4  -1   7  -1  16  -1  26  -1  31  -1
M  END
>  <UniqueID>  (10) 
8

>  <SMILES>  (10) 
O=C(Cc1[n-]c(=O)[n-]c1O)/N=c1\[n-]cc(-c2ccc([O-])cc2)[n-]1

>  <Energy>  (10) 
91.06037361700348

>  <Genealogy>  (10) 
O=C(Cc1[n-]c(=O)[n-]c1O)N=c1[n-]cc(-c2ccc([O-])cc2)[n-]1 (protonated)
O=C(Cc1[n-]c(=O)[n-]c1O)/N=c1\[n-]cc(-c2ccc([O-])cc2)[n-]1 (cis-trans isomerization)
O=C(Cc1[n-]c(=O)[n-]c1O)/N=c1\[n-]cc(-c2ccc([O-])cc2)[n-]1 (3D coordinates assigned)
O=C(Cc1[n-]c(=O)[n-]c1O)/N=c1\[n-]cc(-c2ccc([O-])cc2)[n-]1 (optimized conformer: 91.06037361700348 kcal/mol)

>  <smiles>  (10) 
O=C(Cc1[nH]c(=O)[nH]c1O)N=c1[nH]cc(-c2ccc(O)cc2)[nH]1

>  <score_type>  (10) 
oracle

>  <origin>  (10) 
adg

>  <m_score__min__energy>  (10) 
-14.48

>  <m_primary>  (10) 
energy

$$$$
10:0
     RDKit          3D

 48 50  0  0  0  0  0  0  0  0999 V2000
   58.9675   34.3344   49.0504 H   0  0  0  0  0  0  0  0  0  0  0  0
   60.0280   34.1590   48.8170 C   0  0  0  0  0  0  0  0  0  0  0  0
   60.9860   34.4300   49.7410 N   0  0  0  0  0  0  0  0  0  0  0  0
   62.3080   34.2250   49.4900 C   0  0  0  0  0  0  0  0  0  0  0  0
   63.2140   34.4930   50.3870 N   0  0  0  0  0  0  0  0  0  0  0  0
   63.8040   33.5760   51.3230 C   0  0  0  0  0  0  0  0  0  0  0  0
   65.0410   33.3300   51.3090 O   0  0  0  0  0  0  0  0  0  0  0  0
   62.9410   32.9420   52.3650 C   0  0  0  0  0  0  0  0  0  0  0  0
   63.0292   31.8478   52.2953 H   0  0  0  0  0  0  0  0  0  0  0  0
   63.2678   33.2787   53.3599 H   0  0  0  0  0  0  0  0  0  0  0  0
   61.5500   33.3290   52.1600 N   0  0  0  0  0  0  0  0  0  0  0  0
   61.5300   34.3300   51.8580 H   0  0  0  0  0  0  0  0  0  0  0  0
   61.1800   32.7710   51.3570 H   0  0  0  0  0  0  0  0  0  0  0  0
   62.6860   33.7090   48.2380 C   0  0  0  0  0  0  0  0  0  0  0  0
   64.1230   33.4490   47.8950 C   0  0  0  0  0  0  0  0  0  0  0  0
   64.7076   33.3432   48.8208 H   0  0  0  0  0  0  0  0  0  0  0  0
   64.1977   32.5228   47.3064 H   0  0  0  0  0  0  0  0  0  0  0  0
   64.5175   34.2904   47.3064 H   0  0  0  0  0  0  0  0  0  0  0  0
   61.7230   33.4380   47.3160 N   0  0  0  0  0  0  0  0  0  0  0  0
   60.4020   33.6530   47.5610 C   0  0  0  0  0  0  0  0  0  0  0  0
   59.4010   33.3300   46.5110 C   0  0  0  0  0  0  0  0  0  0  0  0
   59.1420   34.2550   45.4850 C   0  0  0  0  0  0  0  0  0  0  0  0
   59.6925   35.2069   45.4567 H   0  0  0  0  0  0  0  0  0  0  0  0
   58.1910   33.9750   44.5010 C   0  0  0  0  0  0  0  0  0  0  0  0
   57.9932   34.7083   43.7053 H   0  0  0  0  0  0  0  0  0  0  0  0
   57.4910   32.7680   44.5240 C   0  0  0  0  0  0  0  0  0  0  0  0
   56.7383   32.5555   43.7505 H   0  0  0  0  0  0  0  0  0  0  0  0
   57.7450   31.8240   45.5320 C   0  0  0  0  0  0  0  0  0  0  0  0
   57.0180   30.5890   45.6100 N   0  0  0  0  0  0  0  0  0  0  0  0
   56.7330   29.7150   44.5130 C   0  0  0  0  0  0  0  0  0  0  0  0
   55.9820   30.1200   43.5850 O   0  0  0  0  0  0  0  0  0  0  0  0
   57.2400   28.3770   44.4960 N   0  0  0  0  0  0  0  0  0  0  0  0
   57.4970   27.5930   45.6990 C   0  0  0  0  0  0  0  0  0  0  0  0
   58.5713   27.6277   45.9330 H   0  0  0  0  0  0  0  0  0  0  0  0
   56.9178   28.0148   46.5336 H   0  0  0  0  0  0  0  0  0  0  0  0
   57.0800   26.1610   45.4840 C   0  0  0  0  0  0  0  0  0  0  0  0
   58.0380   25.1930   45.1360 C   0  0  0  0  0  0  0  0  0  0  0  0
   59.0892   25.4872   44.9999 H   0  0  0  0  0  0  0  0  0  0  0  0
   57.6610   23.8580   44.9620 C   0  0  0  0  0  0  0  0  0  0  0  0
   58.4152   23.1057   44.6877 H   0  0  0  0  0  0  0  0  0  0  0  0
   56.3280   23.4780   45.1360 C   0  0  0  0  0  0  0  0  0  0  0  0
   56.0328   22.4278   44.9949 H   0  0  0  0  0  0  0  0  0  0  0  0
   55.3700   24.4310   45.4890 C   0  0  0  0  0  0  0  0  0  0  0  0
   54.3217   24.1287   45.6290 H   0  0  0  0  0  0  0  0  0  0  0  0
   55.7390   25.7680   45.6650 C   0  0  0  0  0  0  0  0  0  0  0  0
   54.7710   26.7020   46.0230 O   0  0  0  0  0  0  0  0  0  0  0  0
   58.6790   32.1190   46.5330 C   0  0  0  0  0  0  0  0  0  0  0  0
   58.8513   31.3979   47.3456 H   0  0  0  0  0  0  0  0  0  0  0  0
  1  2  1  0
  2  3  1  0
  3  4  1  0
  4  5  2  0
  5  6  1  0
  6  7  2  0
  6  8  1  0
  8  9  1  0
  8 10  1  0
  8 11  1  0
 11 12  1  0
 11 13  1  0
  4 14  1  0
 14 15  1  0
 15 16  1  0
 15 17  1  0
 15 18  1  0
 14 19  2  0
 19 20  1  0
 20 21  1  0
 21 22  2  0
 22 23  1  0
 22 24  1  0
 24 25  1  0
 24 26  2  0
 26 27  1  0
 26 28  1  0
 28 29  1  0
 29 30  1  0
 30 31  2  0
 30 32  1  0
 32 33  1  0
 33 34  1  0
 33 35  1  0
 33 36  1  0
 36 37  2  0
 37 38  1  0
 37 39  1  0
 39 40  1  0
 39 41  2  0
 41 42  1  0
 41 43  1  0
 43 44  1  0
 43 45  2  0
 45 46  1  0
 28 47  2  0
 47 48  1  0
 20  2  2  0
 47 21  1  0
 45 36  1  0
M  CHG  4   3  -1  29  -1  32  -1  46  -1
M  END
>  <UniqueID>  (11) 
9

>  <SMILES>  (11) 
Cc1nc(-c2cccc([N-]C(=O)[N-]Cc3ccccc3[O-])c2)c[n-]/c1=N\C(=O)CN

>  <Energy>  (11) 
56.52695960377277

>  <Genealogy>  (11) 
Cc1nc(-c2cccc([N-]C(=O)[N-]Cc3ccccc3[O-])c2)c[n-]c1=NC(=O)CN (protonated)
Cc1nc(-c2cccc([N-]C(=O)[N-]Cc3ccccc3[O-])c2)c[n-]/c1=N\C(=O)CN (cis-trans isomerization)
Cc1nc(-c2cccc([N-]C(=O)[N-]Cc3ccccc3[O-])c2)c[n-]/c1=N\C(=O)CN (3D coordinates assigned)
Cc1nc(-c2cccc([N-]C(=O)[N-]Cc3ccccc3[O-])c2)c[n-]/c1=N\C(=O)CN (optimized conformer: 56.52695960377277 kcal/mol)

>  <smiles>  (11) 
Cc1nc(-c2cccc(NC(=O)NCc3ccccc3O)c2)c[nH]c1=NC(=O)CN

>  <score_type>  (11) 
oracle

>  <origin>  (11) 
adg

>  <m_score__min__energy>  (11) 
-15.34

>  <m_primary>  (11) 
energy

$$$$
11:0
     RDKit          3D

 49 51  0  0  0  0  0  0  0  0999 V2000
   55.8860   29.7430   42.4330 O   0  0  0  0  0  0  0  0  0  0  0  0
   56.6300   29.7380   43.4500 C   0  0  0  0  0  0  0  0  0  0  0  0
   57.7790   28.7690   43.5180 C   0  0  0  0  0  0  0  0  0  0  0  0
   57.7570   28.0430   44.7860 N   0  0  0  0  0  0  0  0  0  0  0  0
   58.7700   28.2050   45.7880 C   0  0  0  0  0  0  0  0  0  0  0  0
   59.6580   29.0920   45.6600 O   0  0  0  0  0  0  0  0  0  0  0  0
   58.8110   27.2860   46.9700 C   0  0  0  0  0  0  0  0  0  0  0  0
   57.7380   26.2460   46.8420 C   0  0  0  0  0  0  0  0  0  0  0  0
   57.9520   24.9360   47.2900 C   0  0  0  0  0  0  0  0  0  0  0  0
   56.9060   24.0170   47.1830 C   0  0  0  0  0  0  0  0  0  0  0  0
   57.0640   22.8300   47.5710 O   0  0  0  0  0  0  0  0  0  0  0  0
   55.7140   24.4040   46.6600 N   0  0  0  0  0  0  0  0  0  0  0  0
   55.5190   25.6820   46.2400 C   0  0  0  0  0  0  0  0  0  0  0  0
   54.4070   26.0230   45.7620 O   0  0  0  0  0  0  0  0  0  0  0  0
   56.5240   26.5920   46.3360 N   0  0  0  0  0  0  0  0  0  0  0  0
   56.3320   30.6370   44.5260 N   0  0  0  0  0  0  0  0  0  0  0  0
   57.2390   31.5680   45.1330 C   0  0  0  0  0  0  0  0  0  0  0  0
   57.8050   31.2530   46.3750 C   0  0  0  0  0  0  0  0  0  0  0  0
   58.6770   32.1460   47.0020 C   0  0  0  0  0  0  0  0  0  0  0  0
   58.9750   33.3770   46.4040 C   0  0  0  0  0  0  0  0  0  0  0  0
   60.0970   34.4850   47.1890 S   0  0  0  0  0  0  0  0  0  0  0  0
   59.9920   35.8440   46.5550 O   0  0  0  0  0  0  0  0  0  0  0  0
   59.7060   34.6080   48.6370 O   0  0  0  0  0  0  0  0  0  0  0  0
   61.7290   33.8590   47.0740 N   0  0  0  0  0  0  0  0  0  0  0  0
   62.5590   34.2180   48.2390 C   0  0  0  0  0  0  0  0  0  0  0  0
   62.3310   33.2740   49.4290 C   0  0  0  0  0  0  0  0  0  0  0  0
   62.5290   31.9290   49.0490 O   0  0  0  0  0  0  0  0  0  0  0  0
   61.5750   31.5710   48.0700 C   0  0  0  0  0  0  0  0  0  0  0  0
   61.7550   32.4110   46.7970 C   0  0  0  0  0  0  0  0  0  0  0  0
   58.3900   33.7090   45.1740 C   0  0  0  0  0  0  0  0  0  0  0  0
   57.5190   32.8130   44.5450 C   0  0  0  0  0  0  0  0  0  0  0  0
   57.6982   28.0517   42.6879 H   0  0  0  0  0  0  0  0  0  0  0  0
   58.7232   29.3283   43.4427 H   0  0  0  0  0  0  0  0  0  0  0  0
   57.0340   27.2980   44.9120 H   0  0  0  0  0  0  0  0  0  0  0  0
   59.7935   26.7934   47.0157 H   0  0  0  0  0  0  0  0  0  0  0  0
   58.6452   27.8680   47.8886 H   0  0  0  0  0  0  0  0  0  0  0  0
   58.9214   24.6382   47.7161 H   0  0  0  0  0  0  0  0  0  0  0  0
   57.5612   30.2961   46.8597 H   0  0  0  0  0  0  0  0  0  0  0  0
   59.1311   31.8817   47.9684 H   0  0  0  0  0  0  0  0  0  0  0  0
   63.6185   34.1699   47.9470 H   0  0  0  0  0  0  0  0  0  0  0  0
   62.2755   35.2328   48.5548 H   0  0  0  0  0  0  0  0  0  0  0  0
   63.0380   33.5293   50.2321 H   0  0  0  0  0  0  0  0  0  0  0  0
   61.2946   33.3920   49.7782 H   0  0  0  0  0  0  0  0  0  0  0  0
   61.6976   30.5069   47.8197 H   0  0  0  0  0  0  0  0  0  0  0  0
   60.5692   31.7569   48.4746 H   0  0  0  0  0  0  0  0  0  0  0  0
   62.7218   32.1558   46.3385 H   0  0  0  0  0  0  0  0  0  0  0  0
   60.9174   32.1824   46.1216 H   0  0  0  0  0  0  0  0  0  0  0  0
   58.6164   34.6766   44.7022 H   0  0  0  0  0  0  0  0  0  0  0  0
   57.0517   33.0841   43.5868 H   0  0  0  0  0  0  0  0  0  0  0  0
  1  2  2  0
  2  3  1  0
  3  4  1  0
  4  5  1  0
  5  6  2  0
  5  7  1  0
  7  8  1  0
  8  9  2  0
  9 10  1  0
 10 11  2  0
 10 12  1  0
 12 13  1  0
 13 14  2  0
 13 15  1  0
  2 16  1  0
 16 17  1  0
 17 18  2  0
 18 19  1  0
 19 20  2  0
 20 21  1  0
 21 22  2  0
 21 23  2  0
 21 24  1  0
 24 25  1  0
 25 26  1  0
 26 27  1  0
 27 28  1  0
 28 29  1  0
 20 30  1  0
 30 31  2  0
 15  8  1  0
 31 17  1  0
 29 24  1  0
  3 32  1  0
  3 33  1  0
  4 34  1  0
  7 35  1  0
  7 36  1  0
  9 37  1  0
 18 38  1  0
 19 39  1  0
 25 40  1  0
 25 41  1  0
 26 42  1  0
 26 43  1  0
 28 44  1  0
 28 45  1  0
 29 46  1  0
 29 47  1  0
 30 48  1  0
 31 49  1  0
M  CHG  3  12  -1  15  -1  16  -1
M  END
>  <UniqueID>  (12) 
10

>  <SMILES>  (12) 
O=C(CNC(=O)Cc1cc(=O)[n-]c(=O)[n-]1)[N-]c1ccc(S(=O)(=O)N2CCOCC2)cc1

>  <Energy>  (12) 
56.2023908447784

>  <Genealogy>  (12) 
O=C(CNC(=O)Cc1cc(=O)[n-]c(=O)[n-]1)[N-]c1ccc(S(=O)(=O)N2CCOCC2)cc1 (protonated)
O=C(CNC(=O)Cc1cc(=O)[n-]c(=O)[n-]1)[N-]c1ccc(S(=O)(=O)N2CCOCC2)cc1 (3D coordinates assigned)
O=C(CNC(=O)Cc1cc(=O)[n-]c(=O)[n-]1)[N-]c1ccc(S(=O)(=O)N2CCOCC2)cc1 (nonaromatic ring conformer: 56.2023908447784 kcal/mol)

>  <smiles>  (12) 
O=C(Cc1cc(=O)[nH]c(=O)[nH]1)NCC(=O)Nc1ccc(S(=O)(=O)N2CCOCC2)cc1

>  <score_type>  (12) 
oracle

>  <origin>  (12) 
adg

>  <m_score__min__energy>  (12) 
-15.130000000000001

>  <m_primary>  (12) 
energy

$$$$
12:0
     RDKit          3D

 51 53  0  0  0  0  0  0  0  0999 V2000
   53.6990   29.5490   54.9010 C   0  0  0  0  0  0  0  0  0  0  0  0
   54.2370   29.8610   53.7110 C   0  0  0  0  0  0  0  0  0  0  0  0
   53.5280   30.3390   52.5960 C   0  0  0  0  0  0  0  0  0  0  0  0
   52.2050   30.4040   52.3430 C   0  0  0  0  0  0  0  0  0  0  0  0
   51.5890   30.7930   51.0630 C   0  0  0  0  0  0  0  0  0  0  0  0
   51.5670   30.0270   49.9560 N   0  0  0  0  0  0  0  0  0  0  0  0
   51.0290   30.8450   49.0260 C   0  0  0  0  0  0  0  0  0  0  0  0
   50.8250   30.4800   47.8380 O   0  0  0  0  0  0  0  0  0  0  0  0
   50.7330   32.0890   49.4630 N   0  0  0  0  0  0  0  0  0  0  0  0
   51.1080   32.0400   50.7510 C   0  0  0  0  0  0  0  0  0  0  0  0
   51.0180   33.1190   51.6230 O   0  0  0  0  0  0  0  0  0  0  0  0
   54.4740   30.7810   51.6950 C   0  0  0  0  0  0  0  0  0  0  0  0
   55.7060   30.4730   52.2250 C   0  0  0  0  0  0  0  0  0  0  0  0
   56.9750   30.8330   51.5520 C   0  0  0  0  0  0  0  0  0  0  0  0
   57.7500   29.8850   51.2480 O   0  0  0  0  0  0  0  0  0  0  0  0
   57.3150   32.1990   51.1640 N   0  0  0  0  0  0  0  0  0  0  0  0
   57.8600   33.0310   52.2640 C   0  0  0  0  0  0  0  0  0  0  0  0
   59.2680   32.5960   52.6990 C   0  0  0  0  0  0  0  0  0  0  0  0
   60.1580   32.4480   51.5390 N   0  0  0  0  0  0  0  0  0  0  0  0
   61.5800   32.6490   51.7130 C   0  0  0  0  0  0  0  0  0  0  0  0
   62.5850   32.0620   50.7670 C   0  0  0  0  0  0  0  0  0  0  0  0
   62.0020   33.3530   52.6710 O   0  0  0  0  0  0  0  0  0  0  0  0
   59.6380   31.7290   50.3680 C   0  0  0  0  0  0  0  0  0  0  0  0
   58.2380   32.2380   50.0070 C   0  0  0  0  0  0  0  0  0  0  0  0
   55.5800   29.9190   53.4610 N   0  0  0  0  0  0  0  0  0  0  0  0
   56.7150   29.6120   54.3630 C   0  0  0  0  0  0  0  0  0  0  0  0
   57.4800   30.8750   54.7940 C   0  0  0  0  0  0  0  0  0  0  0  0
   57.6340   28.5370   53.7700 C   0  0  0  0  0  0  0  0  0  0  0  0
   54.3406   29.1810   55.7152 H   0  0  0  0  0  0  0  0  0  0  0  0
   52.6166   29.6614   55.0617 H   0  0  0  0  0  0  0  0  0  0  0  0
   51.5246   30.1429   53.1669 H   0  0  0  0  0  0  0  0  0  0  0  0
   54.2806   31.2837   50.7359 H   0  0  0  0  0  0  0  0  0  0  0  0
   56.4270   32.6530   50.8460 H   0  0  0  0  0  0  0  0  0  0  0  0
   57.9044   34.0765   51.9249 H   0  0  0  0  0  0  0  0  0  0  0  0
   57.1939   32.9108   53.1311 H   0  0  0  0  0  0  0  0  0  0  0  0
   59.6850   33.3550   53.3772 H   0  0  0  0  0  0  0  0  0  0  0  0
   59.1918   31.6234   53.2072 H   0  0  0  0  0  0  0  0  0  0  0  0
   63.3955   31.5886   51.3405 H   0  0  0  0  0  0  0  0  0  0  0  0
   62.0953   31.3079   50.1333 H   0  0  0  0  0  0  0  0  0  0  0  0
   63.0013   32.8590   50.1333 H   0  0  0  0  0  0  0  0  0  0  0  0
   60.3133   31.8897   49.5147 H   0  0  0  0  0  0  0  0  0  0  0  0
   59.5776   30.6566   50.6055 H   0  0  0  0  0  0  0  0  0  0  0  0
   58.3187   33.2762   49.6526 H   0  0  0  0  0  0  0  0  0  0  0  0
   57.8296   31.5799   49.2259 H   0  0  0  0  0  0  0  0  0  0  0  0
   56.2887   29.1901   55.2851 H   0  0  0  0  0  0  0  0  0  0  0  0
   57.5118   30.9275   55.8923 H   0  0  0  0  0  0  0  0  0  0  0  0
   58.5058   30.8350   54.3990 H   0  0  0  0  0  0  0  0  0  0  0  0
   56.9694   31.7656   54.3990 H   0  0  0  0  0  0  0  0  0  0  0  0
   58.1143   27.9752   54.5846 H   0  0  0  0  0  0  0  0  0  0  0  0
   57.0408   27.8488   53.1500 H   0  0  0  0  0  0  0  0  0  0  0  0
   58.4061   29.0160   53.1500 H   0  0  0  0  0  0  0  0  0  0  0  0
  1  2  2  0
  2  3  1  0
  3  4  2  3
  4  5  1  0
  5  6  1  0
  6  7  1  0
  7  8  2  0
  7  9  1  0
  9 10  1  0
 10 11  1  0
  3 12  1  0
 12 13  2  0
 13 14  1  0
 14 15  2  0
 14 16  1  0
 16 17  1  0
 17 18  1  0
 18 19  1  0
 19 20  1  0
 20 21  1  0
 20 22  2  0
 19 23  1  0
 23 24  1  0
 13 25  1  0
 25 26  1  0
 26 27  1  0
 26 28  1  0
 25  2  1  0
 10  5  2  0
 24 16  1  0
  1 29  1  0
  1 30  1  0
  4 31  1  0
 12 32  1  0
 16 33  1  0
 17 34  1  0
 17 35  1  0
 18 36  1  0
 18 37  1  0
 21 38  1  0
 21 39  1  0
 21 40  1  0
 23 41  1  0
 23 42  1  0
 24 43  1  0
 24 44  1  0
 26 45  1  0
 27 46  1  0
 27 47  1  0
 27 48  1  0
 28 49  1  0
 28 50  1  0
 28 51  1  0
M  CHG  4   6  -1   9  -1  11  -1  16   1
M  END
>  <UniqueID>  (13) 
11

>  <SMILES>  (13) 
C=c1c(=Cc2[n-]c(=O)[n-]c2[O-])cc(C(=O)[NH+]2CCN(C(C)=O)CC2)n1C(C)C

>  <Energy>  (13) 
135.4733017280205

>  <Genealogy>  (13) 
C=c1c(=Cc2[n-]c(=O)[n-]c2[O-])cc(C(=O)[NH+]2CCN(C(C)=O)CC2)n1C(C)C (protonated)
C=c1c(=Cc2[n-]c(=O)[n-]c2[O-])cc(C(=O)[NH+]2CCN(C(C)=O)CC2)n1C(C)C (3D coordinates assigned)
C=c1c(=Cc2[n-]c(=O)[n-]c2[O-])cc(C(=O)[NH+]2CCN(C(C)=O)CC2)n1C(C)C (nonaromatic ring conformer: 135.4733017280205 kcal/mol)

>  <smiles>  (13) 
C=c1c(=Cc2[nH]c(=O)[nH]c2O)cc(C(=O)N2CCN(C(C)=O)CC2)n1C(C)C

>  <score_type>  (13) 
oracle

>  <origin>  (13) 
adg

>  <m_score__min__energy>  (13) 
-15.43

>  <m_primary>  (13) 
energy

$$$$
13:0
     RDKit          3D

 47 49  0  0  0  0  0  0  0  0999 V2000
   59.2470   35.0360   45.1910 C   0  0  0  0  0  0  0  0  0  0  0  0
   58.8210   33.9400   46.0650 N   0  0  0  0  0  0  0  0  0  0  0  0
   59.4160   33.8260   47.4080 C   0  0  0  0  0  0  0  0  0  0  0  0
   60.7800   33.1910   47.3280 C   0  0  0  0  0  0  0  0  0  0  0  0
   60.9520   31.8290   47.6270 C   0  0  0  0  0  0  0  0  0  0  0  0
   62.2220   31.2470   47.5470 C   0  0  0  0  0  0  0  0  0  0  0  0
   63.3250   32.0180   47.1670 C   0  0  0  0  0  0  0  0  0  0  0  0
   63.1590   33.3710   46.8630 C   0  0  0  0  0  0  0  0  0  0  0  0
   61.8920   33.9570   46.9410 C   0  0  0  0  0  0  0  0  0  0  0  0
   57.8110   33.0260   45.5810 C   0  0  0  0  0  0  0  0  0  0  0  0
   56.6610   33.4620   45.3030 O   0  0  0  0  0  0  0  0  0  0  0  0
   58.0810   31.5620   45.3880 C   0  0  0  0  0  0  0  0  0  0  0  0
   56.9420   30.8870   44.1350 S   0  0  0  0  0  0  0  0  0  0  0  0
   57.0420   29.2200   44.7740 C   0  0  0  0  0  0  0  0  0  0  0  0
   58.2480   28.6090   44.8940 N   0  0  0  0  0  0  0  0  0  0  0  0
   58.3500   27.3450   45.3790 C   0  0  0  0  0  0  0  0  0  0  0  0
   59.4890   26.8150   45.4790 O   0  0  0  0  0  0  0  0  0  0  0  0
   57.1910   26.6430   45.7610 C   0  0  0  0  0  0  0  0  0  0  0  0
   57.2740   25.2490   46.3420 C   0  0  0  0  0  0  0  0  0  0  0  0
   57.2030   24.2150   45.2490 C   0  0  0  0  0  0  0  0  0  0  0  0
   58.0830   23.1190   45.2500 C   0  0  0  0  0  0  0  0  0  0  0  0
   57.9940   22.1430   44.2520 C   0  0  0  0  0  0  0  0  0  0  0  0
   57.0240   22.2490   43.2520 C   0  0  0  0  0  0  0  0  0  0  0  0
   56.1410   23.3320   43.2470 C   0  0  0  0  0  0  0  0  0  0  0  0
   56.2270   24.3110   44.2430 C   0  0  0  0  0  0  0  0  0  0  0  0
   55.9550   27.3020   45.6290 C   0  0  0  0  0  0  0  0  0  0  0  0
   54.7700   26.6760   45.9940 O   0  0  0  0  0  0  0  0  0  0  0  0
   55.9100   28.5670   45.1380 N   0  0  0  0  0  0  0  0  0  0  0  0
   59.5777   35.8869   45.8046 H   0  0  0  0  0  0  0  0  0  0  0  0
   60.0787   34.6966   44.5561 H   0  0  0  0  0  0  0  0  0  0  0  0
   58.4044   35.3474   44.5561 H   0  0  0  0  0  0  0  0  0  0  0  0
   59.5090   34.8293   47.8492 H   0  0  0  0  0  0  0  0  0  0  0  0
   58.7661   33.1960   48.0330 H   0  0  0  0  0  0  0  0  0  0  0  0
   60.0865   31.2189   47.9246 H   0  0  0  0  0  0  0  0  0  0  0  0
   62.3530   30.1807   47.7835 H   0  0  0  0  0  0  0  0  0  0  0  0
   64.3229   31.5591   47.1075 H   0  0  0  0  0  0  0  0  0  0  0  0
   64.0265   33.9766   46.5617 H   0  0  0  0  0  0  0  0  0  0  0  0
   61.7655   35.0224   46.6983 H   0  0  0  0  0  0  0  0  0  0  0  0
   59.1189   31.4229   45.0514 H   0  0  0  0  0  0  0  0  0  0  0  0
   57.9279   31.0346   46.3411 H   0  0  0  0  0  0  0  0  0  0  0  0
   58.2254   25.1387   46.8830 H   0  0  0  0  0  0  0  0  0  0  0  0
   56.4272   25.0993   47.0279 H   0  0  0  0  0  0  0  0  0  0  0  0
   58.8445   23.0285   46.0386 H   0  0  0  0  0  0  0  0  0  0  0  0
   58.6890   21.2904   44.2545 H   0  0  0  0  0  0  0  0  0  0  0  0
   56.9554   21.4799   42.4686 H   0  0  0  0  0  0  0  0  0  0  0  0
   55.3776   23.4150   42.4594 H   0  0  0  0  0  0  0  0  0  0  0  0
   55.5272   25.1597   44.2383 H   0  0  0  0  0  0  0  0  0  0  0  0
  1  2  1  0
  2  3  1  0
  3  4  1  0
  4  5  2  0
  5  6  1  0
  6  7  2  0
  7  8  1  0
  8  9  2  0
  2 10  1  0
 10 11  2  0
 10 12  1  0
 12 13  1  0
 13 14  1  0
 14 15  2  0
 15 16  1  0
 16 17  2  0
 16 18  1  0
 18 19  1  0
 19 20  1  0
 20 21  2  0
 21 22  1  0
 22 23  2  0
 23 24  1  0
 24 25  2  0
 18 26  2  0
 26 27  1  0
 26 28  1  0
  9  4  1  0
 28 14  1  0
 25 20  1  0
  1 29  1  0
  1 30  1  0
  1 31  1  0
  3 32  1  0
  3 33  1  0
  5 34  1  0
  6 35  1  0
  7 36  1  0
  8 37  1  0
  9 38  1  0
 12 39  1  0
 12 40  1  0
 19 41  1  0
 19 42  1  0
 21 43  1  0
 22 44  1  0
 23 45  1  0
 24 46  1  0
 25 47  1  0
M  CHG  2  27  -1  28  -1
M  END
>  <UniqueID>  (14) 
12

>  <SMILES>  (14) 
CN(Cc1ccccc1)C(=O)CSc1nc(=O)c(Cc2ccccc2)c([O-])[n-]1

>  <Energy>  (14) 
45.356545435036

>  <Genealogy>  (14) 
CN(Cc1ccccc1)C(=O)CSc1nc(=O)c(Cc2ccccc2)c([O-])[n-]1 (protonated)
CN(Cc1ccccc1)C(=O)CSc1nc(=O)c(Cc2ccccc2)c([O-])[n-]1 (3D coordinates assigned)
CN(Cc1ccccc1)C(=O)CSc1nc(=O)c(Cc2ccccc2)c([O-])[n-]1 (optimized conformer: 45.356545435036 kcal/mol)

>  <smiles>  (14) 
CN(Cc1ccccc1)C(=O)CSc1nc(=O)c(Cc2ccccc2)c(O)[nH]1

>  <score_type>  (14) 
oracle

>  <origin>  (14) 
adg

>  <m_score__min__energy>  (14) 
-14.66

>  <m_primary>  (14) 
energy

$$$$
14:0
     RDKit          3D

 53 55  0  0  0  0  0  0  0  0999 V2000
   56.6790   30.3570   43.5630 C   0  0  0  0  0  0  0  0  0  0  0  0
   57.4270   31.5890   43.2750 N   0  0  0  0  0  0  0  0  0  0  0  0
   57.6180   31.9910   41.8770 C   0  0  0  0  0  0  0  0  0  0  0  0
   57.9710   32.3920   44.3550 C   0  0  0  0  0  0  0  0  0  0  0  0
   58.0090   33.7960   44.2580 C   0  0  0  0  0  0  0  0  0  0  0  0
   58.5250   34.5660   45.3000 C   0  0  0  0  0  0  0  0  0  0  0  0
   59.0040   33.9540   46.4580 C   0  0  0  0  0  0  0  0  0  0  0  0
   58.9790   32.5560   46.5850 C   0  0  0  0  0  0  0  0  0  0  0  0
   59.5050   31.9010   47.8070 C   0  0  0  0  0  0  0  0  0  0  0  0
   60.6200   32.2610   48.2750 O   0  0  0  0  0  0  0  0  0  0  0  0
   58.7800   30.8300   48.4320 N   0  0  0  0  0  0  0  0  0  0  0  0
   58.9740   30.4360   49.8020 C   0  0  0  0  0  0  0  0  0  0  0  0
   59.8790   29.4080   50.1050 C   0  0  0  0  0  0  0  0  0  0  0  0
   60.0460   28.9800   51.4230 C   0  0  0  0  0  0  0  0  0  0  0  0
   59.3030   29.5650   52.4520 C   0  0  0  0  0  0  0  0  0  0  0  0
   58.3920   30.5960   52.1710 C   0  0  0  0  0  0  0  0  0  0  0  0
   57.5480   31.1650   53.2440 C   0  0  0  0  0  0  0  0  0  0  0  0
   57.7690   32.3390   53.6420 O   0  0  0  0  0  0  0  0  0  0  0  0
   56.4670   30.4350   53.8310 N   0  0  0  0  0  0  0  0  0  0  0  0
   55.8440   29.2580   53.2300 C   0  0  0  0  0  0  0  0  0  0  0  0
   54.7790   29.6870   52.2220 C   0  0  0  0  0  0  0  0  0  0  0  0
   53.5260   29.9970   52.9110 N   0  0  0  0  0  0  0  0  0  0  0  0
   52.6310   30.8630   52.5290 C   0  0  0  0  0  0  0  0  0  0  0  0
   52.7180   31.3970   51.2370 C   0  0  0  0  0  0  0  0  0  0  0  0
   51.7630   32.3190   50.8010 C   0  0  0  0  0  0  0  0  0  0  0  0
   50.7540   32.7000   51.6270 N   0  0  0  0  0  0  0  0  0  0  0  0
   50.6440   32.2060   52.8890 C   0  0  0  0  0  0  0  0  0  0  0  0
   51.5770   31.2810   53.3670 C   0  0  0  0  0  0  0  0  0  0  0  0
   58.2190   31.0150   50.8400 C   0  0  0  0  0  0  0  0  0  0  0  0
   58.4700   31.7820   45.5260 C   0  0  0  0  0  0  0  0  0  0  0  0
   56.5979   30.2234   44.6518 H   0  0  0  0  0  0  0  0  0  0  0  0
   55.6719   30.4289   43.1264 H   0  0  0  0  0  0  0  0  0  0  0  0
   57.2074   29.4967   43.1264 H   0  0  0  0  0  0  0  0  0  0  0  0
   58.0898   32.9841   41.8422 H   0  0  0  0  0  0  0  0  0  0  0  0
   58.2649   31.2597   41.3703 H   0  0  0  0  0  0  0  0  0  0  0  0
   56.6425   32.0306   41.3703 H   0  0  0  0  0  0  0  0  0  0  0  0
   57.6282   34.2902   43.3520 H   0  0  0  0  0  0  0  0  0  0  0  0
   58.5543   35.6618   45.2080 H   0  0  0  0  0  0  0  0  0  0  0  0
   59.4038   34.5703   47.2768 H   0  0  0  0  0  0  0  0  0  0  0  0
   58.1560   30.2420   47.8350 H   0  0  0  0  0  0  0  0  0  0  0  0
   60.4605   28.9364   49.2991 H   0  0  0  0  0  0  0  0  0  0  0  0
   60.7648   28.1796   51.6525 H   0  0  0  0  0  0  0  0  0  0  0  0
   59.4325   29.2161   53.4871 H   0  0  0  0  0  0  0  0  0  0  0  0
   56.6124   28.6616   52.7163 H   0  0  0  0  0  0  0  0  0  0  0  0
   55.3712   28.6567   54.0205 H   0  0  0  0  0  0  0  0  0  0  0  0
   55.1278   30.5802   51.6831 H   0  0  0  0  0  0  0  0  0  0  0  0
   54.6044   28.8645   51.5128 H   0  0  0  0  0  0  0  0  0  0  0  0
   53.5357   31.0914   50.5677 H   0  0  0  0  0  0  0  0  0  0  0  0
   51.8283   32.7376   49.7859 H   0  0  0  0  0  0  0  0  0  0  0  0
   49.8178   32.5354   53.5363 H   0  0  0  0  0  0  0  0  0  0  0  0
   51.4895   30.8826   54.3886 H   0  0  0  0  0  0  0  0  0  0  0  0
   57.4870   31.8025   50.6074 H   0  0  0  0  0  0  0  0  0  0  0  0
   58.4608   30.6854   45.6119 H   0  0  0  0  0  0  0  0  0  0  0  0
  1  2  1  0
  2  3  1  0
  2  4  1  0
  4  5  2  0
  5  6  1  0
  6  7  2  0
  7  8  1  0
  8  9  1  0
  9 10  2  0
  9 11  1  0
 11 12  1  0
 12 13  2  0
 13 14  1  0
 14 15  2  0
 15 16  1  0
 16 17  1  0
 17 18  2  0
 17 19  1  0
 19 20  1  0
 20 21  1  0
 21 22  1  0
 22 23  2  3
 23 24  1  0
 24 25  2  0
 25 26  1  0
 26 27  1  0
 27 28  2  0
 16 29  2  0
  8 30  2  0
 30  4  1  0
 29 12  1  0
 28 23  1  0
  1 31  1  0
  1 32  1  0
  1 33  1  0
  3 34  1  0
  3 35  1  0
  3 36  1  0
  5 37  1  0
  6 38  1  0
  7 39  1  0
 11 40  1  0
 13 41  1  0
 14 42  1  0
 15 43  1  0
 20 44  1  0
 20 45  1  0
 21 46  1  0
 21 47  1  0
 24 48  1  0
 25 49  1  0
 27 50  1  0
 28 51  1  0
 29 52  1  0
 30 53  1  0
M  CHG  2  19  -1  26  -1
M  END
>  <UniqueID>  (15) 
13

>  <SMILES>  (15) 
CN(C)c1cccc(C(=O)Nc2cccc(C(=O)[N-]CCN=c3cc[n-]cc3)c2)c1

>  <Energy>  (15) 
67.14086374500505

>  <Genealogy>  (15) 
CN(C)c1cccc(C(=O)Nc2cccc(C(=O)[N-]CCN=c3cc[n-]cc3)c2)c1 (protonated)
CN(C)c1cccc(C(=O)Nc2cccc(C(=O)[N-]CCN=c3cc[n-]cc3)c2)c1 (3D coordinates assigned)
CN(C)c1cccc(C(=O)Nc2cccc(C(=O)[N-]CCN=c3cc[n-]cc3)c2)c1 (optimized conformer: 67.14086374500505 kcal/mol)

>  <smiles>  (15) 
CN(C)c1cccc(C(=O)Nc2cccc(C(=O)NCCN=c3cc[nH]cc3)c2)c1

>  <score_type>  (15) 
oracle

>  <origin>  (15) 
adg

>  <m_score__min__energy>  (15) 
-12.050000000000001

>  <m_primary>  (15) 
energy

$$$$
15:0
     RDKit          3D

 38 40  0  0  0  0  0  0  0  0999 V2000
   59.3310   29.9420   47.6930 C   0  0  0  0  0  0  0  0  0  0  0  0
   58.7070   30.5460   46.6680 C   0  0  0  0  0  0  0  0  0  0  0  0
   58.3140   29.9300   45.4740 C   0  0  0  0  0  0  0  0  0  0  0  0
   58.5040   28.6460   45.1110 C   0  0  0  0  0  0  0  0  0  0  0  0
   57.6970   27.5210   45.6340 C   0  0  0  0  0  0  0  0  0  0  0  0
   56.2900   27.5540   45.6230 C   0  0  0  0  0  0  0  0  0  0  0  0
   55.6110   28.6580   45.1110 O   0  0  0  0  0  0  0  0  0  0  0  0
   55.5850   26.5110   46.1320 N   0  0  0  0  0  0  0  0  0  0  0  0
   56.2140   25.4360   46.6730 C   0  0  0  0  0  0  0  0  0  0  0  0
   55.5390   24.4800   47.1360 O   0  0  0  0  0  0  0  0  0  0  0  0
   57.5700   25.3940   46.7210 N   0  0  0  0  0  0  0  0  0  0  0  0
   58.3210   26.4110   46.2240 C   0  0  0  0  0  0  0  0  0  0  0  0
   59.5770   26.3390   46.2890 O   0  0  0  0  0  0  0  0  0  0  0  0
   57.7280   30.9170   44.6980 C   0  0  0  0  0  0  0  0  0  0  0  0
   57.7700   32.0800   45.4400 C   0  0  0  0  0  0  0  0  0  0  0  0
   57.2740   33.4080   44.9520 C   0  0  0  0  0  0  0  0  0  0  0  0
   58.3620   31.8630   46.6380 N   0  0  0  0  0  0  0  0  0  0  0  0
   58.6020   32.8960   47.6620 C   0  0  0  0  0  0  0  0  0  0  0  0
   60.0750   33.2270   47.7550 C   0  0  0  0  0  0  0  0  0  0  0  0
   60.8480   33.2600   46.5810 C   0  0  0  0  0  0  0  0  0  0  0  0
   62.1730   33.5520   46.6320 N   0  0  0  0  0  0  0  0  0  0  0  0
   62.8010   33.8150   47.8070 C   0  0  0  0  0  0  0  0  0  0  0  0
   62.0870   33.7830   49.0030 C   0  0  0  0  0  0  0  0  0  0  0  0
   60.7210   33.4840   48.9870 C   0  0  0  0  0  0  0  0  0  0  0  0
   59.8730   33.4390   50.5300 Cl  0  0  0  0  0  0  0  0  0  0  0  0
   59.5980   30.5184   48.5910 H   0  0  0  0  0  0  0  0  0  0  0  0
   59.5750   28.8710   47.6342 H   0  0  0  0  0  0  0  0  0  0  0  0
   59.3016   28.4222   44.3873 H   0  0  0  0  0  0  0  0  0  0  0  0
   54.7470   28.9780   45.5310 H   0  0  0  0  0  0  0  0  0  0  0  0
   57.3106   30.7970   43.6874 H   0  0  0  0  0  0  0  0  0  0  0  0
   57.0346   34.0490   45.8133 H   0  0  0  0  0  0  0  0  0  0  0  0
   58.0531   33.8889   44.3423 H   0  0  0  0  0  0  0  0  0  0  0  0
   56.3704   33.2604   44.3423 H   0  0  0  0  0  0  0  0  0  0  0  0
   58.0440   33.8055   47.3947 H   0  0  0  0  0  0  0  0  0  0  0  0
   58.2643   32.5125   48.6361 H   0  0  0  0  0  0  0  0  0  0  0  0
   60.3744   33.0471   45.6113 H   0  0  0  0  0  0  0  0  0  0  0  0
   63.8748   34.0536   47.8145 H   0  0  0  0  0  0  0  0  0  0  0  0
   62.5956   33.9920   49.9557 H   0  0  0  0  0  0  0  0  0  0  0  0
  1  2  2  0
  2  3  1  0
  3  4  2  3
  4  5  1  0
  5  6  2  0
  6  7  1  0
  6  8  1  0
  8  9  1  0
  9 10  2  0
  9 11  1  0
 11 12  1  0
 12 13  2  0
  3 14  1  0
 14 15  2  0
 15 16  1  0
 15 17  1  0
 17 18  1  0
 18 19  1  0
 19 20  2  0
 20 21  1  0
 21 22  2  0
 22 23  1  0
 23 24  2  0
 24 25  1  0
 17  2  1  0
 24 19  1  0
 12  5  1  0
  1 26  1  0
  1 27  1  0
  4 28  1  0
  7 29  1  0
 14 30  1  0
 16 31  1  0
 16 32  1  0
 16 33  1  0
 18 34  1  0
 18 35  1  0
 20 36  1  0
 22 37  1  0
 23 38  1  0
M  CHG  2   8  -1  11  -1
M  END
>  <UniqueID>  (16) 
14

>  <SMILES>  (16) 
C=c1c(=Cc2c(O)[n-]c(=O)[n-]c2=O)cc(C)n1Cc1cnccc1Cl

>  <Energy>  (16) 
81.11329582915776

>  <Genealogy>  (16) 
C=c1c(=Cc2c(O)[n-]c(=O)[n-]c2=O)cc(C)n1Cc1cnccc1Cl (protonated)
C=c1c(=Cc2c(O)[n-]c(=O)[n-]c2=O)cc(C)n1Cc1cnccc1Cl (3D coordinates assigned)
C=c1c(=Cc2c(O)[n-]c(=O)[n-]c2=O)cc(C)n1Cc1cnccc1Cl (optimized conformer: 81.11329582915776 kcal/mol)

>  <smiles>  (16) 
C=c1c(=Cc2c(O)[nH]c(=O)[nH]c2=O)cc(C)n1Cc1cnccc1Cl

>  <score_type>  (16) 
oracle

>  <origin>  (16) 
adg

>  <m_score__min__energy>  (16) 
-13

>  <m_primary>  (16) 
energy

$$$$
16:0
     RDKit          3D

 88 92  0  0  0  0  0  0  0  0999 V2000
   56.1110   21.6320   42.8460 O   0  0  0  0  0  0  0  0  0  0  0  0
   55.8710   22.8660   42.9370 C   0  0  0  0  0  0  0  0  0  0  0  0
   54.5950   23.3420   42.6610 O   0  0  0  0  0  0  0  0  0  0  0  0
   56.9430   23.8110   43.3840 C   0  0  0  0  0  0  0  0  0  0  0  0
   56.4990   24.5800   44.5480 N   0  0  0  0  0  0  0  0  0  0  0  0
   56.4770   24.0310   45.8800 C   0  0  0  0  0  0  0  0  0  0  0  0
   56.0410   22.7120   46.0990 C   0  0  0  0  0  0  0  0  0  0  0  0
   56.1340   22.1320   47.3640 C   0  0  0  0  0  0  0  0  0  0  0  0
   56.6910   22.8460   48.4330 C   0  0  0  0  0  0  0  0  0  0  0  0
   56.8470   22.2070   49.7530 C   0  0  0  0  0  0  0  0  0  0  0  0
   55.9110   21.5110   50.2320 O   0  0  0  0  0  0  0  0  0  0  0  0
   58.0690   22.3680   50.4860 N   0  0  0  0  0  0  0  0  0  0  0  0
   58.1600   22.2620   51.9390 C   0  0  0  0  0  0  0  0  0  0  0  0
   59.5830   22.5040   52.3780 C   0  0  0  0  0  0  0  0  0  0  0  0
   59.8330   23.3560   53.4690 C   0  0  0  0  0  0  0  0  0  0  0  0
   61.1430   23.6070   53.8880 C   0  0  0  0  0  0  0  0  0  0  0  0
   62.2170   23.0090   53.2250 C   0  0  0  0  0  0  0  0  0  0  0  0
   61.9860   22.1680   52.1340 C   0  0  0  0  0  0  0  0  0  0  0  0
   60.6810   21.9170   51.6950 C   0  0  0  0  0  0  0  0  0  0  0  0
   60.5100   21.0940   50.5770 O   0  0  0  0  0  0  0  0  0  0  0  0
   57.1150   24.1680   48.2250 C   0  0  0  0  0  0  0  0  0  0  0  0
   56.9730   24.7800   46.9730 C   0  0  0  0  0  0  0  0  0  0  0  0
   57.3240   26.1670   46.8520 N   0  0  0  0  0  0  0  0  0  0  0  0
   56.9270   27.0190   45.7730 C   0  0  0  0  0  0  0  0  0  0  0  0
   55.7100   27.3220   45.6170 O   0  0  0  0  0  0  0  0  0  0  0  0
   57.9840   27.5800   44.8590 C   0  0  0  0  0  0  0  0  0  0  0  0
   57.7280   29.0190   44.4710 C   0  0  0  0  0  0  0  0  0  0  0  0
   56.7160   29.3450   43.5480 C   0  0  0  0  0  0  0  0  0  0  0  0
   56.4710   30.6800   43.2150 C   0  0  0  0  0  0  0  0  0  0  0  0
   57.2210   31.7000   43.8060 C   0  0  0  0  0  0  0  0  0  0  0  0
   58.2400   31.3930   44.7180 C   0  0  0  0  0  0  0  0  0  0  0  0
   58.8960   32.4650   45.4060 N   0  0  0  0  0  0  0  0  0  0  0  0
   58.7000   32.8100   46.7850 C   0  0  0  0  0  0  0  0  0  0  0  0
   58.1710   31.9820   47.5770 O   0  0  0  0  0  0  0  0  0  0  0  0
   59.0630   34.1880   47.2890 C   0  0  0  0  0  0  0  0  0  0  0  0
   59.5790   34.1600   48.7530 C   0  0  0  0  0  0  0  0  0  0  0  0
   61.1190   34.1930   48.8650 C   0  0  0  0  0  0  0  0  0  0  0  0
   61.7490   33.5620   47.6950 N   0  0  0  0  0  0  0  0  0  0  0  0
   62.7120   32.4890   47.8120 C   0  0  0  0  0  0  0  0  0  0  0  0
   63.4490   32.2110   46.8240 O   0  0  0  0  0  0  0  0  0  0  0  0
   62.8430   31.6920   49.0910 C   0  0  0  0  0  0  0  0  0  0  0  0
   61.5090   31.1970   49.6780 C   0  0  0  0  0  0  0  0  0  0  0  0
   61.0450   29.8940   49.0670 C   0  0  0  0  0  0  0  0  0  0  0  0
   60.7120   29.8270   47.7020 C   0  0  0  0  0  0  0  0  0  0  0  0
   60.2710   28.6240   47.1410 C   0  0  0  0  0  0  0  0  0  0  0  0
   60.1480   27.4830   47.9390 C   0  0  0  0  0  0  0  0  0  0  0  0
   60.4620   27.5410   49.2990 C   0  0  0  0  0  0  0  0  0  0  0  0
   60.9020   28.7440   49.8640 C   0  0  0  0  0  0  0  0  0  0  0  0
   61.4380   34.1000   46.3600 C   0  0  0  0  0  0  0  0  0  0  0  0
   60.0910   34.8500   46.3470 C   0  0  0  0  0  0  0  0  0  0  0  0
   58.5040   30.0480   45.0310 C   0  0  0  0  0  0  0  0  0  0  0  0
   57.8425   23.2370   43.6515 H   0  0  0  0  0  0  0  0  0  0  0  0
   57.1667   24.5078   42.5628 H   0  0  0  0  0  0  0  0  0  0  0  0
   56.1920   25.5700   44.4080 H   0  0  0  0  0  0  0  0  0  0  0  0
   55.6222   22.1316   45.2637 H   0  0  0  0  0  0  0  0  0  0  0  0
   55.7676   21.1071   47.5234 H   0  0  0  0  0  0  0  0  0  0  0  0
   57.5018   23.0118   52.4023 H   0  0  0  0  0  0  0  0  0  0  0  0
   57.8487   21.2542   52.2511 H   0  0  0  0  0  0  0  0  0  0  0  0
   58.9913   23.8284   53.9966 H   0  0  0  0  0  0  0  0  0  0  0  0
   61.3281   24.2764   54.7410 H   0  0  0  0  0  0  0  0  0  0  0  0
   63.2463   23.2006   53.5625 H   0  0  0  0  0  0  0  0  0  0  0  0
   62.8359   21.6996   51.6161 H   0  0  0  0  0  0  0  0  0  0  0  0
   59.6680   21.0930   50.0160 H   0  0  0  0  0  0  0  0  0  0  0  0
   57.5647   24.7308   49.0563 H   0  0  0  0  0  0  0  0  0  0  0  0
   58.9560   27.5228   45.3708 H   0  0  0  0  0  0  0  0  0  0  0  0
   57.9700   26.9831   43.9351 H   0  0  0  0  0  0  0  0  0  0  0  0
   56.1162   28.5462   43.0874 H   0  0  0  0  0  0  0  0  0  0  0  0
   55.6858   30.9284   42.4858 H   0  0  0  0  0  0  0  0  0  0  0  0
   57.0105   32.7499   43.5541 H   0  0  0  0  0  0  0  0  0  0  0  0
   58.1451   34.7942   47.2899 H   0  0  0  0  0  0  0  0  0  0  0  0
   59.1728   35.0347   49.2820 H   0  0  0  0  0  0  0  0  0  0  0  0
   59.2430   33.2109   49.1960 H   0  0  0  0  0  0  0  0  0  0  0  0
   61.4520   35.2393   48.9316 H   0  0  0  0  0  0  0  0  0  0  0  0
   61.4158   33.6346   49.7651 H   0  0  0  0  0  0  0  0  0  0  0  0
   63.4737   30.8146   48.8852 H   0  0  0  0  0  0  0  0  0  0  0  0
   63.2788   32.3716   49.8381 H   0  0  0  0  0  0  0  0  0  0  0  0
   61.6345   31.0518   50.7611 H   0  0  0  0  0  0  0  0  0  0  0  0
   60.7467   31.9573   49.4526 H   0  0  0  0  0  0  0  0  0  0  0  0
   60.7988   30.7250   47.0727 H   0  0  0  0  0  0  0  0  0  0  0  0
   60.0208   28.5758   46.0709 H   0  0  0  0  0  0  0  0  0  0  0  0
   59.8032   26.5374   47.4952 H   0  0  0  0  0  0  0  0  0  0  0  0
   60.3636   26.6422   49.9255 H   0  0  0  0  0  0  0  0  0  0  0  0
   61.1373   28.7901   50.9376 H   0  0  0  0  0  0  0  0  0  0  0  0
   62.2361   34.7955   46.0611 H   0  0  0  0  0  0  0  0  0  0  0  0
   61.3673   33.2560   45.6581 H   0  0  0  0  0  0  0  0  0  0  0  0
   60.2570   35.8876   46.6724 H   0  0  0  0  0  0  0  0  0  0  0  0
   59.6897   34.8188   45.3233 H   0  0  0  0  0  0  0  0  0  0  0  0
   59.3247   29.7992   45.7199 H   0  0  0  0  0  0  0  0  0  0  0  0
  1  2  2  0
  2  3  1  0
  2  4  1  0
  4  5  1  0
  5  6  1  0
  6  7  2  0
  7  8  1  0
  8  9  2  0
  9 10  1  0
 10 11  2  0
 10 12  1  0
 12 13  1  0
 13 14  1  0
 14 15  2  0
 15 16  1  0
 16 17  2  0
 17 18  1  0
 18 19  2  0
 19 20  1  0
  9 21  1  0
 21 22  2  0
 22 23  1  0
 23 24  1  0
 24 25  2  0
 24 26  1  0
 26 27  1  0
 27 28  2  0
 28 29  1  0
 29 30  2  0
 30 31  1  0
 31 32  1  0
 32 33  1  0
 33 34  2  0
 33 35  1  0
 35 36  1  0
 36 37  1  0
 37 38  1  0
 38 39  1  0
 39 40  2  0
 39 41  1  0
 41 42  1  0
 42 43  1  0
 43 44  2  0
 44 45  1  0
 45 46  2  0
 46 47  1  0
 47 48  2  0
 38 49  1  0
 49 50  1  0
 31 51  2  0
 22  6  1  0
 51 27  1  0
 19 14  1  0
 50 35  1  0
 48 43  1  0
  4 52  1  0
  4 53  1  0
  5 54  1  0
  7 55  1  0
  8 56  1  0
 13 57  1  0
 13 58  1  0
 15 59  1  0
 16 60  1  0
 17 61  1  0
 18 62  1  0
 20 63  1  0
 21 64  1  0
 26 65  1  0
 26 66  1  0
 28 67  1  0
 29 68  1  0
 30 69  1  0
 35 70  1  0
 36 71  1  0
 36 72  1  0
 37 73  1  0
 37 74  1  0
 41 75  1  0
 41 76  1  0
 42 77  1  0
 42 78  1  0
 44 79  1  0
 45 80  1  0
 46 81  1  0
 47 82  1  0
 48 83  1  0
 49 84  1  0
 49 85  1  0
 50 86  1  0
 50 87  1  0
 51 88  1  0
M  CHG  4   3  -1  12  -1  23  -1  32  -1
M  END
>  <UniqueID>  (17) 
15

>  <SMILES>  (17) 
O=C([O-])CNc1ccc(C(=O)[N-]Cc2ccccc2O)cc1[N-]C(=O)Cc1cccc([N-]C(=O)C2CCN(C(=O)CCc3ccccc3)CC2)c1

>  <Energy>  (17) 
105.15818877407071

>  <Genealogy>  (17) 
O=C([O-])CNc1ccc(C(=O)[N-]Cc2ccccc2O)cc1[N-]C(=O)Cc1cccc([N-]C(=O)C2CCN(C(=O)CCc3ccccc3)CC2)c1 (protonated)
O=C([O-])CNc1ccc(C(=O)[N-]Cc2ccccc2O)cc1[N-]C(=O)Cc1cccc([N-]C(=O)C2CCN(C(=O)CCc3ccccc3)CC2)c1 (3D coordinates assigned)
O=C([O-])CNc1ccc(C(=O)[N-]Cc2ccccc2O)cc1[N-]C(=O)Cc1cccc([N-]C(=O)C2CCN(C(=O)CCc3ccccc3)CC2)c1 (nonaromatic ring conformer: 105.15818877407071 kcal/mol)

>  <smiles>  (17) 
O=C(O)CNc1ccc(C(=O)NCc2ccccc2O)cc1NC(=O)Cc1cccc(NC(=O)C2CCN(C(=O)CCc3ccccc3)CC2)c1

>  <score_type>  (17) 
oracle

>  <origin>  (17) 
adg

>  <m_score__min__energy>  (17) 
-15.779999999999999

>  <m_primary>  (17) 
energy

$$$$
17:0
     RDKit          3D

 42 44  0  0  0  0  0  0  0  0999 V2000
   59.2290   35.1880   47.8090 O   0  0  0  0  0  0  0  0  0  0  0  0
   59.6010   34.4210   46.8790 C   0  0  0  0  0  0  0  0  0  0  0  0
   58.8540   34.3920   45.5680 C   0  0  0  0  0  0  0  0  0  0  0  0
   57.5150   33.6420   45.6540 C   0  0  0  0  0  0  0  0  0  0  0  0
   57.4430   32.5320   44.5830 C   0  0  0  0  0  0  0  0  0  0  0  0
   57.4010   31.1560   45.1290 N   0  0  0  0  0  0  0  0  0  0  0  0
   56.6820   30.2120   44.2610 C   0  0  0  0  0  0  0  0  0  0  0  0
   56.3450   28.9400   45.0400 C   0  0  0  0  0  0  0  0  0  0  0  0
   57.4810   28.4420   45.9140 C   0  0  0  0  0  0  0  0  0  0  0  0
   57.3770   27.1860   46.4010 C   0  0  0  0  0  0  0  0  0  0  0  0
   56.4160   26.1490   45.9640 C   0  0  0  0  0  0  0  0  0  0  0  0
   56.7550   24.9280   45.4960 N   0  0  0  0  0  0  0  0  0  0  0  0
   55.5770   24.3230   45.2750 C   0  0  0  0  0  0  0  0  0  0  0  0
   54.5590   25.1760   45.6190 C   0  0  0  0  0  0  0  0  0  0  0  0
   55.0810   26.3330   46.0630 N   0  0  0  0  0  0  0  0  0  0  0  0
   58.6090   29.3730   46.3270 C   0  0  0  0  0  0  0  0  0  0  0  0
   58.7330   30.6210   45.4480 C   0  0  0  0  0  0  0  0  0  0  0  0
   60.7740   33.5560   47.0920 C   0  0  0  0  0  0  0  0  0  0  0  0
   62.0980   33.8620   46.7860 C   0  0  0  0  0  0  0  0  0  0  0  0
   62.9910   32.8320   47.1060 C   0  0  0  0  0  0  0  0  0  0  0  0
   62.3800   31.7150   47.6610 C   0  0  0  0  0  0  0  0  0  0  0  0
   60.7280   32.0100   47.7540 S   0  0  0  0  0  0  0  0  0  0  0  0
   58.6558   35.4277   45.2549 H   0  0  0  0  0  0  0  0  0  0  0  0
   59.4843   33.8563   44.8429 H   0  0  0  0  0  0  0  0  0  0  0  0
   57.4183   33.1885   46.6515 H   0  0  0  0  0  0  0  0  0  0  0  0
   56.6970   34.3564   45.4793 H   0  0  0  0  0  0  0  0  0  0  0  0
   56.5352   32.6917   43.9827 H   0  0  0  0  0  0  0  0  0  0  0  0
   58.3673   32.6066   43.9914 H   0  0  0  0  0  0  0  0  0  0  0  0
   55.7516   30.6793   43.9060 H   0  0  0  0  0  0  0  0  0  0  0  0
   57.3193   29.9524   43.4029 H   0  0  0  0  0  0  0  0  0  0  0  0
   55.4766   29.1462   45.6830 H   0  0  0  0  0  0  0  0  0  0  0  0
   56.1405   28.1533   44.2988 H   0  0  0  0  0  0  0  0  0  0  0  0
   58.0766   26.9063   47.2024 H   0  0  0  0  0  0  0  0  0  0  0  0
   55.4484   23.3043   44.8804 H   0  0  0  0  0  0  0  0  0  0  0  0
   53.4853   24.9493   45.5435 H   0  0  0  0  0  0  0  0  0  0  0  0
   58.4310   29.6951   47.3636 H   0  0  0  0  0  0  0  0  0  0  0  0
   59.5469   28.8088   46.2168 H   0  0  0  0  0  0  0  0  0  0  0  0
   59.3124   31.3866   45.9848 H   0  0  0  0  0  0  0  0  0  0  0  0
   59.2428   30.3496   44.5118 H   0  0  0  0  0  0  0  0  0  0  0  0
   62.4106   34.8168   46.3380 H   0  0  0  0  0  0  0  0  0  0  0  0
   64.0753   32.9011   46.9339 H   0  0  0  0  0  0  0  0  0  0  0  0
   62.8897   30.7953   47.9841 H   0  0  0  0  0  0  0  0  0  0  0  0
  1  2  2  0
  2  3  1  0
  3  4  1  0
  4  5  1  0
  5  6  1  0
  6  7  1  0
  7  8  1  0
  8  9  1  0
  9 10  2  3
 10 11  1  0
 11 12  2  0
 12 13  1  0
 13 14  2  0
 14 15  1  0
  9 16  1  0
 16 17  1  0
  2 18  1  0
 18 19  2  0
 19 20  1  0
 20 21  2  0
 21 22  1  0
 17  6  1  0
 22 18  1  0
 15 11  1  0
  3 23  1  0
  3 24  1  0
  4 25  1  0
  4 26  1  0
  5 27  1  0
  5 28  1  0
  7 29  1  0
  7 30  1  0
  8 31  1  0
  8 32  1  0
 10 33  1  0
 13 34  1  0
 14 35  1  0
 16 36  1  0
 16 37  1  0
 17 38  1  0
 17 39  1  0
 19 40  1  0
 20 41  1  0
 21 42  1  0
M  CHG  1  15  -1
M  END
>  <UniqueID>  (18) 
16

>  <SMILES>  (18) 
O=C(CCCN1CCC(=Cc2ncc[n-]2)CC1)c1cccs1

>  <Energy>  (18) 
99.57558175926992

>  <Genealogy>  (18) 
O=C(CCCN1CCC(=Cc2ncc[n-]2)CC1)c1cccs1 (protonated)
O=C(CCCN1CCC(=Cc2ncc[n-]2)CC1)c1cccs1 (3D coordinates assigned)
O=C(CCCN1CCC(=Cc2ncc[n-]2)CC1)c1cccs1 (nonaromatic ring conformer: 99.57558175926992 kcal/mol)

>  <smiles>  (18) 
O=C(CCCN1CCC(=Cc2ncc[nH]2)CC1)c1cccs1

>  <score_type>  (18) 
oracle

>  <origin>  (18) 
adg

>  <m_score__min__energy>  (18) 
-9.8300000000000001

>  <m_primary>  (18) 
energy

$$$$
18:0
     RDKit          3D

 48 50  0  0  0  0  0  0  0  0999 V2000
   55.1350   26.4690   46.0100 N   0  0  0  0  0  0  0  0  0  0  0  0
   56.5080   26.7010   45.7040 C   0  0  0  0  0  0  0  0  0  0  0  0
   57.3060   25.7260   45.6580 O   0  0  0  0  0  0  0  0  0  0  0  0
   56.9800   28.0680   45.4240 C   0  0  0  0  0  0  0  0  0  0  0  0
   58.2680   28.4850   45.7940 C   0  0  0  0  0  0  0  0  0  0  0  0
   58.6830   29.7830   45.4940 C   0  0  0  0  0  0  0  0  0  0  0  0
   57.8240   30.6560   44.8180 C   0  0  0  0  0  0  0  0  0  0  0  0
   58.2390   32.0680   44.5190 C   0  0  0  0  0  0  0  0  0  0  0  0
   58.6260   32.7360   45.7570 N   0  0  0  0  0  0  0  0  0  0  0  0
   58.6770   34.1690   45.8840 C   0  0  0  0  0  0  0  0  0  0  0  0
   58.3040   34.8980   44.9260 O   0  0  0  0  0  0  0  0  0  0  0  0
   59.2100   34.7920   47.0630 N   0  0  0  0  0  0  0  0  0  0  0  0
   59.3420   34.1360   48.3300 C   0  0  0  0  0  0  0  0  0  0  0  0
   60.2280   34.5250   49.1370 O   0  0  0  0  0  0  0  0  0  0  0  0
   58.4460   33.0830   48.7090 N   0  0  0  0  0  0  0  0  0  0  0  0
   58.8480   31.9620   49.5120 C   0  0  0  0  0  0  0  0  0  0  0  0
   58.1510   31.6890   50.6990 C   0  0  0  0  0  0  0  0  0  0  0  0
   58.4870   30.5800   51.4810 C   0  0  0  0  0  0  0  0  0  0  0  0
   59.5170   29.7310   51.0800 C   0  0  0  0  0  0  0  0  0  0  0  0
   60.2080   29.9790   49.8920 C   0  0  0  0  0  0  0  0  0  0  0  0
   59.8640   31.0780   49.0840 C   0  0  0  0  0  0  0  0  0  0  0  0
   60.5320   31.3230   47.8750 O   0  0  0  0  0  0  0  0  0  0  0  0
   61.7280   32.0400   47.7250 C   0  0  0  0  0  0  0  0  0  0  0  0
   61.8890   33.0380   46.7440 C   0  0  0  0  0  0  0  0  0  0  0  0
   63.0980   33.7350   46.6410 C   0  0  0  0  0  0  0  0  0  0  0  0
   64.1450   33.4530   47.5210 C   0  0  0  0  0  0  0  0  0  0  0  0
   63.9830   32.4790   48.5110 C   0  0  0  0  0  0  0  0  0  0  0  0
   62.7760   31.7820   48.6180 C   0  0  0  0  0  0  0  0  0  0  0  0
   56.5400   30.2100   44.4830 C   0  0  0  0  0  0  0  0  0  0  0  0
   56.1540   28.9420   44.7860 N   0  0  0  0  0  0  0  0  0  0  0  0
   54.6270   27.0810   46.6900 H   0  0  0  0  0  0  0  0  0  0  0  0
   58.9454   27.7936   46.3167 H   0  0  0  0  0  0  0  0  0  0  0  0
   59.6874   30.1204   45.7896 H   0  0  0  0  0  0  0  0  0  0  0  0
   59.0924   32.0598   43.8250 H   0  0  0  0  0  0  0  0  0  0  0  0
   57.3971   32.6072   44.0602 H   0  0  0  0  0  0  0  0  0  0  0  0
   59.0830   32.1420   46.4820 H   0  0  0  0  0  0  0  0  0  0  0  0
   59.5630   35.7710   46.9800 H   0  0  0  0  0  0  0  0  0  0  0  0
   57.4500   33.1480   48.3990 H   0  0  0  0  0  0  0  0  0  0  0  0
   57.3336   32.3530   51.0167 H   0  0  0  0  0  0  0  0  0  0  0  0
   57.9385   30.3775   52.4127 H   0  0  0  0  0  0  0  0  0  0  0  0
   59.7863   28.8636   51.7006 H   0  0  0  0  0  0  0  0  0  0  0  0
   61.0265   29.3107   49.5861 H   0  0  0  0  0  0  0  0  0  0  0  0
   61.0619   33.2701   46.0569 H   0  0  0  0  0  0  0  0  0  0  0  0
   63.2238   34.5057   45.8662 H   0  0  0  0  0  0  0  0  0  0  0  0
   65.0971   33.9971   47.4353 H   0  0  0  0  0  0  0  0  0  0  0  0
   64.8066   32.2609   49.2067 H   0  0  0  0  0  0  0  0  0  0  0  0
   62.6485   31.0269   49.4077 H   0  0  0  0  0  0  0  0  0  0  0  0
   55.8405   30.8882   43.9725 H   0  0  0  0  0  0  0  0  0  0  0  0
  1  2  1  0
  2  3  2  0
  2  4  1  0
  4  5  2  0
  5  6  1  0
  6  7  2  0
  7  8  1  0
  8  9  1  0
  9 10  1  0
 10 11  2  0
 10 12  1  0
 12 13  1  0
 13 14  2  0
 13 15  1  0
 15 16  1  0
 16 17  2  0
 17 18  1  0
 18 19  2  0
 19 20  1  0
 20 21  2  0
 21 22  1  0
 22 23  1  0
 23 24  2  0
 24 25  1  0
 25 26  2  0
 26 27  1  0
 27 28  2  0
  7 29  1  0
 29 30  2  0
 30  4  1  0
 21 16  1  0
 28 23  1  0
  1 31  1  0
  5 32  1  0
  6 33  1  0
  8 34  1  0
  8 35  1  0
  9 36  1  0
 12 37  1  0
 15 38  1  0
 17 39  1  0
 18 40  1  0
 19 41  1  0
 20 42  1  0
 24 43  1  0
 25 44  1  0
 26 45  1  0
 27 46  1  0
 28 47  1  0
 29 48  1  0
M  CHG  1   1  -1
M  END
>  <UniqueID>  (19) 
17

>  <SMILES>  (19) 
[NH-]C(=O)c1ccc(CNC(=O)NC(=O)Nc2ccccc2Oc2ccccc2)cn1

>  <Energy>  (19) 
58.488591771538864

>  <Genealogy>  (19) 
[NH-]C(=O)c1ccc(CNC(=O)NC(=O)Nc2ccccc2Oc2ccccc2)cn1 (protonated)
[NH-]C(=O)c1ccc(CNC(=O)NC(=O)Nc2ccccc2Oc2ccccc2)cn1 (3D coordinates assigned)
[NH-]C(=O)c1ccc(CNC(=O)NC(=O)Nc2ccccc2Oc2ccccc2)cn1 (optimized conformer: 58.488591771538864 kcal/mol)

>  <smiles>  (19) 
NC(=O)c1ccc(CNC(=O)NC(=O)Nc2ccccc2Oc2ccccc2)cn1

>  <score_type>  (19) 
oracle

>  <origin>  (19) 
adg

>  <m_score__min__energy>  (19) 
-11.67

>  <m_primary>  (19) 
energy

$$$$
19:0
     RDKit          3D

 43 45  0  0  0  0  0  0  0  0999 V2000
   60.1120   32.4630   50.4630 C   0  0  0  0  0  0  0  0  0  0  0  0
   60.8160   32.1580   49.1670 C   0  0  0  0  0  0  0  0  0  0  0  0
   61.8890   32.9640   48.7610 C   0  0  0  0  0  0  0  0  0  0  0  0
   62.5440   32.6830   47.5610 C   0  0  0  0  0  0  0  0  0  0  0  0
   63.5090   33.4020   47.1890 O   0  0  0  0  0  0  0  0  0  0  0  0
   62.1570   31.6630   46.8050 O   0  0  0  0  0  0  0  0  0  0  0  0
   61.1470   30.8650   47.1390 C   0  0  0  0  0  0  0  0  0  0  0  0
   60.7990   29.8090   46.2910 C   0  0  0  0  0  0  0  0  0  0  0  0
   59.7440   28.9500   46.6140 C   0  0  0  0  0  0  0  0  0  0  0  0
   59.4440   27.9040   45.7250 O   0  0  0  0  0  0  0  0  0  0  0  0
   58.1310   27.5090   45.3280 C   0  0  0  0  0  0  0  0  0  0  0  0
   57.2770   28.7090   45.0500 C   0  0  0  0  0  0  0  0  0  0  0  0
   56.0330   28.6400   45.2450 O   0  0  0  0  0  0  0  0  0  0  0  0
   57.8830   29.9300   44.5960 N   0  0  0  0  0  0  0  0  0  0  0  0
   57.1460   31.1190   44.2650 C   0  0  0  0  0  0  0  0  0  0  0  0
   55.8900   31.1510   44.3740 O   0  0  0  0  0  0  0  0  0  0  0  0
   57.8740   32.3520   43.8280 C   0  0  0  0  0  0  0  0  0  0  0  0
   58.3130   33.1460   45.0270 C   0  0  0  0  0  0  0  0  0  0  0  0
   57.8440   32.8070   46.3080 C   0  0  0  0  0  0  0  0  0  0  0  0
   58.2770   33.5240   47.4280 C   0  0  0  0  0  0  0  0  0  0  0  0
   59.1850   34.5770   47.2780 C   0  0  0  0  0  0  0  0  0  0  0  0
   59.6640   34.9110   46.0090 C   0  0  0  0  0  0  0  0  0  0  0  0
   59.2350   34.1970   44.8860 C   0  0  0  0  0  0  0  0  0  0  0  0
   59.0250   29.1620   47.8060 C   0  0  0  0  0  0  0  0  0  0  0  0
   59.3650   30.2150   48.6600 C   0  0  0  0  0  0  0  0  0  0  0  0
   60.4290   31.0780   48.3390 C   0  0  0  0  0  0  0  0  0  0  0  0
   60.7595   32.1825   51.3068 H   0  0  0  0  0  0  0  0  0  0  0  0
   59.8882   33.5388   50.5144 H   0  0  0  0  0  0  0  0  0  0  0  0
   59.1741   31.8905   50.5144 H   0  0  0  0  0  0  0  0  0  0  0  0
   62.2121   33.8114   49.3835 H   0  0  0  0  0  0  0  0  0  0  0  0
   61.3618   29.6522   45.3589 H   0  0  0  0  0  0  0  0  0  0  0  0
   58.1985   26.8954   44.4176 H   0  0  0  0  0  0  0  0  0  0  0  0
   57.6737   26.9316   46.1450 H   0  0  0  0  0  0  0  0  0  0  0  0
   58.9230   29.9530   44.4950 H   0  0  0  0  0  0  0  0  0  0  0  0
   58.7574   32.0634   43.2396 H   0  0  0  0  0  0  0  0  0  0  0  0
   57.2007   32.9690   43.2149 H   0  0  0  0  0  0  0  0  0  0  0  0
   57.1344   31.9754   46.4299 H   0  0  0  0  0  0  0  0  0  0  0  0
   57.9029   33.2594   48.4280 H   0  0  0  0  0  0  0  0  0  0  0  0
   59.5220   35.1423   48.1594 H   0  0  0  0  0  0  0  0  0  0  0  0
   60.3804   35.7377   45.8929 H   0  0  0  0  0  0  0  0  0  0  0  0
   59.6203   34.4587   43.8895 H   0  0  0  0  0  0  0  0  0  0  0  0
   58.1904   28.4946   48.0668 H   0  0  0  0  0  0  0  0  0  0  0  0
   58.7970   30.3701   49.5892 H   0  0  0  0  0  0  0  0  0  0  0  0
  1  2  1  0
  2  3  2  0
  3  4  1  0
  4  5  2  0
  4  6  1  0
  6  7  1  0
  7  8  2  0
  8  9  1  0
  9 10  1  0
 10 11  1  0
 11 12  1  0
 12 13  2  0
 12 14  1  0
 14 15  1  0
 15 16  2  0
 15 17  1  0
 17 18  1  0
 18 19  2  0
 19 20  1  0
 20 21  2  0
 21 22  1  0
 22 23  2  0
  9 24  2  0
 24 25  1  0
 25 26  2  0
 26  2  1  0
 26  7  1  0
 23 18  1  0
  1 27  1  0
  1 28  1  0
  1 29  1  0
  3 30  1  0
  8 31  1  0
 11 32  1  0
 11 33  1  0
 14 34  1  0
 17 35  1  0
 17 36  1  0
 19 37  1  0
 20 38  1  0
 21 39  1  0
 22 40  1  0
 23 41  1  0
 24 42  1  0
 25 43  1  0
M  END
>  <UniqueID>  (20) 
18

>  <SMILES>  (20) 
Cc1cc(=O)oc2cc(OCC(=O)NC(=O)Cc3ccccc3)ccc12

>  <Energy>  (20) 
47.530007782958656

>  <Genealogy>  (20) 
Cc1cc(=O)oc2cc(OCC(=O)NC(=O)Cc3ccccc3)ccc12 (3D coordinates assigned)
Cc1cc(=O)oc2cc(OCC(=O)NC(=O)Cc3ccccc3)ccc12 (optimized conformer: 47.530007782958656 kcal/mol)

>  <smiles>  (20) 
Cc1cc(=O)oc2cc(OCC(=O)NC(=O)Cc3ccccc3)ccc12

>  <score_type>  (20) 
oracle

>  <origin>  (20) 
adg

>  <m_score__min__energy>  (20) 
-8.5999999999999996

>  <m_primary>  (20) 
energy

$$$$
20:0
     RDKit          3D

 78 83  0  0  0  0  0  0  0  0999 V2000
   55.8380   28.0240   44.7290 H   0  0  0  0  0  0  0  0  0  0  0  0
   56.0110   29.0530   44.7610 N   0  0  0  0  0  0  0  0  0  0  0  0
   56.9980   29.6110   45.3940 C   0  0  0  0  0  0  0  0  0  0  0  0
   57.0870   30.9670   45.3780 N   0  0  0  0  0  0  0  0  0  0  0  0
   58.0490   31.6440   46.0560 C   0  0  0  0  0  0  0  0  0  0  0  0
   58.0919   32.7415   45.9957 H   0  0  0  0  0  0  0  0  0  0  0  0
   58.9860   30.9520   46.8310 C   0  0  0  0  0  0  0  0  0  0  0  0
   60.0190   31.6820   47.6000 C   0  0  0  0  0  0  0  0  0  0  0  0
   59.6470   32.4960   48.7040 C   0  0  0  0  0  0  0  0  0  0  0  0
   58.5898   32.5573   49.0014 H   0  0  0  0  0  0  0  0  0  0  0  0
   60.6130   33.2240   49.4210 C   0  0  0  0  0  0  0  0  0  0  0  0
   60.3284   33.8664   50.2674 H   0  0  0  0  0  0  0  0  0  0  0  0
   61.9430   33.1040   49.0230 C   0  0  0  0  0  0  0  0  0  0  0  0
   62.3060   32.3150   47.9670 C   0  0  0  0  0  0  0  0  0  0  0  0
   61.3790   31.5940   47.2250 C   0  0  0  0  0  0  0  0  0  0  0  0
   61.6934   30.9741   46.3724 H   0  0  0  0  0  0  0  0  0  0  0  0
   63.6660   32.4850   47.8160 C   0  0  0  0  0  0  0  0  0  0  0  0
   64.3016   31.9976   47.0621 H   0  0  0  0  0  0  0  0  0  0  0  0
   64.0770   33.3590   48.7620 N   0  0  0  0  0  0  0  0  0  0  0  0
   65.0490   33.7270   48.8730 H   0  0  0  0  0  0  0  0  0  0  0  0
   63.0370   33.7330   49.5000 N   0  0  0  0  0  0  0  0  0  0  0  0
   63.0930   34.7890   50.5120 C   0  0  0  0  0  0  0  0  0  0  0  0
   63.4131   35.7277   50.0363 H   0  0  0  0  0  0  0  0  0  0  0  0
   62.0931   34.9058   50.9552 H   0  0  0  0  0  0  0  0  0  0  0  0
   64.0830   34.4260   51.6230 C   0  0  0  0  0  0  0  0  0  0  0  0
   64.3192   35.3268   52.2085 H   0  0  0  0  0  0  0  0  0  0  0  0
   63.6297   33.6644   52.2745 H   0  0  0  0  0  0  0  0  0  0  0  0
   65.3280   33.8830   51.0370 N   0  0  0  0  0  0  0  0  0  0  0  0
   65.4510   32.4290   51.2460 C   0  0  0  0  0  0  0  0  0  0  0  0
   65.5191   32.2196   52.3237 H   0  0  0  0  0  0  0  0  0  0  0  0
   64.5678   31.9260   50.8253 H   0  0  0  0  0  0  0  0  0  0  0  0
   66.7200   31.9040   50.5410 C   0  0  0  0  0  0  0  0  0  0  0  0
   67.3172   31.3319   51.2664 H   0  0  0  0  0  0  0  0  0  0  0  0
   66.4014   31.2729   49.6983 H   0  0  0  0  0  0  0  0  0  0  0  0
   67.5170   32.9540   50.0210 O   0  0  0  0  0  0  0  0  0  0  0  0
   67.8130   33.8830   51.0450 C   0  0  0  0  0  0  0  0  0  0  0  0
   68.2977   33.3559   51.8800 H   0  0  0  0  0  0  0  0  0  0  0  0
   68.4823   34.6543   50.6361 H   0  0  0  0  0  0  0  0  0  0  0  0
   66.5280   34.5680   51.5580 C   0  0  0  0  0  0  0  0  0  0  0  0
   66.5147   34.5337   52.6574 H   0  0  0  0  0  0  0  0  0  0  0  0
   66.5196   35.6110   51.2087 H   0  0  0  0  0  0  0  0  0  0  0  0
   58.9250   29.5530   46.8630 C   0  0  0  0  0  0  0  0  0  0  0  0
   59.6508   28.9914   47.4694 H   0  0  0  0  0  0  0  0  0  0  0  0
   57.9480   28.8580   46.1300 C   0  0  0  0  0  0  0  0  0  0  0  0
   57.9800   27.3750   46.1260 C   0  0  0  0  0  0  0  0  0  0  0  0
   59.0770   26.6870   45.5820 C   0  0  0  0  0  0  0  0  0  0  0  0
   59.9025   27.2504   45.1225 H   0  0  0  0  0  0  0  0  0  0  0  0
   59.1260   25.2910   45.6210 C   0  0  0  0  0  0  0  0  0  0  0  0
   59.9715   24.7604   45.1589 H   0  0  0  0  0  0  0  0  0  0  0  0
   58.1000   24.5600   46.2480 C   0  0  0  0  0  0  0  0  0  0  0  0
   58.1470   23.0820   46.3020 C   0  0  0  0  0  0  0  0  0  0  0  0
   59.0420   22.4700   45.6610 O   0  0  0  0  0  0  0  0  0  0  0  0
   57.2160   22.3140   47.0740 N   0  0  0  0  0  0  0  0  0  0  0  0
   55.7620   22.4290   46.9930 C   0  0  0  0  0  0  0  0  0  0  0  0
   55.2986   21.6618   47.6307 H   0  0  0  0  0  0  0  0  0  0  0  0
   55.4564   23.4286   47.3356 H   0  0  0  0  0  0  0  0  0  0  0  0
   55.3050   22.2280   45.5370 C   0  0  1  0  0  0  0  0  0  0  0  0
   54.3632   21.6631   45.5989 H   0  0  0  0  0  0  0  0  0  0  0  0
   55.1200   23.5050   44.8580 N   0  0  0  0  0  0  0  0  0  0  0  0
   54.0940   24.4570   45.2110 C   0  0  0  0  0  0  0  0  0  0  0  0
   54.4100   25.6060   45.6260 O   0  0  0  0  0  0  0  0  0  0  0  0
   52.6420   24.0960   45.1230 C   0  0  0  0  0  0  0  0  0  0  0  0
   52.2277   23.9930   46.1368 H   0  0  0  0  0  0  0  0  0  0  0  0
   52.0996   24.8866   44.5838 H   0  0  0  0  0  0  0  0  0  0  0  0
   52.5330   23.1434   44.5838 H   0  0  0  0  0  0  0  0  0  0  0  0
   55.9030   23.6070   43.6360 C   0  0  0  0  0  0  0  0  0  0  0  0
   56.7087   24.3456   43.7592 H   0  0  0  0  0  0  0  0  0  0  0  0
   55.2844   23.9365   42.7882 H   0  0  0  0  0  0  0  0  0  0  0  0
   56.4870   22.2240   43.3940 C   0  0  0  0  0  0  0  0  0  0  0  0
   57.5451   22.3022   43.1035 H   0  0  0  0  0  0  0  0  0  0  0  0
   55.9610   21.7033   42.5803 H   0  0  0  0  0  0  0  0  0  0  0  0
   56.3550   21.4700   44.7140 C   0  0  0  0  0  0  0  0  0  0  0  0
   57.3188   21.4576   45.2441 H   0  0  0  0  0  0  0  0  0  0  0  0
   56.0569   20.4239   44.5500 H   0  0  0  0  0  0  0  0  0  0  0  0
   56.9970   25.2490   46.7810 C   0  0  0  0  0  0  0  0  0  0  0  0
   56.1721   24.6865   47.2426 H   0  0  0  0  0  0  0  0  0  0  0  0
   56.9420   26.6450   46.7280 C   0  0  0  0  0  0  0  0  0  0  0  0
   56.0805   27.1749   47.1604 H   0  0  0  0  0  0  0  0  0  0  0  0
  1  2  1  0
  2  3  2  0
  3  4  1  0
  4  5  1  0
  5  6  1  0
  5  7  2  0
  7  8  1  0
  8  9  2  0
  9 10  1  0
  9 11  1  0
 11 12  1  0
 11 13  2  0
 13 14  1  0
 14 15  2  0
 15 16  1  0
 14 17  1  0
 17 18  1  0
 17 19  2  0
 19 20  1  0
 19 21  1  0
 21 22  1  0
 22 23  1  0
 22 24  1  0
 22 25  1  0
 25 26  1  0
 25 27  1  0
 25 28  1  0
 28 29  1  0
 29 30  1  0
 29 31  1  0
 29 32  1  0
 32 33  1  0
 32 34  1  0
 32 35  1  0
 35 36  1  0
 36 37  1  0
 36 38  1  0
 36 39  1  0
 39 40  1  0
 39 41  1  0
  7 42  1  0
 42 43  1  0
 42 44  2  0
 44 45  1  0
 45 46  2  0
 46 47  1  0
 46 48  1  0
 48 49  1  0
 48 50  2  0
 50 51  1  0
 51 52  2  0
 51 53  1  0
 53 54  1  0
 54 55  1  0
 54 56  1  0
 54 57  1  0
 57 58  1  1
 57 59  1  0
 59 60  1  0
 60 61  2  0
 60 62  1  0
 62 63  1  0
 62 64  1  0
 62 65  1  0
 59 66  1  0
 66 67  1  0
 66 68  1  0
 66 69  1  0
 69 70  1  0
 69 71  1  0
 69 72  1  0
 72 73  1  0
 72 74  1  0
 50 75  1  0
 75 76  1  0
 75 77  2  0
 77 78  1  0
 44  3  1  0
 77 45  1  0
 15  8  1  0
 39 28  1  0
 72 57  1  0
 21 13  1  0
M  CHG  3   4  -1  19   1  53  -1
M  END
>  <UniqueID>  (21) 
19

>  <SMILES>  (21) 
[H]/N=c1/[n-]cc(-c2ccc3c(c[nH+]n3CCN3CCOCC3)c2)cc1-c1ccc(C(=O)[N-]C[C@@H]2CCCN2C(C)=O)cc1

>  <Energy>  (21) 
148.05605458028174

>  <Genealogy>  (21) 
CC(=O)N1CCCC1C[N-]C(=O)c1ccc(-c2cc(-c3ccc4c(c[nH+]n4CCN4CCOCC4)c3)c[n-]c2=N)cc1 (protonated)
CC(=O)N1CCC[C@H]1C[N-]C(=O)c1ccc(-c2cc(-c3ccc4c(c[nH+]n4CCN4CCOCC4)c3)c[n-]c2=N)cc1 (chirality)
[H]/N=c1/[n-]cc(-c2ccc3c(c[nH+]n3CCN3CCOCC3)c2)cc1-c1ccc(C(=O)[N-]C[C@@H]2CCCN2C(C)=O)cc1 (cis-trans isomerization)
[H]/N=c1/[n-]cc(-c2ccc3c(c[nH+]n3CCN3CCOCC3)c2)cc1-c1ccc(C(=O)[N-]C[C@@H]2CCCN2C(C)=O)cc1 (3D coordinates assigned)
[H]/N=c1/[n-]cc(-c2ccc3c(c[nH+]n3CCN3CCOCC3)c2)cc1-c1ccc(C(=O)[N-]C[C@@H]2CCCN2C(C)=O)cc1 (nonaromatic ring conformer: 148.05605458028174 kcal/mol)

>  <smiles>  (21) 
CC(=O)N1CCCC1CNC(=O)c1ccc(-c2cc(-c3ccc4c(cnn4CCN4CCOCC4)c3)c[nH]c2=N)cc1

>  <score_type>  (21) 
oracle

>  <origin>  (21) 
adg

>  <m_score__min__energy>  (21) 
-12.640000000000001

>  <m_primary>  (21) 
energy

$$$$
21:0
     RDKit          3D

 71 75  0  0  0  0  0  0  0  0999 V2000
   58.9890   34.1740   44.1680 C   0  0  0  0  0  0  0  0  0  0  0  0
   58.2130   32.9770   43.7100 C   0  0  0  0  0  0  0  0  0  0  0  0
   58.3360   32.3920   42.4720 C   0  0  0  0  0  0  0  0  0  0  0  0
   57.5580   31.2960   42.4190 N   0  0  0  0  0  0  0  0  0  0  0  0
   56.9720   31.2300   43.6350 C   0  0  0  0  0  0  0  0  0  0  0  0
   56.0240   30.1460   43.9600 C   0  0  0  0  0  0  0  0  0  0  0  0
   55.1970   29.7270   43.1090 O   0  0  0  0  0  0  0  0  0  0  0  0
   56.0890   29.5310   45.2480 N   0  0  0  0  0  0  0  0  0  0  0  0
   57.4770   28.6580   45.8080 S   0  0  0  0  0  0  0  0  0  0  0  0
   57.7870   29.1100   47.2080 O   0  0  0  0  0  0  0  0  0  0  0  0
   58.6450   28.9710   44.9170 O   0  0  0  0  0  0  0  0  0  0  0  0
   57.1780   26.9150   45.7620 C   0  0  0  0  0  0  0  0  0  0  0  0
   55.8760   26.4380   45.9830 C   0  0  0  0  0  0  0  0  0  0  0  0
   55.6160   25.0650   45.9910 C   0  0  0  0  0  0  0  0  0  0  0  0
   56.6500   24.1580   45.7620 C   0  0  0  0  0  0  0  0  0  0  0  0
   57.9470   24.6210   45.5200 C   0  0  0  0  0  0  0  0  0  0  0  0
   58.2250   26.0020   45.5250 C   0  0  0  0  0  0  0  0  0  0  0  0
   59.5140   26.4850   45.2520 O   0  0  0  0  0  0  0  0  0  0  0  0
   60.4780   26.7990   46.2190 C   0  0  0  0  0  0  0  0  0  0  0  0
   60.2790   27.9300   47.0630 N   0  0  0  0  0  0  0  0  0  0  0  0
   61.4920   26.0670   46.3890 O   0  0  0  0  0  0  0  0  0  0  0  0
   57.3580   32.2440   44.4590 N   0  0  0  0  0  0  0  0  0  0  0  0
   57.0670   32.4330   45.8900 C   0  0  0  0  0  0  0  0  0  0  0  0
   58.3120   32.2340   46.7170 C   0  0  0  0  0  0  0  0  0  0  0  0
   58.4210   32.8160   47.9900 C   0  0  0  0  0  0  0  0  0  0  0  0
   59.5420   32.5730   48.7850 C   0  0  0  0  0  0  0  0  0  0  0  0
   60.5610   31.7270   48.3290 C   0  0  0  0  0  0  0  0  0  0  0  0
   61.7020   31.4260   49.2100 C   0  0  0  0  0  0  0  0  0  0  0  0
   62.7670   32.3440   49.2450 C   0  0  0  0  0  0  0  0  0  0  0  0
   63.8570   32.1340   50.0900 C   0  0  0  0  0  0  0  0  0  0  0  0
   63.8970   31.0090   50.9120 C   0  0  0  0  0  0  0  0  0  0  0  0
   62.8440   30.0900   50.8940 C   0  0  0  0  0  0  0  0  0  0  0  0
   61.7380   30.2840   50.0500 C   0  0  0  0  0  0  0  0  0  0  0  0
   60.4460   29.0690   50.1170 S   0  0  0  0  0  0  0  0  0  0  0  0
   61.0700   27.7080   49.9980 O   0  0  0  0  0  0  0  0  0  0  0  0
   59.4300   29.2290   49.0210 O   0  0  0  0  0  0  0  0  0  0  0  0
   59.6390   29.1860   51.6470 N   0  0  0  0  0  0  0  0  0  0  0  0
   58.5300   30.0550   51.9000 C   0  0  0  0  0  0  0  0  0  0  0  0
   57.3690   29.5660   51.9400 O   0  0  0  0  0  0  0  0  0  0  0  0
   58.7060   31.5030   52.1230 C   0  0  0  0  0  0  0  0  0  0  0  0
   57.5910   32.3500   52.1670 C   0  0  0  0  0  0  0  0  0  0  0  0
   57.7780   33.7210   52.3600 C   0  0  0  0  0  0  0  0  0  0  0  0
   59.0330   34.2260   52.4970 N   0  0  0  0  0  0  0  0  0  0  0  0
   60.1320   33.4280   52.4410 C   0  0  0  0  0  0  0  0  0  0  0  0
   59.9900   32.0530   52.2450 C   0  0  0  0  0  0  0  0  0  0  0  0
   60.4840   31.1840   47.0390 C   0  0  0  0  0  0  0  0  0  0  0  0
   59.3630   31.4330   46.2390 C   0  0  0  0  0  0  0  0  0  0  0  0
   59.0064   34.2009   45.2675 H   0  0  0  0  0  0  0  0  0  0  0  0
   60.0188   34.1114   43.7864 H   0  0  0  0  0  0  0  0  0  0  0  0
   58.5115   35.0885   43.7864 H   0  0  0  0  0  0  0  0  0  0  0  0
   58.9709   32.7620   41.6534 H   0  0  0  0  0  0  0  0  0  0  0  0
   55.0547   27.1502   46.1511 H   0  0  0  0  0  0  0  0  0  0  0  0
   54.5954   24.6997   46.1780 H   0  0  0  0  0  0  0  0  0  0  0  0
   56.4452   23.0773   45.7717 H   0  0  0  0  0  0  0  0  0  0  0  0
   58.7560   23.9018   45.3243 H   0  0  0  0  0  0  0  0  0  0  0  0
   59.4450   28.5430   46.9260 H   0  0  0  0  0  0  0  0  0  0  0  0
   60.9550   28.1480   47.8310 H   0  0  0  0  0  0  0  0  0  0  0  0
   56.6864   33.4526   46.0497 H   0  0  0  0  0  0  0  0  0  0  0  0
   56.3146   31.6925   46.1991 H   0  0  0  0  0  0  0  0  0  0  0  0
   57.6175   33.4679   48.3633 H   0  0  0  0  0  0  0  0  0  0  0  0
   59.6257   33.0478   49.7737 H   0  0  0  0  0  0  0  0  0  0  0  0
   62.7403   33.2351   48.6006 H   0  0  0  0  0  0  0  0  0  0  0  0
   64.6858   32.8570   50.1076 H   0  0  0  0  0  0  0  0  0  0  0  0
   64.7585   30.8442   51.5758 H   0  0  0  0  0  0  0  0  0  0  0  0
   62.8818   29.2059   51.5474 H   0  0  0  0  0  0  0  0  0  0  0  0
   56.5772   31.9392   52.0506 H   0  0  0  0  0  0  0  0  0  0  0  0
   56.9083   34.3932   52.4012 H   0  0  0  0  0  0  0  0  0  0  0  0
   61.1350   33.8663   52.5503 H   0  0  0  0  0  0  0  0  0  0  0  0
   60.8781   31.4065   52.1868 H   0  0  0  0  0  0  0  0  0  0  0  0
   61.3056   30.5615   46.6550 H   0  0  0  0  0  0  0  0  0  0  0  0
   59.3043   30.9991   45.2299 H   0  0  0  0  0  0  0  0  0  0  0  0
  1  2  1  0
  2  3  2  0
  3  4  1  0
  4  5  2  0
  5  6  1  0
  6  7  2  0
  6  8  1  0
  8  9  1  0
  9 10  2  0
  9 11  2  0
  9 12  1  0
 12 13  2  0
 13 14  1  0
 14 15  2  0
 15 16  1  0
 16 17  2  0
 17 18  1  0
 18 19  1  0
 19 20  1  0
 19 21  2  0
  5 22  1  0
 22 23  1  0
 23 24  1  0
 24 25  2  0
 25 26  1  0
 26 27  2  0
 27 28  1  0
 28 29  2  0
 29 30  1  0
 30 31  2  0
 31 32  1  0
 32 33  2  0
 33 34  1  0
 34 35  2  0
 34 36  2  0
 34 37  1  0
 37 38  1  0
 38 39  2  0
 38 40  1  0
 40 41  2  0
 41 42  1  0
 42 43  2  0
 43 44  1  0
 44 45  2  0
 27 46  1  0
 46 47  2  0
 22  2  1  0
 47 24  1  0
 17 12  1  0
 33 28  1  0
 45 40  1  0
  1 48  1  0
  1 49  1  0
  1 50  1  0
  3 51  1  0
 13 52  1  0
 14 53  1  0
 15 54  1  0
 16 55  1  0
 20 56  1  0
 20 57  1  0
 23 58  1  0
 23 59  1  0
 25 60  1  0
 26 61  1  0
 29 62  1  0
 30 63  1  0
 31 64  1  0
 32 65  1  0
 41 66  1  0
 42 67  1  0
 44 68  1  0
 45 69  1  0
 46 70  1  0
 47 71  1  0
M  CHG  2   8  -1  37  -1
M  END
>  <UniqueID>  (22) 
20

>  <SMILES>  (22) 
Cc1cnc(C(=O)[N-]S(=O)(=O)c2ccccc2OC(N)=O)n1Cc1ccc(-c2ccccc2S(=O)(=O)[N-]C(=O)c2ccncc2)cc1

>  <Energy>  (22) 
127.53370818531039

>  <Genealogy>  (22) 
Cc1cnc(C(=O)[N-]S(=O)(=O)c2ccccc2OC(N)=O)n1Cc1ccc(-c2ccccc2S(=O)(=O)[N-]C(=O)c2ccncc2)cc1 (protonated)
Cc1cnc(C(=O)[N-]S(=O)(=O)c2ccccc2OC(N)=O)n1Cc1ccc(-c2ccccc2S(=O)(=O)[N-]C(=O)c2ccncc2)cc1 (3D coordinates assigned)
Cc1cnc(C(=O)[N-]S(=O)(=O)c2ccccc2OC(N)=O)n1Cc1ccc(-c2ccccc2S(=O)(=O)[N-]C(=O)c2ccncc2)cc1 (optimized conformer: 127.53370818531039 kcal/mol)

>  <smiles>  (22) 
Cc1cnc(C(=O)NS(=O)(=O)c2ccccc2OC(N)=O)n1Cc1ccc(-c2ccccc2S(=O)(=O)NC(=O)c2ccncc2)cc1

>  <score_type>  (22) 
oracle

>  <origin>  (22) 
adg

>  <m_score__min__energy>  (22) 
-13.65

>  <m_primary>  (22) 
energy

$$$$
22:0
     RDKit          3D

 64 67  0  0  0  0  0  0  0  0999 V2000
   60.5570   27.4280   48.8910 C   0  0  0  0  0  0  0  0  0  0  0  0
   59.6970   28.3130   48.3940 C   0  0  0  0  0  0  0  0  0  0  0  0
   58.8710   28.0600   47.1830 C   0  0  0  0  0  0  0  0  0  0  0  0
   57.8050   27.1390   47.2350 C   0  0  0  0  0  0  0  0  0  0  0  0
   57.0500   26.8380   46.0890 C   0  0  0  0  0  0  0  0  0  0  0  0
   55.9330   25.8730   46.1550 C   0  0  0  0  0  0  0  0  0  0  0  0
   54.7480   26.2640   45.9520 O   0  0  0  0  0  0  0  0  0  0  0  0
   56.1940   24.4950   46.4500 N   0  0  0  0  0  0  0  0  0  0  0  0
   56.6370   23.5370   45.4820 C   0  0  0  0  0  0  0  0  0  0  0  0
   57.8440   22.8620   45.7090 C   0  0  0  0  0  0  0  0  0  0  0  0
   58.3140   21.9200   44.7880 C   0  0  0  0  0  0  0  0  0  0  0  0
   57.5800   21.6450   43.6340 C   0  0  0  0  0  0  0  0  0  0  0  0
   56.3610   22.2900   43.4090 C   0  0  0  0  0  0  0  0  0  0  0  0
   55.8700   23.2280   44.3330 C   0  0  0  0  0  0  0  0  0  0  0  0
   54.5620   23.7760   44.1390 N   0  0  0  0  0  0  0  0  0  0  0  0
   57.3800   27.4510   44.8740 C   0  0  0  0  0  0  0  0  0  0  0  0
   58.4580   28.3340   44.7980 C   0  0  0  0  0  0  0  0  0  0  0  0
   59.2030   28.6580   45.9420 C   0  0  0  0  0  0  0  0  0  0  0  0
   60.2970   29.6420   45.8120 C   0  0  0  0  0  0  0  0  0  0  0  0
   61.3780   29.3050   45.2510 O   0  0  0  0  0  0  0  0  0  0  0  0
   60.0930   30.9960   46.2330 N   0  0  0  0  0  0  0  0  0  0  0  0
   60.7970   31.6220   47.3120 C   0  0  0  0  0  0  0  0  0  0  0  0
   62.2010   31.6390   47.3520 C   0  0  0  0  0  0  0  0  0  0  0  0
   62.8640   32.2400   48.4230 C   0  0  0  0  0  0  0  0  0  0  0  0
   62.1330   32.8410   49.4540 C   0  0  0  0  0  0  0  0  0  0  0  0
   60.7290   32.8380   49.4210 C   0  0  0  0  0  0  0  0  0  0  0  0
   59.9350   33.5140   50.5060 C   0  0  0  0  0  0  0  0  0  0  0  0
   59.8100   32.6300   51.6850 N   0  0  0  0  0  0  0  0  0  0  0  0
   60.4850   31.3280   51.4820 C   0  0  0  0  0  0  0  0  0  0  0  0
   59.6770   30.1180   51.9800 C   0  0  0  0  0  0  0  0  0  0  0  0
   58.5090   29.7080   51.0670 C   0  0  0  0  0  0  0  0  0  0  0  0
   57.2740   30.4630   51.3330 N   0  0  0  0  0  0  0  0  0  0  0  0
   57.3670   31.9410   51.2820 C   0  0  0  0  0  0  0  0  0  0  0  0
   58.4190   32.5890   52.2170 C   0  0  0  0  0  0  0  0  0  0  0  0
   60.0680   32.1980   48.3610 C   0  0  0  0  0  0  0  0  0  0  0  0
   61.1404   27.6734   49.7907 H   0  0  0  0  0  0  0  0  0  0  0  0
   60.6847   26.4508   48.4023 H   0  0  0  0  0  0  0  0  0  0  0  0
   59.5913   29.2815   48.9047 H   0  0  0  0  0  0  0  0  0  0  0  0
   57.5603   26.6480   48.1884 H   0  0  0  0  0  0  0  0  0  0  0  0
   58.4259   23.0745   46.6180 H   0  0  0  0  0  0  0  0  0  0  0  0
   59.2630   21.3957   44.9738 H   0  0  0  0  0  0  0  0  0  0  0  0
   57.9613   20.9195   42.9003 H   0  0  0  0  0  0  0  0  0  0  0  0
   55.7817   22.0619   42.5022 H   0  0  0  0  0  0  0  0  0  0  0  0
   53.9130   23.3600   43.4310 H   0  0  0  0  0  0  0  0  0  0  0  0
   54.1850   24.5290   44.7530 H   0  0  0  0  0  0  0  0  0  0  0  0
   56.7858   27.2352   43.9738 H   0  0  0  0  0  0  0  0  0  0  0  0
   58.7269   28.7813   43.8297 H   0  0  0  0  0  0  0  0  0  0  0  0
   62.7790   31.1778   46.5377 H   0  0  0  0  0  0  0  0  0  0  0  0
   63.9635   32.2413   48.4568 H   0  0  0  0  0  0  0  0  0  0  0  0
   62.6602   33.3176   50.2936 H   0  0  0  0  0  0  0  0  0  0  0  0
   60.4449   34.4425   50.8024 H   0  0  0  0  0  0  0  0  0  0  0  0
   58.9289   33.7391   50.1224 H   0  0  0  0  0  0  0  0  0  0  0  0
   60.6715   31.1996   50.4056 H   0  0  0  0  0  0  0  0  0  0  0  0
   61.4122   31.3556   52.0732 H   0  0  0  0  0  0  0  0  0  0  0  0
   60.3612   29.2611   52.0674 H   0  0  0  0  0  0  0  0  0  0  0  0
   59.2319   30.4148   52.9411 H   0  0  0  0  0  0  0  0  0  0  0  0
   58.8054   29.8792   50.0216 H   0  0  0  0  0  0  0  0  0  0  0  0
   58.2940   28.6478   51.2666 H   0  0  0  0  0  0  0  0  0  0  0  0
   56.8890   30.1690   52.2620 H   0  0  0  0  0  0  0  0  0  0  0  0
   57.6136   32.2271   50.2489 H   0  0  0  0  0  0  0  0  0  0  0  0
   56.3920   32.3113   51.6316 H   0  0  0  0  0  0  0  0  0  0  0  0
   58.1024   33.6230   52.4185 H   0  0  0  0  0  0  0  0  0  0  0  0
   58.4572   31.9546   53.1148 H   0  0  0  0  0  0  0  0  0  0  0  0
   58.9692   32.1482   48.3537 H   0  0  0  0  0  0  0  0  0  0  0  0
  1  2  2  0
  2  3  1  0
  3  4  2  0
  4  5  1  0
  5  6  1  0
  6  7  2  0
  6  8  1  0
  8  9  1  0
  9 10  2  0
 10 11  1  0
 11 12  2  0
 12 13  1  0
 13 14  2  0
 14 15  1  0
  5 16  2  0
 16 17  1  0
 17 18  2  0
 18 19  1  0
 19 20  2  0
 19 21  1  0
 21 22  1  0
 22 23  2  0
 23 24  1  0
 24 25  2  0
 25 26  1  0
 26 27  1  0
 27 28  1  0
 28 29  1  0
 29 30  1  0
 30 31  1  0
 31 32  1  0
 32 33  1  0
 33 34  1  0
 26 35  2  0
 18  3  1  0
 35 22  1  0
 14  9  1  0
 34 28  1  0
  1 36  1  0
  1 37  1  0
  2 38  1  0
  4 39  1  0
 10 40  1  0
 11 41  1  0
 12 42  1  0
 13 43  1  0
 15 44  1  0
 15 45  1  0
 16 46  1  0
 17 47  1  0
 23 48  1  0
 24 49  1  0
 25 50  1  0
 27 51  1  0
 27 52  1  0
 29 53  1  0
 29 54  1  0
 30 55  1  0
 30 56  1  0
 31 57  1  0
 31 58  1  0
 32 59  1  0
 33 60  1  0
 33 61  1  0
 34 62  1  0
 34 63  1  0
 35 64  1  0
M  CHG  2   8  -1  21  -1
M  END
>  <UniqueID>  (23) 
21

>  <SMILES>  (23) 
C=Cc1cc(C(=O)[N-]c2ccccc2N)ccc1C(=O)[N-]c1cccc(CN2CCCNCC2)c1

>  <Energy>  (23) 
106.84961974774774

>  <Genealogy>  (23) 
C=Cc1cc(C(=O)[N-]c2ccccc2N)ccc1C(=O)[N-]c1cccc(CN2CCCNCC2)c1 (protonated)
C=Cc1cc(C(=O)[N-]c2ccccc2N)ccc1C(=O)[N-]c1cccc(CN2CCCNCC2)c1 (3D coordinates assigned)
C=Cc1cc(C(=O)[N-]c2ccccc2N)ccc1C(=O)[N-]c1cccc(CN2CCCNCC2)c1 (nonaromatic ring conformer: 106.84961974774774 kcal/mol)

>  <smiles>  (23) 
C=Cc1cc(C(=O)Nc2ccccc2N)ccc1C(=O)Nc1cccc(CN2CCCNCC2)c1

>  <score_type>  (23) 
oracle

>  <origin>  (23) 
adg

>  <m_score__min__energy>  (23) 
-10.48

>  <m_primary>  (23) 
energy

$$$$
23:0
     RDKit          3D

 45 47  0  0  0  0  0  0  0  0999 V2000
   62.0247   32.9498   52.6439 H   0  0  0  0  0  0  0  0  0  0  0  0
   61.5750   33.3180   51.7100 C   0  0  0  0  0  0  0  0  0  0  0  0
   62.3930   33.7420   50.6600 C   0  0  0  0  0  0  0  0  0  0  0  0
   63.4871   33.7075   50.7682 H   0  0  0  0  0  0  0  0  0  0  0  0
   61.8240   34.2100   49.4720 C   0  0  0  0  0  0  0  0  0  0  0  0
   62.4726   34.5312   48.6437 H   0  0  0  0  0  0  0  0  0  0  0  0
   60.4260   34.2720   49.3310 C   0  0  0  0  0  0  0  0  0  0  0  0
   59.8050   34.7520   48.0430 C   0  0  0  0  0  0  0  0  0  0  0  0
   60.1893   35.7569   47.8138 H   0  0  0  0  0  0  0  0  0  0  0  0
   58.7128   34.7702   48.1726 H   0  0  0  0  0  0  0  0  0  0  0  0
   60.1210   33.8540   46.9250 N   0  0  0  0  0  0  0  0  0  0  0  0
   59.1280   32.9240   46.4470 C   0  0  0  0  0  0  0  0  0  0  0  0
   58.2050   33.1410   45.0540 S   0  0  0  0  0  0  0  0  0  0  0  0
   57.3980   31.6730   45.2450 C   0  0  0  0  0  0  0  0  0  0  0  0
   56.4620   31.2070   44.4750 N   0  0  0  0  0  0  0  0  0  0  0  0
   56.2190   29.8260   44.1750 C   0  0  0  0  0  0  0  0  0  0  0  0
   55.0880   29.3410   44.4430 O   0  0  0  0  0  0  0  0  0  0  0  0
   57.3380   28.9070   43.7570 C   0  0  0  0  0  0  0  0  0  0  0  0
   56.9087   28.0260   43.2574 H   0  0  0  0  0  0  0  0  0  0  0  0
   58.0015   29.4602   43.0760 H   0  0  0  0  0  0  0  0  0  0  0  0
   58.1520   28.4500   44.9410 C   0  0  0  0  0  0  0  0  0  0  0  0
   57.5450   27.7650   46.0080 C   0  0  0  0  0  0  0  0  0  0  0  0
   56.4672   27.5474   45.9772 H   0  0  0  0  0  0  0  0  0  0  0  0
   58.3070   27.3590   47.1090 C   0  0  0  0  0  0  0  0  0  0  0  0
   57.8275   26.8209   47.9400 H   0  0  0  0  0  0  0  0  0  0  0  0
   59.6770   27.6360   47.1550 C   0  0  0  0  0  0  0  0  0  0  0  0
   60.7130   27.0820   48.6630 Br  0  0  0  0  0  0  0  0  0  0  0  0
   60.2870   28.3180   46.0990 C   0  0  0  0  0  0  0  0  0  0  0  0
   61.3646   28.5358   46.1352 H   0  0  0  0  0  0  0  0  0  0  0  0
   59.5290   28.7240   44.9960 C   0  0  0  0  0  0  0  0  0  0  0  0
   60.0135   29.2607   44.1670 H   0  0  0  0  0  0  0  0  0  0  0  0
   57.7910   31.0270   46.3640 N   0  0  0  0  0  0  0  0  0  0  0  0
   58.7530   31.7100   47.0420 C   0  0  0  0  0  0  0  0  0  0  0  0
   59.2980   31.1870   48.3320 C   0  0  0  0  0  0  0  0  0  0  0  0
   58.7859   31.6784   49.1724 H   0  0  0  0  0  0  0  0  0  0  0  0
   59.1327   30.1009   48.3864 H   0  0  0  0  0  0  0  0  0  0  0  0
   60.3764   31.3969   48.3864 H   0  0  0  0  0  0  0  0  0  0  0  0
   61.4780   33.8420   46.3730 C   0  0  0  0  0  0  0  0  0  0  0  0
   62.2084   33.8355   47.1955 H   0  0  0  0  0  0  0  0  0  0  0  0
   61.6143   32.9426   45.7545 H   0  0  0  0  0  0  0  0  0  0  0  0
   61.6302   34.7388   45.7545 H   0  0  0  0  0  0  0  0  0  0  0  0
   59.6100   33.8360   50.3900 C   0  0  0  0  0  0  0  0  0  0  0  0
   58.5153   33.8681   50.2869 H   0  0  0  0  0  0  0  0  0  0  0  0
   60.1840   33.3620   51.5730 C   0  0  0  0  0  0  0  0  0  0  0  0
   59.5402   33.0229   52.3980 H   0  0  0  0  0  0  0  0  0  0  0  0
  1  2  1  0
  2  3  2  0
  3  4  1  0
  3  5  1  0
  5  6  1  0
  5  7  2  0
  7  8  1  0
  8  9  1  0
  8 10  1  0
  8 11  1  0
 11 12  1  0
 12 13  1  0
 13 14  1  0
 14 15  2  0
 15 16  1  0
 16 17  2  0
 16 18  1  0
 18 19  1  0
 18 20  1  0
 18 21  1  0
 21 22  2  0
 22 23  1  0
 22 24  1  0
 24 25  1  0
 24 26  2  0
 26 27  1  0
 26 28  1  0
 28 29  1  0
 28 30  2  0
 30 31  1  0
 14 32  1  0
 32 33  1  0
 33 34  1  0
 34 35  1  0
 34 36  1  0
 34 37  1  0
 11 38  1  0
 38 39  1  0
 38 40  1  0
 38 41  1  0
  7 42  1  0
 42 43  1  0
 42 44  2  0
 44 45  1  0
 44  2  1  0
 33 12  2  0
 30 21  1  0
M  CHG  1  32  -1
M  END
>  <UniqueID>  (24) 
22

>  <SMILES>  (24) 
Cc1[n-]/c(=N\C(=O)Cc2ccc(Br)cc2)sc1N(C)Cc1ccccc1

>  <Energy>  (24) 
83.1835830296827

>  <Genealogy>  (24) 
Cc1[n-]c(=NC(=O)Cc2ccc(Br)cc2)sc1N(C)Cc1ccccc1 (protonated)
Cc1[n-]/c(=N\C(=O)Cc2ccc(Br)cc2)sc1N(C)Cc1ccccc1 (cis-trans isomerization)
Cc1[n-]/c(=N\C(=O)Cc2ccc(Br)cc2)sc1N(C)Cc1ccccc1 (3D coordinates assigned)
Cc1[n-]/c(=N\C(=O)Cc2ccc(Br)cc2)sc1N(C)Cc1ccccc1 (optimized conformer: 83.1835830296827 kcal/mol)

>  <smiles>  (24) 
Cc1[nH]c(=NC(=O)Cc2ccc(Br)cc2)sc1N(C)Cc1ccccc1

>  <score_type>  (24) 
oracle

>  <origin>  (24) 
adg

>  <m_score__min__energy>  (24) 
-10.69

>  <m_primary>  (24) 
energy

$$$$
24:0
     RDKit          3D

 68 73  0  0  0  0  0  0  0  0999 V2000
   56.6280   29.0220   43.9630 O   0  0  0  0  0  0  0  0  0  0  0  0
   57.0730   29.8260   44.8230 C   0  0  0  0  0  0  0  0  0  0  0  0
   56.7280   31.2140   44.7080 N   0  0  0  0  0  0  0  0  0  0  0  0
   57.5650   32.1990   44.8320 C   0  0  0  0  0  0  0  0  0  0  0  0
   58.0450   32.6440   46.0150 N   0  0  0  0  0  0  0  0  0  0  0  0
   58.8760   33.7080   45.8450 C   0  0  0  0  0  0  0  0  0  0  0  0
   59.4810   34.4010   46.9960 C   0  0  0  0  0  0  0  0  0  0  0  0
   58.9020   35.4090   47.4780 O   0  0  0  0  0  0  0  0  0  0  0  0
   60.7070   33.9610   47.5920 N   0  0  0  0  0  0  0  0  0  0  0  0
   61.7140   33.1790   46.8810 C   0  0  0  0  0  0  0  0  0  0  0  0
   62.9960   33.0190   47.6740 C   0  0  0  0  0  0  0  0  0  0  0  0
   62.0230   31.8530   47.5480 C   0  0  0  0  0  0  0  0  0  0  0  0
   59.0340   34.1250   44.5230 C   0  0  0  0  0  0  0  0  0  0  0  0
   58.1180   33.1140   43.5390 S   0  0  0  0  0  0  0  0  0  0  0  0
   57.9830   29.3280   45.8820 C   0  0  0  0  0  0  0  0  0  0  0  0
   58.7320   28.1600   45.6740 C   0  0  0  0  0  0  0  0  0  0  0  0
   59.6150   27.7020   46.6570 C   0  0  0  0  0  0  0  0  0  0  0  0
   60.5950   26.0830   46.3850 Br  0  0  0  0  0  0  0  0  0  0  0  0
   59.7690   28.4150   47.8470 C   0  0  0  0  0  0  0  0  0  0  0  0
   59.0340   29.5890   48.0730 C   0  0  0  0  0  0  0  0  0  0  0  0
   59.1870   30.3290   49.3020 N   0  0  0  0  0  0  0  0  0  0  0  0
   58.7980   31.7360   49.3450 C   0  0  0  0  0  0  0  0  0  0  0  0
   59.6910   32.5040   50.3260 C   0  0  0  0  0  0  0  0  0  0  0  0
   59.8380   31.8470   51.6490 N   0  0  0  0  0  0  0  0  0  0  0  0
   58.8290   32.2380   52.6710 C   0  0  0  0  0  0  0  0  0  0  0  0
   57.6670   31.2820   52.8610 C   0  0  0  0  0  0  0  0  0  0  0  0
   56.5230   31.3910   52.0580 C   0  0  0  0  0  0  0  0  0  0  0  0
   55.5030   30.4870   52.1590 N   0  0  0  0  0  0  0  0  0  0  0  0
   54.3190   30.6270   51.2910 C   0  0  0  0  0  0  0  0  0  0  0  0
   53.0910   31.2220   52.0140 C   0  0  0  0  0  0  0  0  0  0  0  0
   51.7790   30.5530   51.6220 C   0  0  0  0  0  0  0  0  0  0  0  0
   52.0360   31.9940   51.2270 C   0  0  0  0  0  0  0  0  0  0  0  0
   55.6010   29.4490   53.0470 C   0  0  0  0  0  0  0  0  0  0  0  0
   54.6650   28.6130   53.1670 O   0  0  0  0  0  0  0  0  0  0  0  0
   56.7170   29.3050   53.8060 N   0  0  0  0  0  0  0  0  0  0  0  0
   57.7520   30.1750   53.7220 C   0  0  0  0  0  0  0  0  0  0  0  0
   58.7840   29.9720   54.4150 O   0  0  0  0  0  0  0  0  0  0  0  0
   60.1310   30.3920   51.5760 C   0  0  0  0  0  0  0  0  0  0  0  0
   59.2570   29.6230   50.5780 C   0  0  0  0  0  0  0  0  0  0  0  0
   58.1460   30.0430   47.0830 C   0  0  0  0  0  0  0  0  0  0  0  0
   61.4602   33.4927   45.8577 H   0  0  0  0  0  0  0  0  0  0  0  0
   63.9646   32.9863   47.1537 H   0  0  0  0  0  0  0  0  0  0  0  0
   63.4651   33.5547   48.5124 H   0  0  0  0  0  0  0  0  0  0  0  0
   62.2886   30.9780   46.9367 H   0  0  0  0  0  0  0  0  0  0  0  0
   61.4975   31.1969   48.2575 H   0  0  0  0  0  0  0  0  0  0  0  0
   59.6513   34.9695   44.1828 H   0  0  0  0  0  0  0  0  0  0  0  0
   58.6241   27.6014   44.7325 H   0  0  0  0  0  0  0  0  0  0  0  0
   60.4713   28.0543   48.6129 H   0  0  0  0  0  0  0  0  0  0  0  0
   58.9026   32.1725   48.3407 H   0  0  0  0  0  0  0  0  0  0  0  0
   57.7527   31.8086   49.6799 H   0  0  0  0  0  0  0  0  0  0  0  0
   60.6902   32.6059   49.8773 H   0  0  0  0  0  0  0  0  0  0  0  0
   59.2062   33.4751   50.5047 H   0  0  0  0  0  0  0  0  0  0  0  0
   60.7220   32.2600   52.0360 H   0  0  0  0  0  0  0  0  0  0  0  0
   59.3477   32.3326   53.6364 H   0  0  0  0  0  0  0  0  0  0  0  0
   58.3841   33.1747   52.3039 H   0  0  0  0  0  0  0  0  0  0  0  0
   56.4452   32.2168   51.3355 H   0  0  0  0  0  0  0  0  0  0  0  0
   54.5803   31.2855   50.4495 H   0  0  0  0  0  0  0  0  0  0  0  0
   54.0402   29.6160   50.9592 H   0  0  0  0  0  0  0  0  0  0  0  0
   53.6506   31.4573   52.9313 H   0  0  0  0  0  0  0  0  0  0  0  0
   51.7719   29.7658   50.8538 H   0  0  0  0  0  0  0  0  0  0  0  0
   50.9815   30.0283   52.1685 H   0  0  0  0  0  0  0  0  0  0  0  0
   52.2157   32.2512   50.1727 H   0  0  0  0  0  0  0  0  0  0  0  0
   51.5026   32.9455   51.3688 H   0  0  0  0  0  0  0  0  0  0  0  0
   61.1832   30.2666   51.2808 H   0  0  0  0  0  0  0  0  0  0  0  0
   59.9144   29.9761   52.5711 H   0  0  0  0  0  0  0  0  0  0  0  0
   59.6885   28.6244   50.4149 H   0  0  0  0  0  0  0  0  0  0  0  0
   58.2410   29.5372   50.9907 H   0  0  0  0  0  0  0  0  0  0  0  0
   57.5724   30.9669   47.2486 H   0  0  0  0  0  0  0  0  0  0  0  0
  1  2  2  0
  2  3  1  0
  3  4  2  3
  4  5  1  0
  5  6  1  0
  6  7  1  0
  7  8  2  0
  7  9  1  0
  9 10  1  0
 10 11  1  0
 11 12  1  0
  6 13  2  0
 13 14  1  0
  2 15  1  0
 15 16  2  0
 16 17  1  0
 17 18  1  0
 17 19  2  0
 19 20  1  0
 20 21  1  0
 21 22  1  0
 22 23  1  0
 23 24  1  0
 24 25  1  0
 25 26  1  0
 26 27  2  0
 27 28  1  0
 28 29  1  0
 29 30  1  0
 30 31  1  0
 31 32  1  0
 28 33  1  0
 33 34  2  0
 33 35  1  0
 35 36  1  0
 36 37  2  0
 24 38  1  0
 38 39  1  0
 20 40  2  0
 14  4  1  0
 40 15  1  0
 12 10  1  0
 39 21  1  0
 36 26  1  0
 32 30  1  0
 10 41  1  0
 11 42  1  0
 11 43  1  0
 12 44  1  0
 12 45  1  0
 13 46  1  0
 16 47  1  0
 19 48  1  0
 22 49  1  0
 22 50  1  0
 23 51  1  0
 23 52  1  0
 24 53  1  0
 25 54  1  0
 25 55  1  0
 27 56  1  0
 29 57  1  0
 29 58  1  0
 30 59  1  0
 31 60  1  0
 31 61  1  0
 32 62  1  0
 32 63  1  0
 38 64  1  0
 38 65  1  0
 39 66  1  0
 39 67  1  0
 40 68  1  0
M  CHG  4   5  -1   9  -1  24   1  35  -1
M  END
>  <UniqueID>  (25) 
23

>  <SMILES>  (25) 
O=C(N=c1[n-]c(C(=O)[N-]C2CC2)cs1)c1cc(Br)cc(N2CC[NH+](Cc3cn(CC4CC4)c(=O)[n-]c3=O)CC2)c1

>  <Energy>  (25) 
656.0339342631205

>  <Genealogy>  (25) 
O=C(N=c1[n-]c(C(=O)[N-]C2CC2)cs1)c1cc(Br)cc(N2CC[NH+](Cc3cn(CC4CC4)c(=O)[n-]c3=O)CC2)c1 (protonated)
O=C(N=c1[n-]c(C(=O)[N-]C2CC2)cs1)c1cc(Br)cc(N2CC[NH+](Cc3cn(CC4CC4)c(=O)[n-]c3=O)CC2)c1 (3D coordinates assigned)
O=C(N=c1[n-]c(C(=O)[N-]C2CC2)cs1)c1cc(Br)cc(N2CC[NH+](Cc3cn(CC4CC4)c(=O)[n-]c3=O)CC2)c1 (nonaromatic ring conformer: 656.0339342631205 kcal/mol)

>  <smiles>  (25) 
O=C(N=c1[nH]c(C(=O)NC2CC2)cs1)c1cc(Br)cc(N2CCN(Cc3cn(CC4CC4)c(=O)[nH]c3=O)CC2)c1

>  <score_type>  (25) 
oracle

>  <origin>  (25) 
adg

>  <m_score__min__energy>  (25) 
-12.69

>  <m_primary>  (25) 
energy

$$$$
25:0
     RDKit          3D

 57 60  0  0  0  0  0  0  0  0999 V2000
   51.0200   34.2020   51.3080 H   0  0  0  0  0  0  0  0  0  0  0  0
   50.9250   33.4340   52.0070 N   0  0  0  0  0  0  0  0  0  0  0  0
   51.4240   32.1270   51.7310 C   0  0  0  0  0  0  0  0  0  0  0  0
   50.7250   31.1160   52.0120 O   0  0  0  0  0  0  0  0  0  0  0  0
   52.7710   31.9570   51.1000 C   0  0  0  0  0  0  0  0  0  0  0  0
   53.2144   32.9478   50.9218 H   0  0  0  0  0  0  0  0  0  0  0  0
   52.6516   31.4169   50.1492 H   0  0  0  0  0  0  0  0  0  0  0  0
   53.6810   31.1620   51.9990 C   0  0  0  0  0  0  0  0  0  0  0  0
   53.2690   30.8190   53.2970 C   0  0  0  0  0  0  0  0  0  0  0  0
   52.2768   31.1287   53.6571 H   0  0  0  0  0  0  0  0  0  0  0  0
   54.1150   30.0860   54.1320 C   0  0  0  0  0  0  0  0  0  0  0  0
   53.7803   29.8041   55.1412 H   0  0  0  0  0  0  0  0  0  0  0  0
   55.3850   29.7100   53.6890 C   0  0  0  0  0  0  0  0  0  0  0  0
   56.0392   29.1173   54.3454 H   0  0  0  0  0  0  0  0  0  0  0  0
   55.8310   30.0820   52.4160 C   0  0  0  0  0  0  0  0  0  0  0  0
   57.1460   29.6700   52.0010 N   0  0  0  0  0  0  0  0  0  0  0  0
   57.8240   30.1330   50.9920 C   0  0  0  0  0  0  0  0  0  0  0  0
   58.5920   29.2850   50.2630 N   0  0  0  0  0  0  0  0  0  0  0  0
   59.3410   29.7500   49.2270 C   0  0  0  0  0  0  0  0  0  0  0  0
   60.0930   28.9480   48.5320 N   0  0  0  0  0  0  0  0  0  0  0  0
   60.0380   28.8030   47.0770 C   0  0  0  0  0  0  0  0  0  0  0  0
   60.8113   28.0887   46.7580 H   0  0  0  0  0  0  0  0  0  0  0  0
   60.2100   29.7894   46.6216 H   0  0  0  0  0  0  0  0  0  0  0  0
   58.6960   28.3020   46.6330 C   0  0  0  0  0  0  0  0  0  0  0  0
   57.9160   28.9280   45.7870 O   0  0  0  0  0  0  0  0  0  0  0  0
   56.8270   28.2510   45.5650 N   0  0  0  0  0  0  0  0  0  0  0  0
   56.8980   27.1290   46.3110 C   0  0  0  0  0  0  0  0  0  0  0  0
   55.8540   26.0850   46.2920 C   0  0  0  0  0  0  0  0  0  0  0  0
   54.8070   26.3020   45.6270 O   0  0  0  0  0  0  0  0  0  0  0  0
   55.9510   24.8590   47.0310 N   0  0  0  0  0  0  0  0  0  0  0  0
   57.0640   23.9210   46.9960 C   0  0  0  0  0  0  0  0  0  0  0  0
   57.3634   23.6687   48.0240 H   0  0  0  0  0  0  0  0  0  0  0  0
   56.7560   23.0060   46.4688 H   0  0  0  0  0  0  0  0  0  0  0  0
   57.9136   24.3796   46.4688 H   0  0  0  0  0  0  0  0  0  0  0  0
   58.0990   27.1120   46.9970 C   0  0  0  0  0  0  0  0  0  0  0  0
   58.4863   26.3348   47.6722 H   0  0  0  0  0  0  0  0  0  0  0  0
   59.3170   31.0720   48.9210 N   0  0  0  0  0  0  0  0  0  0  0  0
   58.5550   31.9280   49.6460 C   0  0  0  0  0  0  0  0  0  0  0  0
   58.5410   33.1900   49.3380 N   0  0  0  0  0  0  0  0  0  0  0  0
   59.4660   33.8020   48.3880 C   0  0  0  0  0  0  0  0  0  0  0  0
   59.5371   34.8811   48.5891 H   0  0  0  0  0  0  0  0  0  0  0  0
   60.4594   33.3421   48.4960 H   0  0  0  0  0  0  0  0  0  0  0  0
   58.9650   33.5860   46.9910 C   0  0  0  0  0  0  0  0  0  0  0  0
   59.4460   34.3800   45.9390 C   0  0  0  0  0  0  0  0  0  0  0  0
   60.1742   35.1785   46.1444 H   0  0  0  0  0  0  0  0  0  0  0  0
   59.0040   34.1610   44.6310 C   0  0  0  0  0  0  0  0  0  0  0  0
   59.3789   34.7920   43.8117 H   0  0  0  0  0  0  0  0  0  0  0  0
   58.0870   33.1420   44.3630 C   0  0  0  0  0  0  0  0  0  0  0  0
   57.7397   32.9736   43.3329 H   0  0  0  0  0  0  0  0  0  0  0  0
   57.6090   32.3350   45.4010 C   0  0  0  0  0  0  0  0  0  0  0  0
   56.6970   31.3200   45.1210 O   0  0  0  0  0  0  0  0  0  0  0  0
   56.6740   30.4640   45.6620 H   0  0  0  0  0  0  0  0  0  0  0  0
   58.0530   32.5540   46.7140 C   0  0  0  0  0  0  0  0  0  0  0  0
   57.6853   31.9147   47.5301 H   0  0  0  0  0  0  0  0  0  0  0  0
   57.8170   31.4560   50.6840 N   0  0  0  0  0  0  0  0  0  0  0  0
   54.9630   30.7910   51.5610 C   0  0  0  0  0  0  0  0  0  0  0  0
   55.2915   31.0552   50.5450 H   0  0  0  0  0  0  0  0  0  0  0  0
  1  2  1  0
  2  3  1  0
  3  4  2  0
  3  5  1  0
  5  6  1  0
  5  7  1  0
  5  8  1  0
  8  9  2  0
  9 10  1  0
  9 11  1  0
 11 12  1  0
 11 13  2  0
 13 14  1  0
 13 15  1  0
 15 16  1  0
 16 17  2  3
 17 18  1  0
 18 19  1  0
 19 20  2  3
 20 21  1  0
 21 22  1  0
 21 23  1  0
 21 24  1  0
 24 25  1  0
 25 26  1  0
 26 27  2  0
 27 28  1  0
 28 29  2  0
 28 30  1  0
 30 31  1  0
 31 32  1  0
 31 33  1  0
 31 34  1  0
 27 35  1  0
 35 36  1  0
 19 37  1  0
 37 38  1  0
 38 39  2  0
 39 40  1  0
 40 41  1  0
 40 42  1  0
 40 43  1  0
 43 44  2  0
 44 45  1  0
 44 46  1  0
 46 47  1  0
 46 48  2  0
 48 49  1  0
 48 50  1  0
 50 51  1  0
 51 52  1  0
 50 53  2  0
 53 54  1  0
 38 55  1  0
 15 56  2  0
 56 57  1  0
 56  8  1  0
 55 17  1  0
 35 24  2  0
 53 43  1  0
M  CHG  5   2  -1  18  -1  30  -1  37  -1  55  -1
M  END
>  <UniqueID>  (26) 
24

>  <SMILES>  (26) 
C[N-]C(=O)c1cc(CN=c2[n-]c(=Nc3cccc(CC([NH-])=O)c3)[n-]/c(=N\Cc3cccc(O)c3)[n-]2)on1

>  <Energy>  (26) 
92.36273712705201

>  <Genealogy>  (26) 
C[N-]C(=O)c1cc(CN=c2[n-]c(=NCc3cccc(O)c3)[n-]c(=Nc3cccc(CC([NH-])=O)c3)[n-]2)on1 (protonated)
C[N-]C(=O)c1cc(CN=c2[n-]c(=Nc3cccc(CC([NH-])=O)c3)[n-]/c(=N\Cc3cccc(O)c3)[n-]2)on1 (cis-trans isomerization)
C[N-]C(=O)c1cc(CN=c2[n-]c(=Nc3cccc(CC([NH-])=O)c3)[n-]/c(=N\Cc3cccc(O)c3)[n-]2)on1 (3D coordinates assigned)
C[N-]C(=O)c1cc(CN=c2[n-]c(=Nc3cccc(CC([NH-])=O)c3)[n-]/c(=N\Cc3cccc(O)c3)[n-]2)on1 (optimized conformer: 92.36273712705201 kcal/mol)

>  <smiles>  (26) 
CNC(=O)c1cc(CN=c2[nH]c(=NCc3cccc(O)c3)[nH]c(=Nc3cccc(CC(N)=O)c3)[nH]2)on1

>  <score_type>  (26) 
oracle

>  <origin>  (26) 
adg

>  <m_score__min__energy>  (26) 
-20.059999999999999

>  <m_primary>  (26) 
energy

$$$$
26:0
     RDKit          3D

 33 34  0  0  0  0  0  0  0  0999 V2000
   61.5090   32.9700   46.8500 O   0  0  0  0  0  0  0  0  0  0  0  0
   60.8890   33.7930   47.5750 C   0  0  0  0  0  0  0  0  0  0  0  0
   61.5490   34.3940   48.6400 O   0  0  0  0  0  0  0  0  0  0  0  0
   59.4780   34.1210   47.3080 C   0  0  0  0  0  0  0  0  0  0  0  0
   59.0710   35.2920   47.5350 O   0  0  0  0  0  0  0  0  0  0  0  0
   58.5030   33.0850   46.8170 C   0  0  0  0  0  0  0  0  0  0  0  0
   58.3230   33.1750   45.3250 C   0  0  0  0  0  0  0  0  0  0  0  0
   58.6740   34.2400   44.7480 O   0  0  0  0  0  0  0  0  0  0  0  0
   57.7710   32.0520   44.5160 C   0  0  0  0  0  0  0  0  0  0  0  0
   57.5160   32.2360   43.1440 C   0  0  0  0  0  0  0  0  0  0  0  0
   57.0160   31.1890   42.3660 C   0  0  0  0  0  0  0  0  0  0  0  0
   56.7540   29.9480   42.9450 C   0  0  0  0  0  0  0  0  0  0  0  0
   56.9770   29.7430   44.3130 C   0  0  0  0  0  0  0  0  0  0  0  0
   56.7290   28.4450   44.8790 N   0  0  0  0  0  0  0  0  0  0  0  0
   57.5200   27.8630   45.9310 C   0  0  0  0  0  0  0  0  0  0  0  0
   58.4050   28.5460   46.5150 O   0  0  0  0  0  0  0  0  0  0  0  0
   57.3030   26.4600   46.3520 C   0  0  0  0  0  0  0  0  0  0  0  0
   56.0080   25.9120   46.3670 C   0  0  0  0  0  0  0  0  0  0  0  0
   54.9080   26.6800   46.0040 O   0  0  0  0  0  0  0  0  0  0  0  0
   55.8190   24.6240   46.7530 N   0  0  0  0  0  0  0  0  0  0  0  0
   56.8640   23.8430   47.1240 C   0  0  0  0  0  0  0  0  0  0  0  0
   56.6630   22.6540   47.4820 O   0  0  0  0  0  0  0  0  0  0  0  0
   58.1260   24.3410   47.1060 N   0  0  0  0  0  0  0  0  0  0  0  0
   58.3710   25.6220   46.7260 C   0  0  0  0  0  0  0  0  0  0  0  0
   59.5610   26.0340   46.6890 O   0  0  0  0  0  0  0  0  0  0  0  0
   57.5050   30.7920   45.0880 C   0  0  0  0  0  0  0  0  0  0  0  0
   58.8820   32.0847   47.0736 H   0  0  0  0  0  0  0  0  0  0  0  0
   57.5302   33.2647   47.2980 H   0  0  0  0  0  0  0  0  0  0  0  0
   57.7123   33.2138   42.6799 H   0  0  0  0  0  0  0  0  0  0  0  0
   56.8284   31.3441   41.2933 H   0  0  0  0  0  0  0  0  0  0  0  0
   56.3700   29.1251   42.3242 H   0  0  0  0  0  0  0  0  0  0  0  0
   55.9060   27.9140   44.5180 H   0  0  0  0  0  0  0  0  0  0  0  0
   57.7130   30.6261   46.1553 H   0  0  0  0  0  0  0  0  0  0  0  0
  1  2  2  0
  2  3  1  0
  2  4  1  0
  4  5  2  0
  4  6  1  0
  6  7  1  0
  7  8  2  0
  7  9  1  0
  9 10  2  0
 10 11  1  0
 11 12  2  0
 12 13  1  0
 13 14  1  0
 14 15  1  0
 15 16  2  0
 15 17  1  0
 17 18  2  0
 18 19  1  0
 18 20  1  0
 20 21  1  0
 21 22  2  0
 21 23  1  0
 23 24  1  0
 24 25  2  0
 13 26  2  0
 26  9  1  0
 24 17  1  0
  6 27  1  0
  6 28  1  0
 10 29  1  0
 11 30  1  0
 12 31  1  0
 14 32  1  0
 26 33  1  0
M  CHG  4   3  -1  19  -1  20  -1  23  -1
M  END
>  <UniqueID>  (27) 
25

>  <SMILES>  (27) 
O=C([O-])C(=O)CC(=O)c1cccc(NC(=O)c2c([O-])[n-]c(=O)[n-]c2=O)c1

>  <Energy>  (27) 
44.4387740198321

>  <Genealogy>  (27) 
O=C([O-])C(=O)CC(=O)c1cccc(NC(=O)c2c([O-])[n-]c(=O)[n-]c2=O)c1 (protonated)
O=C([O-])C(=O)CC(=O)c1cccc(NC(=O)c2c([O-])[n-]c(=O)[n-]c2=O)c1 (3D coordinates assigned)
O=C([O-])C(=O)CC(=O)c1cccc(NC(=O)c2c([O-])[n-]c(=O)[n-]c2=O)c1 (optimized conformer: 44.4387740198321 kcal/mol)

>  <smiles>  (27) 
O=C(O)C(=O)CC(=O)c1cccc(NC(=O)c2c(O)[nH]c(=O)[nH]c2=O)c1

>  <score_type>  (27) 
oracle

>  <origin>  (27) 
adg

>  <m_score__min__energy>  (27) 
-16.5

>  <m_primary>  (27) 
energy

$$$$
27:0
     RDKit          3D

 36 38  0  0  0  0  0  0  0  0999 V2000
   58.6385   32.7488   42.2990 H   0  0  0  0  0  0  0  0  0  0  0  0
   57.7780   32.0700   42.2060 C   0  0  0  0  0  0  0  0  0  0  0  0
   57.2421   31.9893   41.2488 H   0  0  0  0  0  0  0  0  0  0  0  0
   57.3840   31.3440   43.2550 C   0  0  0  0  0  0  0  0  0  0  0  0
   57.9313   31.4370   44.2046 H   0  0  0  0  0  0  0  0  0  0  0  0
   56.2140   30.4030   43.1760 C   0  0  0  0  0  0  0  0  0  0  0  0
   55.3691   30.9146   42.6919 H   0  0  0  0  0  0  0  0  0  0  0  0
   56.5054   29.5188   42.5901 H   0  0  0  0  0  0  0  0  0  0  0  0
   55.8150   29.9750   44.5150 N   0  0  0  0  0  0  0  0  0  0  0  0
   56.4460   29.0910   45.2300 C   0  0  0  0  0  0  0  0  0  0  0  0
   57.6340   29.3920   45.8260 N   0  0  0  0  0  0  0  0  0  0  0  0
   58.3030   28.4770   46.5760 C   0  0  0  0  0  0  0  0  0  0  0  0
   59.4000   28.7960   47.1080 O   0  0  0  0  0  0  0  0  0  0  0  0
   57.7640   27.1920   46.7440 C   0  0  0  0  0  0  0  0  0  0  0  0
   58.3920   26.1930   47.5010 C   0  0  0  0  0  0  0  0  0  0  0  0
   59.3528   26.3978   47.9958 H   0  0  0  0  0  0  0  0  0  0  0  0
   57.7940   24.9370   47.6250 C   0  0  0  0  0  0  0  0  0  0  0  0
   58.2821   24.1494   48.2178 H   0  0  0  0  0  0  0  0  0  0  0  0
   56.5670   24.6830   46.9900 C   0  0  0  0  0  0  0  0  0  0  0  0
   55.9080   23.3640   47.1040 C   0  0  0  0  0  0  0  0  0  0  0  0
   56.5440   22.3850   47.5820 O   0  0  0  0  0  0  0  0  0  0  0  0
   54.5480   23.1870   46.6760 N   0  0  0  0  0  0  0  0  0  0  0  0
   54.0340   23.9840   46.2370 H   0  0  0  0  0  0  0  0  0  0  0  0
   53.8450   21.9130   46.8120 C   0  0  0  0  0  0  0  0  0  0  0  0
   54.4976   21.0986   46.4643 H   0  0  0  0  0  0  0  0  0  0  0  0
   53.5830   21.7580   47.8690 H   0  0  0  0  0  0  0  0  0  0  0  0
   52.5930   21.9260   45.9950 C   0  0  0  0  0  0  0  0  0  0  0  0
   51.6990   20.9140   46.0020 N   0  0  0  0  0  0  0  0  0  0  0  0
   50.7270   21.3430   45.1790 C   0  0  0  0  0  0  0  0  0  0  0  0
   49.8154   20.7820   44.9253 H   0  0  0  0  0  0  0  0  0  0  0  0
   51.0490   22.5910   44.7040 C   0  0  0  0  0  0  0  0  0  0  0  0
   50.4368   23.1856   44.0100 H   0  0  0  0  0  0  0  0  0  0  0  0
   52.2300   22.9710   45.2210 N   0  0  0  0  0  0  0  0  0  0  0  0
   55.9760   25.6710   46.2600 N   0  0  0  0  0  0  0  0  0  0  0  0
   56.5350   26.9020   46.1230 C   0  0  0  0  0  0  0  0  0  0  0  0
   55.9080   27.8530   45.3840 N   0  0  0  0  0  0  0  0  0  0  0  0
  1  2  1  0
  2  3  1  0
  2  4  2  0
  4  5  1  0
  4  6  1  0
  6  7  1  0
  6  8  1  0
  6  9  1  0
  9 10  2  0
 10 11  1  0
 11 12  1  0
 12 13  2  0
 12 14  1  0
 14 15  2  0
 15 16  1  0
 15 17  1  0
 17 18  1  0
 17 19  2  0
 19 20  1  0
 20 21  2  0
 20 22  1  0
 22 23  1  0
 22 24  1  0
 24 25  1  0
 24 26  1  0
 24 27  1  0
 27 28  2  0
 28 29  1  0
 29 30  1  0
 29 31  2  0
 31 32  1  0
 31 33  1  0
 19 34  1  0
 34 35  2  0
 35 36  1  0
 36 10  1  0
 35 14  1  0
 33 27  1  0
M  CHG  3  11  -1  33  -1  36  -1
M  END
>  <UniqueID>  (28) 
26

>  <SMILES>  (28) 
C=CC/N=c1\[n-]c(=O)c2ccc(C(=O)NCc3ncc[n-]3)nc2[n-]1

>  <Energy>  (28) 
65.28115280115415

>  <Genealogy>  (28) 
C=CCN=c1[n-]c(=O)c2ccc(C(=O)NCc3ncc[n-]3)nc2[n-]1 (protonated)
C=CC/N=c1\[n-]c(=O)c2ccc(C(=O)NCc3ncc[n-]3)nc2[n-]1 (cis-trans isomerization)
C=CC/N=c1\[n-]c(=O)c2ccc(C(=O)NCc3ncc[n-]3)nc2[n-]1 (3D coordinates assigned)
C=CC/N=c1\[n-]c(=O)c2ccc(C(=O)NCc3ncc[n-]3)nc2[n-]1 (optimized conformer: 65.28115280115415 kcal/mol)

>  <smiles>  (28) 
C=CCN=c1[nH]c(=O)c2ccc(C(=O)NCc3ncc[nH]3)nc2[nH]1

>  <score_type>  (28) 
oracle

>  <origin>  (28) 
adg

>  <m_score__min__energy>  (28) 
-11.779999999999999

>  <m_primary>  (28) 
energy

$$$$
28:0
     RDKit          3D

 60 63  0  0  0  0  0  0  0  0999 V2000
   55.5360   23.7360   44.4940 C   0  0  0  0  0  0  0  0  0  0  0  0
   54.7870   24.4470   45.9410 S   0  0  0  0  0  0  0  0  0  0  0  0
   55.3460   23.7740   47.1630 O   0  0  0  0  0  0  0  0  0  0  0  0
   53.2990   24.2420   45.8790 O   0  0  0  0  0  0  0  0  0  0  0  0
   55.1500   26.1420   45.9850 N   0  0  0  0  0  0  0  0  0  0  0  0
   56.4470   26.7140   45.7710 C   0  0  0  0  0  0  0  0  0  0  0  0
   57.5550   25.8600   45.7430 C   0  0  0  0  0  0  0  0  0  0  0  0
   58.8370   26.3740   45.5490 C   0  0  0  0  0  0  0  0  0  0  0  0
   59.0260   27.7470   45.3830 C   0  0  0  0  0  0  0  0  0  0  0  0
   57.9290   28.6290   45.4030 C   0  0  0  0  0  0  0  0  0  0  0  0
   58.1260   30.0530   45.2360 N   0  0  0  0  0  0  0  0  0  0  0  0
   58.9080   30.8150   46.2230 C   0  0  0  0  0  0  0  0  0  0  0  0
   59.3780   32.1480   45.6300 C   0  0  0  0  0  0  0  0  0  0  0  0
   58.2590   32.9690   45.0990 N   0  0  0  0  0  0  0  0  0  0  0  0
   57.7400   33.9210   46.1050 C   0  0  0  0  0  0  0  0  0  0  0  0
   58.5180   33.8290   47.3930 C   0  0  0  0  0  0  0  0  0  0  0  0
   58.1910   32.8510   48.3440 C   0  0  0  0  0  0  0  0  0  0  0  0
   58.9290   32.7410   49.5260 C   0  0  0  0  0  0  0  0  0  0  0  0
   60.0050   33.6010   49.7740 C   0  0  0  0  0  0  0  0  0  0  0  0
   60.7300   33.4380   50.9650 O   0  0  0  0  0  0  0  0  0  0  0  0
   62.0100   32.8170   51.0500 C   0  0  0  0  0  0  0  0  0  0  0  0
   62.5770   32.6620   49.6690 C   0  0  0  0  0  0  0  0  0  0  0  0
   63.5190   33.5890   49.1890 C   0  0  0  0  0  0  0  0  0  0  0  0
   64.0680   33.4370   47.9130 C   0  0  0  0  0  0  0  0  0  0  0  0
   63.6860   32.3580   47.1100 C   0  0  0  0  0  0  0  0  0  0  0  0
   62.7580   31.4250   47.5840 C   0  0  0  0  0  0  0  0  0  0  0  0
   62.2070   31.5720   48.8620 C   0  0  0  0  0  0  0  0  0  0  0  0
   60.3260   34.5910   48.8260 C   0  0  0  0  0  0  0  0  0  0  0  0
   59.5870   34.7030   47.6460 C   0  0  0  0  0  0  0  0  0  0  0  0
   57.1480   32.1790   44.5060 C   0  0  0  0  0  0  0  0  0  0  0  0
   57.5670   30.7670   44.0820 C   0  0  0  0  0  0  0  0  0  0  0  0
   56.6380   28.0970   45.5920 C   0  0  0  0  0  0  0  0  0  0  0  0
   56.3027   23.0082   44.7980 H   0  0  0  0  0  0  0  0  0  0  0  0
   54.7660   23.2285   43.8943 H   0  0  0  0  0  0  0  0  0  0  0  0
   56.0027   24.5313   43.8943 H   0  0  0  0  0  0  0  0  0  0  0  0
   57.4142   24.7770   45.8747 H   0  0  0  0  0  0  0  0  0  0  0  0
   59.7022   25.6950   45.5267 H   0  0  0  0  0  0  0  0  0  0  0  0
   60.0414   28.1434   45.2352 H   0  0  0  0  0  0  0  0  0  0  0  0
   58.2812   31.0132   47.1049 H   0  0  0  0  0  0  0  0  0  0  0  0
   59.7909   30.2236   46.5071 H   0  0  0  0  0  0  0  0  0  0  0  0
   59.8917   32.7207   46.4162 H   0  0  0  0  0  0  0  0  0  0  0  0
   60.0481   31.9180   44.7885 H   0  0  0  0  0  0  0  0  0  0  0  0
   57.8226   34.9435   45.7079 H   0  0  0  0  0  0  0  0  0  0  0  0
   56.6894   33.6702   46.3133 H   0  0  0  0  0  0  0  0  0  0  0  0
   57.3495   32.1672   48.1586 H   0  0  0  0  0  0  0  0  0  0  0  0
   58.6621   31.9728   50.2667 H   0  0  0  0  0  0  0  0  0  0  0  0
   62.6826   33.4422   51.6556 H   0  0  0  0  0  0  0  0  0  0  0  0
   61.9100   31.8281   51.5212 H   0  0  0  0  0  0  0  0  0  0  0  0
   63.8248   34.4366   49.8200 H   0  0  0  0  0  0  0  0  0  0  0  0
   64.8014   34.1670   47.5399 H   0  0  0  0  0  0  0  0  0  0  0  0
   64.1159   32.2427   46.1041 H   0  0  0  0  0  0  0  0  0  0  0  0
   62.4611   30.5752   46.9518 H   0  0  0  0  0  0  0  0  0  0  0  0
   61.4829   30.8331   49.2358 H   0  0  0  0  0  0  0  0  0  0  0  0
   61.1627   35.2796   49.0154 H   0  0  0  0  0  0  0  0  0  0  0  0
   59.8440   35.4801   46.9111 H   0  0  0  0  0  0  0  0  0  0  0  0
   56.3428   32.0954   45.2507 H   0  0  0  0  0  0  0  0  0  0  0  0
   56.8203   32.7078   43.5988 H   0  0  0  0  0  0  0  0  0  0  0  0
   56.6891   30.2223   43.7044 H   0  0  0  0  0  0  0  0  0  0  0  0
   58.3272   30.8335   43.2898 H   0  0  0  0  0  0  0  0  0  0  0  0
   55.7686   28.7709   45.5998 H   0  0  0  0  0  0  0  0  0  0  0  0
  1  2  1  0
  2  3  2  0
  2  4  2  0
  2  5  1  0
  5  6  1  0
  6  7  2  0
  7  8  1  0
  8  9  2  0
  9 10  1  0
 10 11  1  0
 11 12  1  0
 12 13  1  0
 13 14  1  0
 14 15  1  0
 15 16  1  0
 16 17  2  0
 17 18  1  0
 18 19  2  0
 19 20  1  0
 20 21  1  0
 21 22  1  0
 22 23  2  0
 23 24  1  0
 24 25  2  0
 25 26  1  0
 26 27  2  0
 19 28  1  0
 28 29  2  0
 14 30  1  0
 30 31  1  0
 10 32  2  0
 32  6  1  0
 31 11  1  0
 29 16  1  0
 27 22  1  0
  1 33  1  0
  1 34  1  0
  1 35  1  0
  7 36  1  0
  8 37  1  0
  9 38  1  0
 12 39  1  0
 12 40  1  0
 13 41  1  0
 13 42  1  0
 15 43  1  0
 15 44  1  0
 17 45  1  0
 18 46  1  0
 21 47  1  0
 21 48  1  0
 23 49  1  0
 24 50  1  0
 25 51  1  0
 26 52  1  0
 27 53  1  0
 28 54  1  0
 29 55  1  0
 30 56  1  0
 30 57  1  0
 31 58  1  0
 31 59  1  0
 32 60  1  0
M  CHG  1   5  -1
M  END
>  <UniqueID>  (29) 
27

>  <SMILES>  (29) 
CS(=O)(=O)[N-]c1cccc(N2CCN(Cc3ccc(OCc4ccccc4)cc3)CC2)c1

>  <Energy>  (29) 
72.03462086458634

>  <Genealogy>  (29) 
CS(=O)(=O)[N-]c1cccc(N2CCN(Cc3ccc(OCc4ccccc4)cc3)CC2)c1 (protonated)
CS(=O)(=O)[N-]c1cccc(N2CCN(Cc3ccc(OCc4ccccc4)cc3)CC2)c1 (3D coordinates assigned)
CS(=O)(=O)[N-]c1cccc(N2CCN(Cc3ccc(OCc4ccccc4)cc3)CC2)c1 (nonaromatic ring conformer: 72.03462086458634 kcal/mol)

>  <smiles>  (29) 
CS(=O)(=O)Nc1cccc(N2CCN(Cc3ccc(OCc4ccccc4)cc3)CC2)c1

>  <score_type>  (29) 
oracle

>  <origin>  (29) 
adg

>  <m_score__min__energy>  (29) 
-11.73

>  <m_primary>  (29) 
energy

$$$$
29:0
     RDKit          3D

 59 62  0  0  0  0  0  0  0  0999 V2000
   59.6420   35.5070   45.6080 C   0  0  0  0  0  0  0  0  0  0  0  0
   58.7390   34.9210   44.8170 C   0  0  0  0  0  0  0  0  0  0  0  0
   58.9000   33.5010   44.3500 C   0  0  0  0  0  0  0  0  0  0  0  0
   57.6000   32.7910   44.3000 N   0  0  0  0  0  0  0  0  0  0  0  0
   57.0430   32.5060   45.6430 C   0  0  0  0  0  0  0  0  0  0  0  0
   58.1330   32.4420   46.6640 C   0  0  0  0  0  0  0  0  0  0  0  0
   58.4890   33.4320   47.5520 C   0  0  0  0  0  0  0  0  0  0  0  0
   59.4210   32.8900   48.3540 N   0  0  0  0  0  0  0  0  0  0  0  0
   59.9680   33.4860   49.5660 C   0  0  0  0  0  0  0  0  0  0  0  0
   61.4700   33.4530   49.5060 C   0  0  0  0  0  0  0  0  0  0  0  0
   62.1270   33.3810   48.2690 C   0  0  0  0  0  0  0  0  0  0  0  0
   63.5190   33.2740   48.2130 C   0  0  0  0  0  0  0  0  0  0  0  0
   64.2750   33.2240   49.4010 C   0  0  0  0  0  0  0  0  0  0  0  0
   65.6730   33.1100   49.3980 O   0  0  0  0  0  0  0  0  0  0  0  0
   66.4280   32.4380   50.4000 C   0  0  0  0  0  0  0  0  0  0  0  0
   63.6150   33.2840   50.6330 C   0  0  0  0  0  0  0  0  0  0  0  0
   62.2220   33.3920   50.6880 C   0  0  0  0  0  0  0  0  0  0  0  0
   59.6140   31.6330   47.9880 N   0  0  0  0  0  0  0  0  0  0  0  0
   58.8440   31.3320   46.9520 N   0  0  0  0  0  0  0  0  0  0  0  0
   57.6700   31.5720   43.4570 C   0  0  0  0  0  0  0  0  0  0  0  0
   57.4540   30.2780   44.2290 C   0  0  0  0  0  0  0  0  0  0  0  0
   58.5610   29.5320   44.6680 C   0  0  0  0  0  0  0  0  0  0  0  0
   58.3750   28.3300   45.3600 C   0  0  0  0  0  0  0  0  0  0  0  0
   59.4650   27.5620   45.7930 C   0  0  0  0  0  0  0  0  0  0  0  0
   59.2500   26.3640   46.4800 C   0  0  0  0  0  0  0  0  0  0  0  0
   57.9390   25.9200   46.7450 C   0  0  0  0  0  0  0  0  0  0  0  0
   57.6750   24.7240   47.4310 O   0  0  0  0  0  0  0  0  0  0  0  0
   56.4790   23.9640   47.2900 C   0  0  0  0  0  0  0  0  0  0  0  0
   56.8530   26.6900   46.3120 C   0  0  0  0  0  0  0  0  0  0  0  0
   57.0640   27.8890   45.6230 C   0  0  0  0  0  0  0  0  0  0  0  0
   56.0040   28.6350   45.2130 N   0  0  0  0  0  0  0  0  0  0  0  0
   56.1610   29.8050   44.5380 C   0  0  0  0  0  0  0  0  0  0  0  0
   55.1380   30.4590   44.2040 O   0  0  0  0  0  0  0  0  0  0  0  0
   59.4957   36.5477   45.9328 H   0  0  0  0  0  0  0  0  0  0  0  0
   60.5318   34.9488   45.9345 H   0  0  0  0  0  0  0  0  0  0  0  0
   57.8545   35.4924   44.4990 H   0  0  0  0  0  0  0  0  0  0  0  0
   59.3434   33.5046   43.3433 H   0  0  0  0  0  0  0  0  0  0  0  0
   59.5508   32.9761   45.0648 H   0  0  0  0  0  0  0  0  0  0  0  0
   56.3370   33.3035   45.9179 H   0  0  0  0  0  0  0  0  0  0  0  0
   56.5282   31.5343   45.6136 H   0  0  0  0  0  0  0  0  0  0  0  0
   58.0918   34.4568   47.5960 H   0  0  0  0  0  0  0  0  0  0  0  0
   59.6270   34.5286   49.6482 H   0  0  0  0  0  0  0  0  0  0  0  0
   59.6231   32.9176   50.4424 H   0  0  0  0  0  0  0  0  0  0  0  0
   61.5429   33.4089   47.3373 H   0  0  0  0  0  0  0  0  0  0  0  0
   64.0264   33.2286   47.2381 H   0  0  0  0  0  0  0  0  0  0  0  0
   66.0771   32.7503   51.3947 H   0  0  0  0  0  0  0  0  0  0  0  0
   66.2981   31.3513   50.2899 H   0  0  0  0  0  0  0  0  0  0  0  0
   67.4923   32.6930   50.2899 H   0  0  0  0  0  0  0  0  0  0  0  0
   64.1965   33.2459   51.5659 H   0  0  0  0  0  0  0  0  0  0  0  0
   61.7138   33.4293   51.6628 H   0  0  0  0  0  0  0  0  0  0  0  0
   56.8968   31.6442   42.6779 H   0  0  0  0  0  0  0  0  0  0  0  0
   58.6865   31.5297   43.0387 H   0  0  0  0  0  0  0  0  0  0  0  0
   59.5796   29.8950   44.4665 H   0  0  0  0  0  0  0  0  0  0  0  0
   60.4913   27.9029   45.5917 H   0  0  0  0  0  0  0  0  0  0  0  0
   60.1089   25.7643   46.8157 H   0  0  0  0  0  0  0  0  0  0  0  0
   56.0844   23.7132   48.2857 H   0  0  0  0  0  0  0  0  0  0  0  0
   55.7327   24.5539   46.7377 H   0  0  0  0  0  0  0  0  0  0  0  0
   56.6961   23.0378   46.7377 H   0  0  0  0  0  0  0  0  0  0  0  0
   55.8268   26.3499   46.5149 H   0  0  0  0  0  0  0  0  0  0  0  0
  1  2  2  0
  2  3  1  0
  3  4  1  0
  4  5  1  0
  5  6  1  0
  6  7  2  0
  7  8  1  0
  8  9  1  0
  9 10  1  0
 10 11  2  0
 11 12  1  0
 12 13  2  0
 13 14  1  0
 14 15  1  0
 13 16  1  0
 16 17  2  0
  8 18  1  0
 18 19  2  0
  4 20  1  0
 20 21  1  0
 21 22  2  0
 22 23  1  0
 23 24  2  0
 24 25  1  0
 25 26  2  0
 26 27  1  0
 27 28  1  0
 26 29  1  0
 29 30  2  0
 30 31  1  0
 31 32  1  0
 32 33  2  0
 19  6  1  0
 32 21  1  0
 17 10  1  0
 30 23  1  0
  1 34  1  0
  1 35  1  0
  2 36  1  0
  3 37  1  0
  3 38  1  0
  5 39  1  0
  5 40  1  0
  7 41  1  0
  9 42  1  0
  9 43  1  0
 11 44  1  0
 12 45  1  0
 15 46  1  0
 15 47  1  0
 15 48  1  0
 16 49  1  0
 17 50  1  0
 20 51  1  0
 20 52  1  0
 22 53  1  0
 24 54  1  0
 25 55  1  0
 28 56  1  0
 28 57  1  0
 28 58  1  0
 29 59  1  0
M  CHG  1  31  -1
M  END
>  <UniqueID>  (30) 
28

>  <SMILES>  (30) 
C=CCN(Cc1cn(Cc2ccc(OC)cc2)nn1)Cc1cc2ccc(OC)cc2[n-]c1=O

>  <Energy>  (30) 
97.65663016834353

>  <Genealogy>  (30) 
C=CCN(Cc1cn(Cc2ccc(OC)cc2)nn1)Cc1cc2ccc(OC)cc2[n-]c1=O (protonated)
C=CCN(Cc1cn(Cc2ccc(OC)cc2)nn1)Cc1cc2ccc(OC)cc2[n-]c1=O (3D coordinates assigned)
C=CCN(Cc1cn(Cc2ccc(OC)cc2)nn1)Cc1cc2ccc(OC)cc2[n-]c1=O (optimized conformer: 97.65663016834353 kcal/mol)

>  <smiles>  (30) 
C=CCN(Cc1cn(Cc2ccc(OC)cc2)nn1)Cc1cc2ccc(OC)cc2[nH]c1=O

>  <score_type>  (30) 
oracle

>  <origin>  (30) 
adg

>  <m_score__min__energy>  (30) 
-11.68

>  <m_primary>  (30) 
energy

$$$$
30:0
     RDKit          3D

 60 63  0  0  0  0  0  0  0  0999 V2000
   62.1220   31.8110   46.9360 H   0  0  0  0  0  0  0  0  0  0  0  0
   61.1140   31.9090   46.9170 O   0  0  0  0  0  0  0  0  0  0  0  0
   60.2790   31.4280   47.9280 C   0  0  0  0  0  0  0  0  0  0  0  0
   60.2870   30.0530   48.1870 C   0  0  0  0  0  0  0  0  0  0  0  0
   60.9356   29.3910   47.5945 H   0  0  0  0  0  0  0  0  0  0  0  0
   59.4800   29.5130   49.1900 C   0  0  0  0  0  0  0  0  0  0  0  0
   59.5046   28.4316   49.3901 H   0  0  0  0  0  0  0  0  0  0  0  0
   58.6420   30.3400   49.9400 C   0  0  0  0  0  0  0  0  0  0  0  0
   57.7890   29.7560   50.9310 N   0  0  0  0  0  0  0  0  0  0  0  0
   56.9980   30.6590   52.1900 S   0  0  0  0  0  0  0  0  0  0  0  0
   55.7020   31.2090   51.6600 O   0  0  0  0  0  0  0  0  0  0  0  0
   56.6930   29.7320   53.3360 O   0  0  0  0  0  0  0  0  0  0  0  0
   57.9890   31.9960   52.7760 C   0  0  0  0  0  0  0  0  0  0  0  0
   59.0030   31.7530   53.7150 C   0  0  0  0  0  0  0  0  0  0  0  0
   59.2171   30.7237   54.0387 H   0  0  0  0  0  0  0  0  0  0  0  0
   59.7420   32.8190   54.2400 C   0  0  0  0  0  0  0  0  0  0  0  0
   60.5326   32.6266   54.9802 H   0  0  0  0  0  0  0  0  0  0  0  0
   59.4780   34.1280   53.8260 C   0  0  0  0  0  0  0  0  0  0  0  0
   60.0578   34.9646   54.2430 H   0  0  0  0  0  0  0  0  0  0  0  0
   58.4770   34.3730   52.8820 C   0  0  0  0  0  0  0  0  0  0  0  0
   58.2739   35.4023   52.5514 H   0  0  0  0  0  0  0  0  0  0  0  0
   57.7330   33.3110   52.3570 C   0  0  0  0  0  0  0  0  0  0  0  0
   56.9457   33.5069   51.6142 H   0  0  0  0  0  0  0  0  0  0  0  0
   58.6650   31.7250   49.7240 C   0  0  0  0  0  0  0  0  0  0  0  0
   58.0584   32.3843   50.3623 H   0  0  0  0  0  0  0  0  0  0  0  0
   59.4550   32.2830   48.7000 C   0  0  0  0  0  0  0  0  0  0  0  0
   59.3490   33.7280   48.3870 C   0  0  0  0  0  0  0  0  0  0  0  0
   58.4985   34.2939   48.7951 H   0  0  0  0  0  0  0  0  0  0  0  0
   60.2450   34.3750   47.6280 C   0  0  0  0  0  0  0  0  0  0  0  0
   61.2506   34.5588   48.0341 H   0  0  0  0  0  0  0  0  0  0  0  0
   59.9290   34.8490   46.2670 C   0  0  0  0  0  0  0  0  0  0  0  0
   59.9970   36.0780   45.9910 O   0  0  0  0  0  0  0  0  0  0  0  0
   59.5400   33.8720   45.2300 C   0  0  0  0  0  0  0  0  0  0  0  0
   60.3090   33.2080   44.8084 H   0  0  0  0  0  0  0  0  0  0  0  0
   58.2780   33.7690   44.7860 C   0  0  0  0  0  0  0  0  0  0  0  0
   57.6283   34.6525   44.8714 H   0  0  0  0  0  0  0  0  0  0  0  0
   57.7020   32.5370   44.1860 C   0  0  0  0  0  0  0  0  0  0  0  0
   57.7780   32.3770   42.7940 C   0  0  0  0  0  0  0  0  0  0  0  0
   58.2700   33.1477   42.1826 H   0  0  0  0  0  0  0  0  0  0  0  0
   57.2340   31.2470   42.1780 C   0  0  0  0  0  0  0  0  0  0  0  0
   57.2827   31.1414   41.0842 H   0  0  0  0  0  0  0  0  0  0  0  0
   56.6290   30.2520   42.9470 C   0  0  0  0  0  0  0  0  0  0  0  0
   56.1874   29.3730   42.4547 H   0  0  0  0  0  0  0  0  0  0  0  0
   56.5810   30.3660   44.3400 C   0  0  0  0  0  0  0  0  0  0  0  0
   55.9320   29.3280   45.0890 N   0  0  0  0  0  0  0  0  0  0  0  0
   56.4810   28.0530   45.4460 C   0  0  0  0  0  0  0  0  0  0  0  0
   55.7150   27.0750   45.6680 O   0  0  0  0  0  0  0  0  0  0  0  0
   57.9450   27.9000   45.6200 C   0  0  0  0  0  0  0  0  0  0  0  0
   58.8390   28.4690   44.6900 C   0  0  0  0  0  0  0  0  0  0  0  0
   58.4480   29.0295   43.8280 H   0  0  0  0  0  0  0  0  0  0  0  0
   60.2200   28.3250   44.8570 C   0  0  0  0  0  0  0  0  0  0  0  0
   60.9105   28.7725   44.1270 H   0  0  0  0  0  0  0  0  0  0  0  0
   60.7250   27.6140   45.9490 C   0  0  0  0  0  0  0  0  0  0  0  0
   61.8117   27.5024   46.0779 H   0  0  0  0  0  0  0  0  0  0  0  0
   59.8490   27.0450   46.8770 C   0  0  0  0  0  0  0  0  0  0  0  0
   60.2473   26.4841   47.7353 H   0  0  0  0  0  0  0  0  0  0  0  0
   58.4670   27.1870   46.7170 C   0  0  0  0  0  0  0  0  0  0  0  0
   57.7830   26.7389   47.4527 H   0  0  0  0  0  0  0  0  0  0  0  0
   57.1060   31.5180   44.9590 C   0  0  0  0  0  0  0  0  0  0  0  0
   57.0508   31.6236   46.0525 H   0  0  0  0  0  0  0  0  0  0  0  0
  1  2  1  0
  2  3  1  0
  3  4  2  0
  4  5  1  0
  4  6  1  0
  6  7  1  0
  6  8  2  0
  8  9  1  0
  9 10  1  0
 10 11  2  0
 10 12  2  0
 10 13  1  0
 13 14  2  0
 14 15  1  0
 14 16  1  0
 16 17  1  0
 16 18  2  0
 18 19  1  0
 18 20  1  0
 20 21  1  0
 20 22  2  0
 22 23  1  0
  8 24  1  0
 24 25  1  0
 24 26  2  0
 26 27  1  0
 27 28  1  0
 27 29  2  0
 29 30  1  0
 29 31  1  0
 31 32  2  0
 31 33  1  0
 33 34  1  0
 33 35  2  0
 35 36  1  0
 35 37  1  0
 37 38  2  0
 38 39  1  0
 38 40  1  0
 40 41  1  0
 40 42  2  0
 42 43  1  0
 42 44  1  0
 44 45  1  0
 45 46  1  0
 46 47  2  0
 46 48  1  0
 48 49  2  0
 49 50  1  0
 49 51  1  0
 51 52  1  0
 51 53  2  0
 53 54  1  0
 53 55  1  0
 55 56  1  0
 55 57  2  0
 57 58  1  0
 44 59  2  0
 59 60  1  0
 26  3  1  0
 59 37  1  0
 22 13  1  0
 57 48  1  0
M  CHG  2   9  -1  45  -1
M  END
>  <UniqueID>  (31) 
29

>  <SMILES>  (31) 
O=C(/C=C/c1cccc([N-]C(=O)c2ccccc2)c1)/C=C/c1cc([N-]S(=O)(=O)c2ccccc2)ccc1O

>  <Energy>  (31) 
82.47288227869595

>  <Genealogy>  (31) 
O=C(C=Cc1cccc([N-]C(=O)c2ccccc2)c1)C=Cc1cc([N-]S(=O)(=O)c2ccccc2)ccc1O (protonated)
O=C(/C=C/c1cccc([N-]C(=O)c2ccccc2)c1)/C=C/c1cc([N-]S(=O)(=O)c2ccccc2)ccc1O (cis-trans isomerization)
O=C(/C=C/c1cccc([N-]C(=O)c2ccccc2)c1)/C=C/c1cc([N-]S(=O)(=O)c2ccccc2)ccc1O (3D coordinates assigned)
O=C(/C=C/c1cccc([N-]C(=O)c2ccccc2)c1)/C=C/c1cc([N-]S(=O)(=O)c2ccccc2)ccc1O (optimized conformer: 82.47288227869595 kcal/mol)

>  <smiles>  (31) 
O=C(C=Cc1cccc(NC(=O)c2ccccc2)c1)C=Cc1cc(NS(=O)(=O)c2ccccc2)ccc1O

>  <score_type>  (31) 
oracle

>  <origin>  (31) 
adg

>  <m_score__min__energy>  (31) 
-13.359999999999999

>  <m_primary>  (31) 
energy

$$$$
31:0
     RDKit          3D

 57 60  0  0  1  0  0  0  0  0999 V2000
   52.9940   30.8750   51.2790 C   0  0  0  0  0  0  0  0  0  0  0  0
   54.0750   30.6530   52.3420 C   0  0  0  0  0  0  0  0  0  0  0  0
   55.1530   30.0420   51.6890 O   0  0  0  0  0  0  0  0  0  0  0  0
   56.4760   30.4820   51.8510 C   0  0  0  0  0  0  0  0  0  0  0  0
   57.3680   29.6430   51.9810 O   0  0  0  0  0  0  0  0  0  0  0  0
   56.6470   31.8960   51.8430 N   0  0  0  0  0  0  0  0  0  0  0  0
   57.9020   32.5450   51.9940 C   0  0  0  0  0  0  0  0  0  0  0  0
   58.0670   33.6790   52.7470 C   0  0  0  0  0  0  0  0  0  0  0  0
   59.3490   34.2120   52.8470 C   0  0  0  0  0  0  0  0  0  0  0  0
   60.4410   33.6390   52.2150 C   0  0  0  0  0  0  0  0  0  0  0  0
   60.2670   32.4840   51.4460 C   0  0  0  0  0  0  0  0  0  0  0  0
   61.3200   31.8130   50.7500 C   0  0  0  0  0  0  0  0  0  0  0  0
   62.3300   32.5430   50.4200 O   0  0  0  0  0  0  0  0  0  0  0  0
   61.4040   30.4650   50.3760 N   0  0  0  0  0  0  0  0  0  0  0  0
   60.7420   29.9200   49.4270 C   0  0  0  0  0  0  0  0  0  0  0  0
   60.6430   28.6390   49.0340 N   0  0  0  0  0  0  0  0  0  0  0  0
   59.8600   28.3480   48.0390 C   0  0  0  0  0  0  0  0  0  0  0  0
   59.1510   29.2940   47.3980 C   0  0  0  0  0  0  0  0  0  0  0  0
   58.2370   29.1650   46.3080 C   0  0  0  0  0  0  0  0  0  0  0  0
   58.0190   30.2730   45.3950 C   0  0  0  0  0  0  0  0  0  0  0  0
   57.6720   30.0200   44.0780 C   0  0  0  0  0  0  0  0  0  0  0  0
   57.4130   31.0420   43.2080 C   0  0  0  0  0  0  0  0  0  0  0  0
   57.4810   32.3660   43.5900 C   0  0  0  0  0  0  0  0  0  0  0  0
   57.8250   32.6440   44.9000 C   0  0  0  0  0  0  0  0  0  0  0  0
   57.8340   34.0470   45.3020 C   0  0  0  0  0  0  0  0  0  0  0  0
   56.6740   34.6020   45.2740 O   0  0  0  0  0  0  0  0  0  0  0  0
   58.9820   34.7710   45.6990 N   0  0  0  0  0  0  0  0  0  0  0  0
   59.8200   34.3750   46.5920 C   0  0  0  0  0  0  0  0  0  0  0  0
   60.9430   33.6080   46.3410 C   0  0  0  0  0  0  0  0  0  0  0  0
   61.6060   33.4060   47.5450 C   0  0  0  0  0  0  0  0  0  0  0  0
   60.8760   34.0480   48.4950 N   0  0  0  0  0  0  0  0  0  0  0  0
   59.8150   34.6240   47.9290 N   0  0  0  0  0  0  0  0  0  0  0  0
   58.0850   31.6040   45.7610 C   0  0  0  0  0  0  0  0  0  0  0  0
   59.6280   30.8120   48.2880 S   0  0  0  0  0  0  0  0  0  0  0  0
   58.9800   31.9340   51.3370 C   0  0  0  0  0  0  0  0  0  0  0  0
   52.0306   31.0729   51.7716 H   0  0  0  0  0  0  0  0  0  0  0  0
   53.2684   31.7355   50.6512 H   0  0  0  0  0  0  0  0  0  0  0  0
   52.9070   29.9760   50.6512 H   0  0  0  0  0  0  0  0  0  0  0  0
   54.3876   31.6154   52.7733 H   0  0  0  0  0  0  0  0  0  0  0  0
   53.7013   30.0270   53.1657 H   0  0  0  0  0  0  0  0  0  0  0  0
   55.8190   32.5500   51.7250 H   0  0  0  0  0  0  0  0  0  0  0  0
   57.2140   34.1521   53.2555 H   0  0  0  0  0  0  0  0  0  0  0  0
   59.5006   35.1201   53.4490 H   0  0  0  0  0  0  0  0  0  0  0  0
   61.4390   34.0901   52.3176 H   0  0  0  0  0  0  0  0  0  0  0  0
   61.2200   27.9030   49.5640 H   0  0  0  0  0  0  0  0  0  0  0  0
   59.7748   27.3010   47.7125 H   0  0  0  0  0  0  0  0  0  0  0  0
   58.5896   28.3194   45.6992 H   0  0  0  0  0  0  0  0  0  0  0  0
   57.2641   29.0634   46.8111 H   0  0  0  0  0  0  0  0  0  0  0  0
   57.6038   28.9799   43.7266 H   0  0  0  0  0  0  0  0  0  0  0  0
   57.1415   30.8010   42.1696 H   0  0  0  0  0  0  0  0  0  0  0  0
   57.2683   33.1746   42.8752 H   0  0  0  0  0  0  0  0  0  0  0  0
   61.2567   33.2246   45.3589 H   0  0  0  0  0  0  0  0  0  0  0  0
   62.5362   32.8395   47.6988 H   0  0  0  0  0  0  0  0  0  0  0  0
   61.1090   34.0920   49.5150 H   0  0  0  0  0  0  0  0  0  0  0  0
   59.0890   35.1900   48.4610 H   0  0  0  0  0  0  0  0  0  0  0  0
   58.3607   31.8447   46.7983 H   0  0  0  0  0  0  0  0  0  0  0  0
   58.8174   31.0260   50.7377 H   0  0  0  0  0  0  0  0  0  0  0  0
  1  2  1  0
  2  3  1  0
  3  4  1  0
  4  5  2  0
  4  6  1  0
  6  7  1  0
  7  8  2  0
  8  9  1  0
  9 10  2  0
 10 11  1  0
 11 12  1  0
 12 13  2  0
 12 14  1  0
 14 15  2  0
 15 16  1  0
 16 17  1  0
 17 18  2  0
 18 19  1  0
 19 20  1  0
 20 21  2  0
 21 22  1  0
 22 23  2  0
 23 24  1  0
 24 25  1  0
 25 26  2  0
 25 27  1  0
 27 28  2  0
 28 29  1  0
 29 30  2  0
 30 31  1  0
 31 32  1  0
 24 33  2  0
 18 34  1  0
 11 35  2  0
 35  7  1  0
 34 15  1  0
 33 20  1  0
 32 28  1  0
  1 36  1  0
  1 37  1  0
  1 38  1  0
  2 39  1  0
  2 40  1  0
  6 41  1  0
  8 42  1  0
  9 43  1  0
 10 44  1  0
 16 45  1  0
 17 46  1  0
 19 47  1  0
 19 48  1  0
 21 49  1  0
 22 50  1  0
 23 51  1  0
 29 52  1  0
 30 53  1  0
 31 54  1  0
 32 55  1  0
 33 56  1  0
 35 57  1  0
M  END
>  <smiles>  (32) 
CCOC(=O)Nc1cccc(C(=O)N=c2[nH]cc(Cc3cccc(C(=O)N=c4cc[nH][nH]4)c3)s2)c1

>  <score_type>  (32) 
oracle

>  <origin>  (32) 
adg

>  <m_score__min__energy>  (32) 
-10.140000000000001

>  <m_primary>  (32) 
energy

$$$$
32:0
     RDKit          3D

 49 52  0  0  0  0  0  0  0  0999 V2000
   55.2790   30.7950   54.6070 O   0  0  0  0  0  0  0  0  0  0  0  0
   55.4260   30.3110   53.4520 C   0  0  0  0  0  0  0  0  0  0  0  0
   54.5240   29.3010   52.9840 N   0  0  0  0  0  0  0  0  0  0  0  0
   53.0800   29.3500   53.1850 C   0  0  0  0  0  0  0  0  0  0  0  0
   52.4400   30.2420   52.1580 C   0  0  0  0  0  0  0  0  0  0  0  0
   52.4050   29.8660   50.8050 C   0  0  0  0  0  0  0  0  0  0  0  0
   51.7890   30.6930   49.8600 C   0  0  0  0  0  0  0  0  0  0  0  0
   51.2020   31.8980   50.2580 C   0  0  0  0  0  0  0  0  0  0  0  0
   50.5930   32.7140   49.3120 O   0  0  0  0  0  0  0  0  0  0  0  0
   51.2280   32.2770   51.6050 C   0  0  0  0  0  0  0  0  0  0  0  0
   50.6420   33.4720   52.0060 O   0  0  0  0  0  0  0  0  0  0  0  0
   51.8430   31.4510   52.5520 C   0  0  0  0  0  0  0  0  0  0  0  0
   56.5320   30.7820   52.5850 C   0  0  0  0  0  0  0  0  0  0  0  0
   56.7600   32.1570   52.3980 C   0  0  0  0  0  0  0  0  0  0  0  0
   57.8030   32.6030   51.5820 C   0  0  0  0  0  0  0  0  0  0  0  0
   58.6420   31.6770   50.9370 C   0  0  0  0  0  0  0  0  0  0  0  0
   59.7020   32.0750   50.1040 C   0  0  0  0  0  0  0  0  0  0  0  0
   59.9190   33.3060   49.9190 O   0  0  0  0  0  0  0  0  0  0  0  0
   60.4900   31.1310   49.4880 N   0  0  0  0  0  0  0  0  0  0  0  0
   61.5710   31.5420   48.5670 C   0  0  0  0  0  0  0  0  0  0  0  0
   61.1300   31.4230   47.1000 C   0  0  0  0  0  0  0  0  0  0  0  0
   60.0430   32.4110   46.7640 C   0  0  0  0  0  0  0  0  0  0  0  0
   60.3450   33.7760   46.6190 C   0  0  0  0  0  0  0  0  0  0  0  0
   59.3450   34.6820   46.2530 C   0  0  0  0  0  0  0  0  0  0  0  0
   58.0410   34.2330   46.0280 C   0  0  0  0  0  0  0  0  0  0  0  0
   57.7350   32.8760   46.1650 C   0  0  0  0  0  0  0  0  0  0  0  0
   58.7310   31.9660   46.5290 C   0  0  0  0  0  0  0  0  0  0  0  0
   60.2380   29.7970   49.6920 C   0  0  0  0  0  0  0  0  0  0  0  0
   60.9440   28.9140   49.1330 O   0  0  0  0  0  0  0  0  0  0  0  0
   59.2190   29.4040   50.4970 N   0  0  0  0  0  0  0  0  0  0  0  0
   58.4190   30.3030   51.1200 C   0  0  0  0  0  0  0  0  0  0  0  0
   57.3740   29.8590   51.9370 C   0  0  0  0  0  0  0  0  0  0  0  0
   52.6661   28.3350   53.0925 H   0  0  0  0  0  0  0  0  0  0  0  0
   52.8718   29.7520   54.1875 H   0  0  0  0  0  0  0  0  0  0  0  0
   52.8636   28.9179   50.4876 H   0  0  0  0  0  0  0  0  0  0  0  0
   51.7663   30.3948   48.8014 H   0  0  0  0  0  0  0  0  0  0  0  0
   51.8591   31.7498   53.6105 H   0  0  0  0  0  0  0  0  0  0  0  0
   56.1103   32.8894   52.8995 H   0  0  0  0  0  0  0  0  0  0  0  0
   57.9682   33.6817   51.4438 H   0  0  0  0  0  0  0  0  0  0  0  0
   61.8417   32.5875   48.7761 H   0  0  0  0  0  0  0  0  0  0  0  0
   62.4333   30.8776   48.7253 H   0  0  0  0  0  0  0  0  0  0  0  0
   61.9973   31.6123   46.4504 H   0  0  0  0  0  0  0  0  0  0  0  0
   60.7334   30.4092   46.9418 H   0  0  0  0  0  0  0  0  0  0  0  0
   61.3708   34.1324   46.7939 H   0  0  0  0  0  0  0  0  0  0  0  0
   59.5851   35.7497   46.1420 H   0  0  0  0  0  0  0  0  0  0  0  0
   57.2550   34.9478   45.7429 H   0  0  0  0  0  0  0  0  0  0  0  0
   56.7084   32.5239   45.9860 H   0  0  0  0  0  0  0  0  0  0  0  0
   58.4873   30.8983   46.6319 H   0  0  0  0  0  0  0  0  0  0  0  0
   57.2090   28.7801   52.0741 H   0  0  0  0  0  0  0  0  0  0  0  0
  1  2  2  0
  2  3  1  0
  3  4  1  0
  4  5  1  0
  5  6  2  0
  6  7  1  0
  7  8  2  0
  8  9  1  0
  8 10  1  0
 10 11  1  0
 10 12  2  0
  2 13  1  0
 13 14  2  0
 14 15  1  0
 15 16  2  0
 16 17  1  0
 17 18  2  0
 17 19  1  0
 19 20  1  0
 20 21  1  0
 21 22  1  0
 22 23  2  0
 23 24  1  0
 24 25  2  0
 25 26  1  0
 26 27  2  0
 19 28  1  0
 28 29  2  0
 28 30  1  0
 30 31  1  0
 31 32  2  0
 12  5  1  0
 32 13  1  0
 31 16  1  0
 27 22  1  0
  4 33  1  0
  4 34  1  0
  6 35  1  0
  7 36  1  0
 12 37  1  0
 14 38  1  0
 15 39  1  0
 20 40  1  0
 20 41  1  0
 21 42  1  0
 21 43  1  0
 23 44  1  0
 24 45  1  0
 25 46  1  0
 26 47  1  0
 27 48  1  0
 32 49  1  0
M  CHG  4   3  -1   9  -1  11  -1  30  -1
M  END
>  <UniqueID>  (33) 
30

>  <SMILES>  (33) 
O=C([N-]Cc1ccc([O-])c([O-])c1)c1ccc2c(=O)n(CCc3ccccc3)c(=O)[n-]c2c1

>  <Energy>  (33) 
57.018280297335096

>  <Genealogy>  (33) 
O=C([N-]Cc1ccc([O-])c([O-])c1)c1ccc2c(=O)n(CCc3ccccc3)c(=O)[n-]c2c1 (protonated)
O=C([N-]Cc1ccc([O-])c([O-])c1)c1ccc2c(=O)n(CCc3ccccc3)c(=O)[n-]c2c1 (3D coordinates assigned)
O=C([N-]Cc1ccc([O-])c([O-])c1)c1ccc2c(=O)n(CCc3ccccc3)c(=O)[n-]c2c1 (optimized conformer: 57.018280297335096 kcal/mol)

>  <smiles>  (33) 
O=C(NCc1ccc(O)c(O)c1)c1ccc2c(=O)n(CCc3ccccc3)c(=O)[nH]c2c1

>  <score_type>  (33) 
oracle

>  <origin>  (33) 
adg

>  <m_score__min__energy>  (33) 
-20.23

>  <m_primary>  (33) 
energy

$$$$
33:0
     RDKit          3D

 55 58  0  0  0  0  0  0  0  0999 V2000
   54.9390   31.4480   52.3560 C   0  0  0  0  0  0  0  0  0  0  0  0
   54.9000   30.2190   52.8950 C   0  0  0  0  0  0  0  0  0  0  0  0
   53.9430   29.2160   52.6570 C   0  0  0  0  0  0  0  0  0  0  0  0
   52.7790   29.2420   51.9780 C   0  0  0  0  0  0  0  0  0  0  0  0
   52.0190   30.4480   51.6200 C   0  0  0  0  0  0  0  0  0  0  0  0
   51.7620   31.4460   52.4830 N   0  0  0  0  0  0  0  0  0  0  0  0
   51.1440   32.3690   51.7160 C   0  0  0  0  0  0  0  0  0  0  0  0
   50.7280   33.4640   52.1780 O   0  0  0  0  0  0  0  0  0  0  0  0
   51.0170   32.0340   50.4150 N   0  0  0  0  0  0  0  0  0  0  0  0
   51.5870   30.8200   50.3630 C   0  0  0  0  0  0  0  0  0  0  0  0
   51.7250   30.0880   49.1860 O   0  0  0  0  0  0  0  0  0  0  0  0
   54.4020   28.0830   53.3050 C   0  0  0  0  0  0  0  0  0  0  0  0
   55.5740   28.4300   53.9430 C   0  0  0  0  0  0  0  0  0  0  0  0
   56.3590   27.5060   54.8260 C   0  0  0  0  0  0  0  0  0  0  0  0
   55.8770   29.7270   53.7050 N   0  0  0  0  0  0  0  0  0  0  0  0
   57.0790   30.4350   54.1790 C   0  0  0  0  0  0  0  0  0  0  0  0
   57.8640   31.0060   53.0250 C   0  0  0  0  0  0  0  0  0  0  0  0
   58.3070   30.1710   51.9870 C   0  0  0  0  0  0  0  0  0  0  0  0
   59.0310   30.6970   50.9140 C   0  0  0  0  0  0  0  0  0  0  0  0
   59.3150   32.0720   50.8480 C   0  0  0  0  0  0  0  0  0  0  0  0
   60.0670   32.6140   49.7400 N   0  0  0  0  0  0  0  0  0  0  0  0
   61.4460   33.0900   49.9430 C   0  0  0  0  0  0  0  0  0  0  0  0
   61.7820   34.2080   48.9490 C   0  0  0  0  0  0  0  0  0  0  0  0
   61.5700   33.7760   47.4750 C   0  0  0  0  0  0  0  0  0  0  0  0
   62.8740   33.4080   46.8190 C   0  0  0  0  0  0  0  0  0  0  0  0
   63.5000   32.1650   47.1250 N   0  0  0  0  0  0  0  0  0  0  0  0
   63.4320   34.2050   46.0170 O   0  0  0  0  0  0  0  0  0  0  0  0
   60.5540   32.6210   47.3170 C   0  0  0  0  0  0  0  0  0  0  0  0
   59.4680   32.6680   48.3970 C   0  0  0  0  0  0  0  0  0  0  0  0
   58.8560   32.9090   51.8810 C   0  0  0  0  0  0  0  0  0  0  0  0
   58.1350   32.3830   52.9560 C   0  0  0  0  0  0  0  0  0  0  0  0
   55.7477   32.1424   52.6278 H   0  0  0  0  0  0  0  0  0  0  0  0
   54.1623   31.7606   51.6425 H   0  0  0  0  0  0  0  0  0  0  0  0
   52.3605   28.2744   51.6638 H   0  0  0  0  0  0  0  0  0  0  0  0
   51.9890   29.1120   49.1980 H   0  0  0  0  0  0  0  0  0  0  0  0
   53.9227   27.0929   53.3102 H   0  0  0  0  0  0  0  0  0  0  0  0
   56.1556   27.7454   55.8802 H   0  0  0  0  0  0  0  0  0  0  0  0
   56.0641   26.4660   54.6227 H   0  0  0  0  0  0  0  0  0  0  0  0
   57.4330   27.6290   54.6227 H   0  0  0  0  0  0  0  0  0  0  0  0
   56.7734   31.2546   54.8460 H   0  0  0  0  0  0  0  0  0  0  0  0
   57.7180   29.7178   54.7150 H   0  0  0  0  0  0  0  0  0  0  0  0
   58.0824   29.0946   52.0187 H   0  0  0  0  0  0  0  0  0  0  0  0
   59.3819   30.0290   50.1136 H   0  0  0  0  0  0  0  0  0  0  0  0
   61.5485   33.4749   50.9684 H   0  0  0  0  0  0  0  0  0  0  0  0
   62.1386   32.2509   49.7809 H   0  0  0  0  0  0  0  0  0  0  0  0
   61.1359   35.0730   49.1594 H   0  0  0  0  0  0  0  0  0  0  0  0
   62.8459   34.4577   49.0742 H   0  0  0  0  0  0  0  0  0  0  0  0
   61.1440   34.6537   46.9668 H   0  0  0  0  0  0  0  0  0  0  0  0
   64.5360   32.0550   47.0590 H   0  0  0  0  0  0  0  0  0  0  0  0
   60.0772   32.6987   46.3287 H   0  0  0  0  0  0  0  0  0  0  0  0
   61.0978   31.6703   47.4195 H   0  0  0  0  0  0  0  0  0  0  0  0
   58.8965   33.6022   48.2939 H   0  0  0  0  0  0  0  0  0  0  0  0
   58.8055   31.7991   48.2702 H   0  0  0  0  0  0  0  0  0  0  0  0
   59.0667   33.9879   51.8422 H   0  0  0  0  0  0  0  0  0  0  0  0
   57.7773   33.0511   53.7533 H   0  0  0  0  0  0  0  0  0  0  0  0
  1  2  2  0
  2  3  1  0
  3  4  2  3
  4  5  1  0
  5  6  1  0
  6  7  1  0
  7  8  2  0
  7  9  1  0
  9 10  1  0
 10 11  1  0
  3 12  1  0
 12 13  2  0
 13 14  1  0
 13 15  1  0
 15 16  1  0
 16 17  1  0
 17 18  2  0
 18 19  1  0
 19 20  2  0
 20 21  1  0
 21 22  1  0
 22 23  1  0
 23 24  1  0
 24 25  1  0
 25 26  1  0
 25 27  2  0
 24 28  1  0
 28 29  1  0
 20 30  1  0
 30 31  2  0
 15  2  1  0
 31 17  1  0
 10  5  2  0
 29 21  1  0
  1 32  1  0
  1 33  1  0
  4 34  1  0
 11 35  1  0
 12 36  1  0
 14 37  1  0
 14 38  1  0
 14 39  1  0
 16 40  1  0
 16 41  1  0
 18 42  1  0
 19 43  1  0
 22 44  1  0
 22 45  1  0
 23 46  1  0
 23 47  1  0
 24 48  1  0
 26 49  1  0
 28 50  1  0
 28 51  1  0
 29 52  1  0
 29 53  1  0
 30 54  1  0
 31 55  1  0
M  CHG  3   6  -1   9  -1  26  -1
M  END
>  <UniqueID>  (34) 
31

>  <SMILES>  (34) 
C=c1c(=Cc2[n-]c(=O)[n-]c2O)cc(C)n1Cc1ccc(N2CCC(C([NH-])=O)CC2)cc1

>  <Energy>  (34) 
130.57787945201508

>  <Genealogy>  (34) 
C=c1c(=Cc2[n-]c(=O)[n-]c2O)cc(C)n1Cc1ccc(N2CCC(C([NH-])=O)CC2)cc1 (protonated)
C=c1c(=Cc2[n-]c(=O)[n-]c2O)cc(C)n1Cc1ccc(N2CCC(C([NH-])=O)CC2)cc1 (3D coordinates assigned)
C=c1c(=Cc2[n-]c(=O)[n-]c2O)cc(C)n1Cc1ccc(N2CCC(C([NH-])=O)CC2)cc1 (nonaromatic ring conformer: 130.57787945201508 kcal/mol)

>  <smiles>  (34) 
C=c1c(=Cc2[nH]c(=O)[nH]c2O)cc(C)n1Cc1ccc(N2CCC(C(N)=O)CC2)cc1

>  <score_type>  (34) 
oracle

>  <origin>  (34) 
adg

>  <m_score__min__energy>  (34) 
-14.08

>  <m_primary>  (34) 
energy

$$$$
34:0
     RDKit          3D

 59 61  0  0  0  0  0  0  0  0999 V2000
   56.4448   29.9678   41.8917 H   0  0  0  0  0  0  0  0  0  0  0  0
   56.7080   30.1120   42.9500 C   0  0  0  0  0  0  0  0  0  0  0  0
   56.7020   29.0550   43.8000 N   0  0  0  0  0  0  0  0  0  0  0  0
   57.0290   29.2090   45.1120 C   0  0  0  0  0  0  0  0  0  0  0  0
   57.0000   28.2050   45.9390 N   0  0  0  0  0  0  0  0  0  0  0  0
   56.6390   26.8490   45.6360 C   0  0  0  0  0  0  0  0  0  0  0  0
   55.6140   26.3620   46.1840 O   0  0  0  0  0  0  0  0  0  0  0  0
   57.4510   26.0360   44.7660 N   0  0  0  0  0  0  0  0  0  0  0  0
   58.2310   26.4800   44.2340 H   0  0  0  0  0  0  0  0  0  0  0  0
   57.2360   24.6300   44.5550 C   0  0  0  0  0  0  0  0  0  0  0  0
   56.9010   24.1240   43.2880 C   0  0  0  0  0  0  0  0  0  0  0  0
   56.8363   24.8045   42.4262 H   0  0  0  0  0  0  0  0  0  0  0  0
   56.6500   22.7620   43.1180 C   0  0  0  0  0  0  0  0  0  0  0  0
   56.3982   22.3719   42.1208 H   0  0  0  0  0  0  0  0  0  0  0  0
   56.7170   21.8920   44.2080 C   0  0  0  0  0  0  0  0  0  0  0  0
   56.5206   20.8192   44.0648 H   0  0  0  0  0  0  0  0  0  0  0  0
   57.0340   22.3800   45.4870 C   0  0  0  0  0  0  0  0  0  0  0  0
   57.1020   21.4550   46.6400 C   0  0  0  0  0  0  0  0  0  0  0  0
   56.9070   20.2170   46.4730 O   0  0  0  0  0  0  0  0  0  0  0  0
   57.3830   21.9530   47.9180 O   0  0  0  0  0  0  0  0  0  0  0  0
   56.3660   22.3410   48.8330 C   0  0  0  0  0  0  0  0  0  0  0  0
   56.7273   22.2032   49.8628 H   0  0  0  0  0  0  0  0  0  0  0  0
   56.1122   23.3991   48.6720 H   0  0  0  0  0  0  0  0  0  0  0  0
   55.4719   21.7208   48.6720 H   0  0  0  0  0  0  0  0  0  0  0  0
   57.2840   23.7540   45.6510 C   0  0  0  0  0  0  0  0  0  0  0  0
   57.5202   24.1474   46.6507 H   0  0  0  0  0  0  0  0  0  0  0  0
   57.3520   30.4410   45.5820 N   0  0  0  0  0  0  0  0  0  0  0  0
   57.3870   31.5330   44.7690 C   0  0  0  0  0  0  0  0  0  0  0  0
   57.7510   32.8230   45.3110 N   0  0  0  0  0  0  0  0  0  0  0  0
   58.8830   32.9670   46.2010 C   0  0  0  0  0  0  0  0  0  0  0  0
   59.6350   31.8430   46.5830 C   0  0  0  0  0  0  0  0  0  0  0  0
   59.3547   30.8475   46.2084 H   0  0  0  0  0  0  0  0  0  0  0  0
   60.7340   31.9770   47.4330 C   0  0  0  0  0  0  0  0  0  0  0  0
   61.3198   31.0892   47.7134 H   0  0  0  0  0  0  0  0  0  0  0  0
   61.0960   33.2380   47.9320 C   0  0  0  0  0  0  0  0  0  0  0  0
   62.2470   33.3750   48.7910 N   0  0  0  0  0  0  0  0  0  0  0  0
   63.5760   33.2560   48.2250 C   0  0  0  0  0  0  0  0  0  0  0  0
   64.5840   33.3050   48.9810 O   0  0  0  0  0  0  0  0  0  0  0  0
   63.8060   33.1260   46.7460 C   0  0  0  0  0  0  0  0  0  0  0  0
   64.7509   32.5919   46.5674 H   0  0  0  0  0  0  0  0  0  0  0  0
   62.9758   32.5636   46.2939 H   0  0  0  0  0  0  0  0  0  0  0  0
   63.8597   34.1273   46.2939 H   0  0  0  0  0  0  0  0  0  0  0  0
   62.0450   33.7560   50.1990 C   0  0  0  0  0  0  0  0  0  0  0  0
   62.2140   34.8374   50.3088 H   0  0  0  0  0  0  0  0  0  0  0  0
   62.7553   33.1947   50.8239 H   0  0  0  0  0  0  0  0  0  0  0  0
   60.6240   33.4220   50.6470 C   0  0  0  0  0  0  0  0  0  0  0  0
   60.5790   33.4114   51.7460 H   0  0  0  0  0  0  0  0  0  0  0  0
   59.9292   34.1813   50.2589 H   0  0  0  0  0  0  0  0  0  0  0  0
   60.3402   32.4327   50.2589 H   0  0  0  0  0  0  0  0  0  0  0  0
   60.3330   34.3600   47.5680 C   0  0  0  0  0  0  0  0  0  0  0  0
   60.5984   35.3516   47.9633 H   0  0  0  0  0  0  0  0  0  0  0  0
   59.2410   34.2270   46.7090 C   0  0  0  0  0  0  0  0  0  0  0  0
   58.6563   35.1153   46.4277 H   0  0  0  0  0  0  0  0  0  0  0  0
   57.0240   34.0180   44.8670 C   0  0  0  0  0  0  0  0  0  0  0  0
   56.6793   34.5846   45.7446 H   0  0  0  0  0  0  0  0  0  0  0  0
   57.6912   34.6493   44.2618 H   0  0  0  0  0  0  0  0  0  0  0  0
   56.1566   33.7157   44.2618 H   0  0  0  0  0  0  0  0  0  0  0  0
   57.0470   31.3790   43.4160 C   0  0  0  0  0  0  0  0  0  0  0  0
   57.0484   32.2438   42.7363 H   0  0  0  0  0  0  0  0  0  0  0  0
  1  2  1  0
  2  3  1  0
  3  4  1  0
  4  5  2  0
  5  6  1  0
  6  7  2  0
  6  8  1  0
  8  9  1  0
  8 10  1  0
 10 11  2  0
 11 12  1  0
 11 13  1  0
 13 14  1  0
 13 15  2  0
 15 16  1  0
 15 17  1  0
 17 18  1  0
 18 19  2  0
 18 20  1  0
 20 21  1  0
 21 22  1  0
 21 23  1  0
 21 24  1  0
 17 25  2  0
 25 26  1  0
  4 27  1  0
 27 28  2  0
 28 29  1  0
 29 30  1  0
 30 31  2  0
 31 32  1  0
 31 33  1  0
 33 34  1  0
 33 35  2  0
 35 36  1  0
 36 37  1  0
 37 38  2  0
 37 39  1  0
 39 40  1  0
 39 41  1  0
 39 42  1  0
 36 43  1  0
 43 44  1  0
 43 45  1  0
 43 46  1  0
 46 47  1  0
 46 48  1  0
 46 49  1  0
 35 50  1  0
 50 51  1  0
 50 52  2  0
 52 53  1  0
 29 54  1  0
 54 55  1  0
 54 56  1  0
 54 57  1  0
 28 58  1  0
 58 59  1  0
 58  2  2  0
 25 10  1  0
 52 30  1  0
M  CHG  1   3  -1
M  END
>  <UniqueID>  (35) 
32

>  <SMILES>  (35) 
CCN(C(C)=O)c1ccc(N(C)c2cc[n-]/c(=N\C(=O)Nc3cccc(C(=O)OC)c3)n2)cc1

>  <Energy>  (35) 
79.78113987659502

>  <Genealogy>  (35) 
CCN(C(C)=O)c1ccc(N(C)c2cc[n-]c(=NC(=O)Nc3cccc(C(=O)OC)c3)n2)cc1 (protonated)
CCN(C(C)=O)c1ccc(N(C)c2cc[n-]/c(=N\C(=O)Nc3cccc(C(=O)OC)c3)n2)cc1 (cis-trans isomerization)
CCN(C(C)=O)c1ccc(N(C)c2cc[n-]/c(=N\C(=O)Nc3cccc(C(=O)OC)c3)n2)cc1 (3D coordinates assigned)
CCN(C(C)=O)c1ccc(N(C)c2cc[n-]/c(=N\C(=O)Nc3cccc(C(=O)OC)c3)n2)cc1 (optimized conformer: 79.78113987659502 kcal/mol)

>  <smiles>  (35) 
CCN(C(C)=O)c1ccc(N(C)c2cc[nH]c(=NC(=O)Nc3cccc(C(=O)OC)c3)n2)cc1

>  <score_type>  (35) 
oracle

>  <origin>  (35) 
adg

>  <m_score__min__energy>  (35) 
-10.52

>  <m_primary>  (35) 
energy

$$$$
35:0
     RDKit          3D

 46 48  0  0  0  0  0  0  0  0999 V2000
   59.0840   34.1160   51.5010 C   0  0  0  0  0  0  0  0  0  0  0  0
   58.3550   32.8050   51.6340 C   0  0  0  0  0  0  0  0  0  0  0  0
   57.1700   32.7600   52.3850 C   0  0  0  0  0  0  0  0  0  0  0  0
   56.4750   31.5610   52.5490 C   0  0  0  0  0  0  0  0  0  0  0  0
   56.9550   30.3790   51.9670 C   0  0  0  0  0  0  0  0  0  0  0  0
   56.2600   29.1300   52.0930 N   0  0  0  0  0  0  0  0  0  0  0  0
   54.9650   28.9250   52.6760 C   0  0  0  0  0  0  0  0  0  0  0  0
   54.7750   27.9630   53.4700 O   0  0  0  0  0  0  0  0  0  0  0  0
   53.8360   29.8110   52.3060 C   0  0  0  0  0  0  0  0  0  0  0  0
   53.3270   30.7460   53.2270 C   0  0  0  0  0  0  0  0  0  0  0  0
   52.2630   31.5790   52.8750 C   0  0  0  0  0  0  0  0  0  0  0  0
   51.6910   31.4940   51.6020 C   0  0  0  0  0  0  0  0  0  0  0  0
   50.6320   32.3290   51.2650 O   0  0  0  0  0  0  0  0  0  0  0  0
   52.1880   30.5680   50.6760 C   0  0  0  0  0  0  0  0  0  0  0  0
   51.4820   30.4440   49.0710 Cl  0  0  0  0  0  0  0  0  0  0  0  0
   53.2540   29.7310   51.0260 C   0  0  0  0  0  0  0  0  0  0  0  0
   58.1100   30.4250   51.1810 C   0  0  0  0  0  0  0  0  0  0  0  0
   58.8230   31.6230   51.0080 C   0  0  0  0  0  0  0  0  0  0  0  0
   60.0360   31.6080   50.1550 C   0  0  0  0  0  0  0  0  0  0  0  0
   61.1250   31.1910   50.6350 O   0  0  0  0  0  0  0  0  0  0  0  0
   60.0060   32.1220   48.8100 N   0  0  0  0  0  0  0  0  0  0  0  0
   61.2190   32.7400   48.2540 C   0  0  0  0  0  0  0  0  0  0  0  0
   60.9430   33.4030   46.8960 C   0  0  0  0  0  0  0  0  0  0  0  0
   59.5950   34.1470   46.9180 C   0  0  0  0  0  0  0  0  0  0  0  0
   59.6300   35.1750   47.8770 O   0  0  0  0  0  0  0  0  0  0  0  0
   58.4190   33.1910   47.2330 C   0  0  0  0  0  0  0  0  0  0  0  0
   58.8460   31.8900   47.9350 C   0  0  0  0  0  0  0  0  0  0  0  0
   59.3060   34.5152   52.5017 H   0  0  0  0  0  0  0  0  0  0  0  0
   60.0242   33.9587   50.9521 H   0  0  0  0  0  0  0  0  0  0  0  0
   58.4543   34.8317   50.9521 H   0  0  0  0  0  0  0  0  0  0  0  0
   56.7850   33.6799   52.8493 H   0  0  0  0  0  0  0  0  0  0  0  0
   55.5460   31.5431   53.1378 H   0  0  0  0  0  0  0  0  0  0  0  0
   53.7705   30.8210   54.2309 H   0  0  0  0  0  0  0  0  0  0  0  0
   51.8729   32.3057   53.6028 H   0  0  0  0  0  0  0  0  0  0  0  0
   53.6402   29.0050   50.2955 H   0  0  0  0  0  0  0  0  0  0  0  0
   58.4666   29.5077   50.6897 H   0  0  0  0  0  0  0  0  0  0  0  0
   61.5850   33.5034   48.9563 H   0  0  0  0  0  0  0  0  0  0  0  0
   61.9707   31.9508   48.1056 H   0  0  0  0  0  0  0  0  0  0  0  0
   61.7474   34.1196   46.6738 H   0  0  0  0  0  0  0  0  0  0  0  0
   60.9035   32.6219   46.1224 H   0  0  0  0  0  0  0  0  0  0  0  0
   59.4334   34.5721   45.9164 H   0  0  0  0  0  0  0  0  0  0  0  0
   59.0480   35.9050   47.5380 H   0  0  0  0  0  0  0  0  0  0  0  0
   57.7078   33.7194   47.8850 H   0  0  0  0  0  0  0  0  0  0  0  0
   57.9736   32.9032   46.2693 H   0  0  0  0  0  0  0  0  0  0  0  0
   58.0074   31.5154   48.5404 H   0  0  0  0  0  0  0  0  0  0  0  0
   59.1259   31.1525   47.1684 H   0  0  0  0  0  0  0  0  0  0  0  0
  1  2  1  0
  2  3  2  0
  3  4  1  0
  4  5  2  0
  5  6  1  0
  6  7  1  0
  7  8  2  0
  7  9  1  0
  9 10  2  0
 10 11  1  0
 11 12  2  0
 12 13  1  0
 12 14  1  0
 14 15  1  0
 14 16  2  0
  5 17  1  0
 17 18  2  0
 18 19  1  0
 19 20  2  0
 19 21  1  0
 21 22  1  0
 22 23  1  0
 23 24  1  0
 24 25  1  0
 24 26  1  0
 26 27  1  0
 18  2  1  0
 27 21  1  0
 16  9  1  0
  1 28  1  0
  1 29  1  0
  1 30  1  0
  3 31  1  0
  4 32  1  0
 10 33  1  0
 11 34  1  0
 16 35  1  0
 17 36  1  0
 22 37  1  0
 22 38  1  0
 23 39  1  0
 23 40  1  0
 24 41  1  0
 25 42  1  0
 26 43  1  0
 26 44  1  0
 27 45  1  0
 27 46  1  0
M  CHG  2   6  -1  13  -1
M  END
>  <UniqueID>  (36) 
33

>  <SMILES>  (36) 
Cc1ccc([N-]C(=O)c2ccc([O-])c(Cl)c2)cc1C(=O)N1CCC(O)CC1

>  <Energy>  (36) 
60.47819180832551

>  <Genealogy>  (36) 
Cc1ccc([N-]C(=O)c2ccc([O-])c(Cl)c2)cc1C(=O)N1CCC(O)CC1 (protonated)
Cc1ccc([N-]C(=O)c2ccc([O-])c(Cl)c2)cc1C(=O)N1CCC(O)CC1 (3D coordinates assigned)
Cc1ccc([N-]C(=O)c2ccc([O-])c(Cl)c2)cc1C(=O)N1CCC(O)CC1 (nonaromatic ring conformer: 60.47819180832551 kcal/mol)

>  <smiles>  (36) 
Cc1ccc(NC(=O)c2ccc(O)c(Cl)c2)cc1C(=O)N1CCC(O)CC1

>  <score_type>  (36) 
oracle

>  <origin>  (36) 
adg

>  <m_score__min__energy>  (36) 
-13.43

>  <m_primary>  (36) 
energy

$$$$
36:0
     RDKit          3D

 54 57  0  0  0  0  0  0  0  0999 V2000
   64.4761   34.0591   46.4512 H   0  0  0  0  0  0  0  0  0  0  0  0
   63.7530   33.4590   47.0230 C   0  0  0  0  0  0  0  0  0  0  0  0
   63.6310   32.0930   46.7740 C   0  0  0  0  0  0  0  0  0  0  0  0
   64.2577   31.6169   46.0055 H   0  0  0  0  0  0  0  0  0  0  0  0
   62.7150   31.3280   47.4980 C   0  0  0  0  0  0  0  0  0  0  0  0
   62.6302   30.2486   47.3037 H   0  0  0  0  0  0  0  0  0  0  0  0
   61.9000   31.9280   48.4740 C   0  0  0  0  0  0  0  0  0  0  0  0
   60.9430   31.1250   49.1920 N   0  0  0  0  0  0  0  0  0  0  0  0
   61.2720   30.6000   50.5240 C   0  0  0  0  0  0  0  0  0  0  0  0
   62.1069   31.1762   50.9493 H   0  0  0  0  0  0  0  0  0  0  0  0
   61.5619   29.5422   50.4399 H   0  0  0  0  0  0  0  0  0  0  0  0
   60.0510   30.7230   51.4360 C   0  0  0  0  0  0  0  0  0  0  0  0
   59.7993   31.7879   51.5488 H   0  0  0  0  0  0  0  0  0  0  0  0
   60.3059   30.2663   52.4037 H   0  0  0  0  0  0  0  0  0  0  0  0
   58.8150   29.9750   50.8680 C   0  0  0  0  0  0  0  0  0  0  0  0
   58.8066   28.9793   51.3355 H   0  0  0  0  0  0  0  0  0  0  0  0
   57.5210   30.7130   51.2390 C   0  0  0  0  0  0  0  0  0  0  0  0
   57.4296   30.7651   52.3340 H   0  0  0  0  0  0  0  0  0  0  0  0
   57.5480   31.7315   50.8244 H   0  0  0  0  0  0  0  0  0  0  0  0
   56.6581   30.1712   50.8244 H   0  0  0  0  0  0  0  0  0  0  0  0
   58.8980   29.7330   49.3380 C   0  0  0  0  0  0  0  0  0  0  0  0
   57.8767   29.6478   48.9384 H   0  0  0  0  0  0  0  0  0  0  0  0
   59.4739   28.8098   49.1765 H   0  0  0  0  0  0  0  0  0  0  0  0
   59.6210   30.8680   48.6020 C   0  0  0  0  0  0  0  0  0  0  0  0
   59.0141   31.7830   48.6685 H   0  0  0  0  0  0  0  0  0  0  0  0
   59.7593   30.5707   47.5520 H   0  0  0  0  0  0  0  0  0  0  0  0
   62.0150   33.3130   48.7210 C   0  0  0  0  0  0  0  0  0  0  0  0
   61.2410   33.9080   49.7740 N   0  0  0  0  0  0  0  0  0  0  0  0
   59.8350   34.1730   49.7460 C   0  0  0  0  0  0  0  0  0  0  0  0
   59.1210   33.9170   50.7530 O   0  0  0  0  0  0  0  0  0  0  0  0
   59.2720   34.7730   48.5700 N   0  0  0  0  0  0  0  0  0  0  0  0
   59.0280   34.2020   47.4260 C   0  0  0  0  0  0  0  0  0  0  0  0
   57.8460   33.0370   47.1110 S   0  0  0  0  0  0  0  0  0  0  0  0
   58.2560   32.9230   45.4810 C   0  0  0  0  0  0  0  0  0  0  0  0
   57.6490   31.9670   44.5030 C   0  0  0  0  0  0  0  0  0  0  0  0
   56.5693   32.1623   44.4254 H   0  0  0  0  0  0  0  0  0  0  0  0
   58.1256   32.1050   43.5212 H   0  0  0  0  0  0  0  0  0  0  0  0
   57.8670   30.5500   44.9620 C   0  0  0  0  0  0  0  0  0  0  0  0
   59.1720   30.0920   45.2200 C   0  0  0  0  0  0  0  0  0  0  0  0
   60.0240   30.7802   45.1174 H   0  0  0  0  0  0  0  0  0  0  0  0
   59.3910   28.7670   45.6060 C   0  0  0  0  0  0  0  0  0  0  0  0
   60.4133   28.4159   45.8100 H   0  0  0  0  0  0  0  0  0  0  0  0
   58.3130   27.8880   45.7330 C   0  0  0  0  0  0  0  0  0  0  0  0
   58.4872   26.8468   46.0421 H   0  0  0  0  0  0  0  0  0  0  0  0
   57.0130   28.3290   45.4680 C   0  0  0  0  0  0  0  0  0  0  0  0
   55.9720   27.4690   45.5890 F   0  0  0  0  0  0  0  0  0  0  0  0
   56.7870   29.6550   45.0800 C   0  0  0  0  0  0  0  0  0  0  0  0
   55.5190   30.0630   44.8160 F   0  0  0  0  0  0  0  0  0  0  0  0
   59.3190   33.7840   45.2290 C   0  0  0  0  0  0  0  0  0  0  0  0
   59.7854   33.8813   44.2375 H   0  0  0  0  0  0  0  0  0  0  0  0
   59.7330   34.4950   46.3110 N   0  0  0  0  0  0  0  0  0  0  0  0
   60.5170   35.1840   46.2800 H   0  0  0  0  0  0  0  0  0  0  0  0
   62.9580   34.0670   47.9980 C   0  0  0  0  0  0  0  0  0  0  0  0
   63.0700   35.1421   48.2018 H   0  0  0  0  0  0  0  0  0  0  0  0
  1  2  1  0
  2  3  2  0
  3  4  1  0
  3  5  1  0
  5  6  1  0
  5  7  2  0
  7  8  1  0
  8  9  1  0
  9 10  1  0
  9 11  1  0
  9 12  1  0
 12 13  1  0
 12 14  1  0
 12 15  1  0
 15 16  1  0
 15 17  1  0
 17 18  1  0
 17 19  1  0
 17 20  1  0
 15 21  1  0
 21 22  1  0
 21 23  1  0
 21 24  1  0
 24 25  1  0
 24 26  1  0
  7 27  1  0
 27 28  1  0
 28 29  1  0
 29 30  2  0
 29 31  1  0
 31 32  2  0
 32 33  1  0
 33 34  1  0
 34 35  1  0
 35 36  1  0
 35 37  1  0
 35 38  1  0
 38 39  2  0
 39 40  1  0
 39 41  1  0
 41 42  1  0
 41 43  2  0
 43 44  1  0
 43 45  1  0
 45 46  1  0
 45 47  2  0
 47 48  1  0
 34 49  2  0
 49 50  1  0
 49 51  1  0
 51 52  1  0
 27 53  2  0
 53 54  1  0
 53  2  1  0
 24  8  1  0
 51 32  1  0
 47 38  1  0
M  CHG  1  28  -1
M  END
>  <UniqueID>  (37) 
34

>  <SMILES>  (37) 
CC1CCN(c2ccccc2[N-]C(=O)/N=c2/[nH]cc(Cc3cccc(F)c3F)s2)CC1

>  <Energy>  (37) 
97.2702855424079

>  <Genealogy>  (37) 
CC1CCN(c2ccccc2[N-]C(=O)N=c2[nH]cc(Cc3cccc(F)c3F)s2)CC1 (protonated)
CC1CCN(c2ccccc2[N-]C(=O)/N=c2/[nH]cc(Cc3cccc(F)c3F)s2)CC1 (cis-trans isomerization)
CC1CCN(c2ccccc2[N-]C(=O)/N=c2/[nH]cc(Cc3cccc(F)c3F)s2)CC1 (3D coordinates assigned)
CC1CCN(c2ccccc2[N-]C(=O)/N=c2/[nH]cc(Cc3cccc(F)c3F)s2)CC1 (nonaromatic ring conformer: 97.2702855424079 kcal/mol)

>  <smiles>  (37) 
CC1CCN(c2ccccc2NC(=O)N=c2[nH]cc(Cc3cccc(F)c3F)s2)CC1

>  <score_type>  (37) 
oracle

>  <origin>  (37) 
adg

>  <m_score__min__energy>  (37) 
-10.699999999999999

>  <m_primary>  (37) 
energy

$$$$
37:0
     RDKit          3D

 31 33  0  0  0  0  0  0  0  0999 V2000
   59.6470   34.2260   49.5130 O   0  0  0  0  0  0  0  0  0  0  0  0
   59.6790   33.3620   48.5950 C   0  0  0  0  0  0  0  0  0  0  0  0
   60.4150   32.1500   48.8200 N   0  0  0  0  0  0  0  0  0  0  0  0
   60.4680   31.1280   48.0170 C   0  0  0  0  0  0  0  0  0  0  0  0
   61.1380   31.1700   46.8450 N   0  0  0  0  0  0  0  0  0  0  0  0
   61.0480   29.9920   46.1700 C   0  0  0  0  0  0  0  0  0  0  0  0
   60.3120   29.0110   46.8200 C   0  0  0  0  0  0  0  0  0  0  0  0
   59.9290   27.3880   46.1750 S   0  0  0  0  0  0  0  0  0  0  0  0
   58.2430   27.8630   45.7890 C   0  0  0  0  0  0  0  0  0  0  0  0
   57.1970   26.9550   45.9770 C   0  0  0  0  0  0  0  0  0  0  0  0
   55.8930   27.3360   45.6460 C   0  0  0  0  0  0  0  0  0  0  0  0
   54.8420   26.4470   45.8230 O   0  0  0  0  0  0  0  0  0  0  0  0
   55.6540   28.5780   45.1460 N   0  0  0  0  0  0  0  0  0  0  0  0
   56.6550   29.4780   44.9550 C   0  0  0  0  0  0  0  0  0  0  0  0
   56.3940   30.6170   44.4860 O   0  0  0  0  0  0  0  0  0  0  0  0
   57.9720   29.1380   45.2800 C   0  0  0  0  0  0  0  0  0  0  0  0
   59.7590   29.6150   48.2850 S   0  0  0  0  0  0  0  0  0  0  0  0
   59.0030   33.6500   47.3080 C   0  0  0  0  0  0  0  0  0  0  0  0
   57.6650   33.2570   47.1260 C   0  0  0  0  0  0  0  0  0  0  0  0
   57.0160   33.4920   45.9120 C   0  0  0  0  0  0  0  0  0  0  0  0
   57.6890   34.1320   44.8690 C   0  0  0  0  0  0  0  0  0  0  0  0
   59.0110   34.5480   45.0430 C   0  0  0  0  0  0  0  0  0  0  0  0
   59.6670   34.3210   46.2580 C   0  0  0  0  0  0  0  0  0  0  0  0
   60.9710   34.7800   46.4150 O   0  0  0  0  0  0  0  0  0  0  0  0
   61.5198   29.8304   45.1896 H   0  0  0  0  0  0  0  0  0  0  0  0
   57.3975   25.9517   46.3809 H   0  0  0  0  0  0  0  0  0  0  0  0
   58.7855   29.8645   45.1372 H   0  0  0  0  0  0  0  0  0  0  0  0
   57.1255   32.7607   47.9462 H   0  0  0  0  0  0  0  0  0  0  0  0
   55.9722   33.1722   45.7769 H   0  0  0  0  0  0  0  0  0  0  0  0
   57.1782   34.3084   43.9109 H   0  0  0  0  0  0  0  0  0  0  0  0
   59.5383   35.0559   44.2220 H   0  0  0  0  0  0  0  0  0  0  0  0
  1  2  2  0
  2  3  1  0
  3  4  2  3
  4  5  1  0
  5  6  1  0
  6  7  2  0
  7  8  1  0
  8  9  1  0
  9 10  1  0
 10 11  2  0
 11 12  1  0
 11 13  1  0
 13 14  1  0
 14 15  2  0
 14 16  1  0
  7 17  1  0
  2 18  1  0
 18 19  2  0
 19 20  1  0
 20 21  2  0
 21 22  1  0
 22 23  2  0
 23 24  1  0
 17  4  1  0
 23 18  1  0
 16  9  2  0
  6 25  1  0
 10 26  1  0
 16 27  1  0
 19 28  1  0
 20 29  1  0
 21 30  1  0
 22 31  1  0
M  CHG  4   5  -1  12  -1  13  -1  24  -1
M  END
>  <UniqueID>  (38) 
35

>  <SMILES>  (38) 
O=C(N=c1[n-]cc(Sc2cc([O-])[n-]c(=O)c2)s1)c1ccccc1[O-]

>  <Energy>  (38) 
70.6020093473766

>  <Genealogy>  (38) 
O=C(N=c1[n-]cc(Sc2cc([O-])[n-]c(=O)c2)s1)c1ccccc1[O-] (protonated)
O=C(N=c1[n-]cc(Sc2cc([O-])[n-]c(=O)c2)s1)c1ccccc1[O-] (3D coordinates assigned)
O=C(N=c1[n-]cc(Sc2cc([O-])[n-]c(=O)c2)s1)c1ccccc1[O-] (optimized conformer: 70.6020093473766 kcal/mol)

>  <smiles>  (38) 
O=C(N=c1[nH]cc(Sc2cc(O)[nH]c(=O)c2)s1)c1ccccc1O

>  <score_type>  (38) 
oracle

>  <origin>  (38) 
adg

>  <m_score__min__energy>  (38) 
-17.16

>  <m_primary>  (38) 
energy

$$$$
38:0
     RDKit          3D

 54 57  0  0  0  0  0  0  0  0999 V2000
   60.0695   28.8163   48.6715 H   0  0  0  0  0  0  0  0  0  0  0  0
   59.7000   28.6110   47.6560 C   0  0  0  0  0  0  0  0  0  0  0  0
   60.3240   29.1980   46.5530 C   0  0  0  0  0  0  0  0  0  0  0  0
   61.1884   29.8620   46.7010 H   0  0  0  0  0  0  0  0  0  0  0  0
   59.8530   28.9440   45.2610 C   0  0  0  0  0  0  0  0  0  0  0  0
   60.3478   29.4133   44.3979 H   0  0  0  0  0  0  0  0  0  0  0  0
   58.7500   28.0920   45.0560 C   0  0  0  0  0  0  0  0  0  0  0  0
   58.2320   27.8570   43.6490 C   0  0  2  0  0  0  0  0  0  0  0  0
   59.0761   28.0124   42.9610 H   0  0  0  0  0  0  0  0  0  0  0  0
   57.1970   28.8370   43.3000 N   0  0  0  0  0  0  0  0  0  0  0  0
   56.3350   29.5640   44.1850 C   0  0  0  0  0  0  0  0  0  0  0  0
   55.5200   28.9550   44.9290 O   0  0  0  0  0  0  0  0  0  0  0  0
   56.4030   30.9980   44.1880 N   0  0  0  0  0  0  0  0  0  0  0  0
   57.1910   31.7400   44.9140 C   0  0  0  0  0  0  0  0  0  0  0  0
   57.6190   31.3270   46.1530 N   0  0  0  0  0  0  0  0  0  0  0  0
   58.4540   32.0790   46.9290 C   0  0  0  0  0  0  0  0  0  0  0  0
   58.7687   31.7329   47.9246 H   0  0  0  0  0  0  0  0  0  0  0  0
   58.8940   33.2970   46.4200 C   0  0  0  0  0  0  0  0  0  0  0  0
   59.6870   34.3160   46.9030 C   0  0  0  0  0  0  0  0  0  0  0  0
   60.3870   34.3610   48.1130 O   0  0  0  0  0  0  0  0  0  0  0  0
   61.0870   33.2430   48.6610 C   0  0  2  0  0  0  0  0  0  0  0  0
   61.5104   32.6410   47.8435 H   0  0  0  0  0  0  0  0  0  0  0  0
   60.1300   32.3860   49.4560 C   0  0  0  0  0  0  0  0  0  0  0  0
   58.9470   32.9390   49.9720 C   0  0  0  0  0  0  0  0  0  0  0  0
   58.7242   34.0035   49.8074 H   0  0  0  0  0  0  0  0  0  0  0  0
   58.0500   32.1450   50.6940 C   0  0  0  0  0  0  0  0  0  0  0  0
   57.1287   32.5911   51.0968 H   0  0  0  0  0  0  0  0  0  0  0  0
   58.3150   30.7880   50.9080 C   0  0  0  0  0  0  0  0  0  0  0  0
   57.3840   30.0350   51.6400 O   0  0  0  0  0  0  0  0  0  0  0  0
   56.3260   30.5950   52.4120 C   0  0  0  0  0  0  0  0  0  0  0  0
   56.5504   30.4762   53.4823 H   0  0  0  0  0  0  0  0  0  0  0  0
   56.2254   31.6644   52.1749 H   0  0  0  0  0  0  0  0  0  0  0  0
   55.3851   30.0768   52.1749 H   0  0  0  0  0  0  0  0  0  0  0  0
   59.4960   30.2270   50.3840 C   0  0  0  0  0  0  0  0  0  0  0  0
   59.7140   29.1607   50.5434 H   0  0  0  0  0  0  0  0  0  0  0  0
   60.3920   31.0210   49.6620 C   0  0  0  0  0  0  0  0  0  0  0  0
   61.3094   30.5736   49.2519 H   0  0  0  0  0  0  0  0  0  0  0  0
   62.2320   33.7300   49.5520 C   0  0  0  0  0  0  0  0  0  0  0  0
   61.9507   33.6104   50.6087 H   0  0  0  0  0  0  0  0  0  0  0  0
   63.1357   33.1384   49.3439 H   0  0  0  0  0  0  0  0  0  0  0  0
   62.4326   34.7913   49.3439 H   0  0  0  0  0  0  0  0  0  0  0  0
   59.6890   35.3280   46.0070 N   0  0  0  0  0  0  0  0  0  0  0  0
   58.9390   34.9800   44.9650 N   0  0  0  0  0  0  0  0  0  0  0  0
   58.4580   33.7470   45.2100 C   0  0  0  0  0  0  0  0  0  0  0  0
   57.6040   32.9920   44.4130 C   0  0  0  0  0  0  0  0  0  0  0  0
   57.2646   33.3564   43.4322 H   0  0  0  0  0  0  0  0  0  0  0  0
   57.7820   26.4080   43.4130 C   0  0  0  0  0  0  0  0  0  0  0  0
   57.6273   25.9098   44.3814 H   0  0  0  0  0  0  0  0  0  0  0  0
   56.8404   26.4045   42.8443 H   0  0  0  0  0  0  0  0  0  0  0  0
   58.5559   25.8717   42.8443 H   0  0  0  0  0  0  0  0  0  0  0  0
   58.1330   27.4990   46.1780 C   0  0  0  0  0  0  0  0  0  0  0  0
   57.2749   26.8253   46.0371 H   0  0  0  0  0  0  0  0  0  0  0  0
   58.6050   27.7620   47.4680 C   0  0  0  0  0  0  0  0  0  0  0  0
   58.1136   27.2998   48.3368 H   0  0  0  0  0  0  0  0  0  0  0  0
  1  2  1  0
  2  3  2  0
  3  4  1  0
  3  5  1  0
  5  6  1  0
  5  7  2  0
  7  8  1  0
  8  9  1  6
  8 10  1  0
 10 11  1  0
 11 12  2  0
 11 13  1  0
 13 14  2  0
 14 15  1  0
 15 16  1  0
 16 17  1  0
 16 18  2  0
 18 19  1  0
 19 20  1  0
 20 21  1  0
 21 22  1  6
 21 23  1  0
 23 24  2  0
 24 25  1  0
 24 26  1  0
 26 27  1  0
 26 28  2  0
 28 29  1  0
 29 30  1  0
 30 31  1  0
 30 32  1  0
 30 33  1  0
 28 34  1  0
 34 35  1  0
 34 36  2  0
 36 37  1  0
 21 38  1  0
 38 39  1  0
 38 40  1  0
 38 41  1  0
 19 42  2  0
 42 43  1  0
 43 44  1  0
 44 45  2  0
 45 46  1  0
  8 47  1  0
 47 48  1  0
 47 49  1  0
 47 50  1  0
  7 51  1  0
 51 52  1  0
 51 53  2  0
 53 54  1  0
 53  2  1  0
 45 14  1  0
 44 18  1  0
 36 23  1  0
M  CHG  3  10  -1  15  -1  43  -1
M  END
>  <UniqueID>  (39) 
36

>  <SMILES>  (39) 
COc1ccc([C@H](C)Oc2n[n-]c3c/c(=N/C(=O)[N-][C@H](C)c4ccccc4)[n-]cc23)cc1

>  <Energy>  (39) 
104.97521166372127

>  <Genealogy>  (39) 
COc1ccc(C(C)Oc2n[n-]c3cc(=NC(=O)[N-]C(C)c4ccccc4)[n-]cc23)cc1 (protonated)
COc1ccc([C@H](C)Oc2n[n-]c3cc(=NC(=O)[N-][C@H](C)c4ccccc4)[n-]cc23)cc1 (chirality)
COc1ccc([C@H](C)Oc2n[n-]c3c/c(=N/C(=O)[N-][C@H](C)c4ccccc4)[n-]cc23)cc1 (cis-trans isomerization)
COc1ccc([C@H](C)Oc2n[n-]c3c/c(=N/C(=O)[N-][C@H](C)c4ccccc4)[n-]cc23)cc1 (3D coordinates assigned)
COc1ccc([C@H](C)Oc2n[n-]c3c/c(=N/C(=O)[N-][C@H](C)c4ccccc4)[n-]cc23)cc1 (optimized conformer: 104.97521166372127 kcal/mol)

>  <smiles>  (39) 
COc1ccc(C(C)Oc2n[nH]c3cc(=NC(=O)NC(C)c4ccccc4)[nH]cc23)cc1

>  <score_type>  (39) 
oracle

>  <origin>  (39) 
adg

>  <m_score__min__energy>  (39) 
-12.6

>  <m_primary>  (39) 
energy

$$$$
39:0
     RDKit          3D

 37 39  0  0  0  0  0  0  0  0999 V2000
   63.1885   34.3717   50.5759 H   0  0  0  0  0  0  0  0  0  0  0  0
   63.1420   33.8510   49.6080 C   0  0  0  0  0  0  0  0  0  0  0  0
   62.4370   34.3910   48.5800 N   0  0  0  0  0  0  0  0  0  0  0  0
   62.3450   33.7870   47.3620 C   0  0  0  0  0  0  0  0  0  0  0  0
   61.6560   34.3780   46.4290 N   0  0  0  0  0  0  0  0  0  0  0  0
   59.9430   34.6720   46.4350 S   0  0  0  0  0  0  0  0  0  0  0  0
   59.6270   35.7410   45.4290 O   0  0  0  0  0  0  0  0  0  0  0  0
   59.5300   35.1470   47.8000 O   0  0  0  0  0  0  0  0  0  0  0  0
   59.0690   33.2060   45.9970 C   0  0  0  0  0  0  0  0  0  0  0  0
   59.5800   31.9520   46.3560 C   0  0  0  0  0  0  0  0  0  0  0  0
   60.5364   31.8831   46.8951 H   0  0  0  0  0  0  0  0  0  0  0  0
   58.8780   30.7890   46.0310 C   0  0  0  0  0  0  0  0  0  0  0  0
   59.2890   29.8061   46.3050 H   0  0  0  0  0  0  0  0  0  0  0  0
   57.6500   30.8700   45.3560 C   0  0  0  0  0  0  0  0  0  0  0  0
   56.9190   29.6900   44.9960 N   0  0  0  0  0  0  0  0  0  0  0  0
   57.3650   28.3390   45.1650 C   0  0  0  0  0  0  0  0  0  0  0  0
   57.4170   27.5880   44.1540 O   0  0  0  0  0  0  0  0  0  0  0  0
   57.6450   27.7560   46.5250 C   0  0  0  0  0  0  0  0  0  0  0  0
   58.7312   27.7578   46.6990 H   0  0  0  0  0  0  0  0  0  0  0  0
   57.1292   28.3692   47.2786 H   0  0  0  0  0  0  0  0  0  0  0  0
   57.1360   26.3500   46.6300 C   0  0  0  0  0  0  0  0  0  0  0  0
   57.8910   25.2940   46.9790 N   0  0  0  0  0  0  0  0  0  0  0  0
   57.0260   24.2590   46.9230 C   0  0  0  0  0  0  0  0  0  0  0  0
   57.3660   23.0770   47.1900 O   0  0  0  0  0  0  0  0  0  0  0  0
   55.7680   24.5900   46.5610 N   0  0  0  0  0  0  0  0  0  0  0  0
   55.8550   25.9180   46.3780 C   0  0  0  0  0  0  0  0  0  0  0  0
   54.7870   26.7160   45.9910 O   0  0  0  0  0  0  0  0  0  0  0  0
   57.1630   32.1220   44.9600 C   0  0  0  0  0  0  0  0  0  0  0  0
   56.2254   32.1896   44.3888 H   0  0  0  0  0  0  0  0  0  0  0  0
   57.8640   33.2860   45.2880 C   0  0  0  0  0  0  0  0  0  0  0  0
   57.4680   34.2675   44.9884 H   0  0  0  0  0  0  0  0  0  0  0  0
   63.0010   32.5550   47.1590 C   0  0  0  0  0  0  0  0  0  0  0  0
   62.9360   32.0457   46.1862 H   0  0  0  0  0  0  0  0  0  0  0  0
   63.7340   31.9870   48.2040 C   0  0  0  0  0  0  0  0  0  0  0  0
   64.2528   31.0287   48.0544 H   0  0  0  0  0  0  0  0  0  0  0  0
   63.8080   32.6350   49.4370 C   0  0  0  0  0  0  0  0  0  0  0  0
   64.7240   31.9310   50.7560 Cl  0  0  0  0  0  0  0  0  0  0  0  0
  1  2  1  0
  2  3  1  0
  3  4  1  0
  4  5  2  0
  5  6  1  0
  6  7  2  0
  6  8  2  0
  6  9  1  0
  9 10  2  0
 10 11  1  0
 10 12  1  0
 12 13  1  0
 12 14  2  0
 14 15  1  0
 15 16  1  0
 16 17  2  0
 16 18  1  0
 18 19  1  0
 18 20  1  0
 18 21  1  0
 21 22  1  0
 22 23  1  0
 23 24  2  0
 23 25  1  0
 25 26  1  0
 26 27  1  0
 14 28  1  0
 28 29  1  0
 28 30  2  0
 30 31  1  0
  4 32  1  0
 32 33  1  0
 32 34  2  0
 34 35  1  0
 34 36  1  0
 36 37  1  0
 36  2  2  0
 30  9  1  0
 26 21  2  0
M  CHG  5   3  -1  15  -1  22  -1  25  -1  27  -1
M  END
>  <UniqueID>  (40) 
37

>  <SMILES>  (40) 
O=C(Cc1[n-]c(=O)[n-]c1[O-])[N-]c1ccc(S(=O)(=O)/N=c2\ccc(Cl)c[n-]2)cc1

>  <Energy>  (40) 
78.55668331435119

>  <Genealogy>  (40) 
O=C(Cc1[n-]c(=O)[n-]c1[O-])[N-]c1ccc(S(=O)(=O)N=c2ccc(Cl)c[n-]2)cc1 (protonated)
O=C(Cc1[n-]c(=O)[n-]c1[O-])[N-]c1ccc(S(=O)(=O)/N=c2\ccc(Cl)c[n-]2)cc1 (cis-trans isomerization)
O=C(Cc1[n-]c(=O)[n-]c1[O-])[N-]c1ccc(S(=O)(=O)/N=c2\ccc(Cl)c[n-]2)cc1 (3D coordinates assigned)
O=C(Cc1[n-]c(=O)[n-]c1[O-])[N-]c1ccc(S(=O)(=O)/N=c2\ccc(Cl)c[n-]2)cc1 (optimized conformer: 78.55668331435119 kcal/mol)

>  <smiles>  (40) 
O=C(Cc1[nH]c(=O)[nH]c1O)Nc1ccc(S(=O)(=O)N=c2ccc(Cl)c[nH]2)cc1

>  <score_type>  (40) 
oracle

>  <origin>  (40) 
adg

>  <m_score__min__energy>  (40) 
-18.699999999999999

>  <m_primary>  (40) 
energy

$$$$
40:0
     RDKit          3D

 57 60  0  0  0  0  0  0  0  0999 V2000
   55.2020   28.1620   44.8730 H   0  0  0  0  0  0  0  0  0  0  0  0
   55.3590   29.1300   44.5100 N   0  0  0  0  0  0  0  0  0  0  0  0
   56.3850   29.8330   44.8730 C   0  0  0  0  0  0  0  0  0  0  0  0
   56.3070   31.1900   44.8510 N   0  0  0  0  0  0  0  0  0  0  0  0
   57.3340   31.9850   45.2480 C   0  0  0  0  0  0  0  0  0  0  0  0
   57.2252   33.0789   45.2095 H   0  0  0  0  0  0  0  0  0  0  0  0
   58.5330   31.4190   45.7070 C   0  0  0  0  0  0  0  0  0  0  0  0
   59.6540   32.2860   46.1520 C   0  0  0  0  0  0  0  0  0  0  0  0
   60.9770   31.7830   47.0700 S   0  0  0  0  0  0  0  0  0  0  0  0
   61.6940   33.3080   47.0970 C   0  0  0  0  0  0  0  0  0  0  0  0
   63.0050   33.6560   47.7600 C   0  0  0  0  0  0  0  0  0  0  0  0
   63.7640   34.5410   46.9680 O   0  0  0  0  0  0  0  0  0  0  0  0
   63.1880   34.8900   46.2370 H   0  0  0  0  0  0  0  0  0  0  0  0
   62.8680   34.1200   49.2150 C   0  0  0  0  0  0  0  0  0  0  0  0
   63.3552   35.0829   49.4283 H   0  0  0  0  0  0  0  0  0  0  0  0
   61.8774   34.3318   49.6437 H   0  0  0  0  0  0  0  0  0  0  0  0
   63.6660   32.9020   49.6700 C   0  0  0  0  0  0  0  0  0  0  0  0
   64.6227   33.1498   50.1530 H   0  0  0  0  0  0  0  0  0  0  0  0
   63.2522   32.2253   50.4321 H   0  0  0  0  0  0  0  0  0  0  0  0
   63.8050   32.4320   48.2240 C   0  0  0  0  0  0  0  0  0  0  0  0
   64.8415   32.4054   47.8565 H   0  0  0  0  0  0  0  0  0  0  0  0
   63.4957   31.4174   47.9327 H   0  0  0  0  0  0  0  0  0  0  0  0
   60.9460   34.2040   46.4170 N   0  0  0  0  0  0  0  0  0  0  0  0
   59.8180   33.6500   45.8950 C   0  0  0  0  0  0  0  0  0  0  0  0
   59.0887   34.2330   45.3134 H   0  0  0  0  0  0  0  0  0  0  0  0
   58.6350   30.0170   45.7390 C   0  0  0  0  0  0  0  0  0  0  0  0
   59.5622   29.5482   46.1002 H   0  0  0  0  0  0  0  0  0  0  0  0
   57.5690   29.2080   45.3160 C   0  0  0  0  0  0  0  0  0  0  0  0
   57.7100   27.7310   45.3620 C   0  0  0  0  0  0  0  0  0  0  0  0
   57.7640   26.9800   44.1770 C   0  0  0  0  0  0  0  0  0  0  0  0
   57.6972   27.4894   43.2043 H   0  0  0  0  0  0  0  0  0  0  0  0
   57.9020   25.5900   44.2240 C   0  0  0  0  0  0  0  0  0  0  0  0
   57.9303   25.0125   43.2882 H   0  0  0  0  0  0  0  0  0  0  0  0
   58.0050   24.9240   45.4580 C   0  0  0  0  0  0  0  0  0  0  0  0
   58.1490   23.4510   45.4830 C   0  0  0  0  0  0  0  0  0  0  0  0
   58.9550   22.8940   44.6880 O   0  0  0  0  0  0  0  0  0  0  0  0
   57.4090   22.6530   46.4200 N   0  0  0  0  0  0  0  0  0  0  0  0
   56.9600   23.1150   47.2430 H   0  0  0  0  0  0  0  0  0  0  0  0
   57.3490   21.1950   46.3320 C   0  0  0  0  0  0  0  0  0  0  0  0
   56.5792   20.9061   45.6013 H   0  0  0  0  0  0  0  0  0  0  0  0
   58.3301   20.8131   46.0133 H   0  0  0  0  0  0  0  0  0  0  0  0
   56.9970   20.5950   47.7070 C   0  0  0  0  0  0  0  0  0  0  0  0
   55.9869   20.1637   47.6457 H   0  0  0  0  0  0  0  0  0  0  0  0
   57.7708   19.8455   47.9296 H   0  0  0  0  0  0  0  0  0  0  0  0
   57.0180   21.5680   48.8230 N   0  0  0  0  0  0  0  0  0  0  0  0
   55.7160   22.2190   49.0400 C   0  0  0  0  0  0  0  0  0  0  0  0
   55.5284   22.3128   50.1198 H   0  0  0  0  0  0  0  0  0  0  0  0
   55.7249   23.2187   48.5812 H   0  0  0  0  0  0  0  0  0  0  0  0
   54.9216   21.6121   48.5812 H   0  0  0  0  0  0  0  0  0  0  0  0
   57.5420   20.9970   50.0740 C   0  0  0  0  0  0  0  0  0  0  0  0
   57.0765   21.5043   50.9319 H   0  0  0  0  0  0  0  0  0  0  0  0
   57.3089   19.9227   50.1126 H   0  0  0  0  0  0  0  0  0  0  0  0
   58.6323   21.1372   50.1126 H   0  0  0  0  0  0  0  0  0  0  0  0
   57.9460   25.6770   46.6470 C   0  0  0  0  0  0  0  0  0  0  0  0
   57.9690   25.0700   47.8610 F   0  0  0  0  0  0  0  0  0  0  0  0
   57.8060   27.0680   46.5950 C   0  0  0  0  0  0  0  0  0  0  0  0
   57.7708   27.6474   47.5294 H   0  0  0  0  0  0  0  0  0  0  0  0
  1  2  1  0
  2  3  2  0
  3  4  1  0
  4  5  1  0
  5  6  1  0
  5  7  2  0
  7  8  1  0
  8  9  1  0
  9 10  1  0
 10 11  1  0
 11 12  1  0
 12 13  1  0
 11 14  1  0
 14 15  1  0
 14 16  1  0
 14 17  1  0
 17 18  1  0
 17 19  1  0
 17 20  1  0
 20 21  1  0
 20 22  1  0
 10 23  2  0
 23 24  1  0
 24 25  1  0
  7 26  1  0
 26 27  1  0
 26 28  2  0
 28 29  1  0
 29 30  2  0
 30 31  1  0
 30 32  1  0
 32 33  1  0
 32 34  2  0
 34 35  1  0
 35 36  2  0
 35 37  1  0
 37 38  1  0
 37 39  1  0
 39 40  1  0
 39 41  1  0
 39 42  1  0
 42 43  1  0
 42 44  1  0
 42 45  1  0
 45 46  1  0
 46 47  1  0
 46 48  1  0
 46 49  1  0
 45 50  1  0
 50 51  1  0
 50 52  1  0
 50 53  1  0
 34 54  1  0
 54 55  1  0
 54 56  2  0
 56 57  1  0
 28  3  1  0
 56 29  1  0
 24  8  2  0
 20 11  1  0
M  CHG  1   4  -1
M  END
>  <UniqueID>  (41) 
38

>  <SMILES>  (41) 
[H]/N=c1\[n-]cc(-c2cnc(C3(O)CCC3)s2)cc1-c1ccc(C(=O)NCCN(C)C)c(F)c1

>  <Energy>  (41) 
165.9730377601963

>  <Genealogy>  (41) 
CN(C)CCNC(=O)c1ccc(-c2cc(-c3cnc(C4(O)CCC4)s3)c[n-]c2=N)cc1F (protonated)
[H]/N=c1\[n-]cc(-c2cnc(C3(O)CCC3)s2)cc1-c1ccc(C(=O)NCCN(C)C)c(F)c1 (cis-trans isomerization)
[H]/N=c1\[n-]cc(-c2cnc(C3(O)CCC3)s2)cc1-c1ccc(C(=O)NCCN(C)C)c(F)c1 (3D coordinates assigned)
[H]/N=c1\[n-]cc(-c2cnc(C3(O)CCC3)s2)cc1-c1ccc(C(=O)NCCN(C)C)c(F)c1 (nonaromatic ring conformer: 165.9730377601963 kcal/mol)

>  <smiles>  (41) 
CN(C)CCNC(=O)c1ccc(-c2cc(-c3cnc(C4(O)CCC4)s3)c[nH]c2=N)cc1F

>  <score_type>  (41) 
oracle

>  <origin>  (41) 
adg

>  <m_score__min__energy>  (41) 
-10.91

>  <m_primary>  (41) 
energy

$$$$
41:0
     RDKit          3D

 59 62  0  0  0  0  0  0  0  0999 V2000
   64.2340   28.0890   54.0640 H   0  0  0  0  0  0  0  0  0  0  0  0
   63.2520   27.7320   54.0110 N   0  0  0  0  0  0  0  0  0  0  0  0
   62.6100   27.6930   52.8870 C   0  0  0  0  0  0  0  0  0  0  0  0
   62.2560   26.4980   52.3400 N   0  0  0  0  0  0  0  0  0  0  0  0
   61.5770   26.4410   51.1630 C   0  0  0  0  0  0  0  0  0  0  0  0
   61.3002   25.4668   50.7337 H   0  0  0  0  0  0  0  0  0  0  0  0
   61.2310   27.6220   50.4990 C   0  0  0  0  0  0  0  0  0  0  0  0
   60.4960   27.5700   49.2600 C   0  0  0  0  0  0  0  0  0  0  0  0
   59.8960   27.5250   48.2150 C   0  0  0  0  0  0  0  0  0  0  0  0
   59.1900   27.4630   46.9620 C   0  0  0  0  0  0  0  0  0  0  0  0
   58.3960   28.5450   46.5570 C   0  0  0  0  0  0  0  0  0  0  0  0
   58.3529   29.4547   47.1739 H   0  0  0  0  0  0  0  0  0  0  0  0
   57.6560   28.4710   45.3670 C   0  0  0  0  0  0  0  0  0  0  0  0
   56.7650   29.5840   44.9790 C   0  0  0  0  0  0  0  0  0  0  0  0
   55.5280   29.3760   44.8730 O   0  0  0  0  0  0  0  0  0  0  0  0
   57.2650   30.9150   44.7780 N   0  0  0  0  0  0  0  0  0  0  0  0
   57.9930   31.6970   45.7370 C   0  0  0  0  0  0  0  0  0  0  0  0
   58.1320   31.2080   47.0350 C   0  0  0  0  0  0  0  0  0  0  0  0
   57.6912   30.2364   47.3028 H   0  0  0  0  0  0  0  0  0  0  0  0
   58.8250   31.9410   47.9950 C   0  0  0  0  0  0  0  0  0  0  0  0
   58.9363   31.5343   49.0110 H   0  0  0  0  0  0  0  0  0  0  0  0
   59.3850   33.1940   47.6850 C   0  0  0  0  0  0  0  0  0  0  0  0
   60.1360   33.9160   48.7890 C   0  0  0  0  0  0  0  0  0  0  0  0
   60.3773   34.9350   48.4522 H   0  0  0  0  0  0  0  0  0  0  0  0
   59.4974   33.9453   49.6842 H   0  0  0  0  0  0  0  0  0  0  0  0
   61.3930   33.2090   49.1310 N   0  0  0  0  0  0  0  0  0  0  0  0
   62.0070   33.7570   50.3690 C   0  0  0  0  0  0  0  0  0  0  0  0
   61.6938   34.8057   50.4790 H   0  0  0  0  0  0  0  0  0  0  0  0
   61.6644   33.1313   51.2063 H   0  0  0  0  0  0  0  0  0  0  0  0
   63.5480   33.7050   50.3620 C   0  0  0  0  0  0  0  0  0  0  0  0
   63.9373   34.5823   49.8246 H   0  0  0  0  0  0  0  0  0  0  0  0
   63.9087   33.7060   51.4012 H   0  0  0  0  0  0  0  0  0  0  0  0
   64.0200   32.4790   49.6950 N   0  0  0  0  0  0  0  0  0  0  0  0
   65.4930   32.4150   49.7520 C   0  0  0  0  0  0  0  0  0  0  0  0
   65.8190   32.4008   50.8025 H   0  0  0  0  0  0  0  0  0  0  0  0
   65.8401   31.5009   49.2480 H   0  0  0  0  0  0  0  0  0  0  0  0
   65.9180   33.2955   49.2480 H   0  0  0  0  0  0  0  0  0  0  0  0
   63.5530   32.3790   48.2880 C   0  0  0  0  0  0  0  0  0  0  0  0
   64.3733   32.6894   47.6241 H   0  0  0  0  0  0  0  0  0  0  0  0
   63.2555   31.3342   48.1149 H   0  0  0  0  0  0  0  0  0  0  0  0
   62.3270   33.2590   47.9950 C   0  0  0  0  0  0  0  0  0  0  0  0
   62.6528   34.2975   47.8359 H   0  0  0  0  0  0  0  0  0  0  0  0
   61.8205   32.8864   47.0924 H   0  0  0  0  0  0  0  0  0  0  0  0
   59.2520   33.7080   46.3630 C   0  0  0  0  0  0  0  0  0  0  0  0
   59.8590   35.0400   45.9450 C   0  0  0  0  0  0  0  0  0  0  0  0
   61.2400   34.9760   46.0240 F   0  0  0  0  0  0  0  0  0  0  0  0
   59.3930   36.0460   46.7730 F   0  0  0  0  0  0  0  0  0  0  0  0
   59.5300   35.3740   44.6420 F   0  0  0  0  0  0  0  0  0  0  0  0
   58.5210   32.9590   45.4180 C   0  0  0  0  0  0  0  0  0  0  0  0
   58.3610   33.3712   44.4108 H   0  0  0  0  0  0  0  0  0  0  0  0
   57.7360   27.3150   44.5760 C   0  0  0  0  0  0  0  0  0  0  0  0
   57.1603   27.2509   43.6408 H   0  0  0  0  0  0  0  0  0  0  0  0
   58.5430   26.2450   44.9700 C   0  0  0  0  0  0  0  0  0  0  0  0
   58.6077   25.3457   44.3399 H   0  0  0  0  0  0  0  0  0  0  0  0
   59.2680   26.3140   46.1620 C   0  0  0  0  0  0  0  0  0  0  0  0
   60.0320   25.2580   46.5390 F   0  0  0  0  0  0  0  0  0  0  0  0
   61.6070   28.8450   51.0770 C   0  0  0  0  0  0  0  0  0  0  0  0
   61.2130   30.3840   50.3200 Cl  0  0  0  0  0  0  0  0  0  0  0  0
   62.2860   28.8510   52.2540 N   0  0  0  0  0  0  0  0  0  0  0  0
  1  2  1  0
  2  3  2  0
  3  4  1  0
  4  5  2  0
  5  6  1  0
  5  7  1  0
  7  8  1  0
  8  9  3  0
  9 10  1  0
 10 11  2  0
 11 12  1  0
 11 13  1  0
 13 14  1  0
 14 15  2  0
 14 16  1  0
 16 17  1  0
 17 18  2  0
 18 19  1  0
 18 20  1  0
 20 21  1  0
 20 22  2  0
 22 23  1  0
 23 24  1  0
 23 25  1  0
 23 26  1  0
 26 27  1  0
 27 28  1  0
 27 29  1  0
 27 30  1  0
 30 31  1  0
 30 32  1  0
 30 33  1  0
 33 34  1  0
 34 35  1  0
 34 36  1  0
 34 37  1  0
 33 38  1  0
 38 39  1  0
 38 40  1  0
 38 41  1  0
 41 42  1  0
 41 43  1  0
 22 44  1  0
 44 45  1  0
 45 46  1  0
 45 47  1  0
 45 48  1  0
 44 49  2  0
 49 50  1  0
 13 51  2  0
 51 52  1  0
 51 53  1  0
 53 54  1  0
 53 55  2  0
 55 56  1  0
  7 57  2  0
 57 58  1  0
 57 59  1  0
 59  3  1  0
 55 10  1  0
 49 17  1  0
 41 26  1  0
M  CHG  2  16  -1  59  -1
M  END
>  <UniqueID>  (42) 
39

>  <SMILES>  (42) 
[H]/N=c1\ncc(C#Cc2cc(C(=O)[N-]c3ccc(CN4CCN(C)CC4)c(C(F)(F)F)c3)ccc2F)c(Cl)[n-]1

>  <Energy>  (42) 
82.15490152798328

>  <Genealogy>  (42) 
CN1CCN(Cc2ccc([N-]C(=O)c3ccc(F)c(C#Cc4cnc(=N)[n-]c4Cl)c3)cc2C(F)(F)F)CC1 (protonated)
[H]/N=c1\ncc(C#Cc2cc(C(=O)[N-]c3ccc(CN4CCN(C)CC4)c(C(F)(F)F)c3)ccc2F)c(Cl)[n-]1 (cis-trans isomerization)
[H]/N=c1\ncc(C#Cc2cc(C(=O)[N-]c3ccc(CN4CCN(C)CC4)c(C(F)(F)F)c3)ccc2F)c(Cl)[n-]1 (3D coordinates assigned)
[H]/N=c1\ncc(C#Cc2cc(C(=O)[N-]c3ccc(CN4CCN(C)CC4)c(C(F)(F)F)c3)ccc2F)c(Cl)[n-]1 (nonaromatic ring conformer: 82.15490152798328 kcal/mol)

>  <smiles>  (42) 
CN1CCN(Cc2ccc(NC(=O)c3ccc(F)c(C#Cc4cnc(=N)[nH]c4Cl)c3)cc2C(F)(F)F)CC1

>  <score_type>  (42) 
oracle

>  <origin>  (42) 
adg

>  <m_score__min__energy>  (42) 
-11.529999999999999

>  <m_primary>  (42) 
energy

$$$$
42:0
     RDKit          3D

 43 45  0  0  0  0  0  0  0  0999 V2000
   57.5970   31.8440   46.7910 O   0  0  0  0  0  0  0  0  0  0  0  0
   58.3030   32.8880   46.8280 C   0  0  0  0  0  0  0  0  0  0  0  0
   59.0320   33.2380   48.0950 C   0  0  0  0  0  0  0  0  0  0  0  0
   60.2500   34.0270   47.8370 N   0  0  0  0  0  0  0  0  0  0  0  0
   61.5250   33.0590   47.1230 S   0  0  0  0  0  0  0  0  0  0  0  0
   60.9660   31.7980   46.5220 O   0  0  0  0  0  0  0  0  0  0  0  0
   62.2030   33.8430   46.0340 O   0  0  0  0  0  0  0  0  0  0  0  0
   62.7250   32.6490   48.3450 C   0  0  0  0  0  0  0  0  0  0  0  0
   62.4780   31.5990   49.2420 C   0  0  0  0  0  0  0  0  0  0  0  0
   63.4350   31.2560   50.2030 C   0  0  0  0  0  0  0  0  0  0  0  0
   64.6440   31.9560   50.2690 C   0  0  0  0  0  0  0  0  0  0  0  0
   64.8970   32.9980   49.3730 C   0  0  0  0  0  0  0  0  0  0  0  0
   63.9440   33.3430   48.4110 C   0  0  0  0  0  0  0  0  0  0  0  0
   59.9700   35.2340   47.0380 C   0  0  0  0  0  0  0  0  0  0  0  0
   59.2290   34.9220   45.7660 C   0  0  0  0  0  0  0  0  0  0  0  0
   59.3310   35.7110   44.7890 O   0  0  0  0  0  0  0  0  0  0  0  0
   58.3700   33.7690   45.6920 N   0  0  0  0  0  0  0  0  0  0  0  0
   57.5210   33.5290   44.5150 C   0  0  0  0  0  0  0  0  0  0  0  0
   58.1140   32.4350   43.6190 C   0  0  0  0  0  0  0  0  0  0  0  0
   57.7350   31.0580   44.0990 C   0  0  0  0  0  0  0  0  0  0  0  0
   56.3930   30.6410   44.0710 C   0  0  0  0  0  0  0  0  0  0  0  0
   56.0510   29.3440   44.4650 C   0  0  0  0  0  0  0  0  0  0  0  0
   57.0430   28.4550   44.8860 C   0  0  0  0  0  0  0  0  0  0  0  0
   58.3810   28.8600   44.9110 C   0  0  0  0  0  0  0  0  0  0  0  0
   58.7290   30.1550   44.5140 C   0  0  0  0  0  0  0  0  0  0  0  0
   58.3604   33.8239   48.7398 H   0  0  0  0  0  0  0  0  0  0  0  0
   59.3348   32.2987   48.5808 H   0  0  0  0  0  0  0  0  0  0  0  0
   61.5296   31.0441   49.1896 H   0  0  0  0  0  0  0  0  0  0  0  0
   63.2364   30.4349   50.9075 H   0  0  0  0  0  0  0  0  0  0  0  0
   65.3953   31.6864   51.0259 H   0  0  0  0  0  0  0  0  0  0  0  0
   65.8483   33.5478   49.4250 H   0  0  0  0  0  0  0  0  0  0  0  0
   64.1492   34.1601   47.7038 H   0  0  0  0  0  0  0  0  0  0  0  0
   59.3611   35.9234   47.6413 H   0  0  0  0  0  0  0  0  0  0  0  0
   60.9349   35.6841   46.7617 H   0  0  0  0  0  0  0  0  0  0  0  0
   56.5217   33.2153   44.8511 H   0  0  0  0  0  0  0  0  0  0  0  0
   57.4592   34.4607   43.9336 H   0  0  0  0  0  0  0  0  0  0  0  0
   57.7392   32.5713   42.5939 H   0  0  0  0  0  0  0  0  0  0  0  0
   59.2102   32.5207   43.6515 H   0  0  0  0  0  0  0  0  0  0  0  0
   55.6093   31.3374   43.7380 H   0  0  0  0  0  0  0  0  0  0  0  0
   54.9991   29.0230   44.4435 H   0  0  0  0  0  0  0  0  0  0  0  0
   56.7713   27.4358   45.1980 H   0  0  0  0  0  0  0  0  0  0  0  0
   59.1609   28.1591   45.2434 H   0  0  0  0  0  0  0  0  0  0  0  0
   59.7835   30.4678   44.5265 H   0  0  0  0  0  0  0  0  0  0  0  0
  1  2  2  0
  2  3  1  0
  3  4  1  0
  4  5  1  0
  5  6  2  0
  5  7  2  0
  5  8  1  0
  8  9  2  0
  9 10  1  0
 10 11  2  0
 11 12  1  0
 12 13  2  0
  4 14  1  0
 14 15  1  0
 15 16  2  0
 15 17  1  0
 17 18  1  0
 18 19  1  0
 19 20  1  0
 20 21  2  0
 21 22  1  0
 22 23  2  0
 23 24  1  0
 24 25  2  0
 17  2  1  0
 25 20  1  0
 13  8  1  0
  3 26  1  0
  3 27  1  0
  9 28  1  0
 10 29  1  0
 11 30  1  0
 12 31  1  0
 13 32  1  0
 14 33  1  0
 14 34  1  0
 18 35  1  0
 18 36  1  0
 19 37  1  0
 19 38  1  0
 21 39  1  0
 22 40  1  0
 23 41  1  0
 24 42  1  0
 25 43  1  0
M  END
>  <UniqueID>  (43) 
40

>  <SMILES>  (43) 
O=C1CN(S(=O)(=O)c2ccccc2)CC(=O)N1CCc1ccccc1

>  <Energy>  (43) 
43.81591895644598

>  <Genealogy>  (43) 
O=C1CN(S(=O)(=O)c2ccccc2)CC(=O)N1CCc1ccccc1 (3D coordinates assigned)
O=C1CN(S(=O)(=O)c2ccccc2)CC(=O)N1CCc1ccccc1 (nonaromatic ring conformer: 43.81591895644598 kcal/mol)

>  <smiles>  (43) 
O=C1CN(S(=O)(=O)c2ccccc2)CC(=O)N1CCc1ccccc1

>  <score_type>  (43) 
oracle

>  <origin>  (43) 
adg

>  <m_score__min__energy>  (43) 
-8.1899999999999995

>  <m_primary>  (43) 
energy

$$$$
43:0
     RDKit          3D

 62 64  0  0  0  0  0  0  0  0999 V2000
   58.1820   24.6230   45.6940 C   0  0  0  0  0  0  0  0  0  0  0  0
   57.8600   26.0830   45.3520 C   0  0  0  0  0  0  0  0  0  0  0  0
   58.1420   26.3730   43.8720 C   0  0  0  0  0  0  0  0  0  0  0  0
   56.4190   26.3830   45.7020 C   0  0  0  0  0  0  0  0  0  0  0  0
   55.7050   25.4790   46.2140 O   0  0  0  0  0  0  0  0  0  0  0  0
   55.8850   27.7110   45.6090 N   0  0  0  0  0  0  0  0  0  0  0  0
   56.5530   28.8600   45.0680 C   0  0  0  0  0  0  0  0  0  0  0  0
   56.0680   29.4290   43.8840 C   0  0  0  0  0  0  0  0  0  0  0  0
   56.7350   30.5040   43.2930 C   0  0  0  0  0  0  0  0  0  0  0  0
   57.9080   31.0030   43.8660 C   0  0  0  0  0  0  0  0  0  0  0  0
   58.4240   30.4260   45.0370 C   0  0  0  0  0  0  0  0  0  0  0  0
   59.6700   30.9790   45.6770 C   0  0  0  0  0  0  0  0  0  0  0  0
   59.3930   32.3120   46.2480 N   0  0  0  0  0  0  0  0  0  0  0  0
   57.9980   32.4070   46.7430 C   0  0  0  0  0  0  0  0  0  0  0  0
   57.6340   33.8400   47.1960 C   0  0  0  0  0  0  0  0  0  0  0  0
   58.8710   34.7460   47.3160 C   0  0  0  0  0  0  0  0  0  0  0  0
   59.7500   34.2910   48.4650 C   0  0  0  0  0  0  0  0  0  0  0  0
   59.7360   34.9090   49.5660 O   0  0  0  0  0  0  0  0  0  0  0  0
   60.6350   33.1750   48.2860 N   0  0  0  0  0  0  0  0  0  0  0  0
   61.7690   32.9380   49.1870 C   0  0  0  0  0  0  0  0  0  0  0  0
   62.7600   34.1150   49.1060 C   0  0  0  0  0  0  0  0  0  0  0  0
   63.4390   34.2230   47.7270 C   0  0  0  0  0  0  0  0  0  0  0  0
   63.6590   32.8640   47.0350 C   0  0  0  0  0  0  0  0  0  0  0  0
   63.7520   31.7160   48.0430 C   0  0  0  0  0  0  0  0  0  0  0  0
   62.4600   31.5830   48.8720 C   0  0  0  0  0  0  0  0  0  0  0  0
   59.6160   34.7750   45.9570 C   0  0  0  0  0  0  0  0  0  0  0  0
   59.6770   33.3870   45.2770 C   0  0  0  0  0  0  0  0  0  0  0  0
   57.7370   29.3570   45.6390 C   0  0  0  0  0  0  0  0  0  0  0  0
   58.2092   24.4998   46.7867 H   0  0  0  0  0  0  0  0  0  0  0  0
   57.4068   23.9676   45.2703 H   0  0  0  0  0  0  0  0  0  0  0  0
   59.1610   24.3545   45.2703 H   0  0  0  0  0  0  0  0  0  0  0  0
   58.5109   26.7409   45.9465 H   0  0  0  0  0  0  0  0  0  0  0  0
   58.9068   27.1595   43.7917 H   0  0  0  0  0  0  0  0  0  0  0  0
   58.5046   25.4576   43.3816 H   0  0  0  0  0  0  0  0  0  0  0  0
   57.2168   26.7098   43.3816 H   0  0  0  0  0  0  0  0  0  0  0  0
   55.1568   29.0270   43.4170 H   0  0  0  0  0  0  0  0  0  0  0  0
   56.3363   30.9591   42.3744 H   0  0  0  0  0  0  0  0  0  0  0  0
   58.4289   31.8511   43.3976 H   0  0  0  0  0  0  0  0  0  0  0  0
   60.0005   30.3009   46.4776 H   0  0  0  0  0  0  0  0  0  0  0  0
   60.4589   31.0682   44.9157 H   0  0  0  0  0  0  0  0  0  0  0  0
   57.3145   32.1067   45.9352 H   0  0  0  0  0  0  0  0  0  0  0  0
   57.9038   31.7435   47.6153 H   0  0  0  0  0  0  0  0  0  0  0  0
   56.9440   34.2790   46.4604 H   0  0  0  0  0  0  0  0  0  0  0  0
   57.1697   33.7708   48.1908 H   0  0  0  0  0  0  0  0  0  0  0  0
   58.5678   35.7773   47.5495 H   0  0  0  0  0  0  0  0  0  0  0  0
   60.5080   32.5730   47.4410 H   0  0  0  0  0  0  0  0  0  0  0  0
   61.3945   32.8750   50.2194 H   0  0  0  0  0  0  0  0  0  0  0  0
   62.2145   35.0494   49.3044 H   0  0  0  0  0  0  0  0  0  0  0  0
   63.5481   33.9394   49.8530 H   0  0  0  0  0  0  0  0  0  0  0  0
   62.8066   34.8452   47.0766 H   0  0  0  0  0  0  0  0  0  0  0  0
   64.4333   34.6633   47.8927 H   0  0  0  0  0  0  0  0  0  0  0  0
   62.8167   32.6716   46.3542 H   0  0  0  0  0  0  0  0  0  0  0  0
   64.6110   32.9123   46.4861 H   0  0  0  0  0  0  0  0  0  0  0  0
   63.9251   30.7760   47.4985 H   0  0  0  0  0  0  0  0  0  0  0  0
   64.5824   31.9296   48.7320 H   0  0  0  0  0  0  0  0  0  0  0  0
   61.7518   30.9559   48.3106 H   0  0  0  0  0  0  0  0  0  0  0  0
   62.7455   31.1395   49.8373 H   0  0  0  0  0  0  0  0  0  0  0  0
   59.0947   35.4728   45.2853 H   0  0  0  0  0  0  0  0  0  0  0  0
   60.6505   35.0934   46.1532 H   0  0  0  0  0  0  0  0  0  0  0  0
   58.9316   33.3487   44.4690 H   0  0  0  0  0  0  0  0  0  0  0  0
   60.6892   33.2376   44.8732 H   0  0  0  0  0  0  0  0  0  0  0  0
   58.1289   28.9068   46.5630 H   0  0  0  0  0  0  0  0  0  0  0  0
  1  2  1  0
  2  3  1  0
  2  4  1  0
  4  5  2  0
  4  6  1  0
  6  7  1  0
  7  8  2  0
  8  9  1  0
  9 10  2  0
 10 11  1  0
 11 12  1  0
 12 13  1  0
 13 14  1  0
 14 15  1  0
 15 16  1  0
 16 17  1  0
 17 18  2  0
 17 19  1  0
 19 20  1  0
 20 21  1  0
 21 22  1  0
 22 23  1  0
 23 24  1  0
 24 25  1  0
 16 26  1  0
 26 27  1  0
 11 28  2  0
 28  7  1  0
 27 13  1  0
 25 20  1  0
  1 29  1  0
  1 30  1  0
  1 31  1  0
  2 32  1  0
  3 33  1  0
  3 34  1  0
  3 35  1  0
  8 36  1  0
  9 37  1  0
 10 38  1  0
 12 39  1  0
 12 40  1  0
 14 41  1  0
 14 42  1  0
 15 43  1  0
 15 44  1  0
 16 45  1  0
 19 46  1  0
 20 47  1  0
 21 48  1  0
 21 49  1  0
 22 50  1  0
 22 51  1  0
 23 52  1  0
 23 53  1  0
 24 54  1  0
 24 55  1  0
 25 56  1  0
 25 57  1  0
 26 58  1  0
 26 59  1  0
 27 60  1  0
 27 61  1  0
 28 62  1  0
M  CHG  1   6  -1
M  END
>  <UniqueID>  (44) 
41

>  <SMILES>  (44) 
CC(C)C(=O)[N-]c1cccc(CN2CCC(C(=O)NC3CCCCC3)CC2)c1

>  <Energy>  (44) 
63.38256939843518

>  <Genealogy>  (44) 
CC(C)C(=O)[N-]c1cccc(CN2CCC(C(=O)NC3CCCCC3)CC2)c1 (protonated)
CC(C)C(=O)[N-]c1cccc(CN2CCC(C(=O)NC3CCCCC3)CC2)c1 (3D coordinates assigned)
CC(C)C(=O)[N-]c1cccc(CN2CCC(C(=O)NC3CCCCC3)CC2)c1 (nonaromatic ring conformer: 63.38256939843518 kcal/mol)

>  <smiles>  (44) 
CC(C)C(=O)Nc1cccc(CN2CCC(C(=O)NC3CCCCC3)CC2)c1

>  <score_type>  (44) 
oracle

>  <origin>  (44) 
adg

>  <m_score__min__energy>  (44) 
-11.119999999999999

>  <m_primary>  (44) 
energy

$$$$
44:0
     RDKit          3D

 60 63  0  0  0  0  0  0  0  0999 V2000
   54.7110   22.9640   48.2460 C   0  0  0  0  0  0  0  0  0  0  0  0
   53.9050   23.0770   47.0380 N   0  0  0  0  0  0  0  0  0  0  0  0
   54.1060   24.0750   46.0300 C   0  0  0  0  0  0  0  0  0  0  0  0
   53.1600   24.3540   45.2490 O   0  0  0  0  0  0  0  0  0  0  0  0
   55.4020   24.7510   45.8530 C   0  0  0  0  0  0  0  0  0  0  0  0
   55.4020   26.1090   45.8410 N   0  0  0  0  0  0  0  0  0  0  0  0
   56.5250   26.8380   45.6220 C   0  0  0  0  0  0  0  0  0  0  0  0
   56.4600   28.2340   45.6150 C   0  0  0  0  0  0  0  0  0  0  0  0
   57.6170   28.9780   45.3580 C   0  0  0  0  0  0  0  0  0  0  0  0
   57.5580   30.2780   45.3730 N   0  0  0  0  0  0  0  0  0  0  0  0
   58.2120   31.1480   46.3100 C   0  0  0  0  0  0  0  0  0  0  0  0
   59.0710   30.6480   47.3040 C   0  0  0  0  0  0  0  0  0  0  0  0
   59.7250   31.5210   48.1770 C   0  0  0  0  0  0  0  0  0  0  0  0
   59.5660   32.9070   48.0410 C   0  0  0  0  0  0  0  0  0  0  0  0
   60.2140   33.8150   49.0070 C   0  0  0  0  0  0  0  0  0  0  0  0
   59.5240   34.2000   49.9900 O   0  0  0  0  0  0  0  0  0  0  0  0
   61.6180   34.1920   48.9390 N   0  0  0  0  0  0  0  0  0  0  0  0
   62.2970   34.0490   50.2460 C   0  0  0  0  0  0  0  0  0  0  0  0
   62.8240   32.6280   50.5070 C   0  0  0  0  0  0  0  0  0  0  0  0
   63.6500   32.1160   49.4010 N   0  0  0  0  0  0  0  0  0  0  0  0
   64.9790   32.7510   49.3370 C   0  0  0  0  0  0  0  0  0  0  0  0
   62.9260   32.1840   48.1190 C   0  0  0  0  0  0  0  0  0  0  0  0
   62.3770   33.5930   47.8160 C   0  0  0  0  0  0  0  0  0  0  0  0
   58.6910   33.4090   47.0640 C   0  0  0  0  0  0  0  0  0  0  0  0
   58.0400   32.5350   46.1860 C   0  0  0  0  0  0  0  0  0  0  0  0
   57.2260   33.0380   45.2240 F   0  0  0  0  0  0  0  0  0  0  0  0
   58.7950   28.3290   45.1310 N   0  0  0  0  0  0  0  0  0  0  0  0
   58.8890   26.9720   45.1380 C   0  0  0  0  0  0  0  0  0  0  0  0
   57.7490   26.1880   45.3860 C   0  0  0  0  0  0  0  0  0  0  0  0
   57.7960   24.7830   45.4210 C   0  0  0  0  0  0  0  0  0  0  0  0
   58.9000   24.1900   45.2590 O   0  0  0  0  0  0  0  0  0  0  0  0
   56.6180   24.0400   45.6660 C   0  0  0  0  0  0  0  0  0  0  0  0
   56.6730   22.5550   45.7740 C   0  0  0  0  0  0  0  0  0  0  0  0
   57.3660   22.0080   46.6720 O   0  0  0  0  0  0  0  0  0  0  0  0
   55.9480   21.7340   44.8540 N   0  0  0  0  0  0  0  0  0  0  0  0
   56.0490   21.9140   43.5130 O   0  0  0  0  0  0  0  0  0  0  0  0
   57.1110   21.1020   43.0850 C   0  0  0  0  0  0  0  0  0  0  0  0
   54.0621   23.0550   49.1296 H   0  0  0  0  0  0  0  0  0  0  0  0
   55.2151   21.9864   48.2603 H   0  0  0  0  0  0  0  0  0  0  0  0
   55.4645   23.7653   48.2603 H   0  0  0  0  0  0  0  0  0  0  0  0
   55.5055   28.7447   45.8103 H   0  0  0  0  0  0  0  0  0  0  0  0
   59.2292   29.5632   47.3950 H   0  0  0  0  0  0  0  0  0  0  0  0
   60.3673   31.1190   48.9744 H   0  0  0  0  0  0  0  0  0  0  0  0
   61.6140   35.2210   48.7380 H   0  0  0  0  0  0  0  0  0  0  0  0
   63.1465   34.7472   50.2761 H   0  0  0  0  0  0  0  0  0  0  0  0
   61.5520   34.2678   51.0252 H   0  0  0  0  0  0  0  0  0  0  0  0
   63.4321   32.6411   51.4235 H   0  0  0  0  0  0  0  0  0  0  0  0
   61.9529   31.9637   50.6061 H   0  0  0  0  0  0  0  0  0  0  0  0
   65.3501   32.9283   50.3572 H   0  0  0  0  0  0  0  0  0  0  0  0
   65.6764   32.0888   48.8030 H   0  0  0  0  0  0  0  0  0  0  0  0
   64.9020   33.7096   48.8030 H   0  0  0  0  0  0  0  0  0  0  0  0
   63.6139   31.8938   47.3112 H   0  0  0  0  0  0  0  0  0  0  0  0
   62.0661   31.5016   48.1880 H   0  0  0  0  0  0  0  0  0  0  0  0
   63.2250   34.2524   47.5795 H   0  0  0  0  0  0  0  0  0  0  0  0
   61.6767   33.4904   46.9739 H   0  0  0  0  0  0  0  0  0  0  0  0
   58.5168   34.4925   46.9886 H   0  0  0  0  0  0  0  0  0  0  0  0
   59.8584   26.4876   44.9493 H   0  0  0  0  0  0  0  0  0  0  0  0
   57.6396   20.6978   43.9609 H   0  0  0  0  0  0  0  0  0  0  0  0
   56.7173   20.2724   42.4793 H   0  0  0  0  0  0  0  0  0  0  0  0
   57.8083   21.6994   42.4793 H   0  0  0  0  0  0  0  0  0  0  0  0
  1  2  1  0
  2  3  1  0
  3  4  2  0
  3  5  1  0
  5  6  1  0
  6  7  1  0
  7  8  2  0
  8  9  1  0
  9 10  2  3
 10 11  1  0
 11 12  2  0
 12 13  1  0
 13 14  2  0
 14 15  1  0
 15 16  2  0
 15 17  1  0
 17 18  1  0
 18 19  1  0
 19 20  1  0
 20 21  1  0
 20 22  1  0
 22 23  1  0
 14 24  1  0
 24 25  2  0
 25 26  1  0
  9 27  1  0
 27 28  1  0
 28 29  2  0
 29 30  1  0
 30 31  2  0
 30 32  1  0
 32 33  1  0
 33 34  2  0
 33 35  1  0
 35 36  1  0
 36 37  1  0
 32  5  2  0
 29  7  1  0
 25 11  1  0
 23 17  1  0
  1 38  1  0
  1 39  1  0
  1 40  1  0
  8 41  1  0
 12 42  1  0
 13 43  1  0
 17 44  1  0
 18 45  1  0
 18 46  1  0
 19 47  1  0
 19 48  1  0
 21 49  1  0
 21 50  1  0
 21 51  1  0
 22 52  1  0
 22 53  1  0
 23 54  1  0
 23 55  1  0
 24 56  1  0
 28 57  1  0
 37 58  1  0
 37 59  1  0
 37 60  1  0
M  CHG  5   2  -1   6  -1  17   1  27  -1  35  -1
M  END
>  <UniqueID>  (45) 
42

>  <SMILES>  (45) 
C[N-]C(=O)c1[n-]c2cc(=Nc3ccc(C(=O)[NH+]4CCN(C)CC4)cc3F)[n-]cc2c(=O)c1C(=O)[N-]OC

>  <Energy>  (45) 
102.54453657904642

>  <Genealogy>  (45) 
C[N-]C(=O)c1[n-]c2cc(=Nc3ccc(C(=O)[NH+]4CCN(C)CC4)cc3F)[n-]cc2c(=O)c1C(=O)[N-]OC (protonated)
C[N-]C(=O)c1[n-]c2cc(=Nc3ccc(C(=O)[NH+]4CCN(C)CC4)cc3F)[n-]cc2c(=O)c1C(=O)[N-]OC (3D coordinates assigned)
C[N-]C(=O)c1[n-]c2cc(=Nc3ccc(C(=O)[NH+]4CCN(C)CC4)cc3F)[n-]cc2c(=O)c1C(=O)[N-]OC (nonaromatic ring conformer: 102.54453657904642 kcal/mol)

>  <smiles>  (45) 
CNC(=O)c1[nH]c2cc(=Nc3ccc(C(=O)N4CCN(C)CC4)cc3F)[nH]cc2c(=O)c1C(=O)NOC

>  <score_type>  (45) 
oracle

>  <origin>  (45) 
adg

>  <m_score__min__energy>  (45) 
-13.42

>  <m_primary>  (45) 
energy

$$$$
45:0
     RDKit          3D

 36 38  0  0  0  0  0  0  0  0999 V2000
   52.8547   28.8173   54.4756 H   0  0  0  0  0  0  0  0  0  0  0  0
   53.9430   28.7850   54.3190 C   0  0  0  0  0  0  0  0  0  0  0  0
   54.5750   28.1681   54.9747 H   0  0  0  0  0  0  0  0  0  0  0  0
   54.4980   29.4960   53.3310 C   0  0  0  0  0  0  0  0  0  0  0  0
   53.8480   30.3160   52.4110 C   0  0  0  0  0  0  0  0  0  0  0  0
   52.5310   30.5960   52.3540 C   0  0  0  0  0  0  0  0  0  0  0  0
   51.9580   30.5787   53.2928 H   0  0  0  0  0  0  0  0  0  0  0  0
   51.8120   30.9240   51.1100 C   0  0  0  0  0  0  0  0  0  0  0  0
   51.8060   30.1260   50.0290 N   0  0  0  0  0  0  0  0  0  0  0  0
   51.1110   30.8380   49.1150 C   0  0  0  0  0  0  0  0  0  0  0  0
   50.8770   30.4080   47.9560 O   0  0  0  0  0  0  0  0  0  0  0  0
   50.6950   32.0500   49.5390 N   0  0  0  0  0  0  0  0  0  0  0  0
   51.1570   32.0960   50.7990 C   0  0  0  0  0  0  0  0  0  0  0  0
   51.0220   33.2050   51.6250 O   0  0  0  0  0  0  0  0  0  0  0  0
   54.8420   30.8390   51.5940 C   0  0  0  0  0  0  0  0  0  0  0  0
   54.7025   31.5406   50.7583 H   0  0  0  0  0  0  0  0  0  0  0  0
   56.0450   30.3060   52.0350 C   0  0  0  0  0  0  0  0  0  0  0  0
   57.4110   30.5630   51.4970 C   0  0  0  0  0  0  0  0  0  0  0  0
   58.1340   29.5630   51.2340 O   0  0  0  0  0  0  0  0  0  0  0  0
   57.9470   31.8910   51.2530 N   0  0  0  0  0  0  0  0  0  0  0  0
   57.1710   32.4620   50.8360 H   0  0  0  0  0  0  0  0  0  0  0  0
   58.3150   32.5770   52.5080 C   0  0  0  0  0  0  0  0  0  0  0  0
   57.4275   32.6464   53.1542 H   0  0  0  0  0  0  0  0  0  0  0  0
   59.1078   31.9990   53.0054 H   0  0  0  0  0  0  0  0  0  0  0  0
   58.8470   34.0030   52.2220 C   0  0  0  0  0  0  0  0  0  0  0  0
   58.0571   34.7266   52.4719 H   0  0  0  0  0  0  0  0  0  0  0  0
   59.7483   34.1431   52.8368 H   0  0  0  0  0  0  0  0  0  0  0  0
   59.2270   34.2010   50.8700 O   0  0  0  0  0  0  0  0  0  0  0  0
   59.9650   33.0920   50.4030 C   0  0  0  0  0  0  0  0  0  0  0  0
   60.4109   33.3353   49.4273 H   0  0  0  0  0  0  0  0  0  0  0  0
   60.7594   32.8551   51.1260 H   0  0  0  0  0  0  0  0  0  0  0  0
   59.0390   31.8740   50.2510 C   0  0  0  0  0  0  0  0  0  0  0  0
   58.5988   31.8837   49.2430 H   0  0  0  0  0  0  0  0  0  0  0  0
   59.6374   30.9647   50.4094 H   0  0  0  0  0  0  0  0  0  0  0  0
   55.8240   29.4960   53.0910 N   0  0  0  0  0  0  0  0  0  0  0  0
   56.5490   28.9660   53.6270 H   0  0  0  0  0  0  0  0  0  0  0  0
  1  2  1  0
  2  3  1  0
  2  4  2  0
  4  5  1  0
  5  6  2  0
  6  7  1  0
  6  8  1  0
  8  9  1  0
  9 10  1  0
 10 11  2  0
 10 12  1  0
 12 13  1  0
 13 14  1  0
  5 15  1  0
 15 16  1  0
 15 17  2  0
 17 18  1  0
 18 19  2  0
 18 20  1  0
 20 21  1  0
 20 22  1  0
 22 23  1  0
 22 24  1  0
 22 25  1  0
 25 26  1  0
 25 27  1  0
 25 28  1  0
 28 29  1  0
 29 30  1  0
 29 31  1  0
 29 32  1  0
 32 33  1  0
 32 34  1  0
 17 35  1  0
 35 36  1  0
 35  4  1  0
 13  8  2  0
 32 20  1  0
M  CHG  4   9  -1  12  -1  14  -1  20   1
M  END
>  <UniqueID>  (46) 
43

>  <SMILES>  (46) 
C=c1[nH]c(C(=O)[NH+]2CCOCC2)c/c1=C\c1[n-]c(=O)[n-]c1[O-]

>  <Energy>  (46) 
114.7463980001431

>  <Genealogy>  (46) 
C=c1[nH]c(C(=O)[NH+]2CCOCC2)cc1=Cc1[n-]c(=O)[n-]c1[O-] (protonated)
C=c1[nH]c(C(=O)[NH+]2CCOCC2)c/c1=C\c1[n-]c(=O)[n-]c1[O-] (cis-trans isomerization)
C=c1[nH]c(C(=O)[NH+]2CCOCC2)c/c1=C\c1[n-]c(=O)[n-]c1[O-] (3D coordinates assigned)
C=c1[nH]c(C(=O)[NH+]2CCOCC2)c/c1=C\c1[n-]c(=O)[n-]c1[O-] (nonaromatic ring conformer: 114.7463980001431 kcal/mol)

>  <smiles>  (46) 
C=c1[nH]c(C(=O)N2CCOCC2)cc1=Cc1[nH]c(=O)[nH]c1O

>  <score_type>  (46) 
oracle

>  <origin>  (46) 
adg

>  <m_score__min__energy>  (46) 
-15.15

>  <m_primary>  (46) 
energy

$$$$
46:0
     RDKit          3D

 51 53  0  0  0  0  0  0  0  0999 V2000
   58.9130   35.0570   45.0620 O   0  0  0  0  0  0  0  0  0  0  0  0
   58.8360   34.4340   46.1550 C   0  0  0  0  0  0  0  0  0  0  0  0
   59.5030   35.0250   47.3410 C   0  0  0  0  0  0  0  0  0  0  0  0
   60.3080   34.3950   48.2160 C   0  0  0  0  0  0  0  0  0  0  0  0
   61.3620   33.4080   47.8790 C   0  0  0  0  0  0  0  0  0  0  0  0
   62.6660   33.8500   47.5860 C   0  0  0  0  0  0  0  0  0  0  0  0
   63.6610   32.9350   47.2300 C   0  0  0  0  0  0  0  0  0  0  0  0
   63.3620   31.5730   47.1340 C   0  0  0  0  0  0  0  0  0  0  0  0
   62.0570   31.1300   47.3640 C   0  0  0  0  0  0  0  0  0  0  0  0
   61.0490   32.0310   47.7280 C   0  0  0  0  0  0  0  0  0  0  0  0
   59.7450   31.5310   47.8730 O   0  0  0  0  0  0  0  0  0  0  0  0
   59.1130   31.2430   49.0900 C   0  0  0  0  0  0  0  0  0  0  0  0
   59.1400   29.9560   49.6530 C   0  0  0  0  0  0  0  0  0  0  0  0
   58.4970   29.7060   50.8650 C   0  0  0  0  0  0  0  0  0  0  0  0
   57.8180   30.7330   51.5220 C   0  0  0  0  0  0  0  0  0  0  0  0
   57.7770   32.0110   50.9640 C   0  0  0  0  0  0  0  0  0  0  0  0
   58.4130   32.2640   49.7450 C   0  0  0  0  0  0  0  0  0  0  0  0
   58.1410   33.1760   46.2020 N   0  0  0  0  0  0  0  0  0  0  0  0
   57.1450   32.8410   45.1890 C   0  0  0  0  0  0  0  0  0  0  0  0
   57.7840   32.5920   43.8100 C   0  0  0  0  0  0  0  0  0  0  0  0
   57.7550   31.1110   43.3880 C   0  0  0  0  0  0  0  0  0  0  0  0
   57.9630   30.2160   44.5250 N   0  0  0  0  0  0  0  0  0  0  0  0
   59.2700   29.6910   44.9060 C   0  0  0  0  0  0  0  0  0  0  0  0
   58.9940   28.4460   45.7720 C   0  0  0  0  0  0  0  0  0  0  0  0
   57.4740   28.3220   45.9300 C   0  0  0  0  0  0  0  0  0  0  0  0
   56.9510   29.4220   45.0980 C   0  0  0  0  0  0  0  0  0  0  0  0
   55.7250   29.6160   44.8910 O   0  0  0  0  0  0  0  0  0  0  0  0
   59.3196   36.0939   47.5250 H   0  0  0  0  0  0  0  0  0  0  0  0
   60.1714   34.6346   49.2809 H   0  0  0  0  0  0  0  0  0  0  0  0
   62.9036   34.9228   47.6375 H   0  0  0  0  0  0  0  0  0  0  0  0
   64.6824   33.2879   47.0248 H   0  0  0  0  0  0  0  0  0  0  0  0
   64.1521   30.8517   46.8780 H   0  0  0  0  0  0  0  0  0  0  0  0
   61.8188   30.0613   47.2579 H   0  0  0  0  0  0  0  0  0  0  0  0
   59.6702   29.1427   49.1359 H   0  0  0  0  0  0  0  0  0  0  0  0
   58.5251   28.6977   51.3038 H   0  0  0  0  0  0  0  0  0  0  0  0
   57.3150   30.5348   52.4800 H   0  0  0  0  0  0  0  0  0  0  0  0
   57.2436   32.8205   51.4838 H   0  0  0  0  0  0  0  0  0  0  0  0
   58.3635   33.2682   49.2989 H   0  0  0  0  0  0  0  0  0  0  0  0
   58.3360   32.5080   46.9750 H   0  0  0  0  0  0  0  0  0  0  0  0
   56.6119   31.9314   45.5026 H   0  0  0  0  0  0  0  0  0  0  0  0
   56.4567   33.6939   45.0949 H   0  0  0  0  0  0  0  0  0  0  0  0
   57.2363   33.1805   43.0592 H   0  0  0  0  0  0  0  0  0  0  0  0
   58.8400   32.8922   43.8793 H   0  0  0  0  0  0  0  0  0  0  0  0
   56.7774   30.8893   42.9351 H   0  0  0  0  0  0  0  0  0  0  0  0
   58.5715   30.9451   42.6698 H   0  0  0  0  0  0  0  0  0  0  0  0
   59.8458   29.4135   44.0108 H   0  0  0  0  0  0  0  0  0  0  0  0
   59.8597   30.4399   45.4549 H   0  0  0  0  0  0  0  0  0  0  0  0
   59.3946   27.5486   45.2779 H   0  0  0  0  0  0  0  0  0  0  0  0
   59.4790   28.5424   46.7546 H   0  0  0  0  0  0  0  0  0  0  0  0
   57.1186   27.3479   45.5628 H   0  0  0  0  0  0  0  0  0  0  0  0
   57.1455   28.3837   46.9780 H   0  0  0  0  0  0  0  0  0  0  0  0
  1  2  2  0
  2  3  1  0
  3  4  2  3
  4  5  1  0
  5  6  2  0
  6  7  1  0
  7  8  2  0
  8  9  1  0
  9 10  2  0
 10 11  1  0
 11 12  1  0
 12 13  2  0
 13 14  1  0
 14 15  2  0
 15 16  1  0
 16 17  2  0
  2 18  1  0
 18 19  1  0
 19 20  1  0
 20 21  1  0
 21 22  1  0
 22 23  1  0
 23 24  1  0
 24 25  1  0
 25 26  1  0
 26 27  2  0
 10  5  1  0
 17 12  1  0
 26 22  1  0
  3 28  1  0
  4 29  1  0
  6 30  1  0
  7 31  1  0
  8 32  1  0
  9 33  1  0
 13 34  1  0
 14 35  1  0
 15 36  1  0
 16 37  1  0
 17 38  1  0
 18 39  1  0
 19 40  1  0
 19 41  1  0
 20 42  1  0
 20 43  1  0
 21 44  1  0
 21 45  1  0
 23 46  1  0
 23 47  1  0
 24 48  1  0
 24 49  1  0
 25 50  1  0
 25 51  1  0
M  END
>  <UniqueID>  (47) 
44

>  <SMILES>  (47) 
O=C(C=Cc1ccccc1Oc1ccccc1)NCCCN1CCCC1=O

>  <Energy>  (47) 
64.65025187699703

>  <Genealogy>  (47) 
O=C(C=Cc1ccccc1Oc1ccccc1)NCCCN1CCCC1=O (3D coordinates assigned)
O=C(C=Cc1ccccc1Oc1ccccc1)NCCCN1CCCC1=O (nonaromatic ring conformer: 64.65025187699703 kcal/mol)

>  <smiles>  (47) 
O=C(C=Cc1ccccc1Oc1ccccc1)NCCCN1CCCC1=O

>  <score_type>  (47) 
oracle

>  <origin>  (47) 
adg

>  <m_score__min__energy>  (47) 
-8.9800000000000004

>  <m_primary>  (47) 
energy

$$$$
47:0
     RDKit          3D

 45 48  0  0  0  0  0  0  0  0999 V2000
   59.1700   29.4660   45.5730 O   0  0  0  0  0  0  0  0  0  0  0  0
   57.9150   29.4090   45.4610 C   0  0  0  0  0  0  0  0  0  0  0  0
   57.1570   30.5520   45.0340 N   0  0  0  0  0  0  0  0  0  0  0  0
   57.4830   31.7980   45.2090 C   0  0  0  0  0  0  0  0  0  0  0  0
   56.6530   32.8430   44.9820 N   0  0  0  0  0  0  0  0  0  0  0  0
   57.2610   34.0290   45.2500 C   0  0  0  0  0  0  0  0  0  0  0  0
   58.5730   33.9150   45.6900 C   0  0  0  0  0  0  0  0  0  0  0  0
   59.6470   35.2750   46.1350 S   0  0  0  0  0  0  0  0  0  0  0  0
   60.6900   34.2300   47.1500 C   0  0  0  0  0  0  0  0  0  0  0  0
   61.9050   33.7560   46.6470 C   0  0  0  0  0  0  0  0  0  0  0  0
   62.7110   32.9320   47.4340 C   0  0  0  0  0  0  0  0  0  0  0  0
   62.3110   32.5820   48.7270 C   0  0  0  0  0  0  0  0  0  0  0  0
   61.0990   33.0690   49.2540 C   0  0  0  0  0  0  0  0  0  0  0  0
   60.6200   32.7010   50.6140 C   0  0  0  0  0  0  0  0  0  0  0  0
   61.0740   33.3570   51.5920 O   0  0  0  0  0  0  0  0  0  0  0  0
   59.6780   31.6270   50.8790 N   0  0  0  0  0  0  0  0  0  0  0  0
   58.4180   32.1450   51.4560 C   0  0  0  0  0  0  0  0  0  0  0  0
   57.2770   31.1170   51.3330 C   0  0  0  0  0  0  0  0  0  0  0  0
   57.7990   29.8050   51.3140 O   0  0  0  0  0  0  0  0  0  0  0  0
   58.5100   29.5760   50.1060 C   0  0  0  0  0  0  0  0  0  0  0  0
   59.4380   30.7510   49.7140 C   0  0  0  0  0  0  0  0  0  0  0  0
   60.2890   33.8860   48.4460 C   0  0  0  0  0  0  0  0  0  0  0  0
   58.9980   32.2890   45.7490 S   0  0  0  0  0  0  0  0  0  0  0  0
   57.2200   28.1530   45.7730 C   0  0  0  0  0  0  0  0  0  0  0  0
   57.8220   27.0030   46.2560 C   0  0  0  0  0  0  0  0  0  0  0  0
   56.8150   26.0760   46.4040 C   0  0  0  0  0  0  0  0  0  0  0  0
   55.6620   26.7130   46.0040 C   0  0  0  0  0  0  0  0  0  0  0  0
   54.4010   26.1310   45.9950 O   0  0  0  0  0  0  0  0  0  0  0  0
   55.8910   27.9810   45.6150 N   0  0  0  0  0  0  0  0  0  0  0  0
   56.7556   34.9984   45.1284 H   0  0  0  0  0  0  0  0  0  0  0  0
   62.2257   34.0322   45.6317 H   0  0  0  0  0  0  0  0  0  0  0  0
   63.6649   32.5564   47.0352 H   0  0  0  0  0  0  0  0  0  0  0  0
   62.9464   31.9225   49.3363 H   0  0  0  0  0  0  0  0  0  0  0  0
   60.1240   31.0190   51.6100 H   0  0  0  0  0  0  0  0  0  0  0  0
   58.5795   32.3744   52.5196 H   0  0  0  0  0  0  0  0  0  0  0  0
   58.1296   33.0494   50.9002 H   0  0  0  0  0  0  0  0  0  0  0  0
   56.5975   31.2247   52.1913 H   0  0  0  0  0  0  0  0  0  0  0  0
   56.7315   31.2986   50.3952 H   0  0  0  0  0  0  0  0  0  0  0  0
   59.1236   28.6711   50.2274 H   0  0  0  0  0  0  0  0  0  0  0  0
   57.7655   29.4652   49.3039 H   0  0  0  0  0  0  0  0  0  0  0  0
   60.3985   30.3510   49.3571 H   0  0  0  0  0  0  0  0  0  0  0  0
   58.9548   31.3380   48.9191 H   0  0  0  0  0  0  0  0  0  0  0  0
   59.3305   34.2586   48.8363 H   0  0  0  0  0  0  0  0  0  0  0  0
   58.8900   26.8592   46.4769 H   0  0  0  0  0  0  0  0  0  0  0  0
   56.9116   25.0419   46.7663 H   0  0  0  0  0  0  0  0  0  0  0  0
  1  2  2  0
  2  3  1  0
  3  4  2  3
  4  5  1  0
  5  6  1  0
  6  7  2  0
  7  8  1  0
  8  9  1  0
  9 10  2  0
 10 11  1  0
 11 12  2  0
 12 13  1  0
 13 14  1  0
 14 15  2  0
 14 16  1  0
 16 17  1  0
 17 18  1  0
 18 19  1  0
 19 20  1  0
 20 21  1  0
 13 22  2  0
  7 23  1  0
  2 24  1  0
 24 25  2  0
 25 26  1  0
 26 27  2  0
 27 28  1  0
 27 29  1  0
 23  4  1  0
 29 24  1  0
 22  9  1  0
 21 16  1  0
  6 30  1  0
 10 31  1  0
 11 32  1  0
 12 33  1  0
 16 34  1  0
 17 35  1  0
 17 36  1  0
 18 37  1  0
 18 38  1  0
 20 39  1  0
 20 40  1  0
 21 41  1  0
 21 42  1  0
 22 43  1  0
 25 44  1  0
 26 45  1  0
M  CHG  4   5  -1  16   1  28  -1  29  -1
M  END
>  <UniqueID>  (48) 
45

>  <SMILES>  (48) 
O=C(N=c1[n-]cc(Sc2cccc(C(=O)[NH+]3CCOCC3)c2)s1)c1ccc([O-])[n-]1

>  <Energy>  (48) 
119.38199010685062

>  <Genealogy>  (48) 
O=C(N=c1[n-]cc(Sc2cccc(C(=O)[NH+]3CCOCC3)c2)s1)c1ccc([O-])[n-]1 (protonated)
O=C(N=c1[n-]cc(Sc2cccc(C(=O)[NH+]3CCOCC3)c2)s1)c1ccc([O-])[n-]1 (3D coordinates assigned)
O=C(N=c1[n-]cc(Sc2cccc(C(=O)[NH+]3CCOCC3)c2)s1)c1ccc([O-])[n-]1 (nonaromatic ring conformer: 119.38199010685062 kcal/mol)

>  <smiles>  (48) 
O=C(N=c1[nH]cc(Sc2cccc(C(=O)N3CCOCC3)c2)s1)c1ccc(O)[nH]1

>  <score_type>  (48) 
oracle

>  <origin>  (48) 
adg

>  <m_score__min__energy>  (48) 
-15.029999999999999

>  <m_primary>  (48) 
energy

$$$$
48:0
     RDKit          3D

 53 55  0  0  0  0  0  0  0  0999 V2000
   55.1440   28.9830   44.5820 O   0  0  0  0  0  0  0  0  0  0  0  0
   56.3290   29.3340   44.8340 C   0  0  0  0  0  0  0  0  0  0  0  0
   57.2390   28.4100   45.6010 C   0  0  0  0  0  0  0  0  0  0  0  0
   57.5080   27.1010   44.8520 C   0  0  0  0  0  0  0  0  0  0  0  0
   56.8040   25.7110   45.7350 S   0  0  0  0  0  0  0  0  0  0  0  0
   57.4900   25.5730   47.0670 O   0  0  0  0  0  0  0  0  0  0  0  0
   55.3400   25.9590   45.9770 O   0  0  0  0  0  0  0  0  0  0  0  0
   57.0020   24.2250   44.8030 C   0  0  0  0  0  0  0  0  0  0  0  0
   56.0950   23.9130   43.7780 C   0  0  0  0  0  0  0  0  0  0  0  0
   56.2320   22.7230   43.0570 C   0  0  0  0  0  0  0  0  0  0  0  0
   57.2670   21.8340   43.3600 C   0  0  0  0  0  0  0  0  0  0  0  0
   58.1640   22.1330   44.3890 C   0  0  0  0  0  0  0  0  0  0  0  0
   58.0320   23.3220   45.1120 C   0  0  0  0  0  0  0  0  0  0  0  0
   58.9030   23.5870   46.1180 F   0  0  0  0  0  0  0  0  0  0  0  0
   56.7840   30.6140   44.3770 N   0  0  0  0  0  0  0  0  0  0  0  0
   57.4740   31.5790   45.1840 C   0  0  0  0  0  0  0  0  0  0  0  0
   58.4300   31.1430   46.1090 C   0  0  0  0  0  0  0  0  0  0  0  0
   59.1590   32.0710   46.8580 C   0  0  0  0  0  0  0  0  0  0  0  0
   58.9190   33.4430   46.7070 C   0  0  0  0  0  0  0  0  0  0  0  0
   59.8980   34.6340   47.5640 S   0  0  0  0  0  0  0  0  0  0  0  0
   59.2630   34.9660   48.8850 O   0  0  0  0  0  0  0  0  0  0  0  0
   59.9740   35.8830   46.7320 O   0  0  0  0  0  0  0  0  0  0  0  0
   61.5020   33.9930   47.8260 N   0  0  0  0  0  0  0  0  0  0  0  0
   61.4480   32.8680   48.7910 C   0  0  0  0  0  0  0  0  0  0  0  0
   62.7160   31.9810   48.7600 C   0  0  0  0  0  0  0  0  0  0  0  0
   63.9070   32.7190   48.1420 C   0  0  0  0  0  0  0  0  0  0  0  0
   63.5830   33.1930   46.7160 C   0  0  0  0  0  0  0  0  0  0  0  0
   62.1000   33.5790   46.5420 C   0  0  0  0  0  0  0  0  0  0  0  0
   57.9200   33.8760   45.8260 C   0  0  0  0  0  0  0  0  0  0  0  0
   57.1990   32.9500   45.0720 C   0  0  0  0  0  0  0  0  0  0  0  0
   58.1974   28.9214   45.7740 H   0  0  0  0  0  0  0  0  0  0  0  0
   56.7399   28.1579   46.5483 H   0  0  0  0  0  0  0  0  0  0  0  0
   57.0568   27.1587   43.8505 H   0  0  0  0  0  0  0  0  0  0  0  0
   58.5955   26.9557   44.7726 H   0  0  0  0  0  0  0  0  0  0  0  0
   55.2745   24.6065   43.5415 H   0  0  0  0  0  0  0  0  0  0  0  0
   55.5237   22.4859   42.2495 H   0  0  0  0  0  0  0  0  0  0  0  0
   57.3754   20.9000   42.7891 H   0  0  0  0  0  0  0  0  0  0  0  0
   58.9758   21.4311   44.6306 H   0  0  0  0  0  0  0  0  0  0  0  0
   58.6081   30.0663   46.2469 H   0  0  0  0  0  0  0  0  0  0  0  0
   59.9235   31.7230   47.5682 H   0  0  0  0  0  0  0  0  0  0  0  0
   62.0770   34.7660   48.2370 H   0  0  0  0  0  0  0  0  0  0  0  0
   61.3341   33.2809   49.8042 H   0  0  0  0  0  0  0  0  0  0  0  0
   60.5960   32.2327   48.5073 H   0  0  0  0  0  0  0  0  0  0  0  0
   62.9723   31.6890   49.7891 H   0  0  0  0  0  0  0  0  0  0  0  0
   62.5016   31.0968   48.1418 H   0  0  0  0  0  0  0  0  0  0  0  0
   64.1510   33.5925   48.7645 H   0  0  0  0  0  0  0  0  0  0  0  0
   64.7613   32.0276   48.0954 H   0  0  0  0  0  0  0  0  0  0  0  0
   64.2048   34.0710   46.4867 H   0  0  0  0  0  0  0  0  0  0  0  0
   63.7924   32.3577   46.0316 H   0  0  0  0  0  0  0  0  0  0  0  0
   62.0276   34.4121   45.8273 H   0  0  0  0  0  0  0  0  0  0  0  0
   61.5527   32.7002   46.1702 H   0  0  0  0  0  0  0  0  0  0  0  0
   57.7032   34.9500   45.7283 H   0  0  0  0  0  0  0  0  0  0  0  0
   56.4114   33.2964   44.3866 H   0  0  0  0  0  0  0  0  0  0  0  0
  1  2  2  0
  2  3  1  0
  3  4  1  0
  4  5  1  0
  5  6  2  0
  5  7  2  0
  5  8  1  0
  8  9  2  0
  9 10  1  0
 10 11  2  0
 11 12  1  0
 12 13  2  0
 13 14  1  0
  2 15  1  0
 15 16  1  0
 16 17  2  0
 17 18  1  0
 18 19  2  0
 19 20  1  0
 20 21  2  0
 20 22  2  0
 20 23  1  0
 23 24  1  0
 24 25  1  0
 25 26  1  0
 26 27  1  0
 27 28  1  0
 19 29  1  0
 29 30  2  0
 13  8  1  0
 30 16  1  0
 28 23  1  0
  3 31  1  0
  3 32  1  0
  4 33  1  0
  4 34  1  0
  9 35  1  0
 10 36  1  0
 11 37  1  0
 12 38  1  0
 17 39  1  0
 18 40  1  0
 23 41  1  0
 24 42  1  0
 24 43  1  0
 25 44  1  0
 25 45  1  0
 26 46  1  0
 26 47  1  0
 27 48  1  0
 27 49  1  0
 28 50  1  0
 28 51  1  0
 29 52  1  0
 30 53  1  0
M  CHG  2  15  -1  23   1
M  END
>  <UniqueID>  (49) 
46

>  <SMILES>  (49) 
O=C(CCS(=O)(=O)c1ccccc1F)[N-]c1ccc(S(=O)(=O)[NH+]2CCCCC2)cc1

>  <Energy>  (49) 
56.203084823927135

>  <Genealogy>  (49) 
O=C(CCS(=O)(=O)c1ccccc1F)[N-]c1ccc(S(=O)(=O)[NH+]2CCCCC2)cc1 (protonated)
O=C(CCS(=O)(=O)c1ccccc1F)[N-]c1ccc(S(=O)(=O)[NH+]2CCCCC2)cc1 (3D coordinates assigned)
O=C(CCS(=O)(=O)c1ccccc1F)[N-]c1ccc(S(=O)(=O)[NH+]2CCCCC2)cc1 (nonaromatic ring conformer: 56.203084823927135 kcal/mol)

>  <smiles>  (49) 
O=C(CCS(=O)(=O)c1ccccc1F)Nc1ccc(S(=O)(=O)N2CCCCC2)cc1

>  <score_type>  (49) 
oracle

>  <origin>  (49) 
adg

>  <m_score__min__energy>  (49) 
-10.81

>  <m_primary>  (49) 
energy

$$$$
49:0
     RDKit          3D

 59 62  0  0  0  0  0  0  0  0999 V2000
   57.3830   29.4700   43.3740 C   0  0  0  0  0  0  0  0  0  0  0  0
   57.9930   29.9000   44.4900 C   0  0  0  0  0  0  0  0  0  0  0  0
   58.5970   29.1060   45.4780 C   0  0  0  0  0  0  0  0  0  0  0  0
   58.5650   27.7760   45.6880 C   0  0  0  0  0  0  0  0  0  0  0  0
   57.3520   26.9540   45.8150 C   0  0  0  0  0  0  0  0  0  0  0  0
   57.3520   25.7020   46.3060 N   0  0  0  0  0  0  0  0  0  0  0  0
   56.0390   25.3860   46.3580 C   0  0  0  0  0  0  0  0  0  0  0  0
   55.6270   24.2670   46.7580 O   0  0  0  0  0  0  0  0  0  0  0  0
   55.2030   26.3690   45.9610 N   0  0  0  0  0  0  0  0  0  0  0  0
   56.0500   27.3620   45.6350 C   0  0  0  0  0  0  0  0  0  0  0  0
   55.6420   28.6200   45.2080 O   0  0  0  0  0  0  0  0  0  0  0  0
   59.3100   29.9720   46.2870 C   0  0  0  0  0  0  0  0  0  0  0  0
   59.0740   31.2490   45.8210 C   0  0  0  0  0  0  0  0  0  0  0  0
   59.7120   32.4660   46.3720 C   0  0  0  0  0  0  0  0  0  0  0  0
   59.0350   33.5250   46.4630 O   0  0  0  0  0  0  0  0  0  0  0  0
   61.0970   32.4730   46.7670 N   0  0  0  0  0  0  0  0  0  0  0  0
   61.7400   31.2530   47.2810 C   0  0  0  0  0  0  0  0  0  0  0  0
   62.7100   31.6070   48.4100 C   0  0  0  0  0  0  0  0  0  0  0  0
   63.8070   32.6020   47.9500 C   0  0  0  0  0  0  0  0  0  0  0  0
   64.2980   33.4660   49.1350 C   0  0  0  0  0  0  0  0  0  0  0  0
   64.8340   32.6190   50.2230 N   0  0  0  0  0  0  0  0  0  0  0  0
   64.4460   33.1530   51.5480 C   0  0  0  0  0  0  0  0  0  0  0  0
   65.2630   32.5110   52.6710 C   0  0  0  0  0  0  0  0  0  0  0  0
   66.7610   32.8260   52.5190 C   0  0  0  0  0  0  0  0  0  0  0  0
   67.1690   33.1210   51.0620 C   0  0  0  0  0  0  0  0  0  0  0  0
   68.4930   32.7610   50.8780 F   0  0  0  0  0  0  0  0  0  0  0  0
   67.0510   34.4780   50.8080 F   0  0  0  0  0  0  0  0  0  0  0  0
   66.2890   32.3400   50.0710 C   0  0  0  0  0  0  0  0  0  0  0  0
   63.3500   33.4960   46.7670 C   0  0  0  0  0  0  0  0  0  0  0  0
   61.8370   33.7440   46.7670 C   0  0  0  0  0  0  0  0  0  0  0  0
   58.2530   31.2100   44.7430 N   0  0  0  0  0  0  0  0  0  0  0  0
   57.8020   32.3660   43.9580 C   0  0  0  0  0  0  0  0  0  0  0  0
   56.9452   30.1952   42.6722 H   0  0  0  0  0  0  0  0  0  0  0  0
   57.3210   28.3925   43.1614 H   0  0  0  0  0  0  0  0  0  0  0  0
   59.5320   27.2585   45.7720 H   0  0  0  0  0  0  0  0  0  0  0  0
   54.7170   28.9670   45.4300 H   0  0  0  0  0  0  0  0  0  0  0  0
   59.9455   29.6949   47.1410 H   0  0  0  0  0  0  0  0  0  0  0  0
   60.9687   30.5690   47.6648 H   0  0  0  0  0  0  0  0  0  0  0  0
   62.2972   30.7683   46.4658 H   0  0  0  0  0  0  0  0  0  0  0  0
   62.1423   32.0622   49.2349 H   0  0  0  0  0  0  0  0  0  0  0  0
   63.2080   30.6799   48.7302 H   0  0  0  0  0  0  0  0  0  0  0  0
   64.6477   31.9961   47.5810 H   0  0  0  0  0  0  0  0  0  0  0  0
   65.0903   34.1428   48.7826 H   0  0  0  0  0  0  0  0  0  0  0  0
   63.4456   34.0408   49.5262 H   0  0  0  0  0  0  0  0  0  0  0  0
   64.6151   34.2399   51.5591 H   0  0  0  0  0  0  0  0  0  0  0  0
   63.3841   32.9208   51.7168 H   0  0  0  0  0  0  0  0  0  0  0  0
   64.9110   32.8995   53.6380 H   0  0  0  0  0  0  0  0  0  0  0  0
   65.1294   31.4204   52.6193 H   0  0  0  0  0  0  0  0  0  0  0  0
   66.9985   33.7061   53.1347 H   0  0  0  0  0  0  0  0  0  0  0  0
   67.3193   31.9355   52.8435 H   0  0  0  0  0  0  0  0  0  0  0  0
   66.5908   32.6111   49.0485 H   0  0  0  0  0  0  0  0  0  0  0  0
   66.4374   31.2701   50.2792 H   0  0  0  0  0  0  0  0  0  0  0  0
   63.8660   34.4649   46.8375 H   0  0  0  0  0  0  0  0  0  0  0  0
   63.6018   32.9698   45.8344 H   0  0  0  0  0  0  0  0  0  0  0  0
   61.5662   34.3184   47.6651 H   0  0  0  0  0  0  0  0  0  0  0  0
   61.5727   34.3046   45.8583 H   0  0  0  0  0  0  0  0  0  0  0  0
   57.4879   33.1712   44.6384 H   0  0  0  0  0  0  0  0  0  0  0  0
   58.6269   32.7228   43.3238 H   0  0  0  0  0  0  0  0  0  0  0  0
   56.9534   32.0700   43.3238 H   0  0  0  0  0  0  0  0  0  0  0  0
  1  2  2  0
  2  3  1  0
  3  4  2  3
  4  5  1  0
  5  6  1  0
  6  7  1  0
  7  8  2  0
  7  9  1  0
  9 10  1  0
 10 11  1  0
  3 12  1  0
 12 13  2  0
 13 14  1  0
 14 15  2  0
 14 16  1  0
 16 17  1  0
 17 18  1  0
 18 19  1  0
 19 20  1  0
 20 21  1  0
 21 22  1  0
 22 23  1  0
 23 24  1  0
 24 25  1  0
 25 26  1  0
 25 27  1  0
 25 28  1  0
 19 29  1  0
 29 30  1  0
 13 31  1  0
 31 32  1  0
 31  2  1  0
 10  5  2  0
 30 16  1  0
 28 21  1  0
  1 33  1  0
  1 34  1  0
  4 35  1  0
 11 36  1  0
 12 37  1  0
 17 38  1  0
 17 39  1  0
 18 40  1  0
 18 41  1  0
 19 42  1  0
 20 43  1  0
 20 44  1  0
 22 45  1  0
 22 46  1  0
 23 47  1  0
 23 48  1  0
 24 49  1  0
 24 50  1  0
 28 51  1  0
 28 52  1  0
 29 53  1  0
 29 54  1  0
 30 55  1  0
 30 56  1  0
 32 57  1  0
 32 58  1  0
 32 59  1  0
M  CHG  2   6  -1   9  -1
M  END
>  <UniqueID>  (50) 
47

>  <SMILES>  (50) 
C=c1c(=Cc2[n-]c(=O)[n-]c2O)cc(C(=O)N2CCC(CN3CCCC(F)(F)C3)CC2)n1C

>  <Energy>  (50) 
143.9329751670599

>  <Genealogy>  (50) 
C=c1c(=Cc2[n-]c(=O)[n-]c2O)cc(C(=O)N2CCC(CN3CCCC(F)(F)C3)CC2)n1C (protonated)
C=c1c(=Cc2[n-]c(=O)[n-]c2O)cc(C(=O)N2CCC(CN3CCCC(F)(F)C3)CC2)n1C (3D coordinates assigned)
C=c1c(=Cc2[n-]c(=O)[n-]c2O)cc(C(=O)N2CCC(CN3CCCC(F)(F)C3)CC2)n1C (nonaromatic ring conformer: 143.9329751670599 kcal/mol)

>  <smiles>  (50) 
C=c1c(=Cc2[nH]c(=O)[nH]c2O)cc(C(=O)N2CCC(CN3CCCC(F)(F)C3)CC2)n1C

>  <score_type>  (50) 
oracle

>  <origin>  (50) 
adg

>  <m_score__min__energy>  (50) 
-13.83

>  <m_primary>  (50) 
energy

$$$$
50:0
     RDKit          3D

 50 52  0  0  0  0  0  0  0  0999 V2000
   59.2900   34.8350   48.3270 N   0  0  0  0  0  0  0  0  0  0  0  0
   59.2950   34.7720   46.8980 C   0  0  0  0  0  0  0  0  0  0  0  0
   59.6360   35.7930   46.2440 O   0  0  0  0  0  0  0  0  0  0  0  0
   58.8880   33.5410   46.1780 C   0  0  0  0  0  0  0  0  0  0  0  0
   58.8740   32.3090   46.8500 C   0  0  0  0  0  0  0  0  0  0  0  0
   58.5080   31.1400   46.1810 C   0  0  0  0  0  0  0  0  0  0  0  0
   58.1490   31.1760   44.8230 C   0  0  0  0  0  0  0  0  0  0  0  0
   57.7850   29.9600   44.1490 N   0  0  0  0  0  0  0  0  0  0  0  0
   57.8960   28.6540   44.7450 C   0  0  0  0  0  0  0  0  0  0  0  0
   59.1630   28.0710   44.8770 C   0  0  0  0  0  0  0  0  0  0  0  0
   59.3060   26.8130   45.4610 C   0  0  0  0  0  0  0  0  0  0  0  0
   58.1850   26.1180   45.9170 C   0  0  0  0  0  0  0  0  0  0  0  0
   56.9030   26.6810   45.8020 C   0  0  0  0  0  0  0  0  0  0  0  0
   55.7220   25.9220   46.2700 C   0  0  0  0  0  0  0  0  0  0  0  0
   54.5600   26.3010   45.9610 O   0  0  0  0  0  0  0  0  0  0  0  0
   55.8980   24.7680   47.0980 N   0  0  0  0  0  0  0  0  0  0  0  0
   55.3460   23.4560   46.7880 C   0  0  0  0  0  0  0  0  0  0  0  0
   56.0500   22.8920   45.5820 C   0  0  0  0  0  0  0  0  0  0  0  0
   55.6590   23.2970   44.2930 C   0  0  0  0  0  0  0  0  0  0  0  0
   56.2880   22.7700   43.1650 C   0  0  0  0  0  0  0  0  0  0  0  0
   57.3100   21.8320   43.3080 C   0  0  0  0  0  0  0  0  0  0  0  0
   57.7090   21.4170   44.5800 C   0  0  0  0  0  0  0  0  0  0  0  0
   57.0860   21.9430   45.7310 C   0  0  0  0  0  0  0  0  0  0  0  0
   57.4580   21.5460   47.0280 O   0  0  0  0  0  0  0  0  0  0  0  0
   57.0230   20.3590   47.6880 C   0  0  0  0  0  0  0  0  0  0  0  0
   56.1670   19.6450   46.8690 F   0  0  0  0  0  0  0  0  0  0  0  0
   58.1250   19.5750   47.9720 F   0  0  0  0  0  0  0  0  0  0  0  0
   56.3860   20.6780   48.8740 F   0  0  0  0  0  0  0  0  0  0  0  0
   56.7660   27.9710   45.2460 C   0  0  0  0  0  0  0  0  0  0  0  0
   55.5210   28.5920   45.2320 O   0  0  0  0  0  0  0  0  0  0  0  0
   58.1330   32.4130   44.1450 C   0  0  0  0  0  0  0  0  0  0  0  0
   57.7860   32.4930   42.7560 N   0  0  0  0  0  0  0  0  0  0  0  0
   58.4990   33.5840   44.8270 C   0  0  0  0  0  0  0  0  0  0  0  0
   58.8670   34.0790   48.9090 H   0  0  0  0  0  0  0  0  0  0  0  0
   59.6330   35.6940   48.8110 H   0  0  0  0  0  0  0  0  0  0  0  0
   59.1538   32.2643   47.9129 H   0  0  0  0  0  0  0  0  0  0  0  0
   58.5005   30.1821   46.7216 H   0  0  0  0  0  0  0  0  0  0  0  0
   57.3230   30.0390   43.2150 H   0  0  0  0  0  0  0  0  0  0  0  0
   60.0519   28.6099   44.5171 H   0  0  0  0  0  0  0  0  0  0  0  0
   60.3062   26.3666   45.5627 H   0  0  0  0  0  0  0  0  0  0  0  0
   58.3060   25.1227   46.3695 H   0  0  0  0  0  0  0  0  0  0  0  0
   55.4919   22.7838   47.6464 H   0  0  0  0  0  0  0  0  0  0  0  0
   54.2705   23.5493   46.5767 H   0  0  0  0  0  0  0  0  0  0  0  0
   54.8516   24.0344   44.1736 H   0  0  0  0  0  0  0  0  0  0  0  0
   55.9774   23.0948   42.1610 H   0  0  0  0  0  0  0  0  0  0  0  0
   57.8032   21.4179   42.4162 H   0  0  0  0  0  0  0  0  0  0  0  0
   58.5143   20.6751   44.6852 H   0  0  0  0  0  0  0  0  0  0  0  0
   57.0500   33.1430   42.4070 H   0  0  0  0  0  0  0  0  0  0  0  0
   58.2420   31.8630   42.0590 H   0  0  0  0  0  0  0  0  0  0  0  0
   58.4814   34.5482   44.2978 H   0  0  0  0  0  0  0  0  0  0  0  0
  1  2  1  0
  2  3  2  0
  2  4  1  0
  4  5  2  0
  5  6  1  0
  6  7  2  0
  7  8  1  0
  8  9  1  0
  9 10  2  0
 10 11  1  0
 11 12  2  0
 12 13  1  0
 13 14  1  0
 14 15  2  0
 14 16  1  0
 16 17  1  0
 17 18  1  0
 18 19  2  0
 19 20  1  0
 20 21  2  0
 21 22  1  0
 22 23  2  0
 23 24  1  0
 24 25  1  0
 25 26  1  0
 25 27  1  0
 25 28  1  0
 13 29  2  0
 29 30  1  0
  7 31  1  0
 31 32  1  0
 31 33  2  0
 33  4  1  0
 29  9  1  0
 23 18  1  0
  1 34  1  0
  1 35  1  0
  5 36  1  0
  6 37  1  0
  8 38  1  0
 10 39  1  0
 11 40  1  0
 12 41  1  0
 17 42  1  0
 17 43  1  0
 19 44  1  0
 20 45  1  0
 21 46  1  0
 22 47  1  0
 32 48  1  0
 32 49  1  0
 33 50  1  0
M  CHG  2  16  -1  30  -1
M  END
>  <UniqueID>  (51) 
48

>  <SMILES>  (51) 
NC(=O)c1ccc(Nc2cccc(C(=O)[N-]Cc3ccccc3OC(F)(F)F)c2[O-])c(N)c1

>  <Energy>  (51) 
61.30011737310392

>  <Genealogy>  (51) 
NC(=O)c1ccc(Nc2cccc(C(=O)[N-]Cc3ccccc3OC(F)(F)F)c2[O-])c(N)c1 (protonated)
NC(=O)c1ccc(Nc2cccc(C(=O)[N-]Cc3ccccc3OC(F)(F)F)c2[O-])c(N)c1 (3D coordinates assigned)
NC(=O)c1ccc(Nc2cccc(C(=O)[N-]Cc3ccccc3OC(F)(F)F)c2[O-])c(N)c1 (optimized conformer: 61.30011737310392 kcal/mol)

>  <smiles>  (51) 
NC(=O)c1ccc(Nc2cccc(C(=O)NCc3ccccc3OC(F)(F)F)c2O)c(N)c1

>  <score_type>  (51) 
oracle

>  <origin>  (51) 
adg

>  <m_score__min__energy>  (51) 
-13.789999999999999

>  <m_primary>  (51) 
energy

$$$$
51:0
     RDKit          3D

 27 28  0  0  0  0  0  0  0  0999 V2000
   55.3920   29.3340   44.8640 O   0  0  0  0  0  0  0  0  0  0  0  0
   56.6410   29.3490   45.0350 C   0  0  0  0  0  0  0  0  0  0  0  0
   57.3730   30.6560   44.9020 C   0  0  0  0  0  0  0  0  0  0  0  0
   58.0990   31.0190   46.2030 C   0  0  0  0  0  0  0  0  0  0  0  0
   58.6220   32.4300   46.1390 C   0  0  0  0  0  0  0  0  0  0  0  0
   58.1640   33.3100   45.1440 C   0  0  0  0  0  0  0  0  0  0  0  0
   58.6750   34.6090   45.0650 C   0  0  0  0  0  0  0  0  0  0  0  0
   59.6520   35.0350   45.9690 C   0  0  0  0  0  0  0  0  0  0  0  0
   60.1220   34.1600   46.9530 C   0  0  0  0  0  0  0  0  0  0  0  0
   59.6140   32.8600   47.0370 C   0  0  0  0  0  0  0  0  0  0  0  0
   57.3090   28.1110   45.4800 C   0  0  0  0  0  0  0  0  0  0  0  0
   58.9840   27.9150   45.4770 S   0  0  0  0  0  0  0  0  0  0  0  0
   58.8970   26.3290   46.0130 C   0  0  0  0  0  0  0  0  0  0  0  0
   59.8940   25.5890   46.2110 O   0  0  0  0  0  0  0  0  0  0  0  0
   57.6270   25.9230   46.2170 N   0  0  0  0  0  0  0  0  0  0  0  0
   56.7360   26.9110   45.9340 C   0  0  0  0  0  0  0  0  0  0  0  0
   55.3750   26.7120   46.1460 O   0  0  0  0  0  0  0  0  0  0  0  0
   58.1108   30.5732   44.0903 H   0  0  0  0  0  0  0  0  0  0  0  0
   56.6397   31.4453   44.6801 H   0  0  0  0  0  0  0  0  0  0  0  0
   57.3976   30.9308   47.0457 H   0  0  0  0  0  0  0  0  0  0  0  0
   58.9463   30.3314   46.3414 H   0  0  0  0  0  0  0  0  0  0  0  0
   57.4013   32.9760   44.4252 H   0  0  0  0  0  0  0  0  0  0  0  0
   58.3073   35.2972   44.2897 H   0  0  0  0  0  0  0  0  0  0  0  0
   60.0510   36.0582   45.9064 H   0  0  0  0  0  0  0  0  0  0  0  0
   60.8930   34.4950   47.6625 H   0  0  0  0  0  0  0  0  0  0  0  0
   59.9917   32.1721   47.8078 H   0  0  0  0  0  0  0  0  0  0  0  0
   54.7400   27.4690   46.3520 H   0  0  0  0  0  0  0  0  0  0  0  0
  1  2  2  0
  2  3  1  0
  3  4  1  0
  4  5  1  0
  5  6  2  0
  6  7  1  0
  7  8  2  0
  8  9  1  0
  9 10  2  0
  2 11  1  0
 11 12  1  0
 12 13  1  0
 13 14  2  0
 13 15  1  0
 15 16  1  0
 16 17  1  0
 10  5  1  0
 16 11  2  0
  3 18  1  0
  3 19  1  0
  4 20  1  0
  4 21  1  0
  6 22  1  0
  7 23  1  0
  8 24  1  0
  9 25  1  0
 10 26  1  0
 17 27  1  0
M  CHG  1  15  -1
M  END
>  <UniqueID>  (52) 
49

>  <SMILES>  (52) 
O=C(CCc1ccccc1)c1sc(=O)[n-]c1O

>  <Energy>  (52) 
59.370991188476474

>  <Genealogy>  (52) 
O=C(CCc1ccccc1)c1sc(=O)[n-]c1O (protonated)
O=C(CCc1ccccc1)c1sc(=O)[n-]c1O (3D coordinates assigned)
O=C(CCc1ccccc1)c1sc(=O)[n-]c1O (optimized conformer: 59.370991188476474 kcal/mol)

>  <smiles>  (52) 
O=C(CCc1ccccc1)c1sc(=O)[nH]c1O

>  <score_type>  (52) 
oracle

>  <origin>  (52) 
adg

>  <m_score__min__energy>  (52) 
-9.9700000000000006

>  <m_primary>  (52) 
energy

$$$$
52:0
     RDKit          3D

 58 61  0  0  0  0  0  0  0  0999 V2000
   60.7490   26.7070   47.1410 C   0  0  0  0  0  0  0  0  0  0  0  0
   59.6810   27.5090   46.4450 C   0  0  0  0  0  0  0  0  0  0  0  0
   59.2470   27.0920   45.1750 C   0  0  0  0  0  0  0  0  0  0  0  0
   58.2810   27.8160   44.4750 C   0  0  0  0  0  0  0  0  0  0  0  0
   57.7210   28.9650   45.0360 C   0  0  0  0  0  0  0  0  0  0  0  0
   56.4900   29.8660   44.1560 S   0  0  0  0  0  0  0  0  0  0  0  0
   56.7280   29.7330   42.6720 O   0  0  0  0  0  0  0  0  0  0  0  0
   55.1340   29.3060   44.4990 O   0  0  0  0  0  0  0  0  0  0  0  0
   56.5730   31.5450   44.6200 N   0  0  0  0  0  0  0  0  0  0  0  0
   57.7220   32.2100   43.9970 C   0  0  0  0  0  0  0  0  0  0  0  0
   58.2410   33.3110   44.8710 C   0  0  0  0  0  0  0  0  0  0  0  0
   59.2420   34.2000   44.5410 C   0  0  0  0  0  0  0  0  0  0  0  0
   59.3810   35.0250   45.6380 C   0  0  0  0  0  0  0  0  0  0  0  0
   58.4590   34.5850   46.5660 C   0  0  0  0  0  0  0  0  0  0  0  0
   57.7950   33.5620   46.0800 O   0  0  0  0  0  0  0  0  0  0  0  0
   58.1420   29.3940   46.2990 C   0  0  0  0  0  0  0  0  0  0  0  0
   59.1120   28.6760   47.0240 C   0  0  0  0  0  0  0  0  0  0  0  0
   59.5060   29.1880   48.3600 C   0  0  0  0  0  0  0  0  0  0  0  0
   60.7150   29.2040   48.7140 O   0  0  0  0  0  0  0  0  0  0  0  0
   58.4960   29.7090   49.2300 N   0  0  0  0  0  0  0  0  0  0  0  0
   58.6010   30.8420   50.1060 C   0  0  0  0  0  0  0  0  0  0  0  0
   58.0240   30.8210   51.3910 C   0  0  0  0  0  0  0  0  0  0  0  0
   58.1300   31.9300   52.2330 C   0  0  0  0  0  0  0  0  0  0  0  0
   58.8080   33.0720   51.8040 C   0  0  0  0  0  0  0  0  0  0  0  0
   58.9450   34.4610   52.8680 Cl  0  0  0  0  0  0  0  0  0  0  0  0
   59.3710   33.1130   50.5240 C   0  0  0  0  0  0  0  0  0  0  0  0
   59.2540   32.0130   49.6560 C   0  0  0  0  0  0  0  0  0  0  0  0
   59.8780   32.0840   48.3120 C   0  0  0  0  0  0  0  0  0  0  0  0
   59.1810   31.8130   47.2950 O   0  0  0  0  0  0  0  0  0  0  0  0
   61.2580   32.4460   48.1410 N   0  0  0  0  0  0  0  0  0  0  0  0
   62.2780   31.7890   48.9750 C   0  0  0  0  0  0  0  0  0  0  0  0
   63.6940   32.0380   48.4470 C   0  0  0  0  0  0  0  0  0  0  0  0
   63.8550   33.3860   48.0520 O   0  0  0  0  0  0  0  0  0  0  0  0
   63.0700   33.6230   46.9050 C   0  0  0  0  0  0  0  0  0  0  0  0
   61.5760   33.5630   47.2420 C   0  0  0  0  0  0  0  0  0  0  0  0
   60.6258   26.7995   48.2301 H   0  0  0  0  0  0  0  0  0  0  0  0
   60.6613   25.6497   46.8506 H   0  0  0  0  0  0  0  0  0  0  0  0
   61.7400   27.0860   46.8506 H   0  0  0  0  0  0  0  0  0  0  0  0
   59.6744   26.1829   44.7268 H   0  0  0  0  0  0  0  0  0  0  0  0
   57.9598   27.4802   43.4780 H   0  0  0  0  0  0  0  0  0  0  0  0
   56.7210   31.5650   45.6560 H   0  0  0  0  0  0  0  0  0  0  0  0
   58.5212   31.4717   43.8350 H   0  0  0  0  0  0  0  0  0  0  0  0
   57.4000   32.6440   43.0389 H   0  0  0  0  0  0  0  0  0  0  0  0
   59.8106   34.2425   43.6003 H   0  0  0  0  0  0  0  0  0  0  0  0
   60.0841   35.8635   45.7503 H   0  0  0  0  0  0  0  0  0  0  0  0
   58.3039   35.0249   47.5622 H   0  0  0  0  0  0  0  0  0  0  0  0
   57.7082   30.3071   46.7328 H   0  0  0  0  0  0  0  0  0  0  0  0
   57.4861   29.9247   51.7335 H   0  0  0  0  0  0  0  0  0  0  0  0
   57.6785   31.9035   53.2357 H   0  0  0  0  0  0  0  0  0  0  0  0
   59.9098   34.0134   50.1938 H   0  0  0  0  0  0  0  0  0  0  0  0
   62.2064   32.1818   50.0000 H   0  0  0  0  0  0  0  0  0  0  0  0
   62.0911   30.7052   48.9519 H   0  0  0  0  0  0  0  0  0  0  0  0
   64.4201   31.8058   49.2400 H   0  0  0  0  0  0  0  0  0  0  0  0
   63.8615   31.3928   47.5720 H   0  0  0  0  0  0  0  0  0  0  0  0
   63.3090   34.6193   46.5047 H   0  0  0  0  0  0  0  0  0  0  0  0
   63.2934   32.8454   46.1597 H   0  0  0  0  0  0  0  0  0  0  0  0
   61.2840   34.5050   47.7293 H   0  0  0  0  0  0  0  0  0  0  0  0
   61.0224   33.4114   46.3036 H   0  0  0  0  0  0  0  0  0  0  0  0
  1  2  1  0
  2  3  2  0
  3  4  1  0
  4  5  2  0
  5  6  1  0
  6  7  2  0
  6  8  2  0
  6  9  1  0
  9 10  1  0
 10 11  1  0
 11 12  2  0
 12 13  1  0
 13 14  2  0
 14 15  1  0
  5 16  1  0
 16 17  2  0
 17 18  1  0
 18 19  2  0
 18 20  1  0
 20 21  1  0
 21 22  2  0
 22 23  1  0
 23 24  2  0
 24 25  1  0
 24 26  1  0
 26 27  2  0
 27 28  1  0
 28 29  2  0
 28 30  1  0
 30 31  1  0
 31 32  1  0
 32 33  1  0
 33 34  1  0
 34 35  1  0
 17  2  1  0
 27 21  1  0
 35 30  1  0
 15 11  1  0
  1 36  1  0
  1 37  1  0
  1 38  1  0
  3 39  1  0
  4 40  1  0
  9 41  1  0
 10 42  1  0
 10 43  1  0
 12 44  1  0
 13 45  1  0
 14 46  1  0
 16 47  1  0
 22 48  1  0
 23 49  1  0
 26 50  1  0
 31 51  1  0
 31 52  1  0
 32 53  1  0
 32 54  1  0
 34 55  1  0
 34 56  1  0
 35 57  1  0
 35 58  1  0
M  CHG  1  20  -1
M  END
>  <UniqueID>  (53) 
50

>  <SMILES>  (53) 
Cc1ccc(S(=O)(=O)NCc2ccco2)cc1C(=O)[N-]c1ccc(Cl)cc1C(=O)N1CCOCC1

>  <Energy>  (53) 
99.48028373769245

>  <Genealogy>  (53) 
Cc1ccc(S(=O)(=O)NCc2ccco2)cc1C(=O)[N-]c1ccc(Cl)cc1C(=O)N1CCOCC1 (protonated)
Cc1ccc(S(=O)(=O)NCc2ccco2)cc1C(=O)[N-]c1ccc(Cl)cc1C(=O)N1CCOCC1 (3D coordinates assigned)
Cc1ccc(S(=O)(=O)NCc2ccco2)cc1C(=O)[N-]c1ccc(Cl)cc1C(=O)N1CCOCC1 (nonaromatic ring conformer: 99.48028373769245 kcal/mol)

>  <smiles>  (53) 
Cc1ccc(S(=O)(=O)NCc2ccco2)cc1C(=O)Nc1ccc(Cl)cc1C(=O)N1CCOCC1

>  <score_type>  (53) 
oracle

>  <origin>  (53) 
adg

>  <m_score__min__energy>  (53) 
-11.83

>  <m_primary>  (53) 
energy

$$$$
53:0
     RDKit          3D

 46 49  0  0  0  0  0  0  0  0999 V2000
   59.7790   27.4040   47.5080 O   0  0  0  0  0  0  0  0  0  0  0  0
   58.9710   27.7550   46.6060 C   0  0  0  0  0  0  0  0  0  0  0  0
   59.1430   28.9960   45.9120 N   0  0  0  0  0  0  0  0  0  0  0  0
   58.2790   29.5530   44.9080 C   0  0  0  0  0  0  0  0  0  0  0  0
   57.6630   28.7400   43.9380 C   0  0  0  0  0  0  0  0  0  0  0  0
   56.8360   29.3050   42.9640 C   0  0  0  0  0  0  0  0  0  0  0  0
   56.6050   30.6810   42.9550 C   0  0  0  0  0  0  0  0  0  0  0  0
   57.1880   31.4950   43.9280 C   0  0  0  0  0  0  0  0  0  0  0  0
   58.0140   30.9390   44.9180 C   0  0  0  0  0  0  0  0  0  0  0  0
   58.5970   31.7950   45.9170 N   0  0  0  0  0  0  0  0  0  0  0  0
   58.9160   33.1930   45.5980 C   0  0  0  0  0  0  0  0  0  0  0  0
   60.2710   33.5810   46.2060 C   0  0  0  0  0  0  0  0  0  0  0  0
   60.4150   33.0800   47.5820 N   0  0  0  0  0  0  0  0  0  0  0  0
   61.6800   33.2160   48.2570 C   0  0  0  0  0  0  0  0  0  0  0  0
   62.8720   32.8260   47.6220 C   0  0  0  0  0  0  0  0  0  0  0  0
   64.1000   32.9700   48.2750 C   0  0  0  0  0  0  0  0  0  0  0  0
   64.1490   33.5070   49.5640 C   0  0  0  0  0  0  0  0  0  0  0  0
   62.9700   33.9020   50.2010 C   0  0  0  0  0  0  0  0  0  0  0  0
   61.7400   33.7610   49.5520 C   0  0  0  0  0  0  0  0  0  0  0  0
   59.2980   32.3720   48.2210 C   0  0  0  0  0  0  0  0  0  0  0  0
   58.7810   31.2790   47.2820 C   0  0  0  0  0  0  0  0  0  0  0  0
   57.8080   26.9150   46.2990 C   0  0  0  0  0  0  0  0  0  0  0  0
   57.8550   25.5870   45.9080 C   0  0  0  0  0  0  0  0  0  0  0  0
   56.5490   25.1930   45.7270 C   0  0  0  0  0  0  0  0  0  0  0  0
   55.7830   26.3000   46.0160 C   0  0  0  0  0  0  0  0  0  0  0  0
   54.3960   26.3370   45.9590 O   0  0  0  0  0  0  0  0  0  0  0  0
   56.5350   27.3590   46.3670 N   0  0  0  0  0  0  0  0  0  0  0  0
   57.8338   27.6534   43.9469 H   0  0  0  0  0  0  0  0  0  0  0  0
   56.3663   28.6642   42.2032 H   0  0  0  0  0  0  0  0  0  0  0  0
   55.9627   31.1251   42.1802 H   0  0  0  0  0  0  0  0  0  0  0  0
   56.9991   32.5786   43.9190 H   0  0  0  0  0  0  0  0  0  0  0  0
   58.9598   33.3153   44.5057 H   0  0  0  0  0  0  0  0  0  0  0  0
   58.1351   33.8437   46.0184 H   0  0  0  0  0  0  0  0  0  0  0  0
   61.0743   33.1560   45.5863 H   0  0  0  0  0  0  0  0  0  0  0  0
   60.3322   34.6790   46.2333 H   0  0  0  0  0  0  0  0  0  0  0  0
   62.8385   32.4054   46.6062 H   0  0  0  0  0  0  0  0  0  0  0  0
   65.0286   32.6601   47.7733 H   0  0  0  0  0  0  0  0  0  0  0  0
   65.1156   33.6187   50.0771 H   0  0  0  0  0  0  0  0  0  0  0  0
   63.0097   34.3250   51.2157 H   0  0  0  0  0  0  0  0  0  0  0  0
   60.8151   34.0777   50.0563 H   0  0  0  0  0  0  0  0  0  0  0  0
   59.6431   31.9151   49.1603 H   0  0  0  0  0  0  0  0  0  0  0  0
   58.4875   33.0843   48.4351 H   0  0  0  0  0  0  0  0  0  0  0  0
   59.5069   30.4529   47.2587 H   0  0  0  0  0  0  0  0  0  0  0  0
   57.8078   30.9290   47.6567 H   0  0  0  0  0  0  0  0  0  0  0  0
   58.7557   24.9709   45.7699 H   0  0  0  0  0  0  0  0  0  0  0  0
   56.1914   24.2003   45.4161 H   0  0  0  0  0  0  0  0  0  0  0  0
  1  2  2  0
  2  3  1  0
  3  4  1  0
  4  5  2  0
  5  6  1  0
  6  7  2  0
  7  8  1  0
  8  9  2  0
  9 10  1  0
 10 11  1  0
 11 12  1  0
 12 13  1  0
 13 14  1  0
 14 15  2  0
 15 16  1  0
 16 17  2  0
 17 18  1  0
 18 19  2  0
 13 20  1  0
 20 21  1  0
  2 22  1  0
 22 23  2  0
 23 24  1  0
 24 25  2  0
 25 26  1  0
 25 27  1  0
  9  4  1  0
 21 10  1  0
 27 22  1  0
 19 14  1  0
  5 28  1  0
  6 29  1  0
  7 30  1  0
  8 31  1  0
 11 32  1  0
 11 33  1  0
 12 34  1  0
 12 35  1  0
 15 36  1  0
 16 37  1  0
 17 38  1  0
 18 39  1  0
 19 40  1  0
 20 41  1  0
 20 42  1  0
 21 43  1  0
 21 44  1  0
 23 45  1  0
 24 46  1  0
M  CHG  3   3  -1  26  -1  27  -1
M  END
>  <UniqueID>  (54) 
51

>  <SMILES>  (54) 
O=C([N-]c1ccccc1N1CCN(c2ccccc2)CC1)c1ccc([O-])[n-]1

>  <Energy>  (54) 
86.63604799344478

>  <Genealogy>  (54) 
O=C([N-]c1ccccc1N1CCN(c2ccccc2)CC1)c1ccc([O-])[n-]1 (protonated)
O=C([N-]c1ccccc1N1CCN(c2ccccc2)CC1)c1ccc([O-])[n-]1 (3D coordinates assigned)
O=C([N-]c1ccccc1N1CCN(c2ccccc2)CC1)c1ccc([O-])[n-]1 (nonaromatic ring conformer: 86.63604799344478 kcal/mol)

>  <smiles>  (54) 
O=C(Nc1ccccc1N1CCN(c2ccccc2)CC1)c1ccc(O)[nH]1

>  <score_type>  (54) 
oracle

>  <origin>  (54) 
adg

>  <m_score__min__energy>  (54) 
-15.17

>  <m_primary>  (54) 
energy

$$$$
54:0
     RDKit          3D

 43 46  0  0  1  0  0  0  0  0999 V2000
   55.9030   25.6710   46.3340 O   0  0  0  0  0  0  0  0  0  0  0  0
   57.0140   26.0740   45.9320 C   0  0  0  0  0  0  0  0  0  0  0  0
   57.4200   27.3740   46.4100 N   0  0  0  0  0  0  0  0  0  0  0  0
   57.4300   28.4020   45.6240 C   0  0  0  0  0  0  0  0  0  0  0  0
   57.6980   29.6680   46.1350 C   0  0  0  0  0  0  0  0  0  0  0  0
   57.7120   30.7760   45.3110 C   0  0  0  0  0  0  0  0  0  0  0  0
   57.9630   32.0190   45.7430 N   0  0  0  0  0  0  0  0  0  0  0  0
   57.9820   33.1050   44.9580 C   0  0  0  0  0  0  0  0  0  0  0  0
   58.2200   34.2970   45.3620 N   0  0  0  0  0  0  0  0  0  0  0  0
   59.5580   34.8320   45.3820 C   0  0  0  0  0  0  0  0  0  0  0  0
   60.1930   34.4760   46.6580 C   0  0  0  0  0  0  0  0  0  0  0  0
   59.7500   34.5560   47.9240 C   0  0  0  0  0  0  0  0  0  0  0  0
   60.5450   34.1590   48.9320 C   0  0  0  0  0  0  0  0  0  0  0  0
   61.7860   33.6860   48.6160 C   0  0  0  0  0  0  0  0  0  0  0  0
   61.8430   33.8040   46.7660 S   0  0  0  0  0  0  0  0  0  0  0  0
   57.7240   32.9100   43.6440 N   0  0  0  0  0  0  0  0  0  0  0  0
   57.4640   31.6760   43.1480 C   0  0  0  0  0  0  0  0  0  0  0  0
   57.2290   31.5330   41.9130 O   0  0  0  0  0  0  0  0  0  0  0  0
   57.4490   30.5660   43.9720 C   0  0  0  0  0  0  0  0  0  0  0  0
   57.1940   29.3240   43.5190 N   0  0  0  0  0  0  0  0  0  0  0  0
   57.1820   28.2630   44.3080 N   0  0  0  0  0  0  0  0  0  0  0  0
   57.8440   25.3240   45.0630 N   0  0  0  0  0  0  0  0  0  0  0  0
   57.5730   24.0650   44.5320 C   0  0  0  0  0  0  0  0  0  0  0  0
   56.5630   23.9650   43.5800 C   0  0  0  0  0  0  0  0  0  0  0  0
   56.2390   22.7540   43.0110 C   0  0  0  0  0  0  0  0  0  0  0  0
   56.8810   21.5790   43.3410 C   0  0  0  0  0  0  0  0  0  0  0  0
   57.8840   21.6660   44.2840 C   0  0  0  0  0  0  0  0  0  0  0  0
   58.2080   22.8900   44.8540 C   0  0  0  0  0  0  0  0  0  0  0  0
   57.9014   29.7879   47.2094 H   0  0  0  0  0  0  0  0  0  0  0  0
   58.1570   32.1380   46.7580 H   0  0  0  0  0  0  0  0  0  0  0  0
   60.1381   34.4073   44.5495 H   0  0  0  0  0  0  0  0  0  0  0  0
   59.5238   35.9262   45.2748 H   0  0  0  0  0  0  0  0  0  0  0  0
   58.7424   34.9442   48.1341 H   0  0  0  0  0  0  0  0  0  0  0  0
   60.2070   34.2134   49.9774 H   0  0  0  0  0  0  0  0  0  0  0  0
   62.5680   33.3209   49.2980 H   0  0  0  0  0  0  0  0  0  0  0  0
   57.7350   33.7580   43.0070 H   0  0  0  0  0  0  0  0  0  0  0  0
   56.9780   27.3230   43.9060 H   0  0  0  0  0  0  0  0  0  0  0  0
   58.7620   25.8020   44.8100 H   0  0  0  0  0  0  0  0  0  0  0  0
   56.0142   24.8689   43.2770 H   0  0  0  0  0  0  0  0  0  0  0  0
   55.4343   22.7223   42.2617 H   0  0  0  0  0  0  0  0  0  0  0  0
   56.6071   20.6206   42.8757 H   0  0  0  0  0  0  0  0  0  0  0  0
   58.4304   20.7604   44.5862 H   0  0  0  0  0  0  0  0  0  0  0  0
   59.0143   22.9204   45.6016 H   0  0  0  0  0  0  0  0  0  0  0  0
  1  2  2  0
  2  3  1  0
  3  4  2  0
  4  5  1  0
  5  6  2  0
  6  7  1  0
  7  8  1  0
  8  9  2  0
  9 10  1  0
 10 11  1  0
 11 12  2  0
 12 13  1  0
 13 14  2  0
 14 15  1  0
  8 16  1  0
 16 17  1  0
 17 18  2  0
 17 19  1  0
 19 20  2  0
 20 21  1  0
  2 22  1  0
 22 23  1  0
 23 24  2  0
 24 25  1  0
 25 26  2  0
 26 27  1  0
 27 28  2  0
 21  4  1  0
 28 23  1  0
 19  6  1  0
 15 11  1  0
  5 29  1  0
  7 30  1  0
 10 31  1  0
 10 32  1  0
 12 33  1  0
 13 34  1  0
 14 35  1  0
 16 36  1  0
 21 37  1  0
 22 38  1  0
 24 39  1  0
 25 40  1  0
 26 41  1  0
 27 42  1  0
 28 43  1  0
M  END
>  <smiles>  (55) 
O=C(N=c1cc2[nH]c(=NCc3cccs3)[nH]c(=O)c2n[nH]1)Nc1ccccc1

>  <score_type>  (55) 
oracle

>  <origin>  (55) 
adg

>  <m_score__min__energy>  (55) 
-8.8000000000000007

>  <m_primary>  (55) 
energy

$$$$
55:0
     RDKit          3D

 33 35  0  0  0  0  0  0  0  0999 V2000
   59.3380   27.4070   47.0870 O   0  0  0  0  0  0  0  0  0  0  0  0
   58.6030   28.2230   46.4700 C   0  0  0  0  0  0  0  0  0  0  0  0
   58.8890   29.6670   46.5610 C   0  0  0  0  0  0  0  0  0  0  0  0
   58.1460   30.5600   45.8870 C   0  0  0  0  0  0  0  0  0  0  0  0
   58.4590   32.0050   45.9800 C   0  0  0  0  0  0  0  0  0  0  0  0
   58.7160   32.5840   47.2340 C   0  0  0  0  0  0  0  0  0  0  0  0
   59.0040   33.9470   47.3390 C   0  0  0  0  0  0  0  0  0  0  0  0
   59.0430   34.7450   46.1940 C   0  0  0  0  0  0  0  0  0  0  0  0
   58.7990   34.1790   44.9400 C   0  0  0  0  0  0  0  0  0  0  0  0
   58.5130   32.8120   44.8240 C   0  0  0  0  0  0  0  0  0  0  0  0
   58.3010   32.2500   43.5640 O   0  0  0  0  0  0  0  0  0  0  0  0
   57.0040   30.0800   45.0680 C   0  0  0  0  0  0  0  0  0  0  0  0
   56.2530   30.8990   44.4740 O   0  0  0  0  0  0  0  0  0  0  0  0
   56.7210   28.6370   44.9730 C   0  0  0  0  0  0  0  0  0  0  0  0
   57.4730   27.7420   45.6360 C   0  0  0  0  0  0  0  0  0  0  0  0
   57.1580   26.2960   45.5520 C   0  0  0  0  0  0  0  0  0  0  0  0
   58.1840   25.3750   45.2780 C   0  0  0  0  0  0  0  0  0  0  0  0
   57.9070   24.0060   45.2050 C   0  0  0  0  0  0  0  0  0  0  0  0
   56.6050   23.5450   45.4050 C   0  0  0  0  0  0  0  0  0  0  0  0
   55.5760   24.4500   45.6750 C   0  0  0  0  0  0  0  0  0  0  0  0
   55.8440   25.8210   45.7470 C   0  0  0  0  0  0  0  0  0  0  0  0
   54.7980   26.7050   45.9950 O   0  0  0  0  0  0  0  0  0  0  0  0
   59.7215   30.0171   47.1890 H   0  0  0  0  0  0  0  0  0  0  0  0
   58.6903   31.9598   48.1394 H   0  0  0  0  0  0  0  0  0  0  0  0
   59.2004   34.3923   48.3255 H   0  0  0  0  0  0  0  0  0  0  0  0
   59.2657   35.8189   46.2791 H   0  0  0  0  0  0  0  0  0  0  0  0
   58.8316   34.8096   44.0393 H   0  0  0  0  0  0  0  0  0  0  0  0
   57.4100   31.8390   43.3090 H   0  0  0  0  0  0  0  0  0  0  0  0
   55.8834   28.2878   44.3513 H   0  0  0  0  0  0  0  0  0  0  0  0
   59.2119   25.7335   45.1199 H   0  0  0  0  0  0  0  0  0  0  0  0
   58.7159   23.2922   44.9898 H   0  0  0  0  0  0  0  0  0  0  0  0
   56.3890   22.4678   45.3499 H   0  0  0  0  0  0  0  0  0  0  0  0
   54.5509   24.0832   45.8316 H   0  0  0  0  0  0  0  0  0  0  0  0
  1  2  2  0
  2  3  1  0
  3  4  2  0
  4  5  1  0
  5  6  2  0
  6  7  1  0
  7  8  2  0
  8  9  1  0
  9 10  2  0
 10 11  1  0
  4 12  1  0
 12 13  2  0
 12 14  1  0
 14 15  2  0
 15 16  1  0
 16 17  2  0
 17 18  1  0
 18 19  2  0
 19 20  1  0
 20 21  2  0
 21 22  1  0
 15  2  1  0
 21 16  1  0
 10  5  1  0
  3 23  1  0
  6 24  1  0
  7 25  1  0
  8 26  1  0
  9 27  1  0
 11 28  1  0
 14 29  1  0
 17 30  1  0
 18 31  1  0
 19 32  1  0
 20 33  1  0
M  CHG  1  22  -1
M  END
>  <UniqueID>  (56) 
52

>  <SMILES>  (56) 
O=C1C=C(c2ccccc2O)C(=O)C=C1c1ccccc1[O-]

>  <Energy>  (56) 
48.37661006367584

>  <Genealogy>  (56) 
O=C1C=C(c2ccccc2O)C(=O)C=C1c1ccccc1[O-] (protonated)
O=C1C=C(c2ccccc2O)C(=O)C=C1c1ccccc1[O-] (3D coordinates assigned)
O=C1C=C(c2ccccc2O)C(=O)C=C1c1ccccc1[O-] (nonaromatic ring conformer: 48.37661006367584 kcal/mol)

>  <smiles>  (56) 
O=C1C=C(c2ccccc2O)C(=O)C=C1c1ccccc1O

>  <score_type>  (56) 
oracle

>  <origin>  (56) 
adg

>  <m_score__min__energy>  (56) 
-11.869999999999999

>  <m_primary>  (56) 
energy

$$$$
56:0
     RDKit          3D

 50 53  0  0  1  0  0  0  0  0999 V2000
   62.3650   33.0670   51.0670 C   0  0  0  0  0  0  0  0  0  0  0  0
   62.1590   33.3750   49.6540 C   0  0  0  0  0  0  0  0  0  0  0  0
   63.2700   33.3110   48.7830 C   0  0  0  0  0  0  0  0  0  0  0  0
   64.6870   33.0700   49.1580 C   0  0  0  0  0  0  0  0  0  0  0  0
   62.8930   33.5460   47.5270 N   0  0  0  0  0  0  0  0  0  0  0  0
   63.7620   33.5570   46.3760 C   0  0  0  0  0  0  0  0  0  0  0  0
   61.5850   33.7680   47.5070 C   0  0  0  0  0  0  0  0  0  0  0  0
   60.7870   34.0370   46.4640 N   0  0  0  0  0  0  0  0  0  0  0  0
   59.4850   34.2230   46.6870 C   0  0  0  0  0  0  0  0  0  0  0  0
   58.6860   34.4800   45.7080 N   0  0  0  0  0  0  0  0  0  0  0  0
   57.8720   33.4480   45.1300 C   0  0  0  0  0  0  0  0  0  0  0  0
   58.1820   32.1140   45.8400 C   0  0  0  0  0  0  0  0  0  0  0  0
   57.6320   31.0970   44.8450 C   0  0  0  0  0  0  0  0  0  0  0  0
   57.5300   31.8090   43.5110 C   0  0  0  0  0  0  0  0  0  0  0  0
   58.2900   33.0880   43.7290 C   0  0  0  0  0  0  0  0  0  0  0  0
   59.0280   34.1370   47.9380 N   0  0  0  0  0  0  0  0  0  0  0  0
   59.8210   33.8660   49.0160 C   0  0  0  0  0  0  0  0  0  0  0  0
   59.3410   33.8830   50.1150 N   0  0  0  0  0  0  0  0  0  0  0  0
   58.8450   33.1090   51.0380 C   0  0  0  0  0  0  0  0  0  0  0  0
   58.1190   31.9300   50.7020 C   0  0  0  0  0  0  0  0  0  0  0  0
   57.4570   31.2180   51.6800 C   0  0  0  0  0  0  0  0  0  0  0  0
   57.4570   31.5930   53.0030 C   0  0  0  0  0  0  0  0  0  0  0  0
   58.1560   32.7280   53.3380 C   0  0  0  0  0  0  0  0  0  0  0  0
   58.8280   33.4660   52.3950 C   0  0  0  0  0  0  0  0  0  0  0  0
   61.1390   33.6660   48.8190 C   0  0  0  0  0  0  0  0  0  0  0  0
   61.8590   33.8235   51.6847 H   0  0  0  0  0  0  0  0  0  0  0  0
   61.9490   32.0734   51.2901 H   0  0  0  0  0  0  0  0  0  0  0  0
   63.4421   33.0721   51.2901 H   0  0  0  0  0  0  0  0  0  0  0  0
   64.7787   33.0544   50.2541 H   0  0  0  0  0  0  0  0  0  0  0  0
   65.0152   32.1031   48.7488 H   0  0  0  0  0  0  0  0  0  0  0  0
   65.3164   33.8740   48.7488 H   0  0  0  0  0  0  0  0  0  0  0  0
   64.8105   33.5703   46.7083 H   0  0  0  0  0  0  0  0  0  0  0  0
   63.5805   32.6565   45.7709 H   0  0  0  0  0  0  0  0  0  0  0  0
   63.5578   34.4526   45.7709 H   0  0  0  0  0  0  0  0  0  0  0  0
   61.1480   34.1060   45.4850 H   0  0  0  0  0  0  0  0  0  0  0  0
   56.8417   33.8275   45.1967 H   0  0  0  0  0  0  0  0  0  0  0  0
   59.2636   31.9823   45.9910 H   0  0  0  0  0  0  0  0  0  0  0  0
   57.7466   32.0331   46.8469 H   0  0  0  0  0  0  0  0  0  0  0  0
   58.3133   30.2371   44.7653 H   0  0  0  0  0  0  0  0  0  0  0  0
   56.6518   30.7160   45.1676 H   0  0  0  0  0  0  0  0  0  0  0  0
   57.9907   31.2107   42.7111 H   0  0  0  0  0  0  0  0  0  0  0  0
   56.4894   31.9802   43.1983 H   0  0  0  0  0  0  0  0  0  0  0  0
   59.3761   32.9268   43.6622 H   0  0  0  0  0  0  0  0  0  0  0  0
   58.0797   33.8684   42.9828 H   0  0  0  0  0  0  0  0  0  0  0  0
   58.0110   34.2860   48.0780 H   0  0  0  0  0  0  0  0  0  0  0  0
   58.0864   31.5861   49.6576 H   0  0  0  0  0  0  0  0  0  0  0  0
   56.9055   30.3116   51.3895 H   0  0  0  0  0  0  0  0  0  0  0  0
   56.9188   31.0077   53.7632 H   0  0  0  0  0  0  0  0  0  0  0  0
   58.1777   33.0535   54.3885 H   0  0  0  0  0  0  0  0  0  0  0  0
   59.3714   34.3676   52.7141 H   0  0  0  0  0  0  0  0  0  0  0  0
  1  2  1  0
  2  3  2  0
  3  4  1  0
  3  5  1  0
  5  6  1  0
  5  7  1  0
  7  8  1  0
  8  9  1  0
  9 10  2  0
 10 11  1  0
 11 12  1  0
 12 13  1  0
 13 14  1  0
 14 15  1  0
  9 16  1  0
 16 17  1  0
 17 18  2  0
 18 19  1  0
 19 20  2  0
 20 21  1  0
 21 22  2  0
 22 23  1  0
 23 24  2  0
 17 25  1  0
 25  2  1  0
 25  7  2  0
 15 11  1  0
 24 19  1  0
  1 26  1  0
  1 27  1  0
  1 28  1  0
  4 29  1  0
  4 30  1  0
  4 31  1  0
  6 32  1  0
  6 33  1  0
  6 34  1  0
  8 35  1  0
 11 36  1  0
 12 37  1  0
 12 38  1  0
 13 39  1  0
 13 40  1  0
 14 41  1  0
 14 42  1  0
 15 43  1  0
 15 44  1  0
 16 45  1  0
 20 46  1  0
 21 47  1  0
 22 48  1  0
 23 49  1  0
 24 50  1  0
M  END
>  <smiles>  (57) 
Cc1c(C)n(C)c2[nH]c(=NC3CCCC3)[nH]c(=Nc3ccccc3)c12

>  <score_type>  (57) 
oracle

>  <origin>  (57) 
adg

>  <m_score__min__energy>  (57) 
-7.9000000000000004

>  <m_primary>  (57) 
energy

$$$$
57:0
     RDKit          3D

 54 56  0  0  0  0  0  0  0  0999 V2000
   64.1580   32.0580   49.2840 C   0  0  0  0  0  0  0  0  0  0  0  0
   63.3140   31.6280   48.2190 O   0  0  0  0  0  0  0  0  0  0  0  0
   62.2200   32.3580   47.7280 C   0  0  0  0  0  0  0  0  0  0  0  0
   62.3770   33.6090   47.1020 C   0  0  0  0  0  0  0  0  0  0  0  0
   61.2640   34.3050   46.6250 C   0  0  0  0  0  0  0  0  0  0  0  0
   59.9800   33.7580   46.7520 C   0  0  0  0  0  0  0  0  0  0  0  0
   58.7820   34.5250   46.2700 C   0  0  0  0  0  0  0  0  0  0  0  0
   58.3950   34.0350   44.9530 N   0  0  0  0  0  0  0  0  0  0  0  0
   57.6540   32.8300   44.7320 C   0  0  0  0  0  0  0  0  0  0  0  0
   56.6100   32.6320   45.4100 O   0  0  0  0  0  0  0  0  0  0  0  0
   58.1200   31.8040   43.7290 C   0  0  0  0  0  0  0  0  0  0  0  0
   58.0510   30.3980   44.2670 C   0  0  0  0  0  0  0  0  0  0  0  0
   56.8080   29.7960   44.5180 C   0  0  0  0  0  0  0  0  0  0  0  0
   56.7430   28.4820   44.9890 C   0  0  0  0  0  0  0  0  0  0  0  0
   57.9190   27.7450   45.1970 C   0  0  0  0  0  0  0  0  0  0  0  0
   57.8500   26.3510   45.7550 C   0  0  0  0  0  0  0  0  0  0  0  0
   57.3750   25.4290   44.7270 N   0  0  0  0  0  0  0  0  0  0  0  0
   56.1790   24.6620   44.9280 C   0  0  0  0  0  0  0  0  0  0  0  0
   55.0970   25.1660   45.6720 C   0  0  0  0  0  0  0  0  0  0  0  0
   55.1020   26.4630   46.1850 O   0  0  0  0  0  0  0  0  0  0  0  0
   54.0050   24.3860   45.8770 N   0  0  0  0  0  0  0  0  0  0  0  0
   53.9260   23.1300   45.3630 C   0  0  0  0  0  0  0  0  0  0  0  0
   52.8760   22.4050   45.5720 N   0  0  0  0  0  0  0  0  0  0  0  0
   54.9490   22.6360   44.6200 N   0  0  0  0  0  0  0  0  0  0  0  0
   56.0670   23.3710   44.3900 C   0  0  0  0  0  0  0  0  0  0  0  0
   57.0040   22.8790   43.7060 O   0  0  0  0  0  0  0  0  0  0  0  0
   59.1620   28.3470   44.9480 C   0  0  0  0  0  0  0  0  0  0  0  0
   59.2270   29.6610   44.4760 C   0  0  0  0  0  0  0  0  0  0  0  0
   59.8180   32.5200   47.3880 C   0  0  0  0  0  0  0  0  0  0  0  0
   60.9350   31.8110   47.8730 C   0  0  0  0  0  0  0  0  0  0  0  0
   60.8090   30.5650   48.5080 O   0  0  0  0  0  0  0  0  0  0  0  0
   59.8580   29.5680   48.1470 C   0  0  0  0  0  0  0  0  0  0  0  0
   63.6846   31.8168   50.2472 H   0  0  0  0  0  0  0  0  0  0  0  0
   65.1281   31.5442   49.2134 H   0  0  0  0  0  0  0  0  0  0  0  0
   64.3126   33.1448   49.2134 H   0  0  0  0  0  0  0  0  0  0  0  0
   63.3822   34.0410   46.9878 H   0  0  0  0  0  0  0  0  0  0  0  0
   61.3959   35.2871   46.1474 H   0  0  0  0  0  0  0  0  0  0  0  0
   57.9483   34.3850   46.9739 H   0  0  0  0  0  0  0  0  0  0  0  0
   59.0299   35.5949   46.2072 H   0  0  0  0  0  0  0  0  0  0  0  0
   57.4836   31.8710   42.8343 H   0  0  0  0  0  0  0  0  0  0  0  0
   59.1725   32.0206   43.4939 H   0  0  0  0  0  0  0  0  0  0  0  0
   55.8807   30.3613   44.3431 H   0  0  0  0  0  0  0  0  0  0  0  0
   55.7653   28.0231   45.1977 H   0  0  0  0  0  0  0  0  0  0  0  0
   58.8514   26.0413   46.0886 H   0  0  0  0  0  0  0  0  0  0  0  0
   57.1539   26.3350   46.6066 H   0  0  0  0  0  0  0  0  0  0  0  0
   58.0920   25.0470   44.0690 H   0  0  0  0  0  0  0  0  0  0  0  0
   54.7820   26.6800   47.1200 H   0  0  0  0  0  0  0  0  0  0  0  0
   52.9240   21.3610   45.5740 H   0  0  0  0  0  0  0  0  0  0  0  0
   60.0892   27.7823   45.1251 H   0  0  0  0  0  0  0  0  0  0  0  0
   60.2047   30.1198   44.2673 H   0  0  0  0  0  0  0  0  0  0  0  0
   58.8096   32.0977   47.5098 H   0  0  0  0  0  0  0  0  0  0  0  0
   59.4318   29.1211   49.0573 H   0  0  0  0  0  0  0  0  0  0  0  0
   59.0540   30.0264   47.5525 H   0  0  0  0  0  0  0  0  0  0  0  0
   60.3538   28.7865   47.5525 H   0  0  0  0  0  0  0  0  0  0  0  0
  1  2  1  0
  2  3  1  0
  3  4  2  0
  4  5  1  0
  5  6  2  0
  6  7  1  0
  7  8  1  0
  8  9  1  0
  9 10  2  0
  9 11  1  0
 11 12  1  0
 12 13  2  0
 13 14  1  0
 14 15  2  0
 15 16  1  0
 16 17  1  0
 17 18  1  0
 18 19  2  0
 19 20  1  0
 19 21  1  0
 21 22  1  0
 22 23  2  3
 22 24  1  0
 24 25  1  0
 25 26  2  0
 15 27  1  0
 27 28  2  0
  6 29  1  0
 29 30  2  0
 30 31  1  0
 31 32  1  0
 30  3  1  0
 28 12  1  0
 25 18  1  0
  1 33  1  0
  1 34  1  0
  1 35  1  0
  4 36  1  0
  5 37  1  0
  7 38  1  0
  7 39  1  0
 11 40  1  0
 11 41  1  0
 13 42  1  0
 14 43  1  0
 16 44  1  0
 16 45  1  0
 17 46  1  0
 20 47  1  0
 23 48  1  0
 27 49  1  0
 28 50  1  0
 29 51  1  0
 32 52  1  0
 32 53  1  0
 32 54  1  0
M  CHG  3   8  -1  21  -1  24  -1
M  END
>  <UniqueID>  (58) 
53

>  <SMILES>  (58) 
COc1ccc(C[N-]C(=O)Cc2ccc(CNc3c(O)[n-]c(=N)[n-]c3=O)cc2)cc1OC

>  <Energy>  (58) 
57.2484631823977

>  <Genealogy>  (58) 
COc1ccc(C[N-]C(=O)Cc2ccc(CNc3c(O)[n-]c(=N)[n-]c3=O)cc2)cc1OC (protonated)
COc1ccc(C[N-]C(=O)Cc2ccc(CNc3c(O)[n-]c(=N)[n-]c3=O)cc2)cc1OC (3D coordinates assigned)
COc1ccc(C[N-]C(=O)Cc2ccc(CNc3c(O)[n-]c(=N)[n-]c3=O)cc2)cc1OC (optimized conformer: 57.2484631823977 kcal/mol)

>  <smiles>  (58) 
COc1ccc(CNC(=O)Cc2ccc(CNc3c(O)[nH]c(=N)[nH]c3=O)cc2)cc1OC

>  <score_type>  (58) 
oracle

>  <origin>  (58) 
adg

>  <m_score__min__energy>  (58) 
-12.85

>  <m_primary>  (58) 
energy

$$$$
58:0
     RDKit          3D

 64 67  0  0  0  0  0  0  0  0999 V2000
   59.6470   28.1020   47.6320 C   0  0  0  0  0  0  0  0  0  0  0  0
   60.6610   27.8600   46.5160 C   0  0  0  0  0  0  0  0  0  0  0  0
   60.8210   29.0810   45.6000 C   0  0  0  0  0  0  0  0  0  0  0  0
   59.4980   29.7370   45.3060 C   0  0  0  0  0  0  0  0  0  0  0  0
   59.2600   31.0280   45.6160 N   0  0  0  0  0  0  0  0  0  0  0  0
   57.9990   31.2420   45.2020 C   0  0  0  0  0  0  0  0  0  0  0  0
   57.2270   32.8600   45.2370 S   0  0  0  0  0  0  0  0  0  0  0  0
   58.8320   33.7270   45.2070 C   0  0  0  0  0  0  0  0  0  0  0  0
   59.4260   33.7410   46.5840 C   0  0  0  0  0  0  0  0  0  0  0  0
   58.6770   33.2930   47.6850 C   0  0  0  0  0  0  0  0  0  0  0  0
   59.2450   33.2760   48.9620 C   0  0  0  0  0  0  0  0  0  0  0  0
   60.5650   33.6990   49.1480 C   0  0  0  0  0  0  0  0  0  0  0  0
   61.3190   34.1380   48.0550 C   0  0  0  0  0  0  0  0  0  0  0  0
   60.7550   34.1550   46.7760 C   0  0  0  0  0  0  0  0  0  0  0  0
   57.4740   30.0810   44.6610 C   0  0  0  0  0  0  0  0  0  0  0  0
   56.1200   29.9190   44.0820 C   0  0  0  0  0  0  0  0  0  0  0  0
   55.8810   30.2750   42.8990 O   0  0  0  0  0  0  0  0  0  0  0  0
   55.0960   29.3500   44.8270 O   0  0  0  0  0  0  0  0  0  0  0  0
   58.4360   29.1280   44.7180 N   0  0  0  0  0  0  0  0  0  0  0  0
   58.4330   27.8240   44.0360 C   0  0  0  0  0  0  0  0  0  0  0  0
   57.8650   26.7640   44.9470 C   0  0  0  0  0  0  0  0  0  0  0  0
   58.4660   25.4960   45.0150 C   0  0  0  0  0  0  0  0  0  0  0  0
   57.8700   24.4720   45.7520 C   0  0  0  0  0  0  0  0  0  0  0  0
   56.6710   24.7010   46.4370 C   0  0  0  0  0  0  0  0  0  0  0  0
   55.9880   23.5960   47.1330 C   0  0  0  0  0  0  0  0  0  0  0  0
   56.5910   23.0270   48.2640 C   0  0  0  0  0  0  0  0  0  0  0  0
   55.9700   21.9730   48.9420 C   0  0  0  0  0  0  0  0  0  0  0  0
   56.6380   21.3330   50.1230 C   0  0  0  0  0  0  0  0  0  0  0  0
   54.7520   21.4830   48.4570 C   0  0  0  0  0  0  0  0  0  0  0  0
   54.1720   22.0530   47.3690 N   0  0  0  0  0  0  0  0  0  0  0  0
   54.7410   23.0920   46.7000 C   0  0  0  0  0  0  0  0  0  0  0  0
   53.8660   23.7820   45.3280 S   0  0  0  0  0  0  0  0  0  0  0  0
   52.3380   22.9950   45.1450 N   0  0  0  0  0  0  0  0  0  0  0  0
   54.6700   23.6280   44.0680 O   0  0  0  0  0  0  0  0  0  0  0  0
   53.6400   25.2470   45.5750 O   0  0  0  0  0  0  0  0  0  0  0  0
   56.1090   25.9850   46.4350 C   0  0  0  0  0  0  0  0  0  0  0  0
   56.7040   27.0120   45.6950 C   0  0  0  0  0  0  0  0  0  0  0  0
   60.1407   27.9842   48.6079 H   0  0  0  0  0  0  0  0  0  0  0  0
   59.2434   29.1217   47.5460 H   0  0  0  0  0  0  0  0  0  0  0  0
   58.8265   27.3745   47.5460 H   0  0  0  0  0  0  0  0  0  0  0  0
   61.6362   27.6269   46.9684 H   0  0  0  0  0  0  0  0  0  0  0  0
   60.2931   27.0246   45.9022 H   0  0  0  0  0  0  0  0  0  0  0  0
   61.4791   29.8119   46.0927 H   0  0  0  0  0  0  0  0  0  0  0  0
   61.2523   28.7395   44.6475 H   0  0  0  0  0  0  0  0  0  0  0  0
   59.5154   33.2071   44.5195 H   0  0  0  0  0  0  0  0  0  0  0  0
   58.6803   34.7616   44.8657 H   0  0  0  0  0  0  0  0  0  0  0  0
   57.6402   32.9545   47.5416 H   0  0  0  0  0  0  0  0  0  0  0  0
   58.6530   32.9294   49.8219 H   0  0  0  0  0  0  0  0  0  0  0  0
   61.0101   33.6864   50.1538 H   0  0  0  0  0  0  0  0  0  0  0  0
   62.3572   34.4704   48.2019 H   0  0  0  0  0  0  0  0  0  0  0  0
   61.3534   34.4935   45.9173 H   0  0  0  0  0  0  0  0  0  0  0  0
   57.8174   27.8903   43.1268 H   0  0  0  0  0  0  0  0  0  0  0  0
   59.4657   27.5544   43.7698 H   0  0  0  0  0  0  0  0  0  0  0  0
   59.4114   25.3095   44.4845 H   0  0  0  0  0  0  0  0  0  0  0  0
   58.3444   23.4805   45.7949 H   0  0  0  0  0  0  0  0  0  0  0  0
   57.5580   23.4119   48.6200 H   0  0  0  0  0  0  0  0  0  0  0  0
   56.2117   21.7414   51.0512 H   0  0  0  0  0  0  0  0  0  0  0  0
   56.4747   20.2456   50.0919 H   0  0  0  0  0  0  0  0  0  0  0  0
   57.7174   21.5427   50.0919 H   0  0  0  0  0  0  0  0  0  0  0  0
   54.2633   20.6344   48.9580 H   0  0  0  0  0  0  0  0  0  0  0  0
   52.3350   22.1760   45.7950 H   0  0  0  0  0  0  0  0  0  0  0  0
   52.3070   22.6080   44.1760 H   0  0  0  0  0  0  0  0  0  0  0  0
   55.1974   26.1856   47.0171 H   0  0  0  0  0  0  0  0  0  0  0  0
   56.2599   28.0184   45.6994 H   0  0  0  0  0  0  0  0  0  0  0  0
  1  2  1  0
  2  3  1  0
  3  4  1  0
  4  5  2  0
  5  6  1  0
  6  7  1  0
  7  8  1  0
  8  9  1  0
  9 10  2  0
 10 11  1  0
 11 12  2  0
 12 13  1  0
 13 14  2  0
  6 15  2  0
 15 16  1  0
 16 17  2  0
 16 18  1  0
 15 19  1  0
 19 20  1  0
 20 21  1  0
 21 22  2  0
 22 23  1  0
 23 24  2  0
 24 25  1  0
 25 26  2  0
 26 27  1  0
 27 28  1  0
 27 29  2  0
 29 30  1  0
 30 31  2  0
 31 32  1  0
 32 33  1  0
 32 34  2  0
 32 35  2  0
 24 36  1  0
 36 37  2  0
 19  4  1  0
 37 21  1  0
 14  9  1  0
 31 25  1  0
  1 38  1  0
  1 39  1  0
  1 40  1  0
  2 41  1  0
  2 42  1  0
  3 43  1  0
  3 44  1  0
  8 45  1  0
  8 46  1  0
 10 47  1  0
 11 48  1  0
 12 49  1  0
 13 50  1  0
 14 51  1  0
 20 52  1  0
 20 53  1  0
 22 54  1  0
 23 55  1  0
 26 56  1  0
 28 57  1  0
 28 58  1  0
 28 59  1  0
 29 60  1  0
 33 61  1  0
 33 62  1  0
 36 63  1  0
 37 64  1  0
M  CHG  1  18  -1
M  END
>  <UniqueID>  (59) 
54

>  <SMILES>  (59) 
CCCc1nc(SCc2ccccc2)c(C(=O)[O-])n1Cc1ccc(-c2cc(C)cnc2S(N)(=O)=O)cc1

>  <Energy>  (59) 
94.48374422838631

>  <Genealogy>  (59) 
CCCc1nc(SCc2ccccc2)c(C(=O)[O-])n1Cc1ccc(-c2cc(C)cnc2S(N)(=O)=O)cc1 (protonated)
CCCc1nc(SCc2ccccc2)c(C(=O)[O-])n1Cc1ccc(-c2cc(C)cnc2S(N)(=O)=O)cc1 (3D coordinates assigned)
CCCc1nc(SCc2ccccc2)c(C(=O)[O-])n1Cc1ccc(-c2cc(C)cnc2S(N)(=O)=O)cc1 (optimized conformer: 94.48374422838631 kcal/mol)

>  <smiles>  (59) 
CCCc1nc(SCc2ccccc2)c(C(=O)O)n1Cc1ccc(-c2cc(C)cnc2S(N)(=O)=O)cc1

>  <score_type>  (59) 
oracle

>  <origin>  (59) 
adg

>  <m_score__min__energy>  (59) 
-11.91

>  <m_primary>  (59) 
energy

$$$$
59:0
     RDKit          3D

 64 68  0  0  0  0  0  0  0  0999 V2000
   55.4190   29.4160   43.8410 C   0  0  0  0  0  0  0  0  0  0  0  0
   56.4680   30.2620   44.4950 C   0  0  0  0  0  0  0  0  0  0  0  0
   56.3390   31.6170   44.5320 N   0  0  0  0  0  0  0  0  0  0  0  0
   57.4000   32.2150   45.1130 C   0  0  0  0  0  0  0  0  0  0  0  0
   57.4610   33.5050   45.2690 N   0  0  0  0  0  0  0  0  0  0  0  0
   58.6380   34.3070   45.4840 C   0  0  0  0  0  0  0  0  0  0  0  0
   59.2490   34.8370   44.5160 O   0  0  0  0  0  0  0  0  0  0  0  0
   59.1840   34.5070   46.8710 C   0  0  0  0  0  0  0  0  0  0  0  0
   60.4480   33.7330   47.1160 C   0  0  0  0  0  0  0  0  0  0  0  0
   61.6750   34.1930   46.6350 C   0  0  0  0  0  0  0  0  0  0  0  0
   62.8200   33.4390   46.8700 C   0  0  0  0  0  0  0  0  0  0  0  0
   62.7200   32.2450   47.5840 C   0  0  0  0  0  0  0  0  0  0  0  0
   63.7670   31.5870   47.8340 O   0  0  0  0  0  0  0  0  0  0  0  0
   61.4910   31.8140   48.0220 N   0  0  0  0  0  0  0  0  0  0  0  0
   61.3340   30.5860   48.7580 C   0  0  0  0  0  0  0  0  0  0  0  0
   61.8580   30.4760   50.0580 C   0  0  0  0  0  0  0  0  0  0  0  0
   61.6890   29.2980   50.7930 C   0  0  0  0  0  0  0  0  0  0  0  0
   60.9910   28.2200   50.2380 C   0  0  0  0  0  0  0  0  0  0  0  0
   60.7700   26.7490   51.1640 Cl  0  0  0  0  0  0  0  0  0  0  0  0
   60.4600   28.3230   48.9480 C   0  0  0  0  0  0  0  0  0  0  0  0
   60.6250   29.5010   48.2130 C   0  0  0  0  0  0  0  0  0  0  0  0
   60.4000   32.5530   47.7910 N   0  0  0  0  0  0  0  0  0  0  0  0
   58.5500   31.0870   45.6090 S   0  0  0  0  0  0  0  0  0  0  0  0
   57.6420   29.7710   45.0810 C   0  0  0  0  0  0  0  0  0  0  0  0
   58.0780   28.3710   45.2230 C   0  0  0  0  0  0  0  0  0  0  0  0
   58.9990   28.1070   46.0420 O   0  0  0  0  0  0  0  0  0  0  0  0
   57.4460   27.3190   44.4740 N   0  0  0  0  0  0  0  0  0  0  0  0
   57.7010   25.9160   44.6730 C   0  0  0  0  0  0  0  0  0  0  0  0
   58.6060   25.5190   45.6670 C   0  0  0  0  0  0  0  0  0  0  0  0
   58.8980   24.1660   45.8640 C   0  0  0  0  0  0  0  0  0  0  0  0
   58.2950   23.1840   45.0550 C   0  0  0  0  0  0  0  0  0  0  0  0
   58.5580   21.8150   45.2200 O   0  0  0  0  0  0  0  0  0  0  0  0
   57.8010   20.9370   46.0470 C   0  0  0  0  0  0  0  0  0  0  0  0
   56.5840   21.6620   46.5420 C   0  0  0  0  0  0  0  0  0  0  0  0
   55.3440   21.4840   45.9070 C   0  0  0  0  0  0  0  0  0  0  0  0
   54.2010   22.1190   46.4020 C   0  0  0  0  0  0  0  0  0  0  0  0
   54.2860   22.9240   47.5410 C   0  0  0  0  0  0  0  0  0  0  0  0
   55.5140   23.0940   48.1870 C   0  0  0  0  0  0  0  0  0  0  0  0
   56.6590   22.4620   47.6940 C   0  0  0  0  0  0  0  0  0  0  0  0
   57.4070   23.5820   44.0450 C   0  0  0  0  0  0  0  0  0  0  0  0
   56.6540   22.3860   43.0000 Cl  0  0  0  0  0  0  0  0  0  0  0  0
   57.1210   24.9380   43.8480 C   0  0  0  0  0  0  0  0  0  0  0  0
   54.8098   28.9247   44.6139 H   0  0  0  0  0  0  0  0  0  0  0  0
   54.7746   30.0502   43.2144 H   0  0  0  0  0  0  0  0  0  0  0  0
   55.9023   28.6519   43.2144 H   0  0  0  0  0  0  0  0  0  0  0  0
   59.3936   35.5772   47.0153 H   0  0  0  0  0  0  0  0  0  0  0  0
   58.4280   34.1400   47.5808 H   0  0  0  0  0  0  0  0  0  0  0  0
   61.7356   35.1393   46.0775 H   0  0  0  0  0  0  0  0  0  0  0  0
   63.7961   33.7815   46.4959 H   0  0  0  0  0  0  0  0  0  0  0  0
   62.4046   31.3221   50.5001 H   0  0  0  0  0  0  0  0  0  0  0  0
   62.1052   29.2191   51.8082 H   0  0  0  0  0  0  0  0  0  0  0  0
   59.9115   27.4756   48.5109 H   0  0  0  0  0  0  0  0  0  0  0  0
   60.1976   29.5793   47.2025 H   0  0  0  0  0  0  0  0  0  0  0  0
   56.7690   27.5760   43.7230 H   0  0  0  0  0  0  0  0  0  0  0  0
   59.0908   26.2787   46.2977 H   0  0  0  0  0  0  0  0  0  0  0  0
   59.6020   23.8673   46.6546 H   0  0  0  0  0  0  0  0  0  0  0  0
   57.4941   20.0552   45.4653 H   0  0  0  0  0  0  0  0  0  0  0  0
   58.4126   20.6105   46.9010 H   0  0  0  0  0  0  0  0  0  0  0  0
   55.2718   20.8423   45.0165 H   0  0  0  0  0  0  0  0  0  0  0  0
   53.2343   21.9848   45.8946 H   0  0  0  0  0  0  0  0  0  0  0  0
   53.3865   23.4240   47.9294 H   0  0  0  0  0  0  0  0  0  0  0  0
   55.5793   23.7262   49.0848 H   0  0  0  0  0  0  0  0  0  0  0  0
   57.6219   22.5915   48.2098 H   0  0  0  0  0  0  0  0  0  0  0  0
   56.4370   25.2401   43.0412 H   0  0  0  0  0  0  0  0  0  0  0  0
  1  2  1  0
  2  3  1  0
  3  4  1  0
  4  5  2  3
  5  6  1  0
  6  7  2  0
  6  8  1  0
  8  9  1  0
  9 10  1  0
 10 11  2  0
 11 12  1  0
 12 13  2  0
 12 14  1  0
 14 15  1  0
 15 16  2  0
 16 17  1  0
 17 18  2  0
 18 19  1  0
 18 20  1  0
 20 21  2  0
 14 22  1  0
  4 23  1  0
 23 24  1  0
 24 25  1  0
 25 26  2  0
 25 27  1  0
 27 28  1  0
 28 29  2  0
 29 30  1  0
 30 31  2  0
 31 32  1  0
 32 33  1  0
 33 34  1  0
 34 35  2  0
 35 36  1  0
 36 37  2  0
 37 38  1  0
 38 39  2  0
 31 40  1  0
 40 41  1  0
 40 42  2  0
 24  2  2  0
 42 28  1  0
 22  9  2  0
 39 34  1  0
 21 15  1  0
  1 43  1  0
  1 44  1  0
  1 45  1  0
  8 46  1  0
  8 47  1  0
 10 48  1  0
 11 49  1  0
 16 50  1  0
 17 51  1  0
 20 52  1  0
 21 53  1  0
 27 54  1  0
 29 55  1  0
 30 56  1  0
 33 57  1  0
 33 58  1  0
 35 59  1  0
 36 60  1  0
 37 61  1  0
 38 62  1  0
 39 63  1  0
 42 64  1  0
M  CHG  1   3  -1
M  END
>  <UniqueID>  (60) 
55

>  <SMILES>  (60) 
Cc1[n-]c(=NC(=O)Cc2ccc(=O)n(-c3ccc(Cl)cc3)n2)sc1C(=O)Nc1ccc(OCc2ccccc2)c(Cl)c1

>  <Energy>  (60) 
117.61852868304386

>  <Genealogy>  (60) 
Cc1[n-]c(=NC(=O)Cc2ccc(=O)n(-c3ccc(Cl)cc3)n2)sc1C(=O)Nc1ccc(OCc2ccccc2)c(Cl)c1 (protonated)
Cc1[n-]c(=NC(=O)Cc2ccc(=O)n(-c3ccc(Cl)cc3)n2)sc1C(=O)Nc1ccc(OCc2ccccc2)c(Cl)c1 (3D coordinates assigned)
Cc1[n-]c(=NC(=O)Cc2ccc(=O)n(-c3ccc(Cl)cc3)n2)sc1C(=O)Nc1ccc(OCc2ccccc2)c(Cl)c1 (optimized conformer: 117.61852868304386 kcal/mol)

>  <smiles>  (60) 
Cc1[nH]c(=NC(=O)Cc2ccc(=O)n(-c3ccc(Cl)cc3)n2)sc1C(=O)Nc1ccc(OCc2ccccc2)c(Cl)c1

>  <score_type>  (60) 
oracle

>  <origin>  (60) 
adg

>  <m_score__min__energy>  (60) 
-11.960000000000001

>  <m_primary>  (60) 
energy

$$$$
60:0
     RDKit          3D

 74 79  0  0  0  0  0  0  0  0999 V2000
   55.3521   30.2608   43.8125 H   0  0  0  0  0  0  0  0  0  0  0  0
   56.3990   30.2580   43.4750 C   0  0  0  0  0  0  0  0  0  0  0  0
   57.0900   28.9620   43.3320 C   0  0  0  0  0  0  0  0  0  0  0  0
   57.0580   28.3440   42.2310 O   0  0  0  0  0  0  0  0  0  0  0  0
   57.8710   28.4390   44.4190 N   0  0  0  0  0  0  0  0  0  0  0  0
   59.2040   27.8830   44.1510 C   0  0  0  0  0  0  0  0  0  0  0  0
   59.6715   28.4509   43.3331 H   0  0  0  0  0  0  0  0  0  0  0  0
   59.0899   26.8247   43.8737 H   0  0  0  0  0  0  0  0  0  0  0  0
   60.1040   27.9650   45.3970 C   0  0  0  0  0  0  0  0  0  0  0  0
   61.1588   27.9153   45.0890 H   0  0  0  0  0  0  0  0  0  0  0  0
   59.8725   27.1240   46.0672 H   0  0  0  0  0  0  0  0  0  0  0  0
   59.8500   29.2940   46.1420 C   0  0  0  0  0  0  0  0  0  0  0  0
   60.0344   30.0954   45.4114 H   0  0  0  0  0  0  0  0  0  0  0  0
   60.7980   29.4880   47.2960 C   0  0  0  0  0  0  0  0  0  0  0  0
   60.7560   28.6900   48.2710 O   0  0  0  0  0  0  0  0  0  0  0  0
   61.8060   30.5020   47.2380 N   0  0  0  0  0  0  0  0  0  0  0  0
   61.7260   31.7850   47.9350 C   0  0  1  0  0  0  0  0  0  0  0  0
   60.6744   32.0604   48.1035 H   0  0  0  0  0  0  0  0  0  0  0  0
   62.4150   31.6450   49.2780 C   0  0  0  0  0  0  0  0  0  0  0  0
   61.7970   30.8710   50.2750 C   0  0  0  0  0  0  0  0  0  0  0  0
   60.7998   30.4435   50.0936 H   0  0  0  0  0  0  0  0  0  0  0  0
   62.4380   30.6400   51.4940 C   0  0  0  0  0  0  0  0  0  0  0  0
   61.9441   30.0335   52.2675 H   0  0  0  0  0  0  0  0  0  0  0  0
   63.7040   31.1770   51.7330 C   0  0  0  0  0  0  0  0  0  0  0  0
   64.2069   30.9922   52.6937 H   0  0  0  0  0  0  0  0  0  0  0  0
   64.3330   31.9490   50.7530 C   0  0  0  0  0  0  0  0  0  0  0  0
   65.3266   32.3777   50.9504 H   0  0  0  0  0  0  0  0  0  0  0  0
   63.7060   32.1820   49.5170 C   0  0  0  0  0  0  0  0  0  0  0  0
   64.3800   33.0850   48.5120 C   0  0  0  0  0  0  0  0  0  0  0  0
   65.4620   32.8878   48.5290 H   0  0  0  0  0  0  0  0  0  0  0  0
   64.1568   34.1252   48.7914 H   0  0  0  0  0  0  0  0  0  0  0  0
   63.8620   32.8610   47.0920 C   0  0  0  0  0  0  0  0  0  0  0  0
   64.1947   31.8757   46.7335 H   0  0  0  0  0  0  0  0  0  0  0  0
   64.2570   33.6489   46.4339 H   0  0  0  0  0  0  0  0  0  0  0  0
   62.3340   32.9150   47.0810 C   0  0  0  0  0  0  0  0  0  0  0  0
   61.9795   32.8111   46.0449 H   0  0  0  0  0  0  0  0  0  0  0  0
   62.0182   33.8791   47.5063 H   0  0  0  0  0  0  0  0  0  0  0  0
   58.3830   29.4060   46.6340 C   0  0  0  0  0  0  0  0  0  0  0  0
   58.0710   30.4589   46.5698 H   0  0  0  0  0  0  0  0  0  0  0  0
   58.3528   29.0315   47.6678 H   0  0  0  0  0  0  0  0  0  0  0  0
   57.4060   28.5540   45.8070 C   0  0  0  0  0  0  0  0  0  0  0  0
   56.4135   29.0282   45.8181 H   0  0  0  0  0  0  0  0  0  0  0  0
   57.3507   27.5478   46.2479 H   0  0  0  0  0  0  0  0  0  0  0  0
   56.9900   31.4320   43.2120 C   0  0  0  0  0  0  0  0  0  0  0  0
   56.9627   31.8180   42.1823 H   0  0  0  0  0  0  0  0  0  0  0  0
   57.6800   32.2320   44.2550 C   0  0  0  0  0  0  0  0  0  0  0  0
   58.4310   33.3690   43.8590 C   0  0  0  0  0  0  0  0  0  0  0  0
   58.4555   33.6599   42.7985 H   0  0  0  0  0  0  0  0  0  0  0  0
   59.1460   34.1310   44.8050 C   0  0  0  0  0  0  0  0  0  0  0  0
   59.7338   35.0088   44.4987 H   0  0  0  0  0  0  0  0  0  0  0  0
   59.0850   33.7380   46.1390 C   0  0  0  0  0  0  0  0  0  0  0  0
   58.3430   32.6600   46.5330 C   0  0  0  0  0  0  0  0  0  0  0  0
   57.6160   31.8910   45.6290 C   0  0  0  0  0  0  0  0  0  0  0  0
   57.0078   31.0410   45.9720 H   0  0  0  0  0  0  0  0  0  0  0  0
   58.4820   32.5350   47.8940 C   0  0  0  0  0  0  0  0  0  0  0  0
   58.0099   31.7880   48.5491 H   0  0  0  0  0  0  0  0  0  0  0  0
   59.3510   33.5600   48.2650 C   0  0  0  0  0  0  0  0  0  0  0  0
   59.7810   33.8590   49.6430 C   0  0  0  0  0  0  0  0  0  0  0  0
   60.8130   34.5610   49.8280 O   0  0  0  0  0  0  0  0  0  0  0  0
   59.0280   33.3980   50.7780 N   0  0  0  0  0  0  0  0  0  0  0  0
   58.5670   32.0280   50.9470 C   0  0  0  0  0  0  0  0  0  0  0  0
   57.9342   31.7275   50.0989 H   0  0  0  0  0  0  0  0  0  0  0  0
   59.4049   31.3165   50.9881 H   0  0  0  0  0  0  0  0  0  0  0  0
   57.7630   32.0290   52.2360 C   0  0  0  0  0  0  0  0  0  0  0  0
   56.6858   32.0633   52.0157 H   0  0  0  0  0  0  0  0  0  0  0  0
   57.9437   31.1189   52.8269 H   0  0  0  0  0  0  0  0  0  0  0  0
   58.1910   33.2830   52.9910 C   0  0  0  0  0  0  0  0  0  0  0  0
   57.3195   33.7597   53.4635 H   0  0  0  0  0  0  0  0  0  0  0  0
   58.9084   33.0444   53.7900 H   0  0  0  0  0  0  0  0  0  0  0  0
   58.8050   34.2150   51.9540 C   0  0  0  0  0  0  0  0  0  0  0  0
   58.1150   35.0400   51.7230 H   0  0  0  0  0  0  0  0  0  0  0  0
   59.7390   34.6685   52.3172 H   0  0  0  0  0  0  0  0  0  0  0  0
   59.7030   34.3050   47.1900 N   0  0  0  0  0  0  0  0  0  0  0  0
   60.3260   35.1410   47.1800 H   0  0  0  0  0  0  0  0  0  0  0  0
  1  2  1  0
  2  3  1  0
  3  4  2  0
  3  5  1  0
  5  6  1  0
  6  7  1  0
  6  8  1  0
  6  9  1  0
  9 10  1  0
  9 11  1  0
  9 12  1  0
 12 13  1  0
 12 14  1  0
 14 15  2  0
 14 16  1  0
 16 17  1  0
 17 18  1  1
 17 19  1  0
 19 20  2  0
 20 21  1  0
 20 22  1  0
 22 23  1  0
 22 24  2  0
 24 25  1  0
 24 26  1  0
 26 27  1  0
 26 28  2  0
 28 29  1  0
 29 30  1  0
 29 31  1  0
 29 32  1  0
 32 33  1  0
 32 34  1  0
 32 35  1  0
 35 36  1  0
 35 37  1  0
 12 38  1  0
 38 39  1  0
 38 40  1  0
 38 41  1  0
 41 42  1  0
 41 43  1  0
  2 44  2  0
 44 45  1  0
 44 46  1  0
 46 47  2  0
 47 48  1  0
 47 49  1  0
 49 50  1  0
 49 51  2  0
 51 52  1  0
 52 53  2  0
 53 54  1  0
 52 55  1  0
 55 56  1  0
 55 57  2  0
 57 58  1  0
 58 59  2  0
 58 60  1  0
 60 61  1  0
 61 62  1  0
 61 63  1  0
 61 64  1  0
 64 65  1  0
 64 66  1  0
 64 67  1  0
 67 68  1  0
 67 69  1  0
 67 70  1  0
 70 71  1  0
 70 72  1  0
 57 73  1  0
 73 74  1  0
 41  5  1  0
 53 46  1  0
 70 60  1  0
 35 17  1  0
 73 51  1  0
 28 19  1  0
M  CHG  1  16  -1
M  END
>  <UniqueID>  (61) 
56

>  <SMILES>  (61) 
O=C([N-][C@@H]1CCCc2ccccc21)C1CCN(C(=O)/C=C/c2ccc3[nH]c(C(=O)N4CCCC4)cc3c2)CC1

>  <Energy>  (61) 
120.22712020968855

>  <Genealogy>  (61) 
O=C([N-]C1CCCc2ccccc21)C1CCN(C(=O)C=Cc2ccc3[nH]c(C(=O)N4CCCC4)cc3c2)CC1 (protonated)
O=C([N-][C@@H]1CCCc2ccccc21)C1CCN(C(=O)C=Cc2ccc3[nH]c(C(=O)N4CCCC4)cc3c2)CC1 (chirality)
O=C([N-][C@@H]1CCCc2ccccc21)C1CCN(C(=O)/C=C/c2ccc3[nH]c(C(=O)N4CCCC4)cc3c2)CC1 (cis-trans isomerization)
O=C([N-][C@@H]1CCCc2ccccc21)C1CCN(C(=O)/C=C/c2ccc3[nH]c(C(=O)N4CCCC4)cc3c2)CC1 (3D coordinates assigned)
O=C([N-][C@@H]1CCCc2ccccc21)C1CCN(C(=O)/C=C/c2ccc3[nH]c(C(=O)N4CCCC4)cc3c2)CC1 (nonaromatic ring conformer: 120.22712020968855 kcal/mol)

>  <smiles>  (61) 
O=C(NC1CCCc2ccccc21)C1CCN(C(=O)C=Cc2ccc3[nH]c(C(=O)N4CCCC4)cc3c2)CC1

>  <score_type>  (61) 
oracle

>  <origin>  (61) 
adg

>  <m_score__min__energy>  (61) 
-12.33

>  <m_primary>  (61) 
energy

$$$$
61:0
     RDKit          3D

 70 74  0  0  0  0  0  0  0  0999 V2000
   57.6437   28.6777   51.9079 H   0  0  0  0  0  0  0  0  0  0  0  0
   56.8500   29.2640   52.3940 C   0  0  0  0  0  0  0  0  0  0  0  0
   55.6650   28.6620   53.4240 S   0  0  0  0  0  0  0  0  0  0  0  0
   54.9490   30.1720   53.6610 C   0  0  0  0  0  0  0  0  0  0  0  0
   53.9170   30.4330   54.4100 N   0  0  0  0  0  0  0  0  0  0  0  0
   52.9380   29.4980   54.8960 C   0  0  0  0  0  0  0  0  0  0  0  0
   52.8990   29.1620   56.1120 O   0  0  0  0  0  0  0  0  0  0  0  0
   51.9220   28.9430   53.9450 C   0  0  0  0  0  0  0  0  0  0  0  0
   52.3009   28.0031   53.5172 H   0  0  0  0  0  0  0  0  0  0  0  0
   50.9849   28.7583   54.4907 H   0  0  0  0  0  0  0  0  0  0  0  0
   51.6560   29.9220   52.8340 C   0  0  0  0  0  0  0  0  0  0  0  0
   51.1000   31.1780   53.1210 C   0  0  0  0  0  0  0  0  0  0  0  0
   50.8295   31.4330   54.1563 H   0  0  0  0  0  0  0  0  0  0  0  0
   50.8880   32.1070   52.0980 C   0  0  0  0  0  0  0  0  0  0  0  0
   50.4429   33.0863   52.3278 H   0  0  0  0  0  0  0  0  0  0  0  0
   51.2420   31.7910   50.7820 C   0  0  0  0  0  0  0  0  0  0  0  0
   51.0390   32.7150   49.7640 O   0  0  0  0  0  0  0  0  0  0  0  0
   51.8070   30.5470   50.4900 C   0  0  0  0  0  0  0  0  0  0  0  0
   52.0871   30.3004   49.4552 H   0  0  0  0  0  0  0  0  0  0  0  0
   52.0170   29.6150   51.5110 C   0  0  0  0  0  0  0  0  0  0  0  0
   52.4662   28.6383   51.2779 H   0  0  0  0  0  0  0  0  0  0  0  0
   55.6000   31.1380   52.9780 N   0  0  0  0  0  0  0  0  0  0  0  0
   56.6490   30.6370   52.2650 C   0  0  0  0  0  0  0  0  0  0  0  0
   57.5690   31.5100   51.4600 C   0  0  0  0  0  0  0  0  0  0  0  0
   56.9830   32.3151   50.9927 H   0  0  0  0  0  0  0  0  0  0  0  0
   58.0557   30.8909   50.6919 H   0  0  0  0  0  0  0  0  0  0  0  0
   58.6350   32.1190   52.3300 C   0  0  0  0  0  0  0  0  0  0  0  0
   58.3830   33.1370   53.1770 N   0  0  0  0  0  0  0  0  0  0  0  0
   59.4360   33.2580   53.9740 N   0  0  0  0  0  0  0  0  0  0  0  0
   60.3100   32.3070   53.6100 C   0  0  0  0  0  0  0  0  0  0  0  0
   61.8540   32.0070   54.4670 S   0  0  0  0  0  0  0  0  0  0  0  0
   62.7700   33.3970   53.7020 C   0  0  0  0  0  0  0  0  0  0  0  0
   63.6947   33.5632   54.2742 H   0  0  0  0  0  0  0  0  0  0  0  0
   62.1078   34.2751   53.7222 H   0  0  0  0  0  0  0  0  0  0  0  0
   63.1350   33.1470   52.2680 C   0  0  0  0  0  0  0  0  0  0  0  0
   63.7160   32.0700   51.9590 O   0  0  0  0  0  0  0  0  0  0  0  0
   62.7580   34.0800   51.2490 N   0  0  0  0  0  0  0  0  0  0  0  0
   62.2190   34.9370   51.5180 H   0  0  0  0  0  0  0  0  0  0  0  0
   62.8080   33.7190   49.8600 C   0  0  0  0  0  0  0  0  0  0  0  0
   61.6260   33.7280   49.0890 C   0  0  0  0  0  0  0  0  0  0  0  0
   60.3070   34.1130   49.7020 C   0  0  0  0  0  0  0  0  0  0  0  0
   60.3912   34.0884   50.7985 H   0  0  0  0  0  0  0  0  0  0  0  0
   60.0344   35.1282   49.3778 H   0  0  0  0  0  0  0  0  0  0  0  0
   59.5311   33.4039   49.3778 H   0  0  0  0  0  0  0  0  0  0  0  0
   61.6860   33.4160   47.7190 C   0  0  0  0  0  0  0  0  0  0  0  0
   60.7695   33.4443   47.1114 H   0  0  0  0  0  0  0  0  0  0  0  0
   62.9000   33.0710   47.1260 C   0  0  0  0  0  0  0  0  0  0  0  0
   62.9347   32.8117   46.0576 H   0  0  0  0  0  0  0  0  0  0  0  0
   64.0710   33.0540   47.8850 C   0  0  0  0  0  0  0  0  0  0  0  0
   65.0262   32.7871   47.4092 H   0  0  0  0  0  0  0  0  0  0  0  0
   64.0390   33.3750   49.2510 C   0  0  0  0  0  0  0  0  0  0  0  0
   65.3170   33.3860   50.0420 C   0  0  0  0  0  0  0  0  0  0  0  0
   65.0830   33.3840   51.1168 H   0  0  0  0  0  0  0  0  0  0  0  0
   65.9094   32.4929   49.7940 H   0  0  0  0  0  0  0  0  0  0  0  0
   65.8939   34.2891   49.7940 H   0  0  0  0  0  0  0  0  0  0  0  0
   59.8570   31.6000   52.5630 N   0  0  0  0  0  0  0  0  0  0  0  0
   60.4070   30.4010   52.0800 N   0  0  0  0  0  0  0  0  0  0  0  0
   61.0250   30.2820   50.7970 C   0  0  0  0  0  0  0  0  0  0  0  0
   62.2730   30.4400   50.6880 O   0  0  0  0  0  0  0  0  0  0  0  0
   60.2110   29.9340   49.6090 C   0  0  0  0  0  0  0  0  0  0  0  0
   59.6780   30.9460   48.7880 C   0  0  0  0  0  0  0  0  0  0  0  0
   59.8697   32.0022   49.0281 H   0  0  0  0  0  0  0  0  0  0  0  0
   58.9070   30.6170   47.6700 C   0  0  0  0  0  0  0  0  0  0  0  0
   58.4975   31.4139   47.0318 H   0  0  0  0  0  0  0  0  0  0  0  0
   58.6550   29.2770   47.3610 C   0  0  0  0  0  0  0  0  0  0  0  0
   57.9100   28.9630   46.2710 F   0  0  0  0  0  0  0  0  0  0  0  0
   59.1780   28.2640   48.1670 C   0  0  0  0  0  0  0  0  0  0  0  0
   58.9792   27.2102   47.9221 H   0  0  0  0  0  0  0  0  0  0  0  0
   59.9540   28.5860   49.2850 C   0  0  0  0  0  0  0  0  0  0  0  0
   60.3659   27.7837   49.9147 H   0  0  0  0  0  0  0  0  0  0  0  0
  1  2  1  0
  2  3  1  0
  3  4  1  0
  4  5  2  0
  5  6  1  0
  6  7  2  0
  6  8  1  0
  8  9  1  0
  8 10  1  0
  8 11  1  0
 11 12  2  0
 12 13  1  0
 12 14  1  0
 14 15  1  0
 14 16  2  0
 16 17  1  0
 16 18  1  0
 18 19  1  0
 18 20  2  0
 20 21  1  0
  4 22  1  0
 22 23  1  0
 23 24  1  0
 24 25  1  0
 24 26  1  0
 24 27  1  0
 27 28  2  0
 28 29  1  0
 29 30  2  0
 30 31  1  0
 31 32  1  0
 32 33  1  0
 32 34  1  0
 32 35  1  0
 35 36  2  0
 35 37  1  0
 37 38  1  0
 37 39  1  0
 39 40  2  0
 40 41  1  0
 41 42  1  0
 41 43  1  0
 41 44  1  0
 40 45  1  0
 45 46  1  0
 45 47  2  0
 47 48  1  0
 47 49  1  0
 49 50  1  0
 49 51  2  0
 51 52  1  0
 52 53  1  0
 52 54  1  0
 52 55  1  0
 30 56  1  0
 56 57  1  0
 57 58  1  0
 58 59  2  0
 58 60  1  0
 60 61  2  0
 61 62  1  0
 61 63  1  0
 63 64  1  0
 63 65  2  0
 65 66  1  0
 65 67  1  0
 67 68  1  0
 67 69  2  0
 69 70  1  0
 23  2  2  0
 56 27  1  0
 69 60  1  0
 20 11  1  0
 51 39  1  0
M  CHG  3  17  -1  22  -1  57  -1
M  END
>  <UniqueID>  (62) 
57

>  <SMILES>  (62) 
Cc1cccc(C)c1NC(=O)CSc1nnc(Cc2cs/c(=N\C(=O)Cc3ccc([O-])cc3)[n-]2)n1[N-]C(=O)c1ccc(F)cc1

>  <Energy>  (62) 
148.4013539344067

>  <Genealogy>  (62) 
Cc1cccc(C)c1NC(=O)CSc1nnc(Cc2csc(=NC(=O)Cc3ccc([O-])cc3)[n-]2)n1[N-]C(=O)c1ccc(F)cc1 (protonated)
Cc1cccc(C)c1NC(=O)CSc1nnc(Cc2cs/c(=N\C(=O)Cc3ccc([O-])cc3)[n-]2)n1[N-]C(=O)c1ccc(F)cc1 (cis-trans isomerization)
Cc1cccc(C)c1NC(=O)CSc1nnc(Cc2cs/c(=N\C(=O)Cc3ccc([O-])cc3)[n-]2)n1[N-]C(=O)c1ccc(F)cc1 (3D coordinates assigned)
Cc1cccc(C)c1NC(=O)CSc1nnc(Cc2cs/c(=N\C(=O)Cc3ccc([O-])cc3)[n-]2)n1[N-]C(=O)c1ccc(F)cc1 (optimized conformer: 148.4013539344067 kcal/mol)

>  <smiles>  (62) 
Cc1cccc(C)c1NC(=O)CSc1nnc(Cc2csc(=NC(=O)Cc3ccc(O)cc3)[nH]2)n1NC(=O)c1ccc(F)cc1

>  <score_type>  (62) 
oracle

>  <origin>  (62) 
adg

>  <m_score__min__energy>  (62) 
-16.329999999999998

>  <m_primary>  (62) 
energy

$$$$
62:0
     RDKit          3D

 54 56  0  0  0  0  0  0  0  0999 V2000
   54.7660   27.4480   46.4210 H   0  0  0  0  0  0  0  0  0  0  0  0
   55.1770   26.7280   45.8400 O   0  0  0  0  0  0  0  0  0  0  0  0
   56.0950   25.8140   46.3520 C   0  0  0  0  0  0  0  0  0  0  0  0
   55.7360   24.7290   47.0570 N   0  0  0  0  0  0  0  0  0  0  0  0
   56.9150   24.1130   47.2810 C   0  0  0  0  0  0  0  0  0  0  0  0
   57.0050   23.0320   47.9180 O   0  0  0  0  0  0  0  0  0  0  0  0
   57.9900   24.7410   46.7600 N   0  0  0  0  0  0  0  0  0  0  0  0
   57.4650   25.8390   46.1900 C   0  0  0  0  0  0  0  0  0  0  0  0
   58.2640   26.8120   45.4240 C   0  0  0  0  0  0  0  0  0  0  0  0
   58.5208   26.5574   44.3852 H   0  0  0  0  0  0  0  0  0  0  0  0
   58.7020   27.9910   45.9060 C   0  0  0  0  0  0  0  0  0  0  0  0
   59.5420   28.0710   47.0440 C   0  0  0  0  0  0  0  0  0  0  0  0
   59.8337   27.1873   47.6306 H   0  0  0  0  0  0  0  0  0  0  0  0
   59.9670   29.3530   47.3590 C   0  0  0  0  0  0  0  0  0  0  0  0
   60.8090   29.7180   48.5160 C   0  0  0  0  0  0  0  0  0  0  0  0
   60.9040   28.9080   49.4770 O   0  0  0  0  0  0  0  0  0  0  0  0
   61.4990   30.9790   48.5870 N   0  0  0  0  0  0  0  0  0  0  0  0
   62.1360   31.5610   47.3950 C   0  0  0  0  0  0  0  0  0  0  0  0
   62.2922   30.7722   46.6444 H   0  0  0  0  0  0  0  0  0  0  0  0
   61.4824   32.3448   46.9845 H   0  0  0  0  0  0  0  0  0  0  0  0
   63.4870   32.1800   47.7680 C   0  0  0  0  0  0  0  0  0  0  0  0
   64.1587   31.3800   48.1126 H   0  0  0  0  0  0  0  0  0  0  0  0
   63.8833   32.6827   46.8734 H   0  0  0  0  0  0  0  0  0  0  0  0
   63.3630   33.2370   48.8840 C   0  0  0  0  0  0  0  0  0  0  0  0
   64.2410   33.1520   49.5412 H   0  0  0  0  0  0  0  0  0  0  0  0
   63.2998   34.2180   48.3904 H   0  0  0  0  0  0  0  0  0  0  0  0
   62.0960   33.0860   49.7450 C   0  0  0  0  0  0  0  0  0  0  0  0
   62.2929   33.5054   50.7427 H   0  0  0  0  0  0  0  0  0  0  0  0
   61.2780   33.6220   49.2415 H   0  0  0  0  0  0  0  0  0  0  0  0
   61.6760   31.6200   49.8990 C   0  0  0  0  0  0  0  0  0  0  0  0
   62.4532   31.0807   50.4603 H   0  0  0  0  0  0  0  0  0  0  0  0
   60.7169   31.5861   50.4365 H   0  0  0  0  0  0  0  0  0  0  0  0
   59.2860   30.4060   46.2520 S   0  0  0  0  0  0  0  0  0  0  0  0
   58.4520   29.2670   45.3310 C   0  0  0  0  0  0  0  0  0  0  0  0
   57.6790   29.6670   44.3000 C   0  0  0  0  0  0  0  0  0  0  0  0
   57.9212   29.2174   43.3257 H   0  0  0  0  0  0  0  0  0  0  0  0
   56.5280   30.6450   44.2950 C   0  0  0  0  0  0  0  0  0  0  0  0
   55.9672   30.5326   45.2346 H   0  0  0  0  0  0  0  0  0  0  0  0
   55.9041   30.4180   43.4179 H   0  0  0  0  0  0  0  0  0  0  0  0
   56.9730   32.0560   44.1740 N   0  0  0  0  0  0  0  0  0  0  0  0
   58.1280   32.1860   43.2490 C   0  0  0  0  0  0  0  0  0  0  0  0
   58.8524   31.3847   43.4567 H   0  0  0  0  0  0  0  0  0  0  0  0
   58.6016   33.1672   43.4002 H   0  0  0  0  0  0  0  0  0  0  0  0
   57.6560   32.0770   41.8020 C   0  0  0  0  0  0  0  0  0  0  0  0
   56.5844   31.8295   41.7835 H   0  0  0  0  0  0  0  0  0  0  0  0
   57.8196   33.0366   41.2897 H   0  0  0  0  0  0  0  0  0  0  0  0
   58.2238   31.2863   41.2897 H   0  0  0  0  0  0  0  0  0  0  0  0
   57.3300   32.5970   45.5120 C   0  0  0  0  0  0  0  0  0  0  0  0
   56.4069   32.7757   46.0829 H   0  0  0  0  0  0  0  0  0  0  0  0
   57.9702   31.8616   46.0212 H   0  0  0  0  0  0  0  0  0  0  0  0
   58.1040   33.9070   45.3990 C   0  0  0  0  0  0  0  0  0  0  0  0
   58.3291   34.2879   46.4061 H   0  0  0  0  0  0  0  0  0  0  0  0
   59.0437   33.7319   44.8547 H   0  0  0  0  0  0  0  0  0  0  0  0
   57.4972   34.6456   44.8547 H   0  0  0  0  0  0  0  0  0  0  0  0
  1  2  1  0
  2  3  1  0
  3  4  1  0
  4  5  1  0
  5  6  2  0
  5  7  1  0
  7  8  1  0
  8  9  1  0
  9 10  1  0
  9 11  2  0
 11 12  1  0
 12 13  1  0
 12 14  2  0
 14 15  1  0
 15 16  2  0
 15 17  1  0
 17 18  1  0
 18 19  1  0
 18 20  1  0
 18 21  1  0
 21 22  1  0
 21 23  1  0
 21 24  1  0
 24 25  1  0
 24 26  1  0
 24 27  1  0
 27 28  1  0
 27 29  1  0
 27 30  1  0
 30 31  1  0
 30 32  1  0
 14 33  1  0
 33 34  1  0
 34 35  2  0
 35 36  1  0
 35 37  1  0
 37 38  1  0
 37 39  1  0
 37 40  1  0
 40 41  1  0
 41 42  1  0
 41 43  1  0
 41 44  1  0
 44 45  1  0
 44 46  1  0
 44 47  1  0
 40 48  1  0
 48 49  1  0
 48 50  1  0
 48 51  1  0
 51 52  1  0
 51 53  1  0
 51 54  1  0
  8  3  2  0
 34 11  1  0
 30 17  1  0
M  CHG  2   4  -1   7  -1
M  END
>  <UniqueID>  (63) 
58

>  <SMILES>  (63) 
CCN(CC)C/C=c1/sc(C(=O)N2CCCCC2)c/c1=C\c1[n-]c(=O)[n-]c1O

>  <Energy>  (63) 
128.07097275450997

>  <Genealogy>  (63) 
CCN(CC)CC=c1sc(C(=O)N2CCCCC2)cc1=Cc1[n-]c(=O)[n-]c1O (protonated)
CCN(CC)C/C=c1/sc(C(=O)N2CCCCC2)c/c1=C\c1[n-]c(=O)[n-]c1O (cis-trans isomerization)
CCN(CC)C/C=c1/sc(C(=O)N2CCCCC2)c/c1=C\c1[n-]c(=O)[n-]c1O (3D coordinates assigned)
CCN(CC)C/C=c1/sc(C(=O)N2CCCCC2)c/c1=C\c1[n-]c(=O)[n-]c1O (nonaromatic ring conformer: 128.07097275450997 kcal/mol)

>  <smiles>  (63) 
CCN(CC)CC=c1sc(C(=O)N2CCCCC2)cc1=Cc1[nH]c(=O)[nH]c1O

>  <score_type>  (63) 
oracle

>  <origin>  (63) 
adg

>  <m_score__min__energy>  (63) 
-13.27

>  <m_primary>  (63) 
energy

$$$$
63:0
     RDKit          3D

 32 33  0  0  0  0  0  0  0  0999 V2000
   55.3730   25.1540   45.6620 C   0  0  0  0  0  0  0  0  0  0  0  0
   55.3070   26.5340   46.0010 O   0  0  0  0  0  0  0  0  0  0  0  0
   56.2910   27.4530   45.6250 C   0  0  0  0  0  0  0  0  0  0  0  0
   57.6380   27.0960   45.7220 C   0  0  0  0  0  0  0  0  0  0  0  0
   58.6050   28.0190   45.3260 C   0  0  0  0  0  0  0  0  0  0  0  0
   59.9570   27.6660   45.3760 O   0  0  0  0  0  0  0  0  0  0  0  0
   61.0020   28.5770   45.0550 C   0  0  0  0  0  0  0  0  0  0  0  0
   58.2200   29.2470   44.8840 N   0  0  0  0  0  0  0  0  0  0  0  0
   56.9050   29.5910   44.8070 C   0  0  0  0  0  0  0  0  0  0  0  0
   56.5420   30.7580   44.3650 N   0  0  0  0  0  0  0  0  0  0  0  0
   57.3640   31.6100   43.5560 C   0  0  0  0  0  0  0  0  0  0  0  0
   57.0960   31.6730   41.9450 S   0  0  0  0  0  0  0  0  0  0  0  0
   58.3460   32.4770   44.1420 N   0  0  0  0  0  0  0  0  0  0  0  0
   58.1330   33.1530   45.3910 C   0  0  0  0  0  0  0  0  0  0  0  0
   57.0030   33.1160   45.9500 O   0  0  0  0  0  0  0  0  0  0  0  0
   59.2540   33.9470   46.0000 C   0  0  0  0  0  0  0  0  0  0  0  0
   59.5210   33.5950   47.4560 C   0  0  0  0  0  0  0  0  0  0  0  0
   58.8900   34.9310   47.1060 C   0  0  0  0  0  0  0  0  0  0  0  0
   55.9540   28.6890   45.1640 N   0  0  0  0  0  0  0  0  0  0  0  0
   55.4018   24.5514   46.5818 H   0  0  0  0  0  0  0  0  0  0  0  0
   54.4870   24.8788   45.0710 H   0  0  0  0  0  0  0  0  0  0  0  0
   56.2812   24.9646   45.0710 H   0  0  0  0  0  0  0  0  0  0  0  0
   57.9300   26.1063   46.1032 H   0  0  0  0  0  0  0  0  0  0  0  0
   61.4476   28.9655   45.9827 H   0  0  0  0  0  0  0  0  0  0  0  0
   61.7733   28.0579   44.4671 H   0  0  0  0  0  0  0  0  0  0  0  0
   60.5929   29.4119   44.4671 H   0  0  0  0  0  0  0  0  0  0  0  0
   59.1910   32.7280   43.5810 H   0  0  0  0  0  0  0  0  0  0  0  0
   59.8411   34.0299   45.0735 H   0  0  0  0  0  0  0  0  0  0  0  0
   58.9216   32.8174   47.9521 H   0  0  0  0  0  0  0  0  0  0  0  0
   60.4054   33.2802   48.0294 H   0  0  0  0  0  0  0  0  0  0  0  0
   57.8338   35.1206   47.3478 H   0  0  0  0  0  0  0  0  0  0  0  0
   59.1279   35.9834   47.3200 H   0  0  0  0  0  0  0  0  0  0  0  0
  1  2  1  0
  2  3  1  0
  3  4  1  0
  4  5  2  0
  5  6  1  0
  6  7  1  0
  5  8  1  0
  8  9  1  0
  9 10  2  3
 10 11  1  0
 11 12  2  0
 11 13  1  0
 13 14  1  0
 14 15  2  0
 14 16  1  0
 16 17  1  0
 17 18  1  0
  9 19  1  0
 19  3  2  0
 18 16  1  0
  1 20  1  0
  1 21  1  0
  1 22  1  0
  4 23  1  0
  7 24  1  0
  7 25  1  0
  7 26  1  0
 13 27  1  0
 16 28  1  0
 17 29  1  0
 17 30  1  0
 18 31  1  0
 18 32  1  0
M  CHG  1   8  -1
M  END
>  <UniqueID>  (64) 
59

>  <SMILES>  (64) 
COc1cc(OC)[n-]c(=NC(=S)NC(=O)C2CC2)n1

>  <Energy>  (64) 
296.40449815330516

>  <Genealogy>  (64) 
COc1cc(OC)[n-]c(=NC(=S)NC(=O)C2CC2)n1 (protonated)
COc1cc(OC)[n-]c(=NC(=S)NC(=O)C2CC2)n1 (3D coordinates assigned)
COc1cc(OC)[n-]c(=NC(=S)NC(=O)C2CC2)n1 (nonaromatic ring conformer: 296.40449815330516 kcal/mol)

>  <smiles>  (64) 
COc1cc(OC)[nH]c(=NC(=S)NC(=O)C2CC2)n1

>  <score_type>  (64) 
oracle

>  <origin>  (64) 
adg

>  <m_score__min__energy>  (64) 
-8.6400000000000006

>  <m_primary>  (64) 
energy

$$$$
64:0
     RDKit          3D

 29 31  0  0  0  0  0  0  0  0999 V2000
   55.7750   23.6760   46.6680 H   0  0  0  0  0  0  0  0  0  0  0  0
   55.5610   24.6010   47.0210 O   0  0  0  0  0  0  0  0  0  0  0  0
   56.2200   25.7190   46.5210 C   0  0  0  0  0  0  0  0  0  0  0  0
   55.5820   26.7790   45.9880 N   0  0  0  0  0  0  0  0  0  0  0  0
   56.5670   27.6280   45.6290 C   0  0  0  0  0  0  0  0  0  0  0  0
   56.3180   28.9310   44.9990 C   0  0  0  0  0  0  0  0  0  0  0  0
   55.1350   29.3570   44.8930 O   0  0  0  0  0  0  0  0  0  0  0  0
   57.4290   29.7000   44.5120 N   0  0  0  0  0  0  0  0  0  0  0  0
   58.1560   30.5210   45.2090 C   0  0  0  0  0  0  0  0  0  0  0  0
   57.7300   31.7190   45.6680 N   0  0  0  0  0  0  0  0  0  0  0  0
   58.7020   32.3640   46.3670 C   0  0  0  0  0  0  0  0  0  0  0  0
   58.5450   33.3543   46.8194 H   0  0  0  0  0  0  0  0  0  0  0  0
   59.9170   31.6760   46.4690 C   0  0  0  0  0  0  0  0  0  0  0  0
   61.1470   32.1330   47.1660 C   0  0  0  0  0  0  0  0  0  0  0  0
   61.7430   31.3280   48.1570 C   0  0  0  0  0  0  0  0  0  0  0  0
   61.2940   30.3570   48.4131 H   0  0  0  0  0  0  0  0  0  0  0  0
   62.9000   31.7520   48.8180 C   0  0  0  0  0  0  0  0  0  0  0  0
   63.3564   31.1142   49.5893 H   0  0  0  0  0  0  0  0  0  0  0  0
   63.4770   32.9830   48.5010 C   0  0  0  0  0  0  0  0  0  0  0  0
   64.3885   33.3142   49.0200 H   0  0  0  0  0  0  0  0  0  0  0  0
   62.8950   33.7930   47.5240 C   0  0  0  0  0  0  0  0  0  0  0  0
   63.3486   34.7639   47.2758 H   0  0  0  0  0  0  0  0  0  0  0  0
   61.7380   33.3750   46.8600 C   0  0  0  0  0  0  0  0  0  0  0  0
   61.2855   34.0206   46.0928 H   0  0  0  0  0  0  0  0  0  0  0  0
   59.7450   30.2110   45.6440 S   0  0  0  0  0  0  0  0  0  0  0  0
   57.8130   27.1100   45.9360 C   0  0  0  0  0  0  0  0  0  0  0  0
   58.7884   27.5860   45.7567 H   0  0  0  0  0  0  0  0  0  0  0  0
   57.5870   25.8790   46.5110 C   0  0  0  0  0  0  0  0  0  0  0  0
   58.3417   25.1712   46.8844 H   0  0  0  0  0  0  0  0  0  0  0  0
  1  2  1  0
  2  3  1  0
  3  4  1  0
  4  5  1  0
  5  6  1  0
  6  7  2  0
  6  8  1  0
  8  9  2  0
  9 10  1  0
 10 11  1  0
 11 12  1  0
 11 13  2  0
 13 14  1  0
 14 15  2  0
 15 16  1  0
 15 17  1  0
 17 18  1  0
 17 19  2  0
 19 20  1  0
 19 21  1  0
 21 22  1  0
 21 23  2  0
 23 24  1  0
 13 25  1  0
  5 26  2  0
 26 27  1  0
 26 28  1  0
 28 29  1  0
 28  3  2  0
 25  9  1  0
 23 14  1  0
M  CHG  2   4  -1  10  -1
M  END
>  <UniqueID>  (65) 
60

>  <SMILES>  (65) 
O=C(/N=c1\[n-]cc(-c2ccccc2)s1)c1ccc(O)[n-]1

>  <Energy>  (65) 
89.68342219232863

>  <Genealogy>  (65) 
O=C(N=c1[n-]cc(-c2ccccc2)s1)c1ccc(O)[n-]1 (protonated)
O=C(/N=c1\[n-]cc(-c2ccccc2)s1)c1ccc(O)[n-]1 (cis-trans isomerization)
O=C(/N=c1\[n-]cc(-c2ccccc2)s1)c1ccc(O)[n-]1 (3D coordinates assigned)
O=C(/N=c1\[n-]cc(-c2ccccc2)s1)c1ccc(O)[n-]1 (optimized conformer: 89.68342219232863 kcal/mol)

>  <smiles>  (65) 
O=C(N=c1[nH]cc(-c2ccccc2)s1)c1ccc(O)[nH]1

>  <score_type>  (65) 
oracle

>  <origin>  (65) 
adg

>  <m_score__min__energy>  (65) 
-11.859999999999999

>  <m_primary>  (65) 
energy

$$$$
65:0
     RDKit          3D

 43 44  0  0  0  0  0  0  0  0999 V2000
   55.1420   28.6220   45.6230 H   0  0  0  0  0  0  0  0  0  0  0  0
   55.1170   29.3500   44.8750 N   0  0  0  0  0  0  0  0  0  0  0  0
   56.2410   29.5640   44.0220 C   0  0  0  0  0  0  0  0  0  0  0  0
   56.0410   29.9730   42.8480 O   0  0  0  0  0  0  0  0  0  0  0  0
   57.6230   29.3160   44.5220 C   0  0  0  0  0  0  0  0  0  0  0  0
   58.2530   28.0930   44.2160 C   0  0  0  0  0  0  0  0  0  0  0  0
   57.7188   27.3425   43.6148 H   0  0  0  0  0  0  0  0  0  0  0  0
   59.5460   27.8220   44.6660 C   0  0  0  0  0  0  0  0  0  0  0  0
   60.0199   26.8586   44.4268 H   0  0  0  0  0  0  0  0  0  0  0  0
   60.2380   28.7700   45.4180 C   0  0  0  0  0  0  0  0  0  0  0  0
   61.2597   28.5569   45.7654 H   0  0  0  0  0  0  0  0  0  0  0  0
   59.6360   29.9880   45.7300 C   0  0  0  0  0  0  0  0  0  0  0  0
   60.1936   30.7389   46.3090 H   0  0  0  0  0  0  0  0  0  0  0  0
   58.3210   30.2660   45.3110 C   0  0  0  0  0  0  0  0  0  0  0  0
   57.7450   31.5550   45.5830 N   0  0  0  0  0  0  0  0  0  0  0  0
   58.3800   32.6480   45.9040 C   0  0  0  0  0  0  0  0  0  0  0  0
   58.6300   33.7320   44.9280 C   0  0  0  0  0  0  0  0  0  0  0  0
   58.4240   33.5610   43.8611 H   0  0  0  0  0  0  0  0  0  0  0  0
   59.1010   34.9110   45.3260 C   0  0  0  0  0  0  0  0  0  0  0  0
   59.3479   35.6755   44.5746 H   0  0  0  0  0  0  0  0  0  0  0  0
   59.3010   35.2160   46.7780 C   0  0  0  0  0  0  0  0  0  0  0  0
   58.3642   35.6146   47.1945 H   0  0  0  0  0  0  0  0  0  0  0  0
   60.1096   35.9556   46.8733 H   0  0  0  0  0  0  0  0  0  0  0  0
   59.6820   34.0050   47.5220 N   0  0  0  0  0  0  0  0  0  0  0  0
   60.5270   34.1100   48.6840 C   0  0  0  0  0  0  0  0  0  0  0  0
   60.0180   34.1000   49.8380 O   0  0  0  0  0  0  0  0  0  0  0  0
   61.9180   34.2190   48.5180 O   0  0  0  0  0  0  0  0  0  0  0  0
   62.7680   33.3050   47.8090 C   0  0  0  0  0  0  0  0  0  0  0  0
   62.0230   31.9630   47.7300 C   0  0  0  0  0  0  0  0  0  0  0  0
   61.8194   31.5962   48.7469 H   0  0  0  0  0  0  0  0  0  0  0  0
   61.0729   32.1021   47.1933 H   0  0  0  0  0  0  0  0  0  0  0  0
   62.6435   31.2302   47.1933 H   0  0  0  0  0  0  0  0  0  0  0  0
   63.0360   33.8110   46.3790 C   0  0  0  0  0  0  0  0  0  0  0  0
   63.5504   34.7823   46.4241 H   0  0  0  0  0  0  0  0  0  0  0  0
   63.6682   33.0857   45.8459 H   0  0  0  0  0  0  0  0  0  0  0  0
   62.0808   33.9264   45.8459 H   0  0  0  0  0  0  0  0  0  0  0  0
   64.0920   33.0960   48.5700 C   0  0  0  0  0  0  0  0  0  0  0  0
   63.9012   33.1261   49.6529 H   0  0  0  0  0  0  0  0  0  0  0  0
   64.5198   32.1192   48.3001 H   0  0  0  0  0  0  0  0  0  0  0  0
   64.7999   33.8935   48.3001 H   0  0  0  0  0  0  0  0  0  0  0  0
   58.9590   32.7430   47.2920 C   0  0  0  0  0  0  0  0  0  0  0  0
   58.1386   32.6697   48.0211 H   0  0  0  0  0  0  0  0  0  0  0  0
   59.6810   31.9212   47.4073 H   0  0  0  0  0  0  0  0  0  0  0  0
  1  2  1  0
  2  3  1  0
  3  4  2  0
  3  5  1  0
  5  6  2  0
  6  7  1  0
  6  8  1  0
  8  9  1  0
  8 10  2  0
 10 11  1  0
 10 12  1  0
 12 13  1  0
 12 14  2  0
 14 15  1  0
 15 16  2  0
 16 17  1  0
 17 18  1  0
 17 19  2  0
 19 20  1  0
 19 21  1  0
 21 22  1  0
 21 23  1  0
 21 24  1  0
 24 25  1  0
 25 26  2  0
 25 27  1  0
 27 28  1  0
 28 29  1  0
 29 30  1  0
 29 31  1  0
 29 32  1  0
 28 33  1  0
 33 34  1  0
 33 35  1  0
 33 36  1  0
 28 37  1  0
 37 38  1  0
 37 39  1  0
 37 40  1  0
 24 41  1  0
 41 42  1  0
 41 43  1  0
 14  5  1  0
 41 16  1  0
M  CHG  1   2  -1
M  END
>  <UniqueID>  (66) 
61

>  <SMILES>  (66) 
CC(C)(C)OC(=O)N1CC=C/C(=N\c2ccccc2C([NH-])=O)C1

>  <Energy>  (66) 
48.51919450809063

>  <Genealogy>  (66) 
CC(C)(C)OC(=O)N1CC=CC(=Nc2ccccc2C([NH-])=O)C1 (protonated)
CC(C)(C)OC(=O)N1CC=C/C(=N\c2ccccc2C([NH-])=O)C1 (cis-trans isomerization)
CC(C)(C)OC(=O)N1CC=C/C(=N\c2ccccc2C([NH-])=O)C1 (3D coordinates assigned)
CC(C)(C)OC(=O)N1CC=C/C(=N\c2ccccc2C([NH-])=O)C1 (nonaromatic ring conformer: 48.51919450809063 kcal/mol)

>  <smiles>  (66) 
CC(C)(C)OC(=O)N1CC=CC(=Nc2ccccc2C(N)=O)C1

>  <score_type>  (66) 
oracle

>  <origin>  (66) 
adg

>  <m_score__min__energy>  (66) 
-11.58

>  <m_primary>  (66) 
energy

$$$$
66:0
     RDKit          3D

 49 52  0  0  0  0  0  0  0  0999 V2000
   63.1590   30.9020   50.6410 C   0  0  0  0  0  0  0  0  0  0  0  0
   62.4600   30.7970   49.4060 O   0  0  0  0  0  0  0  0  0  0  0  0
   62.4140   31.8020   48.4270 C   0  0  0  0  0  0  0  0  0  0  0  0
   63.4730   32.7160   48.2540 C   0  0  0  0  0  0  0  0  0  0  0  0
   63.3920   33.7210   47.2890 C   0  0  0  0  0  0  0  0  0  0  0  0
   62.2630   33.8260   46.4800 C   0  0  0  0  0  0  0  0  0  0  0  0
   61.2130   32.9190   46.6270 C   0  0  0  0  0  0  0  0  0  0  0  0
   61.2750   31.9020   47.5960 C   0  0  0  0  0  0  0  0  0  0  0  0
   60.1260   30.9280   47.7140 C   0  0  0  0  0  0  0  0  0  0  0  0
   58.7740   31.5670   47.3770 C   0  0  0  0  0  0  0  0  0  0  0  0
   58.4660   31.4600   45.9510 N   0  0  0  0  0  0  0  0  0  0  0  0
   57.5190   30.5820   45.3220 C   0  0  0  0  0  0  0  0  0  0  0  0
   56.6110   31.0940   44.6150 O   0  0  0  0  0  0  0  0  0  0  0  0
   57.5620   29.1100   45.4760 C   0  0  0  0  0  0  0  0  0  0  0  0
   58.7730   28.4590   45.7510 C   0  0  0  0  0  0  0  0  0  0  0  0
   58.8220   27.0670   45.8650 C   0  0  0  0  0  0  0  0  0  0  0  0
   57.6520   26.2990   45.7410 C   0  0  0  0  0  0  0  0  0  0  0  0
   57.7060   24.8180   45.8280 C   0  0  0  0  0  0  0  0  0  0  0  0
   58.8650   24.1550   45.5600 N   0  0  0  0  0  0  0  0  0  0  0  0
   58.9440   22.8000   45.6210 C   0  0  0  0  0  0  0  0  0  0  0  0
   60.0380   22.2330   45.3620 O   0  0  0  0  0  0  0  0  0  0  0  0
   57.8070   22.0520   45.9670 C   0  0  0  0  0  0  0  0  0  0  0  0
   57.8190   20.6490   46.0460 C   0  0  0  0  0  0  0  0  0  0  0  0
   56.6540   19.9580   46.3960 C   0  0  0  0  0  0  0  0  0  0  0  0
   55.4750   20.6590   46.6680 C   0  0  0  0  0  0  0  0  0  0  0  0
   55.4540   22.0550   46.5930 C   0  0  0  0  0  0  0  0  0  0  0  0
   56.6150   22.7540   46.2430 C   0  0  0  0  0  0  0  0  0  0  0  0
   56.5940   24.1100   46.1660 N   0  0  0  0  0  0  0  0  0  0  0  0
   56.4280   26.9580   45.5370 C   0  0  0  0  0  0  0  0  0  0  0  0
   56.3780   28.3500   45.4150 C   0  0  0  0  0  0  0  0  0  0  0  0
   55.1470   28.9680   45.2140 O   0  0  0  0  0  0  0  0  0  0  0  0
   62.4490   30.7953   51.4744 H   0  0  0  0  0  0  0  0  0  0  0  0
   63.9176   30.1077   50.7017 H   0  0  0  0  0  0  0  0  0  0  0  0
   63.6508   31.8841   50.7017 H   0  0  0  0  0  0  0  0  0  0  0  0
   64.3707   32.6365   48.8848 H   0  0  0  0  0  0  0  0  0  0  0  0
   64.2222   34.4323   47.1670 H   0  0  0  0  0  0  0  0  0  0  0  0
   62.1992   34.6238   45.7254 H   0  0  0  0  0  0  0  0  0  0  0  0
   60.3282   33.0003   45.9786 H   0  0  0  0  0  0  0  0  0  0  0  0
   60.3018   30.0905   47.0228 H   0  0  0  0  0  0  0  0  0  0  0  0
   60.0828   30.5892   48.7596 H   0  0  0  0  0  0  0  0  0  0  0  0
   57.9859   31.0578   47.9512 H   0  0  0  0  0  0  0  0  0  0  0  0
   58.8244   32.6344   47.6380 H   0  0  0  0  0  0  0  0  0  0  0  0
   59.6926   29.0491   45.8781 H   0  0  0  0  0  0  0  0  0  0  0  0
   59.7843   26.5686   46.0533 H   0  0  0  0  0  0  0  0  0  0  0  0
   58.7445   20.0941   45.8326 H   0  0  0  0  0  0  0  0  0  0  0  0
   56.6655   18.8598   46.4574 H   0  0  0  0  0  0  0  0  0  0  0  0
   54.5616   20.1106   46.9417 H   0  0  0  0  0  0  0  0  0  0  0  0
   54.5254   22.6037   46.8090 H   0  0  0  0  0  0  0  0  0  0  0  0
   55.4990   26.3725   45.4726 H   0  0  0  0  0  0  0  0  0  0  0  0
  1  2  1  0
  2  3  1  0
  3  4  2  0
  4  5  1  0
  5  6  2  0
  6  7  1  0
  7  8  2  0
  8  9  1  0
  9 10  1  0
 10 11  1  0
 11 12  1  0
 12 13  2  0
 12 14  1  0
 14 15  2  0
 15 16  1  0
 16 17  2  0
 17 18  1  0
 18 19  2  0
 19 20  1  0
 20 21  2  0
 20 22  1  0
 22 23  2  0
 23 24  1  0
 24 25  2  0
 25 26  1  0
 26 27  2  0
 27 28  1  0
 17 29  1  0
 29 30  2  0
 30 31  1  0
  8  3  1  0
 30 14  1  0
 28 18  1  0
 27 22  1  0
  1 32  1  0
  1 33  1  0
  1 34  1  0
  4 35  1  0
  5 36  1  0
  6 37  1  0
  7 38  1  0
  9 39  1  0
  9 40  1  0
 10 41  1  0
 10 42  1  0
 15 43  1  0
 16 44  1  0
 23 45  1  0
 24 46  1  0
 25 47  1  0
 26 48  1  0
 29 49  1  0
M  CHG  3  11  -1  28  -1  31  -1
M  END
>  <UniqueID>  (67) 
62

>  <SMILES>  (67) 
COc1ccccc1CC[N-]C(=O)c1ccc(-c2nc(=O)c3ccccc3[n-]2)cc1[O-]

>  <Energy>  (67) 
59.58911160216813

>  <Genealogy>  (67) 
COc1ccccc1CC[N-]C(=O)c1ccc(-c2nc(=O)c3ccccc3[n-]2)cc1[O-] (protonated)
COc1ccccc1CC[N-]C(=O)c1ccc(-c2nc(=O)c3ccccc3[n-]2)cc1[O-] (3D coordinates assigned)
COc1ccccc1CC[N-]C(=O)c1ccc(-c2nc(=O)c3ccccc3[n-]2)cc1[O-] (optimized conformer: 59.58911160216813 kcal/mol)

>  <smiles>  (67) 
COc1ccccc1CCNC(=O)c1ccc(-c2nc(=O)c3ccccc3[nH]2)cc1O

>  <score_type>  (67) 
oracle

>  <origin>  (67) 
adg

>  <m_score__min__energy>  (67) 
-14.529999999999999

>  <m_primary>  (67) 
energy

$$$$
67:0
     RDKit          3D

 40 43  0  0  0  0  0  0  0  0999 V2000
   59.8910   30.1691   48.1103 H   0  0  0  0  0  0  0  0  0  0  0  0
   59.5420   29.3960   47.4100 C   0  0  0  0  0  0  0  0  0  0  0  0
   59.5904   28.3344   47.6940 H   0  0  0  0  0  0  0  0  0  0  0  0
   59.0570   29.7480   46.2090 C   0  0  0  0  0  0  0  0  0  0  0  0
   58.5780   28.8870   45.2160 C   0  0  0  0  0  0  0  0  0  0  0  0
   58.4550   27.5480   45.2890 C   0  0  0  0  0  0  0  0  0  0  0  0
   59.3266   26.9341   45.0179 H   0  0  0  0  0  0  0  0  0  0  0  0
   57.2240   26.8540   45.7100 C   0  0  0  0  0  0  0  0  0  0  0  0
   57.2080   25.5860   46.1550 N   0  0  0  0  0  0  0  0  0  0  0  0
   55.8940   25.3340   46.3410 C   0  0  0  0  0  0  0  0  0  0  0  0
   55.4700   24.2310   46.7730 O   0  0  0  0  0  0  0  0  0  0  0  0
   55.0710   26.3540   46.0170 N   0  0  0  0  0  0  0  0  0  0  0  0
   55.9260   27.3050   45.6070 C   0  0  0  0  0  0  0  0  0  0  0  0
   55.5220   28.5360   45.1070 O   0  0  0  0  0  0  0  0  0  0  0  0
   58.1950   29.6950   44.1510 C   0  0  0  0  0  0  0  0  0  0  0  0
   57.7622   29.3622   43.1961 H   0  0  0  0  0  0  0  0  0  0  0  0
   58.4640   30.9970   44.5260 C   0  0  0  0  0  0  0  0  0  0  0  0
   58.1700   32.2100   43.6980 C   0  0  0  0  0  0  0  0  0  0  0  0
   57.9630   33.0641   44.3595 H   0  0  0  0  0  0  0  0  0  0  0  0
   59.0384   32.4399   43.0632 H   0  0  0  0  0  0  0  0  0  0  0  0
   57.2927   32.0168   43.0632 H   0  0  0  0  0  0  0  0  0  0  0  0
   58.9800   31.0290   45.7730 N   0  0  0  0  0  0  0  0  0  0  0  0
   59.3600   32.2140   46.4900 C   0  0  0  0  0  0  0  0  0  0  0  0
   60.6570   32.3120   47.0130 C   0  0  0  0  0  0  0  0  0  0  0  0
   61.3683   31.4865   46.8631 H   0  0  0  0  0  0  0  0  0  0  0  0
   61.0570   33.4530   47.7260 C   0  0  0  0  0  0  0  0  0  0  0  0
   62.4250   33.5490   48.2770 C   0  0  0  0  0  0  0  0  0  0  0  0
   62.7240   34.0240   49.5000 N   0  0  0  0  0  0  0  0  0  0  0  0
   64.0410   33.9330   49.5860 N   0  0  0  0  0  0  0  0  0  0  0  0
   64.5280   33.4250   48.4650 N   0  0  0  0  0  0  0  0  0  0  0  0
   63.5410   33.1730   47.6220 N   0  0  0  0  0  0  0  0  0  0  0  0
   60.1420   34.5000   47.9110 C   0  0  0  0  0  0  0  0  0  0  0  0
   60.4438   35.3968   48.4720 H   0  0  0  0  0  0  0  0  0  0  0  0
   58.8490   34.4110   47.3870 C   0  0  0  0  0  0  0  0  0  0  0  0
   58.1388   35.2362   47.5442 H   0  0  0  0  0  0  0  0  0  0  0  0
   58.4500   33.2790   46.6630 C   0  0  0  0  0  0  0  0  0  0  0  0
   57.0540   33.1960   46.1110 C   0  0  0  0  0  0  0  0  0  0  0  0
   56.3334   33.1532   46.9410 H   0  0  0  0  0  0  0  0  0  0  0  0
   56.8503   34.0836   45.4940 H   0  0  0  0  0  0  0  0  0  0  0  0
   56.9569   32.2905   45.4940 H   0  0  0  0  0  0  0  0  0  0  0  0
  1  2  1  0
  2  3  1  0
  2  4  2  0
  4  5  1  0
  5  6  2  0
  6  7  1  0
  6  8  1  0
  8  9  1  0
  9 10  1  0
 10 11  2  0
 10 12  1  0
 12 13  1  0
 13 14  1  0
  5 15  1  0
 15 16  1  0
 15 17  2  0
 17 18  1  0
 18 19  1  0
 18 20  1  0
 18 21  1  0
 17 22  1  0
 22 23  1  0
 23 24  2  0
 24 25  1  0
 24 26  1  0
 26 27  1  0
 27 28  1  0
 28 29  2  0
 29 30  1  0
 30 31  1  0
 26 32  2  0
 32 33  1  0
 32 34  1  0
 34 35  1  0
 34 36  2  0
 36 37  1  0
 37 38  1  0
 37 39  1  0
 37 40  1  0
 22  4  1  0
 36 23  1  0
 13  8  2  0
 31 27  2  0
M  CHG  4   9  -1  12  -1  14  -1  30  -1
M  END
>  <UniqueID>  (68) 
63

>  <SMILES>  (68) 
C=c1/c(=C/c2[n-]c(=O)[n-]c2[O-])cc(C)n1-c1cc(-c2nn[n-]n2)ccc1C

>  <Energy>  (68) 
153.35928086262385

>  <Genealogy>  (68) 
C=c1c(=Cc2[n-]c(=O)[n-]c2[O-])cc(C)n1-c1cc(-c2nn[n-]n2)ccc1C (protonated)
C=c1/c(=C/c2[n-]c(=O)[n-]c2[O-])cc(C)n1-c1cc(-c2nn[n-]n2)ccc1C (cis-trans isomerization)
C=c1/c(=C/c2[n-]c(=O)[n-]c2[O-])cc(C)n1-c1cc(-c2nn[n-]n2)ccc1C (3D coordinates assigned)
C=c1/c(=C/c2[n-]c(=O)[n-]c2[O-])cc(C)n1-c1cc(-c2nn[n-]n2)ccc1C (optimized conformer: 153.35928086262385 kcal/mol)

>  <smiles>  (68) 
C=c1c(=Cc2[nH]c(=O)[nH]c2O)cc(C)n1-c1cc(-c2nn[nH]n2)ccc1C

>  <score_type>  (68) 
oracle

>  <origin>  (68) 
adg

>  <m_score__min__energy>  (68) 
-17.039999999999999

>  <m_primary>  (68) 
energy

$$$$
68:0
     RDKit          3D

 54 56  0  0  0  0  0  0  0  0999 V2000
   55.5470   29.7470   43.3530 C   0  0  0  0  0  0  0  0  0  0  0  0
   56.9990   29.6480   42.8980 C   0  0  0  0  0  0  0  0  0  0  0  0
   57.8870   30.3250   43.8710 N   0  0  0  0  0  0  0  0  0  0  0  0
   57.1570   30.6690   45.1110 C   0  0  0  0  0  0  0  0  0  0  0  0
   57.7700   31.8870   45.7510 C   0  0  0  0  0  0  0  0  0  0  0  0
   57.1950   33.1550   45.5780 C   0  0  0  0  0  0  0  0  0  0  0  0
   57.7680   34.2760   46.1830 C   0  0  0  0  0  0  0  0  0  0  0  0
   58.9170   34.1420   46.9640 C   0  0  0  0  0  0  0  0  0  0  0  0
   59.5010   32.8790   47.1520 C   0  0  0  0  0  0  0  0  0  0  0  0
   60.7500   32.7430   47.9830 C   0  0  0  0  0  0  0  0  0  0  0  0
   61.9300   32.5320   47.1200 N   0  0  0  0  0  0  0  0  0  0  0  0
   62.9330   31.6920   47.7990 C   0  0  0  0  0  0  0  0  0  0  0  0
   62.5330   33.8270   46.7660 C   0  0  0  0  0  0  0  0  0  0  0  0
   58.9270   31.7560   46.5360 C   0  0  0  0  0  0  0  0  0  0  0  0
   59.0770   29.5020   44.1720 C   0  0  0  0  0  0  0  0  0  0  0  0
   58.6610   28.2410   44.8640 C   0  0  0  0  0  0  0  0  0  0  0  0
   59.3380   27.6130   45.8860 C   0  0  0  0  0  0  0  0  0  0  0  0
   58.6920   26.5040   46.1660 O   0  0  0  0  0  0  0  0  0  0  0  0
   57.6540   26.4320   45.3570 C   0  0  0  0  0  0  0  0  0  0  0  0
   56.7000   25.2990   45.3610 C   0  0  0  0  0  0  0  0  0  0  0  0
   57.1820   24.0080   45.0810 C   0  0  0  0  0  0  0  0  0  0  0  0
   56.3140   22.9140   45.0620 C   0  0  0  0  0  0  0  0  0  0  0  0
   54.9560   23.0930   45.3330 C   0  0  0  0  0  0  0  0  0  0  0  0
   54.4660   24.3660   45.6310 C   0  0  0  0  0  0  0  0  0  0  0  0
   55.3300   25.4680   45.6570 C   0  0  0  0  0  0  0  0  0  0  0  0
   54.8150   26.7110   46.0070 O   0  0  0  0  0  0  0  0  0  0  0  0
   57.5990   27.4910   44.5220 N   0  0  0  0  0  0  0  0  0  0  0  0
   55.5066   29.7498   44.4523 H   0  0  0  0  0  0  0  0  0  0  0  0
   55.1046   30.6774   42.9675 H   0  0  0  0  0  0  0  0  0  0  0  0
   54.9824   28.8853   42.9675 H   0  0  0  0  0  0  0  0  0  0  0  0
   57.2844   28.5884   42.8216 H   0  0  0  0  0  0  0  0  0  0  0  0
   57.1021   30.1362   41.9177 H   0  0  0  0  0  0  0  0  0  0  0  0
   56.1044   30.8764   44.8680 H   0  0  0  0  0  0  0  0  0  0  0  0
   57.2195   29.8237   45.8121 H   0  0  0  0  0  0  0  0  0  0  0  0
   56.2895   33.2668   44.9636 H   0  0  0  0  0  0  0  0  0  0  0  0
   57.3123   35.2674   46.0435 H   0  0  0  0  0  0  0  0  0  0  0  0
   59.3667   35.0291   47.4340 H   0  0  0  0  0  0  0  0  0  0  0  0
   60.8932   33.6605   48.5727 H   0  0  0  0  0  0  0  0  0  0  0  0
   60.6390   31.8749   48.6493 H   0  0  0  0  0  0  0  0  0  0  0  0
   62.8162   31.7898   48.8884 H   0  0  0  0  0  0  0  0  0  0  0  0
   62.7890   30.6411   47.5077 H   0  0  0  0  0  0  0  0  0  0  0  0
   63.9423   32.0182   47.5077 H   0  0  0  0  0  0  0  0  0  0  0  0
   62.7885   34.3758   47.6844 H   0  0  0  0  0  0  0  0  0  0  0  0
   63.4448   33.6574   46.1745 H   0  0  0  0  0  0  0  0  0  0  0  0
   61.8164   34.4157   46.1745 H   0  0  0  0  0  0  0  0  0  0  0  0
   59.3870   30.7657   46.6692 H   0  0  0  0  0  0  0  0  0  0  0  0
   59.5935   29.2503   43.2340 H   0  0  0  0  0  0  0  0  0  0  0  0
   59.7540   30.0693   44.8277 H   0  0  0  0  0  0  0  0  0  0  0  0
   60.2530   27.9743   46.3781 H   0  0  0  0  0  0  0  0  0  0  0  0
   58.2522   23.8584   44.8751 H   0  0  0  0  0  0  0  0  0  0  0  0
   56.7007   21.9100   44.8332 H   0  0  0  0  0  0  0  0  0  0  0  0
   54.2725   22.2314   45.3117 H   0  0  0  0  0  0  0  0  0  0  0  0
   53.3962   24.5041   45.8464 H   0  0  0  0  0  0  0  0  0  0  0  0
   56.9310   27.6740   43.7420 H   0  0  0  0  0  0  0  0  0  0  0  0
  1  2  1  0
  2  3  1  0
  3  4  1  0
  4  5  1  0
  5  6  2  0
  6  7  1  0
  7  8  2  0
  8  9  1  0
  9 10  1  0
 10 11  1  0
 11 12  1  0
 11 13  1  0
  9 14  2  0
  3 15  1  0
 15 16  1  0
 16 17  2  0
 17 18  1  0
 18 19  1  0
 19 20  1  0
 20 21  2  0
 21 22  1  0
 22 23  2  0
 23 24  1  0
 24 25  2  0
 25 26  1  0
 19 27  2  0
 14  5  1  0
 27 16  1  0
 25 20  1  0
  1 28  1  0
  1 29  1  0
  1 30  1  0
  2 31  1  0
  2 32  1  0
  4 33  1  0
  4 34  1  0
  6 35  1  0
  7 36  1  0
  8 37  1  0
 10 38  1  0
 10 39  1  0
 12 40  1  0
 12 41  1  0
 12 42  1  0
 13 43  1  0
 13 44  1  0
 13 45  1  0
 14 46  1  0
 15 47  1  0
 15 48  1  0
 17 49  1  0
 21 50  1  0
 22 51  1  0
 23 52  1  0
 24 53  1  0
 27 54  1  0
M  CHG  2  26  -1  27   1
M  END
>  <UniqueID>  (69) 
64

>  <SMILES>  (69) 
CCN(Cc1cccc(CN(C)C)c1)Cc1coc(-c2ccccc2[O-])[nH+]1

>  <Energy>  (69) 
87.88818354596145

>  <Genealogy>  (69) 
CCN(Cc1cccc(CN(C)C)c1)Cc1coc(-c2ccccc2[O-])[nH+]1 (protonated)
CCN(Cc1cccc(CN(C)C)c1)Cc1coc(-c2ccccc2[O-])[nH+]1 (3D coordinates assigned)
CCN(Cc1cccc(CN(C)C)c1)Cc1coc(-c2ccccc2[O-])[nH+]1 (optimized conformer: 87.88818354596145 kcal/mol)

>  <smiles>  (69) 
CCN(Cc1cccc(CN(C)C)c1)Cc1coc(-c2ccccc2O)n1

>  <score_type>  (69) 
oracle

>  <origin>  (69) 
adg

>  <m_score__min__energy>  (69) 
-10.52

>  <m_primary>  (69) 
energy

$$$$
69:0
     RDKit          3D

 36 37  0  0  0  0  0  0  0  0999 V2000
   59.3240   32.9590   45.9960 C   0  0  0  0  0  0  0  0  0  0  0  0
   58.2280   32.7430   44.9510 C   0  0  0  0  0  0  0  0  0  0  0  0
   57.0380   33.6670   45.2190 C   0  0  0  0  0  0  0  0  0  0  0  0
   57.6870   31.0320   44.9160 S   0  0  0  0  0  0  0  0  0  0  0  0
   56.2520   30.9970   44.4740 O   0  0  0  0  0  0  0  0  0  0  0  0
   58.4960   30.2400   43.9260 O   0  0  0  0  0  0  0  0  0  0  0  0
   57.7820   30.3150   46.4960 N   0  0  0  0  0  0  0  0  0  0  0  0
   58.4470   29.0990   46.8690 C   0  0  0  0  0  0  0  0  0  0  0  0
   59.3530   29.0280   47.9410 C   0  0  0  0  0  0  0  0  0  0  0  0
   59.9690   27.8180   48.2600 C   0  0  0  0  0  0  0  0  0  0  0  0
   59.6940   26.6680   47.5170 C   0  0  0  0  0  0  0  0  0  0  0  0
   58.7940   26.7150   46.4350 C   0  0  0  0  0  0  0  0  0  0  0  0
   58.4860   25.5060   45.6190 C   0  0  0  0  0  0  0  0  0  0  0  0
   59.0620   24.4170   45.8880 O   0  0  0  0  0  0  0  0  0  0  0  0
   57.4800   25.5130   44.4990 C   0  0  0  0  0  0  0  0  0  0  0  0
   56.2110   24.8350   44.9200 C   0  0  0  0  0  0  0  0  0  0  0  0
   55.8270   23.2190   44.6360 S   0  0  0  0  0  0  0  0  0  0  0  0
   54.3340   23.3550   45.3960 C   0  0  0  0  0  0  0  0  0  0  0  0
   53.5120   22.4100   45.5170 O   0  0  0  0  0  0  0  0  0  0  0  0
   54.1020   24.5970   45.8700 N   0  0  0  0  0  0  0  0  0  0  0  0
   55.1480   25.4210   45.6060 C   0  0  0  0  0  0  0  0  0  0  0  0
   55.1450   26.7530   45.9990 O   0  0  0  0  0  0  0  0  0  0  0  0
   58.1760   27.9420   46.1260 C   0  0  0  0  0  0  0  0  0  0  0  0
   58.8916   32.8738   47.0038 H   0  0  0  0  0  0  0  0  0  0  0  0
   60.1079   32.1981   45.8678 H   0  0  0  0  0  0  0  0  0  0  0  0
   59.7606   33.9605   45.8678 H   0  0  0  0  0  0  0  0  0  0  0  0
   58.6535   32.9874   43.9665 H   0  0  0  0  0  0  0  0  0  0  0  0
   56.8963   33.7770   46.3043 H   0  0  0  0  0  0  0  0  0  0  0  0
   57.2320   34.6535   44.7727 H   0  0  0  0  0  0  0  0  0  0  0  0
   56.1303   33.2347   44.7727 H   0  0  0  0  0  0  0  0  0  0  0  0
   59.5770   29.9294   48.5303 H   0  0  0  0  0  0  0  0  0  0  0  0
   60.6755   27.7693   49.1017 H   0  0  0  0  0  0  0  0  0  0  0  0
   60.1840   25.7186   47.7788 H   0  0  0  0  0  0  0  0  0  0  0  0
   57.2577   26.5536   44.2202 H   0  0  0  0  0  0  0  0  0  0  0  0
   57.9029   24.9692   43.6414 H   0  0  0  0  0  0  0  0  0  0  0  0
   57.4676   27.9933   45.2861 H   0  0  0  0  0  0  0  0  0  0  0  0
  1  2  1  0
  2  3  1  0
  2  4  1  0
  4  5  2  0
  4  6  2  0
  4  7  1  0
  7  8  1  0
  8  9  2  0
  9 10  1  0
 10 11  2  0
 11 12  1  0
 12 13  1  0
 13 14  2  0
 13 15  1  0
 15 16  1  0
 16 17  1  0
 17 18  1  0
 18 19  2  0
 18 20  1  0
 20 21  1  0
 21 22  1  0
 12 23  2  0
 23  8  1  0
 21 16  2  0
  1 24  1  0
  1 25  1  0
  1 26  1  0
  2 27  1  0
  3 28  1  0
  3 29  1  0
  3 30  1  0
  9 31  1  0
 10 32  1  0
 11 33  1  0
 15 34  1  0
 15 35  1  0
 23 36  1  0
M  CHG  3   7  -1  20  -1  22  -1
M  END
>  <UniqueID>  (70) 
65

>  <SMILES>  (70) 
CC(C)S(=O)(=O)[N-]c1cccc(C(=O)Cc2sc(=O)[n-]c2[O-])c1

>  <Energy>  (70) 
62.92153507024258

>  <Genealogy>  (70) 
CC(C)S(=O)(=O)[N-]c1cccc(C(=O)Cc2sc(=O)[n-]c2[O-])c1 (protonated)
CC(C)S(=O)(=O)[N-]c1cccc(C(=O)Cc2sc(=O)[n-]c2[O-])c1 (3D coordinates assigned)
CC(C)S(=O)(=O)[N-]c1cccc(C(=O)Cc2sc(=O)[n-]c2[O-])c1 (optimized conformer: 62.92153507024258 kcal/mol)

>  <smiles>  (70) 
CC(C)S(=O)(=O)Nc1cccc(C(=O)Cc2sc(=O)[nH]c2O)c1

>  <score_type>  (70) 
oracle

>  <origin>  (70) 
adg

>  <m_score__min__energy>  (70) 
-15.16

>  <m_primary>  (70) 
energy

$$$$
70:0
     RDKit          3D

 54 57  0  0  0  0  0  0  0  0999 V2000
   56.9035   28.8992   42.5592 H   0  0  0  0  0  0  0  0  0  0  0  0
   57.1160   29.0260   43.6310 C   0  0  0  0  0  0  0  0  0  0  0  0
   56.1850   29.8620   44.4120 C   0  0  0  0  0  0  0  0  0  0  0  0
   55.1560   29.3300   44.9070 O   0  0  0  0  0  0  0  0  0  0  0  0
   56.4030   31.2710   44.5540 N   0  0  0  0  0  0  0  0  0  0  0  0
   57.5730   31.9660   44.0310 C   0  0  0  0  0  0  0  0  0  0  0  0
   57.3231   32.4112   43.0567 H   0  0  0  0  0  0  0  0  0  0  0  0
   58.3942   31.2425   43.9204 H   0  0  0  0  0  0  0  0  0  0  0  0
   58.0090   33.0510   44.9710 C   0  0  0  0  0  0  0  0  0  0  0  0
   57.2300   34.0110   45.2120 O   0  0  0  0  0  0  0  0  0  0  0  0
   59.3180   33.0170   45.5580 N   0  0  0  0  0  0  0  0  0  0  0  0
   59.9460   32.2170   45.3170 H   0  0  0  0  0  0  0  0  0  0  0  0
   59.7830   34.0560   46.4860 C   0  0  2  0  0  0  0  0  0  0  0  0
   59.7459   35.0094   45.9386 H   0  0  0  0  0  0  0  0  0  0  0  0
   61.2080   33.7370   46.9790 C   0  0  0  0  0  0  0  0  0  0  0  0
   61.6692   32.9474   46.3676 H   0  0  0  0  0  0  0  0  0  0  0  0
   61.8896   34.5979   46.9135 H   0  0  0  0  0  0  0  0  0  0  0  0
   60.9910   33.2750   48.3640 C   0  0  0  0  0  0  0  0  0  0  0  0
   61.9200   32.8730   49.1140 O   0  0  0  0  0  0  0  0  0  0  0  0
   59.6450   33.4160   48.7920 N   0  0  0  0  0  0  0  0  0  0  0  0
   59.1090   33.0150   50.0680 C   0  0  0  0  0  0  0  0  0  0  0  0
   59.4250   33.7410   51.2300 C   0  0  0  0  0  0  0  0  0  0  0  0
   60.0877   34.6165   51.1638 H   0  0  0  0  0  0  0  0  0  0  0  0
   58.9030   33.3580   52.4680 C   0  0  0  0  0  0  0  0  0  0  0  0
   59.1654   33.9252   53.3733 H   0  0  0  0  0  0  0  0  0  0  0  0
   58.0490   32.2570   52.5590 C   0  0  0  0  0  0  0  0  0  0  0  0
   57.6428   31.9598   53.5371 H   0  0  0  0  0  0  0  0  0  0  0  0
   57.7070   31.5300   51.4150 C   0  0  0  0  0  0  0  0  0  0  0  0
   56.8390   30.4350   51.5590 O   0  0  0  0  0  0  0  0  0  0  0  0
   55.6770   30.4310   52.3830 C   0  0  0  0  0  0  0  0  0  0  0  0
   55.9778   30.4320   53.4411 H   0  0  0  0  0  0  0  0  0  0  0  0
   55.0749   31.3271   52.1721 H   0  0  0  0  0  0  0  0  0  0  0  0
   55.0810   29.5308   52.1721 H   0  0  0  0  0  0  0  0  0  0  0  0
   58.2350   31.9160   50.1670 C   0  0  0  0  0  0  0  0  0  0  0  0
   57.9618   31.3535   49.2620 H   0  0  0  0  0  0  0  0  0  0  0  0
   58.8950   34.1060   47.7530 C   0  0  0  0  0  0  0  0  0  0  0  0
   57.9375   33.5966   47.5697 H   0  0  0  0  0  0  0  0  0  0  0  0
   58.6617   35.1412   48.0426 H   0  0  0  0  0  0  0  0  0  0  0  0
   58.2020   28.4070   44.1220 C   0  0  0  0  0  0  0  0  0  0  0  0
   58.5671   27.5219   43.5805 H   0  0  0  0  0  0  0  0  0  0  0  0
   58.9460   28.8180   45.3300 C   0  0  0  0  0  0  0  0  0  0  0  0
   60.0860   29.6620   45.2420 C   0  0  0  0  0  0  0  0  0  0  0  0
   60.4410   29.9981   44.2566 H   0  0  0  0  0  0  0  0  0  0  0  0
   60.7640   30.0710   46.4040 C   0  0  0  0  0  0  0  0  0  0  0  0
   61.6548   30.7137   46.3455 H   0  0  0  0  0  0  0  0  0  0  0  0
   60.2710   29.6360   47.6300 C   0  0  0  0  0  0  0  0  0  0  0  0
   59.1670   28.8520   47.7230 C   0  0  0  0  0  0  0  0  0  0  0  0
   58.4650   28.4280   46.5980 C   0  0  0  0  0  0  0  0  0  0  0  0
   57.5620   27.8073   46.6947 H   0  0  0  0  0  0  0  0  0  0  0  0
   58.9030   28.5860   49.0530 O   0  0  0  0  0  0  0  0  0  0  0  0
   59.9000   29.2470   49.8440 C   0  0  0  0  0  0  0  0  0  0  0  0
   59.4344   29.9830   50.5160 H   0  0  0  0  0  0  0  0  0  0  0  0
   60.4538   28.5425   50.4820 H   0  0  0  0  0  0  0  0  0  0  0  0
   60.7560   29.9010   48.8960 O   0  0  0  0  0  0  0  0  0  0  0  0
  1  2  1  0
  2  3  1  0
  3  4  2  0
  3  5  1  0
  5  6  1  0
  6  7  1  0
  6  8  1  0
  6  9  1  0
  9 10  2  0
  9 11  1  0
 11 12  1  0
 11 13  1  0
 13 14  1  6
 13 15  1  0
 15 16  1  0
 15 17  1  0
 15 18  1  0
 18 19  2  0
 18 20  1  0
 20 21  1  0
 21 22  2  0
 22 23  1  0
 22 24  1  0
 24 25  1  0
 24 26  2  0
 26 27  1  0
 26 28  1  0
 28 29  1  0
 29 30  1  0
 30 31  1  0
 30 32  1  0
 30 33  1  0
 28 34  2  0
 34 35  1  0
 20 36  1  0
 36 37  1  0
 36 38  1  0
  2 39  2  0
 39 40  1  0
 39 41  1  0
 41 42  2  0
 42 43  1  0
 42 44  1  0
 44 45  1  0
 44 46  2  0
 46 47  1  0
 47 48  2  0
 48 49  1  0
 47 50  1  0
 50 51  1  0
 51 52  1  0
 51 53  1  0
 51 54  1  0
 36 13  1  0
 48 41  1  0
 34 21  1  0
 54 46  1  0
M  CHG  1   5  -1
M  END
>  <UniqueID>  (71) 
66

>  <SMILES>  (71) 
COc1cccc(N2C[C@H](NC(=O)C[N-]C(=O)/C=C\c3ccc4c(c3)OCO4)CC2=O)c1

>  <Energy>  (71) 
98.79260502254239

>  <Genealogy>  (71) 
COc1cccc(N2CC(NC(=O)C[N-]C(=O)C=Cc3ccc4c(c3)OCO4)CC2=O)c1 (protonated)
COc1cccc(N2C[C@H](NC(=O)C[N-]C(=O)C=Cc3ccc4c(c3)OCO4)CC2=O)c1 (chirality)
COc1cccc(N2C[C@H](NC(=O)C[N-]C(=O)/C=C\c3ccc4c(c3)OCO4)CC2=O)c1 (cis-trans isomerization)
COc1cccc(N2C[C@H](NC(=O)C[N-]C(=O)/C=C\c3ccc4c(c3)OCO4)CC2=O)c1 (3D coordinates assigned)
COc1cccc(N2C[C@H](NC(=O)C[N-]C(=O)/C=C\c3ccc4c(c3)OCO4)CC2=O)c1 (nonaromatic ring conformer: 98.79260502254239 kcal/mol)

>  <smiles>  (71) 
COc1cccc(N2CC(NC(=O)CNC(=O)C=Cc3ccc4c(c3)OCO4)CC2=O)c1

>  <score_type>  (71) 
oracle

>  <origin>  (71) 
adg

>  <m_score__min__energy>  (71) 
-10.050000000000001

>  <m_primary>  (71) 
energy

$$$$
71:0
     RDKit          3D

 42 45  0  0  0  0  0  0  0  0999 V2000
   56.5096   31.8109   42.3306 H   0  0  0  0  0  0  0  0  0  0  0  0
   57.1740   31.6280   43.1880 C   0  0  0  0  0  0  0  0  0  0  0  0
   56.9630   30.4130   44.0000 C   0  0  0  0  0  0  0  0  0  0  0  0
   55.8370   30.2390   44.5380 O   0  0  0  0  0  0  0  0  0  0  0  0
   57.9850   29.4110   44.1320 N   0  0  0  0  0  0  0  0  0  0  0  0
   58.6780   29.3100   43.3570 H   0  0  0  0  0  0  0  0  0  0  0  0
   58.0140   28.4360   45.1900 C   0  0  0  0  0  0  0  0  0  0  0  0
   59.0460   28.4220   46.1440 C   0  0  0  0  0  0  0  0  0  0  0  0
   59.8427   29.1792   46.1002 H   0  0  0  0  0  0  0  0  0  0  0  0
   59.0640   27.4510   47.1470 C   0  0  0  0  0  0  0  0  0  0  0  0
   59.8699   27.4520   47.8957 H   0  0  0  0  0  0  0  0  0  0  0  0
   58.0630   26.4780   47.2040 C   0  0  0  0  0  0  0  0  0  0  0  0
   58.0804   25.7208   48.0018 H   0  0  0  0  0  0  0  0  0  0  0  0
   57.0340   26.4620   46.2470 C   0  0  0  0  0  0  0  0  0  0  0  0
   55.9780   25.4260   46.3000 C   0  0  0  0  0  0  0  0  0  0  0  0
   56.0960   24.2850   47.0310 N   0  0  0  0  0  0  0  0  0  0  0  0
   54.9360   23.6580   46.7890 C   0  0  0  0  0  0  0  0  0  0  0  0
   54.5110   22.4280   47.2870 C   0  0  0  0  0  0  0  0  0  0  0  0
   55.1446   21.8385   47.9660 H   0  0  0  0  0  0  0  0  0  0  0  0
   53.2420   21.9670   46.8900 C   0  0  0  0  0  0  0  0  0  0  0  0
   52.8704   21.0008   47.2620 H   0  0  0  0  0  0  0  0  0  0  0  0
   52.4420   22.7380   46.0160 C   0  0  0  0  0  0  0  0  0  0  0  0
   51.4518   22.3686   45.7110 H   0  0  0  0  0  0  0  0  0  0  0  0
   52.9070   23.9770   45.5340 C   0  0  0  0  0  0  0  0  0  0  0  0
   52.2958   24.5888   44.8542 H   0  0  0  0  0  0  0  0  0  0  0  0
   54.1680   24.4010   45.9480 C   0  0  0  0  0  0  0  0  0  0  0  0
   54.8040   25.5330   45.6190 N   0  0  0  0  0  0  0  0  0  0  0  0
   57.0230   27.4430   45.2390 C   0  0  0  0  0  0  0  0  0  0  0  0
   56.2276   27.4319   44.4793 H   0  0  0  0  0  0  0  0  0  0  0  0
   58.1410   32.5170   43.4520 C   0  0  0  0  0  0  0  0  0  0  0  0
   58.6580   32.9906   42.6044 H   0  0  0  0  0  0  0  0  0  0  0  0
   58.5520   32.8970   44.8260 C   0  0  0  0  0  0  0  0  0  0  0  0
   58.8840   31.9410   45.8090 C   0  0  0  0  0  0  0  0  0  0  0  0
   58.8514   30.8695   45.5625 H   0  0  0  0  0  0  0  0  0  0  0  0
   59.2540   32.3470   47.0940 C   0  0  0  0  0  0  0  0  0  0  0  0
   59.5186   31.5947   47.8517 H   0  0  0  0  0  0  0  0  0  0  0  0
   59.2890   33.7070   47.4200 C   0  0  0  0  0  0  0  0  0  0  0  0
   59.7510   34.2120   49.0340 Cl  0  0  0  0  0  0  0  0  0  0  0  0
   58.9460   34.6610   46.4580 C   0  0  0  0  0  0  0  0  0  0  0  0
   58.9679   35.7306   46.7138 H   0  0  0  0  0  0  0  0  0  0  0  0
   58.5750   34.2590   45.1710 C   0  0  0  0  0  0  0  0  0  0  0  0
   58.2987   35.0157   44.4220 H   0  0  0  0  0  0  0  0  0  0  0  0
  1  2  1  0
  2  3  1  0
  3  4  2  0
  3  5  1  0
  5  6  1  0
  5  7  1  0
  7  8  2  0
  8  9  1  0
  8 10  1  0
 10 11  1  0
 10 12  2  0
 12 13  1  0
 12 14  1  0
 14 15  1  0
 15 16  2  0
 16 17  1  0
 17 18  2  0
 18 19  1  0
 18 20  1  0
 20 21  1  0
 20 22  2  0
 22 23  1  0
 22 24  1  0
 24 25  1  0
 24 26  2  0
 26 27  1  0
 14 28  2  0
 28 29  1  0
  2 30  2  0
 30 31  1  0
 30 32  1  0
 32 33  2  0
 33 34  1  0
 33 35  1  0
 35 36  1  0
 35 37  2  0
 37 38  1  0
 37 39  1  0
 39 40  1  0
 39 41  2  0
 41 42  1  0
 28  7  1  0
 41 32  1  0
 27 15  1  0
 26 17  1  0
M  CHG  1  27  -1
M  END
>  <UniqueID>  (72) 
67

>  <SMILES>  (72) 
O=C(/C=C/c1ccc(Cl)cc1)Nc1cccc(-c2nc3ccccc3[n-]2)c1

>  <Energy>  (72) 
88.28163113392803

>  <Genealogy>  (72) 
O=C(C=Cc1ccc(Cl)cc1)Nc1cccc(-c2nc3ccccc3[n-]2)c1 (protonated)
O=C(/C=C/c1ccc(Cl)cc1)Nc1cccc(-c2nc3ccccc3[n-]2)c1 (cis-trans isomerization)
O=C(/C=C/c1ccc(Cl)cc1)Nc1cccc(-c2nc3ccccc3[n-]2)c1 (3D coordinates assigned)
O=C(/C=C/c1ccc(Cl)cc1)Nc1cccc(-c2nc3ccccc3[n-]2)c1 (optimized conformer: 88.28163113392803 kcal/mol)

>  <smiles>  (72) 
O=C(C=Cc1ccc(Cl)cc1)Nc1cccc(-c2nc3ccccc3[nH]2)c1

>  <score_type>  (72) 
oracle

>  <origin>  (72) 
adg

>  <m_score__min__energy>  (72) 
-11.539999999999999

>  <m_primary>  (72) 
energy

$$$$
72:0
     RDKit          3D

 40 42  0  0  1  0  0  0  0  0999 V2000
   60.5840   30.0140   47.7010 C   0  0  0  0  0  0  0  0  0  0  0  0
   59.3090   29.4860   47.3910 O   0  0  0  0  0  0  0  0  0  0  0  0
   58.5520   30.1360   46.4320 C   0  0  0  0  0  0  0  0  0  0  0  0
   58.4970   31.5100   46.3030 C   0  0  0  0  0  0  0  0  0  0  0  0
   57.7400   32.1470   45.3430 C   0  0  0  0  0  0  0  0  0  0  0  0
   57.0130   31.3400   44.4870 C   0  0  0  0  0  0  0  0  0  0  0  0
   57.0300   29.9630   44.5680 C   0  0  0  0  0  0  0  0  0  0  0  0
   56.2940   29.1500   43.7000 O   0  0  0  0  0  0  0  0  0  0  0  0
   57.8010   29.3610   45.5440 C   0  0  0  0  0  0  0  0  0  0  0  0
   57.8490   27.9070   45.6680 C   0  0  0  0  0  0  0  0  0  0  0  0
   59.1250   27.3350   45.6430 C   0  0  0  0  0  0  0  0  0  0  0  0
   59.2310   25.9600   45.7560 C   0  0  0  0  0  0  0  0  0  0  0  0
   58.0590   25.2220   45.8890 C   0  0  0  0  0  0  0  0  0  0  0  0
   58.1670   23.8180   46.0050 N   0  0  0  0  0  0  0  0  0  0  0  0
   57.8110   22.9920   45.0920 C   0  0  0  0  0  0  0  0  0  0  0  0
   58.3290   21.7610   44.8280 N   0  0  0  0  0  0  0  0  0  0  0  0
   57.6560   21.2800   43.8120 N   0  0  0  0  0  0  0  0  0  0  0  0
   56.7090   22.1710   43.4090 C   0  0  0  0  0  0  0  0  0  0  0  0
   55.8950   21.9680   42.4270 N   0  0  0  0  0  0  0  0  0  0  0  0
   56.8140   23.2420   44.2180 N   0  0  0  0  0  0  0  0  0  0  0  0
   56.8220   25.8070   45.9100 C   0  0  0  0  0  0  0  0  0  0  0  0
   55.6950   25.0160   46.0450 O   0  0  0  0  0  0  0  0  0  0  0  0
   55.5210   24.0900   47.0980 C   0  0  0  0  0  0  0  0  0  0  0  0
   56.7440   27.1460   45.7990 N   0  0  0  0  0  0  0  0  0  0  0  0
   60.7045   30.0639   48.7932 H   0  0  0  0  0  0  0  0  0  0  0  0
   61.3632   29.3646   47.2754 H   0  0  0  0  0  0  0  0  0  0  0  0
   60.6759   31.0242   47.2754 H   0  0  0  0  0  0  0  0  0  0  0  0
   59.0853   32.1254   46.9995 H   0  0  0  0  0  0  0  0  0  0  0  0
   57.7154   33.2437   45.2618 H   0  0  0  0  0  0  0  0  0  0  0  0
   56.3962   31.8154   43.7101 H   0  0  0  0  0  0  0  0  0  0  0  0
   56.3620   28.1400   43.8990 H   0  0  0  0  0  0  0  0  0  0  0  0
   60.0221   27.9626   45.5362 H   0  0  0  0  0  0  0  0  0  0  0  0
   60.2131   25.4648   45.7411 H   0  0  0  0  0  0  0  0  0  0  0  0
   59.1110   21.2860   45.3320 H   0  0  0  0  0  0  0  0  0  0  0  0
   57.8350   20.3400   43.3840 H   0  0  0  0  0  0  0  0  0  0  0  0
   56.2130   22.2800   41.4840 H   0  0  0  0  0  0  0  0  0  0  0  0
   56.2050   24.0740   44.1270 H   0  0  0  0  0  0  0  0  0  0  0  0
   55.6186   24.6093   48.0628 H   0  0  0  0  0  0  0  0  0  0  0  0
   54.5218   23.6358   47.0255 H   0  0  0  0  0  0  0  0  0  0  0  0
   56.2872   23.3041   47.0255 H   0  0  0  0  0  0  0  0  0  0  0  0
  1  2  1  0
  2  3  1  0
  3  4  2  0
  4  5  1  0
  5  6  2  0
  6  7  1  0
  7  8  1  0
  7  9  2  0
  9 10  1  0
 10 11  2  0
 11 12  1  0
 12 13  2  0
 13 14  1  0
 14 15  2  0
 15 16  1  0
 16 17  1  0
 17 18  1  0
 18 19  2  3
 18 20  1  0
 13 21  1  0
 21 22  1  0
 22 23  1  0
 21 24  2  0
  9  3  1  0
 24 10  1  0
 20 15  1  0
  1 25  1  0
  1 26  1  0
  1 27  1  0
  4 28  1  0
  5 29  1  0
  6 30  1  0
  8 31  1  0
 11 32  1  0
 12 33  1  0
 16 34  1  0
 17 35  1  0
 19 36  1  0
 20 37  1  0
 23 38  1  0
 23 39  1  0
 23 40  1  0
M  END
>  <smiles>  (73) 
COc1cccc(O)c1-c1ccc(N=c2[nH][nH]c(=N)[nH]2)c(OC)n1

>  <score_type>  (73) 
oracle

>  <origin>  (73) 
adg

>  <m_score__min__energy>  (73) 
-8.1300000000000008

>  <m_primary>  (73) 
energy

$$$$
73:0
     RDKit          3D

 32 34  0  0  0  0  0  0  0  0999 V2000
   57.6230   32.2370   42.5080 O   0  0  0  0  0  0  0  0  0  0  0  0
   57.5860   32.0960   43.7610 C   0  0  0  0  0  0  0  0  0  0  0  0
   57.2670   30.7680   44.3360 C   0  0  0  0  0  0  0  0  0  0  0  0
   58.2860   29.9460   44.8420 C   0  0  0  0  0  0  0  0  0  0  0  0
   57.9780   28.6910   45.3730 C   0  0  0  0  0  0  0  0  0  0  0  0
   56.6470   28.2620   45.3860 C   0  0  0  0  0  0  0  0  0  0  0  0
   56.2560   26.7980   45.9990 S   0  0  0  0  0  0  0  0  0  0  0  0
   55.6730   29.0610   44.8800 N   0  0  0  0  0  0  0  0  0  0  0  0
   55.9470   30.2880   44.3610 C   0  0  0  0  0  0  0  0  0  0  0  0
   57.8460   33.2330   44.6060 N   0  0  0  0  0  0  0  0  0  0  0  0
   56.8790   33.6370   45.6290 C   0  0  0  0  0  0  0  0  0  0  0  0
   57.3700   33.1570   46.9960 C   0  0  0  0  0  0  0  0  0  0  0  0
   58.8360   33.4550   47.2120 C   0  0  0  0  0  0  0  0  0  0  0  0
   59.3530   33.4070   48.5170 C   0  0  0  0  0  0  0  0  0  0  0  0
   60.7150   33.6190   48.7460 C   0  0  0  0  0  0  0  0  0  0  0  0
   61.5750   33.8710   47.6760 C   0  0  0  0  0  0  0  0  0  0  0  0
   61.0770   33.9090   46.3720 C   0  0  0  0  0  0  0  0  0  0  0  0
   59.7140   33.6860   46.1240 C   0  0  0  0  0  0  0  0  0  0  0  0
   59.1970   33.7910   44.7110 C   0  0  0  0  0  0  0  0  0  0  0  0
   59.3303   30.2910   44.8204 H   0  0  0  0  0  0  0  0  0  0  0  0
   58.7736   28.0474   45.7764 H   0  0  0  0  0  0  0  0  0  0  0  0
   55.1314   30.9072   43.9591 H   0  0  0  0  0  0  0  0  0  0  0  0
   56.7847   34.7329   45.6350 H   0  0  0  0  0  0  0  0  0  0  0  0
   55.8976   33.1914   45.4092 H   0  0  0  0  0  0  0  0  0  0  0  0
   56.7864   33.6623   47.7796 H   0  0  0  0  0  0  0  0  0  0  0  0
   57.2369   32.0659   47.0391 H   0  0  0  0  0  0  0  0  0  0  0  0
   58.6817   33.2013   49.3638 H   0  0  0  0  0  0  0  0  0  0  0  0
   61.1104   33.5872   49.7720 H   0  0  0  0  0  0  0  0  0  0  0  0
   62.6463   34.0399   47.8601 H   0  0  0  0  0  0  0  0  0  0  0  0
   61.7581   34.1152   45.5332 H   0  0  0  0  0  0  0  0  0  0  0  0
   59.1735   34.8498   44.4138 H   0  0  0  0  0  0  0  0  0  0  0  0
   59.8653   33.2210   44.0488 H   0  0  0  0  0  0  0  0  0  0  0  0
  1  2  2  0
  2  3  1  0
  3  4  1  0
  4  5  2  0
  5  6  1  0
  6  7  2  0
  6  8  1  0
  8  9  1  0
  2 10  1  0
 10 11  1  0
 11 12  1  0
 12 13  1  0
 13 14  2  0
 14 15  1  0
 15 16  2  0
 16 17  1  0
 17 18  2  0
 18 19  1  0
  9  3  2  0
 19 10  1  0
 18 13  1  0
  4 20  1  0
  5 21  1  0
  9 22  1  0
 11 23  1  0
 11 24  1  0
 12 25  1  0
 12 26  1  0
 14 27  1  0
 15 28  1  0
 16 29  1  0
 17 30  1  0
 19 31  1  0
 19 32  1  0
M  CHG  1   8  -1
M  END
>  <UniqueID>  (74) 
68

>  <SMILES>  (74) 
O=C(c1ccc(=S)[n-]c1)N1CCc2ccccc2C1

>  <Energy>  (74) 
42.423380726287824

>  <Genealogy>  (74) 
O=C(c1ccc(=S)[n-]c1)N1CCc2ccccc2C1 (protonated)
O=C(c1ccc(=S)[n-]c1)N1CCc2ccccc2C1 (3D coordinates assigned)
O=C(c1ccc(=S)[n-]c1)N1CCc2ccccc2C1 (nonaromatic ring conformer: 42.423380726287824 kcal/mol)

>  <smiles>  (74) 
O=C(c1ccc(=S)[nH]c1)N1CCc2ccccc2C1

>  <score_type>  (74) 
oracle

>  <origin>  (74) 
adg

>  <m_score__min__energy>  (74) 
-9.5999999999999996

>  <m_primary>  (74) 
energy

$$$$
74:0
     RDKit          3D

 50 53  0  0  0  0  0  0  0  0999 V2000
   58.2700   25.5490   47.9000 C   0  0  0  0  0  0  0  0  0  0  0  0
   57.9940   25.7280   46.6040 C   0  0  0  0  0  0  0  0  0  0  0  0
   58.4800   26.7790   45.9130 N   0  0  0  0  0  0  0  0  0  0  0  0
   57.8800   26.7770   44.7040 C   0  0  0  0  0  0  0  0  0  0  0  0
   58.1300   27.7330   43.6010 C   0  0  0  0  0  0  0  0  0  0  0  0
   58.5340   27.2640   42.5020 O   0  0  0  0  0  0  0  0  0  0  0  0
   57.8150   29.1410   43.6800 N   0  0  0  0  0  0  0  0  0  0  0  0
   58.7580   30.0840   44.2640 C   0  0  0  0  0  0  0  0  0  0  0  0
   58.1910   31.4810   43.9960 C   0  0  2  0  0  0  0  0  0  0  0  0
   57.5860   32.0190   45.1750 O   0  0  0  0  0  0  0  0  0  0  0  0
   58.2130   32.8830   46.0870 C   0  0  0  0  0  0  0  0  0  0  0  0
   58.6670   34.1690   45.7280 C   0  0  0  0  0  0  0  0  0  0  0  0
   59.2860   34.9870   46.6780 C   0  0  0  0  0  0  0  0  0  0  0  0
   59.4560   34.5350   47.9900 C   0  0  0  0  0  0  0  0  0  0  0  0
   59.0070   33.2620   48.3530 C   0  0  0  0  0  0  0  0  0  0  0  0
   58.3890   32.4410   47.4050 C   0  0  0  0  0  0  0  0  0  0  0  0
   57.1210   31.2760   42.9270 C   0  0  0  0  0  0  0  0  0  0  0  0
   56.6870   29.8120   43.0470 C   0  0  2  0  0  0  0  0  0  0  0  0
   55.4340   29.6750   43.9310 C   0  0  0  0  0  0  0  0  0  0  0  0
   55.6740   28.7480   44.9520 O   0  0  0  0  0  0  0  0  0  0  0  0
   57.0250   25.6970   44.6030 C   0  0  0  0  0  0  0  0  0  0  0  0
   57.1060   25.0010   45.7990 C   0  0  0  0  0  0  0  0  0  0  0  0
   56.4380   23.8550   46.0260 C   0  0  0  0  0  0  0  0  0  0  0  0
   54.9820   23.6770   45.9090 C   0  0  0  0  0  0  0  0  0  0  0  0
   54.3660   22.4840   45.8090 N   0  0  0  0  0  0  0  0  0  0  0  0
   53.0770   22.8150   45.5810 C   0  0  0  0  0  0  0  0  0  0  0  0
   52.1700   21.9540   45.4420 O   0  0  0  0  0  0  0  0  0  0  0  0
   52.8390   24.1420   45.5010 N   0  0  0  0  0  0  0  0  0  0  0  0
   54.0560   24.6750   45.6970 C   0  0  0  0  0  0  0  0  0  0  0  0
   54.3050   26.0440   45.6800 O   0  0  0  0  0  0  0  0  0  0  0  0
   57.8578   24.6809   48.4353 H   0  0  0  0  0  0  0  0  0  0  0  0
   58.9092   26.2698   48.4309 H   0  0  0  0  0  0  0  0  0  0  0  0
   59.1870   27.4560   46.2680 H   0  0  0  0  0  0  0  0  0  0  0  0
   58.8485   29.9110   45.3465 H   0  0  0  0  0  0  0  0  0  0  0  0
   59.7608   29.9690   43.8268 H   0  0  0  0  0  0  0  0  0  0  0  0
   58.9790   32.1819   43.6834 H   0  0  0  0  0  0  0  0  0  0  0  0
   58.5337   34.5296   44.6974 H   0  0  0  0  0  0  0  0  0  0  0  0
   59.6401   35.9885   46.3925 H   0  0  0  0  0  0  0  0  0  0  0  0
   59.9427   35.1805   48.7360 H   0  0  0  0  0  0  0  0  0  0  0  0
   59.1400   32.9059   49.3852 H   0  0  0  0  0  0  0  0  0  0  0  0
   58.0381   31.4400   47.6961 H   0  0  0  0  0  0  0  0  0  0  0  0
   56.2665   31.9449   43.1070 H   0  0  0  0  0  0  0  0  0  0  0  0
   57.5042   31.5037   41.9214 H   0  0  0  0  0  0  0  0  0  0  0  0
   56.4303   29.3838   42.0668 H   0  0  0  0  0  0  0  0  0  0  0  0
   55.1910   30.6520   44.3743 H   0  0  0  0  0  0  0  0  0  0  0  0
   54.5910   29.3278   43.3155 H   0  0  0  0  0  0  0  0  0  0  0  0
   55.8790   27.8880   44.5000 H   0  0  0  0  0  0  0  0  0  0  0  0
   56.3981   25.4381   43.7370 H   0  0  0  0  0  0  0  0  0  0  0  0
   57.0303   22.9774   46.3241 H   0  0  0  0  0  0  0  0  0  0  0  0
   53.5850   26.7140   45.9190 H   0  0  0  0  0  0  0  0  0  0  0  0
  1  2  2  0
  2  3  1  0
  3  4  1  0
  4  5  1  0
  5  6  2  0
  5  7  1  0
  7  8  1  0
  8  9  1  0
  9 10  1  0
 10 11  1  0
 11 12  2  0
 12 13  1  0
 13 14  2  0
 14 15  1  0
 15 16  2  0
  9 17  1  0
 17 18  1  0
 18 19  1  0
 19 20  1  0
  4 21  2  0
 21 22  1  0
 22 23  2  3
 23 24  1  0
 24 25  1  0
 25 26  1  0
 26 27  2  0
 26 28  1  0
 28 29  1  0
 29 30  1  0
 22  2  1  0
 29 24  2  0
 18  7  1  0
 16 11  1  0
  1 31  1  0
  1 32  1  0
  3 33  1  0
  8 34  1  0
  8 35  1  0
  9 36  1  6
 12 37  1  0
 13 38  1  0
 14 39  1  0
 15 40  1  0
 16 41  1  0
 17 42  1  0
 17 43  1  0
 18 44  1  6
 19 45  1  0
 19 46  1  0
 20 47  1  0
 21 48  1  0
 23 49  1  0
 30 50  1  0
M  CHG  2  25  -1  28  -1
M  END
>  <UniqueID>  (75) 
69

>  <SMILES>  (75) 
C=c1[nH]c(C(=O)N2C[C@H](Oc3ccccc3)C[C@@H]2CO)cc1=Cc1[n-]c(=O)[n-]c1O

>  <Energy>  (75) 
125.72876415253029

>  <Genealogy>  (75) 
C=c1[nH]c(C(=O)N2CC(Oc3ccccc3)CC2CO)cc1=Cc1[n-]c(=O)[n-]c1O (protonated)
C=c1[nH]c(C(=O)N2C[C@H](Oc3ccccc3)C[C@@H]2CO)cc1=Cc1[n-]c(=O)[n-]c1O (chirality)
C=c1[nH]c(C(=O)N2C[C@H](Oc3ccccc3)C[C@@H]2CO)cc1=Cc1[n-]c(=O)[n-]c1O (3D coordinates assigned)
C=c1[nH]c(C(=O)N2C[C@H](Oc3ccccc3)C[C@@H]2CO)cc1=Cc1[n-]c(=O)[n-]c1O (nonaromatic ring conformer: 125.72876415253029 kcal/mol)

>  <smiles>  (75) 
C=c1[nH]c(C(=O)N2CC(Oc3ccccc3)CC2CO)cc1=Cc1[nH]c(=O)[nH]c1O

>  <score_type>  (75) 
oracle

>  <origin>  (75) 
adg

>  <m_score__min__energy>  (75) 
-13.02

>  <m_primary>  (75) 
energy

$$$$
75:0
     RDKit          3D

 50 53  0  0  0  0  0  0  0  0999 V2000
   56.9440   31.2860   44.8680 O   0  0  0  0  0  0  0  0  0  0  0  0
   57.9110   30.8410   45.5490 C   0  0  0  0  0  0  0  0  0  0  0  0
   58.1050   29.3670   45.6470 C   0  0  0  0  0  0  0  0  0  0  0  0
   57.0000   28.5050   45.7630 C   0  0  0  0  0  0  0  0  0  0  0  0
   57.1850   27.1170   45.8440 C   0  0  0  0  0  0  0  0  0  0  0  0
   56.0980   26.2280   45.9610 C   0  0  0  0  0  0  0  0  0  0  0  0
   54.7900   26.6980   46.0020 O   0  0  0  0  0  0  0  0  0  0  0  0
   56.3300   24.8500   46.0370 C   0  0  0  0  0  0  0  0  0  0  0  0
   57.6350   24.3500   45.9970 C   0  0  0  0  0  0  0  0  0  0  0  0
   58.7180   25.2250   45.8790 C   0  0  0  0  0  0  0  0  0  0  0  0
   58.4990   26.6050   45.8020 C   0  0  0  0  0  0  0  0  0  0  0  0
   59.5550   27.4520   45.6850 N   0  0  0  0  0  0  0  0  0  0  0  0
   59.3960   28.8000   45.6060 C   0  0  0  0  0  0  0  0  0  0  0  0
   60.4190   29.5280   45.5120 O   0  0  0  0  0  0  0  0  0  0  0  0
   58.7920   31.7680   46.2340 N   0  0  0  0  0  0  0  0  0  0  0  0
   58.0970   32.3660   47.3970 C   0  0  0  0  0  0  0  0  0  0  0  0
   58.8650   33.5760   47.9690 C   0  0  0  0  0  0  0  0  0  0  0  0
   60.2510   33.5860   47.4680 N   0  0  0  0  0  0  0  0  0  0  0  0
   61.0890   34.5890   48.1630 C   0  0  0  0  0  0  0  0  0  0  0  0
   61.5360   34.0410   49.5230 C   0  0  0  0  0  0  0  0  0  0  0  0
   61.1870   32.5780   49.6780 C   0  0  0  0  0  0  0  0  0  0  0  0
   61.8630   31.6260   48.8930 C   0  0  0  0  0  0  0  0  0  0  0  0
   61.5240   30.2730   48.9710 C   0  0  0  0  0  0  0  0  0  0  0  0
   60.5060   29.8560   49.8300 C   0  0  0  0  0  0  0  0  0  0  0  0
   59.8210   30.7900   50.6080 C   0  0  0  0  0  0  0  0  0  0  0  0
   60.1490   32.1500   50.5370 C   0  0  0  0  0  0  0  0  0  0  0  0
   59.2320   33.2820   51.5240 Cl  0  0  0  0  0  0  0  0  0  0  0  0
   60.2660   33.7660   46.0020 C   0  0  0  0  0  0  0  0  0  0  0  0
   59.2640   32.8160   45.3050 C   0  0  0  0  0  0  0  0  0  0  0  0
   55.9827   28.9225   45.7904 H   0  0  0  0  0  0  0  0  0  0  0  0
   55.4810   24.1566   46.1287 H   0  0  0  0  0  0  0  0  0  0  0  0
   57.8095   23.2657   46.0585 H   0  0  0  0  0  0  0  0  0  0  0  0
   59.7436   24.8287   45.8466 H   0  0  0  0  0  0  0  0  0  0  0  0
   59.6370   31.2490   46.5700 H   0  0  0  0  0  0  0  0  0  0  0  0
   57.0966   32.6971   47.0813 H   0  0  0  0  0  0  0  0  0  0  0  0
   58.0323   31.6010   48.1848 H   0  0  0  0  0  0  0  0  0  0  0  0
   58.3612   34.5041   47.6610 H   0  0  0  0  0  0  0  0  0  0  0  0
   58.8819   33.5025   49.0664 H   0  0  0  0  0  0  0  0  0  0  0  0
   61.9749   34.8121   47.5503 H   0  0  0  0  0  0  0  0  0  0  0  0
   60.5032   35.5073   48.3167 H   0  0  0  0  0  0  0  0  0  0  0  0
   62.6258   34.1592   49.6143 H   0  0  0  0  0  0  0  0  0  0  0  0
   61.0114   34.6040   50.3090 H   0  0  0  0  0  0  0  0  0  0  0  0
   62.6646   31.9495   48.2127 H   0  0  0  0  0  0  0  0  0  0  0  0
   62.0597   29.5358   48.3550 H   0  0  0  0  0  0  0  0  0  0  0  0
   60.2434   28.7897   49.8937 H   0  0  0  0  0  0  0  0  0  0  0  0
   59.0180   30.4561   51.2816 H   0  0  0  0  0  0  0  0  0  0  0  0
   59.9958   34.8060   45.7666 H   0  0  0  0  0  0  0  0  0  0  0  0
   61.2764   33.5319   45.6354 H   0  0  0  0  0  0  0  0  0  0  0  0
   58.4007   33.3997   44.9529 H   0  0  0  0  0  0  0  0  0  0  0  0
   59.7726   32.3305   44.4591 H   0  0  0  0  0  0  0  0  0  0  0  0
  1  2  2  0
  2  3  1  0
  3  4  2  0
  4  5  1  0
  5  6  2  0
  6  7  1  0
  6  8  1  0
  8  9  2  0
  9 10  1  0
 10 11  2  0
 11 12  1  0
 12 13  1  0
 13 14  2  0
  2 15  1  0
 15 16  1  0
 16 17  1  0
 17 18  1  0
 18 19  1  0
 19 20  1  0
 20 21  1  0
 21 22  2  0
 22 23  1  0
 23 24  2  0
 24 25  1  0
 25 26  2  0
 26 27  1  0
 18 28  1  0
 28 29  1  0
 13  3  1  0
 29 15  1  0
 11  5  1  0
 26 21  1  0
  4 30  1  0
  8 31  1  0
  9 32  1  0
 10 33  1  0
 15 34  1  0
 16 35  1  0
 16 36  1  0
 17 37  1  0
 17 38  1  0
 19 39  1  0
 19 40  1  0
 20 41  1  0
 20 42  1  0
 22 43  1  0
 23 44  1  0
 24 45  1  0
 25 46  1  0
 28 47  1  0
 28 48  1  0
 29 49  1  0
 29 50  1  0
M  CHG  3   7  -1  12  -1  15   1
M  END
>  <UniqueID>  (76) 
70

>  <SMILES>  (76) 
O=C(c1cc2c([O-])cccc2[n-]c1=O)[NH+]1CCN(CCc2ccccc2Cl)CC1

>  <Energy>  (76) 
71.4481445075237

>  <Genealogy>  (76) 
O=C(c1cc2c([O-])cccc2[n-]c1=O)[NH+]1CCN(CCc2ccccc2Cl)CC1 (protonated)
O=C(c1cc2c([O-])cccc2[n-]c1=O)[NH+]1CCN(CCc2ccccc2Cl)CC1 (3D coordinates assigned)
O=C(c1cc2c([O-])cccc2[n-]c1=O)[NH+]1CCN(CCc2ccccc2Cl)CC1 (nonaromatic ring conformer: 71.4481445075237 kcal/mol)

>  <smiles>  (76) 
O=C(c1cc2c(O)cccc2[nH]c1=O)N1CCN(CCc2ccccc2Cl)CC1

>  <score_type>  (76) 
oracle

>  <origin>  (76) 
adg

>  <m_score__min__energy>  (76) 
-12.77

>  <m_primary>  (76) 
energy

$$$$
76:0
     RDKit          3D

 53 56  0  0  0  0  0  0  0  0999 V2000
   60.5730   26.8780   47.3690 C   0  0  0  0  0  0  0  0  0  0  0  0
   59.6390   27.8420   47.3990 C   0  0  0  0  0  0  0  0  0  0  0  0
   58.5100   27.9210   46.5720 C   0  0  0  0  0  0  0  0  0  0  0  0
   57.9270   27.0000   45.7820 C   0  0  0  0  0  0  0  0  0  0  0  0
   57.3140   25.7420   46.2440 C   0  0  0  0  0  0  0  0  0  0  0  0
   57.9970   24.6910   46.7360 N   0  0  0  0  0  0  0  0  0  0  0  0
   57.0210   23.8490   47.1400 C   0  0  0  0  0  0  0  0  0  0  0  0
   57.2660   22.7260   47.6530 O   0  0  0  0  0  0  0  0  0  0  0  0
   55.7650   24.3090   46.9630 N   0  0  0  0  0  0  0  0  0  0  0  0
   55.9700   25.5150   46.4060 C   0  0  0  0  0  0  0  0  0  0  0  0
   54.9510   26.3950   46.0580 O   0  0  0  0  0  0  0  0  0  0  0  0
   58.0310   29.2100   46.7000 C   0  0  0  0  0  0  0  0  0  0  0  0
   58.8100   29.8410   47.6480 C   0  0  0  0  0  0  0  0  0  0  0  0
   58.6650   31.2710   48.0050 C   0  0  0  0  0  0  0  0  0  0  0  0
   58.2040   31.5680   49.1400 O   0  0  0  0  0  0  0  0  0  0  0  0
   59.1070   32.3270   47.1220 N   0  0  0  0  0  0  0  0  0  0  0  0
   59.3990   33.6510   47.7050 C   0  0  0  0  0  0  0  0  0  0  0  0
   59.9760   34.6320   46.6780 C   0  0  0  0  0  0  0  0  0  0  0  0
   59.1700   34.5870   45.4110 C   0  0  0  0  0  0  0  0  0  0  0  0
   58.9250   35.6190   44.8040 O   0  0  0  0  0  0  0  0  0  0  0  0
   58.6890   33.2690   44.8730 C   0  0  0  0  0  0  0  0  0  0  0  0
   59.2710   32.1020   45.6750 C   0  0  0  0  0  0  0  0  0  0  0  0
   59.7740   28.9990   48.1050 N   0  0  0  0  0  0  0  0  0  0  0  0
   60.7930   29.3050   49.1300 C   0  0  0  0  0  0  0  0  0  0  0  0
   61.5460   30.5820   48.8130 C   0  0  0  0  0  0  0  0  0  0  0  0
   61.9410   30.8420   47.4890 C   0  0  0  0  0  0  0  0  0  0  0  0
   62.6400   32.0080   47.1680 C   0  0  0  0  0  0  0  0  0  0  0  0
   62.9290   32.9540   48.1590 C   0  0  0  0  0  0  0  0  0  0  0  0
   63.7140   34.1870   47.8220 C   0  0  0  0  0  0  0  0  0  0  0  0
   62.5270   32.7110   49.4790 C   0  0  0  0  0  0  0  0  0  0  0  0
   61.8260   31.5450   49.8090 C   0  0  0  0  0  0  0  0  0  0  0  0
   61.2850   31.3510   51.4700 Cl  0  0  0  0  0  0  0  0  0  0  0  0
   61.4226   26.9135   48.0668 H   0  0  0  0  0  0  0  0  0  0  0  0
   60.4886   26.0527   46.6466 H   0  0  0  0  0  0  0  0  0  0  0  0
   57.9065   27.2035   44.7012 H   0  0  0  0  0  0  0  0  0  0  0  0
   54.2740   26.6990   46.7470 H   0  0  0  0  0  0  0  0  0  0  0  0
   57.1869   29.6509   46.1495 H   0  0  0  0  0  0  0  0  0  0  0  0
   58.4664   34.0717   48.1090 H   0  0  0  0  0  0  0  0  0  0  0  0
   60.1542   33.5097   48.4922 H   0  0  0  0  0  0  0  0  0  0  0  0
   59.9467   35.6508   47.0918 H   0  0  0  0  0  0  0  0  0  0  0  0
   61.0150   34.3486   46.4538 H   0  0  0  0  0  0  0  0  0  0  0  0
   57.5912   33.2350   44.9340 H   0  0  0  0  0  0  0  0  0  0  0  0
   59.0208   33.1755   43.8284 H   0  0  0  0  0  0  0  0  0  0  0  0
   58.7497   31.1753   45.3929 H   0  0  0  0  0  0  0  0  0  0  0  0
   60.3448   32.0213   45.4506 H   0  0  0  0  0  0  0  0  0  0  0  0
   60.2950   29.4180   50.1043 H   0  0  0  0  0  0  0  0  0  0  0  0
   61.5173   28.4773   49.1493 H   0  0  0  0  0  0  0  0  0  0  0  0
   61.6968   30.1189   46.6968 H   0  0  0  0  0  0  0  0  0  0  0  0
   62.9649   32.1838   46.1319 H   0  0  0  0  0  0  0  0  0  0  0  0
   64.0310   34.6849   48.7502 H   0  0  0  0  0  0  0  0  0  0  0  0
   64.6010   33.9078   47.2343 H   0  0  0  0  0  0  0  0  0  0  0  0
   63.0857   34.8725   47.2343 H   0  0  0  0  0  0  0  0  0  0  0  0
   62.7646   33.4439   50.2641 H   0  0  0  0  0  0  0  0  0  0  0  0
  1  2  2  0
  2  3  1  0
  3  4  2  3
  4  5  1  0
  5  6  1  0
  6  7  1  0
  7  8  2  0
  7  9  1  0
  9 10  1  0
 10 11  1  0
  3 12  1  0
 12 13  2  0
 13 14  1  0
 14 15  2  0
 14 16  1  0
 16 17  1  0
 17 18  1  0
 18 19  1  0
 19 20  2  0
 19 21  1  0
 21 22  1  0
 13 23  1  0
 23 24  1  0
 24 25  1  0
 25 26  2  0
 26 27  1  0
 27 28  2  0
 28 29  1  0
 28 30  1  0
 30 31  2  0
 31 32  1  0
 23  2  1  0
 31 25  1  0
 10  5  2  0
 22 16  1  0
  1 33  1  0
  1 34  1  0
  4 35  1  0
 11 36  1  0
 12 37  1  0
 17 38  1  0
 17 39  1  0
 18 40  1  0
 18 41  1  0
 21 42  1  0
 21 43  1  0
 22 44  1  0
 22 45  1  0
 24 46  1  0
 24 47  1  0
 26 48  1  0
 27 49  1  0
 29 50  1  0
 29 51  1  0
 29 52  1  0
 30 53  1  0
M  CHG  2   6  -1   9  -1
M  END
>  <UniqueID>  (77) 
71

>  <SMILES>  (77) 
C=c1c(=Cc2[n-]c(=O)[n-]c2O)cc(C(=O)N2CCC(=O)CC2)n1Cc1ccc(C)cc1Cl

>  <Energy>  (77) 
129.00908967677987

>  <Genealogy>  (77) 
C=c1c(=Cc2[n-]c(=O)[n-]c2O)cc(C(=O)N2CCC(=O)CC2)n1Cc1ccc(C)cc1Cl (protonated)
C=c1c(=Cc2[n-]c(=O)[n-]c2O)cc(C(=O)N2CCC(=O)CC2)n1Cc1ccc(C)cc1Cl (3D coordinates assigned)
C=c1c(=Cc2[n-]c(=O)[n-]c2O)cc(C(=O)N2CCC(=O)CC2)n1Cc1ccc(C)cc1Cl (nonaromatic ring conformer: 129.00908967677987 kcal/mol)

>  <smiles>  (77) 
C=c1c(=Cc2[nH]c(=O)[nH]c2O)cc(C(=O)N2CCC(=O)CC2)n1Cc1ccc(C)cc1Cl

>  <score_type>  (77) 
oracle

>  <origin>  (77) 
adg

>  <m_score__min__energy>  (77) 
-13.42

>  <m_primary>  (77) 
energy

$$$$
77:0
     RDKit          3D

 50 52  0  0  0  0  0  0  0  0999 V2000
   66.4880   26.8310   51.4500 C   0  0  0  0  0  0  0  0  0  0  0  0
   66.2650   27.9610   52.4500 C   0  0  0  0  0  0  0  0  0  0  0  0
   66.0430   29.2670   51.7360 C   0  0  0  0  0  0  0  0  0  0  0  0
   67.1330   29.9960   51.2360 C   0  0  0  0  0  0  0  0  0  0  0  0
   66.9300   31.2230   50.5980 C   0  0  0  0  0  0  0  0  0  0  0  0
   65.6350   31.7460   50.4640 C   0  0  0  0  0  0  0  0  0  0  0  0
   65.4050   33.0480   49.7480 C   0  0  0  0  0  0  0  0  0  0  0  0
   64.0020   33.4590   49.8820 N   0  0  0  0  0  0  0  0  0  0  0  0
   63.5760   34.3140   50.9960 C   0  0  0  0  0  0  0  0  0  0  0  0
   62.2750   33.7710   51.5940 C   0  0  0  0  0  0  0  0  0  0  0  0
   61.2340   33.5880   50.5210 C   0  0  0  0  0  0  0  0  0  0  0  0
   61.5660   33.1880   49.2800 C   0  0  0  0  0  0  0  0  0  0  0  0
   60.5100   32.9620   48.2620 C   0  0  0  0  0  0  0  0  0  0  0  0
   59.4960   33.7140   48.2370 O   0  0  0  0  0  0  0  0  0  0  0  0
   60.6600   31.9340   47.2690 N   0  0  0  0  0  0  0  0  0  0  0  0
   59.5670   31.3860   46.5110 C   0  0  0  0  0  0  0  0  0  0  0  0
   59.3780   29.9980   46.3960 C   0  0  0  0  0  0  0  0  0  0  0  0
   58.3220   29.4880   45.6350 C   0  0  0  0  0  0  0  0  0  0  0  0
   57.4420   30.3550   44.9630 C   0  0  0  0  0  0  0  0  0  0  0  0
   56.3220   29.8130   44.1580 C   0  0  0  0  0  0  0  0  0  0  0  0
   55.1310   29.3470   44.7920 N   0  0  0  0  0  0  0  0  0  0  0  0
   56.4100   29.7560   42.9020 O   0  0  0  0  0  0  0  0  0  0  0  0
   57.6470   31.7420   45.0620 C   0  0  0  0  0  0  0  0  0  0  0  0
   58.7030   32.2510   45.8240 C   0  0  0  0  0  0  0  0  0  0  0  0
   63.0000   32.9900   48.9570 C   0  0  0  0  0  0  0  0  0  0  0  0
   63.3410   32.3830   47.9060 O   0  0  0  0  0  0  0  0  0  0  0  0
   64.5450   31.0200   50.9700 C   0  0  0  0  0  0  0  0  0  0  0  0
   64.7480   29.7940   51.6080 C   0  0  0  0  0  0  0  0  0  0  0  0
   66.6732   25.8923   51.9927 H   0  0  0  0  0  0  0  0  0  0  0  0
   65.5946   26.7190   50.8181 H   0  0  0  0  0  0  0  0  0  0  0  0
   67.3569   27.0668   50.8181 H   0  0  0  0  0  0  0  0  0  0  0  0
   65.3820   27.7306   53.0642 H   0  0  0  0  0  0  0  0  0  0  0  0
   67.1584   28.0526   53.0852 H   0  0  0  0  0  0  0  0  0  0  0  0
   68.1530   29.5995   51.3468 H   0  0  0  0  0  0  0  0  0  0  0  0
   67.7897   31.7813   50.1990 H   0  0  0  0  0  0  0  0  0  0  0  0
   66.0537   33.8220   50.1840 H   0  0  0  0  0  0  0  0  0  0  0  0
   65.6407   32.9178   48.6815 H   0  0  0  0  0  0  0  0  0  0  0  0
   64.3581   34.3237   51.7695 H   0  0  0  0  0  0  0  0  0  0  0  0
   63.4089   35.3368   50.6274 H   0  0  0  0  0  0  0  0  0  0  0  0
   62.4746   32.8012   52.0732 H   0  0  0  0  0  0  0  0  0  0  0  0
   61.8977   34.4912   52.3349 H   0  0  0  0  0  0  0  0  0  0  0  0
   60.1781   33.7859   50.7574 H   0  0  0  0  0  0  0  0  0  0  0  0
   61.6300   31.6430   47.0110 H   0  0  0  0  0  0  0  0  0  0  0  0
   60.0654   29.3086   46.9081 H   0  0  0  0  0  0  0  0  0  0  0  0
   58.1783   28.3999   45.5613 H   0  0  0  0  0  0  0  0  0  0  0  0
   55.1770   28.7310   45.6340 H   0  0  0  0  0  0  0  0  0  0  0  0
   56.9713   32.4324   44.5359 H   0  0  0  0  0  0  0  0  0  0  0  0
   58.8573   33.3384   45.8851 H   0  0  0  0  0  0  0  0  0  0  0  0
   63.5254   31.4189   50.8634 H   0  0  0  0  0  0  0  0  0  0  0  0
   63.8888   29.2386   52.0122 H   0  0  0  0  0  0  0  0  0  0  0  0
  1  2  1  0
  2  3  1  0
  3  4  2  0
  4  5  1  0
  5  6  2  0
  6  7  1  0
  7  8  1  0
  8  9  1  0
  9 10  1  0
 10 11  1  0
 11 12  2  0
 12 13  1  0
 13 14  2  0
 13 15  1  0
 15 16  1  0
 16 17  2  0
 17 18  1  0
 18 19  2  0
 19 20  1  0
 20 21  1  0
 20 22  2  0
 19 23  1  0
 23 24  2  0
 12 25  1  0
 25 26  2  0
  6 27  1  0
 27 28  2  0
 28  3  1  0
 25  8  1  0
 24 16  1  0
  1 29  1  0
  1 30  1  0
  1 31  1  0
  2 32  1  0
  2 33  1  0
  4 34  1  0
  5 35  1  0
  7 36  1  0
  7 37  1  0
  9 38  1  0
  9 39  1  0
 10 40  1  0
 10 41  1  0
 11 42  1  0
 15 43  1  0
 17 44  1  0
 18 45  1  0
 21 46  1  0
 23 47  1  0
 24 48  1  0
 27 49  1  0
 28 50  1  0
M  CHG  1  21  -1
M  END
>  <UniqueID>  (78) 
72

>  <SMILES>  (78) 
CCc1ccc(CN2CCC=C(C(=O)Nc3ccc(C([NH-])=O)cc3)C2=O)cc1

>  <Energy>  (78) 
51.590895970968965

>  <Genealogy>  (78) 
CCc1ccc(CN2CCC=C(C(=O)Nc3ccc(C([NH-])=O)cc3)C2=O)cc1 (protonated)
CCc1ccc(CN2CCC=C(C(=O)Nc3ccc(C([NH-])=O)cc3)C2=O)cc1 (3D coordinates assigned)
CCc1ccc(CN2CCC=C(C(=O)Nc3ccc(C([NH-])=O)cc3)C2=O)cc1 (nonaromatic ring conformer: 51.590895970968965 kcal/mol)

>  <smiles>  (78) 
CCc1ccc(CN2CCC=C(C(=O)Nc3ccc(C(N)=O)cc3)C2=O)cc1

>  <score_type>  (78) 
oracle

>  <origin>  (78) 
adg

>  <m_score__min__energy>  (78) 
-10.52

>  <m_primary>  (78) 
energy

$$$$
78:0
     RDKit          3D

 56 58  0  0  0  0  0  0  0  0999 V2000
   55.4000   26.7150   45.8220 O   0  0  0  0  0  0  0  0  0  0  0  0
   56.2810   27.5960   45.6350 C   0  0  0  0  0  0  0  0  0  0  0  0
   57.7190   27.2740   45.8920 C   0  0  0  0  0  0  0  0  0  0  0  0
   58.3590   28.3870   46.5880 N   0  0  0  0  0  0  0  0  0  0  0  0
   59.4270   28.1830   47.5230 C   0  0  0  0  0  0  0  0  0  0  0  0
   60.0990   27.1160   47.5000 O   0  0  0  0  0  0  0  0  0  0  0  0
   59.7430   29.2360   48.5430 C   0  0  0  0  0  0  0  0  0  0  0  0
   58.9950   30.4270   48.2830 O   0  0  0  0  0  0  0  0  0  0  0  0
   59.5510   31.7030   48.0930 C   0  0  0  0  0  0  0  0  0  0  0  0
   58.7910   32.8840   48.1940 C   0  0  0  0  0  0  0  0  0  0  0  0
   59.3880   34.1250   47.9650 C   0  0  0  0  0  0  0  0  0  0  0  0
   60.7420   34.2030   47.6340 C   0  0  0  0  0  0  0  0  0  0  0  0
   61.5090   33.0380   47.5420 C   0  0  0  0  0  0  0  0  0  0  0  0
   63.2130   33.1450   47.1030 S   0  0  0  0  0  0  0  0  0  0  0  0
   63.3760   33.9940   45.8720 O   0  0  0  0  0  0  0  0  0  0  0  0
   63.7130   31.7640   46.7910 O   0  0  0  0  0  0  0  0  0  0  0  0
   64.1720   33.8130   48.3930 N   0  0  0  0  0  0  0  0  0  0  0  0
   64.4270   32.8320   49.4510 C   0  0  0  0  0  0  0  0  0  0  0  0
   63.1750   32.5130   50.2290 C   0  0  0  0  0  0  0  0  0  0  0  0
   62.8010   31.1780   50.4570 C   0  0  0  0  0  0  0  0  0  0  0  0
   61.6280   30.8850   51.1610 C   0  0  0  0  0  0  0  0  0  0  0  0
   60.8180   31.9180   51.6340 C   0  0  0  0  0  0  0  0  0  0  0  0
   61.1780   33.2490   51.4050 C   0  0  0  0  0  0  0  0  0  0  0  0
   62.3500   33.5470   50.7030 C   0  0  0  0  0  0  0  0  0  0  0  0
   60.9120   31.7920   47.7790 C   0  0  0  0  0  0  0  0  0  0  0  0
   55.9160   28.8870   45.1440 N   0  0  0  0  0  0  0  0  0  0  0  0
   56.2630   29.3440   43.8050 C   0  0  0  0  0  0  0  0  0  0  0  0
   57.0380   30.6270   43.8990 C   0  0  0  0  0  0  0  0  0  0  0  0
   57.3650   31.3480   42.7390 C   0  0  0  0  0  0  0  0  0  0  0  0
   58.0560   32.5610   42.8340 C   0  0  0  0  0  0  0  0  0  0  0  0
   58.4170   33.0650   44.0850 C   0  0  0  0  0  0  0  0  0  0  0  0
   59.0810   34.2450   44.1760 F   0  0  0  0  0  0  0  0  0  0  0  0
   58.0890   32.3570   45.2470 C   0  0  0  0  0  0  0  0  0  0  0  0
   57.4010   31.1420   45.1550 C   0  0  0  0  0  0  0  0  0  0  0  0
   57.7850   26.3686   46.5132 H   0  0  0  0  0  0  0  0  0  0  0  0
   58.2299   27.1038   44.9328 H   0  0  0  0  0  0  0  0  0  0  0  0
   57.9430   29.3400   46.4920 H   0  0  0  0  0  0  0  0  0  0  0  0
   59.4863   28.8588   49.5439 H   0  0  0  0  0  0  0  0  0  0  0  0
   60.8161   29.4716   48.4897 H   0  0  0  0  0  0  0  0  0  0  0  0
   57.7236   32.8286   48.4541 H   0  0  0  0  0  0  0  0  0  0  0  0
   58.7895   35.0444   48.0456 H   0  0  0  0  0  0  0  0  0  0  0  0
   61.2059   35.1824   47.4454 H   0  0  0  0  0  0  0  0  0  0  0  0
   64.8088   31.9067   48.9948 H   0  0  0  0  0  0  0  0  0  0  0  0
   65.1631   33.2612   50.1466 H   0  0  0  0  0  0  0  0  0  0  0  0
   63.4329   30.3601   50.0806 H   0  0  0  0  0  0  0  0  0  0  0  0
   61.3437   29.8379   51.3420 H   0  0  0  0  0  0  0  0  0  0  0  0
   59.8962   31.6849   52.1871 H   0  0  0  0  0  0  0  0  0  0  0  0
   60.5386   34.0629   51.7774 H   0  0  0  0  0  0  0  0  0  0  0  0
   62.6274   34.5958   50.5210 H   0  0  0  0  0  0  0  0  0  0  0  0
   61.5184   30.8763   47.7177 H   0  0  0  0  0  0  0  0  0  0  0  0
   56.8769   28.5806   43.3047 H   0  0  0  0  0  0  0  0  0  0  0  0
   55.3434   29.5128   43.2254 H   0  0  0  0  0  0  0  0  0  0  0  0
   57.0768   30.9576   41.7518 H   0  0  0  0  0  0  0  0  0  0  0  0
   58.3152   33.1183   41.9217 H   0  0  0  0  0  0  0  0  0  0  0  0
   58.3720   32.7556   46.2324 H   0  0  0  0  0  0  0  0  0  0  0  0
   57.1433   30.5878   46.0696 H   0  0  0  0  0  0  0  0  0  0  0  0
  1  2  2  0
  2  3  1  0
  3  4  1  0
  4  5  1  0
  5  6  2  0
  5  7  1  0
  7  8  1  0
  8  9  1  0
  9 10  2  0
 10 11  1  0
 11 12  2  0
 12 13  1  0
 13 14  1  0
 14 15  2  0
 14 16  2  0
 14 17  1  0
 17 18  1  0
 18 19  1  0
 19 20  2  0
 20 21  1  0
 21 22  2  0
 22 23  1  0
 23 24  2  0
 13 25  2  0
  2 26  1  0
 26 27  1  0
 27 28  1  0
 28 29  2  0
 29 30  1  0
 30 31  2  0
 31 32  1  0
 31 33  1  0
 33 34  2  0
 25  9  1  0
 34 28  1  0
 24 19  1  0
  3 35  1  0
  3 36  1  0
  4 37  1  0
  7 38  1  0
  7 39  1  0
 10 40  1  0
 11 41  1  0
 12 42  1  0
 18 43  1  0
 18 44  1  0
 20 45  1  0
 21 46  1  0
 22 47  1  0
 23 48  1  0
 24 49  1  0
 25 50  1  0
 27 51  1  0
 27 52  1  0
 29 53  1  0
 30 54  1  0
 33 55  1  0
 34 56  1  0
M  CHG  2  17  -1  26  -1
M  END
>  <UniqueID>  (79) 
73

>  <SMILES>  (79) 
O=C(CNC(=O)COc1cccc(S(=O)(=O)[N-]Cc2ccccc2)c1)[N-]Cc1ccc(F)cc1

>  <Energy>  (79) 
46.65283019845184

>  <Genealogy>  (79) 
O=C(CNC(=O)COc1cccc(S(=O)(=O)[N-]Cc2ccccc2)c1)[N-]Cc1ccc(F)cc1 (protonated)
O=C(CNC(=O)COc1cccc(S(=O)(=O)[N-]Cc2ccccc2)c1)[N-]Cc1ccc(F)cc1 (3D coordinates assigned)
O=C(CNC(=O)COc1cccc(S(=O)(=O)[N-]Cc2ccccc2)c1)[N-]Cc1ccc(F)cc1 (optimized conformer: 46.65283019845184 kcal/mol)

>  <smiles>  (79) 
O=C(CNC(=O)COc1cccc(S(=O)(=O)NCc2ccccc2)c1)NCc1ccc(F)cc1

>  <score_type>  (79) 
oracle

>  <origin>  (79) 
adg

>  <m_score__min__energy>  (79) 
-11.93

>  <m_primary>  (79) 
energy

$$$$
79:0
     RDKit          3D

 39 41  0  0  0  0  0  0  0  0999 V2000
   64.9900   33.4600   49.0670 O   0  0  0  0  0  0  0  0  0  0  0  0
   63.9800   32.7840   49.4060 C   0  0  0  0  0  0  0  0  0  0  0  0
   64.0120   32.0260   50.6250 N   0  0  0  0  0  0  0  0  0  0  0  0
   65.2510   31.8750   51.3900 C   0  0  0  0  0  0  0  0  0  0  0  0
   66.3890   31.3490   50.5100 C   0  0  0  0  0  0  0  0  0  0  0  0
   67.1590   32.4080   50.0090 O   0  0  0  0  0  0  0  0  0  0  0  0
   62.7720   32.8040   48.5450 C   0  0  0  0  0  0  0  0  0  0  0  0
   61.7980   31.8010   48.6800 C   0  0  0  0  0  0  0  0  0  0  0  0
   60.6500   31.8090   47.8810 C   0  0  0  0  0  0  0  0  0  0  0  0
   60.4450   32.8280   46.9330 C   0  0  0  0  0  0  0  0  0  0  0  0
   59.2320   32.8630   46.0760 C   0  0  0  0  0  0  0  0  0  0  0  0
   58.8310   33.9640   45.3090 C   0  0  0  0  0  0  0  0  0  0  0  0
   57.4270   33.5470   44.4770 S   0  0  0  0  0  0  0  0  0  0  0  0
   57.3930   31.9960   45.1110 C   0  0  0  0  0  0  0  0  0  0  0  0
   56.4640   31.1280   44.8440 N   0  0  0  0  0  0  0  0  0  0  0  0
   56.5630   29.7050   45.0080 C   0  0  0  0  0  0  0  0  0  0  0  0
   55.5220   29.0090   44.8820 O   0  0  0  0  0  0  0  0  0  0  0  0
   57.8530   29.0290   45.2540 C   0  0  0  0  0  0  0  0  0  0  0  0
   58.9390   29.0290   44.3980 C   0  0  0  0  0  0  0  0  0  0  0  0
   59.9150   28.2860   45.0300 C   0  0  0  0  0  0  0  0  0  0  0  0
   59.3650   27.8880   46.2300 C   0  0  0  0  0  0  0  0  0  0  0  0
   60.2280   26.8160   47.5480 Br  0  0  0  0  0  0  0  0  0  0  0  0
   58.1410   28.3490   46.3410 O   0  0  0  0  0  0  0  0  0  0  0  0
   58.4170   31.7770   45.9620 N   0  0  0  0  0  0  0  0  0  0  0  0
   61.4200   33.8330   46.8040 C   0  0  0  0  0  0  0  0  0  0  0  0
   62.5650   33.8270   47.6030 C   0  0  0  0  0  0  0  0  0  0  0  0
   63.1280   31.6080   50.9940 H   0  0  0  0  0  0  0  0  0  0  0  0
   65.5394   32.8536   51.8014 H   0  0  0  0  0  0  0  0  0  0  0  0
   65.0736   31.1497   52.1977 H   0  0  0  0  0  0  0  0  0  0  0  0
   67.0319   30.6870   51.1088 H   0  0  0  0  0  0  0  0  0  0  0  0
   65.9548   30.7966   49.6637 H   0  0  0  0  0  0  0  0  0  0  0  0
   66.7510   32.6710   49.1430 H   0  0  0  0  0  0  0  0  0  0  0  0
   61.9395   31.0011   49.4217 H   0  0  0  0  0  0  0  0  0  0  0  0
   59.9009   31.0116   47.9949 H   0  0  0  0  0  0  0  0  0  0  0  0
   59.3451   34.9352   45.2585 H   0  0  0  0  0  0  0  0  0  0  0  0
   59.0101   29.5199   43.4162 H   0  0  0  0  0  0  0  0  0  0  0  0
   60.9234   28.0583   44.6541 H   0  0  0  0  0  0  0  0  0  0  0  0
   61.2788   34.6344   46.0639 H   0  0  0  0  0  0  0  0  0  0  0  0
   63.3106   34.6285   47.4947 H   0  0  0  0  0  0  0  0  0  0  0  0
  1  2  2  0
  2  3  1  0
  3  4  1  0
  4  5  1  0
  5  6  1  0
  2  7  1  0
  7  8  2  0
  8  9  1  0
  9 10  2  0
 10 11  1  0
 11 12  2  0
 12 13  1  0
 13 14  1  0
 14 15  2  3
 15 16  1  0
 16 17  2  0
 16 18  1  0
 18 19  2  0
 19 20  1  0
 20 21  2  0
 21 22  1  0
 21 23  1  0
 14 24  1  0
 10 25  1  0
 25 26  2  0
 26  7  1  0
 24 11  1  0
 23 18  1  0
  3 27  1  0
  4 28  1  0
  4 29  1  0
  5 30  1  0
  5 31  1  0
  6 32  1  0
  8 33  1  0
  9 34  1  0
 12 35  1  0
 19 36  1  0
 20 37  1  0
 25 38  1  0
 26 39  1  0
M  CHG  1  24  -1
M  END
>  <UniqueID>  (80) 
74

>  <SMILES>  (80) 
O=C(NCCO)c1ccc(-c2csc(=NC(=O)c3ccc(Br)o3)[n-]2)cc1

>  <Energy>  (80) 
101.25773811903451

>  <Genealogy>  (80) 
O=C(NCCO)c1ccc(-c2csc(=NC(=O)c3ccc(Br)o3)[n-]2)cc1 (protonated)
O=C(NCCO)c1ccc(-c2csc(=NC(=O)c3ccc(Br)o3)[n-]2)cc1 (3D coordinates assigned)
O=C(NCCO)c1ccc(-c2csc(=NC(=O)c3ccc(Br)o3)[n-]2)cc1 (optimized conformer: 101.25773811903451 kcal/mol)

>  <smiles>  (80) 
O=C(NCCO)c1ccc(-c2csc(=NC(=O)c3ccc(Br)o3)[nH]2)cc1

>  <score_type>  (80) 
oracle

>  <origin>  (80) 
adg

>  <m_score__min__energy>  (80) 
-9.4100000000000001

>  <m_primary>  (80) 
energy

$$$$
80:0
     RDKit          3D

 70 74  0  0  0  0  0  0  0  0999 V2000
   63.1128   30.5107   49.5184 H   0  0  0  0  0  0  0  0  0  0  0  0
   62.6030   30.8040   50.4480 C   0  0  0  0  0  0  0  0  0  0  0  0
   61.4130   30.2530   50.7520 C   0  0  0  0  0  0  0  0  0  0  0  0
   60.7810   29.2550   49.8530 C   0  0  0  0  0  0  0  0  0  0  0  0
   61.1400   28.0500   49.9350 O   0  0  0  0  0  0  0  0  0  0  0  0
   59.7780   29.6410   48.8950 N   0  0  0  0  0  0  0  0  0  0  0  0
   59.3930   30.6090   48.9250 H   0  0  0  0  0  0  0  0  0  0  0  0
   59.3980   28.8210   47.7800 C   0  0  0  0  0  0  0  0  0  0  0  0
   59.2480   27.4310   47.9100 C   0  0  0  0  0  0  0  0  0  0  0  0
   59.4295   26.9475   48.8812 H   0  0  0  0  0  0  0  0  0  0  0  0
   58.8690   26.6620   46.8090 C   0  0  0  0  0  0  0  0  0  0  0  0
   58.7569   25.5729   46.9154 H   0  0  0  0  0  0  0  0  0  0  0  0
   58.6310   27.2670   45.5720 C   0  0  0  0  0  0  0  0  0  0  0  0
   58.3471   26.6502   44.7066 H   0  0  0  0  0  0  0  0  0  0  0  0
   58.7530   28.6640   45.4280 C   0  0  0  0  0  0  0  0  0  0  0  0
   58.5540   29.3590   44.1310 C   0  0  0  0  0  0  0  0  0  0  0  0
   59.4476   29.6346   43.5518 H   0  0  0  0  0  0  0  0  0  0  0  0
   57.3540   29.6720   43.6210 C   0  0  0  0  0  0  0  0  0  0  0  0
   57.2062   29.6139   42.5325 H   0  0  0  0  0  0  0  0  0  0  0  0
   56.2280   30.0910   44.4720 C   0  0  0  0  0  0  0  0  0  0  0  0
   55.4180   29.2190   44.8870 O   0  0  0  0  0  0  0  0  0  0  0  0
   56.0730   31.4640   44.8580 N   0  0  0  0  0  0  0  0  0  0  0  0
   57.1320   32.4130   45.0470 C   0  0  0  0  0  0  0  0  0  0  0  0
   57.8480   32.9470   43.9620 C   0  0  0  0  0  0  0  0  0  0  0  0
   57.5757   32.6663   42.9339 H   0  0  0  0  0  0  0  0  0  0  0  0
   58.9030   33.8320   44.1850 C   0  0  0  0  0  0  0  0  0  0  0  0
   59.4488   34.2608   43.3317 H   0  0  0  0  0  0  0  0  0  0  0  0
   59.2680   34.1750   45.4880 C   0  0  0  0  0  0  0  0  0  0  0  0
   60.1016   34.8726   45.6566 H   0  0  0  0  0  0  0  0  0  0  0  0
   58.5790   33.6360   46.5820 C   0  0  0  0  0  0  0  0  0  0  0  0
   59.0050   33.9940   47.9030 N   0  0  0  0  0  0  0  0  0  0  0  0
   60.0840   33.0650   48.8930 S   0  0  0  0  0  0  0  0  0  0  0  0
   60.7810   32.0240   48.0630 O   0  0  0  0  0  0  0  0  0  0  0  0
   59.3110   32.4060   50.0020 O   0  0  0  0  0  0  0  0  0  0  0  0
   61.2980   34.1550   49.5990 C   0  0  0  0  0  0  0  0  0  0  0  0
   61.2419   34.1047   50.6964 H   0  0  0  0  0  0  0  0  0  0  0  0
   62.3017   33.8491   49.2687 H   0  0  0  0  0  0  0  0  0  0  0  0
   61.1016   35.1857   49.2687 H   0  0  0  0  0  0  0  0  0  0  0  0
   57.5090   32.7500   46.3530 C   0  0  0  0  0  0  0  0  0  0  0  0
   56.9650   32.3192   47.2065 H   0  0  0  0  0  0  0  0  0  0  0  0
   59.1340   29.4290   46.5440 C   0  0  0  0  0  0  0  0  0  0  0  0
   59.2265   30.5208   46.4465 H   0  0  0  0  0  0  0  0  0  0  0  0
   60.7910   30.5030   52.1140 C   0  0  0  0  0  0  0  0  0  0  0  0
   59.7001   30.5770   51.9934 H   0  0  0  0  0  0  0  0  0  0  0  0
   61.0749   29.6634   52.7656 H   0  0  0  0  0  0  0  0  0  0  0  0
   61.2650   31.7050   52.7310 O   0  0  0  0  0  0  0  0  0  0  0  0
   62.5310   32.2330   52.4630 C   0  0  0  0  0  0  0  0  0  0  0  0
   63.0820   33.2090   53.2970 C   0  0  0  0  0  0  0  0  0  0  0  0
   62.5265   33.5548   54.1812 H   0  0  0  0  0  0  0  0  0  0  0  0
   64.3400   33.7460   53.0070 C   0  0  0  0  0  0  0  0  0  0  0  0
   64.7772   34.5047   53.6728 H   0  0  0  0  0  0  0  0  0  0  0  0
   65.0500   33.3220   51.8690 C   0  0  0  0  0  0  0  0  0  0  0  0
   66.3760   33.9060   51.5510 C   0  0  0  0  0  0  0  0  0  0  0  0
   67.3170   33.1420   50.8370 C   0  0  0  0  0  0  0  0  0  0  0  0
   67.0695   32.1132   50.5365 H   0  0  0  0  0  0  0  0  0  0  0  0
   68.5620   33.6790   50.5070 C   0  0  0  0  0  0  0  0  0  0  0  0
   69.2906   33.0734   49.9481 H   0  0  0  0  0  0  0  0  0  0  0  0
   68.8840   34.9830   50.8850 C   0  0  0  0  0  0  0  0  0  0  0  0
   69.8642   35.4057   50.6192 H   0  0  0  0  0  0  0  0  0  0  0  0
   67.9640   35.7520   51.6000 C   0  0  0  0  0  0  0  0  0  0  0  0
   68.2230   36.7799   51.8938 H   0  0  0  0  0  0  0  0  0  0  0  0
   66.7060   35.2210   51.9480 C   0  0  0  0  0  0  0  0  0  0  0  0
   65.7770   35.9620   52.6990 O   0  0  0  0  0  0  0  0  0  0  0  0
   65.7530   37.3830   52.7840 C   0  0  0  0  0  0  0  0  0  0  0  0
   65.7479   37.6870   53.8411 H   0  0  0  0  0  0  0  0  0  0  0  0
   66.6443   37.7951   52.2883 H   0  0  0  0  0  0  0  0  0  0  0  0
   64.8483   37.7647   52.2883 H   0  0  0  0  0  0  0  0  0  0  0  0
   64.4910   32.3330   51.0410 C   0  0  0  0  0  0  0  0  0  0  0  0
   65.0436   31.9829   50.1566 H   0  0  0  0  0  0  0  0  0  0  0  0
   63.2330   31.7910   51.3370 C   0  0  0  0  0  0  0  0  0  0  0  0
  1  2  1  0
  2  3  2  0
  3  4  1  0
  4  5  2  0
  4  6  1  0
  6  7  1  0
  6  8  1  0
  8  9  2  0
  9 10  1  0
  9 11  1  0
 11 12  1  0
 11 13  2  0
 13 14  1  0
 13 15  1  0
 15 16  1  0
 16 17  1  0
 16 18  2  0
 18 19  1  0
 18 20  1  0
 20 21  2  0
 20 22  1  0
 22 23  1  0
 23 24  2  0
 24 25  1  0
 24 26  1  0
 26 27  1  0
 26 28  2  0
 28 29  1  0
 28 30  1  0
 30 31  1  0
 31 32  1  0
 32 33  2  0
 32 34  2  0
 32 35  1  0
 35 36  1  0
 35 37  1  0
 35 38  1  0
 30 39  2  0
 39 40  1  0
 15 41  2  0
 41 42  1  0
  3 43  1  0
 43 44  1  0
 43 45  1  0
 43 46  1  0
 46 47  1  0
 47 48  2  0
 48 49  1  0
 48 50  1  0
 50 51  1  0
 50 52  2  0
 52 53  1  0
 53 54  2  0
 54 55  1  0
 54 56  1  0
 56 57  1  0
 56 58  2  0
 58 59  1  0
 58 60  1  0
 60 61  1  0
 60 62  2  0
 62 63  1  0
 63 64  1  0
 64 65  1  0
 64 66  1  0
 64 67  1  0
 52 68  1  0
 68 69  1  0
 68 70  2  0
 70  2  1  0
 41  8  1  0
 70 47  1  0
 39 23  1  0
 62 53  1  0
M  CHG  2  22  -1  31  -1
M  END
>  <UniqueID>  (81) 
75

>  <SMILES>  (81) 
COc1ccccc1-c1ccc2c(c1)C=C(C(=O)Nc1cccc(/C=C/C(=O)[N-]c3cccc([N-]S(C)(=O)=O)c3)c1)CO2

>  <Energy>  (81) 
95.95466657465995

>  <Genealogy>  (81) 
COc1ccccc1-c1ccc2c(c1)C=C(C(=O)Nc1cccc(C=CC(=O)[N-]c3cccc([N-]S(C)(=O)=O)c3)c1)CO2 (protonated)
COc1ccccc1-c1ccc2c(c1)C=C(C(=O)Nc1cccc(/C=C/C(=O)[N-]c3cccc([N-]S(C)(=O)=O)c3)c1)CO2 (cis-trans isomerization)
COc1ccccc1-c1ccc2c(c1)C=C(C(=O)Nc1cccc(/C=C/C(=O)[N-]c3cccc([N-]S(C)(=O)=O)c3)c1)CO2 (3D coordinates assigned)
COc1ccccc1-c1ccc2c(c1)C=C(C(=O)Nc1cccc(/C=C/C(=O)[N-]c3cccc([N-]S(C)(=O)=O)c3)c1)CO2 (nonaromatic ring conformer: 95.95466657465995 kcal/mol)

>  <smiles>  (81) 
COc1ccccc1-c1ccc2c(c1)C=C(C(=O)Nc1cccc(C=CC(=O)Nc3cccc(NS(C)(=O)=O)c3)c1)CO2

>  <score_type>  (81) 
oracle

>  <origin>  (81) 
adg

>  <m_score__min__energy>  (81) 
-14.529999999999999

>  <m_primary>  (81) 
energy

$$$$
81:0
     RDKit          3D

 52 54  0  0  0  0  0  0  0  0999 V2000
   57.0070   24.3160   47.5280 C   0  0  0  0  0  0  0  0  0  0  0  0
   56.9700   23.8590   46.0930 C   0  0  0  0  0  0  0  0  0  0  0  0
   57.9520   22.9630   45.6340 C   0  0  0  0  0  0  0  0  0  0  0  0
   57.9420   22.5150   44.3120 C   0  0  0  0  0  0  0  0  0  0  0  0
   56.9530   22.9520   43.4320 C   0  0  0  0  0  0  0  0  0  0  0  0
   55.9720   23.8430   43.8690 C   0  0  0  0  0  0  0  0  0  0  0  0
   55.9620   24.3040   45.1980 C   0  0  0  0  0  0  0  0  0  0  0  0
   54.8900   25.2790   45.6250 C   0  0  0  0  0  0  0  0  0  0  0  0
   55.4810   26.4340   46.2890 N   0  0  0  0  0  0  0  0  0  0  0  0
   56.2950   27.4050   45.6260 C   0  0  0  0  0  0  0  0  0  0  0  0
   55.7920   28.4930   45.2330 O   0  0  0  0  0  0  0  0  0  0  0  0
   57.7450   27.0930   45.3880 C   0  0  0  0  0  0  0  0  0  0  0  0
   58.6790   27.7420   46.4210 C   0  0  0  0  0  0  0  0  0  0  0  0
   58.6810   29.2380   46.2580 C   0  0  0  0  0  0  0  0  0  0  0  0
   58.8550   30.0730   47.3740 C   0  0  0  0  0  0  0  0  0  0  0  0
   58.8050   31.4630   47.2310 C   0  0  0  0  0  0  0  0  0  0  0  0
   58.5660   32.0330   45.9730 C   0  0  0  0  0  0  0  0  0  0  0  0
   58.4540   33.7800   45.7820 S   0  0  0  0  0  0  0  0  0  0  0  0
   57.0160   34.1900   45.9260 O   0  0  0  0  0  0  0  0  0  0  0  0
   58.9450   34.2060   44.4260 O   0  0  0  0  0  0  0  0  0  0  0  0
   59.4010   34.5650   47.0070 N   0  0  0  0  0  0  0  0  0  0  0  0
   60.7270   34.1460   47.3880 C   0  0  0  0  0  0  0  0  0  0  0  0
   61.7090   33.8310   46.4270 C   0  0  0  0  0  0  0  0  0  0  0  0
   62.9860   33.4240   46.8250 C   0  0  0  0  0  0  0  0  0  0  0  0
   63.3020   33.3310   48.1810 C   0  0  0  0  0  0  0  0  0  0  0  0
   62.3410   33.6470   49.1440 C   0  0  0  0  0  0  0  0  0  0  0  0
   61.0600   34.0550   48.7540 C   0  0  0  0  0  0  0  0  0  0  0  0
   60.1440   34.3530   49.7090 F   0  0  0  0  0  0  0  0  0  0  0  0
   58.3840   31.2030   44.8600 C   0  0  0  0  0  0  0  0  0  0  0  0
   58.4380   29.8130   45.0010 C   0  0  0  0  0  0  0  0  0  0  0  0
   56.9363   23.4426   48.1929 H   0  0  0  0  0  0  0  0  0  0  0  0
   57.9511   24.8471   47.7195 H   0  0  0  0  0  0  0  0  0  0  0  0
   56.1606   24.9920   47.7195 H   0  0  0  0  0  0  0  0  0  0  0  0
   58.7347   22.6122   46.3227 H   0  0  0  0  0  0  0  0  0  0  0  0
   58.7163   21.8155   43.9638 H   0  0  0  0  0  0  0  0  0  0  0  0
   56.9459   22.5940   42.3919 H   0  0  0  0  0  0  0  0  0  0  0  0
   55.1986   24.1884   43.1671 H   0  0  0  0  0  0  0  0  0  0  0  0
   54.3349   25.6172   44.7376 H   0  0  0  0  0  0  0  0  0  0  0  0
   54.2120   24.7742   46.3289 H   0  0  0  0  0  0  0  0  0  0  0  0
   57.8799   26.0021   45.4308 H   0  0  0  0  0  0  0  0  0  0  0  0
   58.0110   27.5028   44.4024 H   0  0  0  0  0  0  0  0  0  0  0  0
   58.3322   27.4880   47.4335 H   0  0  0  0  0  0  0  0  0  0  0  0
   59.7005   27.3644   46.2661 H   0  0  0  0  0  0  0  0  0  0  0  0
   59.0315   29.6310   48.3657 H   0  0  0  0  0  0  0  0  0  0  0  0
   58.9536   32.1106   48.1077 H   0  0  0  0  0  0  0  0  0  0  0  0
   58.9330   35.3340   47.5360 H   0  0  0  0  0  0  0  0  0  0  0  0
   61.4689   33.9060   45.3562 H   0  0  0  0  0  0  0  0  0  0  0  0
   63.7438   33.1764   46.0671 H   0  0  0  0  0  0  0  0  0  0  0  0
   64.3071   33.0091   48.4912 H   0  0  0  0  0  0  0  0  0  0  0  0
   62.5916   33.5750   50.2126 H   0  0  0  0  0  0  0  0  0  0  0  0
   58.1978   31.6464   43.8707 H   0  0  0  0  0  0  0  0  0  0  0  0
   58.2894   29.1673   44.1229 H   0  0  0  0  0  0  0  0  0  0  0  0
  1  2  1  0
  2  3  2  0
  3  4  1  0
  4  5  2  0
  5  6  1  0
  6  7  2  0
  7  8  1  0
  8  9  1  0
  9 10  1  0
 10 11  2  0
 10 12  1  0
 12 13  1  0
 13 14  1  0
 14 15  2  0
 15 16  1  0
 16 17  2  0
 17 18  1  0
 18 19  2  0
 18 20  2  0
 18 21  1  0
 21 22  1  0
 22 23  2  0
 23 24  1  0
 24 25  2  0
 25 26  1  0
 26 27  2  0
 27 28  1  0
 17 29  1  0
 29 30  2  0
  7  2  1  0
 30 14  1  0
 27 22  1  0
  1 31  1  0
  1 32  1  0
  1 33  1  0
  3 34  1  0
  4 35  1  0
  5 36  1  0
  6 37  1  0
  8 38  1  0
  8 39  1  0
 12 40  1  0
 12 41  1  0
 13 42  1  0
 13 43  1  0
 15 44  1  0
 16 45  1  0
 21 46  1  0
 23 47  1  0
 24 48  1  0
 25 49  1  0
 26 50  1  0
 29 51  1  0
 30 52  1  0
M  CHG  1   9  -1
M  END
>  <UniqueID>  (82) 
76

>  <SMILES>  (82) 
Cc1ccccc1C[N-]C(=O)CCc1ccc(S(=O)(=O)Nc2ccccc2F)cc1

>  <Energy>  (82) 
53.596273017381456

>  <Genealogy>  (82) 
Cc1ccccc1C[N-]C(=O)CCc1ccc(S(=O)(=O)Nc2ccccc2F)cc1 (protonated)
Cc1ccccc1C[N-]C(=O)CCc1ccc(S(=O)(=O)Nc2ccccc2F)cc1 (3D coordinates assigned)
Cc1ccccc1C[N-]C(=O)CCc1ccc(S(=O)(=O)Nc2ccccc2F)cc1 (optimized conformer: 53.596273017381456 kcal/mol)

>  <smiles>  (82) 
Cc1ccccc1CNC(=O)CCc1ccc(S(=O)(=O)Nc2ccccc2F)cc1

>  <score_type>  (82) 
oracle

>  <origin>  (82) 
adg

>  <m_score__min__energy>  (82) 
-11.289999999999999

>  <m_primary>  (82) 
energy

$$$$
82:0
     RDKit          3D

 72 76  0  0  0  0  0  0  0  0999 V2000
   58.4612   35.3976   47.5292 H   0  0  0  0  0  0  0  0  0  0  0  0
   58.6030   34.5480   46.8450 C   0  0  0  0  0  0  0  0  0  0  0  0
   57.3770   33.7040   46.0590 S   0  0  0  0  0  0  0  0  0  0  0  0
   58.4650   32.6970   45.2540 C   0  0  0  0  0  0  0  0  0  0  0  0
   58.1580   31.6890   44.4920 N   0  0  0  0  0  0  0  0  0  0  0  0
   57.2600   30.6250   44.8000 C   0  0  0  0  0  0  0  0  0  0  0  0
   56.0130   30.8260   44.7750 O   0  0  0  0  0  0  0  0  0  0  0  0
   57.8030   29.2850   45.1780 C   0  0  0  0  0  0  0  0  0  0  0  0
   57.0330   28.1360   44.8760 C   0  0  0  0  0  0  0  0  0  0  0  0
   56.0185   28.2524   44.4670 H   0  0  0  0  0  0  0  0  0  0  0  0
   57.5480   26.8580   45.0920 C   0  0  0  0  0  0  0  0  0  0  0  0
   56.9263   25.9753   44.8814 H   0  0  0  0  0  0  0  0  0  0  0  0
   58.8480   26.6920   45.5740 C   0  0  0  0  0  0  0  0  0  0  0  0
   59.2449   25.6804   45.7447 H   0  0  0  0  0  0  0  0  0  0  0  0
   59.6460   27.8080   45.8400 C   0  0  0  0  0  0  0  0  0  0  0  0
   60.6789   27.6740   46.1939 H   0  0  0  0  0  0  0  0  0  0  0  0
   59.1280   29.1030   45.6550 C   0  0  0  0  0  0  0  0  0  0  0  0
   59.9450   30.2190   46.0400 N   0  0  0  0  0  0  0  0  0  0  0  0
   60.0330   31.0280   45.3850 H   0  0  0  0  0  0  0  0  0  0  0  0
   60.9090   30.2030   47.4770 S   0  0  0  0  0  0  0  0  0  0  0  0
   61.1310   28.7820   47.9200 O   0  0  0  0  0  0  0  0  0  0  0  0
   62.2480   30.8300   47.1820 O   0  0  0  0  0  0  0  0  0  0  0  0
   60.1180   31.0940   48.7760 C   0  0  0  0  0  0  0  0  0  0  0  0
   60.7600   31.2190   50.0180 C   0  0  0  0  0  0  0  0  0  0  0  0
   61.7586   30.7830   50.1689 H   0  0  0  0  0  0  0  0  0  0  0  0
   60.1280   31.8980   51.0610 C   0  0  0  0  0  0  0  0  0  0  0  0
   60.6255   31.9823   52.0385 H   0  0  0  0  0  0  0  0  0  0  0  0
   58.8600   32.4750   50.8710 C   0  0  0  0  0  0  0  0  0  0  0  0
   58.1500   33.1170   52.0310 C   0  0  0  0  0  0  0  0  0  0  0  0
   57.7259   34.0802   51.7111 H   0  0  0  0  0  0  0  0  0  0  0  0
   58.8670   33.2796   52.8492 H   0  0  0  0  0  0  0  0  0  0  0  0
   57.0240   32.2050   52.5220 C   0  0  0  0  0  0  0  0  0  0  0  0
   56.1377   32.3554   51.8880 H   0  0  0  0  0  0  0  0  0  0  0  0
   56.7991   32.4601   53.5681 H   0  0  0  0  0  0  0  0  0  0  0  0
   57.4410   30.7280   52.4590 C   0  0  0  0  0  0  0  0  0  0  0  0
   57.8190   30.4245   53.4464 H   0  0  0  0  0  0  0  0  0  0  0  0
   58.2163   30.6296   51.6850 H   0  0  0  0  0  0  0  0  0  0  0  0
   56.3190   29.8460   52.0890 N   0  0  0  0  0  0  0  0  0  0  0  0
   55.1460   30.6350   51.6280 C   0  0  0  0  0  0  0  0  0  0  0  0
   54.6892   30.1213   50.7692 H   0  0  0  0  0  0  0  0  0  0  0  0
   55.5021   31.6385   51.3519 H   0  0  0  0  0  0  0  0  0  0  0  0
   54.0830   30.7980   52.7310 C   0  0  0  0  0  0  0  0  0  0  0  0
   53.2353   31.3690   52.3244 H   0  0  0  0  0  0  0  0  0  0  0  0
   54.5512   31.3238   53.5762 H   0  0  0  0  0  0  0  0  0  0  0  0
   53.5830   29.4860   53.2290 N   0  0  0  0  0  0  0  0  0  0  0  0
   53.1660   29.5910   54.6400 C   0  0  0  0  0  0  0  0  0  0  0  0
   54.0244   29.3749   55.2931 H   0  0  0  0  0  0  0  0  0  0  0  0
   52.8006   30.6092   54.8396 H   0  0  0  0  0  0  0  0  0  0  0  0
   52.3620   28.8673   54.8396 H   0  0  0  0  0  0  0  0  0  0  0  0
   54.5530   28.3770   53.0470 C   0  0  0  0  0  0  0  0  0  0  0  0
   54.4081   27.9338   52.0507 H   0  0  0  0  0  0  0  0  0  0  0  0
   54.3776   27.6291   53.8343 H   0  0  0  0  0  0  0  0  0  0  0  0
   55.9930   28.8750   53.1660 C   0  0  0  0  0  0  0  0  0  0  0  0
   56.6764   28.0161   53.0931 H   0  0  0  0  0  0  0  0  0  0  0  0
   56.1064   29.3812   54.1360 H   0  0  0  0  0  0  0  0  0  0  0  0
   58.2150   32.3340   49.6370 C   0  0  0  0  0  0  0  0  0  0  0  0
   57.2111   32.7596   49.4916 H   0  0  0  0  0  0  0  0  0  0  0  0
   58.8420   31.6540   48.5880 C   0  0  0  0  0  0  0  0  0  0  0  0
   58.3368   31.5572   47.6157 H   0  0  0  0  0  0  0  0  0  0  0  0
   59.7410   32.9730   45.5770 N   0  0  0  0  0  0  0  0  0  0  0  0
   59.8300   33.9890   46.4830 C   0  0  0  0  0  0  0  0  0  0  0  0
   61.0770   34.2030   47.2340 C   0  0  0  0  0  0  0  0  0  0  0  0
   61.0050   34.3850   48.6410 C   0  0  0  0  0  0  0  0  0  0  0  0
   60.0487   34.6612   49.1091 H   0  0  0  0  0  0  0  0  0  0  0  0
   62.1420   34.2150   49.4320 C   0  0  0  0  0  0  0  0  0  0  0  0
   62.0952   34.4012   50.5151 H   0  0  0  0  0  0  0  0  0  0  0  0
   63.3370   33.8080   48.8420 C   0  0  0  0  0  0  0  0  0  0  0  0
   64.2175   33.6100   49.4709 H   0  0  0  0  0  0  0  0  0  0  0  0
   63.4240   33.6490   47.4490 C   0  0  0  0  0  0  0  0  0  0  0  0
   64.3858   33.3834   46.9859 H   0  0  0  0  0  0  0  0  0  0  0  0
   62.2950   33.8270   46.6530 C   0  0  0  0  0  0  0  0  0  0  0  0
   62.3599   33.6720   45.5659 H   0  0  0  0  0  0  0  0  0  0  0  0
  1  2  1  0
  2  3  1  0
  3  4  1  0
  4  5  2  0
  5  6  1  0
  6  7  2  0
  6  8  1  0
  8  9  2  0
  9 10  1  0
  9 11  1  0
 11 12  1  0
 11 13  2  0
 13 14  1  0
 13 15  1  0
 15 16  1  0
 15 17  2  0
 17 18  1  0
 18 19  1  0
 18 20  1  0
 20 21  2  0
 20 22  2  0
 20 23  1  0
 23 24  2  0
 24 25  1  0
 24 26  1  0
 26 27  1  0
 26 28  2  0
 28 29  1  0
 29 30  1  0
 29 31  1  0
 29 32  1  0
 32 33  1  0
 32 34  1  0
 32 35  1  0
 35 36  1  0
 35 37  1  0
 35 38  1  0
 38 39  1  0
 39 40  1  0
 39 41  1  0
 39 42  1  0
 42 43  1  0
 42 44  1  0
 42 45  1  0
 45 46  1  0
 46 47  1  0
 46 48  1  0
 46 49  1  0
 45 50  1  0
 50 51  1  0
 50 52  1  0
 50 53  1  0
 53 54  1  0
 53 55  1  0
 28 56  1  0
 56 57  1  0
 56 58  2  0
 58 59  1  0
  4 60  1  0
 60 61  1  0
 61 62  1  0
 62 63  2  0
 63 64  1  0
 63 65  1  0
 65 66  1  0
 65 67  2  0
 67 68  1  0
 67 69  1  0
 69 70  1  0
 69 71  2  0
 71 72  1  0
 61  2  2  0
 71 62  1  0
 17  8  1  0
 58 23  1  0
 53 38  1  0
M  CHG  1  60  -1
M  END
>  <UniqueID>  (83) 
77

>  <SMILES>  (83) 
CN1CCN(CCCc2ccc(S(=O)(=O)Nc3ccccc3C(=O)/N=c3/[n-]c(-c4ccccc4)cs3)cc2)CC1

>  <Energy>  (83) 
143.3445606127482

>  <Genealogy>  (83) 
CN1CCN(CCCc2ccc(S(=O)(=O)Nc3ccccc3C(=O)N=c3[n-]c(-c4ccccc4)cs3)cc2)CC1 (protonated)
CN1CCN(CCCc2ccc(S(=O)(=O)Nc3ccccc3C(=O)/N=c3/[n-]c(-c4ccccc4)cs3)cc2)CC1 (cis-trans isomerization)
CN1CCN(CCCc2ccc(S(=O)(=O)Nc3ccccc3C(=O)/N=c3/[n-]c(-c4ccccc4)cs3)cc2)CC1 (3D coordinates assigned)
CN1CCN(CCCc2ccc(S(=O)(=O)Nc3ccccc3C(=O)/N=c3/[n-]c(-c4ccccc4)cs3)cc2)CC1 (nonaromatic ring conformer: 143.3445606127482 kcal/mol)

>  <smiles>  (83) 
CN1CCN(CCCc2ccc(S(=O)(=O)Nc3ccccc3C(=O)N=c3[nH]c(-c4ccccc4)cs3)cc2)CC1

>  <score_type>  (83) 
oracle

>  <origin>  (83) 
adg

>  <m_score__min__energy>  (83) 
-14.039999999999999

>  <m_primary>  (83) 
energy

$$$$
83:0
     RDKit          3D

 64 67  0  0  0  0  0  0  0  0999 V2000
   60.0130   34.5720   48.6270 C   0  0  0  0  0  0  0  0  0  0  0  0
   60.8490   33.7230   47.7720 N   0  0  0  0  0  0  0  0  0  0  0  0
   60.8310   34.2190   46.3910 C   0  0  0  0  0  0  0  0  0  0  0  0
   62.4860   33.6910   48.3800 S   0  0  0  0  0  0  0  0  0  0  0  0
   63.4360   33.7200   47.2190 O   0  0  0  0  0  0  0  0  0  0  0  0
   62.7330   34.9370   49.1850 O   0  0  0  0  0  0  0  0  0  0  0  0
   62.7750   32.2770   49.4250 C   0  0  0  0  0  0  0  0  0  0  0  0
   63.8200   32.3650   50.3600 C   0  0  0  0  0  0  0  0  0  0  0  0
   64.0690   31.3240   51.2570 C   0  0  0  0  0  0  0  0  0  0  0  0
   63.2770   30.1790   51.2350 C   0  0  0  0  0  0  0  0  0  0  0  0
   62.2380   30.0670   50.3120 C   0  0  0  0  0  0  0  0  0  0  0  0
   61.9780   31.1000   49.3950 C   0  0  0  0  0  0  0  0  0  0  0  0
   60.8930   30.8920   48.4200 C   0  0  0  0  0  0  0  0  0  0  0  0
   61.1920   30.7060   47.0630 C   0  0  0  0  0  0  0  0  0  0  0  0
   60.1640   30.5300   46.1350 C   0  0  0  0  0  0  0  0  0  0  0  0
   58.8230   30.5020   46.5550 C   0  0  0  0  0  0  0  0  0  0  0  0
   57.7330   30.3810   45.5640 C   0  0  0  0  0  0  0  0  0  0  0  0
   57.2060   31.4180   45.0840 O   0  0  0  0  0  0  0  0  0  0  0  0
   57.2480   29.0950   45.1510 N   0  0  0  0  0  0  0  0  0  0  0  0
   57.8150   27.8530   45.5900 C   0  0  0  0  0  0  0  0  0  0  0  0
   59.2050   27.7460   45.7030 C   0  0  0  0  0  0  0  0  0  0  0  0
   59.7910   26.5290   46.0520 C   0  0  0  0  0  0  0  0  0  0  0  0
   58.9920   25.4160   46.3200 C   0  0  0  0  0  0  0  0  0  0  0  0
   57.5940   25.5190   46.2730 C   0  0  0  0  0  0  0  0  0  0  0  0
   56.7650   24.3360   46.5740 C   0  0  0  0  0  0  0  0  0  0  0  0
   55.8820   24.4390   47.4670 O   0  0  0  0  0  0  0  0  0  0  0  0
   56.9810   23.0680   45.9150 N   0  0  0  0  0  0  0  0  0  0  0  0
   57.7580   22.9980   44.6640 C   0  0  0  0  0  0  0  0  0  0  0  0
   57.8000   21.5730   44.0950 C   0  0  0  0  0  0  0  0  0  0  0  0
   56.3970   20.9550   44.1140 C   0  0  0  0  0  0  0  0  0  0  0  0
   55.7610   20.9510   45.5230 C   0  0  0  0  0  0  0  0  0  0  0  0
   56.5140   21.8200   46.5400 C   0  0  0  0  0  0  0  0  0  0  0  0
   56.9990   26.7450   45.9010 C   0  0  0  0  0  0  0  0  0  0  0  0
   55.6080   26.8920   45.8600 O   0  0  0  0  0  0  0  0  0  0  0  0
   58.5310   30.6020   47.9250 C   0  0  0  0  0  0  0  0  0  0  0  0
   59.5600   30.7940   48.8520 C   0  0  0  0  0  0  0  0  0  0  0  0
   60.2282   34.3534   49.6834 H   0  0  0  0  0  0  0  0  0  0  0  0
   60.2318   35.6298   48.4195 H   0  0  0  0  0  0  0  0  0  0  0  0
   58.9519   34.3695   48.4195 H   0  0  0  0  0  0  0  0  0  0  0  0
   60.7911   35.3183   46.3967 H   0  0  0  0  0  0  0  0  0  0  0  0
   61.7418   33.8878   45.8706 H   0  0  0  0  0  0  0  0  0  0  0  0
   59.9466   33.8227   45.8706 H   0  0  0  0  0  0  0  0  0  0  0  0
   64.4505   33.2660   50.3858 H   0  0  0  0  0  0  0  0  0  0  0  0
   64.8920   31.4087   51.9819 H   0  0  0  0  0  0  0  0  0  0  0  0
   63.4711   29.3625   51.9461 H   0  0  0  0  0  0  0  0  0  0  0  0
   61.6151   29.1604   50.3013 H   0  0  0  0  0  0  0  0  0  0  0  0
   62.2399   30.6987   46.7284 H   0  0  0  0  0  0  0  0  0  0  0  0
   60.4051   30.4125   45.0682 H   0  0  0  0  0  0  0  0  0  0  0  0
   59.8389   28.6253   45.5159 H   0  0  0  0  0  0  0  0  0  0  0  0
   60.8860   26.4461   46.1162 H   0  0  0  0  0  0  0  0  0  0  0  0
   59.4614   24.4530   46.5694 H   0  0  0  0  0  0  0  0  0  0  0  0
   57.2959   23.6642   43.9206 H   0  0  0  0  0  0  0  0  0  0  0  0
   58.7901   23.3068   44.8861 H   0  0  0  0  0  0  0  0  0  0  0  0
   58.1688   21.6058   43.0592 H   0  0  0  0  0  0  0  0  0  0  0  0
   58.4716   20.9589   44.7129 H   0  0  0  0  0  0  0  0  0  0  0  0
   55.7496   21.5330   43.4382 H   0  0  0  0  0  0  0  0  0  0  0  0
   56.4930   19.9076   43.7920 H   0  0  0  0  0  0  0  0  0  0  0  0
   54.7304   21.3266   45.4403 H   0  0  0  0  0  0  0  0  0  0  0  0
   55.8008   19.9154   45.8918 H   0  0  0  0  0  0  0  0  0  0  0  0
   55.8404   22.0645   47.3746 H   0  0  0  0  0  0  0  0  0  0  0  0
   57.3873   21.2597   46.9051 H   0  0  0  0  0  0  0  0  0  0  0  0
   55.1430   27.5980   45.3030 H   0  0  0  0  0  0  0  0  0  0  0  0
   57.4891   30.5290   48.2700 H   0  0  0  0  0  0  0  0  0  0  0  0
   59.3247   30.8686   49.9239 H   0  0  0  0  0  0  0  0  0  0  0  0
  1  2  1  0
  2  3  1  0
  2  4  1  0
  4  5  2  0
  4  6  2  0
  4  7  1  0
  7  8  2  0
  8  9  1  0
  9 10  2  0
 10 11  1  0
 11 12  2  0
 12 13  1  0
 13 14  2  0
 14 15  1  0
 15 16  2  0
 16 17  1  0
 17 18  2  0
 17 19  1  0
 19 20  1  0
 20 21  2  0
 21 22  1  0
 22 23  2  0
 23 24  1  0
 24 25  1  0
 25 26  2  0
 25 27  1  0
 27 28  1  0
 28 29  1  0
 29 30  1  0
 30 31  1  0
 31 32  1  0
 24 33  2  0
 33 34  1  0
 16 35  1  0
 35 36  2  0
 12  7  1  0
 36 13  1  0
 33 20  1  0
 32 27  1  0
  1 37  1  0
  1 38  1  0
  1 39  1  0
  3 40  1  0
  3 41  1  0
  3 42  1  0
  8 43  1  0
  9 44  1  0
 10 45  1  0
 11 46  1  0
 14 47  1  0
 15 48  1  0
 21 49  1  0
 22 50  1  0
 23 51  1  0
 28 52  1  0
 28 53  1  0
 29 54  1  0
 29 55  1  0
 30 56  1  0
 30 57  1  0
 31 58  1  0
 31 59  1  0
 32 60  1  0
 32 61  1  0
 34 62  1  0
 35 63  1  0
 36 64  1  0
M  CHG  1  19  -1
M  END
>  <UniqueID>  (84) 
78

>  <SMILES>  (84) 
CN(C)S(=O)(=O)c1ccccc1-c1ccc(C(=O)[N-]c2cccc(C(=O)N3CCCCC3)c2O)cc1

>  <Energy>  (84) 
91.47981999389393

>  <Genealogy>  (84) 
CN(C)S(=O)(=O)c1ccccc1-c1ccc(C(=O)[N-]c2cccc(C(=O)N3CCCCC3)c2O)cc1 (protonated)
CN(C)S(=O)(=O)c1ccccc1-c1ccc(C(=O)[N-]c2cccc(C(=O)N3CCCCC3)c2O)cc1 (3D coordinates assigned)
CN(C)S(=O)(=O)c1ccccc1-c1ccc(C(=O)[N-]c2cccc(C(=O)N3CCCCC3)c2O)cc1 (nonaromatic ring conformer: 91.47981999389393 kcal/mol)

>  <smiles>  (84) 
CN(C)S(=O)(=O)c1ccccc1-c1ccc(C(=O)Nc2cccc(C(=O)N3CCCCC3)c2O)cc1

>  <score_type>  (84) 
oracle

>  <origin>  (84) 
adg

>  <m_score__min__energy>  (84) 
-12.199999999999999

>  <m_primary>  (84) 
energy

$$$$
84:0
     RDKit          3D

 43 44  0  0  0  0  0  0  0  0999 V2000
   62.8140   33.7090   46.6770 C   0  0  0  0  0  0  0  0  0  0  0  0
   61.3770   33.4570   46.9870 C   0  0  0  0  0  0  0  0  0  0  0  0
   60.8810   32.9870   48.1890 C   0  0  0  0  0  0  0  0  0  0  0  0
   59.5250   32.8590   47.9640 C   0  0  0  0  0  0  0  0  0  0  0  0
   58.5180   32.3560   48.9520 C   0  0  0  0  0  0  0  0  0  0  0  0
   59.2610   33.2090   46.6860 N   0  0  0  0  0  0  0  0  0  0  0  0
   57.9520   33.2490   46.0360 C   0  0  0  0  0  0  0  0  0  0  0  0
   58.0030   32.5020   44.7020 C   0  0  0  0  0  0  0  0  0  0  0  0
   57.0810   31.3690   44.7190 N   0  0  0  0  0  0  0  0  0  0  0  0
   56.5570   30.7900   43.5150 C   0  0  0  0  0  0  0  0  0  0  0  0
   57.0150   31.1330   42.3920 O   0  0  0  0  0  0  0  0  0  0  0  0
   55.4830   29.7470   43.5850 C   0  0  0  0  0  0  0  0  0  0  0  0
   55.4990   29.0680   44.8760 N   0  0  0  0  0  0  0  0  0  0  0  0
   56.4150   28.0440   45.2900 C   0  0  0  0  0  0  0  0  0  0  0  0
   55.9610   27.0500   45.9150 O   0  0  0  0  0  0  0  0  0  0  0  0
   57.8970   28.1180   45.0220 C   0  0  0  0  0  0  0  0  0  0  0  0
   58.6740   28.0240   46.2710 N   0  0  0  0  0  0  0  0  0  0  0  0
   59.2980   26.8500   46.5900 C   0  0  0  0  0  0  0  0  0  0  0  0
   60.0330   26.7320   47.7680 C   0  0  0  0  0  0  0  0  0  0  0  0
   60.1040   27.8310   48.6190 C   0  0  0  0  0  0  0  0  0  0  0  0
   60.7620   27.7640   49.6900 O   0  0  0  0  0  0  0  0  0  0  0  0
   59.4590   28.9780   48.2930 N   0  0  0  0  0  0  0  0  0  0  0  0
   58.7450   29.0840   47.1420 C   0  0  0  0  0  0  0  0  0  0  0  0
   58.1450   30.1640   46.8910 O   0  0  0  0  0  0  0  0  0  0  0  0
   60.3810   33.5780   46.0870 N   0  0  0  0  0  0  0  0  0  0  0  0
   63.3796   33.8082   47.6152 H   0  0  0  0  0  0  0  0  0  0  0  0
   63.2162   32.8677   46.0936 H   0  0  0  0  0  0  0  0  0  0  0  0
   62.9060   34.6370   46.0936 H   0  0  0  0  0  0  0  0  0  0  0  0
   61.4381   32.7661   49.1114 H   0  0  0  0  0  0  0  0  0  0  0  0
   58.8835   32.5386   49.9733 H   0  0  0  0  0  0  0  0  0  0  0  0
   57.5641   32.8835   48.8042 H   0  0  0  0  0  0  0  0  0  0  0  0
   58.3668   31.2765   48.8042 H   0  0  0  0  0  0  0  0  0  0  0  0
   57.2064   32.7739   46.6905 H   0  0  0  0  0  0  0  0  0  0  0  0
   57.6745   34.2972   45.8507 H   0  0  0  0  0  0  0  0  0  0  0  0
   57.7192   33.1885   43.8907 H   0  0  0  0  0  0  0  0  0  0  0  0
   59.0250   32.1288   44.5401 H   0  0  0  0  0  0  0  0  0  0  0  0
   56.8040   30.9640   45.6410 H   0  0  0  0  0  0  0  0  0  0  0  0
   54.5040   30.2283   43.4435 H   0  0  0  0  0  0  0  0  0  0  0  0
   55.6638   29.0033   42.7949 H   0  0  0  0  0  0  0  0  0  0  0  0
   58.1829   27.2880   44.3592 H   0  0  0  0  0  0  0  0  0  0  0  0
   58.1158   29.0871   44.5499 H   0  0  0  0  0  0  0  0  0  0  0  0
   59.2190   25.9894   45.9095 H   0  0  0  0  0  0  0  0  0  0  0  0
   60.5454   25.7917   48.0196 H   0  0  0  0  0  0  0  0  0  0  0  0
  1  2  1  0
  2  3  1  0
  3  4  2  0
  4  5  1  0
  4  6  1  0
  6  7  1  0
  7  8  1  0
  8  9  1  0
  9 10  1  0
 10 11  2  0
 10 12  1  0
 12 13  1  0
 13 14  1  0
 14 15  2  0
 14 16  1  0
 16 17  1  0
 17 18  1  0
 18 19  2  0
 19 20  1  0
 20 21  2  0
 20 22  1  0
 22 23  1  0
 23 24  2  0
  6 25  1  0
 25  2  2  0
 23 17  1  0
  1 26  1  0
  1 27  1  0
  1 28  1  0
  3 29  1  0
  5 30  1  0
  5 31  1  0
  5 32  1  0
  7 33  1  0
  7 34  1  0
  8 35  1  0
  8 36  1  0
  9 37  1  0
 12 38  1  0
 12 39  1  0
 16 40  1  0
 16 41  1  0
 18 42  1  0
 19 43  1  0
M  CHG  2  13  -1  22  -1
M  END
>  <UniqueID>  (85) 
79

>  <SMILES>  (85) 
Cc1cc(C)n(CCNC(=O)C[N-]C(=O)Cn2ccc(=O)[n-]c2=O)n1

>  <Energy>  (85) 
63.791027700217526

>  <Genealogy>  (85) 
Cc1cc(C)n(CCNC(=O)C[N-]C(=O)Cn2ccc(=O)[n-]c2=O)n1 (protonated)
Cc1cc(C)n(CCNC(=O)C[N-]C(=O)Cn2ccc(=O)[n-]c2=O)n1 (3D coordinates assigned)
Cc1cc(C)n(CCNC(=O)C[N-]C(=O)Cn2ccc(=O)[n-]c2=O)n1 (optimized conformer: 63.791027700217526 kcal/mol)

>  <smiles>  (85) 
Cc1cc(C)n(CCNC(=O)CNC(=O)Cn2ccc(=O)[nH]c2=O)n1

>  <score_type>  (85) 
oracle

>  <origin>  (85) 
adg

>  <m_score__min__energy>  (85) 
-10.33

>  <m_primary>  (85) 
energy

$$$$
85:0
     RDKit          3D

 44 46  0  0  0  0  0  0  0  0999 V2000
   59.5420   24.4256   45.3326 H   0  0  0  0  0  0  0  0  0  0  0  0
   59.9240   25.1550   46.0620 C   0  0  0  0  0  0  0  0  0  0  0  0
   60.8461   24.9411   46.6224 H   0  0  0  0  0  0  0  0  0  0  0  0
   59.2690   26.2990   46.2670 C   0  0  0  0  0  0  0  0  0  0  0  0
   59.6920   27.2290   47.1490 N   0  0  0  0  0  0  0  0  0  0  0  0
   58.8410   28.2420   47.1200 N   0  0  0  0  0  0  0  0  0  0  0  0
   58.9790   29.4050   47.9520 C   0  0  0  0  0  0  0  0  0  0  0  0
   59.1470   29.2550   49.1920 O   0  0  0  0  0  0  0  0  0  0  0  0
   59.0020   30.7650   47.3760 C   0  0  0  0  0  0  0  0  0  0  0  0
   60.0660   31.6640   47.3850 C   0  0  0  0  0  0  0  0  0  0  0  0
   61.4050   31.4690   48.0350 C   0  0  0  0  0  0  0  0  0  0  0  0
   61.2877   31.4861   49.1286 H   0  0  0  0  0  0  0  0  0  0  0  0
   61.8248   30.5002   47.7264 H   0  0  0  0  0  0  0  0  0  0  0  0
   62.0837   32.2778   47.7264 H   0  0  0  0  0  0  0  0  0  0  0  0
   59.6410   32.7790   46.6590 C   0  0  0  0  0  0  0  0  0  0  0  0
   60.4010   34.0130   46.3410 C   0  0  0  0  0  0  0  0  0  0  0  0
   61.6220   33.9260   46.0410 O   0  0  0  0  0  0  0  0  0  0  0  0
   59.7660   35.3670   46.3640 C   0  0  0  0  0  0  0  0  0  0  0  0
   59.6171   35.6845   47.4066 H   0  0  0  0  0  0  0  0  0  0  0  0
   60.4201   36.0875   45.8512 H   0  0  0  0  0  0  0  0  0  0  0  0
   58.7938   35.3248   45.8512 H   0  0  0  0  0  0  0  0  0  0  0  0
   58.3430   32.4960   46.2490 C   0  0  0  0  0  0  0  0  0  0  0  0
   57.4600   33.3760   45.4200 C   0  0  0  0  0  0  0  0  0  0  0  0
   56.8370   33.9969   46.0805 H   0  0  0  0  0  0  0  0  0  0  0  0
   58.0811   34.0250   44.7852 H   0  0  0  0  0  0  0  0  0  0  0  0
   56.8131   32.7527   44.7852 H   0  0  0  0  0  0  0  0  0  0  0  0
   57.9680   31.2790   46.6850 N   0  0  0  0  0  0  0  0  0  0  0  0
   57.0540   30.8090   46.4930 H   0  0  0  0  0  0  0  0  0  0  0  0
   57.8570   27.9660   46.2370 C   0  0  0  0  0  0  0  0  0  0  0  0
   56.8910   28.7360   45.9900 O   0  0  0  0  0  0  0  0  0  0  0  0
   58.0840   26.7230   45.6590 C   0  0  0  0  0  0  0  0  0  0  0  0
   57.3670   26.0810   44.7160 C   0  0  0  0  0  0  0  0  0  0  0  0
   57.5425   26.3497   43.6639 H   0  0  0  0  0  0  0  0  0  0  0  0
   56.3600   25.0390   45.0050 C   0  0  0  0  0  0  0  0  0  0  0  0
   56.5670   23.7130   44.5870 C   0  0  0  0  0  0  0  0  0  0  0  0
   57.5008   23.4399   44.0737 H   0  0  0  0  0  0  0  0  0  0  0  0
   55.5910   22.7400   44.8210 C   0  0  0  0  0  0  0  0  0  0  0  0
   55.7662   21.7002   44.5079 H   0  0  0  0  0  0  0  0  0  0  0  0
   54.3930   23.0860   45.4520 C   0  0  0  0  0  0  0  0  0  0  0  0
   53.4240   22.1180   45.6830 O   0  0  0  0  0  0  0  0  0  0  0  0
   54.1690   24.4080   45.8470 C   0  0  0  0  0  0  0  0  0  0  0  0
   53.2238   24.6800   46.3396 H   0  0  0  0  0  0  0  0  0  0  0  0
   55.1430   25.3870   45.6180 C   0  0  0  0  0  0  0  0  0  0  0  0
   54.8980   26.6990   46.0090 O   0  0  0  0  0  0  0  0  0  0  0  0
  1  2  1  0
  2  3  1  0
  2  4  2  0
  4  5  1  0
  5  6  1  0
  6  7  1  0
  7  8  2  0
  7  9  1  0
  9 10  2  0
 10 11  1  0
 11 12  1  0
 11 13  1  0
 11 14  1  0
 10 15  1  0
 15 16  1  0
 16 17  2  0
 16 18  1  0
 18 19  1  0
 18 20  1  0
 18 21  1  0
 15 22  2  0
 22 23  1  0
 23 24  1  0
 23 25  1  0
 23 26  1  0
 22 27  1  0
 27 28  1  0
  6 29  1  0
 29 30  2  0
 29 31  1  0
 31 32  2  0
 32 33  1  0
 32 34  1  0
 34 35  2  0
 35 36  1  0
 35 37  1  0
 37 38  1  0
 37 39  2  0
 39 40  1  0
 39 41  1  0
 41 42  1  0
 41 43  2  0
 43 44  1  0
 31  4  1  0
 43 34  1  0
 27  9  1  0
M  CHG  3   5  -1  40  -1  44  -1
M  END
>  <UniqueID>  (86) 
80

>  <SMILES>  (86) 
C=c1[n-]n(C(=O)c2[nH]c(C)c(C(C)=O)c2C)c(=O)/c1=C\c1ccc([O-])cc1[O-]

>  <Energy>  (86) 
121.38739277396957

>  <Genealogy>  (86) 
C=c1[n-]n(C(=O)c2[nH]c(C)c(C(C)=O)c2C)c(=O)c1=Cc1ccc([O-])cc1[O-] (protonated)
C=c1[n-]n(C(=O)c2[nH]c(C)c(C(C)=O)c2C)c(=O)/c1=C\c1ccc([O-])cc1[O-] (cis-trans isomerization)
C=c1[n-]n(C(=O)c2[nH]c(C)c(C(C)=O)c2C)c(=O)/c1=C\c1ccc([O-])cc1[O-] (3D coordinates assigned)
C=c1[n-]n(C(=O)c2[nH]c(C)c(C(C)=O)c2C)c(=O)/c1=C\c1ccc([O-])cc1[O-] (optimized conformer: 121.38739277396957 kcal/mol)

>  <smiles>  (86) 
C=c1[nH]n(C(=O)c2[nH]c(C)c(C(C)=O)c2C)c(=O)c1=Cc1ccc(O)cc1O

>  <score_type>  (86) 
oracle

>  <origin>  (86) 
adg

>  <m_score__min__energy>  (86) 
-15.199999999999999

>  <m_primary>  (86) 
energy

$$$$
86:0
     RDKit          3D

 49 52  0  0  0  0  0  0  0  0999 V2000
   61.0330   33.2630   51.1010 C   0  0  0  0  0  0  0  0  0  0  0  0
   61.1000   32.9320   49.6380 C   0  0  0  0  0  0  0  0  0  0  0  0
   62.2100   32.5540   48.9800 C   0  0  0  0  0  0  0  0  0  0  0  0
   63.5470   32.3380   49.5740 C   0  0  0  0  0  0  0  0  0  0  0  0
   63.7440   31.2950   50.4960 C   0  0  0  0  0  0  0  0  0  0  0  0
   65.0010   31.0980   51.0780 C   0  0  0  0  0  0  0  0  0  0  0  0
   66.0640   31.9460   50.7560 C   0  0  0  0  0  0  0  0  0  0  0  0
   65.8710   32.9940   49.8540 C   0  0  0  0  0  0  0  0  0  0  0  0
   64.6180   33.1950   49.2680 C   0  0  0  0  0  0  0  0  0  0  0  0
   61.8650   32.2720   47.2880 S   0  0  0  0  0  0  0  0  0  0  0  0
   62.1100   30.8420   46.8980 O   0  0  0  0  0  0  0  0  0  0  0  0
   62.5670   33.2380   46.3770 O   0  0  0  0  0  0  0  0  0  0  0  0
   60.1880   32.6280   47.4020 N   0  0  0  0  0  0  0  0  0  0  0  0
   59.1960   32.3050   46.3800 C   0  0  0  0  0  0  0  0  0  0  0  0
   59.0280   30.8140   46.2630 C   0  0  0  0  0  0  0  0  0  0  0  0
   58.9040   30.0200   47.4150 C   0  0  0  0  0  0  0  0  0  0  0  0
   58.7120   28.6400   47.3030 C   0  0  0  0  0  0  0  0  0  0  0  0
   58.6490   28.0330   46.0390 C   0  0  0  0  0  0  0  0  0  0  0  0
   58.4190   26.5760   45.9230 C   0  0  0  0  0  0  0  0  0  0  0  0
   59.5380   25.7260   45.9470 C   0  0  0  0  0  0  0  0  0  0  0  0
   59.3820   24.3400   45.9300 C   0  0  0  0  0  0  0  0  0  0  0  0
   58.1050   23.7830   45.8920 C   0  0  0  0  0  0  0  0  0  0  0  0
   56.9800   24.6090   45.8540 C   0  0  0  0  0  0  0  0  0  0  0  0
   57.1150   26.0110   45.8530 C   0  0  0  0  0  0  0  0  0  0  0  0
   55.8920   26.8420   45.7280 C   0  0  0  0  0  0  0  0  0  0  0  0
   54.7640   26.3550   46.0090 O   0  0  0  0  0  0  0  0  0  0  0  0
   55.9600   28.1480   45.2580 O   0  0  0  0  0  0  0  0  0  0  0  0
   58.7570   28.8290   44.8880 C   0  0  0  0  0  0  0  0  0  0  0  0
   58.9480   30.2090   44.9990 C   0  0  0  0  0  0  0  0  0  0  0  0
   59.9140   32.9580   48.7610 C   0  0  0  0  0  0  0  0  0  0  0  0
   58.7560   33.2440   49.1690 O   0  0  0  0  0  0  0  0  0  0  0  0
   61.2171   32.3534   51.6915 H   0  0  0  0  0  0  0  0  0  0  0  0
   61.7967   34.0172   51.3416 H   0  0  0  0  0  0  0  0  0  0  0  0
   60.0361   33.6609   51.3416 H   0  0  0  0  0  0  0  0  0  0  0  0
   62.9073   30.6318   50.7606 H   0  0  0  0  0  0  0  0  0  0  0  0
   65.1528   30.2738   51.7905 H   0  0  0  0  0  0  0  0  0  0  0  0
   67.0521   31.7879   51.2129 H   0  0  0  0  0  0  0  0  0  0  0  0
   66.7073   33.6634   49.6038 H   0  0  0  0  0  0  0  0  0  0  0  0
   64.4696   34.0274   48.5644 H   0  0  0  0  0  0  0  0  0  0  0  0
   58.2319   32.7577   46.6551 H   0  0  0  0  0  0  0  0  0  0  0  0
   59.5384   32.7020   45.4130 H   0  0  0  0  0  0  0  0  0  0  0  0
   58.9582   30.4863   48.4098 H   0  0  0  0  0  0  0  0  0  0  0  0
   58.6097   28.0265   48.2103 H   0  0  0  0  0  0  0  0  0  0  0  0
   60.5487   26.1588   45.9796 H   0  0  0  0  0  0  0  0  0  0  0  0
   60.2668   23.6867   45.9466 H   0  0  0  0  0  0  0  0  0  0  0  0
   57.9831   22.6898   45.8919 H   0  0  0  0  0  0  0  0  0  0  0  0
   55.9764   24.1596   45.8245 H   0  0  0  0  0  0  0  0  0  0  0  0
   58.6910   28.3642   43.8932 H   0  0  0  0  0  0  0  0  0  0  0  0
   59.0361   30.8241   44.0913 H   0  0  0  0  0  0  0  0  0  0  0  0
  1  2  1  0
  2  3  2  0
  3  4  1  0
  4  5  2  0
  5  6  1  0
  6  7  2  0
  7  8  1  0
  8  9  2  0
  3 10  1  0
 10 11  2  0
 10 12  2  0
 10 13  1  0
 13 14  1  0
 14 15  1  0
 15 16  2  0
 16 17  1  0
 17 18  2  0
 18 19  1  0
 19 20  2  0
 20 21  1  0
 21 22  2  0
 22 23  1  0
 23 24  2  0
 24 25  1  0
 25 26  2  0
 25 27  1  0
 18 28  1  0
 28 29  2  0
 13 30  1  0
 30 31  2  0
 30  2  1  0
  9  4  1  0
 29 15  1  0
 24 19  1  0
  1 32  1  0
  1 33  1  0
  1 34  1  0
  5 35  1  0
  6 36  1  0
  7 37  1  0
  8 38  1  0
  9 39  1  0
 14 40  1  0
 14 41  1  0
 16 42  1  0
 17 43  1  0
 20 44  1  0
 21 45  1  0
 22 46  1  0
 23 47  1  0
 28 48  1  0
 29 49  1  0
M  CHG  1  27  -1
M  END
>  <UniqueID>  (87) 
81

>  <SMILES>  (87) 
CC1=C(c2ccccc2)S(=O)(=O)N(Cc2ccc(-c3ccccc3C(=O)[O-])cc2)C1=O

>  <Energy>  (87) 
86.39136651837345

>  <Genealogy>  (87) 
CC1=C(c2ccccc2)S(=O)(=O)N(Cc2ccc(-c3ccccc3C(=O)[O-])cc2)C1=O (protonated)
CC1=C(c2ccccc2)S(=O)(=O)N(Cc2ccc(-c3ccccc3C(=O)[O-])cc2)C1=O (3D coordinates assigned)
CC1=C(c2ccccc2)S(=O)(=O)N(Cc2ccc(-c3ccccc3C(=O)[O-])cc2)C1=O (nonaromatic ring conformer: 86.39136651837345 kcal/mol)

>  <smiles>  (87) 
CC1=C(c2ccccc2)S(=O)(=O)N(Cc2ccc(-c3ccccc3C(=O)O)cc2)C1=O

>  <score_type>  (87) 
oracle

>  <origin>  (87) 
adg

>  <m_score__min__energy>  (87) 
-11.83

>  <m_primary>  (87) 
energy

$$$$
87:0
     RDKit          3D

 91 96  0  0  0  0  0  0  0  0999 V2000
   63.7870   28.0710   52.7540 C   0  0  0  0  0  0  0  0  0  0  0  0
   64.5000   29.2570   53.4060 C   0  0  0  0  0  0  0  0  0  0  0  0
   64.2860   30.4970   52.6250 N   0  0  0  0  0  0  0  0  0  0  0  0
   64.6130   30.2870   51.2040 C   0  0  0  0  0  0  0  0  0  0  0  0
   64.0800   31.4720   50.3890 C   0  0  0  0  0  0  0  0  0  0  0  0
   64.3040   32.7440   51.0960 N   0  0  0  0  0  0  0  0  0  0  0  0
   63.5380   33.9270   50.7650 C   0  0  0  0  0  0  0  0  0  0  0  0
   63.5740   34.9350   51.5240 O   0  0  0  0  0  0  0  0  0  0  0  0
   62.6540   33.9770   49.5820 C   0  0  0  0  0  0  0  0  0  0  0  0
   61.2820   34.2210   49.7500 C   0  0  0  0  0  0  0  0  0  0  0  0
   60.4280   34.2350   48.6440 C   0  0  0  0  0  0  0  0  0  0  0  0
   60.9330   34.0180   47.3490 C   0  0  0  0  0  0  0  0  0  0  0  0
   60.0080   33.9930   46.1590 C   0  0  0  0  0  0  0  0  0  0  0  0
   59.5290   32.6270   45.8860 N   0  0  0  0  0  0  0  0  0  0  0  0
   58.7990   32.3580   44.6330 C   0  0  0  0  0  0  0  0  0  0  0  0
   58.3070   30.9260   44.5620 C   0  0  0  0  0  0  0  0  0  0  0  0
   59.2310   29.8840   44.3340 C   0  0  0  0  0  0  0  0  0  0  0  0
   58.7980   28.5570   44.2680 C   0  0  0  0  0  0  0  0  0  0  0  0
   57.4420   28.2530   44.4280 C   0  0  0  0  0  0  0  0  0  0  0  0
   56.5080   29.2770   44.6280 C   0  0  0  0  0  0  0  0  0  0  0  0
   55.1570   28.9660   44.7600 O   0  0  0  0  0  0  0  0  0  0  0  0
   56.9360   30.6120   44.6850 C   0  0  0  0  0  0  0  0  0  0  0  0
   55.9910   31.6190   44.8640 O   0  0  0  0  0  0  0  0  0  0  0  0
   59.7150   31.5910   46.8770 C   0  0  0  0  0  0  0  0  0  0  0  0
   58.8200   31.3980   47.7450 O   0  0  0  0  0  0  0  0  0  0  0  0
   60.9960   30.7950   46.9550 C   0  0  0  0  0  0  0  0  0  0  0  0
   60.8000   29.5260   47.6830 N   0  0  0  0  0  0  0  0  0  0  0  0
   60.5530   28.3960   46.9490 C   0  0  0  0  0  0  0  0  0  0  0  0
   60.3530   27.1570   47.5680 C   0  0  0  0  0  0  0  0  0  0  0  0
   60.1100   25.9240   46.7360 C   0  0  0  0  0  0  0  0  0  0  0  0
   58.6350   25.7460   46.4920 C   0  0  0  0  0  0  0  0  0  0  0  0
   57.7000   26.6230   47.0590 C   0  0  0  0  0  0  0  0  0  0  0  0
   56.3740   26.4630   46.8050 N   0  0  0  0  0  0  0  0  0  0  0  0
   55.9340   25.4690   45.9930 C   0  0  0  0  0  0  0  0  0  0  0  0
   54.7030   25.3420   45.7650 O   0  0  0  0  0  0  0  0  0  0  0  0
   56.8230   24.6160   45.4190 N   0  0  0  0  0  0  0  0  0  0  0  0
   58.1580   24.7350   45.6470 C   0  0  0  0  0  0  0  0  0  0  0  0
   60.4590   27.1000   48.9630 C   0  0  0  0  0  0  0  0  0  0  0  0
   60.3280   26.0070   49.5780 O   0  0  0  0  0  0  0  0  0  0  0  0
   60.7090   28.2320   49.6630 N   0  0  0  0  0  0  0  0  0  0  0  0
   60.8620   29.4380   49.0530 C   0  0  0  0  0  0  0  0  0  0  0  0
   61.1930   30.8660   50.1050 S   0  0  0  0  0  0  0  0  0  0  0  0
   59.7360   30.6570   51.1850 C   0  0  0  0  0  0  0  0  0  0  0  0
   59.3820   31.9460   51.8760 C   0  0  0  0  0  0  0  0  0  0  0  0
   60.3390   32.5880   52.6800 C   0  0  0  0  0  0  0  0  0  0  0  0
   60.0160   33.7730   53.3490 C   0  0  0  0  0  0  0  0  0  0  0  0
   58.7380   34.3240   53.2250 C   0  0  0  0  0  0  0  0  0  0  0  0
   57.7750   33.6870   52.4370 C   0  0  0  0  0  0  0  0  0  0  0  0
   58.0900   32.5030   51.7610 C   0  0  0  0  0  0  0  0  0  0  0  0
   57.1380   31.9030   51.0030 F   0  0  0  0  0  0  0  0  0  0  0  0
   62.3150   33.8260   47.1760 C   0  0  0  0  0  0  0  0  0  0  0  0
   63.1690   33.8020   48.2860 C   0  0  0  0  0  0  0  0  0  0  0  0
   65.3060   32.7700   52.1720 C   0  0  0  0  0  0  0  0  0  0  0  0
   65.0520   31.6400   53.1930 C   0  0  0  0  0  0  0  0  0  0  0  0
   63.3883   27.4079   53.5359 H   0  0  0  0  0  0  0  0  0  0  0  0
   62.9602   28.4389   52.1286 H   0  0  0  0  0  0  0  0  0  0  0  0
   64.4997   27.5134   52.1286 H   0  0  0  0  0  0  0  0  0  0  0  0
   64.1057   29.3994   54.4230 H   0  0  0  0  0  0  0  0  0  0  0  0
   65.5787   29.0439   53.4383 H   0  0  0  0  0  0  0  0  0  0  0  0
   65.7041   30.2171   51.0830 H   0  0  0  0  0  0  0  0  0  0  0  0
   64.1502   29.3540   50.8499 H   0  0  0  0  0  0  0  0  0  0  0  0
   64.5985   31.5036   49.4194 H   0  0  0  0  0  0  0  0  0  0  0  0
   62.9978   31.3383   50.2441 H   0  0  0  0  0  0  0  0  0  0  0  0
   60.8773   34.4020   50.7567 H   0  0  0  0  0  0  0  0  0  0  0  0
   59.3527   34.4171   48.7871 H   0  0  0  0  0  0  0  0  0  0  0  0
   59.1438   34.6424   46.3625 H   0  0  0  0  0  0  0  0  0  0  0  0
   60.5626   34.3503   45.2788 H   0  0  0  0  0  0  0  0  0  0  0  0
   57.9338   33.0347   44.5731 H   0  0  0  0  0  0  0  0  0  0  0  0
   59.4903   32.5231   43.7934 H   0  0  0  0  0  0  0  0  0  0  0  0
   60.2984   30.1177   44.2075 H   0  0  0  0  0  0  0  0  0  0  0  0
   59.5244   27.7504   44.0900 H   0  0  0  0  0  0  0  0  0  0  0  0
   57.1080   27.2054   44.3966 H   0  0  0  0  0  0  0  0  0  0  0  0
   61.3413   30.5722   45.9346 H   0  0  0  0  0  0  0  0  0  0  0  0
   61.7420   31.3934   47.4985 H   0  0  0  0  0  0  0  0  0  0  0  0
   60.5111   28.4639   45.8519 H   0  0  0  0  0  0  0  0  0  0  0  0
   60.6282   26.0282   45.7713 H   0  0  0  0  0  0  0  0  0  0  0  0
   60.4941   25.0452   47.2746 H   0  0  0  0  0  0  0  0  0  0  0  0
   58.0396   27.4418   47.7103 H   0  0  0  0  0  0  0  0  0  0  0  0
   58.8627   24.0387   45.1689 H   0  0  0  0  0  0  0  0  0  0  0  0
   58.8810   30.3303   50.5749 H   0  0  0  0  0  0  0  0  0  0  0  0
   59.9753   29.9050   51.9514 H   0  0  0  0  0  0  0  0  0  0  0  0
   61.3458   32.1571   52.7836 H   0  0  0  0  0  0  0  0  0  0  0  0
   60.7703   34.2727   53.9746 H   0  0  0  0  0  0  0  0  0  0  0  0
   58.4895   35.2595   53.7477 H   0  0  0  0  0  0  0  0  0  0  0  0
   56.7667   34.1177   52.3481 H   0  0  0  0  0  0  0  0  0  0  0  0
   62.7273   33.6941   46.1648 H   0  0  0  0  0  0  0  0  0  0  0  0
   64.2483   33.6454   48.1427 H   0  0  0  0  0  0  0  0  0  0  0  0
   66.3069   32.6410   51.7344 H   0  0  0  0  0  0  0  0  0  0  0  0
   65.2346   33.7358   52.6937 H   0  0  0  0  0  0  0  0  0  0  0  0
   66.0232   31.2668   53.5501 H   0  0  0  0  0  0  0  0  0  0  0  0
   64.4476   32.0656   54.0076 H   0  0  0  0  0  0  0  0  0  0  0  0
  1  2  1  0
  2  3  1  0
  3  4  1  0
  4  5  1  0
  5  6  1  0
  6  7  1  0
  7  8  2  0
  7  9  1  0
  9 10  2  0
 10 11  1  0
 11 12  2  0
 12 13  1  0
 13 14  1  0
 14 15  1  0
 15 16  1  0
 16 17  2  0
 17 18  1  0
 18 19  2  0
 19 20  1  0
 20 21  1  0
 20 22  2  0
 22 23  1  0
 14 24  1  0
 24 25  2  0
 24 26  1  0
 26 27  1  0
 27 28  1  0
 28 29  2  0
 29 30  1  0
 30 31  1  0
 31 32  1  0
 32 33  2  0
 33 34  1  0
 34 35  2  0
 34 36  1  0
 36 37  1  0
 29 38  1  0
 38 39  2  0
 38 40  1  0
 40 41  2  0
 41 42  1  0
 42 43  1  0
 43 44  1  0
 44 45  2  0
 45 46  1  0
 46 47  2  0
 47 48  1  0
 48 49  2  0
 49 50  1  0
 12 51  1  0
 51 52  2  0
  6 53  1  0
 53 54  1  0
 54  3  1  0
 52  9  1  0
 22 16  1  0
 41 27  1  0
 49 44  1  0
 37 31  2  0
  1 55  1  0
  1 56  1  0
  1 57  1  0
  2 58  1  0
  2 59  1  0
  4 60  1  0
  4 61  1  0
  5 62  1  0
  5 63  1  0
 10 64  1  0
 11 65  1  0
 13 66  1  0
 13 67  1  0
 15 68  1  0
 15 69  1  0
 17 70  1  0
 18 71  1  0
 19 72  1  0
 26 73  1  0
 26 74  1  0
 28 75  1  0
 30 76  1  0
 30 77  1  0
 32 78  1  0
 37 79  1  0
 43 80  1  0
 43 81  1  0
 45 82  1  0
 46 83  1  0
 47 84  1  0
 48 85  1  0
 51 86  1  0
 52 87  1  0
 53 88  1  0
 53 89  1  0
 54 90  1  0
 54 91  1  0
M  CHG  3  21  -1  23  -1  36  -1
M  END
>  <UniqueID>  (88) 
82

>  <SMILES>  (88) 
CCN1CCN(C(=O)c2ccc(CN(Cc3cccc([O-])c3[O-])C(=O)Cn3cc(Cc4cnc(=O)[n-]c4)c(=O)nc3SCc3ccccc3F)cc2)CC1

>  <Energy>  (88) 
107.93104907794452

>  <Genealogy>  (88) 
CCN1CCN(C(=O)c2ccc(CN(Cc3cccc([O-])c3[O-])C(=O)Cn3cc(Cc4cnc(=O)[n-]c4)c(=O)nc3SCc3ccccc3F)cc2)CC1 (protonated)
CCN1CCN(C(=O)c2ccc(CN(Cc3cccc([O-])c3[O-])C(=O)Cn3cc(Cc4cnc(=O)[n-]c4)c(=O)nc3SCc3ccccc3F)cc2)CC1 (3D coordinates assigned)
CCN1CCN(C(=O)c2ccc(CN(Cc3cccc([O-])c3[O-])C(=O)Cn3cc(Cc4cnc(=O)[n-]c4)c(=O)nc3SCc3ccccc3F)cc2)CC1 (nonaromatic ring conformer: 107.93104907794452 kcal/mol)

>  <smiles>  (88) 
CCN1CCN(C(=O)c2ccc(CN(Cc3cccc(O)c3O)C(=O)Cn3cc(Cc4cnc(=O)[nH]c4)c(=O)nc3SCc3ccccc3F)cc2)CC1

>  <score_type>  (88) 
oracle

>  <origin>  (88) 
adg

>  <m_score__min__energy>  (88) 
-20.149999999999999

>  <m_primary>  (88) 
energy

$$$$
88:0
     RDKit          3D

 64 67  0  0  0  0  0  0  0  0999 V2000
   60.6300   34.0190   50.0830 C   0  0  0  0  0  0  0  0  0  0  0  0
   61.2330   33.8520   48.7090 C   0  0  0  0  0  0  0  0  0  0  0  0
   62.5920   33.5170   48.5300 C   0  0  0  0  0  0  0  0  0  0  0  0
   63.6120   33.2650   49.5740 C   0  0  0  0  0  0  0  0  0  0  0  0
   63.4660   33.7430   50.7320 O   0  0  0  0  0  0  0  0  0  0  0  0
   64.7630   32.4580   49.2810 N   0  0  0  0  0  0  0  0  0  0  0  0
   65.8640   32.3220   50.1940 C   0  0  0  0  0  0  0  0  0  0  0  0
   66.9360   33.2260   50.1130 C   0  0  0  0  0  0  0  0  0  0  0  0
   68.0560   33.0760   50.9310 C   0  0  0  0  0  0  0  0  0  0  0  0
   68.1240   32.0150   51.8310 C   0  0  0  0  0  0  0  0  0  0  0  0
   67.0670   31.1090   51.9280 C   0  0  0  0  0  0  0  0  0  0  0  0
   65.9130   31.2570   51.1310 C   0  0  0  0  0  0  0  0  0  0  0  0
   64.7540   30.2780   51.2920 C   0  0  0  0  0  0  0  0  0  0  0  0
   63.5730   30.9130   52.0400 C   0  0  0  0  0  0  0  0  0  0  0  0
   65.2210   28.9960   51.9870 C   0  0  0  0  0  0  0  0  0  0  0  0
   62.8980   33.4120   46.8780 S   0  0  0  0  0  0  0  0  0  0  0  0
   61.3270   33.7790   46.4520 C   0  0  0  0  0  0  0  0  0  0  0  0
   60.9240   33.8400   45.2600 O   0  0  0  0  0  0  0  0  0  0  0  0
   60.5300   33.9890   47.5310 N   0  0  0  0  0  0  0  0  0  0  0  0
   59.0780   34.1970   47.3980 C   0  0  0  0  0  0  0  0  0  0  0  0
   58.4480   33.0170   46.7040 C   0  0  0  0  0  0  0  0  0  0  0  0
   57.7300   33.2020   45.5110 C   0  0  0  0  0  0  0  0  0  0  0  0
   57.2310   32.1030   44.8070 C   0  0  0  0  0  0  0  0  0  0  0  0
   57.4550   30.8020   45.2790 C   0  0  0  0  0  0  0  0  0  0  0  0
   56.9010   29.4100   44.3450 S   0  0  0  0  0  0  0  0  0  0  0  0
   55.5150   29.0330   44.7900 O   0  0  0  0  0  0  0  0  0  0  0  0
   56.8370   29.7840   42.8900 O   0  0  0  0  0  0  0  0  0  0  0  0
   57.9690   28.0390   44.5440 N   0  0  0  0  0  0  0  0  0  0  0  0
   57.8370   27.4770   45.9020 C   0  0  0  0  0  0  0  0  0  0  0  0
   59.0780   26.6450   46.2670 C   0  0  0  0  0  0  0  0  0  0  0  0
   60.2940   27.3850   46.2580 O   0  0  0  0  0  0  0  0  0  0  0  0
   60.2550   28.5430   45.4350 C   0  0  0  0  0  0  0  0  0  0  0  0
   59.3650   28.3750   44.1890 C   0  0  0  0  0  0  0  0  0  0  0  0
   58.1480   30.6150   46.4820 C   0  0  0  0  0  0  0  0  0  0  0  0
   58.6430   31.7130   47.1900 C   0  0  0  0  0  0  0  0  0  0  0  0
   61.3932   33.8076   50.8465 H   0  0  0  0  0  0  0  0  0  0  0  0
   60.2685   35.0511   50.2018 H   0  0  0  0  0  0  0  0  0  0  0  0
   59.7890   33.3200   50.2018 H   0  0  0  0  0  0  0  0  0  0  0  0
   64.7860   31.9030   48.3980 H   0  0  0  0  0  0  0  0  0  0  0  0
   66.8919   34.0604   49.3976 H   0  0  0  0  0  0  0  0  0  0  0  0
   68.8854   33.7955   50.8653 H   0  0  0  0  0  0  0  0  0  0  0  0
   69.0130   31.8910   52.4668 H   0  0  0  0  0  0  0  0  0  0  0  0
   67.1348   30.2690   52.6349 H   0  0  0  0  0  0  0  0  0  0  0  0
   64.3979   30.0152   50.2850 H   0  0  0  0  0  0  0  0  0  0  0  0
   63.7360   30.8254   53.1243 H   0  0  0  0  0  0  0  0  0  0  0  0
   63.4938   31.9753   51.7658 H   0  0  0  0  0  0  0  0  0  0  0  0
   62.6431   30.3932   51.7658 H   0  0  0  0  0  0  0  0  0  0  0  0
   65.1717   29.1313   53.0775 H   0  0  0  0  0  0  0  0  0  0  0  0
   64.5695   28.1605   51.6914 H   0  0  0  0  0  0  0  0  0  0  0  0
   66.2573   28.7753   51.6914 H   0  0  0  0  0  0  0  0  0  0  0  0
   58.6336   34.3111   48.3977 H   0  0  0  0  0  0  0  0  0  0  0  0
   58.8970   35.1040   46.8026 H   0  0  0  0  0  0  0  0  0  0  0  0
   57.5594   34.2191   45.1283 H   0  0  0  0  0  0  0  0  0  0  0  0
   56.6606   32.2591   43.8795 H   0  0  0  0  0  0  0  0  0  0  0  0
   57.7279   28.2993   46.6244 H   0  0  0  0  0  0  0  0  0  0  0  0
   56.9518   26.8246   45.9311 H   0  0  0  0  0  0  0  0  0  0  0  0
   58.9325   26.2309   47.2756 H   0  0  0  0  0  0  0  0  0  0  0  0
   59.1749   25.8639   45.4985 H   0  0  0  0  0  0  0  0  0  0  0  0
   59.8666   29.3820   46.0310 H   0  0  0  0  0  0  0  0  0  0  0  0
   61.2803   28.7258   45.0809 H   0  0  0  0  0  0  0  0  0  0  0  0
   59.3696   29.3165   43.6202 H   0  0  0  0  0  0  0  0  0  0  0  0
   59.7716   27.5459   43.5914 H   0  0  0  0  0  0  0  0  0  0  0  0
   58.3033   29.5980   46.8714 H   0  0  0  0  0  0  0  0  0  0  0  0
   59.1880   31.5560   48.1325 H   0  0  0  0  0  0  0  0  0  0  0  0
  1  2  1  0
  2  3  2  0
  3  4  1  0
  4  5  2  0
  4  6  1  0
  6  7  1  0
  7  8  2  0
  8  9  1  0
  9 10  2  0
 10 11  1  0
 11 12  2  0
 12 13  1  0
 13 14  1  0
 13 15  1  0
  3 16  1  0
 16 17  1  0
 17 18  2  0
 17 19  1  0
 19 20  1  0
 20 21  1  0
 21 22  2  0
 22 23  1  0
 23 24  2  0
 24 25  1  0
 25 26  2  0
 25 27  2  0
 25 28  1  0
 28 29  1  0
 29 30  1  0
 30 31  1  0
 31 32  1  0
 32 33  1  0
 24 34  1  0
 34 35  2  0
 19  2  1  0
 35 21  1  0
 12  7  1  0
 33 28  1  0
  1 36  1  0
  1 37  1  0
  1 38  1  0
  6 39  1  0
  8 40  1  0
  9 41  1  0
 10 42  1  0
 11 43  1  0
 13 44  1  0
 14 45  1  0
 14 46  1  0
 14 47  1  0
 15 48  1  0
 15 49  1  0
 15 50  1  0
 20 51  1  0
 20 52  1  0
 22 53  1  0
 23 54  1  0
 29 55  1  0
 29 56  1  0
 30 57  1  0
 30 58  1  0
 32 59  1  0
 32 60  1  0
 33 61  1  0
 33 62  1  0
 34 63  1  0
 35 64  1  0
M  END
>  <UniqueID>  (89) 
83

>  <SMILES>  (89) 
Cc1c(C(=O)Nc2ccccc2C(C)C)sc(=O)n1Cc1ccc(S(=O)(=O)N2CCOCC2)cc1

>  <Energy>  (89) 
115.0630230521626

>  <Genealogy>  (89) 
Cc1c(C(=O)Nc2ccccc2C(C)C)sc(=O)n1Cc1ccc(S(=O)(=O)N2CCOCC2)cc1 (3D coordinates assigned)
Cc1c(C(=O)Nc2ccccc2C(C)C)sc(=O)n1Cc1ccc(S(=O)(=O)N2CCOCC2)cc1 (nonaromatic ring conformer: 115.0630230521626 kcal/mol)

>  <smiles>  (89) 
Cc1c(C(=O)Nc2ccccc2C(C)C)sc(=O)n1Cc1ccc(S(=O)(=O)N2CCOCC2)cc1

>  <score_type>  (89) 
oracle

>  <origin>  (89) 
adg

>  <m_score__min__energy>  (89) 
-9.9900000000000002

>  <m_primary>  (89) 
energy

$$$$
