0:0
     RDKit          3D

 56 58  0  0  0  0  0  0  0  0999 V2000
   56.6380   30.4460   43.3560 C   0  0  0  0  0  0  0  0  0  0  0  0
   57.4090   31.7430   43.5710 C   0  0  0  0  0  0  0  0  0  0  0  0
   57.0650   32.3270   44.8230 O   0  0  0  0  0  0  0  0  0  0  0  0
   57.8390   33.2960   45.4700 C   0  0  0  0  0  0  0  0  0  0  0  0
   57.4720   34.5030   45.4550 O   0  0  0  0  0  0  0  0  0  0  0  0
   59.1060   32.9090   46.1400 C   0  0  0  0  0  0  0  0  0  0  0  0
   59.4450   31.5830   46.4330 C   0  0  0  0  0  0  0  0  0  0  0  0
   58.6310   30.4260   46.2170 N   0  0  0  0  0  0  0  0  0  0  0  0
   59.1040   29.1070   46.5290 C   0  0  0  0  0  0  0  0  0  0  0  0
   60.3230   28.9330   46.8040 O   0  0  0  0  0  0  0  0  0  0  0  0
   58.1790   27.9510   46.5320 C   0  0  0  0  0  0  0  0  0  0  0  0
   57.0260   27.9450   45.7270 C   0  0  0  0  0  0  0  0  0  0  0  0
   56.1520   26.8540   45.7480 C   0  0  0  0  0  0  0  0  0  0  0  0
   56.4210   25.7470   46.5580 C   0  0  0  0  0  0  0  0  0  0  0  0
   55.4900   24.6580   46.5830 N   0  0  0  0  0  0  0  0  0  0  0  0
   54.4550   24.4040   45.6240 C   0  0  0  0  0  0  0  0  0  0  0  0
   53.4350   25.1440   45.6280 O   0  0  0  0  0  0  0  0  0  0  0  0
   54.6390   23.4030   44.5090 C   0  0  0  0  0  0  0  0  0  0  0  0
   55.9850   22.7300   44.5850 C   0  0  0  0  0  0  0  0  0  0  0  0
   56.1180   21.4800   45.2150 C   0  0  0  0  0  0  0  0  0  0  0  0
   57.3720   20.8670   45.3070 C   0  0  0  0  0  0  0  0  0  0  0  0
   58.5020   21.5000   44.7800 C   0  0  0  0  0  0  0  0  0  0  0  0
   58.3800   22.7480   44.1650 C   0  0  0  0  0  0  0  0  0  0  0  0
   57.1280   23.3640   44.0680 C   0  0  0  0  0  0  0  0  0  0  0  0
   57.5440   25.7650   47.3970 C   0  0  0  0  0  0  0  0  0  0  0  0
   58.4200   26.8540   47.3800 C   0  0  0  0  0  0  0  0  0  0  0  0
   61.0220   31.5070   46.9880 S   0  0  0  0  0  0  0  0  0  0  0  0
   61.3190   33.1590   46.9180 C   0  0  0  0  0  0  0  0  0  0  0  0
   62.6270   33.7480   47.2730 C   0  0  0  0  0  0  0  0  0  0  0  0
   63.1060   33.8380   48.6890 C   0  0  0  0  0  0  0  0  0  0  0  0
   63.3490   34.2290   46.3590 O   0  0  0  0  0  0  0  0  0  0  0  0
   60.1570   33.8100   46.4660 C   0  0  0  0  0  0  0  0  0  0  0  0
   60.0210   35.3060   46.3900 C   0  0  0  0  0  0  0  0  0  0  0  0
   56.3778   30.0082   44.3310 H   0  0  0  0  0  0  0  0  0  0  0  0
   55.7179   30.6558   42.7909 H   0  0  0  0  0  0  0  0  0  0  0  0
   57.2619   29.7379   42.7909 H   0  0  0  0  0  0  0  0  0  0  0  0
   58.4879   31.5293   43.5557 H   0  0  0  0  0  0  0  0  0  0  0  0
   57.1500   32.4477   42.7671 H   0  0  0  0  0  0  0  0  0  0  0  0
   57.8050   30.5280   45.5870 H   0  0  0  0  0  0  0  0  0  0  0  0
   56.8102   28.8050   45.0760 H   0  0  0  0  0  0  0  0  0  0  0  0
   55.2468   26.8668   45.1231 H   0  0  0  0  0  0  0  0  0  0  0  0
   53.8524   22.6376   44.5829 H   0  0  0  0  0  0  0  0  0  0  0  0
   54.5760   23.9395   43.5508 H   0  0  0  0  0  0  0  0  0  0  0  0
   55.2325   20.9822   45.6371 H   0  0  0  0  0  0  0  0  0  0  0  0
   57.4693   19.8858   45.7945 H   0  0  0  0  0  0  0  0  0  0  0  0
   59.4869   21.0151   44.8498 H   0  0  0  0  0  0  0  0  0  0  0  0
   59.2706   23.2476   43.7560 H   0  0  0  0  0  0  0  0  0  0  0  0
   57.0375   24.3483   43.5853 H   0  0  0  0  0  0  0  0  0  0  0  0
   57.7367   24.9180   48.0719 H   0  0  0  0  0  0  0  0  0  0  0  0
   59.3043   26.8536   48.0342 H   0  0  0  0  0  0  0  0  0  0  0  0
   62.2595   33.6790   49.3732 H   0  0  0  0  0  0  0  0  0  0  0  0
   63.8710   33.0679   48.8669 H   0  0  0  0  0  0  0  0  0  0  0  0
   63.5393   34.8333   48.8669 H   0  0  0  0  0  0  0  0  0  0  0  0
   59.9831   35.7229   47.4072 H   0  0  0  0  0  0  0  0  0  0  0  0
   60.8847   35.7259   45.8536 H   0  0  0  0  0  0  0  0  0  0  0  0
   59.0958   35.5633   45.8536 H   0  0  0  0  0  0  0  0  0  0  0  0
  1  2  1  0
  2  3  1  0
  3  4  1  0
  4  5  2  0
  4  6  1  0
  6  7  2  0
  7  8  1  0
  8  9  1  0
  9 10  2  0
  9 11  1  0
 11 12  2  0
 12 13  1  0
 13 14  2  0
 14 15  1  0
 15 16  1  0
 16 17  2  0
 16 18  1  0
 18 19  1  0
 19 20  2  0
 20 21  1  0
 21 22  2  0
 22 23  1  0
 23 24  2  0
 14 25  1  0
 25 26  2  0
  7 27  1  0
 27 28  1  0
 28 29  1  0
 29 30  1  0
 29 31  2  0
 28 32  2  0
 32 33  1  0
 32  6  1  0
 26 11  1  0
 24 19  1  0
  1 34  1  0
  1 35  1  0
  1 36  1  0
  2 37  1  0
  2 38  1  0
  8 39  1  0
 12 40  1  0
 13 41  1  0
 18 42  1  0
 18 43  1  0
 20 44  1  0
 21 45  1  0
 22 46  1  0
 23 47  1  0
 24 48  1  0
 25 49  1  0
 26 50  1  0
 30 51  1  0
 30 52  1  0
 30 53  1  0
 33 54  1  0
 33 55  1  0
 33 56  1  0
M  CHG  1  15  -1
M  END
>  <UniqueID>  (1) 
1

>  <SMILES>  (1) 
CCOC(=O)c1c(NC(=O)c2ccc([N-]C(=O)Cc3ccccc3)cc2)sc(C(C)=O)c1C

>  <Energy>  (1) 
98.42664635526206

>  <Genealogy>  (1) 
CCOC(=O)c1c(NC(=O)c2ccc([N-]C(=O)Cc3ccccc3)cc2)sc(C(C)=O)c1C (protonated)
CCOC(=O)c1c(NC(=O)c2ccc([N-]C(=O)Cc3ccccc3)cc2)sc(C(C)=O)c1C (3D coordinates assigned)
CCOC(=O)c1c(NC(=O)c2ccc([N-]C(=O)Cc3ccccc3)cc2)sc(C(C)=O)c1C (optimized conformer: 98.42664635526206 kcal/mol)

>  <smiles>  (1) 
CCOC(=O)c1c(NC(=O)c2ccc(NC(=O)Cc3ccccc3)cc2)sc(C(C)=O)c1C

>  <score_type>  (1) 
oracle

>  <origin>  (1) 
adg

>  <m_score__min__energy>  (1) 
-10.41

>  <m_primary>  (1) 
energy

$$$$
1:0
     RDKit          3D

 71 74  0  0  0  0  0  0  0  0999 V2000
   56.6300   22.9140   48.8540 C   0  0  0  0  0  0  0  0  0  0  0  0
   56.9910   22.9020   47.3960 C   0  0  0  0  0  0  0  0  0  0  0  0
   57.1850   21.7880   46.8340 O   0  0  0  0  0  0  0  0  0  0  0  0
   57.1010   24.1260   46.6360 N   0  0  0  0  0  0  0  0  0  0  0  0
   56.6860   25.4060   47.2340 C   0  0  0  0  0  0  0  0  0  0  0  0
   56.6930   26.5450   46.2090 C   0  0  0  0  0  0  0  0  0  0  0  0
   57.9420   26.5250   45.4350 N   0  0  0  0  0  0  0  0  0  0  0  0
   58.5750   27.7520   45.0230 C   0  0  0  0  0  0  0  0  0  0  0  0
   59.1740   27.8090   43.9130 O   0  0  0  0  0  0  0  0  0  0  0  0
   58.6000   28.9400   45.8990 C   0  0  0  0  0  0  0  0  0  0  0  0
   59.0590   28.8370   47.2200 C   0  0  0  0  0  0  0  0  0  0  0  0
   59.1090   29.9660   48.0400 C   0  0  0  0  0  0  0  0  0  0  0  0
   58.6940   31.2170   47.5550 C   0  0  0  0  0  0  0  0  0  0  0  0
   58.8010   32.3730   48.4040 N   0  0  0  0  0  0  0  0  0  0  0  0
   58.3440   32.2960   49.8000 C   0  0  0  0  0  0  0  0  0  0  0  0
   59.5290   32.5250   50.7520 C   0  0  0  0  0  0  0  0  0  0  0  0
   60.3950   33.6170   50.2810 N   0  0  0  0  0  0  0  0  0  0  0  0
   61.6480   33.8510   50.9500 C   0  0  0  0  0  0  0  0  0  0  0  0
   61.7170   33.7130   52.2020 O   0  0  0  0  0  0  0  0  0  0  0  0
   62.8820   34.2510   50.1830 C   0  0  0  0  0  0  0  0  0  0  0  0
   63.7660   33.0410   49.8620 C   0  0  0  0  0  0  0  0  0  0  0  0
   63.0690   32.1260   48.8970 C   0  0  0  0  0  0  0  0  0  0  0  0
   62.8700   32.3090   47.5410 C   0  0  0  0  0  0  0  0  0  0  0  0
   63.4060   33.4180   46.6940 C   0  0  0  0  0  0  0  0  0  0  0  0
   62.1160   31.2920   47.0790 N   0  0  0  0  0  0  0  0  0  0  0  0
   61.8260   30.5150   48.0790 O   0  0  0  0  0  0  0  0  0  0  0  0
   62.3650   30.9720   49.1880 C   0  0  0  0  0  0  0  0  0  0  0  0
   62.1820   30.2200   50.7620 Cl  0  0  0  0  0  0  0  0  0  0  0  0
   59.9690   34.4290   49.1310 C   0  0  0  0  0  0  0  0  0  0  0  0
   59.6370   33.5000   47.9610 C   0  0  0  0  0  0  0  0  0  0  0  0
   58.2150   31.3210   46.2340 C   0  0  0  0  0  0  0  0  0  0  0  0
   57.5980   32.8430   45.6040 S   0  0  0  0  0  0  0  0  0  0  0  0
   58.8360   33.7110   44.6650 C   0  0  0  0  0  0  0  0  0  0  0  0
   56.9870   33.7950   46.8480 O   0  0  0  0  0  0  0  0  0  0  0  0
   58.1880   30.1880   45.4090 C   0  0  0  0  0  0  0  0  0  0  0  0
   58.4270   25.2520   44.8780 C   0  0  0  0  0  0  0  0  0  0  0  0
   57.4940   24.0820   45.2180 C   0  0  0  0  0  0  0  0  0  0  0  0
   57.5480   22.8835   49.4593 H   0  0  0  0  0  0  0  0  0  0  0  0
   56.0687   23.8313   49.0852 H   0  0  0  0  0  0  0  0  0  0  0  0
   56.0090   22.0360   49.0852 H   0  0  0  0  0  0  0  0  0  0  0  0
   55.6684   25.2967   47.6371 H   0  0  0  0  0  0  0  0  0  0  0  0
   57.4028   25.6588   48.0292 H   0  0  0  0  0  0  0  0  0  0  0  0
   55.8400   26.4234   45.5252 H   0  0  0  0  0  0  0  0  0  0  0  0
   56.6156   27.5054   46.7398 H   0  0  0  0  0  0  0  0  0  0  0  0
   59.3815   27.8613   47.6124 H   0  0  0  0  0  0  0  0  0  0  0  0
   59.4760   29.8750   49.0730 H   0  0  0  0  0  0  0  0  0  0  0  0
   57.5799   33.0673   49.9767 H   0  0  0  0  0  0  0  0  0  0  0  0
   57.9168   31.2997   49.9867 H   0  0  0  0  0  0  0  0  0  0  0  0
   59.1421   32.7804   51.7495 H   0  0  0  0  0  0  0  0  0  0  0  0
   60.1261   31.6019   50.7885 H   0  0  0  0  0  0  0  0  0  0  0  0
   62.5767   34.7296   49.2408 H   0  0  0  0  0  0  0  0  0  0  0  0
   63.4639   34.9453   50.8069 H   0  0  0  0  0  0  0  0  0  0  0  0
   64.7089   33.3892   49.4150 H   0  0  0  0  0  0  0  0  0  0  0  0
   63.9698   32.4907   50.7924 H   0  0  0  0  0  0  0  0  0  0  0  0
   63.7932   34.2191   47.3408 H   0  0  0  0  0  0  0  0  0  0  0  0
   64.2183   33.0347   46.0590 H   0  0  0  0  0  0  0  0  0  0  0  0
   62.6010   33.8163   46.0590 H   0  0  0  0  0  0  0  0  0  0  0  0
   61.7980   31.1400   46.0970 H   0  0  0  0  0  0  0  0  0  0  0  0
   59.0775   35.0136   49.4023 H   0  0  0  0  0  0  0  0  0  0  0  0
   60.7773   35.1167   48.8418 H   0  0  0  0  0  0  0  0  0  0  0  0
   59.0948   34.0697   47.1919 H   0  0  0  0  0  0  0  0  0  0  0  0
   60.5770   33.1002   47.5530 H   0  0  0  0  0  0  0  0  0  0  0  0
   59.5390   34.2039   45.3526 H   0  0  0  0  0  0  0  0  0  0  0  0
   59.3827   32.9974   44.0310 H   0  0  0  0  0  0  0  0  0  0  0  0
   58.3514   34.4682   44.0310 H   0  0  0  0  0  0  0  0  0  0  0  0
   56.0170   33.8690   46.6500 H   0  0  0  0  0  0  0  0  0  0  0  0
   57.8410   30.2784   44.3691 H   0  0  0  0  0  0  0  0  0  0  0  0
   58.4944   25.3459   43.7841 H   0  0  0  0  0  0  0  0  0  0  0  0
   59.4114   25.0408   45.3211 H   0  0  0  0  0  0  0  0  0  0  0  0
   56.5923   24.1451   44.5911 H   0  0  0  0  0  0  0  0  0  0  0  0
   58.0258   23.1382   45.0272 H   0  0  0  0  0  0  0  0  0  0  0  0
  1  2  1  0
  2  3  2  0
  2  4  1  0
  4  5  1  0
  5  6  1  0
  6  7  1  0
  7  8  1  0
  8  9  2  0
  8 10  1  0
 10 11  2  0
 11 12  1  0
 12 13  2  0
 13 14  1  0
 14 15  1  0
 15 16  1  0
 16 17  1  0
 17 18  1  0
 18 19  2  0
 18 20  1  0
 20 21  1  0
 21 22  1  0
 22 23  1  0
 23 24  1  0
 23 25  2  0
 25 26  1  0
 26 27  1  0
 27 28  1  0
 17 29  1  0
 29 30  1  0
 13 31  1  0
 31 32  1  0
 32 33  1  0
 32 34  1  1
 31 35  2  0
  7 36  1  0
 36 37  1  0
 37  4  1  0
 35 10  1  0
 30 14  1  0
 27 22  2  0
  1 38  1  0
  1 39  1  0
  1 40  1  0
  5 41  1  0
  5 42  1  0
  6 43  1  0
  6 44  1  0
 11 45  1  0
 12 46  1  0
 15 47  1  0
 15 48  1  0
 16 49  1  0
 16 50  1  0
 20 51  1  0
 20 52  1  0
 21 53  1  0
 21 54  1  0
 24 55  1  0
 24 56  1  0
 24 57  1  0
 25 58  1  0
 29 59  1  0
 29 60  1  0
 30 61  1  0
 30 62  1  0
 33 63  1  0
 33 64  1  0
 33 65  1  0
 34 66  1  0
 35 67  1  0
 36 68  1  0
 36 69  1  0
 37 70  1  0
 37 71  1  0
M  CHG  2  25   1  32   1
M  END
>  <UniqueID>  (2) 
2

>  <SMILES>  (2) 
CC(=O)N1CCN(C(=O)c2ccc(N3CCN(C(=O)CCc4c(C)[nH+]oc4Cl)CC3)c([S@+](C)O)c2)CC1

>  <Energy>  (2) 
107.79530428072019

>  <Genealogy>  (2) 
CC(=O)N1CCN(C(=O)c2ccc(N3CCN(C(=O)CCc4c(C)[nH+]oc4Cl)CC3)c([S+](C)O)c2)CC1 (protonated)
CC(=O)N1CCN(C(=O)c2ccc(N3CCN(C(=O)CCc4c(C)[nH+]oc4Cl)CC3)c([S@+](C)O)c2)CC1 (chirality)
CC(=O)N1CCN(C(=O)c2ccc(N3CCN(C(=O)CCc4c(C)[nH+]oc4Cl)CC3)c([S@+](C)O)c2)CC1 (3D coordinates assigned)
CC(=O)N1CCN(C(=O)c2ccc(N3CCN(C(=O)CCc4c(C)[nH+]oc4Cl)CC3)c([S@+](C)O)c2)CC1 (nonaromatic ring conformer: 107.79530428072019 kcal/mol)

>  <smiles>  (2) 
CC(=O)N1CCN(C(=O)c2ccc(N3CCN(C(=O)CCc4c(C)noc4Cl)CC3)c([S+](C)[O-])c2)CC1

>  <score_type>  (2) 
oracle

>  <origin>  (2) 
adg

>  <m_score__min__energy>  (2) 
-6.9299999999999997

>  <m_primary>  (2) 
energy

$$$$
2:0
     RDKit          3D

 34 36  0  0  0  0  0  0  0  0999 V2000
   57.7438   33.3566   48.2265 H   0  0  0  0  0  0  0  0  0  0  0  0
   58.8360   33.4420   48.1270 C   0  0  0  0  0  0  0  0  0  0  0  0
   59.7110   33.3750   49.1350 C   0  0  0  0  0  0  0  0  0  0  0  0
   59.3290   33.2310   50.5520 C   0  0  0  0  0  0  0  0  0  0  0  0
   59.2340   32.0760   51.0510 O   0  0  0  0  0  0  0  0  0  0  0  0
   59.0240   34.3820   51.3510 N   0  0  0  0  0  0  0  0  0  0  0  0
   58.8920   35.3110   50.8920 H   0  0  0  0  0  0  0  0  0  0  0  0
   58.8150   34.2810   52.7900 C   0  0  0  0  0  0  0  0  0  0  0  0
   59.6843   34.7011   53.3171 H   0  0  0  0  0  0  0  0  0  0  0  0
   57.9107   34.8415   53.0694 H   0  0  0  0  0  0  0  0  0  0  0  0
   58.6923   33.2242   53.0694 H   0  0  0  0  0  0  0  0  0  0  0  0
   61.0680   33.5100   48.5900 C   0  0  0  0  0  0  0  0  0  0  0  0
   62.3120   33.4010   49.2190 C   0  0  0  0  0  0  0  0  0  0  0  0
   62.3815   33.2179   50.3014 H   0  0  0  0  0  0  0  0  0  0  0  0
   63.4720   33.5310   48.4350 C   0  0  0  0  0  0  0  0  0  0  0  0
   64.6920   33.4380   49.0170 F   0  0  0  0  0  0  0  0  0  0  0  0
   63.3720   33.7430   47.0460 C   0  0  0  0  0  0  0  0  0  0  0  0
   64.2851   33.8536   46.4427 H   0  0  0  0  0  0  0  0  0  0  0  0
   62.1140   33.8140   46.4270 C   0  0  0  0  0  0  0  0  0  0  0  0
   62.0272   33.9626   45.3405 H   0  0  0  0  0  0  0  0  0  0  0  0
   60.9750   33.6910   47.2270 C   0  0  0  0  0  0  0  0  0  0  0  0
   59.5620   33.6480   46.8620 C   0  0  0  0  0  0  0  0  0  0  0  0
   59.0520   33.8330   45.6360 C   0  0  0  0  0  0  0  0  0  0  0  0
   59.1707   34.8229   45.1712 H   0  0  0  0  0  0  0  0  0  0  0  0
   58.3400   32.7880   44.8710 C   0  0  0  0  0  0  0  0  0  0  0  0
   57.6840   31.7570   45.5580 C   0  0  0  0  0  0  0  0  0  0  0  0
   57.7280   31.7158   46.6563 H   0  0  0  0  0  0  0  0  0  0  0  0
   56.9930   30.8070   44.8710 N   0  0  0  0  0  0  0  0  0  0  0  0
   56.8990   30.8310   43.5150 C   0  0  0  0  0  0  0  0  0  0  0  0
   56.3408   30.0430   42.9883 H   0  0  0  0  0  0  0  0  0  0  0  0
   57.5110   31.8560   42.7910 C   0  0  0  0  0  0  0  0  0  0  0  0
   57.4320   31.8853   41.6942 H   0  0  0  0  0  0  0  0  0  0  0  0
   58.2240   32.8430   43.4730 C   0  0  0  0  0  0  0  0  0  0  0  0
   58.6956   33.6650   42.9145 H   0  0  0  0  0  0  0  0  0  0  0  0
  1  2  1  0
  2  3  2  0
  3  4  1  0
  4  5  2  0
  4  6  1  0
  6  7  1  0
  6  8  1  0
  8  9  1  0
  8 10  1  0
  8 11  1  0
  3 12  1  0
 12 13  2  0
 13 14  1  0
 13 15  1  0
 15 16  1  0
 15 17  2  0
 17 18  1  0
 17 19  1  0
 19 20  1  0
 19 21  2  0
 21 22  1  0
 22 23  2  0
 23 24  1  0
 23 25  1  0
 25 26  2  0
 26 27  1  0
 26 28  1  0
 28 29  2  0
 29 30  1  0
 29 31  1  0
 31 32  1  0
 31 33  2  0
 33 34  1  0
 22  2  1  0
 33 25  1  0
 21 12  1  0
M  END
>  <UniqueID>  (3) 
3

>  <SMILES>  (3) 
CNC(=O)C1=C/C(=C\c2cccnc2)c2ccc(F)cc21

>  <Energy>  (3) 
69.28109259602442

>  <Genealogy>  (3) 
CNC(=O)C1=C/C(=C\c2cccnc2)c2ccc(F)cc21 (cis-trans isomerization)
CNC(=O)C1=C/C(=C\c2cccnc2)c2ccc(F)cc21 (3D coordinates assigned)
CNC(=O)C1=C/C(=C\c2cccnc2)c2ccc(F)cc21 (nonaromatic ring conformer: 69.28109259602442 kcal/mol)

>  <smiles>  (3) 
CNC(=O)C1=CC(=Cc2cccnc2)c2ccc(F)cc21

>  <score_type>  (3) 
oracle

>  <origin>  (3) 
adg

>  <m_score__min__energy>  (3) 
-7.8600000000000003

>  <m_primary>  (3) 
energy

$$$$
3:0
     RDKit          3D

 41 42  0  0  0  0  0  0  0  0999 V2000
   58.2530   32.1550   43.4650 C   0  0  0  0  0  0  0  0  0  0  0  0
   57.2320   32.1360   44.3340 C   0  0  0  0  0  0  0  0  0  0  0  0
   56.3130   30.9340   44.4020 C   0  0  0  0  0  0  0  0  0  0  0  0
   56.7420   30.0030   45.4540 N   0  0  0  0  0  0  0  0  0  0  0  0
   57.4190   28.8060   44.9230 C   0  0  0  0  0  0  0  0  0  0  0  0
   58.9280   28.8090   45.2050 C   0  0  0  0  0  0  0  0  0  0  0  0
   59.1660   29.0320   46.6290 N   0  0  0  0  0  0  0  0  0  0  0  0
   59.9590   28.2880   47.4240 C   0  0  0  0  0  0  0  0  0  0  0  0
   59.9870   28.8820   48.6720 C   0  0  0  0  0  0  0  0  0  0  0  0
   60.8110   28.4700   49.8450 C   0  0  0  0  0  0  0  0  0  0  0  0
   59.2060   30.0190   48.5610 C   0  0  0  0  0  0  0  0  0  0  0  0
   58.7220   30.0790   47.3070 N   0  0  0  0  0  0  0  0  0  0  0  0
   56.9870   33.3180   45.2460 C   0  0  0  0  0  0  0  0  0  0  0  0
   58.1900   33.5890   46.1110 C   0  0  0  0  0  0  0  0  0  0  0  0
   58.2160   33.1550   47.4480 C   0  0  0  0  0  0  0  0  0  0  0  0
   59.3170   33.4430   48.2620 C   0  0  0  0  0  0  0  0  0  0  0  0
   60.3970   34.1660   47.7480 C   0  0  0  0  0  0  0  0  0  0  0  0
   60.3800   34.6010   46.4210 C   0  0  0  0  0  0  0  0  0  0  0  0
   59.2820   34.3150   45.6040 C   0  0  0  0  0  0  0  0  0  0  0  0
   58.9189   33.0293   43.4178 H   0  0  0  0  0  0  0  0  0  0  0  0
   58.4247   31.2963   42.7993 H   0  0  0  0  0  0  0  0  0  0  0  0
   55.2899   31.2751   44.6186 H   0  0  0  0  0  0  0  0  0  0  0  0
   56.3478   30.4108   43.4350 H   0  0  0  0  0  0  0  0  0  0  0  0
   55.9040   29.7140   46.0120 H   0  0  0  0  0  0  0  0  0  0  0  0
   56.9750   27.9140   45.3890 H   0  0  0  0  0  0  0  0  0  0  0  0
   57.2835   28.8026   43.8314 H   0  0  0  0  0  0  0  0  0  0  0  0
   59.3562   27.8394   44.9109 H   0  0  0  0  0  0  0  0  0  0  0  0
   59.4034   29.6153   44.6272 H   0  0  0  0  0  0  0  0  0  0  0  0
   60.4903   27.3702   47.1319 H   0  0  0  0  0  0  0  0  0  0  0  0
   60.2841   28.7335   50.7739 H   0  0  0  0  0  0  0  0  0  0  0  0
   60.9767   27.3830   49.8131 H   0  0  0  0  0  0  0  0  0  0  0  0
   61.7800   28.9897   49.8131 H   0  0  0  0  0  0  0  0  0  0  0  0
   59.0138   30.7489   49.3612 H   0  0  0  0  0  0  0  0  0  0  0  0
   58.1190   30.8360   46.9150 H   0  0  0  0  0  0  0  0  0  0  0  0
   56.7760   34.2073   44.6339 H   0  0  0  0  0  0  0  0  0  0  0  0
   56.1310   33.0874   45.8973 H   0  0  0  0  0  0  0  0  0  0  0  0
   57.3672   32.5866   47.8559 H   0  0  0  0  0  0  0  0  0  0  0  0
   59.3326   33.1002   49.3071 H   0  0  0  0  0  0  0  0  0  0  0  0
   61.2614   34.3927   48.3894 H   0  0  0  0  0  0  0  0  0  0  0  0
   61.2314   35.1692   46.0181 H   0  0  0  0  0  0  0  0  0  0  0  0
   59.2725   34.6597   44.5594 H   0  0  0  0  0  0  0  0  0  0  0  0
  1  2  2  0
  2  3  1  0
  3  4  1  0
  4  5  1  0
  5  6  1  0
  6  7  1  0
  7  8  1  0
  8  9  2  0
  9 10  1  0
  9 11  1  0
 11 12  2  0
  2 13  1  0
 13 14  1  0
 14 15  2  0
 15 16  1  0
 16 17  2  0
 17 18  1  0
 18 19  2  0
 12  7  1  0
 19 14  1  0
  1 20  1  0
  1 21  1  0
  3 22  1  0
  3 23  1  0
  4 24  1  0
  5 25  1  0
  5 26  1  0
  6 27  1  0
  6 28  1  0
  8 29  1  0
 10 30  1  0
 10 31  1  0
 10 32  1  0
 11 33  1  0
 12 34  1  0
 13 35  1  0
 13 36  1  0
 15 37  1  0
 16 38  1  0
 17 39  1  0
 18 40  1  0
 19 41  1  0
M  CHG  1  12   1
M  END
>  <UniqueID>  (4) 
4

>  <SMILES>  (4) 
C=C(CNCCn1cc(C)c[nH+]1)Cc1ccccc1

>  <Energy>  (4) 
63.26752895485518

>  <Genealogy>  (4) 
C=C(CNCCn1cc(C)c[nH+]1)Cc1ccccc1 (protonated)
C=C(CNCCn1cc(C)c[nH+]1)Cc1ccccc1 (3D coordinates assigned)
C=C(CNCCn1cc(C)c[nH+]1)Cc1ccccc1 (optimized conformer: 63.26752895485518 kcal/mol)

>  <smiles>  (4) 
C=C(CNCCn1cc(C)cn1)Cc1ccccc1

>  <score_type>  (4) 
oracle

>  <origin>  (4) 
adg

>  <m_score__min__energy>  (4) 
-5.9299999999999997

>  <m_primary>  (4) 
energy

$$$$
4:0
     RDKit          3D

 62 65  0  0  0  0  0  0  0  0999 V2000
   55.6780   28.9050   44.8700 O   0  0  0  0  0  0  0  0  0  0  0  0
   56.5270   29.4110   44.0830 C   0  0  0  0  0  0  0  0  0  0  0  0
   56.4110   30.8580   43.7030 C   0  0  0  0  0  0  0  0  0  0  0  0
   57.3280   31.7090   44.5380 C   0  0  0  0  0  0  0  0  0  0  0  0
   58.1520   31.1190   45.5100 C   0  0  0  0  0  0  0  0  0  0  0  0
   59.0260   31.9050   46.2670 C   0  0  0  0  0  0  0  0  0  0  0  0
   59.0900   33.2900   46.0610 C   0  0  0  0  0  0  0  0  0  0  0  0
   60.1900   34.2830   47.0210 S   0  0  0  0  0  0  0  0  0  0  0  0
   61.5280   34.3410   46.3350 O   0  0  0  0  0  0  0  0  0  0  0  0
   59.6490   35.6840   47.1070 O   0  0  0  0  0  0  0  0  0  0  0  0
   60.3940   33.6420   48.6320 N   0  0  0  0  0  0  0  0  0  0  0  0
   59.6790   34.4660   49.6130 C   0  0  0  0  0  0  0  0  0  0  0  0
   59.6470   33.7330   50.9640 C   0  0  0  0  0  0  0  0  0  0  0  0
   60.9050   32.9960   51.2530 N   0  0  0  0  0  0  0  0  0  0  0  0
   60.8090   31.5160   51.3520 C   0  0  0  0  0  0  0  0  0  0  0  0
   59.4350   30.9920   50.9070 C   0  0  0  0  0  0  0  0  0  0  0  0
   59.6980   29.8200   49.9670 C   0  0  0  0  0  0  0  0  0  0  0  0
   61.1590   29.4470   50.1550 C   0  0  0  0  0  0  0  0  0  0  0  0
   61.8520   30.7400   50.5370 C   0  0  0  0  0  0  0  0  0  0  0  0
   62.0760   33.4740   50.4910 C   0  0  0  0  0  0  0  0  0  0  0  0
   61.8250   33.5180   48.9680 C   0  0  0  0  0  0  0  0  0  0  0  0
   58.2780   33.8800   45.0810 C   0  0  0  0  0  0  0  0  0  0  0  0
   57.4060   33.0940   44.3220 C   0  0  0  0  0  0  0  0  0  0  0  0
   57.6210   28.6190   43.5970 N   0  0  0  0  0  0  0  0  0  0  0  0
   57.7680   27.2130   43.9650 C   0  0  0  0  0  0  0  0  0  0  0  0
   58.4140   27.0840   45.3250 C   0  0  0  0  0  0  0  0  0  0  0  0
   59.6780   27.6670   45.5530 C   0  0  0  0  0  0  0  0  0  0  0  0
   60.3070   28.3620   44.5720 F   0  0  0  0  0  0  0  0  0  0  0  0
   60.3060   27.5300   46.7950 C   0  0  0  0  0  0  0  0  0  0  0  0
   59.6910   26.8030   47.8160 C   0  0  0  0  0  0  0  0  0  0  0  0
   58.4500   26.2020   47.5980 C   0  0  0  0  0  0  0  0  0  0  0  0
   57.8110   26.3280   46.3570 C   0  0  0  0  0  0  0  0  0  0  0  0
   56.2670   25.5090   46.1320 Cl  0  0  0  0  0  0  0  0  0  0  0  0
   56.6787   30.9741   42.6424 H   0  0  0  0  0  0  0  0  0  0  0  0
   55.3749   31.1843   43.8765 H   0  0  0  0  0  0  0  0  0  0  0  0
   58.1096   30.0325   45.6767 H   0  0  0  0  0  0  0  0  0  0  0  0
   59.6663   31.4344   47.0276 H   0  0  0  0  0  0  0  0  0  0  0  0
   60.1959   35.4299   49.7299 H   0  0  0  0  0  0  0  0  0  0  0  0
   58.6506   34.6441   49.2655 H   0  0  0  0  0  0  0  0  0  0  0  0
   59.4831   34.4732   51.7610 H   0  0  0  0  0  0  0  0  0  0  0  0
   58.8343   32.9931   50.9185 H   0  0  0  0  0  0  0  0  0  0  0  0
   60.9898   31.3365   52.4221 H   0  0  0  0  0  0  0  0  0  0  0  0
   58.8563   30.6557   51.7800 H   0  0  0  0  0  0  0  0  0  0  0  0
   58.8540   31.7798   50.4052 H   0  0  0  0  0  0  0  0  0  0  0  0
   59.0506   28.9696   50.2271 H   0  0  0  0  0  0  0  0  0  0  0  0
   59.4834   30.0878   48.9219 H   0  0  0  0  0  0  0  0  0  0  0  0
   61.2668   28.7003   50.9555 H   0  0  0  0  0  0  0  0  0  0  0  0
   61.5904   29.0016   49.2464 H   0  0  0  0  0  0  0  0  0  0  0  0
   62.7457   30.5360   51.1450 H   0  0  0  0  0  0  0  0  0  0  0  0
   62.1953   31.3035   49.6569 H   0  0  0  0  0  0  0  0  0  0  0  0
   62.3281   34.4881   50.8346 H   0  0  0  0  0  0  0  0  0  0  0  0
   62.8978   32.7650   50.6697 H   0  0  0  0  0  0  0  0  0  0  0  0
   62.3617   34.3812   48.5473 H   0  0  0  0  0  0  0  0  0  0  0  0
   62.1858   32.5695   48.5435 H   0  0  0  0  0  0  0  0  0  0  0  0
   58.3276   34.9654   44.9091 H   0  0  0  0  0  0  0  0  0  0  0  0
   56.7773   33.5634   43.5510 H   0  0  0  0  0  0  0  0  0  0  0  0
   58.3290   29.0680   42.9720 H   0  0  0  0  0  0  0  0  0  0  0  0
   56.7751   26.7401   43.9901 H   0  0  0  0  0  0  0  0  0  0  0  0
   58.4072   26.7164   43.2202 H   0  0  0  0  0  0  0  0  0  0  0  0
   61.2872   27.9963   46.9680 H   0  0  0  0  0  0  0  0  0  0  0  0
   60.1851   26.7036   48.7938 H   0  0  0  0  0  0  0  0  0  0  0  0
   57.9713   25.6267   48.4042 H   0  0  0  0  0  0  0  0  0  0  0  0
  1  2  2  0
  2  3  1  0
  3  4  1  0
  4  5  2  0
  5  6  1  0
  6  7  2  0
  7  8  1  0
  8  9  2  0
  8 10  2  0
  8 11  1  0
 11 12  1  0
 12 13  1  0
 13 14  1  0
 14 15  1  0
 15 16  1  0
 16 17  1  0
 17 18  1  0
 18 19  1  0
 14 20  1  0
 20 21  1  0
  7 22  1  0
 22 23  2  0
  2 24  1  0
 24 25  1  0
 25 26  1  0
 26 27  2  0
 27 28  1  0
 27 29  1  0
 29 30  2  0
 30 31  1  0
 31 32  2  0
 32 33  1  0
 23  4  1  0
 32 26  1  0
 21 11  1  0
 19 15  1  0
  3 34  1  0
  3 35  1  0
  5 36  1  0
  6 37  1  0
 12 38  1  0
 12 39  1  0
 13 40  1  0
 13 41  1  0
 15 42  1  0
 16 43  1  0
 16 44  1  0
 17 45  1  0
 17 46  1  0
 18 47  1  0
 18 48  1  0
 19 49  1  0
 19 50  1  0
 20 51  1  0
 20 52  1  0
 21 53  1  0
 21 54  1  0
 22 55  1  0
 23 56  1  0
 24 57  1  0
 25 58  1  0
 25 59  1  0
 29 60  1  0
 30 61  1  0
 31 62  1  0
M  END
>  <UniqueID>  (5) 
5

>  <SMILES>  (5) 
O=C(Cc1ccc(S(=O)(=O)N2CCN(C3CCCC3)CC2)cc1)NCc1c(F)cccc1Cl

>  <Energy>  (5) 
77.660467970008

>  <Genealogy>  (5) 
O=C(Cc1ccc(S(=O)(=O)N2CCN(C3CCCC3)CC2)cc1)NCc1c(F)cccc1Cl (3D coordinates assigned)
O=C(Cc1ccc(S(=O)(=O)N2CCN(C3CCCC3)CC2)cc1)NCc1c(F)cccc1Cl (nonaromatic ring conformer: 77.660467970008 kcal/mol)

>  <smiles>  (5) 
O=C(Cc1ccc(S(=O)(=O)N2CCN(C3CCCC3)CC2)cc1)NCc1c(F)cccc1Cl

>  <score_type>  (5) 
oracle

>  <origin>  (5) 
adg

>  <m_score__min__energy>  (5) 
-11.050000000000001

>  <m_primary>  (5) 
energy

$$$$
5:0
     RDKit          3D

 39 41  0  0  0  0  0  0  0  0999 V2000
   58.1920   23.6342   45.3765 H   0  0  0  0  0  0  0  0  0  0  0  0
   57.6080   24.5210   45.6640 C   0  0  0  0  0  0  0  0  0  0  0  0
   56.2560   24.5120   45.5360 N   0  0  0  0  0  0  0  0  0  0  0  0
   55.5150   25.5930   45.8860 C   0  0  0  0  0  0  0  0  0  0  0  0
   54.2630   25.5650   45.7580 O   0  0  0  0  0  0  0  0  0  0  0  0
   56.1210   26.7020   46.3770 N   0  0  0  0  0  0  0  0  0  0  0  0
   57.4700   26.7580   46.5360 C   0  0  0  0  0  0  0  0  0  0  0  0
   58.1920   28.2550   47.2240 S   0  0  0  0  0  0  0  0  0  0  0  0
   58.6010   28.9950   45.6050 C   0  0  0  0  0  0  0  0  0  0  0  0
   58.1054   28.4189   44.8097 H   0  0  0  0  0  0  0  0  0  0  0  0
   59.6927   28.9708   45.4720 H   0  0  0  0  0  0  0  0  0  0  0  0
   58.1380   30.4280   45.5390 C   0  0  0  0  0  0  0  0  0  0  0  0
   58.4900   31.2550   46.5610 N   0  0  0  0  0  0  0  0  0  0  0  0
   58.1450   32.5680   46.5730 C   0  0  0  0  0  0  0  0  0  0  0  0
   58.4940   33.3040   47.5880 N   0  0  0  0  0  0  0  0  0  0  0  0
   59.8270   33.5070   48.0870 C   0  0  0  0  0  0  0  0  0  0  0  0
   60.0050   33.7280   49.4600 C   0  0  0  0  0  0  0  0  0  0  0  0
   59.1301   33.7671   50.1256 H   0  0  0  0  0  0  0  0  0  0  0  0
   61.2880   33.8990   49.9880 C   0  0  0  0  0  0  0  0  0  0  0  0
   61.4180   34.0899   51.0635 H   0  0  0  0  0  0  0  0  0  0  0  0
   62.4050   33.8280   49.1530 C   0  0  0  0  0  0  0  0  0  0  0  0
   63.4129   33.9711   49.5698 H   0  0  0  0  0  0  0  0  0  0  0  0
   62.2430   33.5750   47.7870 C   0  0  0  0  0  0  0  0  0  0  0  0
   63.6480   33.4520   46.7440 Cl  0  0  0  0  0  0  0  0  0  0  0  0
   60.9590   33.4050   47.2550 C   0  0  0  0  0  0  0  0  0  0  0  0
   60.8338   33.1910   46.1833 H   0  0  0  0  0  0  0  0  0  0  0  0
   57.4090   33.0750   45.5490 N   0  0  0  0  0  0  0  0  0  0  0  0
   57.0280   32.2990   44.5040 C   0  0  0  0  0  0  0  0  0  0  0  0
   56.4387   32.7359   43.6843 H   0  0  0  0  0  0  0  0  0  0  0  0
   57.3810   30.9440   44.4630 C   0  0  0  0  0  0  0  0  0  0  0  0
   56.9390   30.0960   43.3010 C   0  0  0  0  0  0  0  0  0  0  0  0
   56.4612   29.1793   43.6769 H   0  0  0  0  0  0  0  0  0  0  0  0
   56.2199   30.6596   42.6884 H   0  0  0  0  0  0  0  0  0  0  0  0
   57.8128   29.8293   42.6884 H   0  0  0  0  0  0  0  0  0  0  0  0
   58.2610   25.6560   46.1610 C   0  0  0  0  0  0  0  0  0  0  0  0
   59.7560   25.6650   46.3150 C   0  0  0  0  0  0  0  0  0  0  0  0
   60.0145   25.6666   47.3842 H   0  0  0  0  0  0  0  0  0  0  0  0
   60.1793   24.7694   45.8368 H   0  0  0  0  0  0  0  0  0  0  0  0
   60.1685   26.5656   45.8368 H   0  0  0  0  0  0  0  0  0  0  0  0
  1  2  1  0
  2  3  2  0
  3  4  1  0
  4  5  2  0
  4  6  1  0
  6  7  1  0
  7  8  1  0
  8  9  1  0
  9 10  1  0
  9 11  1  0
  9 12  1  0
 12 13  1  0
 13 14  1  0
 14 15  2  0
 15 16  1  0
 16 17  2  0
 17 18  1  0
 17 19  1  0
 19 20  1  0
 19 21  2  0
 21 22  1  0
 21 23  1  0
 23 24  1  0
 23 25  2  0
 25 26  1  0
 14 27  1  0
 27 28  2  0
 28 29  1  0
 28 30  1  0
 30 31  1  0
 31 32  1  0
 31 33  1  0
 31 34  1  0
  7 35  2  0
 35 36  1  0
 36 37  1  0
 36 38  1  0
 36 39  1  0
 35  2  1  0
 30 12  2  0
 25 16  1  0
M  CHG  2   6  -1  13  -1
M  END
>  <UniqueID>  (6) 
6

>  <SMILES>  (6) 
Cc1cn/c(=N\c2cccc(Cl)c2)[n-]c1CSc1[n-]c(=O)ncc1C

>  <Energy>  (6) 
45.35790128209508

>  <Genealogy>  (6) 
Cc1cnc(=Nc2cccc(Cl)c2)[n-]c1CSc1[n-]c(=O)ncc1C (protonated)
Cc1cn/c(=N\c2cccc(Cl)c2)[n-]c1CSc1[n-]c(=O)ncc1C (cis-trans isomerization)
Cc1cn/c(=N\c2cccc(Cl)c2)[n-]c1CSc1[n-]c(=O)ncc1C (3D coordinates assigned)
Cc1cn/c(=N\c2cccc(Cl)c2)[n-]c1CSc1[n-]c(=O)ncc1C (optimized conformer: 45.35790128209508 kcal/mol)

>  <smiles>  (6) 
Cc1cnc(=Nc2cccc(Cl)c2)[nH]c1CSc1[nH]c(=O)ncc1C

>  <score_type>  (6) 
oracle

>  <origin>  (6) 
adg

>  <m_score__min__energy>  (6) 
-12.02

>  <m_primary>  (6) 
energy

$$$$
6:0
     RDKit          3D

 50 53  0  0  0  0  0  0  0  0999 V2000
   57.5600   23.1910   44.6060 C   0  0  0  0  0  0  0  0  0  0  0  0
   56.8940   24.3090   45.2740 N   0  0  0  0  0  0  0  0  0  0  0  0
   55.5710   24.5460   45.2090 C   0  0  0  0  0  0  0  0  0  0  0  0
   55.3270   25.7380   45.8410 C   0  0  0  0  0  0  0  0  0  0  0  0
   54.0810   26.3350   45.9760 O   0  0  0  0  0  0  0  0  0  0  0  0
   56.4660   26.2710   46.3150 N   0  0  0  0  0  0  0  0  0  0  0  0
   57.4060   25.3650   45.9710 C   0  0  0  0  0  0  0  0  0  0  0  0
   58.6620   25.5620   46.2670 N   0  0  0  0  0  0  0  0  0  0  0  0
   59.3140   26.7690   46.6730 C   0  0  0  0  0  0  0  0  0  0  0  0
   59.3610   27.0930   47.8910 O   0  0  0  0  0  0  0  0  0  0  0  0
   59.8410   27.7090   45.6310 C   0  0  0  0  0  0  0  0  0  0  0  0
   59.0620   29.0060   45.6210 C   0  0  0  0  0  0  0  0  0  0  0  0
   57.7750   29.0110   45.0630 C   0  0  0  0  0  0  0  0  0  0  0  0
   57.0450   30.2000   45.0250 C   0  0  0  0  0  0  0  0  0  0  0  0
   55.8870   30.2100   44.5330 O   0  0  0  0  0  0  0  0  0  0  0  0
   57.5640   31.3240   45.5010 O   0  0  0  0  0  0  0  0  0  0  0  0
   58.7810   31.3840   46.0320 C   0  0  0  0  0  0  0  0  0  0  0  0
   59.2590   32.6120   46.5010 C   0  0  0  0  0  0  0  0  0  0  0  0
   60.5430   32.7070   47.0640 C   0  0  0  0  0  0  0  0  0  0  0  0
   61.0650   33.9250   47.5240 O   0  0  0  0  0  0  0  0  0  0  0  0
   61.2570   34.2580   48.8720 C   0  0  0  0  0  0  0  0  0  0  0  0
   60.2650   34.3930   49.6410 O   0  0  0  0  0  0  0  0  0  0  0  0
   62.6040   34.4130   49.3760 N   0  0  0  0  0  0  0  0  0  0  0  0
   63.6180   33.8430   48.4530 C   0  0  0  0  0  0  0  0  0  0  0  0
   64.0910   32.4430   48.8860 C   0  0  0  0  0  0  0  0  0  0  0  0
   63.0370   31.7390   49.5040 O   0  0  0  0  0  0  0  0  0  0  0  0
   62.7320   32.3170   50.7600 C   0  0  0  0  0  0  0  0  0  0  0  0
   62.7160   33.8670   50.7450 C   0  0  0  0  0  0  0  0  0  0  0  0
   61.3480   31.5670   47.1300 C   0  0  0  0  0  0  0  0  0  0  0  0
   60.8780   30.3330   46.6720 C   0  0  0  0  0  0  0  0  0  0  0  0
   59.5890   30.2240   46.1150 C   0  0  0  0  0  0  0  0  0  0  0  0
   57.9693   22.5039   45.3612 H   0  0  0  0  0  0  0  0  0  0  0  0
   56.8341   22.6545   43.9772 H   0  0  0  0  0  0  0  0  0  0  0  0
   58.3774   23.5738   43.9772 H   0  0  0  0  0  0  0  0  0  0  0  0
   54.8193   23.8988   44.7336 H   0  0  0  0  0  0  0  0  0  0  0  0
   60.8977   27.9266   45.8454 H   0  0  0  0  0  0  0  0  0  0  0  0
   59.7359   27.2316   44.6456 H   0  0  0  0  0  0  0  0  0  0  0  0
   57.3438   28.0836   44.6579 H   0  0  0  0  0  0  0  0  0  0  0  0
   58.6260   33.5087   46.4287 H   0  0  0  0  0  0  0  0  0  0  0  0
   62.7850   35.4430   49.4430 H   0  0  0  0  0  0  0  0  0  0  0  0
   63.1783   33.7711   47.4473 H   0  0  0  0  0  0  0  0  0  0  0  0
   64.4930   34.5095   48.4660 H   0  0  0  0  0  0  0  0  0  0  0  0
   64.4301   31.8848   48.0009 H   0  0  0  0  0  0  0  0  0  0  0  0
   64.9178   32.5510   49.6034 H   0  0  0  0  0  0  0  0  0  0  0  0
   61.7390   31.9624   51.0736 H   0  0  0  0  0  0  0  0  0  0  0  0
   63.5263   32.0103   51.4565 H   0  0  0  0  0  0  0  0  0  0  0  0
   61.8579   34.2178   51.3372 H   0  0  0  0  0  0  0  0  0  0  0  0
   63.6677   34.2178   51.1707 H   0  0  0  0  0  0  0  0  0  0  0  0
   62.3631   31.6415   47.5471 H   0  0  0  0  0  0  0  0  0  0  0  0
   61.5185   29.4418   46.7470 H   0  0  0  0  0  0  0  0  0  0  0  0
  1  2  1  0
  2  3  1  0
  3  4  2  0
  4  5  1  0
  4  6  1  0
  6  7  1  0
  7  8  2  3
  8  9  1  0
  9 10  2  0
  9 11  1  0
 11 12  1  0
 12 13  2  0
 13 14  1  0
 14 15  2  0
 14 16  1  0
 16 17  1  0
 17 18  2  0
 18 19  1  0
 19 20  1  0
 20 21  1  0
 21 22  2  0
 21 23  1  0
 23 24  1  0
 24 25  1  0
 25 26  1  0
 26 27  1  0
 27 28  1  0
 19 29  2  0
 29 30  1  0
 30 31  2  0
  7  2  1  0
 31 12  1  0
 31 17  1  0
 28 23  1  0
  1 32  1  0
  1 33  1  0
  1 34  1  0
  3 35  1  0
 11 36  1  0
 11 37  1  0
 13 38  1  0
 18 39  1  0
 23 40  1  0
 24 41  1  0
 24 42  1  0
 25 43  1  0
 25 44  1  0
 27 45  1  0
 27 46  1  0
 28 47  1  0
 28 48  1  0
 29 49  1  0
 30 50  1  0
M  CHG  3   5  -1   6  -1  23   1
M  END
>  <UniqueID>  (7) 
7

>  <SMILES>  (7) 
Cn1cc([O-])[n-]c1=NC(=O)Cc1cc(=O)oc2cc(OC(=O)[NH+]3CCOCC3)ccc12

>  <Energy>  (7) 
118.28028334413243

>  <Genealogy>  (7) 
Cn1cc([O-])[n-]c1=NC(=O)Cc1cc(=O)oc2cc(OC(=O)[NH+]3CCOCC3)ccc12 (protonated)
Cn1cc([O-])[n-]c1=NC(=O)Cc1cc(=O)oc2cc(OC(=O)[NH+]3CCOCC3)ccc12 (3D coordinates assigned)
Cn1cc([O-])[n-]c1=NC(=O)Cc1cc(=O)oc2cc(OC(=O)[NH+]3CCOCC3)ccc12 (nonaromatic ring conformer: 118.28028334413243 kcal/mol)

>  <smiles>  (7) 
Cn1cc(O)[nH]c1=NC(=O)Cc1cc(=O)oc2cc(OC(=O)N3CCOCC3)ccc12

>  <score_type>  (7) 
oracle

>  <origin>  (7) 
adg

>  <m_score__min__energy>  (7) 
-12.57

>  <m_primary>  (7) 
energy

$$$$
7:0
     RDKit          3D

 49 51  0  0  0  0  0  0  0  0999 V2000
   57.7010   31.9040   42.5580 C   0  0  0  0  0  0  0  0  0  0  0  0
   57.7460   31.3450   44.2490 S   0  0  0  0  0  0  0  0  0  0  0  0
   58.4690   30.0270   44.3150 O   0  0  0  0  0  0  0  0  0  0  0  0
   56.3350   31.1570   44.7260 O   0  0  0  0  0  0  0  0  0  0  0  0
   58.5490   32.5250   45.2550 N   0  0  0  0  0  0  0  0  0  0  0  0
   58.4190   32.1500   46.6800 C   0  0  0  0  0  0  0  0  0  0  0  0
   58.7020   33.3280   47.6410 C   0  0  0  0  0  0  0  0  0  0  0  0
   59.5290   34.4520   46.9870 C   0  0  0  0  0  0  0  0  0  0  0  0
   60.9680   34.0170   46.7770 C   0  0  0  0  0  0  0  0  0  0  0  0
   61.2950   33.4800   45.6840 O   0  0  0  0  0  0  0  0  0  0  0  0
   61.9690   34.2050   47.8010 N   0  0  0  0  0  0  0  0  0  0  0  0
   61.6700   34.0070   49.2250 C   0  0  0  0  0  0  0  0  0  0  0  0
   62.2660   32.6740   49.6800 C   0  0  0  0  0  0  0  0  0  0  0  0
   63.6770   32.5860   49.2740 N   0  0  0  0  0  0  0  0  0  0  0  0
   64.6230   31.9090   50.1240 C   0  0  0  0  0  0  0  0  0  0  0  0
   64.1920   30.8790   50.9790 C   0  0  0  0  0  0  0  0  0  0  0  0
   65.1050   30.2230   51.8100 C   0  0  0  0  0  0  0  0  0  0  0  0
   66.4540   30.5870   51.7960 C   0  0  0  0  0  0  0  0  0  0  0  0
   66.8910   31.6110   50.9520 C   0  0  0  0  0  0  0  0  0  0  0  0
   65.9810   32.2710   50.1200 C   0  0  0  0  0  0  0  0  0  0  0  0
   64.0230   32.8790   47.8740 C   0  0  0  0  0  0  0  0  0  0  0  0
   63.3930   34.2060   47.4470 C   0  0  0  0  0  0  0  0  0  0  0  0
   58.8680   34.9360   45.6700 C   0  0  0  0  0  0  0  0  0  0  0  0
   57.9950   33.8620   44.9990 C   0  0  0  0  0  0  0  0  0  0  0  0
   57.6128   33.0002   42.5364 H   0  0  0  0  0  0  0  0  0  0  0  0
   58.6265   31.6005   42.0467 H   0  0  0  0  0  0  0  0  0  0  0  0
   56.8360   31.4564   42.0467 H   0  0  0  0  0  0  0  0  0  0  0  0
   57.3941   31.7917   46.8564 H   0  0  0  0  0  0  0  0  0  0  0  0
   59.1668   31.3698   46.8853 H   0  0  0  0  0  0  0  0  0  0  0  0
   57.7412   33.7477   47.9738 H   0  0  0  0  0  0  0  0  0  0  0  0
   59.2904   32.9329   48.4823 H   0  0  0  0  0  0  0  0  0  0  0  0
   59.5470   35.3108   47.6741 H   0  0  0  0  0  0  0  0  0  0  0  0
   62.1103   34.8269   49.8115 H   0  0  0  0  0  0  0  0  0  0  0  0
   60.5807   33.9976   49.3775 H   0  0  0  0  0  0  0  0  0  0  0  0
   62.1973   32.5998   50.7753 H   0  0  0  0  0  0  0  0  0  0  0  0
   61.7051   31.8509   49.2131 H   0  0  0  0  0  0  0  0  0  0  0  0
   63.1313   30.5881   50.9940 H   0  0  0  0  0  0  0  0  0  0  0  0
   64.7606   29.4184   52.4764 H   0  0  0  0  0  0  0  0  0  0  0  0
   67.1712   30.0678   52.4488 H   0  0  0  0  0  0  0  0  0  0  0  0
   67.9527   31.8986   50.9419 H   0  0  0  0  0  0  0  0  0  0  0  0
   66.3301   33.0779   49.4588 H   0  0  0  0  0  0  0  0  0  0  0  0
   65.1165   32.9463   47.7753 H   0  0  0  0  0  0  0  0  0  0  0  0
   63.6396   32.0733   47.2307 H   0  0  0  0  0  0  0  0  0  0  0  0
   63.8989   35.0354   47.9629 H   0  0  0  0  0  0  0  0  0  0  0  0
   63.5015   34.3315   46.3596 H   0  0  0  0  0  0  0  0  0  0  0  0
   58.2371   35.8083   45.8957 H   0  0  0  0  0  0  0  0  0  0  0  0
   59.6790   35.1825   44.9689 H   0  0  0  0  0  0  0  0  0  0  0  0
   56.9746   33.9166   45.4062 H   0  0  0  0  0  0  0  0  0  0  0  0
   57.9763   34.0411   43.9138 H   0  0  0  0  0  0  0  0  0  0  0  0
  1  2  1  0
  2  3  2  0
  2  4  2  0
  2  5  1  0
  5  6  1  0
  6  7  1  0
  7  8  1  0
  8  9  1  0
  9 10  2  0
  9 11  1  0
 11 12  1  0
 12 13  1  0
 13 14  1  0
 14 15  1  0
 15 16  2  0
 16 17  1  0
 17 18  2  0
 18 19  1  0
 19 20  2  0
 14 21  1  0
 21 22  1  0
  8 23  1  0
 23 24  1  0
 24  5  1  0
 22 11  1  0
 20 15  1  0
  1 25  1  0
  1 26  1  0
  1 27  1  0
  6 28  1  0
  6 29  1  0
  7 30  1  0
  7 31  1  0
  8 32  1  0
 12 33  1  0
 12 34  1  0
 13 35  1  0
 13 36  1  0
 16 37  1  0
 17 38  1  0
 18 39  1  0
 19 40  1  0
 20 41  1  0
 21 42  1  0
 21 43  1  0
 22 44  1  0
 22 45  1  0
 23 46  1  0
 23 47  1  0
 24 48  1  0
 24 49  1  0
M  END
>  <UniqueID>  (8) 
8

>  <SMILES>  (8) 
CS(=O)(=O)N1CCC(C(=O)N2CCN(c3ccccc3)CC2)CC1

>  <Energy>  (8) 
55.265393794315955

>  <Genealogy>  (8) 
CS(=O)(=O)N1CCC(C(=O)N2CCN(c3ccccc3)CC2)CC1 (3D coordinates assigned)
CS(=O)(=O)N1CCC(C(=O)N2CCN(c3ccccc3)CC2)CC1 (nonaromatic ring conformer: 55.265393794315955 kcal/mol)

>  <smiles>  (8) 
CS(=O)(=O)N1CCC(C(=O)N2CCN(c3ccccc3)CC2)CC1

>  <score_type>  (8) 
oracle

>  <origin>  (8) 
adg

>  <m_score__min__energy>  (8) 
-8.1999999999999993

>  <m_primary>  (8) 
energy

$$$$
8:0
     RDKit          3D

 28 30  0  0  0  0  0  0  0  0999 V2000
   59.9710   26.9630   48.2680 C   0  0  0  0  0  0  0  0  0  0  0  0
   59.3450   28.0180   47.7400 C   0  0  0  0  0  0  0  0  0  0  0  0
   59.5900   29.5690   48.3350 S   0  0  0  0  0  0  0  0  0  0  0  0
   58.7870   30.3840   47.1160 C   0  0  0  0  0  0  0  0  0  0  0  0
   58.2820   29.4550   46.2110 C   0  0  0  0  0  0  0  0  0  0  0  0
   57.4440   29.9080   45.0780 C   0  0  0  0  0  0  0  0  0  0  0  0
   56.2110   29.5510   44.9490 N   0  0  0  0  0  0  0  0  0  0  0  0
   55.5340   30.0900   43.7860 C   0  0  0  0  0  0  0  0  0  0  0  0
   56.6130   30.5700   42.8210 C   0  0  0  0  0  0  0  0  0  0  0  0
   58.0630   31.0170   43.8230 S   0  0  0  0  0  0  0  0  0  0  0  0
   58.5680   28.1000   46.5580 C   0  0  0  0  0  0  0  0  0  0  0  0
   58.1620   27.0580   45.7950 C   0  0  0  0  0  0  0  0  0  0  0  0
   57.4190   25.8790   46.2750 C   0  0  0  0  0  0  0  0  0  0  0  0
   57.9710   24.7920   46.8400 N   0  0  0  0  0  0  0  0  0  0  0  0
   56.9210   24.0510   47.2470 C   0  0  0  0  0  0  0  0  0  0  0  0
   57.0490   22.9400   47.8260 O   0  0  0  0  0  0  0  0  0  0  0  0
   55.7200   24.6130   46.9950 N   0  0  0  0  0  0  0  0  0  0  0  0
   56.0520   25.7720   46.3950 C   0  0  0  0  0  0  0  0  0  0  0  0
   55.1250   26.7150   45.9710 O   0  0  0  0  0  0  0  0  0  0  0  0
   59.7933   25.9571   47.8599 H   0  0  0  0  0  0  0  0  0  0  0  0
   60.6643   27.1000   49.1109 H   0  0  0  0  0  0  0  0  0  0  0  0
   58.6759   31.4758   47.0414 H   0  0  0  0  0  0  0  0  0  0  0  0
   54.9224   29.3094   43.3100 H   0  0  0  0  0  0  0  0  0  0  0  0
   54.8668   30.9172   44.0699 H   0  0  0  0  0  0  0  0  0  0  0  0
   56.8740   29.7666   42.1164 H   0  0  0  0  0  0  0  0  0  0  0  0
   56.2602   31.4317   42.2353 H   0  0  0  0  0  0  0  0  0  0  0  0
   58.4080   27.0944   44.7235 H   0  0  0  0  0  0  0  0  0  0  0  0
   58.9860   24.5800   46.9700 H   0  0  0  0  0  0  0  0  0  0  0  0
  1  2  2  0
  2  3  1  0
  3  4  1  0
  4  5  2  0
  5  6  1  0
  6  7  2  0
  7  8  1  0
  8  9  1  0
  9 10  1  0
  5 11  1  0
 11 12  2  3
 12 13  1  0
 13 14  1  0
 14 15  1  0
 15 16  2  0
 15 17  1  0
 17 18  1  0
 18 19  1  0
 11  2  1  0
 18 13  2  0
 10  6  1  0
  1 20  1  0
  1 21  1  0
  4 22  1  0
  8 23  1  0
  8 24  1  0
  9 25  1  0
  9 26  1  0
 12 27  1  0
 14 28  1  0
M  CHG  2  17  -1  19  -1
M  END
>  <UniqueID>  (9) 
9

>  <SMILES>  (9) 
C=c1scc(C2=NCCS2)c1=Cc1[nH]c(=O)[n-]c1[O-]

>  <Energy>  (9) 
111.51017816388475

>  <Genealogy>  (9) 
C=c1scc(C2=NCCS2)c1=Cc1[nH]c(=O)[n-]c1[O-] (protonated)
C=c1scc(C2=NCCS2)c1=Cc1[nH]c(=O)[n-]c1[O-] (3D coordinates assigned)
C=c1scc(C2=NCCS2)c1=Cc1[nH]c(=O)[n-]c1[O-] (nonaromatic ring conformer: 111.51017816388475 kcal/mol)

>  <smiles>  (9) 
C=c1scc(C2=NCCS2)c1=Cc1[nH]c(=O)[nH]c1O

>  <score_type>  (9) 
oracle

>  <origin>  (9) 
adg

>  <m_score__min__energy>  (9) 
-13.539999999999999

>  <m_primary>  (9) 
energy

$$$$
9:0
     RDKit          3D

 42 44  0  0  0  0  0  0  0  0999 V2000
   55.7290   28.9640   44.8890 O   0  0  0  0  0  0  0  0  0  0  0  0
   56.5830   29.3360   44.0390 C   0  0  0  0  0  0  0  0  0  0  0  0
   56.3660   30.6110   43.2860 C   0  0  0  0  0  0  0  0  0  0  0  0
   57.1740   31.7110   43.9020 C   0  0  0  0  0  0  0  0  0  0  0  0
   57.8540   32.6660   43.1510 C   0  0  0  0  0  0  0  0  0  0  0  0
   58.6720   33.6610   44.2270 S   0  0  0  0  0  0  0  0  0  0  0  0
   58.1530   32.8270   45.5980 C   0  0  0  0  0  0  0  0  0  0  0  0
   58.4520   33.1550   47.0080 C   0  0  0  0  0  0  0  0  0  0  0  0
   57.5050   33.0960   47.8390 O   0  0  0  0  0  0  0  0  0  0  0  0
   59.7660   33.5260   47.4720 N   0  0  0  0  0  0  0  0  0  0  0  0
   61.0120   33.2530   46.7700 C   0  0  0  0  0  0  0  0  0  0  0  0
   62.1110   33.4020   47.8120 C   0  0  0  0  0  0  0  0  0  0  0  0
   61.4960   34.2260   48.9380 C   0  0  0  0  0  0  0  0  0  0  0  0
   59.9940   34.0120   48.8250 C   0  0  0  0  0  0  0  0  0  0  0  0
   57.3440   31.8010   45.2500 N   0  0  0  0  0  0  0  0  0  0  0  0
   57.7790   28.5730   43.8310 N   0  0  0  0  0  0  0  0  0  0  0  0
   58.0460   27.3220   44.5360 C   0  0  0  0  0  0  0  0  0  0  0  0
   58.6960   27.6020   45.8630 C   0  0  0  0  0  0  0  0  0  0  0  0
   59.1040   26.5470   46.6980 C   0  0  0  0  0  0  0  0  0  0  0  0
   59.7370   26.8160   47.9160 C   0  0  0  0  0  0  0  0  0  0  0  0
   59.9710   28.1380   48.3070 C   0  0  0  0  0  0  0  0  0  0  0  0
   60.7730   28.4730   49.8320 Cl  0  0  0  0  0  0  0  0  0  0  0  0
   59.5710   29.1930   47.4790 C   0  0  0  0  0  0  0  0  0  0  0  0
   58.9390   28.9270   46.2600 C   0  0  0  0  0  0  0  0  0  0  0  0
   56.6753   30.4735   42.2394 H   0  0  0  0  0  0  0  0  0  0  0  0
   55.2998   30.8785   43.3268 H   0  0  0  0  0  0  0  0  0  0  0  0
   57.8550   32.7525   42.0544 H   0  0  0  0  0  0  0  0  0  0  0  0
   61.0065   32.2317   46.3613 H   0  0  0  0  0  0  0  0  0  0  0  0
   61.1597   33.9383   45.9223 H   0  0  0  0  0  0  0  0  0  0  0  0
   62.4240   32.4154   48.1844 H   0  0  0  0  0  0  0  0  0  0  0  0
   63.0063   33.8858   47.3944 H   0  0  0  0  0  0  0  0  0  0  0  0
   61.8618   33.8759   49.9145 H   0  0  0  0  0  0  0  0  0  0  0  0
   61.7637   35.2899   48.8581 H   0  0  0  0  0  0  0  0  0  0  0  0
   59.6561   33.2683   49.5617 H   0  0  0  0  0  0  0  0  0  0  0  0
   59.4358   34.9390   49.0228 H   0  0  0  0  0  0  0  0  0  0  0  0
   58.4980   28.9280   43.1610 H   0  0  0  0  0  0  0  0  0  0  0  0
   57.0983   26.7885   44.7010 H   0  0  0  0  0  0  0  0  0  0  0  0
   58.7235   26.7048   43.9277 H   0  0  0  0  0  0  0  0  0  0  0  0
   58.9247   25.5057   46.3922 H   0  0  0  0  0  0  0  0  0  0  0  0
   60.0510   25.9867   48.5669 H   0  0  0  0  0  0  0  0  0  0  0  0
   59.7539   30.2329   47.7874 H   0  0  0  0  0  0  0  0  0  0  0  0
   58.6310   29.7590   45.6096 H   0  0  0  0  0  0  0  0  0  0  0  0
  1  2  2  0
  2  3  1  0
  3  4  1  0
  4  5  2  0
  5  6  1  0
  6  7  1  0
  7  8  1  0
  8  9  2  0
  8 10  1  0
 10 11  1  0
 11 12  1  0
 12 13  1  0
 13 14  1  0
  7 15  2  0
  2 16  1  0
 16 17  1  0
 17 18  1  0
 18 19  2  0
 19 20  1  0
 20 21  2  0
 21 22  1  0
 21 23  1  0
 23 24  2  0
 15  4  1  0
 24 18  1  0
 14 10  1  0
  3 25  1  0
  3 26  1  0
  5 27  1  0
 11 28  1  0
 11 29  1  0
 12 30  1  0
 12 31  1  0
 13 32  1  0
 13 33  1  0
 14 34  1  0
 14 35  1  0
 16 36  1  0
 17 37  1  0
 17 38  1  0
 19 39  1  0
 20 40  1  0
 23 41  1  0
 24 42  1  0
M  END
>  <UniqueID>  (10) 
10

>  <SMILES>  (10) 
O=C(Cc1csc(C(=O)N2CCCC2)n1)NCc1ccc(Cl)cc1

>  <Energy>  (10) 
68.36340526783266

>  <Genealogy>  (10) 
O=C(Cc1csc(C(=O)N2CCCC2)n1)NCc1ccc(Cl)cc1 (3D coordinates assigned)
O=C(Cc1csc(C(=O)N2CCCC2)n1)NCc1ccc(Cl)cc1 (nonaromatic ring conformer: 68.36340526783266 kcal/mol)

>  <smiles>  (10) 
O=C(Cc1csc(C(=O)N2CCCC2)n1)NCc1ccc(Cl)cc1

>  <score_type>  (10) 
oracle

>  <origin>  (10) 
adg

>  <m_score__min__energy>  (10) 
-8.3599999999999994

>  <m_primary>  (10) 
energy

$$$$
10:0
     RDKit          3D

 51 54  0  0  0  0  0  0  0  0999 V2000
   56.9874   32.1493   52.0168 H   0  0  0  0  0  0  0  0  0  0  0  0
   55.9130   31.9600   52.1580 C   0  0  0  0  0  0  0  0  0  0  0  0
   55.1742   32.6964   51.8089 H   0  0  0  0  0  0  0  0  0  0  0  0
   55.5030   30.8290   52.7570 C   0  0  0  0  0  0  0  0  0  0  0  0
   54.1780   30.4520   53.0050 C   0  0  0  0  0  0  0  0  0  0  0  0
   53.0630   31.1470   52.6940 C   0  0  0  0  0  0  0  0  0  0  0  0
   52.6456   31.8099   53.4662 H   0  0  0  0  0  0  0  0  0  0  0  0
   52.3610   31.0850   51.3960 C   0  0  0  0  0  0  0  0  0  0  0  0
   52.4870   30.1060   50.4830 N   0  0  0  0  0  0  0  0  0  0  0  0
   51.6220   30.4680   49.5100 C   0  0  0  0  0  0  0  0  0  0  0  0
   51.4510   29.7860   48.4670 O   0  0  0  0  0  0  0  0  0  0  0  0
   50.9420   31.6090   49.7520 N   0  0  0  0  0  0  0  0  0  0  0  0
   51.4170   31.9830   50.9510 C   0  0  0  0  0  0  0  0  0  0  0  0
   51.0030   33.1270   51.6220 O   0  0  0  0  0  0  0  0  0  0  0  0
   54.2410   29.1950   53.5920 C   0  0  0  0  0  0  0  0  0  0  0  0
   53.3895   28.5851   53.9279 H   0  0  0  0  0  0  0  0  0  0  0  0
   55.5760   28.8580   53.6730 C   0  0  0  0  0  0  0  0  0  0  0  0
   56.0980   27.6200   54.3370 C   0  0  0  0  0  0  0  0  0  0  0  0
   56.0472   27.7405   55.4292 H   0  0  0  0  0  0  0  0  0  0  0  0
   55.4874   26.7565   54.0346 H   0  0  0  0  0  0  0  0  0  0  0  0
   57.1426   27.4544   54.0346 H   0  0  0  0  0  0  0  0  0  0  0  0
   56.3430   29.8560   53.1850 N   0  0  0  0  0  0  0  0  0  0  0  0
   57.7790   29.8510   53.1110 C   0  0  0  0  0  0  0  0  0  0  0  0
   58.4500   30.0360   54.1620 O   0  0  0  0  0  0  0  0  0  0  0  0
   58.4540   29.6680   51.8520 N   0  0  0  0  0  0  0  0  0  0  0  0
   57.8230   30.1400   50.6130 C   0  0  0  0  0  0  0  0  0  0  0  0
   56.8619   29.6211   50.4825 H   0  0  0  0  0  0  0  0  0  0  0  0
   57.6765   31.2271   50.6958 H   0  0  0  0  0  0  0  0  0  0  0  0
   58.7040   29.8690   49.3880 C   0  0  0  0  0  0  0  0  0  0  0  0
   58.6427   28.8017   49.1289 H   0  0  0  0  0  0  0  0  0  0  0  0
   58.3450   30.4876   48.5522 H   0  0  0  0  0  0  0  0  0  0  0  0
   60.1050   30.2180   49.6640 N   0  0  0  0  0  0  0  0  0  0  0  0
   60.9520   30.6180   48.5680 C   0  0  0  0  0  0  0  0  0  0  0  0
   60.7300   30.1580   47.4150 O   0  0  0  0  0  0  0  0  0  0  0  0
   62.1030   31.5240   48.7730 C   0  0  0  0  0  0  0  0  0  0  0  0
   63.0500   31.2820   49.7800 C   0  0  0  0  0  0  0  0  0  0  0  0
   62.9193   30.4292   50.4624 H   0  0  0  0  0  0  0  0  0  0  0  0
   64.1580   32.1210   49.9180 C   0  0  0  0  0  0  0  0  0  0  0  0
   64.9126   31.9226   50.6933 H   0  0  0  0  0  0  0  0  0  0  0  0
   64.2970   33.2130   49.0620 C   0  0  0  0  0  0  0  0  0  0  0  0
   65.1722   33.8732   49.1527 H   0  0  0  0  0  0  0  0  0  0  0  0
   63.3530   33.4640   48.1150 N   0  0  0  0  0  0  0  0  0  0  0  0
   63.4670   34.2910   47.4860 H   0  0  0  0  0  0  0  0  0  0  0  0
   62.2680   32.6560   47.9590 C   0  0  0  0  0  0  0  0  0  0  0  0
   61.5166   32.8915   47.1909 H   0  0  0  0  0  0  0  0  0  0  0  0
   60.7250   29.8200   50.9400 C   0  0  0  0  0  0  0  0  0  0  0  0
   61.6171   29.2119   50.7293 H   0  0  0  0  0  0  0  0  0  0  0  0
   60.9938   30.7328   51.4919 H   0  0  0  0  0  0  0  0  0  0  0  0
   59.7610   29.0050   51.8030 C   0  0  0  0  0  0  0  0  0  0  0  0
   59.6445   28.0003   51.3706 H   0  0  0  0  0  0  0  0  0  0  0  0
   60.1658   28.9258   52.8227 H   0  0  0  0  0  0  0  0  0  0  0  0
  1  2  1  0
  2  3  1  0
  2  4  2  0
  4  5  1  0
  5  6  2  0
  6  7  1  0
  6  8  1  0
  8  9  1  0
  9 10  1  0
 10 11  2  0
 10 12  1  0
 12 13  1  0
 13 14  1  0
  5 15  1  0
 15 16  1  0
 15 17  2  0
 17 18  1  0
 18 19  1  0
 18 20  1  0
 18 21  1  0
 17 22  1  0
 22 23  1  0
 23 24  2  0
 23 25  1  0
 25 26  1  0
 26 27  1  0
 26 28  1  0
 26 29  1  0
 29 30  1  0
 29 31  1  0
 29 32  1  0
 32 33  1  0
 33 34  2  0
 33 35  1  0
 35 36  2  0
 36 37  1  0
 36 38  1  0
 38 39  1  0
 38 40  2  0
 40 41  1  0
 40 42  1  0
 42 43  1  0
 42 44  2  0
 44 45  1  0
 32 46  1  0
 46 47  1  0
 46 48  1  0
 46 49  1  0
 49 50  1  0
 49 51  1  0
 22  4  1  0
 49 25  1  0
 13  8  2  0
 44 35  1  0
M  CHG  4   9  -1  12  -1  14  -1  42   1
M  END
>  <UniqueID>  (11) 
11

>  <SMILES>  (11) 
C=c1/c(=C/c2[n-]c(=O)[n-]c2[O-])cc(C)n1C(=O)N1CCN(C(=O)c2ccc[nH+]c2)CC1

>  <Energy>  (11) 
127.9685654998699

>  <Genealogy>  (11) 
C=c1c(=Cc2[n-]c(=O)[n-]c2[O-])cc(C)n1C(=O)N1CCN(C(=O)c2ccc[nH+]c2)CC1 (protonated)
C=c1/c(=C/c2[n-]c(=O)[n-]c2[O-])cc(C)n1C(=O)N1CCN(C(=O)c2ccc[nH+]c2)CC1 (cis-trans isomerization)
C=c1/c(=C/c2[n-]c(=O)[n-]c2[O-])cc(C)n1C(=O)N1CCN(C(=O)c2ccc[nH+]c2)CC1 (3D coordinates assigned)
C=c1/c(=C/c2[n-]c(=O)[n-]c2[O-])cc(C)n1C(=O)N1CCN(C(=O)c2ccc[nH+]c2)CC1 (nonaromatic ring conformer: 127.9685654998699 kcal/mol)

>  <smiles>  (11) 
C=c1c(=Cc2[nH]c(=O)[nH]c2O)cc(C)n1C(=O)N1CCN(C(=O)c2cccnc2)CC1

>  <score_type>  (11) 
oracle

>  <origin>  (11) 
adg

>  <m_score__min__energy>  (11) 
-15.65

>  <m_primary>  (11) 
energy

$$$$
11:0
     RDKit          3D

 39 41  0  0  0  0  0  0  0  0999 V2000
   55.3180   30.8810   44.4860 O   0  0  0  0  0  0  0  0  0  0  0  0
   56.1650   29.9610   44.6520 C   0  0  0  0  0  0  0  0  0  0  0  0
   57.6230   30.2660   44.5240 C   0  0  0  0  0  0  0  0  0  0  0  0
   57.8470   31.7060   44.6420 N   0  0  0  0  0  0  0  0  0  0  0  0
   58.4020   32.3730   45.7630 C   0  0  0  0  0  0  0  0  0  0  0  0
   58.4270   31.9040   46.9320 O   0  0  0  0  0  0  0  0  0  0  0  0
   58.9680   33.6450   45.3360 C   0  0  0  0  0  0  0  0  0  0  0  0
   59.5740   34.6860   46.2250 C   0  0  0  0  0  0  0  0  0  0  0  0
   60.7150   34.0950   47.0130 C   0  0  0  0  0  0  0  0  0  0  0  0
   61.9360   33.8250   46.3700 C   0  0  0  0  0  0  0  0  0  0  0  0
   63.0150   33.3100   47.0920 C   0  0  0  0  0  0  0  0  0  0  0  0
   62.8920   33.0680   48.4650 C   0  0  0  0  0  0  0  0  0  0  0  0
   63.9630   32.5540   49.1940 O   0  0  0  0  0  0  0  0  0  0  0  0
   61.6850   33.3440   49.1140 C   0  0  0  0  0  0  0  0  0  0  0  0
   60.6000   33.8620   48.3970 C   0  0  0  0  0  0  0  0  0  0  0  0
   59.4140   34.1380   49.0690 O   0  0  0  0  0  0  0  0  0  0  0  0
   58.8220   33.8010   44.0590 N   0  0  0  0  0  0  0  0  0  0  0  0
   58.1640   32.6200   43.5920 C   0  0  0  0  0  0  0  0  0  0  0  0
   57.8320   32.3570   42.0110 S   0  0  0  0  0  0  0  0  0  0  0  0
   55.7490   28.6260   44.9620 N   0  0  0  0  0  0  0  0  0  0  0  0
   56.5360   27.6220   45.6200 C   0  0  0  0  0  0  0  0  0  0  0  0
   57.9350   27.7270   45.7240 C   0  0  0  0  0  0  0  0  0  0  0  0
   58.6740   26.7160   46.3470 C   0  0  0  0  0  0  0  0  0  0  0  0
   58.0270   25.5870   46.8550 C   0  0  0  0  0  0  0  0  0  0  0  0
   56.6410   25.4620   46.7310 C   0  0  0  0  0  0  0  0  0  0  0  0
   55.8970   26.4710   46.1100 C   0  0  0  0  0  0  0  0  0  0  0  0
   54.5180   26.3310   45.9880 O   0  0  0  0  0  0  0  0  0  0  0  0
   58.1750   29.7454   45.3204 H   0  0  0  0  0  0  0  0  0  0  0  0
   57.9770   29.9259   43.5396 H   0  0  0  0  0  0  0  0  0  0  0  0
   59.9492   35.5166   45.6091 H   0  0  0  0  0  0  0  0  0  0  0  0
   58.8073   35.0536   46.9229 H   0  0  0  0  0  0  0  0  0  0  0  0
   62.0419   34.0204   45.2927 H   0  0  0  0  0  0  0  0  0  0  0  0
   63.9643   33.0940   46.5800 H   0  0  0  0  0  0  0  0  0  0  0  0
   63.9960   32.6190   50.2050 H   0  0  0  0  0  0  0  0  0  0  0  0
   61.5874   33.1533   50.1929 H   0  0  0  0  0  0  0  0  0  0  0  0
   58.4500   28.6081   45.3136 H   0  0  0  0  0  0  0  0  0  0  0  0
   59.7663   26.8101   46.4371 H   0  0  0  0  0  0  0  0  0  0  0  0
   58.6085   24.7968   47.3524 H   0  0  0  0  0  0  0  0  0  0  0  0
   56.1335   24.5681   47.1226 H   0  0  0  0  0  0  0  0  0  0  0  0
  1  2  2  0
  2  3  1  0
  3  4  1  0
  4  5  1  0
  5  6  2  0
  5  7  1  0
  7  8  1  0
  8  9  1  0
  9 10  2  0
 10 11  1  0
 11 12  2  0
 12 13  1  0
 12 14  1  0
 14 15  2  0
 15 16  1  0
  7 17  2  0
 17 18  1  0
 18 19  2  0
  2 20  1  0
 20 21  1  0
 21 22  2  0
 22 23  1  0
 23 24  2  0
 24 25  1  0
 25 26  2  0
 26 27  1  0
 18  4  1  0
 26 21  1  0
 15  9  1  0
  3 28  1  0
  3 29  1  0
  8 30  1  0
  8 31  1  0
 10 32  1  0
 11 33  1  0
 13 34  1  0
 14 35  1  0
 22 36  1  0
 23 37  1  0
 24 38  1  0
 25 39  1  0
M  CHG  3  16  -1  20  -1  27  -1
M  END
>  <UniqueID>  (12) 
12

>  <SMILES>  (12) 
O=C(CN1C(=O)C(Cc2ccc(O)cc2[O-])=NC1=S)[N-]c1ccccc1[O-]

>  <Energy>  (12) 
70.0177492513338

>  <Genealogy>  (12) 
O=C(CN1C(=O)C(Cc2ccc(O)cc2[O-])=NC1=S)[N-]c1ccccc1[O-] (protonated)
O=C(CN1C(=O)C(Cc2ccc(O)cc2[O-])=NC1=S)[N-]c1ccccc1[O-] (3D coordinates assigned)
O=C(CN1C(=O)C(Cc2ccc(O)cc2[O-])=NC1=S)[N-]c1ccccc1[O-] (nonaromatic ring conformer: 70.0177492513338 kcal/mol)

>  <smiles>  (12) 
O=C(CN1C(=O)C(Cc2ccc(O)cc2O)=NC1=S)Nc1ccccc1O

>  <score_type>  (12) 
oracle

>  <origin>  (12) 
adg

>  <m_score__min__energy>  (12) 
-16.190000000000001

>  <m_primary>  (12) 
energy

$$$$
12:0
     RDKit          3D

 51 54  0  0  0  0  0  0  0  0999 V2000
   55.1850   29.3120   44.8620 N   0  0  0  0  0  0  0  0  0  0  0  0
   56.8320   29.8160   44.7320 S   0  0  0  0  0  0  0  0  0  0  0  0
   57.3180   29.5800   43.3310 O   0  0  0  0  0  0  0  0  0  0  0  0
   56.9290   31.2820   45.0330 O   0  0  0  0  0  0  0  0  0  0  0  0
   57.8190   28.9020   45.8720 C   0  0  0  0  0  0  0  0  0  0  0  0
   57.9670   27.5170   45.7250 C   0  0  0  0  0  0  0  0  0  0  0  0
   58.7540   26.7980   46.6250 C   0  0  0  0  0  0  0  0  0  0  0  0
   59.3830   27.4520   47.6870 C   0  0  0  0  0  0  0  0  0  0  0  0
   59.2090   28.8300   47.8720 C   0  0  0  0  0  0  0  0  0  0  0  0
   59.9050   29.4750   48.9510 N   0  0  0  0  0  0  0  0  0  0  0  0
   59.3880   30.2490   49.8590 C   0  0  0  0  0  0  0  0  0  0  0  0
   59.9040   31.4640   50.1370 N   0  0  0  0  0  0  0  0  0  0  0  0
   59.2240   32.0860   51.1380 C   0  0  0  0  0  0  0  0  0  0  0  0
   59.6070   33.4340   51.6000 C   0  0  0  0  0  0  0  0  0  0  0  0
   58.7180   34.3190   51.7110 O   0  0  0  0  0  0  0  0  0  0  0  0
   60.9690   33.7850   51.8850 N   0  0  0  0  0  0  0  0  0  0  0  0
   62.0890   33.6250   50.9990 C   0  0  0  0  0  0  0  0  0  0  0  0
   63.3830   33.7100   51.5250 C   0  0  0  0  0  0  0  0  0  0  0  0
   64.4930   33.5640   50.6920 C   0  0  0  0  0  0  0  0  0  0  0  0
   64.3210   33.3180   49.3270 C   0  0  0  0  0  0  0  0  0  0  0  0
   63.0310   33.2050   48.7890 C   0  0  0  0  0  0  0  0  0  0  0  0
   62.8130   32.9070   47.0610 S   0  0  0  0  0  0  0  0  0  0  0  0
   63.7280   33.8220   46.2910 O   0  0  0  0  0  0  0  0  0  0  0  0
   63.2090   31.4900   46.7550 O   0  0  0  0  0  0  0  0  0  0  0  0
   61.1690   33.1610   46.5270 N   0  0  0  0  0  0  0  0  0  0  0  0
   60.6610   34.4770   46.9210 C   0  0  0  0  0  0  0  0  0  0  0  0
   59.1520   34.3420   47.0680 C   0  0  0  0  0  0  0  0  0  0  0  0
   58.8760   32.8470   47.1030 C   0  0  0  0  0  0  0  0  0  0  0  0
   60.2440   32.1880   47.1060 C   0  0  0  0  0  0  0  0  0  0  0  0
   61.9190   33.3530   49.6290 C   0  0  0  0  0  0  0  0  0  0  0  0
   58.1760   31.3470   51.6890 C   0  0  0  0  0  0  0  0  0  0  0  0
   58.0920   29.8790   50.8750 S   0  0  0  0  0  0  0  0  0  0  0  0
   58.4470   29.5580   46.9390 C   0  0  0  0  0  0  0  0  0  0  0  0
   55.1460   28.6000   45.6260 H   0  0  0  0  0  0  0  0  0  0  0  0
   57.4619   26.9954   44.8987 H   0  0  0  0  0  0  0  0  0  0  0  0
   58.8796   25.7126   46.4979 H   0  0  0  0  0  0  0  0  0  0  0  0
   60.0180   26.8824   48.3815 H   0  0  0  0  0  0  0  0  0  0  0  0
   63.5259   33.8928   52.6003 H   0  0  0  0  0  0  0  0  0  0  0  0
   65.5069   33.6428   51.1112 H   0  0  0  0  0  0  0  0  0  0  0  0
   65.1994   33.2128   48.6733 H   0  0  0  0  0  0  0  0  0  0  0  0
   61.1084   34.7843   47.8778 H   0  0  0  0  0  0  0  0  0  0  0  0
   60.9171   35.2391   46.1702 H   0  0  0  0  0  0  0  0  0  0  0  0
   58.8132   34.8168   48.0006 H   0  0  0  0  0  0  0  0  0  0  0  0
   58.6172   34.8352   46.2429 H   0  0  0  0  0  0  0  0  0  0  0  0
   58.3172   32.5794   48.0119 H   0  0  0  0  0  0  0  0  0  0  0  0
   58.2657   32.5221   46.2475 H   0  0  0  0  0  0  0  0  0  0  0  0
   60.5456   31.9409   48.1346 H   0  0  0  0  0  0  0  0  0  0  0  0
   60.2376   31.2506   46.5305 H   0  0  0  0  0  0  0  0  0  0  0  0
   60.9050   33.2557   49.2139 H   0  0  0  0  0  0  0  0  0  0  0  0
   57.5203   31.6688   52.5115 H   0  0  0  0  0  0  0  0  0  0  0  0
   58.3440   30.6477   47.0481 H   0  0  0  0  0  0  0  0  0  0  0  0
  1  2  1  0
  2  3  2  0
  2  4  2  0
  2  5  1  0
  5  6  2  0
  6  7  1  0
  7  8  2  0
  8  9  1  0
  9 10  1  0
 10 11  2  3
 11 12  1  0
 12 13  1  0
 13 14  1  0
 14 15  2  0
 14 16  1  0
 16 17  1  0
 17 18  2  0
 18 19  1  0
 19 20  2  0
 20 21  1  0
 21 22  1  0
 22 23  2  0
 22 24  2  0
 22 25  1  0
 25 26  1  0
 26 27  1  0
 27 28  1  0
 28 29  1  0
 21 30  2  0
 13 31  2  0
 31 32  1  0
  9 33  2  0
 33  5  1  0
 32 11  1  0
 30 17  1  0
 29 25  1  0
  1 34  1  0
  6 35  1  0
  7 36  1  0
  8 37  1  0
 18 38  1  0
 19 39  1  0
 20 40  1  0
 26 41  1  0
 26 42  1  0
 27 43  1  0
 27 44  1  0
 28 45  1  0
 28 46  1  0
 29 47  1  0
 29 48  1  0
 30 49  1  0
 31 50  1  0
 33 51  1  0
M  CHG  3   1  -1  12  -1  16  -1
M  END
>  <UniqueID>  (13) 
13

>  <SMILES>  (13) 
[NH-]S(=O)(=O)c1cccc(N=c2[n-]c(C(=O)[N-]c3cccc(S(=O)(=O)N4CCCC4)c3)cs2)c1

>  <Energy>  (13) 
96.96325307930965

>  <Genealogy>  (13) 
[NH-]S(=O)(=O)c1cccc(N=c2[n-]c(C(=O)[N-]c3cccc(S(=O)(=O)N4CCCC4)c3)cs2)c1 (protonated)
[NH-]S(=O)(=O)c1cccc(N=c2[n-]c(C(=O)[N-]c3cccc(S(=O)(=O)N4CCCC4)c3)cs2)c1 (3D coordinates assigned)
[NH-]S(=O)(=O)c1cccc(N=c2[n-]c(C(=O)[N-]c3cccc(S(=O)(=O)N4CCCC4)c3)cs2)c1 (nonaromatic ring conformer: 96.96325307930965 kcal/mol)

>  <smiles>  (13) 
NS(=O)(=O)c1cccc(N=c2[nH]c(C(=O)Nc3cccc(S(=O)(=O)N4CCCC4)c3)cs2)c1

>  <score_type>  (13) 
oracle

>  <origin>  (13) 
adg

>  <m_score__min__energy>  (13) 
-16.02

>  <m_primary>  (13) 
energy

$$$$
13:0
     RDKit          3D

 57 60  0  0  0  0  0  0  0  0999 V2000
   55.5090   31.2180   52.9540 C   0  0  0  0  0  0  0  0  0  0  0  0
   54.7210   30.2100   53.3630 C   0  0  0  0  0  0  0  0  0  0  0  0
   53.3200   30.2200   53.4490 C   0  0  0  0  0  0  0  0  0  0  0  0
   52.4090   31.0890   52.9670 C   0  0  0  0  0  0  0  0  0  0  0  0
   51.9830   31.1950   51.5610 C   0  0  0  0  0  0  0  0  0  0  0  0
   52.0300   30.1890   50.6670 N   0  0  0  0  0  0  0  0  0  0  0  0
   51.4160   30.7080   49.5830 C   0  0  0  0  0  0  0  0  0  0  0  0
   51.2730   30.0630   48.5110 O   0  0  0  0  0  0  0  0  0  0  0  0
   50.9580   31.9680   49.7390 N   0  0  0  0  0  0  0  0  0  0  0  0
   51.3130   32.2540   51.0020 C   0  0  0  0  0  0  0  0  0  0  0  0
   51.0240   33.4570   51.6330 O   0  0  0  0  0  0  0  0  0  0  0  0
   52.9670   29.0830   54.1550 C   0  0  0  0  0  0  0  0  0  0  0  0
   54.1330   28.3950   54.4130 C   0  0  0  0  0  0  0  0  0  0  0  0
   54.1990   27.0800   55.1320 C   0  0  0  0  0  0  0  0  0  0  0  0
   55.1990   29.0620   53.9150 N   0  0  0  0  0  0  0  0  0  0  0  0
   56.6050   28.6610   54.0740 C   0  0  0  0  0  0  0  0  0  0  0  0
   57.3130   28.6440   52.7160 C   0  0  0  0  0  0  0  0  0  0  0  0
   58.2230   29.8300   52.5790 C   0  0  0  0  0  0  0  0  0  0  0  0
   58.3060   30.6560   53.5290 O   0  0  0  0  0  0  0  0  0  0  0  0
   58.9520   30.0680   51.3620 N   0  0  0  0  0  0  0  0  0  0  0  0
   59.1110   31.4380   50.8660 C   0  0  0  0  0  0  0  0  0  0  0  0
   59.0340   31.4500   49.3380 C   0  0  0  0  0  0  0  0  0  0  0  0
   59.9020   30.4060   48.7760 N   0  0  0  0  0  0  0  0  0  0  0  0
   60.5210   30.6150   47.4950 C   0  0  0  0  0  0  0  0  0  0  0  0
   60.3200   29.7830   46.5690 O   0  0  0  0  0  0  0  0  0  0  0  0
   61.4020   31.7810   47.2500 C   0  0  0  0  0  0  0  0  0  0  0  0
   62.7860   31.6980   47.4940 C   0  0  0  0  0  0  0  0  0  0  0  0
   63.6140   32.7980   47.2510 C   0  0  0  0  0  0  0  0  0  0  0  0
   63.0740   33.9860   46.7560 C   0  0  0  0  0  0  0  0  0  0  0  0
   61.7030   34.0770   46.4990 C   0  0  0  0  0  0  0  0  0  0  0  0
   60.8710   32.9800   46.7400 C   0  0  0  0  0  0  0  0  0  0  0  0
   59.7470   29.0390   49.2850 C   0  0  0  0  0  0  0  0  0  0  0  0
   59.8370   29.0370   50.8100 C   0  0  0  0  0  0  0  0  0  0  0  0
   56.6010   31.0877   52.9305 H   0  0  0  0  0  0  0  0  0  0  0  0
   55.0623   32.1737   52.6425 H   0  0  0  0  0  0  0  0  0  0  0  0
   51.9433   31.7789   53.6862 H   0  0  0  0  0  0  0  0  0  0  0  0
   51.9508   28.7856   54.4530 H   0  0  0  0  0  0  0  0  0  0  0  0
   54.1902   27.2550   56.2180 H   0  0  0  0  0  0  0  0  0  0  0  0
   53.3306   26.4654   54.8526 H   0  0  0  0  0  0  0  0  0  0  0  0
   55.1246   26.5554   54.8526 H   0  0  0  0  0  0  0  0  0  0  0  0
   57.1127   29.3758   54.7384 H   0  0  0  0  0  0  0  0  0  0  0  0
   56.6407   27.6506   54.5073 H   0  0  0  0  0  0  0  0  0  0  0  0
   57.9059   27.7216   52.6291 H   0  0  0  0  0  0  0  0  0  0  0  0
   56.5545   28.6855   51.9204 H   0  0  0  0  0  0  0  0  0  0  0  0
   58.3098   32.0700   51.2767 H   0  0  0  0  0  0  0  0  0  0  0  0
   60.0901   31.8268   51.1827 H   0  0  0  0  0  0  0  0  0  0  0  0
   57.9956   31.2658   49.0254 H   0  0  0  0  0  0  0  0  0  0  0  0
   59.3695   32.4309   48.9703 H   0  0  0  0  0  0  0  0  0  0  0  0
   63.2184   30.7623   47.8780 H   0  0  0  0  0  0  0  0  0  0  0  0
   64.6934   32.7270   47.4504 H   0  0  0  0  0  0  0  0  0  0  0  0
   63.7273   34.8508   46.5681 H   0  0  0  0  0  0  0  0  0  0  0  0
   61.2785   35.0129   46.1067 H   0  0  0  0  0  0  0  0  0  0  0  0
   59.7939   33.0546   46.5295 H   0  0  0  0  0  0  0  0  0  0  0  0
   58.7674   28.6444   48.9772 H   0  0  0  0  0  0  0  0  0  0  0  0
   60.5488   28.4074   48.8747 H   0  0  0  0  0  0  0  0  0  0  0  0
   59.5324   28.0516   51.1924 H   0  0  0  0  0  0  0  0  0  0  0  0
   60.8732   29.2483   51.1126 H   0  0  0  0  0  0  0  0  0  0  0  0
  1  2  2  0
  2  3  1  0
  3  4  2  3
  4  5  1  0
  5  6  1  0
  6  7  1  0
  7  8  2  0
  7  9  1  0
  9 10  1  0
 10 11  1  0
  3 12  1  0
 12 13  2  0
 13 14  1  0
 13 15  1  0
 15 16  1  0
 16 17  1  0
 17 18  1  0
 18 19  2  0
 18 20  1  0
 20 21  1  0
 21 22  1  0
 22 23  1  0
 23 24  1  0
 24 25  2  0
 24 26  1  0
 26 27  2  0
 27 28  1  0
 28 29  2  0
 29 30  1  0
 30 31  2  0
 23 32  1  0
 32 33  1  0
 15  2  1  0
 33 20  1  0
 10  5  2  0
 31 26  1  0
  1 34  1  0
  1 35  1  0
  4 36  1  0
 12 37  1  0
 14 38  1  0
 14 39  1  0
 14 40  1  0
 16 41  1  0
 16 42  1  0
 17 43  1  0
 17 44  1  0
 21 45  1  0
 21 46  1  0
 22 47  1  0
 22 48  1  0
 27 49  1  0
 28 50  1  0
 29 51  1  0
 30 52  1  0
 31 53  1  0
 32 54  1  0
 32 55  1  0
 33 56  1  0
 33 57  1  0
M  CHG  3   6  -1   9  -1  11  -1
M  END
>  <UniqueID>  (14) 
14

>  <SMILES>  (14) 
C=c1c(=Cc2[n-]c(=O)[n-]c2[O-])cc(C)n1CCC(=O)N1CCN(C(=O)c2ccccc2)CC1

>  <Energy>  (14) 
131.25017951209335

>  <Genealogy>  (14) 
C=c1c(=Cc2[n-]c(=O)[n-]c2[O-])cc(C)n1CCC(=O)N1CCN(C(=O)c2ccccc2)CC1 (protonated)
C=c1c(=Cc2[n-]c(=O)[n-]c2[O-])cc(C)n1CCC(=O)N1CCN(C(=O)c2ccccc2)CC1 (3D coordinates assigned)
C=c1c(=Cc2[n-]c(=O)[n-]c2[O-])cc(C)n1CCC(=O)N1CCN(C(=O)c2ccccc2)CC1 (nonaromatic ring conformer: 131.25017951209335 kcal/mol)

>  <smiles>  (14) 
C=c1c(=Cc2[nH]c(=O)[nH]c2O)cc(C)n1CCC(=O)N1CCN(C(=O)c2ccccc2)CC1

>  <score_type>  (14) 
oracle

>  <origin>  (14) 
adg

>  <m_score__min__energy>  (14) 
-17.73

>  <m_primary>  (14) 
energy

$$$$
14:0
     RDKit          3D

 42 44  0  0  0  0  0  0  0  0999 V2000
   55.0894   22.2450   48.8369 H   0  0  0  0  0  0  0  0  0  0  0  0
   54.9770   22.6440   47.8180 C   0  0  0  0  0  0  0  0  0  0  0  0
   53.7440   22.5570   47.1700 C   0  0  0  0  0  0  0  0  0  0  0  0
   52.8890   22.0933   47.6838 H   0  0  0  0  0  0  0  0  0  0  0  0
   53.5870   23.0550   45.8720 C   0  0  0  0  0  0  0  0  0  0  0  0
   52.3300   22.9350   45.2610 O   0  0  0  0  0  0  0  0  0  0  0  0
   51.5890   24.0250   44.7230 C   0  0  0  0  0  0  0  0  0  0  0  0
   51.1778   24.6299   45.5446 H   0  0  0  0  0  0  0  0  0  0  0  0
   52.2511   24.6486   44.1043 H   0  0  0  0  0  0  0  0  0  0  0  0
   50.7656   23.6387   44.1043 H   0  0  0  0  0  0  0  0  0  0  0  0
   54.6860   23.6530   45.2270 C   0  0  0  0  0  0  0  0  0  0  0  0
   54.5720   24.0426   44.2046 H   0  0  0  0  0  0  0  0  0  0  0  0
   55.9290   23.7570   45.8780 C   0  0  0  0  0  0  0  0  0  0  0  0
   57.1000   24.3660   45.1500 C   0  0  0  0  0  0  0  0  0  0  0  0
   58.0285   23.8785   45.4820 H   0  0  0  0  0  0  0  0  0  0  0  0
   56.9674   24.2197   44.0679 H   0  0  0  0  0  0  0  0  0  0  0  0
   57.1790   25.8330   45.4410 C   0  0  0  0  0  0  0  0  0  0  0  0
   58.3310   26.5210   45.5300 N   0  0  0  0  0  0  0  0  0  0  0  0
   57.9310   27.7670   45.8690 C   0  0  0  0  0  0  0  0  0  0  0  0
   58.7780   28.7430   46.0130 N   0  0  0  0  0  0  0  0  0  0  0  0
   58.5580   30.1250   45.6830 C   0  0  0  0  0  0  0  0  0  0  0  0
   58.5430   31.0650   46.7160 C   0  0  0  0  0  0  0  0  0  0  0  0
   58.7188   30.7397   47.7520 H   0  0  0  0  0  0  0  0  0  0  0  0
   58.3070   32.4130   46.4450 C   0  0  0  0  0  0  0  0  0  0  0  0
   58.3104   33.1426   47.2682 H   0  0  0  0  0  0  0  0  0  0  0  0
   58.0650   32.8480   45.1310 C   0  0  0  0  0  0  0  0  0  0  0  0
   57.8080   34.3090   44.8730 C   0  0  0  0  0  0  0  0  0  0  0  0
   57.7146   34.8398   45.8319 H   0  0  0  0  0  0  0  0  0  0  0  0
   58.6454   34.7329   44.2993 H   0  0  0  0  0  0  0  0  0  0  0  0
   56.8762   34.4217   44.2993 H   0  0  0  0  0  0  0  0  0  0  0  0
   58.0330   31.8970   44.0820 C   0  0  0  0  0  0  0  0  0  0  0  0
   57.7440   32.3130   42.6640 C   0  0  0  0  0  0  0  0  0  0  0  0
   57.1164   33.2164   42.6676 H   0  0  0  0  0  0  0  0  0  0  0  0
   58.6899   32.5257   42.1443 H   0  0  0  0  0  0  0  0  0  0  0  0
   57.2146   31.5008   42.1443 H   0  0  0  0  0  0  0  0  0  0  0  0
   58.2760   30.5420   44.3690 C   0  0  0  0  0  0  0  0  0  0  0  0
   58.2453   29.8000   43.5575 H   0  0  0  0  0  0  0  0  0  0  0  0
   56.5910   27.9080   45.9960 N   0  0  0  0  0  0  0  0  0  0  0  0
   56.1330   26.6740   45.7320 C   0  0  0  0  0  0  0  0  0  0  0  0
   54.7890   26.3260   45.7580 O   0  0  0  0  0  0  0  0  0  0  0  0
   56.0700   23.2360   47.1780 C   0  0  0  0  0  0  0  0  0  0  0  0
   57.2910   23.3010   47.8410 O   0  0  0  0  0  0  0  0  0  0  0  0
  1  2  1  0
  2  3  2  0
  3  4  1  0
  3  5  1  0
  5  6  1  0
  6  7  1  0
  7  8  1  0
  7  9  1  0
  7 10  1  0
  5 11  2  0
 11 12  1  0
 11 13  1  0
 13 14  1  0
 14 15  1  0
 14 16  1  0
 14 17  1  0
 17 18  1  0
 18 19  1  0
 19 20  2  0
 20 21  1  0
 21 22  2  0
 22 23  1  0
 22 24  1  0
 24 25  1  0
 24 26  2  0
 26 27  1  0
 27 28  1  0
 27 29  1  0
 27 30  1  0
 26 31  1  0
 31 32  1  0
 32 33  1  0
 32 34  1  0
 32 35  1  0
 31 36  2  0
 36 37  1  0
 19 38  1  0
 38 39  1  0
 39 40  1  0
 13 41  2  0
 41 42  1  0
 41  2  1  0
 39 17  2  0
 36 21  1  0
M  CHG  4  18  -1  38  -1  40  -1  42  -1
M  END
>  <UniqueID>  (15) 
15

>  <SMILES>  (15) 
COc1ccc([O-])c(Cc2[n-]/c(=N/c3ccc(C)c(C)c3)[n-]c2[O-])c1

>  <Energy>  (15) 
77.75012621320985

>  <Genealogy>  (15) 
COc1ccc([O-])c(Cc2[n-]c(=Nc3ccc(C)c(C)c3)[n-]c2[O-])c1 (protonated)
COc1ccc([O-])c(Cc2[n-]/c(=N/c3ccc(C)c(C)c3)[n-]c2[O-])c1 (cis-trans isomerization)
COc1ccc([O-])c(Cc2[n-]/c(=N/c3ccc(C)c(C)c3)[n-]c2[O-])c1 (3D coordinates assigned)
COc1ccc([O-])c(Cc2[n-]/c(=N/c3ccc(C)c(C)c3)[n-]c2[O-])c1 (optimized conformer: 77.75012621320985 kcal/mol)

>  <smiles>  (15) 
COc1ccc(O)c(Cc2[nH]c(=Nc3ccc(C)c(C)c3)[nH]c2O)c1

>  <score_type>  (15) 
oracle

>  <origin>  (15) 
adg

>  <m_score__min__energy>  (15) 
-15.81

>  <m_primary>  (15) 
energy

$$$$
15:0
     RDKit          3D

 52 55  0  0  0  0  0  0  0  0999 V2000
   61.0594   28.3988   45.0640 H   0  0  0  0  0  0  0  0  0  0  0  0
   60.1610   27.8860   45.4380 C   0  0  0  0  0  0  0  0  0  0  0  0
   60.1390   26.5040   46.3990 S   0  0  0  0  0  0  0  0  0  0  0  0
   58.4550   26.4430   46.4600 C   0  0  0  0  0  0  0  0  0  0  0  0
   57.7430   25.5480   47.0770 N   0  0  0  0  0  0  0  0  0  0  0  0
   56.2330   24.9260   46.4910 S   0  0  0  0  0  0  0  0  0  0  0  0
   55.3830   26.0690   46.0140 O   0  0  0  0  0  0  0  0  0  0  0  0
   55.5240   24.2220   47.6130 O   0  0  0  0  0  0  0  0  0  0  0  0
   56.5110   23.8230   45.1460 C   0  0  0  0  0  0  0  0  0  0  0  0
   55.6770   23.8560   44.0180 C   0  0  0  0  0  0  0  0  0  0  0  0
   54.8472   24.5764   43.9691 H   0  0  0  0  0  0  0  0  0  0  0  0
   55.9000   22.9730   42.9550 C   0  0  0  0  0  0  0  0  0  0  0  0
   55.2465   23.0017   42.0706 H   0  0  0  0  0  0  0  0  0  0  0  0
   56.9520   22.0550   43.0160 C   0  0  0  0  0  0  0  0  0  0  0  0
   57.1241   21.3593   42.1815 H   0  0  0  0  0  0  0  0  0  0  0  0
   57.7850   22.0210   44.1370 C   0  0  0  0  0  0  0  0  0  0  0  0
   58.6138   21.2992   44.1835 H   0  0  0  0  0  0  0  0  0  0  0  0
   57.5670   22.9030   45.2000 C   0  0  0  0  0  0  0  0  0  0  0  0
   58.2257   22.8747   46.0805 H   0  0  0  0  0  0  0  0  0  0  0  0
   57.9030   27.4560   45.7620 N   0  0  0  0  0  0  0  0  0  0  0  0
   56.8720   27.5980   45.6590 H   0  0  0  0  0  0  0  0  0  0  0  0
   58.8410   28.2670   45.1990 C   0  0  0  0  0  0  0  0  0  0  0  0
   58.4720   29.4360   44.3320 C   0  0  0  0  0  0  0  0  0  0  0  0
   57.8359   29.0815   43.5075 H   0  0  0  0  0  0  0  0  0  0  0  0
   59.4003   29.8851   43.9491 H   0  0  0  0  0  0  0  0  0  0  0  0
   57.7240   30.4920   45.1070 C   0  0  0  0  0  0  0  0  0  0  0  0
   56.5220   30.7410   44.8100 O   0  0  0  0  0  0  0  0  0  0  0  0
   58.3380   31.1930   46.2100 N   0  0  0  0  0  0  0  0  0  0  0  0
   57.7800   32.4960   46.6090 C   0  0  0  0  0  0  0  0  0  0  0  0
   57.6887   33.1334   45.7172 H   0  0  0  0  0  0  0  0  0  0  0  0
   56.7965   32.3225   47.0702 H   0  0  0  0  0  0  0  0  0  0  0  0
   58.6710   33.2000   47.6330 C   0  0  0  0  0  0  0  0  0  0  0  0
   59.5922   33.5458   47.1412 H   0  0  0  0  0  0  0  0  0  0  0  0
   58.1342   34.0628   48.0544 H   0  0  0  0  0  0  0  0  0  0  0  0
   59.0130   32.2640   48.7090 N   0  0  0  0  0  0  0  0  0  0  0  0
   58.7930   32.6190   50.0860 C   0  0  0  0  0  0  0  0  0  0  0  0
   57.8050   31.9640   50.8420 C   0  0  0  0  0  0  0  0  0  0  0  0
   57.2028   31.1667   50.3819 H   0  0  0  0  0  0  0  0  0  0  0  0
   57.5840   32.3210   52.1760 C   0  0  0  0  0  0  0  0  0  0  0  0
   56.8106   31.8027   52.7619 H   0  0  0  0  0  0  0  0  0  0  0  0
   58.3430   33.3340   52.7660 C   0  0  0  0  0  0  0  0  0  0  0  0
   58.1686   33.6119   53.8159 H   0  0  0  0  0  0  0  0  0  0  0  0
   59.3250   33.9950   52.0210 C   0  0  0  0  0  0  0  0  0  0  0  0
   59.9221   34.7936   52.4855 H   0  0  0  0  0  0  0  0  0  0  0  0
   59.5490   33.6420   50.6860 C   0  0  0  0  0  0  0  0  0  0  0  0
   60.3200   34.1669   50.1029 H   0  0  0  0  0  0  0  0  0  0  0  0
   59.5100   30.9200   48.3770 C   0  0  0  0  0  0  0  0  0  0  0  0
   60.5244   30.8052   48.7867 H   0  0  0  0  0  0  0  0  0  0  0  0
   58.8188   30.1844   48.8142 H   0  0  0  0  0  0  0  0  0  0  0  0
   59.5580   30.6830   46.8600 C   0  0  0  0  0  0  0  0  0  0  0  0
   60.4330   31.2021   46.4418 H   0  0  0  0  0  0  0  0  0  0  0  0
   59.6290   29.6010   46.6751 H   0  0  0  0  0  0  0  0  0  0  0  0
  1  2  1  0
  2  3  1  0
  3  4  1  0
  4  5  2  0
  5  6  1  0
  6  7  2  0
  6  8  2  0
  6  9  1  0
  9 10  2  0
 10 11  1  0
 10 12  1  0
 12 13  1  0
 12 14  2  0
 14 15  1  0
 14 16  1  0
 16 17  1  0
 16 18  2  0
 18 19  1  0
  4 20  1  0
 20 21  1  0
 20 22  1  0
 22 23  1  0
 23 24  1  0
 23 25  1  0
 23 26  1  0
 26 27  2  0
 26 28  1  0
 28 29  1  0
 29 30  1  0
 29 31  1  0
 29 32  1  0
 32 33  1  0
 32 34  1  0
 32 35  1  0
 35 36  1  0
 36 37  2  0
 37 38  1  0
 37 39  1  0
 39 40  1  0
 39 41  2  0
 41 42  1  0
 41 43  1  0
 43 44  1  0
 43 45  2  0
 45 46  1  0
 35 47  1  0
 47 48  1  0
 47 49  1  0
 47 50  1  0
 50 51  1  0
 50 52  1  0
 22  2  2  0
 50 28  1  0
 18  9  1  0
 45 36  1  0
M  END
>  <UniqueID>  (16) 
16

>  <SMILES>  (16) 
O=C(Cc1cs/c(=N\S(=O)(=O)c2ccccc2)[nH]1)N1CCN(c2ccccc2)CC1

>  <Energy>  (16) 
92.95999114432632

>  <Genealogy>  (16) 
O=C(Cc1cs/c(=N\S(=O)(=O)c2ccccc2)[nH]1)N1CCN(c2ccccc2)CC1 (cis-trans isomerization)
O=C(Cc1cs/c(=N\S(=O)(=O)c2ccccc2)[nH]1)N1CCN(c2ccccc2)CC1 (3D coordinates assigned)
O=C(Cc1cs/c(=N\S(=O)(=O)c2ccccc2)[nH]1)N1CCN(c2ccccc2)CC1 (nonaromatic ring conformer: 92.95999114432632 kcal/mol)

>  <smiles>  (16) 
O=C(Cc1csc(=NS(=O)(=O)c2ccccc2)[nH]1)N1CCN(c2ccccc2)CC1

>  <score_type>  (16) 
oracle

>  <origin>  (16) 
adg

>  <m_score__min__energy>  (16) 
-9.0700000000000003

>  <m_primary>  (16) 
energy

$$$$
16:0
     RDKit          3D

 54 57  0  0  0  0  0  0  0  0999 V2000
   58.8530   28.3070   44.6160 C   0  0  0  0  0  0  0  0  0  0  0  0
   58.2150   28.1340   45.9620 C   0  0  0  0  0  0  0  0  0  0  0  0
   56.9620   28.0120   46.0200 O   0  0  0  0  0  0  0  0  0  0  0  0
   59.0190   28.1040   47.2140 C   0  0  0  0  0  0  0  0  0  0  0  0
   59.9270   27.0590   47.4760 C   0  0  0  0  0  0  0  0  0  0  0  0
   60.6850   27.0540   48.6500 C   0  0  0  0  0  0  0  0  0  0  0  0
   60.5460   28.0840   49.5800 C   0  0  0  0  0  0  0  0  0  0  0  0
   59.6360   29.1250   49.3490 C   0  0  0  0  0  0  0  0  0  0  0  0
   59.5430   30.2760   50.3140 C   0  0  0  0  0  0  0  0  0  0  0  0
   59.9070   31.5230   49.6260 N   0  0  0  0  0  0  0  0  0  0  0  0
   58.8700   32.2270   48.9070 C   0  0  0  0  0  0  0  0  0  0  0  0
   57.7260   32.3410   49.4270 O   0  0  0  0  0  0  0  0  0  0  0  0
   59.1110   32.7540   47.5920 N   0  0  0  0  0  0  0  0  0  0  0  0
   58.0720   33.4730   46.8500 C   0  0  0  0  0  0  0  0  0  0  0  0
   57.9200   32.8980   45.4660 C   0  0  0  0  0  0  0  0  0  0  0  0
   58.5480   33.5160   44.3750 C   0  0  0  0  0  0  0  0  0  0  0  0
   58.3980   32.9950   43.0890 C   0  0  0  0  0  0  0  0  0  0  0  0
   57.6140   31.8580   42.8780 C   0  0  0  0  0  0  0  0  0  0  0  0
   56.9640   31.2290   43.9550 C   0  0  0  0  0  0  0  0  0  0  0  0
   56.1310   30.0190   43.7490 C   0  0  0  0  0  0  0  0  0  0  0  0
   55.3890   29.4300   44.8210 N   0  0  0  0  0  0  0  0  0  0  0  0
   56.0810   29.4840   42.6090 O   0  0  0  0  0  0  0  0  0  0  0  0
   57.1310   31.7540   45.2500 C   0  0  0  0  0  0  0  0  0  0  0  0
   60.6240   32.3980   46.8370 S   0  0  0  0  0  0  0  0  0  0  0  0
   61.0410   33.5370   45.9490 O   0  0  0  0  0  0  0  0  0  0  0  0
   60.5210   31.1280   46.0420 O   0  0  0  0  0  0  0  0  0  0  0  0
   61.7720   32.2100   48.1380 C   0  0  0  0  0  0  0  0  0  0  0  0
   63.1340   32.4540   47.9230 C   0  0  0  0  0  0  0  0  0  0  0  0
   64.0400   32.3440   48.9790 C   0  0  0  0  0  0  0  0  0  0  0  0
   63.5860   32.0010   50.2550 C   0  0  0  0  0  0  0  0  0  0  0  0
   62.2280   31.7520   50.4720 C   0  0  0  0  0  0  0  0  0  0  0  0
   61.3050   31.8370   49.4130 C   0  0  0  0  0  0  0  0  0  0  0  0
   58.8860   29.1370   48.1620 C   0  0  0  0  0  0  0  0  0  0  0  0
   59.9074   28.5929   44.7441 H   0  0  0  0  0  0  0  0  0  0  0  0
   58.7948   27.3606   44.0583 H   0  0  0  0  0  0  0  0  0  0  0  0
   58.3247   29.0943   44.0583 H   0  0  0  0  0  0  0  0  0  0  0  0
   60.0402   26.2401   46.7503 H   0  0  0  0  0  0  0  0  0  0  0  0
   61.3938   26.2348   48.8413 H   0  0  0  0  0  0  0  0  0  0  0  0
   61.1524   28.0795   50.4977 H   0  0  0  0  0  0  0  0  0  0  0  0
   58.5136   30.3538   50.6938 H   0  0  0  0  0  0  0  0  0  0  0  0
   60.2321   30.1064   51.1545 H   0  0  0  0  0  0  0  0  0  0  0  0
   57.1159   33.3832   47.3865 H   0  0  0  0  0  0  0  0  0  0  0  0
   58.3614   34.5309   46.7664 H   0  0  0  0  0  0  0  0  0  0  0  0
   59.1614   34.4152   44.5335 H   0  0  0  0  0  0  0  0  0  0  0  0
   58.8987   33.4812   42.2387 H   0  0  0  0  0  0  0  0  0  0  0  0
   57.5043   31.4516   41.8617 H   0  0  0  0  0  0  0  0  0  0  0  0
   55.5190   29.7320   45.8100 H   0  0  0  0  0  0  0  0  0  0  0  0
   54.7660   28.6130   44.6330 H   0  0  0  0  0  0  0  0  0  0  0  0
   56.6388   31.2640   46.1030 H   0  0  0  0  0  0  0  0  0  0  0  0
   63.4904   32.7328   46.9204 H   0  0  0  0  0  0  0  0  0  0  0  0
   65.1109   32.5273   48.8067 H   0  0  0  0  0  0  0  0  0  0  0  0
   64.2983   31.9268   51.0899 H   0  0  0  0  0  0  0  0  0  0  0  0
   61.8772   31.4870   51.4803 H   0  0  0  0  0  0  0  0  0  0  0  0
   58.1859   29.9635   47.9702 H   0  0  0  0  0  0  0  0  0  0  0  0
  1  2  1  0
  2  3  2  0
  2  4  1  0
  4  5  2  0
  5  6  1  0
  6  7  2  0
  7  8  1  0
  8  9  1  0
  9 10  1  0
 10 11  1  0
 11 12  2  0
 11 13  1  0
 13 14  1  0
 14 15  1  0
 15 16  2  0
 16 17  1  0
 17 18  2  0
 18 19  1  0
 19 20  1  0
 20 21  1  0
 20 22  2  0
 19 23  2  0
 13 24  1  0
 24 25  2  0
 24 26  2  0
 24 27  1  0
 27 28  2  0
 28 29  1  0
 29 30  2  0
 30 31  1  0
 31 32  2  0
  8 33  2  0
 33  4  1  0
 32 10  1  0
 23 15  1  0
 32 27  1  0
  1 34  1  0
  1 35  1  0
  1 36  1  0
  5 37  1  0
  6 38  1  0
  7 39  1  0
  9 40  1  0
  9 41  1  0
 14 42  1  0
 14 43  1  0
 16 44  1  0
 17 45  1  0
 18 46  1  0
 21 47  1  0
 21 48  1  0
 23 49  1  0
 28 50  1  0
 29 51  1  0
 30 52  1  0
 31 53  1  0
 33 54  1  0
M  END
>  <UniqueID>  (17) 
17

>  <SMILES>  (17) 
CC(=O)c1cccc(CN2C(=O)N(Cc3cccc(C(N)=O)c3)S(=O)(=O)c3ccccc32)c1

>  <Energy>  (17) 
66.92439314414516

>  <Genealogy>  (17) 
CC(=O)c1cccc(CN2C(=O)N(Cc3cccc(C(N)=O)c3)S(=O)(=O)c3ccccc32)c1 (3D coordinates assigned)
CC(=O)c1cccc(CN2C(=O)N(Cc3cccc(C(N)=O)c3)S(=O)(=O)c3ccccc32)c1 (nonaromatic ring conformer: 66.92439314414516 kcal/mol)

>  <smiles>  (17) 
CC(=O)c1cccc(CN2C(=O)N(Cc3cccc(C(N)=O)c3)S(=O)(=O)c3ccccc32)c1

>  <score_type>  (17) 
oracle

>  <origin>  (17) 
adg

>  <m_score__min__energy>  (17) 
-10.66

>  <m_primary>  (17) 
energy

$$$$
17:0
     RDKit          3D

 58 61  0  0  0  0  0  0  0  0999 V2000
   57.7990   32.1460   42.8890 C   0  0  0  0  0  0  0  0  0  0  0  0
   57.8840   31.9250   44.2090 C   0  0  0  0  0  0  0  0  0  0  0  0
   58.1710   30.7060   44.8450 C   0  0  0  0  0  0  0  0  0  0  0  0
   58.2170   29.4480   44.3660 C   0  0  0  0  0  0  0  0  0  0  0  0
   57.6390   28.2610   45.0190 C   0  0  0  0  0  0  0  0  0  0  0  0
   56.3190   28.0850   45.2520 N   0  0  0  0  0  0  0  0  0  0  0  0
   56.2710   26.9440   45.9720 C   0  0  0  0  0  0  0  0  0  0  0  0
   55.1900   26.4320   46.3690 O   0  0  0  0  0  0  0  0  0  0  0  0
   57.4840   26.4130   46.2310 N   0  0  0  0  0  0  0  0  0  0  0  0
   57.7920   25.1700   46.9400 C   0  0  0  0  0  0  0  0  0  0  0  0
   58.3840   24.1490   46.0060 C   0  0  0  0  0  0  0  0  0  0  0  0
   59.6380   24.0120   45.9610 O   0  0  0  0  0  0  0  0  0  0  0  0
   57.5430   23.3060   45.1870 N   0  0  0  0  0  0  0  0  0  0  0  0
   57.7720   21.8560   45.0910 C   0  0  0  0  0  0  0  0  0  0  0  0
   57.8660   21.4380   43.6220 C   0  0  0  0  0  0  0  0  0  0  0  0
   56.6540   21.9350   42.8290 C   0  0  0  0  0  0  0  0  0  0  0  0
   56.4890   23.4540   42.9790 C   0  0  0  0  0  0  0  0  0  0  0  0
   56.3900   23.8770   44.4620 C   0  0  1  0  0  0  0  0  0  0  0  0
   55.0860   23.5140   45.1770 C   0  0  0  0  0  0  0  0  0  0  0  0
   55.1560   23.0050   46.4900 C   0  0  0  0  0  0  0  0  0  0  0  0
   53.9970   22.6800   47.1990 C   0  0  0  0  0  0  0  0  0  0  0  0
   52.7450   22.8780   46.6200 C   0  0  0  0  0  0  0  0  0  0  0  0
   52.6500   23.4130   45.3350 C   0  0  0  0  0  0  0  0  0  0  0  0
   53.8060   23.7390   44.6200 C   0  0  0  0  0  0  0  0  0  0  0  0
   58.3490   27.2490   45.6320 C   0  0  0  0  0  0  0  0  0  0  0  0
   59.7320   27.0870   45.6430 O   0  0  0  0  0  0  0  0  0  0  0  0
   58.4160   31.0110   46.1740 C   0  0  0  0  0  0  0  0  0  0  0  0
   58.2110   32.3670   46.3170 C   0  0  0  0  0  0  0  0  0  0  0  0
   58.3720   33.1170   47.6060 C   0  0  0  0  0  0  0  0  0  0  0  0
   57.8630   32.9210   45.1340 N   0  0  0  0  0  0  0  0  0  0  0  0
   57.6550   34.3500   44.8800 C   0  0  0  0  0  0  0  0  0  0  0  0
   57.5659   33.1535   42.5139 H   0  0  0  0  0  0  0  0  0  0  0  0
   57.9624   31.3198   42.1814 H   0  0  0  0  0  0  0  0  0  0  0  0
   58.7300   29.2939   43.4052 H   0  0  0  0  0  0  0  0  0  0  0  0
   58.5125   25.3831   47.7434 H   0  0  0  0  0  0  0  0  0  0  0  0
   56.8587   24.7639   47.3572 H   0  0  0  0  0  0  0  0  0  0  0  0
   58.7113   21.6007   45.6034 H   0  0  0  0  0  0  0  0  0  0  0  0
   56.9329   21.3254   45.5648 H   0  0  0  0  0  0  0  0  0  0  0  0
   58.7809   21.8646   43.1849 H   0  0  0  0  0  0  0  0  0  0  0  0
   57.8897   20.3394   43.5721 H   0  0  0  0  0  0  0  0  0  0  0  0
   56.7942   21.6909   41.7656 H   0  0  0  0  0  0  0  0  0  0  0  0
   55.7514   21.4423   43.2196 H   0  0  0  0  0  0  0  0  0  0  0  0
   57.3570   23.9531   42.5236 H   0  0  0  0  0  0  0  0  0  0  0  0
   55.5555   23.7477   42.4767 H   0  0  0  0  0  0  0  0  0  0  0  0
   56.3986   24.9770   44.4641 H   0  0  0  0  0  0  0  0  0  0  0  0
   56.1385   22.8616   46.9635 H   0  0  0  0  0  0  0  0  0  0  0  0
   54.0728   22.2672   48.2158 H   0  0  0  0  0  0  0  0  0  0  0  0
   51.8331   22.6129   47.1752 H   0  0  0  0  0  0  0  0  0  0  0  0
   51.6612   23.5790   44.8826 H   0  0  0  0  0  0  0  0  0  0  0  0
   53.7191   24.1750   43.6138 H   0  0  0  0  0  0  0  0  0  0  0  0
   60.1540   26.1710   45.7310 H   0  0  0  0  0  0  0  0  0  0  0  0
   58.7164   30.3066   46.9636 H   0  0  0  0  0  0  0  0  0  0  0  0
   58.2243   32.4290   48.4515 H   0  0  0  0  0  0  0  0  0  0  0  0
   59.3830   33.5475   47.6559 H   0  0  0  0  0  0  0  0  0  0  0  0
   57.6267   33.9245   47.6559 H   0  0  0  0  0  0  0  0  0  0  0  0
   57.5771   34.8851   45.8379 H   0  0  0  0  0  0  0  0  0  0  0  0
   58.5047   34.7478   44.3058 H   0  0  0  0  0  0  0  0  0  0  0  0
   56.7271   34.4891   44.3058 H   0  0  0  0  0  0  0  0  0  0  0  0
  1  2  2  0
  2  3  1  0
  3  4  2  3
  4  5  1  0
  5  6  1  0
  6  7  1  0
  7  8  2  0
  7  9  1  0
  9 10  1  0
 10 11  1  0
 11 12  2  0
 11 13  1  0
 13 14  1  0
 14 15  1  0
 15 16  1  0
 16 17  1  0
 17 18  1  0
 18 19  1  0
 19 20  2  0
 20 21  1  0
 21 22  2  0
 22 23  1  0
 23 24  2  0
  9 25  1  0
 25 26  1  0
  3 27  1  0
 27 28  2  0
 28 29  1  0
 28 30  1  0
 30 31  1  0
 30  2  1  0
 25  5  2  0
 18 13  1  0
 24 19  1  0
  1 32  1  0
  1 33  1  0
  4 34  1  0
 10 35  1  0
 10 36  1  0
 14 37  1  0
 14 38  1  0
 15 39  1  0
 15 40  1  0
 16 41  1  0
 16 42  1  0
 17 43  1  0
 17 44  1  0
 18 45  1  6
 20 46  1  0
 21 47  1  0
 22 48  1  0
 23 49  1  0
 24 50  1  0
 26 51  1  0
 27 52  1  0
 29 53  1  0
 29 54  1  0
 29 55  1  0
 31 56  1  0
 31 57  1  0
 31 58  1  0
M  CHG  1   6  -1
M  END
>  <UniqueID>  (18) 
18

>  <SMILES>  (18) 
C=c1c(=Cc2[n-]c(=O)n(CC(=O)N3CCCC[C@H]3c3ccccc3)c2O)cc(C)n1C

>  <Energy>  (18) 
132.89483004749852

>  <Genealogy>  (18) 
C=c1c(=Cc2[n-]c(=O)n(CC(=O)N3CCCCC3c3ccccc3)c2O)cc(C)n1C (protonated)
C=c1c(=Cc2[n-]c(=O)n(CC(=O)N3CCCC[C@H]3c3ccccc3)c2O)cc(C)n1C (chirality)
C=c1c(=Cc2[n-]c(=O)n(CC(=O)N3CCCC[C@H]3c3ccccc3)c2O)cc(C)n1C (3D coordinates assigned)
C=c1c(=Cc2[n-]c(=O)n(CC(=O)N3CCCC[C@H]3c3ccccc3)c2O)cc(C)n1C (nonaromatic ring conformer: 132.89483004749852 kcal/mol)

>  <smiles>  (18) 
C=c1c(=Cc2[nH]c(=O)n(CC(=O)N3CCCCC3c3ccccc3)c2O)cc(C)n1C

>  <score_type>  (18) 
oracle

>  <origin>  (18) 
adg

>  <m_score__min__energy>  (18) 
-10.77

>  <m_primary>  (18) 
energy

$$$$
18:0
     RDKit          3D

 44 46  0  0  0  0  0  0  0  0999 V2000
   57.7950   21.1920   45.2540 C   0  0  0  0  0  0  0  0  0  0  0  0
   57.2460   22.3620   44.9480 C   0  0  0  0  0  0  0  0  0  0  0  0
   57.3990   23.5260   45.6850 O   0  0  0  0  0  0  0  0  0  0  0  0
   56.6650   24.5250   45.0410 C   0  0  0  0  0  0  0  0  0  0  0  0
   56.6150   25.9140   45.5250 C   0  0  0  0  0  0  0  0  0  0  0  0
   55.5240   26.3290   45.9980 O   0  0  0  0  0  0  0  0  0  0  0  0
   57.7580   26.8040   45.4320 N   0  0  0  0  0  0  0  0  0  0  0  0
   58.6530   26.8970   46.6050 C   0  0  0  0  0  0  0  0  0  0  0  0
   59.7600   27.9480   46.4900 C   0  0  0  0  0  0  0  0  0  0  0  0
   59.3120   29.1820   45.7060 C   0  0  2  0  0  0  0  0  0  0  0  0
   58.1370   29.9530   46.3550 C   0  0  0  0  0  0  0  0  0  0  0  0
   58.1280   31.4080   45.9600 C   0  0  0  0  0  0  0  0  0  0  0  0
   57.7730   31.7820   44.6520 C   0  0  0  0  0  0  0  0  0  0  0  0
   57.7860   33.1290   44.2750 C   0  0  0  0  0  0  0  0  0  0  0  0
   58.1530   34.1110   45.2000 C   0  0  0  0  0  0  0  0  0  0  0  0
   58.5070   33.7480   46.5020 C   0  0  0  0  0  0  0  0  0  0  0  0
   58.4960   32.4020   46.8830 C   0  0  0  0  0  0  0  0  0  0  0  0
   58.9890   28.7320   44.2840 C   0  0  0  0  0  0  0  0  0  0  0  0
   57.8880   27.6450   44.2120 C   0  0  1  0  0  0  0  0  0  0  0  0
   58.1340   26.7570   42.9790 C   0  0  0  0  0  0  0  0  0  0  0  0
   56.0640   24.0800   43.9340 C   0  0  0  0  0  0  0  0  0  0  0  0
   56.3970   22.6700   43.8160 C   0  0  0  0  0  0  0  0  0  0  0  0
   56.0260   21.8830   42.9050 O   0  0  0  0  0  0  0  0  0  0  0  0
   57.6199   20.3172   44.6105 H   0  0  0  0  0  0  0  0  0  0  0  0
   58.4248   21.0978   46.1509 H   0  0  0  0  0  0  0  0  0  0  0  0
   58.0393   27.1421   47.4844 H   0  0  0  0  0  0  0  0  0  0  0  0
   59.1591   25.9236   46.6845 H   0  0  0  0  0  0  0  0  0  0  0  0
   60.0568   28.2608   47.5020 H   0  0  0  0  0  0  0  0  0  0  0  0
   60.6007   27.4920   45.9466 H   0  0  0  0  0  0  0  0  0  0  0  0
   60.1333   29.9137   45.7058 H   0  0  0  0  0  0  0  0  0  0  0  0
   57.1906   29.4925   46.0352 H   0  0  0  0  0  0  0  0  0  0  0  0
   58.2575   29.8986   47.4470 H   0  0  0  0  0  0  0  0  0  0  0  0
   57.4837   31.0119   43.9218 H   0  0  0  0  0  0  0  0  0  0  0  0
   57.5073   33.4158   43.2503 H   0  0  0  0  0  0  0  0  0  0  0  0
   58.1631   35.1700   44.9026 H   0  0  0  0  0  0  0  0  0  0  0  0
   58.7949   34.5220   47.2287 H   0  0  0  0  0  0  0  0  0  0  0  0
   58.7764   32.1205   47.9087 H   0  0  0  0  0  0  0  0  0  0  0  0
   58.6510   29.6077   43.7106 H   0  0  0  0  0  0  0  0  0  0  0  0
   59.9068   28.2891   43.8698 H   0  0  0  0  0  0  0  0  0  0  0  0
   56.9318   28.1828   44.1319 H   0  0  0  0  0  0  0  0  0  0  0  0
   58.4144   25.7449   43.3061 H   0  0  0  0  0  0  0  0  0  0  0  0
   57.2162   26.7060   42.3749 H   0  0  0  0  0  0  0  0  0  0  0  0
   58.9473   27.1855   42.3749 H   0  0  0  0  0  0  0  0  0  0  0  0
   55.4384   24.6668   43.2453 H   0  0  0  0  0  0  0  0  0  0  0  0
  1  2  2  0
  2  3  1  0
  3  4  1  0
  4  5  1  0
  5  6  2  0
  5  7  1  0
  7  8  1  0
  8  9  1  0
  9 10  1  0
 10 11  1  0
 11 12  1  0
 12 13  2  0
 13 14  1  0
 14 15  2  0
 15 16  1  0
 16 17  2  0
 10 18  1  0
 18 19  1  0
 19 20  1  0
  4 21  2  0
 21 22  1  0
 22 23  2  0
 22  2  1  0
 19  7  1  0
 17 12  1  0
  1 24  1  0
  1 25  1  0
  8 26  1  0
  8 27  1  0
  9 28  1  0
  9 29  1  0
 10 30  1  6
 11 31  1  0
 11 32  1  0
 13 33  1  0
 14 34  1  0
 15 35  1  0
 16 36  1  0
 17 37  1  0
 18 38  1  0
 18 39  1  0
 19 40  1  6
 20 41  1  0
 20 42  1  0
 20 43  1  0
 21 44  1  0
M  END
>  <UniqueID>  (19) 
19

>  <SMILES>  (19) 
C=C1OC(C(=O)N2CC[C@H](Cc3ccccc3)C[C@H]2C)=CC1=O

>  <Energy>  (19) 
78.51535506835901

>  <Genealogy>  (19) 
C=C1OC(C(=O)N2CC[C@H](Cc3ccccc3)C[C@H]2C)=CC1=O (chirality)
C=C1OC(C(=O)N2CC[C@H](Cc3ccccc3)C[C@H]2C)=CC1=O (3D coordinates assigned)
C=C1OC(C(=O)N2CC[C@H](Cc3ccccc3)C[C@H]2C)=CC1=O (nonaromatic ring conformer: 78.51535506835901 kcal/mol)

>  <smiles>  (19) 
C=C1OC(C(=O)N2CCC(Cc3ccccc3)CC2C)=CC1=O

>  <score_type>  (19) 
oracle

>  <origin>  (19) 
adg

>  <m_score__min__energy>  (19) 
-8.6400000000000006

>  <m_primary>  (19) 
energy

$$$$
19:0
     RDKit          3D

 60 63  0  0  0  0  0  0  0  0999 V2000
   58.8110   23.8400   45.9760 C   0  0  0  0  0  0  0  0  0  0  0  0
   58.1050   25.1690   46.0130 C   0  0  0  0  0  0  0  0  0  0  0  0
   56.7130   25.2990   45.9010 C   0  0  0  0  0  0  0  0  0  0  0  0
   55.7080   24.2180   45.8550 C   0  0  0  0  0  0  0  0  0  0  0  0
   54.8160   24.2360   44.9630 O   0  0  0  0  0  0  0  0  0  0  0  0
   55.7750   23.1090   46.7690 N   0  0  0  0  0  0  0  0  0  0  0  0
   55.3870   21.7730   46.3040 C   0  0  0  0  0  0  0  0  0  0  0  0
   55.6640   20.7300   47.3880 C   0  0  0  0  0  0  0  0  0  0  0  0
   56.8700   21.0500   48.0470 O   0  0  0  0  0  0  0  0  0  0  0  0
   56.6850   22.1770   48.8900 C   0  0  0  0  0  0  0  0  0  0  0  0
   55.9320   23.3470   48.2100 C   0  0  0  0  0  0  0  0  0  0  0  0
   56.3200   26.9330   45.9080 S   0  0  0  0  0  0  0  0  0  0  0  0
   57.8920   27.5030   46.0630 C   0  0  0  0  0  0  0  0  0  0  0  0
   58.2560   28.8920   46.1120 N   0  0  0  0  0  0  0  0  0  0  0  0
   57.5090   29.9290   45.4530 C   0  0  0  0  0  0  0  0  0  0  0  0
   56.4240   29.6530   44.8730 O   0  0  0  0  0  0  0  0  0  0  0  0
   57.9840   31.3340   45.4830 C   0  0  0  0  0  0  0  0  0  0  0  0
   58.4830   31.8680   46.6850 C   0  0  0  0  0  0  0  0  0  0  0  0
   58.9440   33.1890   46.7460 C   0  0  0  0  0  0  0  0  0  0  0  0
   59.6280   33.8240   48.2420 S   0  0  0  0  0  0  0  0  0  0  0  0
   58.9550   33.1830   49.4240 O   0  0  0  0  0  0  0  0  0  0  0  0
   59.3840   35.3070   48.3000 O   0  0  0  0  0  0  0  0  0  0  0  0
   61.3470   33.5120   48.2870 N   0  0  0  0  0  0  0  0  0  0  0  0
   61.9550   33.8560   46.9860 C   0  0  0  0  0  0  0  0  0  0  0  0
   63.3040   33.1400   46.8120 C   0  0  0  0  0  0  0  0  0  0  0  0
   63.2180   31.7210   46.8520 O   0  0  0  0  0  0  0  0  0  0  0  0
   62.0620   31.2330   47.5200 C   0  0  0  0  0  0  0  0  0  0  0  0
   61.6280   32.1180   48.7030 C   0  0  0  0  0  0  0  0  0  0  0  0
   58.9030   33.9900   45.6000 C   0  0  0  0  0  0  0  0  0  0  0  0
   58.4000   33.4780   44.4040 C   0  0  0  0  0  0  0  0  0  0  0  0
   57.9420   32.1570   44.3320 C   0  0  0  0  0  0  0  0  0  0  0  0
   57.3880   31.5630   42.7680 Cl  0  0  0  0  0  0  0  0  0  0  0  0
   58.7750   26.4160   46.1180 C   0  0  0  0  0  0  0  0  0  0  0  0
   60.2330   26.5550   46.3520 C   0  0  0  0  0  0  0  0  0  0  0  0
   60.7570   27.7430   46.9410 N   0  0  0  0  0  0  0  0  0  0  0  0
   61.0270   25.6380   46.0120 O   0  0  0  0  0  0  0  0  0  0  0  0
   58.9949   23.4938   47.0038 H   0  0  0  0  0  0  0  0  0  0  0  0
   58.1838   23.1062   45.4486 H   0  0  0  0  0  0  0  0  0  0  0  0
   59.7702   23.9489   45.4486 H   0  0  0  0  0  0  0  0  0  0  0  0
   54.3135   21.7703   46.0642 H   0  0  0  0  0  0  0  0  0  0  0  0
   55.9748   21.5220   45.4087 H   0  0  0  0  0  0  0  0  0  0  0  0
   54.8381   20.7271   48.1145 H   0  0  0  0  0  0  0  0  0  0  0  0
   55.7489   19.7345   46.9278 H   0  0  0  0  0  0  0  0  0  0  0  0
   56.1096   21.8599   49.7722 H   0  0  0  0  0  0  0  0  0  0  0  0
   57.6862   22.5491   49.1530 H   0  0  0  0  0  0  0  0  0  0  0  0
   54.9369   23.4481   48.6679 H   0  0  0  0  0  0  0  0  0  0  0  0
   56.5176   24.2675   48.3501 H   0  0  0  0  0  0  0  0  0  0  0  0
   59.1430   29.1500   46.5970 H   0  0  0  0  0  0  0  0  0  0  0  0
   58.5114   31.2404   47.5879 H   0  0  0  0  0  0  0  0  0  0  0  0
   61.2758   33.5486   46.1772 H   0  0  0  0  0  0  0  0  0  0  0  0
   62.1233   34.9424   46.9499 H   0  0  0  0  0  0  0  0  0  0  0  0
   63.7277   33.4331   45.8401 H   0  0  0  0  0  0  0  0  0  0  0  0
   63.9356   33.4434   47.6599 H   0  0  0  0  0  0  0  0  0  0  0  0
   61.2344   31.1847   46.7970 H   0  0  0  0  0  0  0  0  0  0  0  0
   62.3125   30.2422   47.9268 H   0  0  0  0  0  0  0  0  0  0  0  0
   60.7175   31.6913   49.1490 H   0  0  0  0  0  0  0  0  0  0  0  0
   62.4556   32.1425   49.4272 H   0  0  0  0  0  0  0  0  0  0  0  0
   59.2685   35.0267   45.6421 H   0  0  0  0  0  0  0  0  0  0  0  0
   58.3629   34.1176   43.5098 H   0  0  0  0  0  0  0  0  0  0  0  0
   60.1500   28.3710   47.5140 H   0  0  0  0  0  0  0  0  0  0  0  0
  1  2  1  0
  2  3  2  0
  3  4  1  0
  4  5  2  0
  4  6  1  0
  6  7  1  0
  7  8  1  0
  8  9  1  0
  9 10  1  0
 10 11  1  0
  3 12  1  0
 12 13  1  0
 13 14  1  0
 14 15  1  0
 15 16  2  0
 15 17  1  0
 17 18  2  0
 18 19  1  0
 19 20  1  0
 20 21  2  0
 20 22  2  0
 20 23  1  0
 23 24  1  0
 24 25  1  0
 25 26  1  0
 26 27  1  0
 27 28  1  0
 19 29  2  0
 29 30  1  0
 30 31  2  0
 31 32  1  0
 13 33  2  0
 33 34  1  0
 34 35  1  0
 34 36  2  0
 33  2  1  0
 11  6  1  0
 31 17  1  0
 28 23  1  0
  1 37  1  0
  1 38  1  0
  1 39  1  0
  7 40  1  0
  7 41  1  0
  8 42  1  0
  8 43  1  0
 10 44  1  0
 10 45  1  0
 11 46  1  0
 11 47  1  0
 14 48  1  0
 18 49  1  0
 24 50  1  0
 24 51  1  0
 25 52  1  0
 25 53  1  0
 27 54  1  0
 27 55  1  0
 28 56  1  0
 28 57  1  0
 29 58  1  0
 30 59  1  0
 35 60  1  0
M  CHG  1  35  -1
M  END
>  <UniqueID>  (20) 
20

>  <SMILES>  (20) 
Cc1c(C(=O)N2CCOCC2)sc(NC(=O)c2cc(S(=O)(=O)N3CCOCC3)ccc2Cl)c1C([NH-])=O

>  <Energy>  (20) 
123.74564440255375

>  <Genealogy>  (20) 
Cc1c(C(=O)N2CCOCC2)sc(NC(=O)c2cc(S(=O)(=O)N3CCOCC3)ccc2Cl)c1C([NH-])=O (protonated)
Cc1c(C(=O)N2CCOCC2)sc(NC(=O)c2cc(S(=O)(=O)N3CCOCC3)ccc2Cl)c1C([NH-])=O (3D coordinates assigned)
Cc1c(C(=O)N2CCOCC2)sc(NC(=O)c2cc(S(=O)(=O)N3CCOCC3)ccc2Cl)c1C([NH-])=O (nonaromatic ring conformer: 123.74564440255375 kcal/mol)

>  <smiles>  (20) 
Cc1c(C(=O)N2CCOCC2)sc(NC(=O)c2cc(S(=O)(=O)N3CCOCC3)ccc2Cl)c1C(N)=O

>  <score_type>  (20) 
oracle

>  <origin>  (20) 
adg

>  <m_score__min__energy>  (20) 
-12.56

>  <m_primary>  (20) 
energy

$$$$
20:0
     RDKit          3D

 58 62  0  0  0  0  0  0  0  0999 V2000
   64.3190   33.8690   52.2610 O   0  0  0  0  0  0  0  0  0  0  0  0
   64.0520   33.6120   51.0590 C   0  0  0  0  0  0  0  0  0  0  0  0
   65.0250   32.8280   50.2200 C   0  0  0  0  0  0  0  0  0  0  0  0
   64.8230   33.0610   48.8240 O   0  0  0  0  0  0  0  0  0  0  0  0
   63.5790   33.3980   48.2800 C   0  0  0  0  0  0  0  0  0  0  0  0
   63.3730   33.3060   46.9020 C   0  0  0  0  0  0  0  0  0  0  0  0
   62.1300   33.6510   46.3580 C   0  0  0  0  0  0  0  0  0  0  0  0
   61.0920   34.1010   47.1880 C   0  0  0  0  0  0  0  0  0  0  0  0
   59.5760   34.6410   46.4860 S   0  0  0  0  0  0  0  0  0  0  0  0
   59.6480   36.1130   46.2020 O   0  0  0  0  0  0  0  0  0  0  0  0
   58.4410   34.3900   47.4360 O   0  0  0  0  0  0  0  0  0  0  0  0
   59.3230   33.7870   45.0030 N   0  0  0  0  0  0  0  0  0  0  0  0
   58.7070   32.4990   45.0030 C   0  0  0  0  0  0  0  0  0  0  0  0
   57.6630   32.2120   44.1140 C   0  0  0  0  0  0  0  0  0  0  0  0
   57.0100   30.9800   44.1760 C   0  0  0  0  0  0  0  0  0  0  0  0
   57.3910   30.0330   45.1330 C   0  0  0  0  0  0  0  0  0  0  0  0
   58.4490   30.3040   46.0210 C   0  0  0  0  0  0  0  0  0  0  0  0
   58.8100   29.3360   47.0770 C   0  0  0  0  0  0  0  0  0  0  0  0
   59.0790   29.7580   48.2330 O   0  0  0  0  0  0  0  0  0  0  0  0
   58.8300   27.9210   46.8180 N   0  0  0  0  0  0  0  0  0  0  0  0
   58.3130   26.9990   47.8380 C   0  0  0  0  0  0  0  0  0  0  0  0
   57.6220   25.8050   47.1730 C   0  0  0  0  0  0  0  0  0  0  0  0
   58.3830   25.3100   46.0190 N   0  0  0  0  0  0  0  0  0  0  0  0
   57.7760   24.3460   45.1400 C   0  0  0  0  0  0  0  0  0  0  0  0
   56.8220   24.7480   44.1900 C   0  0  0  0  0  0  0  0  0  0  0  0
   56.1970   23.8010   43.3690 C   0  0  0  0  0  0  0  0  0  0  0  0
   56.5160   22.4450   43.4930 C   0  0  0  0  0  0  0  0  0  0  0  0
   55.8940   21.5090   42.6880 O   0  0  0  0  0  0  0  0  0  0  0  0
   57.4610   22.0340   44.4330 C   0  0  0  0  0  0  0  0  0  0  0  0
   58.0900   22.9790   45.2530 C   0  0  0  0  0  0  0  0  0  0  0  0
   59.6970   25.8820   45.7150 C   0  0  0  0  0  0  0  0  0  0  0  0
   59.5980   27.4090   45.6740 C   0  0  0  0  0  0  0  0  0  0  0  0
   59.1070   31.5420   45.9440 C   0  0  0  0  0  0  0  0  0  0  0  0
   61.3070   34.2110   48.5660 C   0  0  0  0  0  0  0  0  0  0  0  0
   62.5460   33.8540   49.1140 C   0  0  0  0  0  0  0  0  0  0  0  0
   62.7920   34.0060   50.5120 N   0  0  0  0  0  0  0  0  0  0  0  0
   66.0491   33.1275   50.4874 H   0  0  0  0  0  0  0  0  0  0  0  0
   64.8647   31.7577   50.4169 H   0  0  0  0  0  0  0  0  0  0  0  0
   64.1859   32.9631   46.2451 H   0  0  0  0  0  0  0  0  0  0  0  0
   61.9661   33.5688   45.2734 H   0  0  0  0  0  0  0  0  0  0  0  0
   57.3575   32.9586   43.3661 H   0  0  0  0  0  0  0  0  0  0  0  0
   56.1955   30.7534   43.4722 H   0  0  0  0  0  0  0  0  0  0  0  0
   56.8606   29.0711   45.1917 H   0  0  0  0  0  0  0  0  0  0  0  0
   59.1475   26.6371   48.4566 H   0  0  0  0  0  0  0  0  0  0  0  0
   57.5828   27.5316   48.4650 H   0  0  0  0  0  0  0  0  0  0  0  0
   57.5243   24.9941   47.9098 H   0  0  0  0  0  0  0  0  0  0  0  0
   56.6351   26.1352   46.8165 H   0  0  0  0  0  0  0  0  0  0  0  0
   56.5645   25.8128   44.0905 H   0  0  0  0  0  0  0  0  0  0  0  0
   55.4538   24.1244   42.6253 H   0  0  0  0  0  0  0  0  0  0  0  0
   57.7122   20.9675   44.5302 H   0  0  0  0  0  0  0  0  0  0  0  0
   58.8358   22.6499   45.9916 H   0  0  0  0  0  0  0  0  0  0  0  0
   60.4149   25.5829   46.4930 H   0  0  0  0  0  0  0  0  0  0  0  0
   60.0375   25.5126   44.7364 H   0  0  0  0  0  0  0  0  0  0  0  0
   60.6116   27.8355   45.7021 H   0  0  0  0  0  0  0  0  0  0  0  0
   59.0810   27.7006   44.7479 H   0  0  0  0  0  0  0  0  0  0  0  0
   59.9413   31.7614   46.6265 H   0  0  0  0  0  0  0  0  0  0  0  0
   60.5023   34.5782   49.2200 H   0  0  0  0  0  0  0  0  0  0  0  0
   62.0660   34.4340   51.1330 H   0  0  0  0  0  0  0  0  0  0  0  0
  1  2  2  0
  2  3  1  0
  3  4  1  0
  4  5  1  0
  5  6  2  0
  6  7  1  0
  7  8  2  0
  8  9  1  0
  9 10  2  0
  9 11  2  0
  9 12  1  0
 12 13  1  0
 13 14  2  0
 14 15  1  0
 15 16  2  0
 16 17  1  0
 17 18  1  0
 18 19  2  0
 18 20  1  0
 20 21  1  0
 21 22  1  0
 22 23  1  0
 23 24  1  0
 24 25  2  0
 25 26  1  0
 26 27  2  0
 27 28  1  0
 27 29  1  0
 29 30  2  0
 23 31  1  0
 31 32  1  0
 17 33  2  0
  8 34  1  0
 34 35  2  0
 35 36  1  0
 36  2  1  0
 35  5  1  0
 33 13  1  0
 32 20  1  0
 30 24  1  0
  3 37  1  0
  3 38  1  0
  6 39  1  0
  7 40  1  0
 14 41  1  0
 15 42  1  0
 16 43  1  0
 21 44  1  0
 21 45  1  0
 22 46  1  0
 22 47  1  0
 25 48  1  0
 26 49  1  0
 29 50  1  0
 30 51  1  0
 31 52  1  0
 31 53  1  0
 32 54  1  0
 32 55  1  0
 33 56  1  0
 34 57  1  0
 36 58  1  0
M  CHG  2  12  -1  28  -1
M  END
>  <UniqueID>  (21) 
21

>  <SMILES>  (21) 
O=C1COc2ccc(S(=O)(=O)[N-]c3cccc(C(=O)N4CCN(c5ccc([O-])cc5)CC4)c3)cc2N1

>  <Energy>  (21) 
82.62995595047178

>  <Genealogy>  (21) 
O=C1COc2ccc(S(=O)(=O)[N-]c3cccc(C(=O)N4CCN(c5ccc([O-])cc5)CC4)c3)cc2N1 (protonated)
O=C1COc2ccc(S(=O)(=O)[N-]c3cccc(C(=O)N4CCN(c5ccc([O-])cc5)CC4)c3)cc2N1 (3D coordinates assigned)
O=C1COc2ccc(S(=O)(=O)[N-]c3cccc(C(=O)N4CCN(c5ccc([O-])cc5)CC4)c3)cc2N1 (nonaromatic ring conformer: 82.62995595047178 kcal/mol)

>  <smiles>  (21) 
O=C1COc2ccc(S(=O)(=O)Nc3cccc(C(=O)N4CCN(c5ccc(O)cc5)CC4)c3)cc2N1

>  <score_type>  (21) 
oracle

>  <origin>  (21) 
adg

>  <m_score__min__energy>  (21) 
-12.949999999999999

>  <m_primary>  (21) 
energy

$$$$
21:0
     RDKit          3D

 32 34  0  0  0  0  0  0  0  0999 V2000
   57.0940   20.0870   43.2550 H   0  0  0  0  0  0  0  0  0  0  0  0
   56.6010   20.9450   43.0380 O   0  0  0  0  0  0  0  0  0  0  0  0
   56.6440   22.0460   43.8910 C   0  0  0  0  0  0  0  0  0  0  0  0
   56.3180   23.3250   43.4230 C   0  0  0  0  0  0  0  0  0  0  0  0
   56.0212   23.4663   42.3733 H   0  0  0  0  0  0  0  0  0  0  0  0
   56.3690   24.4220   44.2870 C   0  0  0  0  0  0  0  0  0  0  0  0
   56.0974   25.4216   43.9168 H   0  0  0  0  0  0  0  0  0  0  0  0
   56.7640   24.2580   45.6230 C   0  0  0  0  0  0  0  0  0  0  0  0
   56.7940   25.4430   46.5080 C   0  0  0  0  0  0  0  0  0  0  0  0
   56.6226   25.2932   47.5842 H   0  0  0  0  0  0  0  0  0  0  0  0
   57.0200   26.6960   46.0670 C   0  0  0  0  0  0  0  0  0  0  0  0
   55.9880   27.4610   45.6190 N   0  0  0  0  0  0  0  0  0  0  0  0
   56.1550   28.7340   45.1790 C   0  0  0  0  0  0  0  0  0  0  0  0
   55.1420   29.3650   44.7790 O   0  0  0  0  0  0  0  0  0  0  0  0
   57.4520   29.3100   45.1860 C   0  0  0  0  0  0  0  0  0  0  0  0
   57.7450   30.5680   44.7720 C   0  0  0  0  0  0  0  0  0  0  0  0
   58.2370   31.8060   45.8170 S   0  0  0  0  0  0  0  0  0  0  0  0
   58.4080   32.9980   44.6500 C   0  0  0  0  0  0  0  0  0  0  0  0
   58.7900   34.2490   44.8800 C   0  0  0  0  0  0  0  0  0  0  0  0
   59.0236   34.5731   45.9049 H   0  0  0  0  0  0  0  0  0  0  0  0
   58.8728   34.9610   44.0456 H   0  0  0  0  0  0  0  0  0  0  0  0
   58.0850   32.4600   43.4130 C   0  0  0  0  0  0  0  0  0  0  0  0
   58.1152   33.0366   42.4767 H   0  0  0  0  0  0  0  0  0  0  0  0
   57.7160   31.1080   43.4740 C   0  0  0  0  0  0  0  0  0  0  0  0
   57.4300   30.5235   42.5871 H   0  0  0  0  0  0  0  0  0  0  0  0
   58.4770   28.5370   45.6450 N   0  0  0  0  0  0  0  0  0  0  0  0
   58.3070   27.2630   46.0840 C   0  0  0  0  0  0  0  0  0  0  0  0
   59.3070   26.6150   46.4950 O   0  0  0  0  0  0  0  0  0  0  0  0
   57.0580   22.9630   46.1000 C   0  0  0  0  0  0  0  0  0  0  0  0
   57.3740   22.7490   47.4370 O   0  0  0  0  0  0  0  0  0  0  0  0
   57.0110   21.8690   45.2290 C   0  0  0  0  0  0  0  0  0  0  0  0
   57.2641   20.8643   45.5985 H   0  0  0  0  0  0  0  0  0  0  0  0
  1  2  1  0
  2  3  1  0
  3  4  2  0
  4  5  1  0
  4  6  1  0
  6  7  1  0
  6  8  2  0
  8  9  1  0
  9 10  1  0
  9 11  2  0
 11 12  1  0
 12 13  1  0
 13 14  2  0
 13 15  1  0
 15 16  2  3
 16 17  1  0
 17 18  1  0
 18 19  2  0
 19 20  1  0
 19 21  1  0
 18 22  1  0
 22 23  1  0
 22 24  2  0
 24 25  1  0
 15 26  1  0
 26 27  1  0
 27 28  2  0
  8 29  1  0
 29 30  1  0
 29 31  2  0
 31 32  1  0
 31  3  1  0
 27 11  1  0
 24 16  1  0
M  CHG  3  12  -1  26  -1  30  -1
M  END
>  <UniqueID>  (22) 
22

>  <SMILES>  (22) 
C=c1ccc(=c2[n-]c(=O)/c(=C/c3ccc(O)cc3[O-])[n-]c2=O)s1

>  <Energy>  (22) 
79.59923066844095

>  <Genealogy>  (22) 
C=c1ccc(=c2[n-]c(=O)c(=Cc3ccc(O)cc3[O-])[n-]c2=O)s1 (protonated)
C=c1ccc(=c2[n-]c(=O)/c(=C/c3ccc(O)cc3[O-])[n-]c2=O)s1 (cis-trans isomerization)
C=c1ccc(=c2[n-]c(=O)/c(=C/c3ccc(O)cc3[O-])[n-]c2=O)s1 (3D coordinates assigned)
C=c1ccc(=c2[n-]c(=O)/c(=C/c3ccc(O)cc3[O-])[n-]c2=O)s1 (optimized conformer: 79.59923066844095 kcal/mol)

>  <smiles>  (22) 
C=c1ccc(=c2[nH]c(=O)c(=Cc3ccc(O)cc3O)[nH]c2=O)s1

>  <score_type>  (22) 
oracle

>  <origin>  (22) 
adg

>  <m_score__min__energy>  (22) 
-14.56

>  <m_primary>  (22) 
energy

$$$$
22:0
     RDKit          3D

 50 52  0  0  0  0  0  0  0  0999 V2000
   56.5130   23.8690   43.9680 C   0  0  0  0  0  0  0  0  0  0  0  0
   56.9190   23.5770   45.4190 C   0  0  0  0  0  0  0  0  0  0  0  0
   58.4440   23.6230   45.5560 C   0  0  0  0  0  0  0  0  0  0  0  0
   56.3370   24.5440   46.3500 N   0  0  0  0  0  0  0  0  0  0  0  0
   56.1100   25.9330   46.0840 C   0  0  0  0  0  0  0  0  0  0  0  0
   54.9380   26.3880   46.0010 O   0  0  0  0  0  0  0  0  0  0  0  0
   57.2600   26.8340   45.8960 C   0  0  0  0  0  0  0  0  0  0  0  0
   57.3680   27.6110   44.7370 C   0  0  0  0  0  0  0  0  0  0  0  0
   58.4630   28.4580   44.5630 C   0  0  0  0  0  0  0  0  0  0  0  0
   59.4290   28.5740   45.5660 C   0  0  0  0  0  0  0  0  0  0  0  0
   59.3210   27.8220   46.7490 C   0  0  0  0  0  0  0  0  0  0  0  0
   60.2680   28.0200   47.8750 C   0  0  0  0  0  0  0  0  0  0  0  0
   60.8620   27.0250   48.3680 O   0  0  0  0  0  0  0  0  0  0  0  0
   60.4620   29.2980   48.4900 N   0  0  0  0  0  0  0  0  0  0  0  0
   59.5600   29.9530   49.3860 C   0  0  0  0  0  0  0  0  0  0  0  0
   59.0610   29.3330   50.5380 C   0  0  0  0  0  0  0  0  0  0  0  0
   58.1240   29.9640   51.2940 N   0  0  0  0  0  0  0  0  0  0  0  0
   57.6540   31.1970   50.9510 C   0  0  0  0  0  0  0  0  0  0  0  0
   56.7490   31.8010   51.6630 N   0  0  0  0  0  0  0  0  0  0  0  0
   55.6170   31.2040   52.3220 C   0  0  0  0  0  0  0  0  0  0  0  0
   55.7560   30.4590   53.5080 C   0  0  0  0  0  0  0  0  0  0  0  0
   54.6550   29.8050   54.0610 C   0  0  0  0  0  0  0  0  0  0  0  0
   53.4080   29.8820   53.4380 C   0  0  0  0  0  0  0  0  0  0  0  0
   53.2590   30.6060   52.2480 C   0  0  0  0  0  0  0  0  0  0  0  0
   51.7020   30.6860   51.4290 S   0  0  0  0  0  0  0  0  0  0  0  0
   51.2400   32.3370   51.2190 N   0  0  0  0  0  0  0  0  0  0  0  0
   50.6470   29.9840   52.2390 O   0  0  0  0  0  0  0  0  0  0  0  0
   51.8120   30.0270   50.0830 O   0  0  0  0  0  0  0  0  0  0  0  0
   54.3670   31.2570   51.6920 C   0  0  0  0  0  0  0  0  0  0  0  0
   58.1490   31.8220   49.8520 N   0  0  0  0  0  0  0  0  0  0  0  0
   59.0780   31.2240   49.0640 C   0  0  0  0  0  0  0  0  0  0  0  0
   58.2380   26.9400   46.8940 C   0  0  0  0  0  0  0  0  0  0  0  0
   55.6200   24.5113   43.9593 H   0  0  0  0  0  0  0  0  0  0  0  0
   57.3384   24.3817   43.4524 H   0  0  0  0  0  0  0  0  0  0  0  0
   56.2896   22.9234   43.4524 H   0  0  0  0  0  0  0  0  0  0  0  0
   56.5401   22.5750   45.6688 H   0  0  0  0  0  0  0  0  0  0  0  0
   58.7163   23.6312   46.6217 H   0  0  0  0  0  0  0  0  0  0  0  0
   58.8825   22.7377   45.0723 H   0  0  0  0  0  0  0  0  0  0  0  0
   58.8283   24.5331   45.0723 H   0  0  0  0  0  0  0  0  0  0  0  0
   56.5889   27.5539   43.9626 H   0  0  0  0  0  0  0  0  0  0  0  0
   58.5662   29.0364   43.6331 H   0  0  0  0  0  0  0  0  0  0  0  0
   60.2794   29.2581   45.4291 H   0  0  0  0  0  0  0  0  0  0  0  0
   59.4264   28.3376   50.8306 H   0  0  0  0  0  0  0  0  0  0  0  0
   56.7371   30.3922   54.0009 H   0  0  0  0  0  0  0  0  0  0  0  0
   54.7695   29.2273   54.9901 H   0  0  0  0  0  0  0  0  0  0  0  0
   52.5402   29.3729   53.8827 H   0  0  0  0  0  0  0  0  0  0  0  0
   50.2540   32.3320   50.8770 H   0  0  0  0  0  0  0  0  0  0  0  0
   54.2547   31.8156   50.7511 H   0  0  0  0  0  0  0  0  0  0  0  0
   59.4527   31.7418   48.1688 H   0  0  0  0  0  0  0  0  0  0  0  0
   58.1563   26.3247   47.8022 H   0  0  0  0  0  0  0  0  0  0  0  0
  1  2  1  0
  2  3  1  0
  2  4  1  0
  4  5  1  0
  5  6  2  0
  5  7  1  0
  7  8  2  0
  8  9  1  0
  9 10  2  0
 10 11  1  0
 11 12  1  0
 12 13  2  0
 12 14  1  0
 14 15  1  0
 15 16  1  0
 16 17  2  0
 17 18  1  0
 18 19  2  3
 19 20  1  0
 20 21  2  0
 21 22  1  0
 22 23  2  0
 23 24  1  0
 24 25  1  0
 25 26  1  0
 25 27  2  0
 25 28  2  0
 24 29  2  0
 18 30  1  0
 30 31  1  0
 11 32  2  0
 32  7  1  0
 31 15  2  0
 29 20  1  0
  1 33  1  0
  1 34  1  0
  1 35  1  0
  2 36  1  0
  3 37  1  0
  3 38  1  0
  3 39  1  0
  8 40  1  0
  9 41  1  0
 10 42  1  0
 16 43  1  0
 21 44  1  0
 22 45  1  0
 23 46  1  0
 26 47  1  0
 29 48  1  0
 31 49  1  0
 32 50  1  0
M  CHG  4   4  -1  14  -1  26  -1  30  -1
M  END
>  <UniqueID>  (23) 
23

>  <SMILES>  (23) 
CC(C)[N-]C(=O)c1cccc(C(=O)[N-]c2cnc(=Nc3cccc(S([NH-])(=O)=O)c3)[n-]c2)c1

>  <Energy>  (23) 
67.10045272018458

>  <Genealogy>  (23) 
CC(C)[N-]C(=O)c1cccc(C(=O)[N-]c2cnc(=Nc3cccc(S([NH-])(=O)=O)c3)[n-]c2)c1 (protonated)
CC(C)[N-]C(=O)c1cccc(C(=O)[N-]c2cnc(=Nc3cccc(S([NH-])(=O)=O)c3)[n-]c2)c1 (3D coordinates assigned)
CC(C)[N-]C(=O)c1cccc(C(=O)[N-]c2cnc(=Nc3cccc(S([NH-])(=O)=O)c3)[n-]c2)c1 (optimized conformer: 67.10045272018458 kcal/mol)

>  <smiles>  (23) 
CC(C)NC(=O)c1cccc(C(=O)Nc2cnc(=Nc3cccc(S(N)(=O)=O)c3)[nH]c2)c1

>  <score_type>  (23) 
oracle

>  <origin>  (23) 
adg

>  <m_score__min__energy>  (23) 
-16.879999999999999

>  <m_primary>  (23) 
energy

$$$$
23:0
     RDKit          3D

 49 51  0  0  0  0  0  0  0  0999 V2000
   57.4720   26.2430   45.4600 C   0  0  0  0  0  0  0  0  0  0  0  0
   56.9340   27.2830   46.0950 C   0  0  0  0  0  0  0  0  0  0  0  0
   57.2300   28.6920   45.7450 C   0  0  0  0  0  0  0  0  0  0  0  0
   58.4680   29.2260   46.1300 C   0  0  0  0  0  0  0  0  0  0  0  0
   58.8150   30.5470   45.8170 C   0  0  0  0  0  0  0  0  0  0  0  0
   60.0980   31.0410   46.2300 N   0  0  0  0  0  0  0  0  0  0  0  0
   60.2430   32.0100   47.2810 C   0  0  0  0  0  0  0  0  0  0  0  0
   59.2310   32.6460   47.6840 O   0  0  0  0  0  0  0  0  0  0  0  0
   61.5710   32.2920   47.8770 C   0  0  0  0  0  0  0  0  0  0  0  0
   62.5360   33.0290   47.1710 C   0  0  0  0  0  0  0  0  0  0  0  0
   63.7870   33.2850   47.7370 C   0  0  0  0  0  0  0  0  0  0  0  0
   64.1000   32.8130   49.0210 C   0  0  0  0  0  0  0  0  0  0  0  0
   65.4570   33.0970   49.6050 C   0  0  0  0  0  0  0  0  0  0  0  0
   63.1500   32.0440   49.7230 C   0  0  0  0  0  0  0  0  0  0  0  0
   63.4560   31.5120   51.0200 N   0  0  0  0  0  0  0  0  0  0  0  0
   63.4060   30.0660   51.2310 C   0  0  0  0  0  0  0  0  0  0  0  0
   64.3210   29.6910   52.4010 C   0  0  0  0  0  0  0  0  0  0  0  0
   64.0170   30.4660   53.5450 O   0  0  0  0  0  0  0  0  0  0  0  0
   64.3010   31.8300   53.2920 C   0  0  0  0  0  0  0  0  0  0  0  0
   63.3870   32.3820   52.1940 C   0  0  0  0  0  0  0  0  0  0  0  0
   61.8930   31.7940   49.1510 C   0  0  0  0  0  0  0  0  0  0  0  0
   57.8870   31.3700   45.1390 C   0  0  0  0  0  0  0  0  0  0  0  0
   58.1780   32.8180   44.8470 C   0  0  0  0  0  0  0  0  0  0  0  0
   56.6690   30.8220   44.7120 C   0  0  0  0  0  0  0  0  0  0  0  0
   56.3410   29.4930   44.9980 C   0  0  0  0  0  0  0  0  0  0  0  0
   55.1450   28.9800   44.5100 O   0  0  0  0  0  0  0  0  0  0  0  0
   57.2136   25.2184   45.7655 H   0  0  0  0  0  0  0  0  0  0  0  0
   58.1747   26.4088   44.6301 H   0  0  0  0  0  0  0  0  0  0  0  0
   56.2347   27.0859   46.9209 H   0  0  0  0  0  0  0  0  0  0  0  0
   59.1785   28.5975   46.6869 H   0  0  0  0  0  0  0  0  0  0  0  0
   60.9130   30.8640   45.6000 H   0  0  0  0  0  0  0  0  0  0  0  0
   62.3047   33.4076   46.1644 H   0  0  0  0  0  0  0  0  0  0  0  0
   64.5335   33.8617   47.1713 H   0  0  0  0  0  0  0  0  0  0  0  0
   65.3937   33.0837   50.7031 H   0  0  0  0  0  0  0  0  0  0  0  0
   66.1688   32.3284   49.2695 H   0  0  0  0  0  0  0  0  0  0  0  0
   65.8008   34.0866   49.2695 H   0  0  0  0  0  0  0  0  0  0  0  0
   62.3736   29.7641   51.4610 H   0  0  0  0  0  0  0  0  0  0  0  0
   63.7436   29.5497   50.3202 H   0  0  0  0  0  0  0  0  0  0  0  0
   64.1831   28.6261   52.6397 H   0  0  0  0  0  0  0  0  0  0  0  0
   65.3636   29.8862   52.1098 H   0  0  0  0  0  0  0  0  0  0  0  0
   64.1453   32.4079   54.2150 H   0  0  0  0  0  0  0  0  0  0  0  0
   65.3453   31.9162   52.9574 H   0  0  0  0  0  0  0  0  0  0  0  0
   62.3514   32.4188   52.5629 H   0  0  0  0  0  0  0  0  0  0  0  0
   63.7142   33.3956   51.9193 H   0  0  0  0  0  0  0  0  0  0  0  0
   61.1512   31.2013   49.7064 H   0  0  0  0  0  0  0  0  0  0  0  0
   58.2885   33.3679   45.7933 H   0  0  0  0  0  0  0  0  0  0  0  0
   59.1096   32.8951   44.2672 H   0  0  0  0  0  0  0  0  0  0  0  0
   57.3485   33.2490   44.2672 H   0  0  0  0  0  0  0  0  0  0  0  0
   55.9623   31.4456   44.1447 H   0  0  0  0  0  0  0  0  0  0  0  0
  1  2  2  0
  2  3  1  0
  3  4  2  0
  4  5  1  0
  5  6  1  0
  6  7  1  0
  7  8  2  0
  7  9  1  0
  9 10  2  0
 10 11  1  0
 11 12  2  0
 12 13  1  0
 12 14  1  0
 14 15  1  0
 15 16  1  0
 16 17  1  0
 17 18  1  0
 18 19  1  0
 19 20  1  0
 14 21  2  0
  5 22  2  0
 22 23  1  0
 22 24  1  0
 24 25  2  0
 25 26  1  0
 25  3  1  0
 21  9  1  0
 20 15  1  0
  1 27  1  0
  1 28  1  0
  2 29  1  0
  4 30  1  0
  6 31  1  0
 10 32  1  0
 11 33  1  0
 13 34  1  0
 13 35  1  0
 13 36  1  0
 16 37  1  0
 16 38  1  0
 17 39  1  0
 17 40  1  0
 19 41  1  0
 19 42  1  0
 20 43  1  0
 20 44  1  0
 21 45  1  0
 23 46  1  0
 23 47  1  0
 23 48  1  0
 24 49  1  0
M  CHG  1  26  -1
M  END
>  <UniqueID>  (24) 
24

>  <SMILES>  (24) 
C=Cc1cc(NC(=O)c2ccc(C)c(N3CCOCC3)c2)c(C)cc1[O-]

>  <Energy>  (24) 
67.33105971266885

>  <Genealogy>  (24) 
C=Cc1cc(NC(=O)c2ccc(C)c(N3CCOCC3)c2)c(C)cc1[O-] (protonated)
C=Cc1cc(NC(=O)c2ccc(C)c(N3CCOCC3)c2)c(C)cc1[O-] (3D coordinates assigned)
C=Cc1cc(NC(=O)c2ccc(C)c(N3CCOCC3)c2)c(C)cc1[O-] (nonaromatic ring conformer: 67.33105971266885 kcal/mol)

>  <smiles>  (24) 
C=Cc1cc(NC(=O)c2ccc(C)c(N3CCOCC3)c2)c(C)cc1O

>  <score_type>  (24) 
oracle

>  <origin>  (24) 
adg

>  <m_score__min__energy>  (24) 
-10.130000000000001

>  <m_primary>  (24) 
energy

$$$$
24:0
     RDKit          3D

 42 43  0  0  0  0  0  0  0  0999 V2000
   62.0500   33.0850   49.1490 C   0  0  0  0  0  0  0  0  0  0  0  0
   60.8150   33.1760   48.2450 C   0  0  0  0  0  0  0  0  0  0  0  0
   60.1730   34.5710   48.3410 C   0  0  0  0  0  0  0  0  0  0  0  0
   58.8860   34.6160   47.5060 C   0  0  0  0  0  0  0  0  0  0  0  0
   59.0560   33.9650   46.1960 N   0  0  0  0  0  0  0  0  0  0  0  0
   57.8900   33.7810   45.3620 C   0  0  0  0  0  0  0  0  0  0  0  0
   56.8520   34.4630   45.5880 O   0  0  0  0  0  0  0  0  0  0  0  0
   57.8510   32.7890   44.2350 C   0  0  0  0  0  0  0  0  0  0  0  0
   57.5770   31.1350   44.8570 S   0  0  0  0  0  0  0  0  0  0  0  0
   56.1890   30.6760   44.5090 O   0  0  0  0  0  0  0  0  0  0  0  0
   57.7320   31.1340   46.3520 O   0  0  0  0  0  0  0  0  0  0  0  0
   58.7570   30.0090   44.1340 C   0  0  0  0  0  0  0  0  0  0  0  0
   58.7870   28.7120   44.8940 C   0  0  0  0  0  0  0  0  0  0  0  0
   59.9940   28.2330   45.4300 C   0  0  0  0  0  0  0  0  0  0  0  0
   60.0140   27.0460   46.1680 C   0  0  0  0  0  0  0  0  0  0  0  0
   58.8320   26.3310   46.3800 C   0  0  0  0  0  0  0  0  0  0  0  0
   57.6220   26.8050   45.8570 C   0  0  0  0  0  0  0  0  0  0  0  0
   56.4040   26.0740   46.0820 C   0  0  0  0  0  0  0  0  0  0  0  0
   55.4240   25.4850   46.2630 N   0  0  0  0  0  0  0  0  0  0  0  0
   57.6000   27.9950   45.1180 C   0  0  0  0  0  0  0  0  0  0  0  0
   60.4160   33.6430   45.7340 C   0  0  0  0  0  0  0  0  0  0  0  0
   61.1650   32.7990   46.7810 C   0  0  0  0  0  0  0  0  0  0  0  0
   61.7355   33.1082   50.2028 H   0  0  0  0  0  0  0  0  0  0  0  0
   62.5843   32.1451   48.9464 H   0  0  0  0  0  0  0  0  0  0  0  0
   62.7163   33.9365   48.9464 H   0  0  0  0  0  0  0  0  0  0  0  0
   60.0725   32.4450   48.5975 H   0  0  0  0  0  0  0  0  0  0  0  0
   59.9330   34.7899   49.3920 H   0  0  0  0  0  0  0  0  0  0  0  0
   60.8796   35.3206   47.9554 H   0  0  0  0  0  0  0  0  0  0  0  0
   58.0863   34.1003   48.0578 H   0  0  0  0  0  0  0  0  0  0  0  0
   58.6312   35.6716   47.3306 H   0  0  0  0  0  0  0  0  0  0  0  0
   57.0350   33.0558   43.5473 H   0  0  0  0  0  0  0  0  0  0  0  0
   58.8169   32.8133   43.7093 H   0  0  0  0  0  0  0  0  0  0  0  0
   58.4733   29.8096   43.0901 H   0  0  0  0  0  0  0  0  0  0  0  0
   59.7560   30.4675   44.1765 H   0  0  0  0  0  0  0  0  0  0  0  0
   60.9264   28.7938   45.2684 H   0  0  0  0  0  0  0  0  0  0  0  0
   60.9623   26.6738   46.5829 H   0  0  0  0  0  0  0  0  0  0  0  0
   58.8519   25.3953   46.9580 H   0  0  0  0  0  0  0  0  0  0  0  0
   56.6490   28.3695   44.7114 H   0  0  0  0  0  0  0  0  0  0  0  0
   60.3523   33.0766   44.7932 H   0  0  0  0  0  0  0  0  0  0  0  0
   60.9670   34.5825   45.5797 H   0  0  0  0  0  0  0  0  0  0  0  0
   60.9090   31.7409   46.6232 H   0  0  0  0  0  0  0  0  0  0  0  0
   62.2392   32.9930   46.6448 H   0  0  0  0  0  0  0  0  0  0  0  0
  1  2  1  0
  2  3  1  0
  3  4  1  0
  4  5  1  0
  5  6  1  0
  6  7  2  0
  6  8  1  0
  8  9  1  0
  9 10  2  0
  9 11  2  0
  9 12  1  0
 12 13  1  0
 13 14  2  0
 14 15  1  0
 15 16  2  0
 16 17  1  0
 17 18  1  0
 18 19  3  0
 17 20  2  0
  5 21  1  0
 21 22  1  0
 22  2  1  0
 20 13  1  0
  1 23  1  0
  1 24  1  0
  1 25  1  0
  2 26  1  0
  3 27  1  0
  3 28  1  0
  4 29  1  0
  4 30  1  0
  8 31  1  0
  8 32  1  0
 12 33  1  0
 12 34  1  0
 14 35  1  0
 15 36  1  0
 16 37  1  0
 20 38  1  0
 21 39  1  0
 21 40  1  0
 22 41  1  0
 22 42  1  0
M  END
>  <UniqueID>  (25) 
25

>  <SMILES>  (25) 
CC1CCN(C(=O)CS(=O)(=O)Cc2cccc(C#N)c2)CC1

>  <Energy>  (25) 
32.421452174010874

>  <Genealogy>  (25) 
CC1CCN(C(=O)CS(=O)(=O)Cc2cccc(C#N)c2)CC1 (3D coordinates assigned)
CC1CCN(C(=O)CS(=O)(=O)Cc2cccc(C#N)c2)CC1 (nonaromatic ring conformer: 32.421452174010874 kcal/mol)

>  <smiles>  (25) 
CC1CCN(C(=O)CS(=O)(=O)Cc2cccc(C#N)c2)CC1

>  <score_type>  (25) 
oracle

>  <origin>  (25) 
adg

>  <m_score__min__energy>  (25) 
-8.5700000000000003

>  <m_primary>  (25) 
energy

$$$$
25:0
     RDKit          3D

 71 75  0  0  0  0  0  0  0  0999 V2000
   61.4950   33.4640   51.7280 O   0  0  0  0  0  0  0  0  0  0  0  0
   60.5780   32.9040   51.0690 C   0  0  0  0  0  0  0  0  0  0  0  0
   59.6700   31.9460   51.7910 C   0  0  0  0  0  0  0  0  0  0  0  0
   60.2040   30.5820   51.7380 N   0  0  0  0  0  0  0  0  0  0  0  0
   59.9900   29.6910   50.6270 C   0  0  0  0  0  0  0  0  0  0  0  0
   60.9290   28.6850   50.3630 C   0  0  0  0  0  0  0  0  0  0  0  0
   60.7440   27.8000   49.2960 C   0  0  0  0  0  0  0  0  0  0  0  0
   59.6160   27.9070   48.4650 C   0  0  0  0  0  0  0  0  0  0  0  0
   59.4160   26.9500   47.3490 C   0  0  0  0  0  0  0  0  0  0  0  0
   59.2620   25.7230   47.5990 O   0  0  0  0  0  0  0  0  0  0  0  0
   59.3320   27.3980   45.9870 N   0  0  0  0  0  0  0  0  0  0  0  0
   60.4360   28.1670   45.3880 C   0  0  0  0  0  0  0  0  0  0  0  0
   59.9000   29.3220   44.5140 C   0  0  0  0  0  0  0  0  0  0  0  0
   58.4500   29.1830   44.3050 N   0  0  0  0  0  0  0  0  0  0  0  0
   57.5430   30.1050   44.9430 C   0  0  0  0  0  0  0  0  0  0  0  0
   56.5480   29.6570   45.5740 O   0  0  0  0  0  0  0  0  0  0  0  0
   57.7720   31.5660   44.9040 C   0  0  0  0  0  0  0  0  0  0  0  0
   58.3410   32.1730   43.7700 C   0  0  0  0  0  0  0  0  0  0  0  0
   58.5730   33.5530   43.7500 C   0  0  0  0  0  0  0  0  0  0  0  0
   58.2370   34.3370   44.8600 C   0  0  0  0  0  0  0  0  0  0  0  0
   57.6620   33.7430   45.9870 C   0  0  0  0  0  0  0  0  0  0  0  0
   57.4240   32.3640   46.0090 C   0  0  0  0  0  0  0  0  0  0  0  0
   57.9870   27.8390   43.9520 C   0  0  0  0  0  0  0  0  0  0  0  0
   58.2460   26.8910   45.1350 C   0  0  0  0  0  0  0  0  0  0  0  0
   58.6680   28.9080   48.7380 C   0  0  0  0  0  0  0  0  0  0  0  0
   58.8510   29.7910   49.8050 C   0  0  0  0  0  0  0  0  0  0  0  0
   60.4520   33.1710   49.6530 N   0  0  0  0  0  0  0  0  0  0  0  0
   61.2910   34.2130   49.0480 C   0  0  0  0  0  0  0  0  0  0  0  0
   61.1830   34.1880   47.5150 C   0  0  0  0  0  0  0  0  0  0  0  0
   61.2250   32.8070   46.9800 N   0  0  0  0  0  0  0  0  0  0  0  0
   62.5610   32.1860   47.1540 C   0  0  0  0  0  0  0  0  0  0  0  0
   62.7840   31.5930   48.5510 C   0  0  0  0  0  0  0  0  0  0  0  0
   63.9160   32.5770   48.7970 C   0  0  0  0  0  0  0  0  0  0  0  0
   63.6690   33.2070   47.4370 C   0  0  0  0  0  0  0  0  0  0  0  0
   60.1390   31.9470   47.5320 C   0  0  0  0  0  0  0  0  0  0  0  0
   59.4610   32.5020   48.7980 C   0  0  0  0  0  0  0  0  0  0  0  0
   59.5799   32.2574   52.8422 H   0  0  0  0  0  0  0  0  0  0  0  0
   58.6847   31.9580   51.3021 H   0  0  0  0  0  0  0  0  0  0  0  0
   60.7730   30.2350   52.5450 H   0  0  0  0  0  0  0  0  0  0  0  0
   61.8201   28.5905   51.0010 H   0  0  0  0  0  0  0  0  0  0  0  0
   61.4884   27.0129   49.1056 H   0  0  0  0  0  0  0  0  0  0  0  0
   61.0602   28.5846   46.1917 H   0  0  0  0  0  0  0  0  0  0  0  0
   61.0261   27.4919   44.7508 H   0  0  0  0  0  0  0  0  0  0  0  0
   60.1028   30.2795   45.0160 H   0  0  0  0  0  0  0  0  0  0  0  0
   60.4039   29.2908   43.5367 H   0  0  0  0  0  0  0  0  0  0  0  0
   58.6048   31.5605   42.8952 H   0  0  0  0  0  0  0  0  0  0  0  0
   59.0199   34.0221   42.8611 H   0  0  0  0  0  0  0  0  0  0  0  0
   58.4255   35.4206   44.8453 H   0  0  0  0  0  0  0  0  0  0  0  0
   57.3962   34.3602   46.8579 H   0  0  0  0  0  0  0  0  0  0  0  0
   56.9627   31.9021   46.8944 H   0  0  0  0  0  0  0  0  0  0  0  0
   56.9098   27.8666   43.7311 H   0  0  0  0  0  0  0  0  0  0  0  0
   58.5295   27.4812   43.0645 H   0  0  0  0  0  0  0  0  0  0  0  0
   57.3281   26.8050   45.7350 H   0  0  0  0  0  0  0  0  0  0  0  0
   58.5404   25.9079   44.7390 H   0  0  0  0  0  0  0  0  0  0  0  0
   57.7728   28.9971   48.1051 H   0  0  0  0  0  0  0  0  0  0  0  0
   58.1002   30.5698   50.0044 H   0  0  0  0  0  0  0  0  0  0  0  0
   60.9633   35.1967   49.4154 H   0  0  0  0  0  0  0  0  0  0  0  0
   62.3381   34.0255   49.3281 H   0  0  0  0  0  0  0  0  0  0  0  0
   60.2327   34.6556   47.2179 H   0  0  0  0  0  0  0  0  0  0  0  0
   62.0419   34.7388   47.1040 H   0  0  0  0  0  0  0  0  0  0  0  0
   62.5907   31.5472   46.2590 H   0  0  0  0  0  0  0  0  0  0  0  0
   61.9283   31.7155   49.2313 H   0  0  0  0  0  0  0  0  0  0  0  0
   62.9523   30.5129   48.6740 H   0  0  0  0  0  0  0  0  0  0  0  0
   63.7431   33.2569   49.6443 H   0  0  0  0  0  0  0  0  0  0  0  0
   64.9186   32.2140   49.0672 H   0  0  0  0  0  0  0  0  0  0  0  0
   63.3171   34.2482   47.4833 H   0  0  0  0  0  0  0  0  0  0  0  0
   64.4994   33.3336   46.7268 H   0  0  0  0  0  0  0  0  0  0  0  0
   59.3691   31.8264   46.7556 H   0  0  0  0  0  0  0  0  0  0  0  0
   60.6117   30.9974   47.8231 H   0  0  0  0  0  0  0  0  0  0  0  0
   58.6848   33.2252   48.5071 H   0  0  0  0  0  0  0  0  0  0  0  0
   59.0084   31.6697   49.3569 H   0  0  0  0  0  0  0  0  0  0  0  0
  1  2  2  0
  2  3  1  0
  3  4  1  0
  4  5  1  0
  5  6  2  0
  6  7  1  0
  7  8  2  0
  8  9  1  0
  9 10  2  0
  9 11  1  0
 11 12  1  0
 12 13  1  0
 13 14  1  0
 14 15  1  0
 15 16  2  0
 15 17  1  0
 17 18  2  0
 18 19  1  0
 19 20  2  0
 20 21  1  0
 21 22  2  0
 14 23  1  0
 23 24  1  0
  8 25  1  0
 25 26  2  0
  2 27  1  0
 27 28  1  0
 28 29  1  0
 29 30  1  0
 30 31  1  0
 31 32  1  0
 32 33  1  0
 33 34  1  0
 30 35  1  0
 35 36  1  0
 26  5  1  0
 36 27  1  0
 24 11  1  0
 34 31  1  0
 22 17  1  0
  3 37  1  0
  3 38  1  0
  4 39  1  0
  6 40  1  0
  7 41  1  0
 12 42  1  0
 12 43  1  0
 13 44  1  0
 13 45  1  0
 18 46  1  0
 19 47  1  0
 20 48  1  0
 21 49  1  0
 22 50  1  0
 23 51  1  0
 23 52  1  0
 24 53  1  0
 24 54  1  0
 25 55  1  0
 26 56  1  0
 28 57  1  0
 28 58  1  0
 29 59  1  0
 29 60  1  0
 31 61  1  0
 32 62  1  0
 32 63  1  0
 33 64  1  0
 33 65  1  0
 34 66  1  0
 34 67  1  0
 35 68  1  0
 35 69  1  0
 36 70  1  0
 36 71  1  0
M  END
>  <UniqueID>  (26) 
26

>  <SMILES>  (26) 
O=C(CNc1ccc(C(=O)N2CCN(C(=O)c3ccccc3)CC2)cc1)N1CCN(C2CCC2)CC1

>  <Energy>  (26) 
156.5879973792768

>  <Genealogy>  (26) 
O=C(CNc1ccc(C(=O)N2CCN(C(=O)c3ccccc3)CC2)cc1)N1CCN(C2CCC2)CC1 (3D coordinates assigned)
O=C(CNc1ccc(C(=O)N2CCN(C(=O)c3ccccc3)CC2)cc1)N1CCN(C2CCC2)CC1 (nonaromatic ring conformer: 156.5879973792768 kcal/mol)

>  <smiles>  (26) 
O=C(CNc1ccc(C(=O)N2CCN(C(=O)c3ccccc3)CC2)cc1)N1CCN(C2CCC2)CC1

>  <score_type>  (26) 
oracle

>  <origin>  (26) 
adg

>  <m_score__min__energy>  (26) 
-10.119999999999999

>  <m_primary>  (26) 
energy

$$$$
26:0
     RDKit          3D

 44 47  0  0  1  0  0  0  0  0999 V2000
   57.5310   30.1150   46.7040 O   0  0  0  0  0  0  0  0  0  0  0  0
   58.0470   30.4620   45.5860 C   0  0  0  0  0  0  0  0  0  0  0  0
   58.2730   29.4260   44.6600 N   0  0  0  0  0  0  0  0  0  0  0  0
   57.9250   28.0920   45.0120 C   0  0  0  0  0  0  0  0  0  0  0  0
   58.8730   27.0720   45.0470 C   0  0  0  0  0  0  0  0  0  0  0  0
   58.4270   25.8180   45.4010 C   0  0  0  0  0  0  0  0  0  0  0  0
   57.1130   25.5460   45.7140 C   0  0  0  0  0  0  0  0  0  0  0  0
   56.1680   26.5550   45.6820 C   0  0  0  0  0  0  0  0  0  0  0  0
   54.8380   26.3400   45.9870 O   0  0  0  0  0  0  0  0  0  0  0  0
   56.6110   27.8250   45.3250 C   0  0  0  0  0  0  0  0  0  0  0  0
   58.3640   31.8650   45.3340 C   0  0  0  0  0  0  0  0  0  0  0  0
   58.4960   32.3210   44.0440 C   0  0  0  0  0  0  0  0  0  0  0  0
   58.7960   33.6510   43.8670 C   0  0  0  0  0  0  0  0  0  0  0  0
   58.9610   34.5110   44.9600 C   0  0  0  0  0  0  0  0  0  0  0  0
   58.8330   34.0720   46.2600 C   0  0  0  0  0  0  0  0  0  0  0  0
   59.0090   34.9670   47.4430 C   0  0  0  0  0  0  0  0  0  0  0  0
   60.2980   34.9930   47.9960 N   0  0  0  0  0  0  0  0  0  0  0  0
   60.9360   34.0520   48.4820 C   0  0  0  0  0  0  0  0  0  0  0  0
   60.5130   33.4930   49.6410 N   0  0  0  0  0  0  0  0  0  0  0  0
   61.1570   32.4750   50.2390 C   0  0  0  0  0  0  0  0  0  0  0  0
   62.2820   31.9720   49.6770 N   0  0  0  0  0  0  0  0  0  0  0  0
   62.7180   32.5270   48.5100 C   0  0  0  0  0  0  0  0  0  0  0  0
   63.7750   32.1940   47.7890 N   0  0  0  0  0  0  0  0  0  0  0  0
   63.8050   33.0030   46.7210 C   0  0  0  0  0  0  0  0  0  0  0  0
   62.7170   33.8910   46.7650 C   0  0  0  0  0  0  0  0  0  0  0  0
   62.0560   33.5660   47.9010 C   0  0  0  0  0  0  0  0  0  0  0  0
   58.5280   32.7130   46.3960 C   0  0  0  0  0  0  0  0  0  0  0  0
   58.6890   29.6280   43.7300 H   0  0  0  0  0  0  0  0  0  0  0  0
   59.9291   27.2595   44.8031 H   0  0  0  0  0  0  0  0  0  0  0  0
   59.1548   24.9939   45.4355 H   0  0  0  0  0  0  0  0  0  0  0  0
   56.8150   24.5237   45.9900 H   0  0  0  0  0  0  0  0  0  0  0  0
   54.3820   26.7170   46.8180 H   0  0  0  0  0  0  0  0  0  0  0  0
   55.8824   28.6484   45.2915 H   0  0  0  0  0  0  0  0  0  0  0  0
   58.3664   31.6465   43.1848 H   0  0  0  0  0  0  0  0  0  0  0  0
   58.9086   34.0474   42.8471 H   0  0  0  0  0  0  0  0  0  0  0  0
   59.2000   35.5687   44.7752 H   0  0  0  0  0  0  0  0  0  0  0  0
   58.7524   35.9910   47.1340 H   0  0  0  0  0  0  0  0  0  0  0  0
   58.3527   34.5620   48.2274 H   0  0  0  0  0  0  0  0  0  0  0  0
   59.6610   33.8450   50.1020 H   0  0  0  0  0  0  0  0  0  0  0  0
   60.7722   32.0532   51.1793 H   0  0  0  0  0  0  0  0  0  0  0  0
   64.4720   31.4300   48.0120 H   0  0  0  0  0  0  0  0  0  0  0  0
   64.5674   32.9759   45.9285 H   0  0  0  0  0  0  0  0  0  0  0  0
   62.4596   34.6756   46.0383 H   0  0  0  0  0  0  0  0  0  0  0  0
   58.4139   32.3042   47.4108 H   0  0  0  0  0  0  0  0  0  0  0  0
  1  2  2  0
  2  3  1  0
  3  4  1  0
  4  5  2  0
  5  6  1  0
  6  7  2  0
  7  8  1  0
  8  9  1  0
  8 10  2  0
  2 11  1  0
 11 12  2  0
 12 13  1  0
 13 14  2  0
 14 15  1  0
 15 16  1  0
 16 17  1  0
 17 18  2  0
 18 19  1  0
 19 20  1  0
 20 21  2  0
 21 22  1  0
 22 23  1  0
 23 24  1  0
 24 25  2  0
 25 26  1  0
 15 27  2  0
 10  4  1  0
 27 11  1  0
 26 18  1  0
 26 22  2  0
  3 28  1  0
  5 29  1  0
  6 30  1  0
  7 31  1  0
  9 32  1  0
 10 33  1  0
 12 34  1  0
 13 35  1  0
 14 36  1  0
 16 37  1  0
 16 38  1  0
 19 39  1  0
 20 40  1  0
 23 41  1  0
 24 42  1  0
 25 43  1  0
 27 44  1  0
M  END
>  <smiles>  (27) 
O=C(Nc1cccc(O)c1)c1cccc(CN=c2[nH]cnc3[nH]ccc23)c1

>  <score_type>  (27) 
oracle

>  <origin>  (27) 
adg

>  <m_score__min__energy>  (27) 
-10.01

>  <m_primary>  (27) 
energy

$$$$
27:0
     RDKit          3D

 61 64  0  0  1  0  0  0  0  0999 V2000
   59.8320   30.6150   45.9410 C   0  0  0  0  0  0  0  0  0  0  0  0
   58.4960   30.1500   45.4280 C   0  0  0  0  0  0  0  0  0  0  0  0
   58.1570   28.8500   45.8370 C   0  0  0  0  0  0  0  0  0  0  0  0
   57.0300   28.2550   45.3580 C   0  0  0  0  0  0  0  0  0  0  0  0
   56.5800   26.8970   45.6380 C   0  0  0  0  0  0  0  0  0  0  0  0
   55.5230   26.5800   46.1880 O   0  0  0  0  0  0  0  0  0  0  0  0
   57.5110   25.8620   45.2010 N   0  0  0  0  0  0  0  0  0  0  0  0
   58.4640   25.2530   46.0890 C   0  0  0  0  0  0  0  0  0  0  0  0
   58.8060   23.8450   45.6290 C   0  0  0  0  0  0  0  0  0  0  0  0
   57.7670   23.2160   44.8470 N   0  0  0  0  0  0  0  0  0  0  0  0
   57.3410   21.8540   45.0190 C   0  0  0  0  0  0  0  0  0  0  0  0
   57.1190   23.9870   43.8250 C   0  0  0  0  0  0  0  0  0  0  0  0
   56.3090   23.4570   43.0300 O   0  0  0  0  0  0  0  0  0  0  0  0
   57.4750   25.4300   43.7820 C   0  0  0  0  0  0  0  0  0  0  0  0
   56.2550   28.9790   44.4740 C   0  0  0  0  0  0  0  0  0  0  0  0
   56.5850   30.2420   44.0800 C   0  0  0  0  0  0  0  0  0  0  0  0
   57.7560   30.8920   44.5610 C   0  0  0  0  0  0  0  0  0  0  0  0
   57.8810   32.2360   44.1290 C   0  0  0  0  0  0  0  0  0  0  0  0
   58.1800   33.3370   44.7100 C   0  0  0  0  0  0  0  0  0  0  0  0
   58.9980   33.5700   45.8700 C   0  0  0  0  0  0  0  0  0  0  0  0
   60.3170   33.8910   45.9240 C   0  0  0  0  0  0  0  0  0  0  0  0
   60.9990   34.1930   47.0420 N   0  0  0  0  0  0  0  0  0  0  0  0
   60.3320   34.1760   48.1870 C   0  0  0  0  0  0  0  0  0  0  0  0
   60.8820   34.4450   49.3010 N   0  0  0  0  0  0  0  0  0  0  0  0
   61.0510   33.5430   50.3790 C   0  0  0  0  0  0  0  0  0  0  0  0
   61.9050   33.7440   51.2810 O   0  0  0  0  0  0  0  0  0  0  0  0
   60.1650   32.3670   50.3780 C   0  0  0  0  0  0  0  0  0  0  0  0
   60.4900   31.2180   49.6830 C   0  0  0  0  0  0  0  0  0  0  0  0
   59.7070   30.0910   49.6540 C   0  0  0  0  0  0  0  0  0  0  0  0
   60.1630   28.6440   48.7570 Cl  0  0  0  0  0  0  0  0  0  0  0  0
   58.5170   30.1050   50.3610 C   0  0  0  0  0  0  0  0  0  0  0  0
   58.1450   31.2260   51.0680 C   0  0  0  0  0  0  0  0  0  0  0  0
   56.6460   31.2720   51.9780 Cl  0  0  0  0  0  0  0  0  0  0  0  0
   58.9680   32.3450   51.0720 C   0  0  0  0  0  0  0  0  0  0  0  0
   59.0170   33.8630   48.2040 N   0  0  0  0  0  0  0  0  0  0  0  0
   58.3250   33.5580   47.0860 C   0  0  0  0  0  0  0  0  0  0  0  0
   57.0940   33.2750   47.2400 N   0  0  0  0  0  0  0  0  0  0  0  0
   59.8236   30.6121   47.0410 H   0  0  0  0  0  0  0  0  0  0  0  0
   60.6197   29.9382   45.5785 H   0  0  0  0  0  0  0  0  0  0  0  0
   60.0293   31.6347   45.5785 H   0  0  0  0  0  0  0  0  0  0  0  0
   58.8033   28.3114   46.5457 H   0  0  0  0  0  0  0  0  0  0  0  0
   59.3812   25.8600   46.1052 H   0  0  0  0  0  0  0  0  0  0  0  0
   58.0237   25.1983   47.0956 H   0  0  0  0  0  0  0  0  0  0  0  0
   59.7190   23.8927   45.0173 H   0  0  0  0  0  0  0  0  0  0  0  0
   58.9363   23.2358   46.5356 H   0  0  0  0  0  0  0  0  0  0  0  0
   57.2694   21.6250   46.0925 H   0  0  0  0  0  0  0  0  0  0  0  0
   56.3566   21.7155   44.5481 H   0  0  0  0  0  0  0  0  0  0  0  0
   58.0710   21.1792   44.5481 H   0  0  0  0  0  0  0  0  0  0  0  0
   58.4587   25.5711   43.3103 H   0  0  0  0  0  0  0  0  0  0  0  0
   56.7544   26.0147   43.1914 H   0  0  0  0  0  0  0  0  0  0  0  0
   55.3388   28.5207   44.0733 H   0  0  0  0  0  0  0  0  0  0  0  0
   55.9298   30.7716   43.3728 H   0  0  0  0  0  0  0  0  0  0  0  0
   57.6754   32.3610   43.0557 H   0  0  0  0  0  0  0  0  0  0  0  0
   57.7467   34.2394   44.2541 H   0  0  0  0  0  0  0  0  0  0  0  0
   60.8724   33.9049   44.9746 H   0  0  0  0  0  0  0  0  0  0  0  0
   62.0070   34.4340   47.0710 H   0  0  0  0  0  0  0  0  0  0  0  0
   61.4340   31.2056   49.1184 H   0  0  0  0  0  0  0  0  0  0  0  0
   57.8668   29.2178   50.3578 H   0  0  0  0  0  0  0  0  0  0  0  0
   58.6608   33.2352   51.6406 H   0  0  0  0  0  0  0  0  0  0  0  0
   58.5130   33.8600   49.1080 H   0  0  0  0  0  0  0  0  0  0  0  0
   56.2880   33.8600   47.4610 H   0  0  0  0  0  0  0  0  0  0  0  0
  1  2  1  0
  2  3  2  0
  3  4  1  0
  4  5  1  0
  5  6  2  0
  5  7  1  0
  7  8  1  0
  8  9  1  0
  9 10  1  0
 10 11  1  0
 10 12  1  0
 12 13  2  0
 12 14  1  0
  4 15  2  0
 15 16  1  0
 16 17  2  0
 17 18  1  0
 18 19  2  0
 19 20  1  0
 20 21  2  0
 21 22  1  0
 22 23  1  0
 23 24  2  0
 24 25  1  0
 25 26  2  0
 25 27  1  0
 27 28  2  0
 28 29  1  0
 29 30  1  0
 29 31  2  0
 31 32  1  0
 32 33  1  0
 32 34  2  0
 23 35  1  0
 35 36  1  0
 36 37  2  3
 17  2  1  0
 36 20  1  0
 14  7  1  0
 34 27  1  0
  1 38  1  0
  1 39  1  0
  1 40  1  0
  3 41  1  0
  8 42  1  0
  8 43  1  0
  9 44  1  0
  9 45  1  0
 11 46  1  0
 11 47  1  0
 11 48  1  0
 14 49  1  0
 14 50  1  0
 15 51  1  0
 16 52  1  0
 18 53  1  0
 19 54  1  0
 21 55  1  0
 22 56  1  0
 28 57  1  0
 31 58  1  0
 34 59  1  0
 35 60  1  0
 37 61  1  0
M  END
>  <smiles>  (28) 
Cc1cc(C(=O)N2CCN(C)C(=O)C2)ccc1C=Cc1c[nH]c(=NC(=O)c2cc(Cl)cc(Cl)c2)[nH]c1=N

>  <score_type>  (28) 
oracle

>  <origin>  (28) 
adg

>  <m_score__min__energy>  (28) 
-11.289999999999999

>  <m_primary>  (28) 
energy

$$$$
28:0
     RDKit          3D

 40 42  0  0  0  0  0  0  0  0999 V2000
   58.4630   34.2390   44.5140 C   0  0  0  0  0  0  0  0  0  0  0  0
   58.4760   32.7620   44.7780 C   0  0  0  0  0  0  0  0  0  0  0  0
   57.9400   31.8700   43.8380 C   0  0  0  0  0  0  0  0  0  0  0  0
   57.9190   30.4980   44.0990 C   0  0  0  0  0  0  0  0  0  0  0  0
   58.4230   30.0000   45.3120 C   0  0  0  0  0  0  0  0  0  0  0  0
   58.4020   28.5830   45.5810 N   0  0  0  0  0  0  0  0  0  0  0  0
   59.5770   27.8890   45.6930 C   0  0  0  0  0  0  0  0  0  0  0  0
   60.6860   28.4710   45.5490 O   0  0  0  0  0  0  0  0  0  0  0  0
   59.5630   26.5570   45.9470 N   0  0  0  0  0  0  0  0  0  0  0  0
   58.4050   25.8700   46.1010 C   0  0  0  0  0  0  0  0  0  0  0  0
   58.4690   24.5040   46.3750 O   0  0  0  0  0  0  0  0  0  0  0  0
   57.1800   26.5500   45.9950 C   0  0  0  0  0  0  0  0  0  0  0  0
   55.8960   25.8380   46.1490 C   0  0  0  0  0  0  0  0  0  0  0  0
   54.8540   26.3310   45.6430 O   0  0  0  0  0  0  0  0  0  0  0  0
   55.8090   24.5950   46.8540 N   0  0  0  0  0  0  0  0  0  0  0  0
   55.1510   23.4060   46.3250 C   0  0  0  0  0  0  0  0  0  0  0  0
   56.0250   22.7750   45.2880 C   0  0  0  0  0  0  0  0  0  0  0  0
   55.7790   22.9830   43.9230 C   0  0  0  0  0  0  0  0  0  0  0  0
   56.6320   22.4070   42.9780 C   0  0  0  0  0  0  0  0  0  0  0  0
   57.7200   21.6430   43.4000 C   0  0  0  0  0  0  0  0  0  0  0  0
   57.9440   21.4680   44.7680 C   0  0  0  0  0  0  0  0  0  0  0  0
   57.1030   22.0360   45.6730 N   0  0  0  0  0  0  0  0  0  0  0  0
   57.2050   27.9280   45.7240 C   0  0  0  0  0  0  0  0  0  0  0  0
   56.1180   28.5610   45.6140 O   0  0  0  0  0  0  0  0  0  0  0  0
   58.9430   30.8940   46.2600 C   0  0  0  0  0  0  0  0  0  0  0  0
   58.9630   32.2670   45.9980 C   0  0  0  0  0  0  0  0  0  0  0  0
   58.4582   34.7824   45.4704 H   0  0  0  0  0  0  0  0  0  0  0  0
   59.3587   34.5166   43.9390 H   0  0  0  0  0  0  0  0  0  0  0  0
   57.5625   34.5008   43.9390 H   0  0  0  0  0  0  0  0  0  0  0  0
   57.5339   32.2528   42.8901 H   0  0  0  0  0  0  0  0  0  0  0  0
   57.5061   29.8046   43.3516 H   0  0  0  0  0  0  0  0  0  0  0  0
   57.6460   23.9340   46.5280 H   0  0  0  0  0  0  0  0  0  0  0  0
   54.9746   22.6902   47.1414 H   0  0  0  0  0  0  0  0  0  0  0  0
   54.1891   23.6887   45.8725 H   0  0  0  0  0  0  0  0  0  0  0  0
   54.9230   23.5935   43.5996 H   0  0  0  0  0  0  0  0  0  0  0  0
   56.4460   22.5557   41.9041 H   0  0  0  0  0  0  0  0  0  0  0  0
   58.3949   21.1829   42.6632 H   0  0  0  0  0  0  0  0  0  0  0  0
   58.8008   20.8706   45.1129 H   0  0  0  0  0  0  0  0  0  0  0  0
   59.3368   30.5128   47.2138 H   0  0  0  0  0  0  0  0  0  0  0  0
   59.3621   32.9625   46.7510 H   0  0  0  0  0  0  0  0  0  0  0  0
  1  2  1  0
  2  3  2  0
  3  4  1  0
  4  5  2  0
  5  6  1  0
  6  7  1  0
  7  8  2  0
  7  9  1  0
  9 10  1  0
 10 11  1  0
 10 12  2  0
 12 13  1  0
 13 14  2  0
 13 15  1  0
 15 16  1  0
 16 17  1  0
 17 18  2  0
 18 19  1  0
 19 20  2  0
 20 21  1  0
 21 22  2  0
 12 23  1  0
 23 24  2  0
  5 25  1  0
 25 26  2  0
 26  2  1  0
 23  6  1  0
 22 17  1  0
  1 27  1  0
  1 28  1  0
  1 29  1  0
  3 30  1  0
  4 31  1  0
 11 32  1  0
 16 33  1  0
 16 34  1  0
 18 35  1  0
 19 36  1  0
 20 37  1  0
 21 38  1  0
 25 39  1  0
 26 40  1  0
M  CHG  2   9  -1  15  -1
M  END
>  <UniqueID>  (29) 
27

>  <SMILES>  (29) 
Cc1ccc(-n2c(=O)[n-]c(O)c(C(=O)[N-]Cc3ccccn3)c2=O)cc1

>  <Energy>  (29) 
59.02424473069284

>  <Genealogy>  (29) 
Cc1ccc(-n2c(=O)[n-]c(O)c(C(=O)[N-]Cc3ccccn3)c2=O)cc1 (protonated)
Cc1ccc(-n2c(=O)[n-]c(O)c(C(=O)[N-]Cc3ccccn3)c2=O)cc1 (3D coordinates assigned)
Cc1ccc(-n2c(=O)[n-]c(O)c(C(=O)[N-]Cc3ccccn3)c2=O)cc1 (optimized conformer: 59.02424473069284 kcal/mol)

>  <smiles>  (29) 
Cc1ccc(-n2c(=O)[nH]c(O)c(C(=O)NCc3ccccn3)c2=O)cc1

>  <score_type>  (29) 
oracle

>  <origin>  (29) 
adg

>  <m_score__min__energy>  (29) 
-10.84

>  <m_primary>  (29) 
energy

$$$$
29:0
     RDKit          3D

 46 48  0  0  0  0  0  0  0  0999 V2000
   61.7590   29.4490   51.1750 C   0  0  0  0  0  0  0  0  0  0  0  0
   61.3260   30.2730   50.0970 O   0  0  0  0  0  0  0  0  0  0  0  0
   60.6630   29.8000   48.9550 C   0  0  0  0  0  0  0  0  0  0  0  0
   61.0830   30.1220   47.6510 C   0  0  0  0  0  0  0  0  0  0  0  0
   60.3880   29.6270   46.5450 C   0  0  0  0  0  0  0  0  0  0  0  0
   59.2760   28.7910   46.7220 C   0  0  0  0  0  0  0  0  0  0  0  0
   58.4990   28.2950   45.5320 C   0  0  0  0  0  0  0  0  0  0  0  0
   57.7790   29.4060   44.9130 N   0  0  0  0  0  0  0  0  0  0  0  0
   58.3300   30.5570   44.4820 C   0  0  0  0  0  0  0  0  0  0  0  0
   57.3300   31.4380   44.1080 C   0  0  0  0  0  0  0  0  0  0  0  0
   57.5000   32.8960   43.7870 C   0  0  2  0  0  0  0  0  0  0  0  0
   58.7770   33.1360   43.2610 O   0  0  0  0  0  0  0  0  0  0  0  0
   57.2740   33.7100   44.9880 N   0  0  0  0  0  0  0  0  0  0  0  0
   58.0920   33.6170   46.1710 C   0  0  0  0  0  0  0  0  0  0  0  0
   57.7770   32.6920   47.1810 C   0  0  0  0  0  0  0  0  0  0  0  0
   58.5650   32.5990   48.3300 C   0  0  0  0  0  0  0  0  0  0  0  0
   59.6790   33.4220   48.4810 C   0  0  0  0  0  0  0  0  0  0  0  0
   60.0060   34.3480   47.4880 C   0  0  0  0  0  0  0  0  0  0  0  0
   59.2170   34.4580   46.3290 C   0  0  0  0  0  0  0  0  0  0  0  0
   59.5790   35.4770   45.2830 C   0  0  0  0  0  0  0  0  0  0  0  0
   56.1200   30.8060   44.3370 C   0  0  0  0  0  0  0  0  0  0  0  0
   56.4430   29.5620   44.8360 C   0  0  0  0  0  0  0  0  0  0  0  0
   55.5200   28.6060   45.2440 O   0  0  0  0  0  0  0  0  0  0  0  0
   58.8470   28.4840   48.0210 C   0  0  0  0  0  0  0  0  0  0  0  0
   59.5400   28.9820   49.1280 C   0  0  0  0  0  0  0  0  0  0  0  0
   61.5053   29.9317   52.1303 H   0  0  0  0  0  0  0  0  0  0  0  0
   61.2580   28.4716   51.1136 H   0  0  0  0  0  0  0  0  0  0  0  0
   62.8481   29.3072   51.1136 H   0  0  0  0  0  0  0  0  0  0  0  0
   61.9622   30.7661   47.5021 H   0  0  0  0  0  0  0  0  0  0  0  0
   60.7148   29.8945   45.5293 H   0  0  0  0  0  0  0  0  0  0  0  0
   59.1929   27.8563   44.7998 H   0  0  0  0  0  0  0  0  0  0  0  0
   57.7773   27.5330   45.8614 H   0  0  0  0  0  0  0  0  0  0  0  0
   59.4091   30.7650   44.4345 H   0  0  0  0  0  0  0  0  0  0  0  0
   56.7556   33.1790   43.0282 H   0  0  0  0  0  0  0  0  0  0  0  0
   58.8690   32.5490   42.4670 H   0  0  0  0  0  0  0  0  0  0  0  0
   56.3630   34.2160   45.0530 H   0  0  0  0  0  0  0  0  0  0  0  0
   56.9020   32.0355   47.0654 H   0  0  0  0  0  0  0  0  0  0  0  0
   58.3060   31.8752   49.1168 H   0  0  0  0  0  0  0  0  0  0  0  0
   60.3021   33.3423   49.3840 H   0  0  0  0  0  0  0  0  0  0  0  0
   60.8864   34.9955   47.6132 H   0  0  0  0  0  0  0  0  0  0  0  0
   59.9086   36.4048   45.7735 H   0  0  0  0  0  0  0  0  0  0  0  0
   60.3929   35.0850   44.6554 H   0  0  0  0  0  0  0  0  0  0  0  0
   58.7002   35.6863   44.6554 H   0  0  0  0  0  0  0  0  0  0  0  0
   55.1129   31.2109   44.1585 H   0  0  0  0  0  0  0  0  0  0  0  0
   57.9614   27.8486   48.1696 H   0  0  0  0  0  0  0  0  0  0  0  0
   59.2003   28.7292   50.1432 H   0  0  0  0  0  0  0  0  0  0  0  0
  1  2  1  0
  2  3  1  0
  3  4  2  0
  4  5  1  0
  5  6  2  0
  6  7  1  0
  7  8  1  0
  8  9  1  0
  9 10  2  0
 10 11  1  0
 11 12  1  0
 11 13  1  0
 13 14  1  0
 14 15  2  0
 15 16  1  0
 16 17  2  0
 17 18  1  0
 18 19  2  0
 19 20  1  0
 10 21  1  0
 21 22  2  0
 22 23  1  0
  6 24  1  0
 24 25  2  0
 25  3  1  0
 22  8  1  0
 19 14  1  0
  1 26  1  0
  1 27  1  0
  1 28  1  0
  4 29  1  0
  5 30  1  0
  7 31  1  0
  7 32  1  0
  9 33  1  0
 11 34  1  6
 12 35  1  0
 13 36  1  0
 15 37  1  0
 16 38  1  0
 17 39  1  0
 18 40  1  0
 20 41  1  0
 20 42  1  0
 20 43  1  0
 21 44  1  0
 24 45  1  0
 25 46  1  0
M  CHG  1  23  -1
M  END
>  <UniqueID>  (30) 
28

>  <SMILES>  (30) 
COc1ccc(Cn2cc([C@H](O)Nc3ccccc3C)cc2[O-])cc1

>  <Energy>  (30) 
71.02444866947654

>  <Genealogy>  (30) 
COc1ccc(Cn2cc(C(O)Nc3ccccc3C)cc2[O-])cc1 (protonated)
COc1ccc(Cn2cc([C@H](O)Nc3ccccc3C)cc2[O-])cc1 (chirality)
COc1ccc(Cn2cc([C@H](O)Nc3ccccc3C)cc2[O-])cc1 (3D coordinates assigned)
COc1ccc(Cn2cc([C@H](O)Nc3ccccc3C)cc2[O-])cc1 (optimized conformer: 71.02444866947654 kcal/mol)

>  <smiles>  (30) 
COc1ccc(Cn2cc(C(O)Nc3ccccc3C)cc2O)cc1

>  <score_type>  (30) 
oracle

>  <origin>  (30) 
adg

>  <m_score__min__energy>  (30) 
-11.16

>  <m_primary>  (30) 
energy

$$$$
30:0
     RDKit          3D

 59 62  0  0  0  0  0  0  0  0999 V2000
   59.2140   30.1770   54.4750 C   0  0  0  0  0  0  0  0  0  0  0  0
   58.6290   31.5850   54.3860 C   0  0  0  0  0  0  0  0  0  0  0  0
   57.9110   31.8370   53.0830 C   0  0  0  0  0  0  0  0  0  0  0  0
   56.6600   32.0040   53.0880 O   0  0  0  0  0  0  0  0  0  0  0  0
   58.6300   31.9190   51.8340 N   0  0  0  0  0  0  0  0  0  0  0  0
   60.0410   32.3320   51.7750 C   0  0  0  0  0  0  0  0  0  0  0  0
   60.8260   31.3790   50.8680 C   0  0  0  0  0  0  0  0  0  0  0  0
   60.0930   31.0870   49.6270 N   0  0  0  0  0  0  0  0  0  0  0  0
   60.7460   30.3180   48.6010 C   0  0  0  0  0  0  0  0  0  0  0  0
   61.9750   30.4990   48.3860 O   0  0  0  0  0  0  0  0  0  0  0  0
   60.0140   29.3050   47.8040 C   0  0  0  0  0  0  0  0  0  0  0  0
   60.0880   27.9400   48.1240 C   0  0  0  0  0  0  0  0  0  0  0  0
   59.4240   26.9930   47.3380 C   0  0  0  0  0  0  0  0  0  0  0  0
   58.6790   27.3990   46.2270 C   0  0  0  0  0  0  0  0  0  0  0  0
   58.5810   28.7560   45.9030 C   0  0  0  0  0  0  0  0  0  0  0  0
   57.8290   29.1520   44.7460 N   0  0  0  0  0  0  0  0  0  0  0  0
   56.5700   29.8280   44.8110 C   0  0  0  0  0  0  0  0  0  0  0  0
   55.5500   29.2070   45.2090 O   0  0  0  0  0  0  0  0  0  0  0  0
   56.4840   31.2200   44.4850 N   0  0  0  0  0  0  0  0  0  0  0  0
   57.3300   32.1220   44.8770 C   0  0  0  0  0  0  0  0  0  0  0  0
   57.7950   33.0780   44.0450 N   0  0  0  0  0  0  0  0  0  0  0  0
   58.5450   33.9970   44.7050 C   0  0  0  0  0  0  0  0  0  0  0  0
   58.6770   33.7720   46.0720 C   0  0  0  0  0  0  0  0  0  0  0  0
   59.2430   34.7400   47.0600 C   0  0  0  0  0  0  0  0  0  0  0  0
   60.5890   34.2540   47.5240 C   0  0  0  0  0  0  0  0  0  0  0  0
   61.5350   33.7940   46.5910 C   0  0  0  0  0  0  0  0  0  0  0  0
   62.8120   33.4120   47.0120 C   0  0  0  0  0  0  0  0  0  0  0  0
   63.1570   33.4900   48.3640 C   0  0  0  0  0  0  0  0  0  0  0  0
   62.2270   33.9550   49.2960 C   0  0  0  0  0  0  0  0  0  0  0  0
   60.9480   34.3400   48.8790 C   0  0  0  0  0  0  0  0  0  0  0  0
   57.8190   32.3800   46.4730 S   0  0  0  0  0  0  0  0  0  0  0  0
   59.2750   29.7020   46.6780 C   0  0  0  0  0  0  0  0  0  0  0  0
   58.8160   31.7600   49.3550 C   0  0  0  0  0  0  0  0  0  0  0  0
   57.8990   31.6710   50.5800 C   0  0  0  0  0  0  0  0  0  0  0  0
   59.3313   29.8948   55.5317 H   0  0  0  0  0  0  0  0  0  0  0  0
   58.5366   29.4665   53.9787 H   0  0  0  0  0  0  0  0  0  0  0  0
   60.1954   30.1557   53.9787 H   0  0  0  0  0  0  0  0  0  0  0  0
   57.9164   31.7227   55.2126 H   0  0  0  0  0  0  0  0  0  0  0  0
   59.4658   32.2964   54.4468 H   0  0  0  0  0  0  0  0  0  0  0  0
   60.1054   33.3539   51.3730 H   0  0  0  0  0  0  0  0  0  0  0  0
   60.4694   32.3030   52.7877 H   0  0  0  0  0  0  0  0  0  0  0  0
   61.7903   31.8424   50.6125 H   0  0  0  0  0  0  0  0  0  0  0  0
   60.9762   30.4335   51.4098 H   0  0  0  0  0  0  0  0  0  0  0  0
   60.6714   27.6137   48.9976 H   0  0  0  0  0  0  0  0  0  0  0  0
   59.4881   25.9253   47.5947 H   0  0  0  0  0  0  0  0  0  0  0  0
   58.1682   26.6487   45.6056 H   0  0  0  0  0  0  0  0  0  0  0  0
   59.0126   34.8540   44.1981 H   0  0  0  0  0  0  0  0  0  0  0  0
   59.3530   35.7262   46.5853 H   0  0  0  0  0  0  0  0  0  0  0  0
   58.5654   34.8216   47.9227 H   0  0  0  0  0  0  0  0  0  0  0  0
   61.2690   33.7345   45.5253 H   0  0  0  0  0  0  0  0  0  0  0  0
   63.5466   33.0494   46.2779 H   0  0  0  0  0  0  0  0  0  0  0  0
   64.1611   33.1851   48.6939 H   0  0  0  0  0  0  0  0  0  0  0  0
   62.5002   34.0188   50.3596 H   0  0  0  0  0  0  0  0  0  0  0  0
   60.2206   34.7116   49.6157 H   0  0  0  0  0  0  0  0  0  0  0  0
   59.2386   30.7654   46.3989 H   0  0  0  0  0  0  0  0  0  0  0  0
   59.0057   32.8176   49.1192 H   0  0  0  0  0  0  0  0  0  0  0  0
   58.3251   31.2673   48.5028 H   0  0  0  0  0  0  0  0  0  0  0  0
   57.0995   32.4200   50.4806 H   0  0  0  0  0  0  0  0  0  0  0  0
   57.4860   30.6524   50.6226 H   0  0  0  0  0  0  0  0  0  0  0  0
  1  2  1  0
  2  3  1  0
  3  4  2  0
  3  5  1  0
  5  6  1  0
  6  7  1  0
  7  8  1  0
  8  9  1  0
  9 10  2  0
  9 11  1  0
 11 12  2  0
 12 13  1  0
 13 14  2  0
 14 15  1  0
 15 16  1  0
 16 17  1  0
 17 18  2  0
 17 19  1  0
 19 20  2  3
 20 21  1  0
 21 22  1  0
 22 23  2  0
 23 24  1  0
 24 25  1  0
 25 26  2  0
 26 27  1  0
 27 28  2  0
 28 29  1  0
 29 30  2  0
 23 31  1  0
 15 32  2  0
  8 33  1  0
 33 34  1  0
 34  5  1  0
 32 11  1  0
 31 20  1  0
 30 25  1  0
  1 35  1  0
  1 36  1  0
  1 37  1  0
  2 38  1  0
  2 39  1  0
  6 40  1  0
  6 41  1  0
  7 42  1  0
  7 43  1  0
 12 44  1  0
 13 45  1  0
 14 46  1  0
 22 47  1  0
 24 48  1  0
 24 49  1  0
 26 50  1  0
 27 51  1  0
 28 52  1  0
 29 53  1  0
 30 54  1  0
 32 55  1  0
 33 56  1  0
 33 57  1  0
 34 58  1  0
 34 59  1  0
M  CHG  2  16  -1  21  -1
M  END
>  <UniqueID>  (31) 
29

>  <SMILES>  (31) 
CCC(=O)N1CCN(C(=O)c2cccc([N-]C(=O)N=c3[n-]cc(Cc4ccccc4)s3)c2)CC1

>  <Energy>  (31) 
102.95827515525909

>  <Genealogy>  (31) 
CCC(=O)N1CCN(C(=O)c2cccc([N-]C(=O)N=c3[n-]cc(Cc4ccccc4)s3)c2)CC1 (protonated)
CCC(=O)N1CCN(C(=O)c2cccc([N-]C(=O)N=c3[n-]cc(Cc4ccccc4)s3)c2)CC1 (3D coordinates assigned)
CCC(=O)N1CCN(C(=O)c2cccc([N-]C(=O)N=c3[n-]cc(Cc4ccccc4)s3)c2)CC1 (nonaromatic ring conformer: 102.95827515525909 kcal/mol)

>  <smiles>  (31) 
CCC(=O)N1CCN(C(=O)c2cccc(NC(=O)N=c3[nH]cc(Cc4ccccc4)s3)c2)CC1

>  <score_type>  (31) 
oracle

>  <origin>  (31) 
adg

>  <m_score__min__energy>  (31) 
-12.18

>  <m_primary>  (31) 
energy

$$$$
31:0
     RDKit          3D

 22 23  0  0  0  0  0  0  0  0999 V2000
   57.4978   32.0419   40.6141 H   0  0  0  0  0  0  0  0  0  0  0  0
   57.8550   32.3330   41.6130 C   0  0  0  0  0  0  0  0  0  0  0  0
   58.4707   33.2363   41.7353 H   0  0  0  0  0  0  0  0  0  0  0  0
   57.5430   31.5940   42.6710 C   0  0  0  0  0  0  0  0  0  0  0  0
   57.9440   31.8870   43.9270 N   0  0  0  0  0  0  0  0  0  0  0  0
   57.4880   30.9730   44.8250 C   0  0  0  0  0  0  0  0  0  0  0  0
   57.7510   31.0730   46.0530 O   0  0  0  0  0  0  0  0  0  0  0  0
   56.7210   29.9340   44.2890 C   0  0  0  0  0  0  0  0  0  0  0  0
   56.1440   28.9460   44.9920 C   0  0  0  0  0  0  0  0  0  0  0  0
   55.0586   28.9998   45.1623 H   0  0  0  0  0  0  0  0  0  0  0  0
   56.8780   27.7890   45.5520 C   0  0  0  0  0  0  0  0  0  0  0  0
   58.2820   27.8020   45.6560 C   0  0  0  0  0  0  0  0  0  0  0  0
   58.8490   28.6719   45.2929 H   0  0  0  0  0  0  0  0  0  0  0  0
   58.9600   26.7160   46.2180 C   0  0  0  0  0  0  0  0  0  0  0  0
   60.8650   26.7410   46.3440 Br  0  0  0  0  0  0  0  0  0  0  0  0
   58.2430   25.6170   46.6990 C   0  0  0  0  0  0  0  0  0  0  0  0
   58.7774   24.7602   47.1353 H   0  0  0  0  0  0  0  0  0  0  0  0
   56.8480   25.6060   46.6260 C   0  0  0  0  0  0  0  0  0  0  0  0
   56.2859   24.7435   47.0134 H   0  0  0  0  0  0  0  0  0  0  0  0
   56.1630   26.6880   46.0620 C   0  0  0  0  0  0  0  0  0  0  0  0
   54.7740   26.6590   46.0040 O   0  0  0  0  0  0  0  0  0  0  0  0
   56.6070   30.1970   42.6230 S   0  0  0  0  0  0  0  0  0  0  0  0
  1  2  1  0
  2  3  1  0
  2  4  2  0
  4  5  1  0
  5  6  1  0
  6  7  2  0
  6  8  1  0
  8  9  2  0
  9 10  1  0
  9 11  1  0
 11 12  2  0
 12 13  1  0
 12 14  1  0
 14 15  1  0
 14 16  2  0
 16 17  1  0
 16 18  1  0
 18 19  1  0
 18 20  2  0
 20 21  1  0
  8 22  1  0
 22  4  1  0
 20 11  1  0
M  CHG  2   5  -1  21  -1
M  END
>  <UniqueID>  (32) 
30

>  <SMILES>  (32) 
C=c1[n-]c(=O)/c(=C/c2cc(Br)ccc2[O-])s1

>  <Energy>  (32) 
59.179080426916904

>  <Genealogy>  (32) 
C=c1[n-]c(=O)c(=Cc2cc(Br)ccc2[O-])s1 (protonated)
C=c1[n-]c(=O)/c(=C/c2cc(Br)ccc2[O-])s1 (cis-trans isomerization)
C=c1[n-]c(=O)/c(=C/c2cc(Br)ccc2[O-])s1 (3D coordinates assigned)
C=c1[n-]c(=O)/c(=C/c2cc(Br)ccc2[O-])s1 (optimized conformer: 59.179080426916904 kcal/mol)

>  <smiles>  (32) 
C=c1[nH]c(=O)c(=Cc2cc(Br)ccc2O)s1

>  <score_type>  (32) 
oracle

>  <origin>  (32) 
adg

>  <m_score__min__energy>  (32) 
-11.27

>  <m_primary>  (32) 
energy

$$$$
32:0
     RDKit          3D

 60 63  0  0  0  0  0  0  0  0999 V2000
   59.9610   33.7910   49.8050 C   0  0  0  0  0  0  0  0  0  0  0  0
   59.3340   33.3000   48.5400 C   0  0  0  0  0  0  0  0  0  0  0  0
   58.5600   31.8010   48.3940 S   0  0  0  0  0  0  0  0  0  0  0  0
   58.1710   32.0100   46.7780 C   0  0  0  0  0  0  0  0  0  0  0  0
   57.4930   31.1400   45.9920 N   0  0  0  0  0  0  0  0  0  0  0  0
   57.2560   31.4750   44.6910 C   0  0  0  0  0  0  0  0  0  0  0  0
   56.4590   30.5570   43.8160 C   0  0  0  0  0  0  0  0  0  0  0  0
   55.8550   29.3980   44.6140 C   0  0  0  0  0  0  0  0  0  0  0  0
   56.8880   28.4430   45.0100 N   0  0  0  0  0  0  0  0  0  0  0  0
   56.6530   27.3370   45.8910 C   0  0  0  0  0  0  0  0  0  0  0  0
   55.7200   26.5210   45.6570 O   0  0  0  0  0  0  0  0  0  0  0  0
   57.5590   27.1020   47.0580 C   0  0  0  0  0  0  0  0  0  0  0  0
   58.4020   28.2690   47.3120 N   0  0  0  0  0  0  0  0  0  0  0  0
   59.6230   28.1820   48.0680 C   0  0  0  0  0  0  0  0  0  0  0  0
   59.9220   27.1010   48.6440 O   0  0  0  0  0  0  0  0  0  0  0  0
   60.5290   29.3480   48.1950 C   0  0  0  0  0  0  0  0  0  0  0  0
   61.0080   29.7650   49.4490 C   0  0  0  0  0  0  0  0  0  0  0  0
   61.8530   30.8750   49.5530 C   0  0  0  0  0  0  0  0  0  0  0  0
   62.2360   31.5830   48.4080 C   0  0  0  0  0  0  0  0  0  0  0  0
   63.2920   32.9940   48.5460 S   0  0  0  0  0  0  0  0  0  0  0  0
   64.2020   33.0420   47.3490 O   0  0  0  0  0  0  0  0  0  0  0  0
   62.4480   34.2380   48.5380 O   0  0  0  0  0  0  0  0  0  0  0  0
   64.2650   32.9750   49.9970 N   0  0  0  0  0  0  0  0  0  0  0  0
   63.9910   34.1240   50.8560 C   0  0  0  0  0  0  0  0  0  0  0  0
   65.2360   34.3240   51.7030 C   0  0  0  0  0  0  0  0  0  0  0  0
   66.3610   33.6530   50.9280 C   0  0  0  0  0  0  0  0  0  0  0  0
   65.6960   33.0370   49.7040 C   0  0  0  0  0  0  0  0  0  0  0  0
   61.7490   31.1830   47.1580 C   0  0  0  0  0  0  0  0  0  0  0  0
   60.9010   30.0760   47.0510 C   0  0  0  0  0  0  0  0  0  0  0  0
   57.6840   32.6790   44.2030 N   0  0  0  0  0  0  0  0  0  0  0  0
   58.3640   33.5660   44.9830 C   0  0  0  0  0  0  0  0  0  0  0  0
   58.7380   34.6640   44.4940 O   0  0  0  0  0  0  0  0  0  0  0  0
   58.6250   33.2310   46.3180 C   0  0  0  0  0  0  0  0  0  0  0  0
   59.2960   33.9780   47.3100 C   0  0  0  0  0  0  0  0  0  0  0  0
   59.8840   35.3430   47.0810 C   0  0  0  0  0  0  0  0  0  0  0  0
   59.4238   33.3703   50.6678 H   0  0  0  0  0  0  0  0  0  0  0  0
   61.0140   33.4749   49.8390 H   0  0  0  0  0  0  0  0  0  0  0  0
   59.9065   34.8891   49.8390 H   0  0  0  0  0  0  0  0  0  0  0  0
   55.6452   31.1291   43.3466 H   0  0  0  0  0  0  0  0  0  0  0  0
   57.1335   30.1357   43.0560 H   0  0  0  0  0  0  0  0  0  0  0  0
   55.3685   29.7970   45.5163 H   0  0  0  0  0  0  0  0  0  0  0  0
   55.1215   28.8791   43.9794 H   0  0  0  0  0  0  0  0  0  0  0  0
   56.9496   26.8976   47.9507 H   0  0  0  0  0  0  0  0  0  0  0  0
   58.2087   26.2443   46.8293 H   0  0  0  0  0  0  0  0  0  0  0  0
   58.0660   29.1940   46.9660 H   0  0  0  0  0  0  0  0  0  0  0  0
   60.7162   29.2143   50.3554 H   0  0  0  0  0  0  0  0  0  0  0  0
   62.2186   31.1933   50.5405 H   0  0  0  0  0  0  0  0  0  0  0  0
   63.7965   35.0186   50.2462 H   0  0  0  0  0  0  0  0  0  0  0  0
   63.1024   33.9547   51.4819 H   0  0  0  0  0  0  0  0  0  0  0  0
   65.4446   35.3960   51.8343 H   0  0  0  0  0  0  0  0  0  0  0  0
   65.1200   33.8967   52.7100 H   0  0  0  0  0  0  0  0  0  0  0  0
   67.1150   34.3942   50.6245 H   0  0  0  0  0  0  0  0  0  0  0  0
   66.8824   32.8978   51.5344 H   0  0  0  0  0  0  0  0  0  0  0  0
   65.8758   33.6636   48.8179 H   0  0  0  0  0  0  0  0  0  0  0  0
   66.1024   32.0373   49.4910 H   0  0  0  0  0  0  0  0  0  0  0  0
   62.0348   31.7424   46.2550 H   0  0  0  0  0  0  0  0  0  0  0  0
   60.5220   29.7724   46.0640 H   0  0  0  0  0  0  0  0  0  0  0  0
   60.0898   35.8209   48.0502 H   0  0  0  0  0  0  0  0  0  0  0  0
   60.8210   35.2480   46.5127 H   0  0  0  0  0  0  0  0  0  0  0  0
   59.1713   35.9586   46.5127 H   0  0  0  0  0  0  0  0  0  0  0  0
  1  2  1  0
  2  3  1  0
  3  4  1  0
  4  5  1  0
  5  6  1  0
  6  7  1  0
  7  8  1  0
  8  9  1  0
  9 10  1  0
 10 11  2  0
 10 12  1  0
 12 13  1  0
 13 14  1  0
 14 15  2  0
 14 16  1  0
 16 17  2  0
 17 18  1  0
 18 19  2  0
 19 20  1  0
 20 21  2  0
 20 22  2  0
 20 23  1  0
 23 24  1  0
 24 25  1  0
 25 26  1  0
 26 27  1  0
 19 28  1  0
 28 29  2  0
  6 30  2  0
 30 31  1  0
 31 32  2  0
 31 33  1  0
 33 34  1  0
 34 35  1  0
 34  2  2  0
 33  4  2  0
 29 16  1  0
 27 23  1  0
  1 36  1  0
  1 37  1  0
  1 38  1  0
  7 39  1  0
  7 40  1  0
  8 41  1  0
  8 42  1  0
 12 43  1  0
 12 44  1  0
 13 45  1  0
 17 46  1  0
 18 47  1  0
 24 48  1  0
 24 49  1  0
 25 50  1  0
 25 51  1  0
 26 52  1  0
 26 53  1  0
 27 54  1  0
 27 55  1  0
 28 56  1  0
 29 57  1  0
 35 58  1  0
 35 59  1  0
 35 60  1  0
M  CHG  2   5  -1   9  -1
M  END
>  <UniqueID>  (33) 
31

>  <SMILES>  (33) 
Cc1sc2[n-]c(CC[N-]C(=O)CNC(=O)c3ccc(S(=O)(=O)N4CCCC4)cc3)nc(=O)c2c1C

>  <Energy>  (33) 
92.24374716833752

>  <Genealogy>  (33) 
Cc1sc2[n-]c(CC[N-]C(=O)CNC(=O)c3ccc(S(=O)(=O)N4CCCC4)cc3)nc(=O)c2c1C (protonated)
Cc1sc2[n-]c(CC[N-]C(=O)CNC(=O)c3ccc(S(=O)(=O)N4CCCC4)cc3)nc(=O)c2c1C (3D coordinates assigned)
Cc1sc2[n-]c(CC[N-]C(=O)CNC(=O)c3ccc(S(=O)(=O)N4CCCC4)cc3)nc(=O)c2c1C (nonaromatic ring conformer: 92.24374716833752 kcal/mol)

>  <smiles>  (33) 
Cc1sc2[nH]c(CCNC(=O)CNC(=O)c3ccc(S(=O)(=O)N4CCCC4)cc3)nc(=O)c2c1C

>  <score_type>  (33) 
oracle

>  <origin>  (33) 
adg

>  <m_score__min__energy>  (33) 
-13.6

>  <m_primary>  (33) 
energy

$$$$
33:0
     RDKit          3D

 44 46  0  0  0  0  0  0  0  0999 V2000
   60.7090   27.4730   49.0430 C   0  0  0  0  0  0  0  0  0  0  0  0
   59.9480   28.7600   49.1010 C   0  0  0  0  0  0  0  0  0  0  0  0
   59.1400   29.0910   50.1240 N   0  0  0  0  0  0  0  0  0  0  0  0
   58.6370   30.2850   49.7530 C   0  0  0  0  0  0  0  0  0  0  0  0
   57.8310   30.9340   50.4670 O   0  0  0  0  0  0  0  0  0  0  0  0
   59.0690   30.7280   48.5550 N   0  0  0  0  0  0  0  0  0  0  0  0
   59.8910   29.7510   48.1330 C   0  0  0  0  0  0  0  0  0  0  0  0
   60.6690   29.8390   46.8440 C   0  0  1  0  0  0  0  0  0  0  0  0
   59.7370   30.0950   45.6430 C   0  0  0  0  0  0  0  0  0  0  0  0
   58.5160   29.2110   45.6870 C   0  0  0  0  0  0  0  0  0  0  0  0
   58.6150   27.8840   46.1400 C   0  0  0  0  0  0  0  0  0  0  0  0
   57.4900   27.0550   46.1420 C   0  0  0  0  0  0  0  0  0  0  0  0
   56.2600   27.5400   45.6900 C   0  0  0  0  0  0  0  0  0  0  0  0
   55.1440   26.7100   45.6960 O   0  0  0  0  0  0  0  0  0  0  0  0
   56.1540   28.8580   45.2300 C   0  0  0  0  0  0  0  0  0  0  0  0
   54.9330   29.3440   44.7750 O   0  0  0  0  0  0  0  0  0  0  0  0
   57.2790   29.6900   45.2250 C   0  0  0  0  0  0  0  0  0  0  0  0
   61.6730   30.8950   46.9450 N   0  0  0  0  0  0  0  0  0  0  0  0
   61.9820   31.5910   48.1550 C   0  0  0  0  0  0  0  0  0  0  0  0
   62.2370   30.9490   49.2120 O   0  0  0  0  0  0  0  0  0  0  0  0
   61.9920   32.9860   48.1520 O   0  0  0  0  0  0  0  0  0  0  0  0
   61.7480   33.7550   46.9790 C   0  0  0  0  0  0  0  0  0  0  0  0
   60.2810   33.7260   46.6660 C   0  0  0  0  0  0  0  0  0  0  0  0
   59.3430   33.4860   47.6840 C   0  0  0  0  0  0  0  0  0  0  0  0
   57.9750   33.4970   47.3980 C   0  0  0  0  0  0  0  0  0  0  0  0
   57.5320   33.7600   46.0980 C   0  0  0  0  0  0  0  0  0  0  0  0
   58.4590   34.0170   45.0840 C   0  0  0  0  0  0  0  0  0  0  0  0
   59.8280   34.0070   45.3660 C   0  0  0  0  0  0  0  0  0  0  0  0
   60.9159   27.1230   50.0651 H   0  0  0  0  0  0  0  0  0  0  0  0
   60.1121   26.7178   48.5106 H   0  0  0  0  0  0  0  0  0  0  0  0
   61.6584   27.6321   48.5106 H   0  0  0  0  0  0  0  0  0  0  0  0
   61.1715   28.8750   46.6760 H   0  0  0  0  0  0  0  0  0  0  0  0
   59.4163   31.1471   45.6584 H   0  0  0  0  0  0  0  0  0  0  0  0
   60.2933   29.8663   44.7220 H   0  0  0  0  0  0  0  0  0  0  0  0
   59.5817   27.4967   46.4943 H   0  0  0  0  0  0  0  0  0  0  0  0
   57.5730   26.0183   46.5002 H   0  0  0  0  0  0  0  0  0  0  0  0
   57.1944   30.7234   44.8578 H   0  0  0  0  0  0  0  0  0  0  0  0
   62.0678   34.7940   47.1472 H   0  0  0  0  0  0  0  0  0  0  0  0
   62.3141   33.3324   46.1358 H   0  0  0  0  0  0  0  0  0  0  0  0
   59.6866   33.2887   48.7102 H   0  0  0  0  0  0  0  0  0  0  0  0
   57.2455   33.2984   48.1970 H   0  0  0  0  0  0  0  0  0  0  0  0
   56.4551   33.7646   45.8736 H   0  0  0  0  0  0  0  0  0  0  0  0
   58.1105   34.2275   44.0621 H   0  0  0  0  0  0  0  0  0  0  0  0
   60.5535   34.2199   44.5671 H   0  0  0  0  0  0  0  0  0  0  0  0
  1  2  1  0
  2  3  1  0
  3  4  1  0
  4  5  2  0
  4  6  1  0
  6  7  1  0
  7  8  1  0
  8  9  1  0
  9 10  1  0
 10 11  2  0
 11 12  1  0
 12 13  2  0
 13 14  1  0
 13 15  1  0
 15 16  1  0
 15 17  2  0
  8 18  1  0
 18 19  1  0
 19 20  2  0
 19 21  1  0
 21 22  1  0
 22 23  1  0
 23 24  2  0
 24 25  1  0
 25 26  2  0
 26 27  1  0
 27 28  2  0
  7  2  2  0
 17 10  1  0
 28 23  1  0
  1 29  1  0
  1 30  1  0
  1 31  1  0
  8 32  1  6
  9 33  1  0
  9 34  1  0
 11 35  1  0
 12 36  1  0
 17 37  1  0
 22 38  1  0
 22 39  1  0
 24 40  1  0
 25 41  1  0
 26 42  1  0
 27 43  1  0
 28 44  1  0
M  CHG  5   3  -1   6  -1  14  -1  16  -1  18  -1
M  END
>  <UniqueID>  (34) 
32

>  <SMILES>  (34) 
Cc1[n-]c(=O)[n-]c1[C@@H](Cc1ccc([O-])c([O-])c1)[N-]C(=O)OCc1ccccc1

>  <Energy>  (34) 
67.09727262765597

>  <Genealogy>  (34) 
Cc1[n-]c(=O)[n-]c1C(Cc1ccc([O-])c([O-])c1)[N-]C(=O)OCc1ccccc1 (protonated)
Cc1[n-]c(=O)[n-]c1[C@@H](Cc1ccc([O-])c([O-])c1)[N-]C(=O)OCc1ccccc1 (chirality)
Cc1[n-]c(=O)[n-]c1[C@@H](Cc1ccc([O-])c([O-])c1)[N-]C(=O)OCc1ccccc1 (3D coordinates assigned)
Cc1[n-]c(=O)[n-]c1[C@@H](Cc1ccc([O-])c([O-])c1)[N-]C(=O)OCc1ccccc1 (optimized conformer: 67.09727262765597 kcal/mol)

>  <smiles>  (34) 
Cc1[nH]c(=O)[nH]c1C(Cc1ccc(O)c(O)c1)NC(=O)OCc1ccccc1

>  <score_type>  (34) 
oracle

>  <origin>  (34) 
adg

>  <m_score__min__energy>  (34) 
-17.949999999999999

>  <m_primary>  (34) 
energy

$$$$
34:0
     RDKit          3D

 52 54  0  0  1  0  0  0  0  0999 V2000
   57.8460   32.1920   41.4600 C   0  0  0  0  0  0  0  0  0  0  0  0
   57.3980   31.5210   42.7190 C   0  0  0  0  0  0  0  0  0  0  0  0
   58.0440   31.6910   43.9210 C   0  0  0  0  0  0  0  0  0  0  0  0
   57.5500   31.0250   45.0350 C   0  0  0  0  0  0  0  0  0  0  0  0
   58.0980   31.1320   46.2050 N   0  0  0  0  0  0  0  0  0  0  0  0
   58.8450   32.2970   46.5470 C   0  0  0  0  0  0  0  0  0  0  0  0
   58.1380   33.4830   46.6100 C   0  0  0  0  0  0  0  0  0  0  0  0
   58.8810   34.6270   46.9330 C   0  0  0  0  0  0  0  0  0  0  0  0
   60.2370   34.5530   47.1700 C   0  0  0  0  0  0  0  0  0  0  0  0
   60.9290   33.3670   47.1040 C   0  0  0  0  0  0  0  0  0  0  0  0
   60.2020   32.2350   46.7870 C   0  0  0  0  0  0  0  0  0  0  0  0
   60.8880   30.8930   46.7090 C   0  0  0  0  0  0  0  0  0  0  0  0
   60.5440   30.1910   47.9860 C   0  0  0  0  0  0  0  0  0  0  0  0
   59.9930   28.8440   47.7800 N   0  0  0  0  0  0  0  0  0  0  0  0
   58.5450   29.0150   47.8050 C   0  0  0  0  0  0  0  0  0  0  0  0
   57.8070   27.7790   47.4170 C   0  0  0  0  0  0  0  0  0  0  0  0
   58.2400   27.3300   46.0500 C   0  0  0  0  0  0  0  0  0  0  0  0
   57.0610   27.1480   45.1110 C   0  0  0  0  0  0  0  0  0  0  0  0
   55.9480   27.8080   45.6200 O   0  0  0  0  0  0  0  0  0  0  0  0
   59.2350   28.3200   45.5000 C   0  0  0  0  0  0  0  0  0  0  0  0
   60.4170   28.3390   46.4720 C   0  0  0  0  0  0  0  0  0  0  0  0
   56.4520   30.2260   44.9300 N   0  0  0  0  0  0  0  0  0  0  0  0
   55.8210   30.0660   43.7300 C   0  0  0  0  0  0  0  0  0  0  0  0
   54.8000   29.3060   43.7020 N   0  0  0  0  0  0  0  0  0  0  0  0
   56.3160   30.7220   42.6580 N   0  0  0  0  0  0  0  0  0  0  0  0
   58.4407   33.0827   41.7109 H   0  0  0  0  0  0  0  0  0  0  0  0
   58.4604   31.4947   40.8715 H   0  0  0  0  0  0  0  0  0  0  0  0
   56.9665   32.4922   40.8715 H   0  0  0  0  0  0  0  0  0  0  0  0
   58.9300   32.3384   43.9982 H   0  0  0  0  0  0  0  0  0  0  0  0
   57.0558   33.5266   46.4179 H   0  0  0  0  0  0  0  0  0  0  0  0
   58.3732   35.6006   46.9985 H   0  0  0  0  0  0  0  0  0  0  0  0
   60.7838   35.4741   47.4204 H   0  0  0  0  0  0  0  0  0  0  0  0
   62.0114   33.3210   47.2947 H   0  0  0  0  0  0  0  0  0  0  0  0
   60.5176   30.3219   45.8449 H   0  0  0  0  0  0  0  0  0  0  0  0
   61.9756   30.9982   46.5822 H   0  0  0  0  0  0  0  0  0  0  0  0
   61.4567   30.1054   48.5940 H   0  0  0  0  0  0  0  0  0  0  0  0
   59.7667   30.7875   48.4860 H   0  0  0  0  0  0  0  0  0  0  0  0
   58.2428   29.2987   48.8239 H   0  0  0  0  0  0  0  0  0  0  0  0
   58.2923   29.7940   47.0706 H   0  0  0  0  0  0  0  0  0  0  0  0
   58.0200   26.9835   48.1462 H   0  0  0  0  0  0  0  0  0  0  0  0
   56.7280   27.9922   47.4022 H   0  0  0  0  0  0  0  0  0  0  0  0
   58.7180   26.3431   46.1369 H   0  0  0  0  0  0  0  0  0  0  0  0
   57.3125   27.5636   44.1241 H   0  0  0  0  0  0  0  0  0  0  0  0
   56.8352   26.0757   45.0147 H   0  0  0  0  0  0  0  0  0  0  0  0
   55.1780   27.8240   44.9890 H   0  0  0  0  0  0  0  0  0  0  0  0
   59.5705   28.0054   44.5008 H   0  0  0  0  0  0  0  0  0  0  0  0
   58.7866   29.3196   45.4016 H   0  0  0  0  0  0  0  0  0  0  0  0
   60.8083   27.3174   46.5871 H   0  0  0  0  0  0  0  0  0  0  0  0
   61.1993   28.9998   46.0703 H   0  0  0  0  0  0  0  0  0  0  0  0
   56.0930   29.7260   45.7920 H   0  0  0  0  0  0  0  0  0  0  0  0
   54.3880   28.9800   44.6080 H   0  0  0  0  0  0  0  0  0  0  0  0
   55.7800   30.5550   41.7570 H   0  0  0  0  0  0  0  0  0  0  0  0
  1  2  1  0
  2  3  2  0
  3  4  1  0
  4  5  2  0
  5  6  1  0
  6  7  2  0
  7  8  1  0
  8  9  2  0
  9 10  1  0
 10 11  2  0
 11 12  1  0
 12 13  1  0
 13 14  1  0
 14 15  1  0
 15 16  1  0
 16 17  1  0
 17 18  1  0
 18 19  1  0
 17 20  1  0
 20 21  1  0
  4 22  1  0
 22 23  1  0
 23 24  2  3
 23 25  1  0
 25  2  1  0
 11  6  1  0
 21 14  1  0
  1 26  1  0
  1 27  1  0
  1 28  1  0
  3 29  1  0
  7 30  1  0
  8 31  1  0
  9 32  1  0
 10 33  1  0
 12 34  1  0
 12 35  1  0
 13 36  1  0
 13 37  1  0
 15 38  1  0
 15 39  1  0
 16 40  1  0
 16 41  1  0
 17 42  1  0
 18 43  1  0
 18 44  1  0
 19 45  1  0
 20 46  1  0
 20 47  1  0
 21 48  1  0
 21 49  1  0
 22 50  1  0
 24 51  1  0
 25 52  1  0
M  END
>  <smiles>  (35) 
Cc1cc(=Nc2ccccc2CCN2CCC(CO)CC2)[nH]c(=N)[nH]1

>  <score_type>  (35) 
oracle

>  <origin>  (35) 
adg

>  <m_score__min__energy>  (35) 
-9.7300000000000004

>  <m_primary>  (35) 
energy

$$$$
35:0
     RDKit          3D

 46 48  0  0  0  0  0  0  0  0999 V2000
   60.6934   31.0106   48.3961 H   0  0  0  0  0  0  0  0  0  0  0  0
   60.6690   30.8900   47.3030 C   0  0  0  0  0  0  0  0  0  0  0  0
   61.0235   31.7027   46.6520 H   0  0  0  0  0  0  0  0  0  0  0  0
   60.2070   29.7520   46.7640 C   0  0  0  0  0  0  0  0  0  0  0  0
   57.5450   27.1480   47.1730 C   0  0  0  0  0  0  0  0  0  0  0  0
   59.6940   28.3980   48.8100 C   0  0  0  0  0  0  0  0  0  0  0  0
   59.3384   29.0075   49.6539 H   0  0  0  0  0  0  0  0  0  0  0  0
   60.5110   27.1620   49.1360 C   0  0  0  0  0  0  0  0  0  0  0  0
   59.8501   26.2836   49.0950 H   0  0  0  0  0  0  0  0  0  0  0  0
   61.3228   27.0985   48.3965 H   0  0  0  0  0  0  0  0  0  0  0  0
   61.1350   27.2210   50.4760 N   0  0  0  0  0  0  0  0  0  0  0  0
   60.7490   28.4270   51.2270 C   0  0  0  0  0  0  0  0  0  0  0  0
   60.8141   28.2235   52.3061 H   0  0  0  0  0  0  0  0  0  0  0  0
   61.4276   29.2531   50.9680 H   0  0  0  0  0  0  0  0  0  0  0  0
   59.7168   28.7055   50.9680 H   0  0  0  0  0  0  0  0  0  0  0  0
   60.8720   26.0050   51.2630 C   0  0  0  0  0  0  0  0  0  0  0  0
   60.9237   26.2440   52.3355 H   0  0  0  0  0  0  0  0  0  0  0  0
   59.8700   25.6210   51.0208 H   0  0  0  0  0  0  0  0  0  0  0  0
   61.6257   25.2413   51.0208 H   0  0  0  0  0  0  0  0  0  0  0  0
   59.3680   28.8100   47.5620 C   0  0  0  0  0  0  0  0  0  0  0  0
   58.1470   28.3160   46.8390 C   0  0  0  0  0  0  0  0  0  0  0  0
   57.2930   26.9942   48.2326 H   0  0  0  0  0  0  0  0  0  0  0  0
   57.2000   26.0650   46.2290 C   0  0  0  0  0  0  0  0  0  0  0  0
   58.0550   25.1150   45.7880 N   0  0  0  0  0  0  0  0  0  0  0  0
   57.2770   24.3080   45.0330 C   0  0  0  0  0  0  0  0  0  0  0  0
   57.7270   23.3070   44.4160 O   0  0  0  0  0  0  0  0  0  0  0  0
   55.9800   24.6790   45.0050 N   0  0  0  0  0  0  0  0  0  0  0  0
   54.8940   24.0830   44.2320 C   0  0  0  0  0  0  0  0  0  0  0  0
   54.1400   23.6692   44.9177 H   0  0  0  0  0  0  0  0  0  0  0  0
   54.4298   24.8528   43.5980 H   0  0  0  0  0  0  0  0  0  0  0  0
   55.2941   23.2780   43.5980 H   0  0  0  0  0  0  0  0  0  0  0  0
   55.9350   25.7890   45.7560 C   0  0  0  0  0  0  0  0  0  0  0  0
   54.7860   26.5340   46.0000 O   0  0  0  0  0  0  0  0  0  0  0  0
   57.7700   29.0930   45.6190 C   0  0  0  0  0  0  0  0  0  0  0  0
   56.4310   29.3320   45.2620 C   0  0  0  0  0  0  0  0  0  0  0  0
   55.6180   28.9181   45.8766 H   0  0  0  0  0  0  0  0  0  0  0  0
   56.1290   30.0930   44.1300 C   0  0  0  0  0  0  0  0  0  0  0  0
   55.0798   30.2528   43.8408 H   0  0  0  0  0  0  0  0  0  0  0  0
   57.1540   30.6510   43.3650 C   0  0  0  0  0  0  0  0  0  0  0  0
   56.9114   31.2287   42.4609 H   0  0  0  0  0  0  0  0  0  0  0  0
   58.4870   30.4780   43.7440 C   0  0  0  0  0  0  0  0  0  0  0  0
   59.2905   30.9312   43.1449 H   0  0  0  0  0  0  0  0  0  0  0  0
   58.8050   29.7270   44.8880 C   0  0  0  0  0  0  0  0  0  0  0  0
   60.1760   29.5960   45.3290 N   0  0  0  0  0  0  0  0  0  0  0  0
   60.5140   28.6370   45.0870 H   0  0  0  0  0  0  0  0  0  0  0  0
   60.7970   30.2930   44.8530 H   0  0  0  0  0  0  0  0  0  0  0  0
  1  2  1  0
  2  3  1  0
  2  4  2  0
  4  5  1  0
  5  6  2  0
  6  7  1  0
  6  8  1  0
  8  9  1  0
  8 10  1  0
  8 11  1  0
 11 12  1  0
 12 13  1  0
 12 14  1  0
 12 15  1  0
 11 16  1  0
 16 17  1  0
 16 18  1  0
 16 19  1  0
  5 20  1  0
 20 21  2  0
 21 22  1  0
 21 23  1  0
 23 24  1  0
 24 25  1  0
 25 26  2  0
 25 27  1  0
 27 28  1  0
 28 29  1  0
 28 30  1  0
 28 31  1  0
 27 32  1  0
 32 33  1  0
 20 34  1  0
 34 35  2  0
 35 36  1  0
 35 37  1  0
 37 38  1  0
 37 39  2  0
 39 40  1  0
 39 41  1  0
 41 42  1  0
 41 43  2  0
 43 44  1  0
 44 45  1  0
 44 46  1  0
 44  4  1  0
 32 23  2  0
 43 34  1  0
M  CHG  3  24  -1  33  -1  44   1
M  END
>  <UniqueID>  (36) 
33

>  <SMILES>  (36) 
C=C1[NH2+]c2ccccc2/C(=C\c2[n-]c(=O)n(C)c2[O-])C1=CCN(C)C

>  <Energy>  (36) 
110.92823560300911

>  <Genealogy>  (36) 
C=C1[NH2+]c2ccccc2C(=Cc2[n-]c(=O)n(C)c2[O-])C1=CCN(C)C (protonated)
C=C1[NH2+]c2ccccc2/C(=C\c2[n-]c(=O)n(C)c2[O-])C1=CCN(C)C (cis-trans isomerization)
C=C1[NH2+]c2ccccc2/C(=C\c2[n-]c(=O)n(C)c2[O-])C1=CCN(C)C (3D coordinates assigned)
C=C1[NH2+]c2ccccc2/C(=C\c2[n-]c(=O)n(C)c2[O-])C1=CCN(C)C (nonaromatic ring conformer: 110.92823560300911 kcal/mol)

>  <smiles>  (36) 
C=C1Nc2ccccc2C(=Cc2[nH]c(=O)n(C)c2O)C1=CCN(C)C

>  <score_type>  (36) 
oracle

>  <origin>  (36) 
adg

>  <m_score__min__energy>  (36) 
-12.19

>  <m_primary>  (36) 
energy

$$$$
36:0
     RDKit          3D

 61 64  0  0  0  0  0  0  0  0999 V2000
   55.3760   28.9850   44.8970 N   0  0  0  0  0  0  0  0  0  0  0  0
   56.5920   30.0270   44.2500 S   0  0  0  0  0  0  0  0  0  0  0  0
   56.6030   29.9210   42.7510 O   0  0  0  0  0  0  0  0  0  0  0  0
   56.2900   31.4490   44.6330 O   0  0  0  0  0  0  0  0  0  0  0  0
   58.1640   29.5510   44.8870 C   0  0  0  0  0  0  0  0  0  0  0  0
   58.6810   28.2780   44.6190 C   0  0  0  0  0  0  0  0  0  0  0  0
   59.9340   27.9130   45.1150 C   0  0  0  0  0  0  0  0  0  0  0  0
   60.6770   28.8140   45.8830 C   0  0  0  0  0  0  0  0  0  0  0  0
   60.1690   30.0960   46.1650 C   0  0  0  0  0  0  0  0  0  0  0  0
   60.9510   31.0760   46.9630 C   0  0  0  0  0  0  0  0  0  0  0  0
   62.1820   30.8610   47.1440 O   0  0  0  0  0  0  0  0  0  0  0  0
   60.3200   32.2270   47.5830 N   0  0  2  0  0  0  0  0  0  0  0  0
   61.3240   33.2910   47.8540 C   0  0  0  0  0  0  0  0  0  0  0  0
   60.8140   34.2860   48.9020 C   0  0  0  0  0  0  0  0  0  0  0  0
   60.5120   33.5890   50.2440 C   0  0  0  0  0  0  0  0  0  0  0  0
   60.3090   32.0510   50.1070 C   0  0  1  0  0  0  0  0  0  0  0  0
   59.5720   31.4430   51.2560 N   0  0  0  0  0  0  0  0  0  0  0  0
   58.3410   32.2150   51.6030 C   0  0  0  0  0  0  0  0  0  0  0  0
   57.0380   31.4950   51.2080 C   0  0  0  0  0  0  0  0  0  0  0  0
   56.9410   30.1470   51.8090 N   0  0  0  0  0  0  0  0  0  0  0  0
   55.9670   30.0270   52.9190 C   0  0  0  0  0  0  0  0  0  0  0  0
   54.5190   30.0320   52.4720 C   0  0  0  0  0  0  0  0  0  0  0  0
   54.0130   31.1020   51.7130 C   0  0  0  0  0  0  0  0  0  0  0  0
   52.6770   31.1070   51.2980 C   0  0  0  0  0  0  0  0  0  0  0  0
   51.8310   30.0520   51.6480 C   0  0  0  0  0  0  0  0  0  0  0  0
   52.3150   28.9970   52.4250 C   0  0  0  0  0  0  0  0  0  0  0  0
   53.6490   28.9890   52.8430 C   0  0  0  0  0  0  0  0  0  0  0  0
   58.2440   29.5080   52.0860 C   0  0  0  0  0  0  0  0  0  0  0  0
   59.3050   29.9900   51.0920 C   0  0  0  0  0  0  0  0  0  0  0  0
   59.5410   31.8070   48.7810 C   0  0  0  0  0  0  0  0  0  0  0  0
   58.9120   30.4590   45.6490 C   0  0  0  0  0  0  0  0  0  0  0  0
   54.4650   29.4920   44.8180 H   0  0  0  0  0  0  0  0  0  0  0  0
   58.0994   27.5644   44.0169 H   0  0  0  0  0  0  0  0  0  0  0  0
   60.3380   26.9126   44.9006 H   0  0  0  0  0  0  0  0  0  0  0  0
   61.6640   28.5196   46.2691 H   0  0  0  0  0  0  0  0  0  0  0  0
   59.6460   32.6440   46.9010 H   0  0  0  0  0  0  0  0  0  0  0  0
   62.2492   32.8246   48.2235 H   0  0  0  0  0  0  0  0  0  0  0  0
   61.5101   33.8383   46.9182 H   0  0  0  0  0  0  0  0  0  0  0  0
   61.5807   35.0578   49.0648 H   0  0  0  0  0  0  0  0  0  0  0  0
   59.8811   34.7330   48.5279 H   0  0  0  0  0  0  0  0  0  0  0  0
   61.3534   33.7705   50.9289 H   0  0  0  0  0  0  0  0  0  0  0  0
   59.5696   34.0095   50.6249 H   0  0  0  0  0  0  0  0  0  0  0  0
   61.2954   31.5641   50.1044 H   0  0  0  0  0  0  0  0  0  0  0  0
   58.3303   32.3848   52.6898 H   0  0  0  0  0  0  0  0  0  0  0  0
   58.3770   33.1571   51.0363 H   0  0  0  0  0  0  0  0  0  0  0  0
   56.1830   32.0973   51.5488 H   0  0  0  0  0  0  0  0  0  0  0  0
   57.0345   31.3784   50.1142 H   0  0  0  0  0  0  0  0  0  0  0  0
   56.1619   29.0834   53.4496 H   0  0  0  0  0  0  0  0  0  0  0  0
   56.1051   30.9100   53.5602 H   0  0  0  0  0  0  0  0  0  0  0  0
   54.6719   31.9406   51.4438 H   0  0  0  0  0  0  0  0  0  0  0  0
   52.2922   31.9428   50.6953 H   0  0  0  0  0  0  0  0  0  0  0  0
   50.7837   30.0520   51.3117 H   0  0  0  0  0  0  0  0  0  0  0  0
   51.6456   28.1714   52.7084 H   0  0  0  0  0  0  0  0  0  0  0  0
   54.0214   28.1624   53.4659 H   0  0  0  0  0  0  0  0  0  0  0  0
   58.5625   29.7649   53.1071 H   0  0  0  0  0  0  0  0  0  0  0  0
   58.1326   28.4184   51.9840 H   0  0  0  0  0  0  0  0  0  0  0  0
   60.2374   29.4320   51.2632 H   0  0  0  0  0  0  0  0  0  0  0  0
   58.9320   29.8166   50.0718 H   0  0  0  0  0  0  0  0  0  0  0  0
   59.3159   30.7336   48.6965 H   0  0  0  0  0  0  0  0  0  0  0  0
   58.6232   32.4125   48.8110 H   0  0  0  0  0  0  0  0  0  0  0  0
   58.5122   31.4648   45.8453 H   0  0  0  0  0  0  0  0  0  0  0  0
  1  2  1  0
  2  3  2  0
  2  4  2  0
  2  5  1  0
  5  6  2  0
  6  7  1  0
  7  8  2  0
  8  9  1  0
  9 10  1  0
 10 11  2  0
 10 12  1  0
 12 13  1  0
 13 14  1  0
 14 15  1  0
 15 16  1  0
 16 17  1  0
 17 18  1  0
 18 19  1  0
 19 20  1  0
 20 21  1  0
 21 22  1  0
 22 23  2  0
 23 24  1  0
 24 25  2  0
 25 26  1  0
 26 27  2  0
 20 28  1  0
 28 29  1  0
 16 30  1  0
  9 31  2  0
 31  5  1  0
 30 12  1  0
 29 17  1  0
 27 22  1  0
  1 32  1  0
  6 33  1  0
  7 34  1  0
  8 35  1  0
 12 36  1  6
 13 37  1  0
 13 38  1  0
 14 39  1  0
 14 40  1  0
 15 41  1  0
 15 42  1  0
 16 43  1  6
 18 44  1  0
 18 45  1  0
 19 46  1  0
 19 47  1  0
 21 48  1  0
 21 49  1  0
 23 50  1  0
 24 51  1  0
 25 52  1  0
 26 53  1  0
 27 54  1  0
 28 55  1  0
 28 56  1  0
 29 57  1  0
 29 58  1  0
 30 59  1  0
 30 60  1  0
 31 61  1  0
M  CHG  2   1  -1  12   1
M  END
>  <UniqueID>  (37) 
34

>  <SMILES>  (37) 
[NH-]S(=O)(=O)c1cccc(C(=O)[N@@H+]2CCC[C@@H](N3CCN(Cc4ccccc4)CC3)C2)c1

>  <Energy>  (37) 
97.80880100854336

>  <Genealogy>  (37) 
[NH-]S(=O)(=O)c1cccc(C(=O)[NH+]2CCCC(N3CCN(Cc4ccccc4)CC3)C2)c1 (protonated)
[NH-]S(=O)(=O)c1cccc(C(=O)[N@@H+]2CCC[C@@H](N3CCN(Cc4ccccc4)CC3)C2)c1 (chirality)
[NH-]S(=O)(=O)c1cccc(C(=O)[N@@H+]2CCC[C@@H](N3CCN(Cc4ccccc4)CC3)C2)c1 (3D coordinates assigned)
[NH-]S(=O)(=O)c1cccc(C(=O)[N@@H+]2CCC[C@@H](N3CCN(Cc4ccccc4)CC3)C2)c1 (nonaromatic ring conformer: 97.80880100854336 kcal/mol)

>  <smiles>  (37) 
NS(=O)(=O)c1cccc(C(=O)N2CCCC(N3CCN(Cc4ccccc4)CC3)C2)c1

>  <score_type>  (37) 
oracle

>  <origin>  (37) 
adg

>  <m_score__min__energy>  (37) 
-11.710000000000001

>  <m_primary>  (37) 
energy

$$$$
37:0
     RDKit          3D

 61 64  0  0  0  0  0  0  0  0999 V2000
   59.6700   36.0940   46.1220 C   0  0  0  0  0  0  0  0  0  0  0  0
   59.2660   34.8210   45.9980 C   0  0  0  0  0  0  0  0  0  0  0  0
   58.5030   34.5460   44.9060 N   0  0  0  0  0  0  0  0  0  0  0  0
   58.1700   33.2900   44.5300 C   0  0  0  0  0  0  0  0  0  0  0  0
   58.6350   32.1940   45.2520 C   0  0  0  0  0  0  0  0  0  0  0  0
   58.3240   30.8330   44.7700 C   0  0  0  0  0  0  0  0  0  0  0  0
   57.1900   30.6020   44.2720 O   0  0  0  0  0  0  0  0  0  0  0  0
   59.2840   29.7730   44.8910 N   0  0  0  0  0  0  0  0  0  0  0  0
   59.0660   28.4460   44.3190 C   0  0  0  0  0  0  0  0  0  0  0  0
   58.5100   27.5040   45.3550 C   0  0  0  0  0  0  0  0  0  0  0  0
   59.2350   27.2410   46.5270 C   0  0  0  0  0  0  0  0  0  0  0  0
   58.7180   26.3780   47.4970 C   0  0  0  0  0  0  0  0  0  0  0  0
   57.4760   25.7670   47.3010 C   0  0  0  0  0  0  0  0  0  0  0  0
   56.7420   26.0080   46.1280 C   0  0  0  0  0  0  0  0  0  0  0  0
   55.4240   25.3670   45.9150 C   0  0  0  0  0  0  0  0  0  0  0  0
   54.3780   26.0650   45.9880 O   0  0  0  0  0  0  0  0  0  0  0  0
   55.2930   23.9570   45.6760 N   0  0  0  0  0  0  0  0  0  0  0  0
   56.2540   23.1090   45.0290 C   0  0  0  0  0  0  0  0  0  0  0  0
   57.3640   22.6040   45.7310 C   0  0  0  0  0  0  0  0  0  0  0  0
   58.2830   21.7660   45.0940 C   0  0  0  0  0  0  0  0  0  0  0  0
   58.1180   21.4430   43.7460 C   0  0  0  0  0  0  0  0  0  0  0  0
   57.0410   21.9670   43.0290 C   0  0  0  0  0  0  0  0  0  0  0  0
   56.1080   22.8060   43.6580 C   0  0  0  0  0  0  0  0  0  0  0  0
   55.0120   23.3310   42.9000 N   0  0  0  0  0  0  0  0  0  0  0  0
   57.2610   26.8910   45.1640 C   0  0  0  0  0  0  0  0  0  0  0  0
   59.4010   32.4170   46.4110 C   0  0  0  0  0  0  0  0  0  0  0  0
   59.8310   31.4220   47.0580 O   0  0  0  0  0  0  0  0  0  0  0  0
   59.6830   33.7420   46.8520 C   0  0  0  0  0  0  0  0  0  0  0  0
   60.3100   33.8960   48.0560 C   0  0  0  0  0  0  0  0  0  0  0  0
   61.7340   33.6320   48.3530 C   0  0  0  0  0  0  0  0  0  0  0  0
   62.5990   33.3190   47.2940 C   0  0  0  0  0  0  0  0  0  0  0  0
   63.9550   33.0910   47.5350 C   0  0  0  0  0  0  0  0  0  0  0  0
   64.4530   33.1530   48.8380 C   0  0  0  0  0  0  0  0  0  0  0  0
   63.5960   33.4200   49.9040 C   0  0  0  0  0  0  0  0  0  0  0  0
   62.2230   33.6490   49.6770 C   0  0  0  0  0  0  0  0  0  0  0  0
   61.3250   33.8870   50.7310 O   0  0  0  0  0  0  0  0  0  0  0  0
   60.4310   32.9150   51.2660 C   0  0  0  0  0  0  0  0  0  0  0  0
   60.2905   36.3931   46.9797 H   0  0  0  0  0  0  0  0  0  0  0  0
   59.3808   36.8389   45.3660 H   0  0  0  0  0  0  0  0  0  0  0  0
   57.5289   33.1338   43.6499 H   0  0  0  0  0  0  0  0  0  0  0  0
   60.1800   29.9490   45.3990 H   0  0  0  0  0  0  0  0  0  0  0  0
   58.3543   28.5252   43.4840 H   0  0  0  0  0  0  0  0  0  0  0  0
   60.0294   28.0517   43.9634 H   0  0  0  0  0  0  0  0  0  0  0  0
   60.2147   27.7162   46.6831 H   0  0  0  0  0  0  0  0  0  0  0  0
   59.2891   26.1792   48.4159 H   0  0  0  0  0  0  0  0  0  0  0  0
   57.0710   25.0932   48.0704 H   0  0  0  0  0  0  0  0  0  0  0  0
   57.5093   22.8707   46.7883 H   0  0  0  0  0  0  0  0  0  0  0  0
   59.1375   21.3603   45.6555 H   0  0  0  0  0  0  0  0  0  0  0  0
   58.8369   20.7753   43.2486 H   0  0  0  0  0  0  0  0  0  0  0  0
   56.9227   21.7206   41.9635 H   0  0  0  0  0  0  0  0  0  0  0  0
   54.9650   23.2280   41.8640 H   0  0  0  0  0  0  0  0  0  0  0  0
   54.2320   23.8410   43.3710 H   0  0  0  0  0  0  0  0  0  0  0  0
   56.6834   27.1033   44.2523 H   0  0  0  0  0  0  0  0  0  0  0  0
   59.6906   34.2538   48.8917 H   0  0  0  0  0  0  0  0  0  0  0  0
   62.2068   33.2529   46.2684 H   0  0  0  0  0  0  0  0  0  0  0  0
   64.6314   32.8624   46.6982 H   0  0  0  0  0  0  0  0  0  0  0  0
   65.5250   32.9906   49.0236 H   0  0  0  0  0  0  0  0  0  0  0  0
   63.9931   33.4524   50.9293 H   0  0  0  0  0  0  0  0  0  0  0  0
   60.4646   32.9515   52.3649 H   0  0  0  0  0  0  0  0  0  0  0  0
   59.4081   33.1296   50.9231 H   0  0  0  0  0  0  0  0  0  0  0  0
   60.7302   31.9136   50.9231 H   0  0  0  0  0  0  0  0  0  0  0  0
  1  2  2  0
  2  3  1  0
  3  4  1  0
  4  5  2  0
  5  6  1  0
  6  7  2  0
  6  8  1  0
  8  9  1  0
  9 10  1  0
 10 11  2  0
 11 12  1  0
 12 13  2  0
 13 14  1  0
 14 15  1  0
 15 16  2  0
 15 17  1  0
 17 18  1  0
 18 19  2  0
 19 20  1  0
 20 21  2  0
 21 22  1  0
 22 23  2  0
 23 24  1  0
 14 25  2  0
  5 26  1  0
 26 27  2  0
 26 28  1  0
 28 29  2  3
 29 30  1  0
 30 31  2  0
 31 32  1  0
 32 33  2  0
 33 34  1  0
 34 35  2  0
 35 36  1  0
 36 37  1  0
 28  2  1  0
 35 30  1  0
 25 10  1  0
 23 18  1  0
  1 38  1  0
  1 39  1  0
  4 40  1  0
  8 41  1  0
  9 42  1  0
  9 43  1  0
 11 44  1  0
 12 45  1  0
 13 46  1  0
 19 47  1  0
 20 48  1  0
 21 49  1  0
 22 50  1  0
 24 51  1  0
 24 52  1  0
 25 53  1  0
 29 54  1  0
 31 55  1  0
 32 56  1  0
 33 57  1  0
 34 58  1  0
 37 59  1  0
 37 60  1  0
 37 61  1  0
M  CHG  2   3  -1  17  -1
M  END
>  <UniqueID>  (38) 
35

>  <SMILES>  (38) 
C=c1[n-]cc(C(=O)NCc2cccc(C(=O)[N-]c3ccccc3N)c2)c(=O)c1=Cc1ccccc1OC

>  <Energy>  (38) 
99.33963576404402

>  <Genealogy>  (38) 
C=c1[n-]cc(C(=O)NCc2cccc(C(=O)[N-]c3ccccc3N)c2)c(=O)c1=Cc1ccccc1OC (protonated)
C=c1[n-]cc(C(=O)NCc2cccc(C(=O)[N-]c3ccccc3N)c2)c(=O)c1=Cc1ccccc1OC (3D coordinates assigned)
C=c1[n-]cc(C(=O)NCc2cccc(C(=O)[N-]c3ccccc3N)c2)c(=O)c1=Cc1ccccc1OC (optimized conformer: 99.33963576404402 kcal/mol)

>  <smiles>  (38) 
C=c1[nH]cc(C(=O)NCc2cccc(C(=O)Nc3ccccc3N)c2)c(=O)c1=Cc1ccccc1OC

>  <score_type>  (38) 
oracle

>  <origin>  (38) 
adg

>  <m_score__min__energy>  (38) 
-12.76

>  <m_primary>  (38) 
energy

$$$$
38:0
     RDKit          3D

 47 50  0  0  0  0  0  0  0  0999 V2000
   57.3810   32.2920   44.8050 C   0  0  0  0  0  0  0  0  0  0  0  0
   57.6610   30.9900   44.8800 C   0  0  0  0  0  0  0  0  0  0  0  0
   56.7370   29.8110   44.1180 S   0  0  0  0  0  0  0  0  0  0  0  0
   57.6860   28.5320   44.6510 C   0  0  0  0  0  0  0  0  0  0  0  0
   57.4300   27.2480   44.3520 C   0  0  0  0  0  0  0  0  0  0  0  0
   57.4090   26.1420   45.3310 C   0  0  0  0  0  0  0  0  0  0  0  0
   58.5070   25.2710   45.4420 C   0  0  0  0  0  0  0  0  0  0  0  0
   58.4580   24.1830   46.3180 C   0  0  0  0  0  0  0  0  0  0  0  0
   57.3100   23.9460   47.0790 C   0  0  0  0  0  0  0  0  0  0  0  0
   57.2620   22.8610   47.9470 O   0  0  0  0  0  0  0  0  0  0  0  0
   56.2070   24.7960   46.9610 C   0  0  0  0  0  0  0  0  0  0  0  0
   56.2480   25.8870   46.0830 C   0  0  0  0  0  0  0  0  0  0  0  0
   55.1350   26.7140   45.9680 O   0  0  0  0  0  0  0  0  0  0  0  0
   58.7100   29.0670   45.4480 C   0  0  0  0  0  0  0  0  0  0  0  0
   59.5590   28.3520   46.0460 O   0  0  0  0  0  0  0  0  0  0  0  0
   58.7010   30.4310   45.5680 N   0  0  0  0  0  0  0  0  0  0  0  0
   59.7230   31.1760   46.3240 C   0  0  0  0  0  0  0  0  0  0  0  0
   59.3310   31.2900   47.7750 C   0  0  0  0  0  0  0  0  0  0  0  0
   59.3640   30.1670   48.6180 C   0  0  0  0  0  0  0  0  0  0  0  0
   58.9850   30.2780   49.9590 C   0  0  0  0  0  0  0  0  0  0  0  0
   58.5800   31.5160   50.4850 C   0  0  0  0  0  0  0  0  0  0  0  0
   58.1860   31.6260   51.8660 N   0  0  0  0  0  0  0  0  0  0  0  0
   58.6100   32.6840   52.7700 C   0  0  0  0  0  0  0  0  0  0  0  0
   58.1510   32.2460   54.1720 C   0  0  0  0  0  0  0  0  0  0  0  0
   57.1220   31.1230   53.9730 C   0  0  0  0  0  0  0  0  0  0  0  0
   57.2800   30.7740   52.5480 C   0  0  0  0  0  0  0  0  0  0  0  0
   56.6330   29.8530   51.9830 O   0  0  0  0  0  0  0  0  0  0  0  0
   58.5380   32.6360   49.6370 C   0  0  0  0  0  0  0  0  0  0  0  0
   58.9100   32.5230   48.2950 C   0  0  0  0  0  0  0  0  0  0  0  0
   58.0193   33.0226   45.3235 H   0  0  0  0  0  0  0  0  0  0  0  0
   56.5118   32.6351   44.2247 H   0  0  0  0  0  0  0  0  0  0  0  0
   57.2205   27.0017   43.3006 H   0  0  0  0  0  0  0  0  0  0  0  0
   59.4086   25.4466   44.8368 H   0  0  0  0  0  0  0  0  0  0  0  0
   59.3248   23.5119   46.4086 H   0  0  0  0  0  0  0  0  0  0  0  0
   55.3035   24.6078   47.5595 H   0  0  0  0  0  0  0  0  0  0  0  0
   60.6847   30.6472   46.2498 H   0  0  0  0  0  0  0  0  0  0  0  0
   59.8112   32.1871   45.8999 H   0  0  0  0  0  0  0  0  0  0  0  0
   59.6900   29.1945   48.2207 H   0  0  0  0  0  0  0  0  0  0  0  0
   59.0041   29.3894   50.6071 H   0  0  0  0  0  0  0  0  0  0  0  0
   59.7040   32.7958   52.7426 H   0  0  0  0  0  0  0  0  0  0  0  0
   58.1780   33.6554   52.4875 H   0  0  0  0  0  0  0  0  0  0  0  0
   59.0087   31.8749   54.7522 H   0  0  0  0  0  0  0  0  0  0  0  0
   57.7117   33.0897   54.7244 H   0  0  0  0  0  0  0  0  0  0  0  0
   57.3481   30.2612   54.6182 H   0  0  0  0  0  0  0  0  0  0  0  0
   56.0967   31.4245   54.2335 H   0  0  0  0  0  0  0  0  0  0  0  0
   58.2099   33.6085   50.0327 H   0  0  0  0  0  0  0  0  0  0  0  0
   58.8725   33.4071   47.6416 H   0  0  0  0  0  0  0  0  0  0  0  0
  1  2  2  0
  2  3  1  0
  3  4  1  0
  4  5  2  3
  5  6  1  0
  6  7  2  0
  7  8  1  0
  8  9  2  0
  9 10  1  0
  9 11  1  0
 11 12  2  0
 12 13  1  0
  4 14  1  0
 14 15  2  0
 14 16  1  0
 16 17  1  0
 17 18  1  0
 18 19  2  0
 19 20  1  0
 20 21  2  0
 21 22  1  0
 22 23  1  0
 23 24  1  0
 24 25  1  0
 25 26  1  0
 26 27  2  0
 21 28  1  0
 28 29  2  0
 16  2  1  0
 29 18  1  0
 12  6  1  0
 26 22  1  0
  1 30  1  0
  1 31  1  0
  5 32  1  0
  7 33  1  0
  8 34  1  0
 11 35  1  0
 17 36  1  0
 17 37  1  0
 19 38  1  0
 20 39  1  0
 23 40  1  0
 23 41  1  0
 24 42  1  0
 24 43  1  0
 25 44  1  0
 25 45  1  0
 28 46  1  0
 29 47  1  0
M  CHG  2  10  -1  13  -1
M  END
>  <UniqueID>  (39) 
36

>  <SMILES>  (39) 
C=c1sc(=Cc2ccc([O-])cc2[O-])c(=O)n1Cc1ccc(N2CCCC2=O)cc1

>  <Energy>  (39) 
101.83077382258939

>  <Genealogy>  (39) 
C=c1sc(=Cc2ccc([O-])cc2[O-])c(=O)n1Cc1ccc(N2CCCC2=O)cc1 (protonated)
C=c1sc(=Cc2ccc([O-])cc2[O-])c(=O)n1Cc1ccc(N2CCCC2=O)cc1 (3D coordinates assigned)
C=c1sc(=Cc2ccc([O-])cc2[O-])c(=O)n1Cc1ccc(N2CCCC2=O)cc1 (nonaromatic ring conformer: 101.83077382258939 kcal/mol)

>  <smiles>  (39) 
C=c1sc(=Cc2ccc(O)cc2O)c(=O)n1Cc1ccc(N2CCCC2=O)cc1

>  <score_type>  (39) 
oracle

>  <origin>  (39) 
adg

>  <m_score__min__energy>  (39) 
-14.08

>  <m_primary>  (39) 
energy

$$$$
39:0
     RDKit          3D

 47 49  0  0  0  0  0  0  0  0999 V2000
   51.0100   32.3290   50.4740 N   0  0  0  0  0  0  0  0  0  0  0  0
   51.6910   31.0830   50.3300 C   0  0  0  0  0  0  0  0  0  0  0  0
   51.3750   30.3180   49.3780 O   0  0  0  0  0  0  0  0  0  0  0  0
   52.7510   30.6890   51.2880 C   0  0  0  0  0  0  0  0  0  0  0  0
   52.7390   29.4140   51.8820 C   0  0  0  0  0  0  0  0  0  0  0  0
   53.7270   29.0500   52.8000 C   0  0  0  0  0  0  0  0  0  0  0  0
   54.7510   29.9490   53.1370 C   0  0  0  0  0  0  0  0  0  0  0  0
   55.7420   29.5910   54.2110 C   0  0  0  0  0  0  0  0  0  0  0  0
   57.0640   30.0910   53.8420 N   0  0  0  0  0  0  0  0  0  0  0  0
   57.4930   30.1430   52.4750 C   0  0  0  0  0  0  0  0  0  0  0  0
   57.0280   29.3280   51.6300 O   0  0  0  0  0  0  0  0  0  0  0  0
   58.3990   31.2420   52.0210 C   0  0  0  0  0  0  0  0  0  0  0  0
   59.1310   30.7930   50.7950 C   0  0  0  0  0  0  0  0  0  0  0  0
   60.5040   30.9620   50.6220 C   0  0  0  0  0  0  0  0  0  0  0  0
   60.9350   30.2020   49.1830 S   0  0  0  0  0  0  0  0  0  0  0  0
   59.3710   29.6780   48.8610 C   0  0  0  0  0  0  0  0  0  0  0  0
   58.9690   28.8710   47.7040 C   0  0  0  0  0  0  0  0  0  0  0  0
   59.6110   27.8220   47.4230 O   0  0  0  0  0  0  0  0  0  0  0  0
   57.8670   29.2880   46.8910 N   0  0  0  0  0  0  0  0  0  0  0  0
   57.9830   29.5940   45.4700 C   0  0  0  0  0  0  0  0  0  0  0  0
   58.1930   31.0710   45.2700 C   0  0  0  0  0  0  0  0  0  0  0  0
   57.7300   31.7070   44.1050 C   0  0  0  0  0  0  0  0  0  0  0  0
   57.8550   33.0940   43.9630 C   0  0  0  0  0  0  0  0  0  0  0  0
   58.4420   33.8520   44.9780 C   0  0  0  0  0  0  0  0  0  0  0  0
   58.5450   35.1970   44.8440 F   0  0  0  0  0  0  0  0  0  0  0  0
   58.9090   33.2270   46.1390 C   0  0  0  0  0  0  0  0  0  0  0  0
   58.7850   31.8400   46.2850 C   0  0  0  0  0  0  0  0  0  0  0  0
   58.5110   30.0690   49.8250 N   0  0  0  0  0  0  0  0  0  0  0  0
   54.7650   31.2210   52.5480 C   0  0  0  0  0  0  0  0  0  0  0  0
   53.7790   31.5870   51.6270 C   0  0  0  0  0  0  0  0  0  0  0  0
   51.0330   33.0510   49.7190 H   0  0  0  0  0  0  0  0  0  0  0  0
   51.9455   28.6981   51.6216 H   0  0  0  0  0  0  0  0  0  0  0  0
   53.7024   28.0520   53.2620 H   0  0  0  0  0  0  0  0  0  0  0  0
   55.4308   30.0458   55.1630 H   0  0  0  0  0  0  0  0  0  0  0  0
   55.7822   28.4974   54.3221 H   0  0  0  0  0  0  0  0  0  0  0  0
   57.6150   30.6110   54.5620 H   0  0  0  0  0  0  0  0  0  0  0  0
   57.8047   32.1380   51.7886 H   0  0  0  0  0  0  0  0  0  0  0  0
   59.1189   31.4836   52.8168 H   0  0  0  0  0  0  0  0  0  0  0  0
   61.1833   31.4957   51.3030 H   0  0  0  0  0  0  0  0  0  0  0  0
   58.8385   29.0454   45.0492 H   0  0  0  0  0  0  0  0  0  0  0  0
   57.0554   29.2920   44.9617 H   0  0  0  0  0  0  0  0  0  0  0  0
   57.2681   31.1130   43.3026 H   0  0  0  0  0  0  0  0  0  0  0  0
   57.4901   33.5876   43.0502 H   0  0  0  0  0  0  0  0  0  0  0  0
   59.3735   33.8249   46.9370 H   0  0  0  0  0  0  0  0  0  0  0  0
   59.1529   31.3505   47.1988 H   0  0  0  0  0  0  0  0  0  0  0  0
   55.5576   31.9364   52.8124 H   0  0  0  0  0  0  0  0  0  0  0  0
   53.8074   32.5845   51.1641 H   0  0  0  0  0  0  0  0  0  0  0  0
  1  2  1  0
  2  3  2  0
  2  4  1  0
  4  5  2  0
  5  6  1  0
  6  7  2  0
  7  8  1  0
  8  9  1  0
  9 10  1  0
 10 11  2  0
 10 12  1  0
 12 13  1  0
 13 14  2  0
 14 15  1  0
 15 16  1  0
 16 17  1  0
 17 18  2  0
 17 19  1  0
 19 20  1  0
 20 21  1  0
 21 22  2  0
 22 23  1  0
 23 24  2  0
 24 25  1  0
 24 26  1  0
 26 27  2  0
 16 28  2  0
  7 29  1  0
 29 30  2  0
 30  4  1  0
 28 13  1  0
 27 21  1  0
  1 31  1  0
  5 32  1  0
  6 33  1  0
  8 34  1  0
  8 35  1  0
  9 36  1  0
 12 37  1  0
 12 38  1  0
 14 39  1  0
 20 40  1  0
 20 41  1  0
 22 42  1  0
 23 43  1  0
 26 44  1  0
 27 45  1  0
 29 46  1  0
 30 47  1  0
M  CHG  2   1  -1  19  -1
M  END
>  <UniqueID>  (40) 
37

>  <SMILES>  (40) 
[NH-]C(=O)c1ccc(CNC(=O)Cc2csc(C(=O)[N-]Cc3ccc(F)cc3)n2)cc1

>  <Energy>  (40) 
67.10696891533618

>  <Genealogy>  (40) 
[NH-]C(=O)c1ccc(CNC(=O)Cc2csc(C(=O)[N-]Cc3ccc(F)cc3)n2)cc1 (protonated)
[NH-]C(=O)c1ccc(CNC(=O)Cc2csc(C(=O)[N-]Cc3ccc(F)cc3)n2)cc1 (3D coordinates assigned)
[NH-]C(=O)c1ccc(CNC(=O)Cc2csc(C(=O)[N-]Cc3ccc(F)cc3)n2)cc1 (optimized conformer: 67.10696891533618 kcal/mol)

>  <smiles>  (40) 
NC(=O)c1ccc(CNC(=O)Cc2csc(C(=O)NCc3ccc(F)cc3)n2)cc1

>  <score_type>  (40) 
oracle

>  <origin>  (40) 
adg

>  <m_score__min__energy>  (40) 
-12.779999999999999

>  <m_primary>  (40) 
energy

$$$$
40:0
     RDKit          3D

 54 57  0  0  0  0  0  0  0  0999 V2000
   59.6410   34.3570   44.4440 C   0  0  0  0  0  0  0  0  0  0  0  0
   59.5330   35.1950   45.7180 C   0  0  0  0  0  0  0  0  0  0  0  0
   58.5580   34.5940   46.7450 C   0  0  0  0  0  0  0  0  0  0  0  0
   58.5640   33.0790   46.7190 C   0  0  0  0  0  0  0  0  0  0  0  0
   57.8750   32.4880   45.7070 N   0  0  0  0  0  0  0  0  0  0  0  0
   57.7550   31.1470   45.6030 C   0  0  0  0  0  0  0  0  0  0  0  0
   57.0370   30.5890   44.5410 C   0  0  0  0  0  0  0  0  0  0  0  0
   56.8980   29.2020   44.4410 C   0  0  0  0  0  0  0  0  0  0  0  0
   57.4600   28.3620   45.4090 C   0  0  0  0  0  0  0  0  0  0  0  0
   57.3100   26.9430   45.2640 N   0  0  0  0  0  0  0  0  0  0  0  0
   56.3390   26.1300   45.9340 C   0  0  0  0  0  0  0  0  0  0  0  0
   55.1470   26.5340   45.9950 O   0  0  0  0  0  0  0  0  0  0  0  0
   56.7310   24.9260   46.6110 N   0  0  0  0  0  0  0  0  0  0  0  0
   55.8190   23.8770   46.9800 C   0  0  0  0  0  0  0  0  0  0  0  0
   56.0700   23.1220   48.1370 C   0  0  0  0  0  0  0  0  0  0  0  0
   55.2110   22.0810   48.5040 C   0  0  0  0  0  0  0  0  0  0  0  0
   54.1010   21.7780   47.7120 C   0  0  0  0  0  0  0  0  0  0  0  0
   53.8540   22.5080   46.5470 C   0  0  0  0  0  0  0  0  0  0  0  0
   54.7100   23.5490   46.1760 C   0  0  0  0  0  0  0  0  0  0  0  0
   58.2070   28.9220   46.4620 C   0  0  0  0  0  0  0  0  0  0  0  0
   58.3480   30.3200   46.5680 C   0  0  0  0  0  0  0  0  0  0  0  0
   59.0700   30.9260   47.6100 C   0  0  0  0  0  0  0  0  0  0  0  0
   59.6080   30.1960   48.4900 O   0  0  0  0  0  0  0  0  0  0  0  0
   59.1890   32.2990   47.6760 N   0  0  0  0  0  0  0  0  0  0  0  0
   59.9970   32.9040   48.7620 C   0  0  0  0  0  0  0  0  0  0  0  0
   61.4500   33.0180   48.3740 C   0  0  0  0  0  0  0  0  0  0  0  0
   61.8080   33.4290   47.0790 C   0  0  0  0  0  0  0  0  0  0  0  0
   63.1550   33.5300   46.7180 C   0  0  0  0  0  0  0  0  0  0  0  0
   64.1520   33.2070   47.6410 C   0  0  0  0  0  0  0  0  0  0  0  0
   63.8070   32.7780   48.9260 C   0  0  0  0  0  0  0  0  0  0  0  0
   65.0610   32.3650   50.0810 Cl  0  0  0  0  0  0  0  0  0  0  0  0
   62.4600   32.6750   49.2900 C   0  0  0  0  0  0  0  0  0  0  0  0
   59.7774   33.2988   44.7116 H   0  0  0  0  0  0  0  0  0  0  0  0
   58.7209   34.4698   43.8518 H   0  0  0  0  0  0  0  0  0  0  0  0
   60.5024   34.6994   43.8518 H   0  0  0  0  0  0  0  0  0  0  0  0
   60.5296   35.2650   46.1784 H   0  0  0  0  0  0  0  0  0  0  0  0
   59.1456   36.1841   45.4324 H   0  0  0  0  0  0  0  0  0  0  0  0
   58.8489   34.9325   47.7504 H   0  0  0  0  0  0  0  0  0  0  0  0
   57.5437   34.9329   46.4873 H   0  0  0  0  0  0  0  0  0  0  0  0
   56.5808   31.2427   43.7830 H   0  0  0  0  0  0  0  0  0  0  0  0
   56.3434   28.7678   43.5961 H   0  0  0  0  0  0  0  0  0  0  0  0
   57.7260   24.8470   46.9230 H   0  0  0  0  0  0  0  0  0  0  0  0
   56.9480   23.3508   48.7589 H   0  0  0  0  0  0  0  0  0  0  0  0
   55.4097   21.5005   49.4170 H   0  0  0  0  0  0  0  0  0  0  0  0
   53.4214   20.9645   48.0058 H   0  0  0  0  0  0  0  0  0  0  0  0
   52.9839   22.2631   45.9201 H   0  0  0  0  0  0  0  0  0  0  0  0
   54.5167   24.1143   45.2524 H   0  0  0  0  0  0  0  0  0  0  0  0
   58.6828   28.2656   47.2055 H   0  0  0  0  0  0  0  0  0  0  0  0
   59.6059   33.9085   48.9810 H   0  0  0  0  0  0  0  0  0  0  0  0
   59.9266   32.2541   49.6467 H   0  0  0  0  0  0  0  0  0  0  0  0
   61.0250   33.6724   46.3458 H   0  0  0  0  0  0  0  0  0  0  0  0
   63.4295   33.8640   45.7065 H   0  0  0  0  0  0  0  0  0  0  0  0
   65.2112   33.2903   47.3562 H   0  0  0  0  0  0  0  0  0  0  0  0
   62.1900   32.3242   50.2970 H   0  0  0  0  0  0  0  0  0  0  0  0
  1  2  1  0
  2  3  1  0
  3  4  1  0
  4  5  2  0
  5  6  1  0
  6  7  2  0
  7  8  1  0
  8  9  2  0
  9 10  1  0
 10 11  1  0
 11 12  2  0
 11 13  1  0
 13 14  1  0
 14 15  2  0
 15 16  1  0
 16 17  2  0
 17 18  1  0
 18 19  2  0
  9 20  1  0
 20 21  2  0
 21 22  1  0
 22 23  2  0
 22 24  1  0
 24 25  1  0
 25 26  1  0
 26 27  2  0
 27 28  1  0
 28 29  2  0
 29 30  1  0
 30 31  1  0
 30 32  2  0
 24  4  1  0
 32 26  1  0
 21  6  1  0
 19 14  1  0
  1 33  1  0
  1 34  1  0
  1 35  1  0
  2 36  1  0
  2 37  1  0
  3 38  1  0
  3 39  1  0
  7 40  1  0
  8 41  1  0
 13 42  1  0
 15 43  1  0
 16 44  1  0
 17 45  1  0
 18 46  1  0
 19 47  1  0
 20 48  1  0
 25 49  1  0
 25 50  1  0
 27 51  1  0
 28 52  1  0
 29 53  1  0
 32 54  1  0
M  CHG  1  10  -1
M  END
>  <UniqueID>  (41) 
38

>  <SMILES>  (41) 
CCCc1nc2ccc([N-]C(=O)Nc3ccccc3)cc2c(=O)n1Cc1cccc(Cl)c1

>  <Energy>  (41) 
69.93037346828534

>  <Genealogy>  (41) 
CCCc1nc2ccc([N-]C(=O)Nc3ccccc3)cc2c(=O)n1Cc1cccc(Cl)c1 (protonated)
CCCc1nc2ccc([N-]C(=O)Nc3ccccc3)cc2c(=O)n1Cc1cccc(Cl)c1 (3D coordinates assigned)
CCCc1nc2ccc([N-]C(=O)Nc3ccccc3)cc2c(=O)n1Cc1cccc(Cl)c1 (optimized conformer: 69.93037346828534 kcal/mol)

>  <smiles>  (41) 
CCCc1nc2ccc(NC(=O)Nc3ccccc3)cc2c(=O)n1Cc1cccc(Cl)c1

>  <score_type>  (41) 
oracle

>  <origin>  (41) 
adg

>  <m_score__min__energy>  (41) 
-10.880000000000001

>  <m_primary>  (41) 
energy

$$$$
41:0
     RDKit          3D

 71 74  0  0  0  0  0  0  0  0999 V2000
   59.6410   34.7470   46.2430 C   0  0  0  0  0  0  0  0  0  0  0  0
   59.7440   33.4060   46.3880 C   0  0  0  0  0  0  0  0  0  0  0  0
   58.9020   32.5500   45.6170 C   0  0  0  0  0  0  0  0  0  0  0  0
   57.7980   33.0690   44.7190 C   0  0  0  0  0  0  0  0  0  0  0  0
   56.5920   32.2750   44.9170 N   0  0  0  0  0  0  0  0  0  0  0  0
   56.4520   30.9340   44.4360 C   0  0  0  0  0  0  0  0  0  0  0  0
   56.0320   30.0320   45.2140 O   0  0  0  0  0  0  0  0  0  0  0  0
   56.7990   30.6130   43.0760 N   0  0  0  0  0  0  0  0  0  0  0  0
   56.6680   29.2330   42.6000 C   0  0  0  0  0  0  0  0  0  0  0  0
   57.2620   31.6740   42.1770 C   0  0  0  0  0  0  0  0  0  0  0  0
   59.1270   31.1700   45.6180 C   0  0  0  0  0  0  0  0  0  0  0  0
   60.1460   30.5950   46.3730 C   0  0  0  0  0  0  0  0  0  0  0  0
   60.3680   29.1380   46.2280 C   0  0  0  0  0  0  0  0  0  0  0  0
   61.0400   28.7080   45.2500 O   0  0  0  0  0  0  0  0  0  0  0  0
   59.8730   28.2270   47.2170 N   0  0  0  0  0  0  0  0  0  0  0  0
   59.9370   26.7800   47.0200 C   0  0  0  0  0  0  0  0  0  0  0  0
   58.5770   26.2340   46.6790 C   0  0  0  0  0  0  0  0  0  0  0  0
   57.5240   27.1060   46.3510 C   0  0  0  0  0  0  0  0  0  0  0  0
   56.2710   26.5960   45.9990 C   0  0  0  0  0  0  0  0  0  0  0  0
   56.0630   25.2140   45.9610 C   0  0  0  0  0  0  0  0  0  0  0  0
   54.8450   24.7220   45.6190 F   0  0  0  0  0  0  0  0  0  0  0  0
   57.1090   24.3400   46.2690 C   0  0  0  0  0  0  0  0  0  0  0  0
   58.3640   24.8470   46.6220 C   0  0  0  0  0  0  0  0  0  0  0  0
   60.9230   31.4040   47.2330 C   0  0  0  0  0  0  0  0  0  0  0  0
   61.8720   30.8290   48.0990 C   0  0  0  0  0  0  0  0  0  0  0  0
   62.6430   31.6120   48.9490 C   0  0  0  0  0  0  0  0  0  0  0  0
   62.4750   33.0060   49.0060 C   0  0  0  0  0  0  0  0  0  0  0  0
   63.2530   33.7560   49.8360 C   0  0  0  0  0  0  0  0  0  0  0  0
   63.0150   35.1120   50.0860 O   0  0  0  0  0  0  0  0  0  0  0  0
   64.3960   33.1780   50.4810 N   0  0  0  0  0  0  0  0  0  0  0  0
   64.2610   32.6010   51.8190 C   0  0  0  0  0  0  0  0  0  0  0  0
   65.0980   31.3220   51.9060 C   0  0  0  0  0  0  0  0  0  0  0  0
   66.5310   31.5540   51.5910 N   0  0  0  0  0  0  0  0  0  0  0  0
   67.1490   30.3220   51.0720 C   0  0  0  0  0  0  0  0  0  0  0  0
   66.8000   32.7090   50.6980 C   0  0  0  0  0  0  0  0  0  0  0  0
   65.6440   33.0090   49.7350 C   0  0  0  0  0  0  0  0  0  0  0  0
   61.4730   33.5800   48.1930 C   0  0  0  0  0  0  0  0  0  0  0  0
   60.7180   32.8130   47.2620 C   0  0  0  0  0  0  0  0  0  0  0  0
   60.2857   35.4151   46.8329 H   0  0  0  0  0  0  0  0  0  0  0  0
   58.9125   35.1693   45.5352 H   0  0  0  0  0  0  0  0  0  0  0  0
   57.5888   34.1202   44.9664 H   0  0  0  0  0  0  0  0  0  0  0  0
   58.1162   32.9939   43.6687 H   0  0  0  0  0  0  0  0  0  0  0  0
   56.6034   28.5525   43.4618 H   0  0  0  0  0  0  0  0  0  0  0  0
   55.7570   29.1403   41.9905 H   0  0  0  0  0  0  0  0  0  0  0  0
   57.5453   28.9705   41.9905 H   0  0  0  0  0  0  0  0  0  0  0  0
   57.6322   32.5224   42.7712 H   0  0  0  0  0  0  0  0  0  0  0  0
   58.0738   31.2887   41.5425 H   0  0  0  0  0  0  0  0  0  0  0  0
   56.4274   32.0071   41.5425 H   0  0  0  0  0  0  0  0  0  0  0  0
   58.4823   30.5217   45.0064 H   0  0  0  0  0  0  0  0  0  0  0  0
   59.4430   28.6170   48.0880 H   0  0  0  0  0  0  0  0  0  0  0  0
   60.6331   26.5570   46.1980 H   0  0  0  0  0  0  0  0  0  0  0  0
   60.2862   26.3093   47.9509 H   0  0  0  0  0  0  0  0  0  0  0  0
   57.6868   28.1937   46.3715 H   0  0  0  0  0  0  0  0  0  0  0  0
   55.4479   27.2826   45.7517 H   0  0  0  0  0  0  0  0  0  0  0  0
   56.9454   23.2528   46.2338 H   0  0  0  0  0  0  0  0  0  0  0  0
   59.1876   24.1564   46.8560 H   0  0  0  0  0  0  0  0  0  0  0  0
   62.0059   29.7372   48.1028 H   0  0  0  0  0  0  0  0  0  0  0  0
   63.3984   31.1323   49.5887 H   0  0  0  0  0  0  0  0  0  0  0  0
   62.4230   35.7090   49.5270 H   0  0  0  0  0  0  0  0  0  0  0  0
   64.6159   33.3239   52.5683 H   0  0  0  0  0  0  0  0  0  0  0  0
   63.2045   32.3636   52.0127 H   0  0  0  0  0  0  0  0  0  0  0  0
   65.0224   30.9204   52.9273 H   0  0  0  0  0  0  0  0  0  0  0  0
   64.7037   30.6148   51.1614 H   0  0  0  0  0  0  0  0  0  0  0  0
   67.4667   29.6886   51.9134 H   0  0  0  0  0  0  0  0  0  0  0  0
   66.4181   29.7759   50.4575 H   0  0  0  0  0  0  0  0  0  0  0  0
   68.0237   30.5813   50.4575 H   0  0  0  0  0  0  0  0  0  0  0  0
   66.9767   33.5986   51.3203 H   0  0  0  0  0  0  0  0  0  0  0  0
   67.6775   32.4525   50.0863 H   0  0  0  0  0  0  0  0  0  0  0  0
   65.8637   33.9330   49.1802 H   0  0  0  0  0  0  0  0  0  0  0  0
   65.5326   32.1681   49.0347 H   0  0  0  0  0  0  0  0  0  0  0  0
   61.2691   34.6572   48.2825 H   0  0  0  0  0  0  0  0  0  0  0  0
  1  2  2  0
  2  3  1  0
  3  4  1  0
  4  5  1  0
  5  6  1  0
  6  7  2  0
  6  8  1  0
  8  9  1  0
  8 10  1  0
  3 11  2  0
 11 12  1  0
 12 13  1  0
 13 14  2  0
 13 15  1  0
 15 16  1  0
 16 17  1  0
 17 18  2  0
 18 19  1  0
 19 20  2  0
 20 21  1  0
 20 22  1  0
 22 23  2  0
 12 24  2  0
 24 25  1  0
 25 26  2  0
 26 27  1  0
 27 28  2  3
 28 29  1  0
 28 30  1  0
 30 31  1  0
 31 32  1  0
 32 33  1  0
 33 34  1  0
 33 35  1  0
 35 36  1  0
 27 37  1  0
 37 38  2  0
 38  2  1  0
 23 17  1  0
 38 24  1  0
 36 30  1  0
  1 39  1  0
  1 40  1  0
  4 41  1  0
  4 42  1  0
  9 43  1  0
  9 44  1  0
  9 45  1  0
 10 46  1  0
 10 47  1  0
 10 48  1  0
 11 49  1  0
 15 50  1  0
 16 51  1  0
 16 52  1  0
 18 53  1  0
 19 54  1  0
 22 55  1  0
 23 56  1  0
 25 57  1  0
 26 58  1  0
 29 59  1  0
 31 60  1  0
 31 61  1  0
 32 62  1  0
 32 63  1  0
 34 64  1  0
 34 65  1  0
 34 66  1  0
 35 67  1  0
 35 68  1  0
 36 69  1  0
 36 70  1  0
 37 71  1  0
M  CHG  1   5  -1
M  END
>  <UniqueID>  (42) 
39

>  <SMILES>  (42) 
C=c1c(C[N-]C(=O)N(C)C)cc(C(=O)NCc2ccc(F)cc2)c2ccc(=C(O)N3CCN(C)CC3)cc12

>  <Energy>  (42) 
107.54546529911778

>  <Genealogy>  (42) 
C=c1c(C[N-]C(=O)N(C)C)cc(C(=O)NCc2ccc(F)cc2)c2ccc(=C(O)N3CCN(C)CC3)cc12 (protonated)
C=c1c(C[N-]C(=O)N(C)C)cc(C(=O)NCc2ccc(F)cc2)c2ccc(=C(O)N3CCN(C)CC3)cc12 (3D coordinates assigned)
C=c1c(C[N-]C(=O)N(C)C)cc(C(=O)NCc2ccc(F)cc2)c2ccc(=C(O)N3CCN(C)CC3)cc12 (nonaromatic ring conformer: 107.54546529911778 kcal/mol)

>  <smiles>  (42) 
C=c1c(CNC(=O)N(C)C)cc(C(=O)NCc2ccc(F)cc2)c2ccc(=C(O)N3CCN(C)CC3)cc12

>  <score_type>  (42) 
oracle

>  <origin>  (42) 
adg

>  <m_score__min__energy>  (42) 
-11.220000000000001

>  <m_primary>  (42) 
energy

$$$$
42:0
     RDKit          3D

 52 55  0  0  1  0  0  0  0  0999 V2000
   56.8770   24.0420   43.5010 C   0  0  0  0  0  0  0  0  0  0  0  0
   56.7450   24.5050   44.7350 C   0  0  0  0  0  0  0  0  0  0  0  0
   55.3920   24.7910   45.3480 C   0  0  0  0  0  0  0  0  0  0  0  0
   59.2360   33.1890   47.1970 N   0  0  0  0  0  0  0  0  0  0  0  0
   58.5460   32.9010   46.1670 C   0  0  0  0  0  0  0  0  0  0  0  0
   58.0560   31.6590   45.9390 N   0  0  0  0  0  0  0  0  0  0  0  0
   57.3630   31.6890   44.7590 C   0  0  0  0  0  0  0  0  0  0  0  0
   56.5820   30.2280   44.1070 S   0  0  0  0  0  0  0  0  0  0  0  0
   57.4260   32.9650   44.2550 C   0  0  0  0  0  0  0  0  0  0  0  0
   56.9640   28.8050   45.1250 C   0  0  0  0  0  0  0  0  0  0  0  0
   56.0890   27.8130   45.3470 N   0  0  0  0  0  0  0  0  0  0  0  0
   56.4110   26.7630   46.1160 C   0  0  0  0  0  0  0  0  0  0  0  0
   55.6480   25.7760   46.3740 N   0  0  0  0  0  0  0  0  0  0  0  0
   60.1350   34.3240   47.2170 C   0  0  0  0  0  0  0  0  0  0  0  0
   59.8000   35.4530   46.8030 O   0  0  0  0  0  0  0  0  0  0  0  0
   61.4640   34.0260   47.7650 C   0  0  0  0  0  0  0  0  0  0  0  0
   62.4580   33.6020   46.8880 C   0  0  0  0  0  0  0  0  0  0  0  0
   63.7270   33.2910   47.2930 C   0  0  0  0  0  0  0  0  0  0  0  0
   64.0290   33.4040   48.6260 C   0  0  0  0  0  0  0  0  0  0  0  0
   63.0420   33.8240   49.4930 C   0  0  0  0  0  0  0  0  0  0  0  0
   61.7670   34.1400   49.1030 C   0  0  0  0  0  0  0  0  0  0  0  0
   58.1520   33.6710   45.1370 N   0  0  0  0  0  0  0  0  0  0  0  0
   58.2030   28.7750   45.6680 N   0  0  0  0  0  0  0  0  0  0  0  0
   58.5480   27.7260   46.4480 C   0  0  0  0  0  0  0  0  0  0  0  0
   59.7340   27.6730   47.0070 N   0  0  0  0  0  0  0  0  0  0  0  0
   60.1570   28.6940   47.9160 C   0  0  0  0  0  0  0  0  0  0  0  0
   59.9820   28.6090   49.2760 C   0  0  0  0  0  0  0  0  0  0  0  0
   60.4300   29.6780   50.0310 C   0  0  0  0  0  0  0  0  0  0  0  0
   61.0280   30.7830   49.4600 C   0  0  0  0  0  0  0  0  0  0  0  0
   61.1950   30.8490   48.0960 C   0  0  0  0  0  0  0  0  0  0  0  0
   60.7610   29.8040   47.3170 C   0  0  0  0  0  0  0  0  0  0  0  0
   57.6580   26.7170   46.6750 N   0  0  0  0  0  0  0  0  0  0  0  0
   57.8789   23.8465   43.0911 H   0  0  0  0  0  0  0  0  0  0  0  0
   55.9847   23.8530   42.8861 H   0  0  0  0  0  0  0  0  0  0  0  0
   57.6494   24.6876   45.3339 H   0  0  0  0  0  0  0  0  0  0  0  0
   54.7013   25.1913   44.5912 H   0  0  0  0  0  0  0  0  0  0  0  0
   54.9218   23.8833   45.7542 H   0  0  0  0  0  0  0  0  0  0  0  0
   58.1910   30.8170   46.5690 H   0  0  0  0  0  0  0  0  0  0  0  0
   56.9749   33.3328   43.3216 H   0  0  0  0  0  0  0  0  0  0  0  0
   55.1390   27.8460   44.9280 H   0  0  0  0  0  0  0  0  0  0  0  0
   62.2117   33.5128   45.8196 H   0  0  0  0  0  0  0  0  0  0  0  0
   64.4853   32.9590   46.5686 H   0  0  0  0  0  0  0  0  0  0  0  0
   65.0370   33.1647   48.9958 H   0  0  0  0  0  0  0  0  0  0  0  0
   63.2932   33.9104   50.5605 H   0  0  0  0  0  0  0  0  0  0  0  0
   61.0134   34.4725   49.8321 H   0  0  0  0  0  0  0  0  0  0  0  0
   58.3930   34.6840   45.0560 H   0  0  0  0  0  0  0  0  0  0  0  0
   59.5082   27.7326   49.7423 H   0  0  0  0  0  0  0  0  0  0  0  0
   60.3054   29.6463   51.1235 H   0  0  0  0  0  0  0  0  0  0  0  0
   61.3715   31.6120   50.0962 H   0  0  0  0  0  0  0  0  0  0  0  0
   61.6701   31.7275   47.6350 H   0  0  0  0  0  0  0  0  0  0  0  0
   60.8882   29.8402   46.2250 H   0  0  0  0  0  0  0  0  0  0  0  0
   57.9540   25.9390   47.2690 H   0  0  0  0  0  0  0  0  0  0  0  0
  1  2  2  0
  2  3  1  0
  3  4  1  0
  4  5  2  0
  5  6  1  0
  6  7  1  0
  7  8  1  0
  8  9  1  0
  9 10  2  0
 10 11  1  0
 11 12  1  0
 12 13  2  0
 13 14  1  0
 14 15  2  0
 14 16  1  0
 16 17  2  0
 17 18  1  0
 18 19  2  0
 19 20  1  0
 20 21  2  0
 12 22  1  0
  7 23  2  0
 23 24  1  0
 24 25  2  0
 25 26  1  0
 26 27  2  0
 27 28  1  0
 28 29  2  0
 29 30  1  0
 30 31  2  0
 24 32  1  0
 32  5  1  0
 22  9  1  0
 31 26  1  0
 21 16  1  0
  1 33  1  0
  1 34  1  0
  2 35  1  0
  3 36  1  0
  3 37  1  0
  6 38  1  0
 10 39  1  0
 11 40  1  0
 17 41  1  0
 18 42  1  0
 19 43  1  0
 20 44  1  0
 21 45  1  0
 22 46  1  0
 27 47  1  0
 28 48  1  0
 29 49  1  0
 30 50  1  0
 31 51  1  0
 32 52  1  0
M  END
>  <smiles>  (43) 
C=CCN=c1[nH]c(Sc2c[nH]c(=NC(=O)c3ccccc3)[nH]2)nc(=Nc2ccccc2)[nH]1

>  <score_type>  (43) 
oracle

>  <origin>  (43) 
adg

>  <m_score__min__energy>  (43) 
-9.4600000000000009

>  <m_primary>  (43) 
energy

$$$$
43:0
     RDKit          3D

 63 66  0  0  0  0  0  0  0  0999 V2000
   54.4200   28.5480   52.6060 N   0  0  0  0  0  0  0  0  0  0  0  0
   53.3680   29.5090   52.4560 C   0  0  0  0  0  0  0  0  0  0  0  0
   52.0540   29.1450   52.7910 C   0  0  0  0  0  0  0  0  0  0  0  0
   51.0050   30.0510   52.6290 C   0  0  0  0  0  0  0  0  0  0  0  0
   51.2560   31.3310   52.1340 C   0  0  0  0  0  0  0  0  0  0  0  0
   52.5580   31.7090   51.8010 C   0  0  0  0  0  0  0  0  0  0  0  0
   53.6240   30.8030   51.9490 C   0  0  0  0  0  0  0  0  0  0  0  0
   54.9680   31.2210   51.6580 N   0  0  0  0  0  0  0  0  0  0  0  0
   56.0340   31.1580   52.6240 C   0  0  0  0  0  0  0  0  0  0  0  0
   55.7950   30.7600   53.7960 O   0  0  0  0  0  0  0  0  0  0  0  0
   57.4180   31.5560   52.2670 C   0  0  0  0  0  0  0  0  0  0  0  0
   58.1600   30.8440   51.3060 C   0  0  0  0  0  0  0  0  0  0  0  0
   59.4620   31.2370   50.9810 C   0  0  0  0  0  0  0  0  0  0  0  0
   60.0440   32.3500   51.6050 C   0  0  0  0  0  0  0  0  0  0  0  0
   61.4370   32.7960   51.2300 C   0  0  0  0  0  0  0  0  0  0  0  0
   61.4500   34.1520   50.6610 N   0  0  0  0  0  0  0  0  0  0  0  0
   61.9180   34.1570   49.2700 C   0  0  0  0  0  0  0  0  0  0  0  0
   60.8870   33.5080   48.3890 C   0  0  0  0  0  0  0  0  0  0  0  0
   61.2210   32.3820   47.6210 C   0  0  0  0  0  0  0  0  0  0  0  0
   60.2760   31.8010   46.7720 C   0  0  0  0  0  0  0  0  0  0  0  0
   58.9800   32.3400   46.6690 C   0  0  0  0  0  0  0  0  0  0  0  0
   58.0040   31.7470   45.7820 N   0  0  0  0  0  0  0  0  0  0  0  0
   57.2840   32.6100   44.8280 C   0  0  0  0  0  0  0  0  0  0  0  0
   57.7300   32.4120   43.3700 C   0  0  0  0  0  0  0  0  0  0  0  0
   57.0750   31.1940   42.6840 C   0  0  0  0  0  0  0  0  0  0  0  0
   57.3230   29.9060   43.3530 N   0  0  0  0  0  0  0  0  0  0  0  0
   56.7820   29.8230   44.7190 C   0  0  0  0  0  0  0  0  0  0  0  0
   57.7670   30.2930   45.8170 C   0  0  0  0  0  0  0  0  0  0  0  0
   58.6570   33.4810   47.4260 C   0  0  0  0  0  0  0  0  0  0  0  0
   59.6030   34.0620   48.2740 C   0  0  0  0  0  0  0  0  0  0  0  0
   59.3020   33.0720   52.5500 C   0  0  0  0  0  0  0  0  0  0  0  0
   58.0010   32.6810   52.8760 C   0  0  0  0  0  0  0  0  0  0  0  0
   55.2400   28.7510   53.2230 H   0  0  0  0  0  0  0  0  0  0  0  0
   54.3800   27.6090   52.1530 H   0  0  0  0  0  0  0  0  0  0  0  0
   51.8499   28.1381   53.1841 H   0  0  0  0  0  0  0  0  0  0  0  0
   49.9786   29.7555   52.8920 H   0  0  0  0  0  0  0  0  0  0  0  0
   50.4273   32.0430   52.0060 H   0  0  0  0  0  0  0  0  0  0  0  0
   52.7518   32.7226   51.4201 H   0  0  0  0  0  0  0  0  0  0  0  0
   55.1660   31.5580   50.6920 H   0  0  0  0  0  0  0  0  0  0  0  0
   57.7123   29.9719   50.8069 H   0  0  0  0  0  0  0  0  0  0  0  0
   60.0332   30.6698   50.2314 H   0  0  0  0  0  0  0  0  0  0  0  0
   62.0679   32.7835   52.1310 H   0  0  0  0  0  0  0  0  0  0  0  0
   61.8194   32.1043   50.4650 H   0  0  0  0  0  0  0  0  0  0  0  0
   60.4810   34.5490   50.6960 H   0  0  0  0  0  0  0  0  0  0  0  0
   62.0794   35.1944   48.9417 H   0  0  0  0  0  0  0  0  0  0  0  0
   62.8626   33.5977   49.2002 H   0  0  0  0  0  0  0  0  0  0  0  0
   62.2324   31.9546   47.6879 H   0  0  0  0  0  0  0  0  0  0  0  0
   60.5470   30.9150   46.1791 H   0  0  0  0  0  0  0  0  0  0  0  0
   56.2093   32.3861   44.8975 H   0  0  0  0  0  0  0  0  0  0  0  0
   57.5095   33.6522   45.0982 H   0  0  0  0  0  0  0  0  0  0  0  0
   57.4670   33.3153   42.8000 H   0  0  0  0  0  0  0  0  0  0  0  0
   58.8145   32.2289   43.3862 H   0  0  0  0  0  0  0  0  0  0  0  0
   55.9882   31.3610   42.6535 H   0  0  0  0  0  0  0  0  0  0  0  0
   57.5285   31.1183   41.6847 H   0  0  0  0  0  0  0  0  0  0  0  0
   58.3400   29.6610   43.3300 H   0  0  0  0  0  0  0  0  0  0  0  0
   55.8799   30.4502   44.7723 H   0  0  0  0  0  0  0  0  0  0  0  0
   56.5721   28.7609   44.9138 H   0  0  0  0  0  0  0  0  0  0  0  0
   57.3512   30.0275   46.8002 H   0  0  0  0  0  0  0  0  0  0  0  0
   58.7305   29.7943   45.6355 H   0  0  0  0  0  0  0  0  0  0  0  0
   57.6510   33.9194   47.3495 H   0  0  0  0  0  0  0  0  0  0  0  0
   59.3399   34.9585   48.8546 H   0  0  0  0  0  0  0  0  0  0  0  0
   59.7468   33.9518   53.0379 H   0  0  0  0  0  0  0  0  0  0  0  0
   57.4276   33.2587   53.6159 H   0  0  0  0  0  0  0  0  0  0  0  0
  1  2  1  0
  2  3  2  0
  3  4  1  0
  4  5  2  0
  5  6  1  0
  6  7  2  0
  7  8  1  0
  8  9  1  0
  9 10  2  0
  9 11  1  0
 11 12  2  0
 12 13  1  0
 13 14  2  0
 14 15  1  0
 15 16  1  0
 16 17  1  0
 17 18  1  0
 18 19  2  0
 19 20  1  0
 20 21  2  0
 21 22  1  0
 22 23  1  0
 23 24  1  0
 24 25  1  0
 25 26  1  0
 26 27  1  0
 27 28  1  0
 21 29  1  0
 29 30  2  0
 14 31  1  0
 31 32  2  0
  7  2  1  0
 32 11  1  0
 30 18  1  0
 28 22  1  0
  1 33  1  0
  1 34  1  0
  3 35  1  0
  4 36  1  0
  5 37  1  0
  6 38  1  0
  8 39  1  0
 12 40  1  0
 13 41  1  0
 15 42  1  0
 15 43  1  0
 16 44  1  0
 17 45  1  0
 17 46  1  0
 19 47  1  0
 20 48  1  0
 23 49  1  0
 23 50  1  0
 24 51  1  0
 24 52  1  0
 25 53  1  0
 25 54  1  0
 26 55  1  0
 27 56  1  0
 27 57  1  0
 28 58  1  0
 28 59  1  0
 29 60  1  0
 30 61  1  0
 31 62  1  0
 32 63  1  0
M  END
>  <UniqueID>  (44) 
40

>  <SMILES>  (44) 
Nc1ccccc1NC(=O)c1ccc(CNCc2ccc(N3CCCNCC3)cc2)cc1

>  <Energy>  (44) 
84.74274807350476

>  <Genealogy>  (44) 
Nc1ccccc1NC(=O)c1ccc(CNCc2ccc(N3CCCNCC3)cc2)cc1 (3D coordinates assigned)
Nc1ccccc1NC(=O)c1ccc(CNCc2ccc(N3CCCNCC3)cc2)cc1 (nonaromatic ring conformer: 84.74274807350476 kcal/mol)

>  <smiles>  (44) 
Nc1ccccc1NC(=O)c1ccc(CNCc2ccc(N3CCCNCC3)cc2)cc1

>  <score_type>  (44) 
oracle

>  <origin>  (44) 
adg

>  <m_score__min__energy>  (44) 
-7.3200000000000003

>  <m_primary>  (44) 
energy

$$$$
44:0
     RDKit          3D

 48 51  0  0  0  0  0  0  0  0999 V2000
   62.9140   31.7170   48.8930 C   0  0  0  0  0  0  0  0  0  0  0  0
   63.3230   33.0680   48.4670 N   0  0  0  0  0  0  0  0  0  0  0  0
   63.3750   33.1990   46.9900 C   0  0  0  0  0  0  0  0  0  0  0  0
   62.1050   33.8340   46.3870 C   0  0  0  0  0  0  0  0  0  0  0  0
   60.9420   33.5240   47.2350 N   0  0  0  0  0  0  0  0  0  0  0  0
   59.6460   33.7980   46.5760 C   0  0  0  0  0  0  0  0  0  0  0  0
   58.9240   32.5540   46.1320 C   0  0  0  0  0  0  0  0  0  0  0  0
   59.1420   31.3370   46.6960 N   0  0  0  0  0  0  0  0  0  0  0  0
   58.2840   30.5520   46.0300 C   0  0  0  0  0  0  0  0  0  0  0  0
   58.0730   29.1860   46.1990 C   0  0  0  0  0  0  0  0  0  0  0  0
   57.0980   28.5550   45.3870 C   0  0  0  0  0  0  0  0  0  0  0  0
   56.8220   27.1020   45.5150 C   0  0  0  0  0  0  0  0  0  0  0  0
   55.7160   26.7220   45.9890 O   0  0  0  0  0  0  0  0  0  0  0  0
   57.8150   26.1240   45.1560 N   0  0  0  0  0  0  0  0  0  0  0  0
   57.5210   24.7500   44.8450 C   0  0  0  0  0  0  0  0  0  0  0  0
   56.8640   24.3860   43.6530 C   0  0  0  0  0  0  0  0  0  0  0  0
   56.6060   23.0410   43.3700 C   0  0  0  0  0  0  0  0  0  0  0  0
   57.0160   22.0460   44.2620 C   0  0  0  0  0  0  0  0  0  0  0  0
   57.6910   22.3940   45.4350 C   0  0  0  0  0  0  0  0  0  0  0  0
   58.1010   21.4280   46.2920 F   0  0  0  0  0  0  0  0  0  0  0  0
   57.9460   23.7390   45.7240 C   0  0  0  0  0  0  0  0  0  0  0  0
   56.3900   29.3310   44.4250 C   0  0  0  0  0  0  0  0  0  0  0  0
   56.6360   30.7080   44.2850 C   0  0  0  0  0  0  0  0  0  0  0  0
   57.5950   31.2810   45.1120 C   0  0  0  0  0  0  0  0  0  0  0  0
   57.9820   32.5630   45.1520 N   0  0  0  0  0  0  0  0  0  0  0  0
   61.0550   34.1510   48.5680 C   0  0  0  0  0  0  0  0  0  0  0  0
   62.5060   34.1210   49.1020 C   0  0  0  0  0  0  0  0  0  0  0  0
   62.8991   31.6678   49.9918 H   0  0  0  0  0  0  0  0  0  0  0  0
   61.9093   31.4979   48.5025 H   0  0  0  0  0  0  0  0  0  0  0  0
   63.6285   30.9774   48.5025 H   0  0  0  0  0  0  0  0  0  0  0  0
   64.2384   33.8273   46.7257 H   0  0  0  0  0  0  0  0  0  0  0  0
   63.4584   32.1832   46.5763 H   0  0  0  0  0  0  0  0  0  0  0  0
   62.2343   34.9248   46.3290 H   0  0  0  0  0  0  0  0  0  0  0  0
   61.9386   33.4265   45.3789 H   0  0  0  0  0  0  0  0  0  0  0  0
   59.0026   34.3399   47.2847 H   0  0  0  0  0  0  0  0  0  0  0  0
   59.8604   34.3879   45.6726 H   0  0  0  0  0  0  0  0  0  0  0  0
   58.6470   28.6128   46.9419 H   0  0  0  0  0  0  0  0  0  0  0  0
   58.8210   26.3980   45.2340 H   0  0  0  0  0  0  0  0  0  0  0  0
   56.5522   25.1642   42.9409 H   0  0  0  0  0  0  0  0  0  0  0  0
   56.0797   22.7657   42.4441 H   0  0  0  0  0  0  0  0  0  0  0  0
   56.8073   20.9889   44.0406 H   0  0  0  0  0  0  0  0  0  0  0  0
   58.4830   24.0071   46.6458 H   0  0  0  0  0  0  0  0  0  0  0  0
   55.6402   28.8460   43.7826 H   0  0  0  0  0  0  0  0  0  0  0  0
   56.0882   31.3114   43.5462 H   0  0  0  0  0  0  0  0  0  0  0  0
   60.7244   35.1977   48.4971 H   0  0  0  0  0  0  0  0  0  0  0  0
   60.4246   33.5806   49.2660 H   0  0  0  0  0  0  0  0  0  0  0  0
   62.9741   35.0968   48.9052 H   0  0  0  0  0  0  0  0  0  0  0  0
   62.4601   33.9029   50.1792 H   0  0  0  0  0  0  0  0  0  0  0  0
  1  2  1  0
  2  3  1  0
  3  4  1  0
  4  5  1  0
  5  6  1  0
  6  7  1  0
  7  8  2  0
  8  9  1  0
  9 10  2  0
 10 11  1  0
 11 12  1  0
 12 13  2  0
 12 14  1  0
 14 15  1  0
 15 16  2  0
 16 17  1  0
 17 18  2  0
 18 19  1  0
 19 20  1  0
 19 21  2  0
 11 22  2  0
 22 23  1  0
 23 24  2  0
 24 25  1  0
  5 26  1  0
 26 27  1  0
 27  2  1  0
 25  7  1  0
 24  9  1  0
 21 15  1  0
  1 28  1  0
  1 29  1  0
  1 30  1  0
  3 31  1  0
  3 32  1  0
  4 33  1  0
  4 34  1  0
  6 35  1  0
  6 36  1  0
 10 37  1  0
 14 38  1  0
 16 39  1  0
 17 40  1  0
 18 41  1  0
 21 42  1  0
 22 43  1  0
 23 44  1  0
 26 45  1  0
 26 46  1  0
 27 47  1  0
 27 48  1  0
M  CHG  1  25  -1
M  END
>  <UniqueID>  (45) 
41

>  <SMILES>  (45) 
CN1CCN(Cc2nc3cc(C(=O)Nc4cccc(F)c4)ccc3[n-]2)CC1

>  <Energy>  (45) 
103.63525301840217

>  <Genealogy>  (45) 
CN1CCN(Cc2nc3cc(C(=O)Nc4cccc(F)c4)ccc3[n-]2)CC1 (protonated)
CN1CCN(Cc2nc3cc(C(=O)Nc4cccc(F)c4)ccc3[n-]2)CC1 (3D coordinates assigned)
CN1CCN(Cc2nc3cc(C(=O)Nc4cccc(F)c4)ccc3[n-]2)CC1 (nonaromatic ring conformer: 103.63525301840217 kcal/mol)

>  <smiles>  (45) 
CN1CCN(Cc2nc3cc(C(=O)Nc4cccc(F)c4)ccc3[nH]2)CC1

>  <score_type>  (45) 
oracle

>  <origin>  (45) 
adg

>  <m_score__min__energy>  (45) 
-9.0199999999999996

>  <m_primary>  (45) 
energy

$$$$
45:0
     RDKit          3D

 45 47  0  0  0  0  0  0  0  0999 V2000
   55.1610   26.6800   46.0320 N   0  0  0  0  0  0  0  0  0  0  0  0
   56.8790   26.7560   45.8730 S   0  0  0  0  0  0  0  0  0  0  0  0
   57.3250   25.8270   44.7790 O   0  0  0  0  0  0  0  0  0  0  0  0
   57.5200   26.3250   47.1620 O   0  0  0  0  0  0  0  0  0  0  0  0
   57.3630   28.4050   45.4880 C   0  0  0  0  0  0  0  0  0  0  0  0
   58.6090   28.8910   45.9030 C   0  0  0  0  0  0  0  0  0  0  0  0
   58.9880   30.2030   45.6070 C   0  0  0  0  0  0  0  0  0  0  0  0
   58.1190   31.0500   44.8910 C   0  0  0  0  0  0  0  0  0  0  0  0
   58.4420   32.3750   44.5620 O   0  0  0  0  0  0  0  0  0  0  0  0
   57.8230   33.5510   45.0970 C   0  0  0  0  0  0  0  0  0  0  0  0
   57.5220   33.3610   46.5910 C   0  0  0  0  0  0  0  0  0  0  0  0
   58.8200   33.1880   47.4020 C   0  0  0  0  0  0  0  0  0  0  0  0
   59.9200   34.1070   46.9960 N   0  0  0  0  0  0  0  0  0  0  0  0
   61.0760   33.4010   46.4030 C   0  0  0  0  0  0  0  0  0  0  0  0
   62.0700   33.0390   47.4690 C   0  0  0  0  0  0  0  0  0  0  0  0
   61.8510   31.9330   48.3020 C   0  0  0  0  0  0  0  0  0  0  0  0
   62.7990   31.6080   49.2760 C   0  0  0  0  0  0  0  0  0  0  0  0
   62.6130   30.6160   50.0290 O   0  0  0  0  0  0  0  0  0  0  0  0
   63.9550   32.3880   49.4090 C   0  0  0  0  0  0  0  0  0  0  0  0
   64.9070   32.0720   50.3770 O   0  0  0  0  0  0  0  0  0  0  0  0
   64.1380   33.4850   48.5570 C   0  0  0  0  0  0  0  0  0  0  0  0
   63.2020   33.7810   47.6160 N   0  0  0  0  0  0  0  0  0  0  0  0
   59.4660   35.2350   46.1540 C   0  0  0  0  0  0  0  0  0  0  0  0
   58.7550   34.7620   44.8710 C   0  0  0  0  0  0  0  0  0  0  0  0
   56.8690   30.5600   44.4920 C   0  0  0  0  0  0  0  0  0  0  0  0
   56.4910   29.2480   44.7880 C   0  0  0  0  0  0  0  0  0  0  0  0
   54.7640   26.7100   45.0660 H   0  0  0  0  0  0  0  0  0  0  0  0
   59.2924   28.2371   46.4645 H   0  0  0  0  0  0  0  0  0  0  0  0
   59.9695   30.5763   45.9345 H   0  0  0  0  0  0  0  0  0  0  0  0
   56.8684   33.7337   44.5818 H   0  0  0  0  0  0  0  0  0  0  0  0
   56.9810   34.2435   46.9633 H   0  0  0  0  0  0  0  0  0  0  0  0
   56.9120   32.4535   46.7112 H   0  0  0  0  0  0  0  0  0  0  0  0
   58.5914   33.3707   48.4624 H   0  0  0  0  0  0  0  0  0  0  0  0
   59.1768   32.1647   47.2135 H   0  0  0  0  0  0  0  0  0  0  0  0
   60.7254   32.4836   45.9075 H   0  0  0  0  0  0  0  0  0  0  0  0
   61.5620   34.0631   45.6713 H   0  0  0  0  0  0  0  0  0  0  0  0
   60.9405   31.3260   48.1899 H   0  0  0  0  0  0  0  0  0  0  0  0
   64.7720   31.3020   51.0220 H   0  0  0  0  0  0  0  0  0  0  0  0
   65.0400   34.1077   48.6494 H   0  0  0  0  0  0  0  0  0  0  0  0
   58.7675   35.8526   46.7377 H   0  0  0  0  0  0  0  0  0  0  0  0
   60.3556   35.8076   45.8526 H   0  0  0  0  0  0  0  0  0  0  0  0
   58.1545   35.5955   44.4776 H   0  0  0  0  0  0  0  0  0  0  0  0
   59.5364   34.4432   44.1654 H   0  0  0  0  0  0  0  0  0  0  0  0
   56.1782   31.2145   43.9402 H   0  0  0  0  0  0  0  0  0  0  0  0
   55.5057   28.8761   44.4703 H   0  0  0  0  0  0  0  0  0  0  0  0
  1  2  1  0
  2  3  2  0
  2  4  2  0
  2  5  1  0
  5  6  2  0
  6  7  1  0
  7  8  2  0
  8  9  1  0
  9 10  1  0
 10 11  1  0
 11 12  1  0
 12 13  1  0
 13 14  1  0
 14 15  1  0
 15 16  2  0
 16 17  1  0
 17 18  2  0
 17 19  1  0
 19 20  1  0
 19 21  2  0
 21 22  1  0
 13 23  1  0
 23 24  1  0
  8 25  1  0
 25 26  2  0
 26  5  1  0
 24 10  1  0
 22 15  1  0
  1 27  1  0
  6 28  1  0
  7 29  1  0
 10 30  1  0
 11 31  1  0
 11 32  1  0
 12 33  1  0
 12 34  1  0
 14 35  1  0
 14 36  1  0
 16 37  1  0
 20 38  1  0
 21 39  1  0
 23 40  1  0
 23 41  1  0
 24 42  1  0
 24 43  1  0
 25 44  1  0
 26 45  1  0
M  CHG  2   1  -1  22  -1
M  END
>  <UniqueID>  (46) 
42

>  <SMILES>  (46) 
[NH-]S(=O)(=O)c1ccc(OC2CCN(Cc3cc(=O)c(O)c[n-]3)CC2)cc1

>  <Energy>  (46) 
56.14002704595773

>  <Genealogy>  (46) 
[NH-]S(=O)(=O)c1ccc(OC2CCN(Cc3cc(=O)c(O)c[n-]3)CC2)cc1 (protonated)
[NH-]S(=O)(=O)c1ccc(OC2CCN(Cc3cc(=O)c(O)c[n-]3)CC2)cc1 (3D coordinates assigned)
[NH-]S(=O)(=O)c1ccc(OC2CCN(Cc3cc(=O)c(O)c[n-]3)CC2)cc1 (nonaromatic ring conformer: 56.14002704595773 kcal/mol)

>  <smiles>  (46) 
NS(=O)(=O)c1ccc(OC2CCN(Cc3cc(=O)c(O)c[nH]3)CC2)cc1

>  <score_type>  (46) 
oracle

>  <origin>  (46) 
adg

>  <m_score__min__energy>  (46) 
-11.51

>  <m_primary>  (46) 
energy

$$$$
46:0
     RDKit          3D

 39 42  0  0  0  0  0  0  0  0999 V2000
   55.5140   29.7180   43.3790 C   0  0  0  0  0  0  0  0  0  0  0  0
   56.8070   29.5060   44.1070 C   0  0  0  0  0  0  0  0  0  0  0  0
   57.4650   28.2700   44.0000 C   0  0  0  0  0  0  0  0  0  0  0  0
   58.6750   28.0550   44.6610 C   0  0  0  0  0  0  0  0  0  0  0  0
   59.2490   29.0720   45.4280 C   0  0  0  0  0  0  0  0  0  0  0  0
   58.6220   30.3260   45.5380 C   0  0  0  0  0  0  0  0  0  0  0  0
   59.1890   31.3770   46.2940 C   0  0  0  0  0  0  0  0  0  0  0  0
   60.2720   31.1920   46.9170 O   0  0  0  0  0  0  0  0  0  0  0  0
   58.5300   32.6270   46.3650 C   0  0  0  0  0  0  0  0  0  0  0  0
   59.0650   33.7730   47.1480 C   0  0  0  0  0  0  0  0  0  0  0  0
   58.7530   34.9370   46.8150 O   0  0  0  0  0  0  0  0  0  0  0  0
   59.9480   33.5830   48.2670 N   0  0  0  0  0  0  0  0  0  0  0  0
   59.3290   33.5540   49.6050 C   0  0  0  0  0  0  0  0  0  0  0  0
   60.3590   33.4800   50.7400 C   0  0  0  0  0  0  0  0  0  0  0  0
   61.3860   32.0030   50.4840 S   0  0  0  0  0  0  0  0  0  0  0  0
   62.1490   32.7020   49.0210 C   0  0  0  0  0  0  0  0  0  0  0  0
   63.5300   32.5790   48.8450 C   0  0  0  0  0  0  0  0  0  0  0  0
   64.1510   33.1250   47.7220 C   0  0  0  0  0  0  0  0  0  0  0  0
   63.3870   33.7710   46.7530 C   0  0  0  0  0  0  0  0  0  0  0  0
   62.0000   33.8730   46.8970 C   0  0  0  0  0  0  0  0  0  0  0  0
   61.3650   33.3590   48.0460 C   0  0  0  0  0  0  0  0  0  0  0  0
   57.3170   32.7800   45.6760 C   0  0  0  0  0  0  0  0  0  0  0  0
   56.7900   31.7560   44.9550 N   0  0  0  0  0  0  0  0  0  0  0  0
   57.3960   30.5430   44.8630 C   0  0  0  0  0  0  0  0  0  0  0  0
   54.7007   29.8514   44.1075 H   0  0  0  0  0  0  0  0  0  0  0  0
   55.5916   30.6154   42.7476 H   0  0  0  0  0  0  0  0  0  0  0  0
   55.3009   28.8428   42.7476 H   0  0  0  0  0  0  0  0  0  0  0  0
   57.0240   27.4666   43.3916 H   0  0  0  0  0  0  0  0  0  0  0  0
   59.1790   27.0808   44.5778 H   0  0  0  0  0  0  0  0  0  0  0  0
   60.1998   28.8902   45.9505 H   0  0  0  0  0  0  0  0  0  0  0  0
   58.7300   34.4675   49.7341 H   0  0  0  0  0  0  0  0  0  0  0  0
   58.7104   32.6462   49.6620 H   0  0  0  0  0  0  0  0  0  0  0  0
   60.9918   34.3797   50.7271 H   0  0  0  0  0  0  0  0  0  0  0  0
   59.8477   33.4219   51.7122 H   0  0  0  0  0  0  0  0  0  0  0  0
   64.1313   32.0478   49.5975 H   0  0  0  0  0  0  0  0  0  0  0  0
   65.2415   33.0457   47.6018 H   0  0  0  0  0  0  0  0  0  0  0  0
   63.8779   34.2037   45.8688 H   0  0  0  0  0  0  0  0  0  0  0  0
   61.4018   34.3563   46.1105 H   0  0  0  0  0  0  0  0  0  0  0  0
   56.7856   33.7421   45.7203 H   0  0  0  0  0  0  0  0  0  0  0  0
  1  2  1  0
  2  3  2  0
  3  4  1  0
  4  5  2  0
  5  6  1  0
  6  7  1  0
  7  8  2  0
  7  9  1  0
  9 10  1  0
 10 11  2  0
 10 12  1  0
 12 13  1  0
 13 14  1  0
 14 15  1  0
 15 16  1  0
 16 17  2  0
 17 18  1  0
 18 19  2  0
 19 20  1  0
 20 21  2  0
  9 22  2  0
 22 23  1  0
 23 24  1  0
 24  2  1  0
 24  6  2  0
 21 12  1  0
 21 16  1  0
  1 25  1  0
  1 26  1  0
  1 27  1  0
  3 28  1  0
  4 29  1  0
  5 30  1  0
 13 31  1  0
 13 32  1  0
 14 33  1  0
 14 34  1  0
 17 35  1  0
 18 36  1  0
 19 37  1  0
 20 38  1  0
 22 39  1  0
M  CHG  1  23  -1
M  END
>  <UniqueID>  (47) 
43

>  <SMILES>  (47) 
Cc1cccc2c(=O)c(C(=O)N3CCSc4ccccc43)c[n-]c12

>  <Energy>  (47) 
62.93609608257654

>  <Genealogy>  (47) 
Cc1cccc2c(=O)c(C(=O)N3CCSc4ccccc43)c[n-]c12 (protonated)
Cc1cccc2c(=O)c(C(=O)N3CCSc4ccccc43)c[n-]c12 (3D coordinates assigned)
Cc1cccc2c(=O)c(C(=O)N3CCSc4ccccc43)c[n-]c12 (nonaromatic ring conformer: 62.93609608257654 kcal/mol)

>  <smiles>  (47) 
Cc1cccc2c(=O)c(C(=O)N3CCSc4ccccc43)c[nH]c12

>  <score_type>  (47) 
oracle

>  <origin>  (47) 
adg

>  <m_score__min__energy>  (47) 
-9.3000000000000007

>  <m_primary>  (47) 
energy

$$$$
47:0
     RDKit          3D

 71 74  0  0  0  0  0  0  0  0999 V2000
   57.3046   34.4217   45.1741 H   0  0  0  0  0  0  0  0  0  0  0  0
   57.8230   33.5410   45.5810 C   0  0  0  0  0  0  0  0  0  0  0  0
   57.3460   32.3320   45.2610 C   0  0  0  0  0  0  0  0  0  0  0  0
   56.5456   31.9086   45.8856 H   0  0  0  0  0  0  0  0  0  0  0  0
   57.8420   31.5180   44.0950 C   0  0  0  0  0  0  0  0  0  0  0  0
   58.7581   31.9787   43.6969 H   0  0  0  0  0  0  0  0  0  0  0  0
   57.0595   31.4942   43.3223 H   0  0  0  0  0  0  0  0  0  0  0  0
   58.1440   30.1060   44.5210 C   0  0  0  0  0  0  0  0  0  0  0  0
   57.4440   29.0110   44.0560 C   0  0  0  0  0  0  0  0  0  0  0  0
   56.6364   29.0198   43.3092 H   0  0  0  0  0  0  0  0  0  0  0  0
   57.9520   27.8970   44.7090 C   0  0  0  0  0  0  0  0  0  0  0  0
   57.5530   26.6140   44.5610 C   0  0  0  0  0  0  0  0  0  0  0  0
   57.5513   26.2048   43.5399 H   0  0  0  0  0  0  0  0  0  0  0  0
   57.1180   25.7100   45.6500 C   0  0  0  0  0  0  0  0  0  0  0  0
   57.8570   24.7420   46.2190 N   0  0  0  0  0  0  0  0  0  0  0  0
   57.0460   24.2440   47.1750 C   0  0  0  0  0  0  0  0  0  0  0  0
   57.3870   23.2980   47.9310 O   0  0  0  0  0  0  0  0  0  0  0  0
   55.8380   24.8410   47.2600 N   0  0  0  0  0  0  0  0  0  0  0  0
   55.9050   25.7710   46.2950 C   0  0  0  0  0  0  0  0  0  0  0  0
   54.8690   26.6480   45.9970 O   0  0  0  0  0  0  0  0  0  0  0  0
   58.9520   28.3750   45.5700 C   0  0  0  0  0  0  0  0  0  0  0  0
   59.6910   27.6230   46.4040 C   0  0  0  0  0  0  0  0  0  0  0  0
   60.4533   28.0954   47.0410 H   0  0  0  0  0  0  0  0  0  0  0  0
   59.5334   26.5353   46.4494 H   0  0  0  0  0  0  0  0  0  0  0  0
   59.0640   29.7280   45.4460 N   0  0  0  0  0  0  0  0  0  0  0  0
   59.9930   30.6280   46.1590 C   0  0  0  0  0  0  0  0  0  0  0  0
   61.0252   30.3100   45.9505 H   0  0  0  0  0  0  0  0  0  0  0  0
   59.8118   31.6530   45.8033 H   0  0  0  0  0  0  0  0  0  0  0  0
   59.7650   30.6070   47.6810 C   0  0  0  0  0  0  0  0  0  0  0  0
   59.8383   31.6382   48.0568 H   0  0  0  0  0  0  0  0  0  0  0  0
   58.7712   30.1667   47.8498 H   0  0  0  0  0  0  0  0  0  0  0  0
   60.7760   29.7380   48.4490 C   0  0  0  0  0  0  0  0  0  0  0  0
   60.7132   28.7063   48.0726 H   0  0  0  0  0  0  0  0  0  0  0  0
   61.7769   30.1648   48.2876 H   0  0  0  0  0  0  0  0  0  0  0  0
   60.5080   29.7290   49.9610 C   0  0  0  0  0  0  0  0  0  0  0  0
   59.6490   29.0747   50.1710 H   0  0  0  0  0  0  0  0  0  0  0  0
   61.4067   29.3586   50.4759 H   0  0  0  0  0  0  0  0  0  0  0  0
   60.1990   31.1420   50.4680 C   0  0  0  0  0  0  0  0  0  0  0  0
   61.1450   31.6592   50.6861 H   0  0  0  0  0  0  0  0  0  0  0  0
   59.6347   31.6748   49.6884 H   0  0  0  0  0  0  0  0  0  0  0  0
   59.3450   31.1030   51.7430 C   0  0  0  0  0  0  0  0  0  0  0  0
   59.5535   30.1663   52.2808 H   0  0  0  0  0  0  0  0  0  0  0  0
   59.6068   31.9805   52.3524 H   0  0  0  0  0  0  0  0  0  0  0  0
   57.8650   31.1720   51.4400 C   0  0  0  0  0  0  0  0  0  0  0  0
   57.4210   32.1220   50.8060 O   0  0  0  0  0  0  0  0  0  0  0  0
   56.9670   30.1490   51.9440 N   0  0  0  0  0  0  0  0  0  0  0  0
   56.9990   29.3230   51.2980 H   0  0  0  0  0  0  0  0  0  0  0  0
   55.5760   30.6530   51.9800 C   0  0  0  0  0  0  0  0  0  0  0  0
   55.5711   31.6579   52.4273 H   0  0  0  0  0  0  0  0  0  0  0  0
   55.1919   30.6820   50.9496 H   0  0  0  0  0  0  0  0  0  0  0  0
   54.6620   29.7280   52.8130 C   0  0  0  0  0  0  0  0  0  0  0  0
   54.4680   30.1984   53.7883 H   0  0  0  0  0  0  0  0  0  0  0  0
   53.7219   29.5779   52.2619 H   0  0  0  0  0  0  0  0  0  0  0  0
   55.2670   28.4660   53.0210 O   0  0  0  0  0  0  0  0  0  0  0  0
   56.4270   28.6130   53.8230 C   0  0  0  0  0  0  0  0  0  0  0  0
   56.1183   28.8938   54.8408 H   0  0  0  0  0  0  0  0  0  0  0  0
   56.9634   27.6527   53.8120 H   0  0  0  0  0  0  0  0  0  0  0  0
   57.3910   29.6940   53.2820 C   0  0  0  0  0  0  0  0  0  0  0  0
   57.3946   30.5518   53.9706 H   0  0  0  0  0  0  0  0  0  0  0  0
   58.3996   29.2617   53.2052 H   0  0  0  0  0  0  0  0  0  0  0  0
   58.9990   33.7710   46.4440 C   0  0  0  0  0  0  0  0  0  0  0  0
   60.2960   33.8540   45.9070 C   0  0  0  0  0  0  0  0  0  0  0  0
   60.4464   33.7686   44.8207 H   0  0  0  0  0  0  0  0  0  0  0  0
   61.3960   34.0450   46.7510 C   0  0  0  0  0  0  0  0  0  0  0  0
   62.4076   34.1213   46.3259 H   0  0  0  0  0  0  0  0  0  0  0  0
   61.2110   34.1390   48.1340 C   0  0  0  0  0  0  0  0  0  0  0  0
   62.0756   34.2970   48.7955 H   0  0  0  0  0  0  0  0  0  0  0  0
   59.9270   34.0320   48.6750 C   0  0  0  0  0  0  0  0  0  0  0  0
   59.7822   34.0996   49.7633 H   0  0  0  0  0  0  0  0  0  0  0  0
   58.8250   33.8390   47.8340 C   0  0  0  0  0  0  0  0  0  0  0  0
   57.8179   33.7402   48.2652 H   0  0  0  0  0  0  0  0  0  0  0  0
  1  2  1  0
  2  3  2  3
  3  4  1  0
  3  5  1  0
  5  6  1  0
  5  7  1  0
  5  8  1  0
  8  9  2  0
  9 10  1  0
  9 11  1  0
 11 12  2  0
 12 13  1  0
 12 14  1  0
 14 15  1  0
 15 16  1  0
 16 17  2  0
 16 18  1  0
 18 19  1  0
 19 20  1  0
 11 21  1  0
 21 22  2  0
 22 23  1  0
 22 24  1  0
 21 25  1  0
 25 26  1  0
 26 27  1  0
 26 28  1  0
 26 29  1  0
 29 30  1  0
 29 31  1  0
 29 32  1  0
 32 33  1  0
 32 34  1  0
 32 35  1  0
 35 36  1  0
 35 37  1  0
 35 38  1  0
 38 39  1  0
 38 40  1  0
 38 41  1  0
 41 42  1  0
 41 43  1  0
 41 44  1  0
 44 45  2  0
 44 46  1  0
 46 47  1  0
 46 48  1  0
 48 49  1  0
 48 50  1  0
 48 51  1  0
 51 52  1  0
 51 53  1  0
 51 54  1  0
 54 55  1  0
 55 56  1  0
 55 57  1  0
 55 58  1  0
 58 59  1  0
 58 60  1  0
  2 61  1  0
 61 62  2  0
 62 63  1  0
 62 64  1  0
 64 65  1  0
 64 66  2  0
 66 67  1  0
 66 68  1  0
 68 69  1  0
 68 70  2  0
 70 71  1  0
 25  8  1  0
 58 46  1  0
 70 61  1  0
 19 14  2  0
M  CHG  4  15  -1  18  -1  20  -1  46   1
M  END
>  <UniqueID>  (48) 
44

>  <SMILES>  (48) 
C=c1/c(=C/c2[n-]c(=O)[n-]c2[O-])cc(CC=Cc2ccccc2)n1CCCCCCC(=O)[NH+]1CCOCC1

>  <Energy>  (48) 
142.16098114961326

>  <Genealogy>  (48) 
C=c1c(=Cc2[n-]c(=O)[n-]c2[O-])cc(CC=Cc2ccccc2)n1CCCCCCC(=O)[NH+]1CCOCC1 (protonated)
C=c1/c(=C/c2[n-]c(=O)[n-]c2[O-])cc(CC=Cc2ccccc2)n1CCCCCCC(=O)[NH+]1CCOCC1 (cis-trans isomerization)
C=c1/c(=C/c2[n-]c(=O)[n-]c2[O-])cc(CC=Cc2ccccc2)n1CCCCCCC(=O)[NH+]1CCOCC1 (3D coordinates assigned)
C=c1/c(=C/c2[n-]c(=O)[n-]c2[O-])cc(CC=Cc2ccccc2)n1CCCCCCC(=O)[NH+]1CCOCC1 (nonaromatic ring conformer: 142.16098114961326 kcal/mol)

>  <smiles>  (48) 
C=c1c(=Cc2[nH]c(=O)[nH]c2O)cc(CC=Cc2ccccc2)n1CCCCCCC(=O)N1CCOCC1

>  <score_type>  (48) 
oracle

>  <origin>  (48) 
adg

>  <m_score__min__energy>  (48) 
-15.390000000000001

>  <m_primary>  (48) 
energy

$$$$
48:0
     RDKit          3D

 49 50  0  0  0  0  0  0  0  0999 V2000
   65.4180   32.9310   49.9790 C   0  0  0  0  0  0  0  0  0  0  0  0
   64.1180   33.2450   49.3080 C   0  0  0  0  0  0  0  0  0  0  0  0
   63.3650   34.1220   49.8080 O   0  0  0  0  0  0  0  0  0  0  0  0
   63.7850   32.6200   48.0570 N   0  0  0  0  0  0  0  0  0  0  0  0
   62.4840   32.6870   47.4510 C   0  0  0  0  0  0  0  0  0  0  0  0
   61.5870   31.6040   47.5160 C   0  0  0  0  0  0  0  0  0  0  0  0
   60.3390   31.6830   46.8930 C   0  0  0  0  0  0  0  0  0  0  0  0
   59.9790   32.8350   46.1800 C   0  0  0  0  0  0  0  0  0  0  0  0
   58.4230   32.9290   45.3610 S   0  0  0  0  0  0  0  0  0  0  0  0
   57.3780   32.2030   46.1610 O   0  0  0  0  0  0  0  0  0  0  0  0
   58.0180   34.3710   45.2540 O   0  0  0  0  0  0  0  0  0  0  0  0
   58.5140   32.2490   43.7630 N   0  0  0  0  0  0  0  0  0  0  0  0
   57.2500   31.6130   43.3810 C   0  0  0  0  0  0  0  0  0  0  0  0
   57.0110   30.3670   44.1830 C   0  0  0  0  0  0  0  0  0  0  0  0
   55.7840   29.9330   44.5340 N   0  0  0  0  0  0  0  0  0  0  0  0
   55.9530   28.8250   45.2450 N   0  0  0  0  0  0  0  0  0  0  0  0
   57.2790   28.5990   45.3080 C   0  0  0  0  0  0  0  0  0  0  0  0
   58.0110   27.2230   46.1990 S   0  0  0  0  0  0  0  0  0  0  0  0
   57.4160   25.9820   45.0030 C   0  0  0  0  0  0  0  0  0  0  0  0
   56.0990   25.4260   45.4660 C   0  0  0  0  0  0  0  0  0  0  0  0
   55.4460   26.0810   46.3250 O   0  0  0  0  0  0  0  0  0  0  0  0
   55.5480   24.2010   44.9250 N   0  0  0  0  0  0  0  0  0  0  0  0
   56.2710   23.4280   43.9070 C   0  0  0  0  0  0  0  0  0  0  0  0
   54.2290   23.7560   45.3840 C   0  0  0  0  0  0  0  0  0  0  0  0
   57.9730   29.5340   44.6350 N   0  0  0  0  0  0  0  0  0  0  0  0
   59.4230   29.6630   44.5120 C   0  0  0  0  0  0  0  0  0  0  0  0
   60.8780   33.9070   46.0930 C   0  0  0  0  0  0  0  0  0  0  0  0
   62.1210   33.8320   46.7270 C   0  0  0  0  0  0  0  0  0  0  0  0
   65.2845   32.9632   51.0704 H   0  0  0  0  0  0  0  0  0  0  0  0
   65.7517   31.9264   49.6800 H   0  0  0  0  0  0  0  0  0  0  0  0
   66.1735   33.6725   49.6800 H   0  0  0  0  0  0  0  0  0  0  0  0
   64.5550   32.1610   47.5200 H   0  0  0  0  0  0  0  0  0  0  0  0
   61.8701   30.6909   48.0601 H   0  0  0  0  0  0  0  0  0  0  0  0
   59.6370   30.8390   46.9622 H   0  0  0  0  0  0  0  0  0  0  0  0
   56.4246   32.3183   43.5576 H   0  0  0  0  0  0  0  0  0  0  0  0
   57.3026   31.3401   42.3167 H   0  0  0  0  0  0  0  0  0  0  0  0
   57.2877   26.4549   44.0181 H   0  0  0  0  0  0  0  0  0  0  0  0
   58.1503   25.1665   44.9273 H   0  0  0  0  0  0  0  0  0  0  0  0
   56.9426   22.7099   44.4003 H   0  0  0  0  0  0  0  0  0  0  0  0
   55.5500   22.8840   43.2791 H   0  0  0  0  0  0  0  0  0  0  0  0
   56.8619   24.1110   43.2791 H   0  0  0  0  0  0  0  0  0  0  0  0
   54.2068   23.7485   46.4837 H   0  0  0  0  0  0  0  0  0  0  0  0
   53.4581   24.4438   45.0064 H   0  0  0  0  0  0  0  0  0  0  0  0
   54.0323   22.7418   45.0064 H   0  0  0  0  0  0  0  0  0  0  0  0
   59.8739   29.7031   45.5145 H   0  0  0  0  0  0  0  0  0  0  0  0
   59.8230   28.7969   43.9644 H   0  0  0  0  0  0  0  0  0  0  0  0
   59.6639   30.5861   43.9644 H   0  0  0  0  0  0  0  0  0  0  0  0
   60.6046   34.8084   45.5249 H   0  0  0  0  0  0  0  0  0  0  0  0
   62.8206   34.6780   46.6577 H   0  0  0  0  0  0  0  0  0  0  0  0
  1  2  1  0
  2  3  2  0
  2  4  1  0
  4  5  1  0
  5  6  2  0
  6  7  1  0
  7  8  2  0
  8  9  1  0
  9 10  2  0
  9 11  2  0
  9 12  1  0
 12 13  1  0
 13 14  1  0
 14 15  2  0
 15 16  1  0
 16 17  2  0
 17 18  1  0
 18 19  1  0
 19 20  1  0
 20 21  2  0
 20 22  1  0
 22 23  1  0
 22 24  1  0
 17 25  1  0
 25 26  1  0
  8 27  1  0
 27 28  2  0
 28  5  1  0
 25 14  1  0
  1 29  1  0
  1 30  1  0
  1 31  1  0
  4 32  1  0
  6 33  1  0
  7 34  1  0
 13 35  1  0
 13 36  1  0
 19 37  1  0
 19 38  1  0
 23 39  1  0
 23 40  1  0
 23 41  1  0
 24 42  1  0
 24 43  1  0
 24 44  1  0
 26 45  1  0
 26 46  1  0
 26 47  1  0
 27 48  1  0
 28 49  1  0
M  CHG  1  12  -1
M  END
>  <UniqueID>  (49) 
45

>  <SMILES>  (49) 
CC(=O)Nc1ccc(S(=O)(=O)[N-]Cc2nnc(SCC(=O)N(C)C)n2C)cc1

>  <Energy>  (49) 
71.13091288611078

>  <Genealogy>  (49) 
CC(=O)Nc1ccc(S(=O)(=O)[N-]Cc2nnc(SCC(=O)N(C)C)n2C)cc1 (protonated)
CC(=O)Nc1ccc(S(=O)(=O)[N-]Cc2nnc(SCC(=O)N(C)C)n2C)cc1 (3D coordinates assigned)
CC(=O)Nc1ccc(S(=O)(=O)[N-]Cc2nnc(SCC(=O)N(C)C)n2C)cc1 (optimized conformer: 71.13091288611078 kcal/mol)

>  <smiles>  (49) 
CC(=O)Nc1ccc(S(=O)(=O)NCc2nnc(SCC(=O)N(C)C)n2C)cc1

>  <score_type>  (49) 
oracle

>  <origin>  (49) 
adg

>  <m_score__min__energy>  (49) 
-10.300000000000001

>  <m_primary>  (49) 
energy

$$$$
49:0
     RDKit          3D

 60 63  0  0  0  0  0  0  0  0999 V2000
   56.2570   28.3630   45.2310 O   0  0  0  0  0  0  0  0  0  0  0  0
   57.2910   27.9120   45.7960 C   0  0  0  0  0  0  0  0  0  0  0  0
   58.2790   28.8560   46.3650 C   0  0  0  0  0  0  0  0  0  0  0  0
   58.5010   28.9140   47.7510 C   0  0  0  0  0  0  0  0  0  0  0  0
   59.4450   29.7950   48.2810 C   0  0  0  0  0  0  0  0  0  0  0  0
   60.1940   30.6370   47.4380 C   0  0  0  0  0  0  0  0  0  0  0  0
   61.1390   31.5840   47.9830 N   0  0  0  0  0  0  0  0  0  0  0  0
   62.3630   31.1330   48.6560 C   0  0  0  0  0  0  0  0  0  0  0  0
   62.6410   31.9460   49.8990 C   0  0  0  0  0  0  0  0  0  0  0  0
   62.3230   31.5030   50.9940 O   0  0  0  0  0  0  0  0  0  0  0  0
   63.3360   33.2170   49.8030 N   0  0  0  0  0  0  0  0  0  0  0  0
   63.8270   33.6560   51.1160 C   0  0  0  0  0  0  0  0  0  0  0  0
   65.2610   33.1640   51.2620 C   0  0  0  0  0  0  0  0  0  0  0  0
   65.7220   32.8240   49.8560 C   0  0  0  0  0  0  0  0  0  0  0  0
   64.5300   33.1030   48.9510 C   0  0  0  0  0  0  0  0  0  0  0  0
   60.8260   33.2970   47.8960 S   0  0  0  0  0  0  0  0  0  0  0  0
   62.0370   34.0060   47.3590 O   0  0  0  0  0  0  0  0  0  0  0  0
   60.5540   33.8390   49.2710 O   0  0  0  0  0  0  0  0  0  0  0  0
   59.4500   33.6220   46.8440 C   0  0  0  0  0  0  0  0  0  0  0  0
   58.1640   33.1740   47.1890 C   0  0  0  0  0  0  0  0  0  0  0  0
   57.0730   33.4640   46.3620 C   0  0  0  0  0  0  0  0  0  0  0  0
   57.2610   34.1970   45.1870 C   0  0  0  0  0  0  0  0  0  0  0  0
   58.5400   34.6450   44.8390 C   0  0  0  0  0  0  0  0  0  0  0  0
   59.6310   34.3570   45.6630 C   0  0  0  0  0  0  0  0  0  0  0  0
   60.0040   30.5390   46.0510 C   0  0  0  0  0  0  0  0  0  0  0  0
   59.0580   29.6600   45.5210 C   0  0  0  0  0  0  0  0  0  0  0  0
   57.5030   26.4920   45.8360 N   0  0  0  0  0  0  0  0  0  0  0  0
   57.8090   25.8490   47.1260 C   0  0  0  0  0  0  0  0  0  0  0  0
   57.7930   24.3210   47.0320 C   0  0  0  0  0  0  0  0  0  0  0  0
   58.3860   23.8930   45.8260 O   0  0  0  0  0  0  0  0  0  0  0  0
   57.5300   24.2280   44.7590 C   0  0  0  0  0  0  0  0  0  0  0  0
   57.4400   25.7510   44.5660 C   0  0  0  0  0  0  0  0  0  0  0  0
   57.9265   28.2601   48.4236 H   0  0  0  0  0  0  0  0  0  0  0  0
   59.6052   29.8316   49.3687 H   0  0  0  0  0  0  0  0  0  0  0  0
   62.2475   30.0761   48.9382 H   0  0  0  0  0  0  0  0  0  0  0  0
   63.2068   31.2621   47.9623 H   0  0  0  0  0  0  0  0  0  0  0  0
   62.6940   33.9450   49.4120 H   0  0  0  0  0  0  0  0  0  0  0  0
   63.7994   34.7539   51.1785 H   0  0  0  0  0  0  0  0  0  0  0  0
   63.1960   33.2482   51.9195 H   0  0  0  0  0  0  0  0  0  0  0  0
   65.8952   33.9523   51.6938 H   0  0  0  0  0  0  0  0  0  0  0  0
   65.3264   32.2947   51.9328 H   0  0  0  0  0  0  0  0  0  0  0  0
   66.5764   33.4549   49.5698 H   0  0  0  0  0  0  0  0  0  0  0  0
   66.0526   31.7776   49.7798 H   0  0  0  0  0  0  0  0  0  0  0  0
   64.6889   34.0427   48.4017 H   0  0  0  0  0  0  0  0  0  0  0  0
   64.4043   32.2910   48.2196 H   0  0  0  0  0  0  0  0  0  0  0  0
   58.0143   32.5938   48.1115 H   0  0  0  0  0  0  0  0  0  0  0  0
   56.0668   33.1148   46.6369 H   0  0  0  0  0  0  0  0  0  0  0  0
   56.4034   34.4217   44.5358 H   0  0  0  0  0  0  0  0  0  0  0  0
   58.6868   35.2246   43.9157 H   0  0  0  0  0  0  0  0  0  0  0  0
   60.6356   34.7079   45.3846 H   0  0  0  0  0  0  0  0  0  0  0  0
   60.6072   31.1617   45.3740 H   0  0  0  0  0  0  0  0  0  0  0  0
   58.9225   29.5976   44.4312 H   0  0  0  0  0  0  0  0  0  0  0  0
   58.8076   26.1727   47.4545 H   0  0  0  0  0  0  0  0  0  0  0  0
   57.0324   26.1500   47.8446 H   0  0  0  0  0  0  0  0  0  0  0  0
   58.3535   23.9005   47.8799 H   0  0  0  0  0  0  0  0  0  0  0  0
   56.7493   23.9744   47.0573 H   0  0  0  0  0  0  0  0  0  0  0  0
   57.9156   23.7727   43.8349 H   0  0  0  0  0  0  0  0  0  0  0  0
   56.5238   23.8494   44.9916 H   0  0  0  0  0  0  0  0  0  0  0  0
   58.2762   26.0744   43.9286 H   0  0  0  0  0  0  0  0  0  0  0  0
   56.4660   25.9690   44.1036 H   0  0  0  0  0  0  0  0  0  0  0  0
  1  2  2  0
  2  3  1  0
  3  4  2  0
  4  5  1  0
  5  6  2  0
  6  7  1  0
  7  8  1  0
  8  9  1  0
  9 10  2  0
  9 11  1  0
 11 12  1  0
 12 13  1  0
 13 14  1  0
 14 15  1  0
  7 16  1  0
 16 17  2  0
 16 18  2  0
 16 19  1  0
 19 20  2  0
 20 21  1  0
 21 22  2  0
 22 23  1  0
 23 24  2  0
  6 25  1  0
 25 26  2  0
  2 27  1  0
 27 28  1  0
 28 29  1  0
 29 30  1  0
 30 31  1  0
 31 32  1  0
 26  3  1  0
 32 27  1  0
 15 11  1  0
 24 19  1  0
  4 33  1  0
  5 34  1  0
  8 35  1  0
  8 36  1  0
 11 37  1  0
 12 38  1  0
 12 39  1  0
 13 40  1  0
 13 41  1  0
 14 42  1  0
 14 43  1  0
 15 44  1  0
 15 45  1  0
 20 46  1  0
 21 47  1  0
 22 48  1  0
 23 49  1  0
 24 50  1  0
 25 51  1  0
 26 52  1  0
 28 53  1  0
 28 54  1  0
 29 55  1  0
 29 56  1  0
 31 57  1  0
 31 58  1  0
 32 59  1  0
 32 60  1  0
M  CHG  1  11   1
M  END
>  <UniqueID>  (50) 
46

>  <SMILES>  (50) 
O=C(c1ccc(N(CC(=O)[NH+]2CCCC2)S(=O)(=O)c2ccccc2)cc1)N1CCOCC1

>  <Energy>  (50) 
79.45675025020259

>  <Genealogy>  (50) 
O=C(c1ccc(N(CC(=O)[NH+]2CCCC2)S(=O)(=O)c2ccccc2)cc1)N1CCOCC1 (protonated)
O=C(c1ccc(N(CC(=O)[NH+]2CCCC2)S(=O)(=O)c2ccccc2)cc1)N1CCOCC1 (3D coordinates assigned)
O=C(c1ccc(N(CC(=O)[NH+]2CCCC2)S(=O)(=O)c2ccccc2)cc1)N1CCOCC1 (nonaromatic ring conformer: 79.45675025020259 kcal/mol)

>  <smiles>  (50) 
O=C(CN(c1ccc(C(=O)N2CCOCC2)cc1)S(=O)(=O)c1ccccc1)N1CCCC1

>  <score_type>  (50) 
oracle

>  <origin>  (50) 
adg

>  <m_score__min__energy>  (50) 
-8.1999999999999993

>  <m_primary>  (50) 
energy

$$$$
50:0
     RDKit          3D

 55 57  0  0  0  0  0  0  0  0999 V2000
   60.9350   31.9420   47.1460 C   0  0  0  0  0  0  0  0  0  0  0  0
   59.9270   32.7720   46.3980 C   0  0  0  0  0  0  0  0  0  0  0  0
   60.1060   34.1660   46.3270 C   0  0  0  0  0  0  0  0  0  0  0  0
   59.1970   34.9670   45.6320 C   0  0  0  0  0  0  0  0  0  0  0  0
   58.1020   34.3880   44.9950 C   0  0  0  0  0  0  0  0  0  0  0  0
   57.9100   33.0080   45.0480 C   0  0  0  0  0  0  0  0  0  0  0  0
   58.8180   32.1810   45.7350 C   0  0  0  0  0  0  0  0  0  0  0  0
   58.5580   30.6850   45.7600 C   0  0  0  0  0  0  0  0  0  0  0  0
   57.8770   30.1760   44.4770 C   0  0  0  0  0  0  0  0  0  0  0  0
   56.3930   29.9670   44.6530 C   0  0  0  0  0  0  0  0  0  0  0  0
   55.6160   30.9520   44.5290 O   0  0  0  0  0  0  0  0  0  0  0  0
   55.8310   28.6670   44.8750 N   0  0  0  0  0  0  0  0  0  0  0  0
   56.4470   27.6370   45.6510 C   0  0  0  0  0  0  0  0  0  0  0  0
   57.8030   27.7520   45.9860 C   0  0  0  0  0  0  0  0  0  0  0  0
   58.4350   26.7530   46.7420 C   0  0  0  0  0  0  0  0  0  0  0  0
   59.8480   26.9030   47.1310 C   0  0  0  0  0  0  0  0  0  0  0  0
   60.7220   26.1940   46.5650 O   0  0  0  0  0  0  0  0  0  0  0  0
   60.2520   27.8250   48.1520 N   0  0  0  0  0  0  0  0  0  0  0  0
   59.4560   28.9760   48.5680 C   0  0  0  0  0  0  0  0  0  0  0  0
   60.1340   29.6850   49.7570 C   0  0  0  0  0  0  0  0  0  0  0  0
   60.0060   28.8630   51.0700 C   0  0  0  0  0  0  0  0  0  0  0  0
   58.9040   29.3870   52.0040 C   0  0  0  0  0  0  0  0  0  0  0  0
   57.7780   29.9020   51.2210 N   0  0  0  0  0  0  0  0  0  0  0  0
   58.1390   31.1310   50.4910 C   0  0  0  0  0  0  0  0  0  0  0  0
   59.5890   31.1180   49.9480 C   0  0  0  0  0  0  0  0  0  0  0  0
   57.7160   25.6070   47.1140 C   0  0  0  0  0  0  0  0  0  0  0  0
   56.3680   25.4790   46.7630 C   0  0  0  0  0  0  0  0  0  0  0  0
   55.7310   26.4890   46.0310 C   0  0  0  0  0  0  0  0  0  0  0  0
   54.3970   26.3370   45.6670 O   0  0  0  0  0  0  0  0  0  0  0  0
   60.7827   32.0674   48.2282 H   0  0  0  0  0  0  0  0  0  0  0  0
   60.8087   30.8826   46.8783 H   0  0  0  0  0  0  0  0  0  0  0  0
   61.9505   32.2693   46.8783 H   0  0  0  0  0  0  0  0  0  0  0  0
   60.9708   34.6297   46.8240 H   0  0  0  0  0  0  0  0  0  0  0  0
   59.3460   36.0560   45.5877 H   0  0  0  0  0  0  0  0  0  0  0  0
   57.3871   35.0209   44.4489 H   0  0  0  0  0  0  0  0  0  0  0  0
   57.0388   32.5606   44.5471 H   0  0  0  0  0  0  0  0  0  0  0  0
   59.5191   30.1633   45.8783 H   0  0  0  0  0  0  0  0  0  0  0  0
   57.8768   30.4814   46.5994 H   0  0  0  0  0  0  0  0  0  0  0  0
   58.0367   30.9136   43.6767 H   0  0  0  0  0  0  0  0  0  0  0  0
   58.3236   29.2026   44.2258 H   0  0  0  0  0  0  0  0  0  0  0  0
   58.3754   28.6308   45.6542 H   0  0  0  0  0  0  0  0  0  0  0  0
   59.3665   29.6798   47.7273 H   0  0  0  0  0  0  0  0  0  0  0  0
   58.4573   28.6319   48.8750 H   0  0  0  0  0  0  0  0  0  0  0  0
   61.2046   29.7600   49.5159 H   0  0  0  0  0  0  0  0  0  0  0  0
   59.7766   27.8194   50.8088 H   0  0  0  0  0  0  0  0  0  0  0  0
   60.9616   28.9524   51.6075 H   0  0  0  0  0  0  0  0  0  0  0  0
   58.5535   28.5670   52.6480 H   0  0  0  0  0  0  0  0  0  0  0  0
   59.3137   30.2007   52.6205 H   0  0  0  0  0  0  0  0  0  0  0  0
   57.0030   30.1330   51.8840 H   0  0  0  0  0  0  0  0  0  0  0  0
   57.4494   31.2480   49.6420 H   0  0  0  0  0  0  0  0  0  0  0  0
   58.0656   31.9661   51.2032 H   0  0  0  0  0  0  0  0  0  0  0  0
   59.6073   31.6351   48.9773 H   0  0  0  0  0  0  0  0  0  0  0  0
   60.2281   31.6240   50.6866 H   0  0  0  0  0  0  0  0  0  0  0  0
   58.2134   24.8076   47.6828 H   0  0  0  0  0  0  0  0  0  0  0  0
   55.8063   24.5820   47.0629 H   0  0  0  0  0  0  0  0  0  0  0  0
  1  2  1  0
  2  3  2  0
  3  4  1  0
  4  5  2  0
  5  6  1  0
  6  7  2  0
  7  8  1  0
  8  9  1  0
  9 10  1  0
 10 11  2  0
 10 12  1  0
 12 13  1  0
 13 14  2  0
 14 15  1  0
 15 16  1  0
 16 17  2  0
 16 18  1  0
 18 19  1  0
 19 20  1  0
 20 21  1  0
 21 22  1  0
 22 23  1  0
 23 24  1  0
 24 25  1  0
 15 26  2  0
 26 27  1  0
 27 28  2  0
 28 29  1  0
  7  2  1  0
 28 13  1  0
 25 20  1  0
  1 30  1  0
  1 31  1  0
  1 32  1  0
  3 33  1  0
  4 34  1  0
  5 35  1  0
  6 36  1  0
  8 37  1  0
  8 38  1  0
  9 39  1  0
  9 40  1  0
 14 41  1  0
 19 42  1  0
 19 43  1  0
 20 44  1  0
 21 45  1  0
 21 46  1  0
 22 47  1  0
 22 48  1  0
 23 49  1  0
 24 50  1  0
 24 51  1  0
 25 52  1  0
 25 53  1  0
 26 54  1  0
 27 55  1  0
M  CHG  3  12  -1  18  -1  29  -1
M  END
>  <UniqueID>  (51) 
47

>  <SMILES>  (51) 
Cc1ccccc1CCC(=O)[N-]c1cc(C(=O)[N-]CC2CCNCC2)ccc1[O-]

>  <Energy>  (51) 
64.08672196167718

>  <Genealogy>  (51) 
Cc1ccccc1CCC(=O)[N-]c1cc(C(=O)[N-]CC2CCNCC2)ccc1[O-] (protonated)
Cc1ccccc1CCC(=O)[N-]c1cc(C(=O)[N-]CC2CCNCC2)ccc1[O-] (3D coordinates assigned)
Cc1ccccc1CCC(=O)[N-]c1cc(C(=O)[N-]CC2CCNCC2)ccc1[O-] (nonaromatic ring conformer: 64.08672196167718 kcal/mol)

>  <smiles>  (51) 
Cc1ccccc1CCC(=O)Nc1cc(C(=O)NCC2CCNCC2)ccc1O

>  <score_type>  (51) 
oracle

>  <origin>  (51) 
adg

>  <m_score__min__energy>  (51) 
-15.779999999999999

>  <m_primary>  (51) 
energy

$$$$
51:0
     RDKit          3D

 52 54  0  0  0  0  0  0  0  0999 V2000
   61.0290   29.2580   51.0320 C   0  0  0  0  0  0  0  0  0  0  0  0
   61.3990   29.7770   49.7560 O   0  0  0  0  0  0  0  0  0  0  0  0
   60.5300   29.8910   48.6610 C   0  0  0  0  0  0  0  0  0  0  0  0
   59.3620   29.1100   48.5470 C   0  0  0  0  0  0  0  0  0  0  0  0
   58.5310   29.2390   47.4330 C   0  0  0  0  0  0  0  0  0  0  0  0
   58.8470   30.1520   46.4210 C   0  0  0  0  0  0  0  0  0  0  0  0
   57.8710   30.2150   44.9530 S   0  0  0  0  0  0  0  0  0  0  0  0
   58.4900   29.3180   43.9170 O   0  0  0  0  0  0  0  0  0  0  0  0
   56.4800   29.7220   45.2410 O   0  0  0  0  0  0  0  0  0  0  0  0
   57.7830   31.8370   44.3250 N   0  0  0  0  0  0  0  0  0  0  0  0
   57.0760   32.7320   45.2440 C   0  0  0  0  0  0  0  0  0  0  0  0
   58.0520   33.4680   46.1260 C   0  0  0  0  0  0  0  0  0  0  0  0
   58.7930   34.5530   45.6240 C   0  0  0  0  0  0  0  0  0  0  0  0
   59.6500   35.2700   46.4640 C   0  0  0  0  0  0  0  0  0  0  0  0
   59.8110   34.8790   47.7970 C   0  0  0  0  0  0  0  0  0  0  0  0
   59.1250   33.7620   48.2910 C   0  0  0  0  0  0  0  0  0  0  0  0
   59.3470   33.2380   49.9590 S   0  0  0  0  0  0  0  0  0  0  0  0
   60.9980   32.7830   50.2090 N   0  0  0  0  0  0  0  0  0  0  0  0
   58.9890   34.3610   50.8930 O   0  0  0  0  0  0  0  0  0  0  0  0
   58.4570   32.0630   50.2570 O   0  0  0  0  0  0  0  0  0  0  0  0
   58.2430   33.0640   47.4560 C   0  0  0  0  0  0  0  0  0  0  0  0
   59.9910   30.9480   46.5400 C   0  0  0  0  0  0  0  0  0  0  0  0
   60.8390   30.8170   47.6470 C   0  0  0  0  0  0  0  0  0  0  0  0
   62.0340   31.6110   47.7160 N   0  0  0  0  0  0  0  0  0  0  0  0
   62.2540   32.7010   46.7600 C   0  0  0  0  0  0  0  0  0  0  0  0
   62.8900   33.9370   47.4390 C   0  0  0  0  0  0  0  0  0  0  0  0
   63.4890   33.6520   48.7540 N   0  0  0  0  0  0  0  0  0  0  0  0
   64.1410   32.3380   48.7790 C   0  0  0  0  0  0  0  0  0  0  0  0
   63.0930   31.2260   48.6530 C   0  0  0  0  0  0  0  0  0  0  0  0
   61.4725   29.8800   51.8235 H   0  0  0  0  0  0  0  0  0  0  0  0
   59.9333   29.2682   51.1283 H   0  0  0  0  0  0  0  0  0  0  0  0
   61.3959   28.2255   51.1283 H   0  0  0  0  0  0  0  0  0  0  0  0
   59.1038   28.3941   49.3413 H   0  0  0  0  0  0  0  0  0  0  0  0
   57.6248   28.6209   47.3504 H   0  0  0  0  0  0  0  0  0  0  0  0
   56.4942   33.4616   44.6616 H   0  0  0  0  0  0  0  0  0  0  0  0
   56.4081   32.1316   45.8791 H   0  0  0  0  0  0  0  0  0  0  0  0
   58.6977   34.8385   44.5660 H   0  0  0  0  0  0  0  0  0  0  0  0
   60.1977   36.1417   46.0765 H   0  0  0  0  0  0  0  0  0  0  0  0
   60.4781   35.4501   48.4594 H   0  0  0  0  0  0  0  0  0  0  0  0
   61.5040   32.9850   49.3180 H   0  0  0  0  0  0  0  0  0  0  0  0
   61.0220   31.7440   50.3480 H   0  0  0  0  0  0  0  0  0  0  0  0
   57.6962   32.1928   47.8459 H   0  0  0  0  0  0  0  0  0  0  0  0
   60.2268   31.6837   45.7569 H   0  0  0  0  0  0  0  0  0  0  0  0
   62.9251   32.3468   45.9636 H   0  0  0  0  0  0  0  0  0  0  0  0
   61.2782   32.9993   46.3491 H   0  0  0  0  0  0  0  0  0  0  0  0
   63.6765   34.3294   46.7776 H   0  0  0  0  0  0  0  0  0  0  0  0
   62.0798   34.6618   47.6070 H   0  0  0  0  0  0  0  0  0  0  0  0
   62.7230   33.6620   49.4730 H   0  0  0  0  0  0  0  0  0  0  0  0
   64.8488   32.2673   47.9400 H   0  0  0  0  0  0  0  0  0  0  0  0
   64.6769   32.2206   49.7324 H   0  0  0  0  0  0  0  0  0  0  0  0
   63.5813   30.3102   48.2885 H   0  0  0  0  0  0  0  0  0  0  0  0
   62.6426   31.0531   49.6416 H   0  0  0  0  0  0  0  0  0  0  0  0
  1  2  1  0
  2  3  1  0
  3  4  2  0
  4  5  1  0
  5  6  2  0
  6  7  1  0
  7  8  2  0
  7  9  2  0
  7 10  1  0
 10 11  1  0
 11 12  1  0
 12 13  2  0
 13 14  1  0
 14 15  2  0
 15 16  1  0
 16 17  1  0
 17 18  1  0
 17 19  2  0
 17 20  2  0
 16 21  2  0
  6 22  1  0
 22 23  2  0
 23 24  1  0
 24 25  1  0
 25 26  1  0
 26 27  1  0
 27 28  1  0
 28 29  1  0
 23  3  1  0
 29 24  1  0
 21 12  1  0
  1 30  1  0
  1 31  1  0
  1 32  1  0
  4 33  1  0
  5 34  1  0
 11 35  1  0
 11 36  1  0
 13 37  1  0
 14 38  1  0
 15 39  1  0
 18 40  1  0
 18 41  1  0
 21 42  1  0
 22 43  1  0
 25 44  1  0
 25 45  1  0
 26 46  1  0
 26 47  1  0
 27 48  1  0
 28 49  1  0
 28 50  1  0
 29 51  1  0
 29 52  1  0
M  CHG  1  10  -1
M  END
>  <UniqueID>  (52) 
48

>  <SMILES>  (52) 
COc1ccc(S(=O)(=O)[N-]Cc2cccc(S(N)(=O)=O)c2)cc1N1CCNCC1

>  <Energy>  (52) 
55.11320738641856

>  <Genealogy>  (52) 
COc1ccc(S(=O)(=O)[N-]Cc2cccc(S(N)(=O)=O)c2)cc1N1CCNCC1 (protonated)
COc1ccc(S(=O)(=O)[N-]Cc2cccc(S(N)(=O)=O)c2)cc1N1CCNCC1 (3D coordinates assigned)
COc1ccc(S(=O)(=O)[N-]Cc2cccc(S(N)(=O)=O)c2)cc1N1CCNCC1 (nonaromatic ring conformer: 55.11320738641856 kcal/mol)

>  <smiles>  (52) 
COc1ccc(S(=O)(=O)NCc2cccc(S(N)(=O)=O)c2)cc1N1CCNCC1

>  <score_type>  (52) 
oracle

>  <origin>  (52) 
adg

>  <m_score__min__energy>  (52) 
-10.49

>  <m_primary>  (52) 
energy

$$$$
52:0
     RDKit          3D

 46 49  0  0  0  0  0  0  0  0999 V2000
   55.8920   24.7820   47.5140 O   0  0  0  0  0  0  0  0  0  0  0  0
   56.2010   25.7630   46.7890 C   0  0  0  0  0  0  0  0  0  0  0  0
   55.2860   26.6400   46.3230 N   0  0  0  0  0  0  0  0  0  0  0  0
   56.0370   27.4970   45.6130 C   0  0  0  0  0  0  0  0  0  0  0  0
   55.5200   28.5870   44.9240 O   0  0  0  0  0  0  0  0  0  0  0  0
   57.3620   27.1310   45.6650 C   0  0  0  0  0  0  0  0  0  0  0  0
   58.5160   27.8230   44.9690 C   0  0  1  0  0  0  0  0  0  0  0  0
   58.0910   28.3420   43.5720 C   0  0  0  0  0  0  0  0  0  0  0  0
   57.6640   29.8230   43.5810 C   0  0  0  0  0  0  0  0  0  0  0  0
   57.1170   30.1940   44.9000 N   0  0  0  0  0  0  0  0  0  0  0  0
   56.4220   31.4950   44.8520 C   0  0  0  0  0  0  0  0  0  0  0  0
   57.3820   32.6040   45.1930 C   0  0  0  0  0  0  0  0  0  0  0  0
   58.2690   33.0870   44.2150 C   0  0  0  0  0  0  0  0  0  0  0  0
   59.1780   34.1010   44.5300 C   0  0  0  0  0  0  0  0  0  0  0  0
   59.2090   34.6390   45.8200 C   0  0  0  0  0  0  0  0  0  0  0  0
   58.3310   34.1630   46.7970 C   0  0  0  0  0  0  0  0  0  0  0  0
   57.4200   33.1480   46.4870 C   0  0  0  0  0  0  0  0  0  0  0  0
   58.1760   30.2000   45.9340 C   0  0  0  0  0  0  0  0  0  0  0  0
   59.1270   28.9740   45.8110 C   0  0  1  0  0  0  0  0  0  0  0  0
   59.6810   28.4950   47.1480 C   0  0  0  0  0  0  0  0  0  0  0  0
   60.2820   27.2240   47.2350 C   0  0  0  0  0  0  0  0  0  0  0  0
   60.7680   26.7490   48.4570 C   0  0  0  0  0  0  0  0  0  0  0  0
   60.6520   27.5280   49.6090 C   0  0  0  0  0  0  0  0  0  0  0  0
   60.0450   28.7840   49.5420 C   0  0  0  0  0  0  0  0  0  0  0  0
   59.5590   29.2650   48.3240 C   0  0  0  0  0  0  0  0  0  0  0  0
   57.4720   26.0180   46.4140 N   0  0  0  0  0  0  0  0  0  0  0  0
   59.3024   27.0638   44.8457 H   0  0  0  0  0  0  0  0  0  0  0  0
   58.9403   28.2268   42.8825 H   0  0  0  0  0  0  0  0  0  0  0  0
   57.2192   27.7514   43.2541 H   0  0  0  0  0  0  0  0  0  0  0  0
   58.5383   30.4533   43.3612 H   0  0  0  0  0  0  0  0  0  0  0  0
   56.8866   29.9742   42.8176 H   0  0  0  0  0  0  0  0  0  0  0  0
   56.0222   31.6574   43.8402 H   0  0  0  0  0  0  0  0  0  0  0  0
   55.5991   31.4922   45.5820 H   0  0  0  0  0  0  0  0  0  0  0  0
   58.2476   32.6657   43.1991 H   0  0  0  0  0  0  0  0  0  0  0  0
   59.8700   34.4763   43.7617 H   0  0  0  0  0  0  0  0  0  0  0  0
   59.9248   35.4372   46.0658 H   0  0  0  0  0  0  0  0  0  0  0  0
   58.3562   34.5872   47.8116 H   0  0  0  0  0  0  0  0  0  0  0  0
   56.7312   32.7748   47.2592 H   0  0  0  0  0  0  0  0  0  0  0  0
   58.7692   31.1202   45.8277 H   0  0  0  0  0  0  0  0  0  0  0  0
   57.6867   30.1496   46.9179 H   0  0  0  0  0  0  0  0  0  0  0  0
   59.9992   29.3390   45.2489 H   0  0  0  0  0  0  0  0  0  0  0  0
   60.3698   26.5996   46.3336 H   0  0  0  0  0  0  0  0  0  0  0  0
   61.2432   25.7584   48.5104 H   0  0  0  0  0  0  0  0  0  0  0  0
   61.0381   27.1533   50.5685 H   0  0  0  0  0  0  0  0  0  0  0  0
   59.9494   29.3962   50.4509 H   0  0  0  0  0  0  0  0  0  0  0  0
   59.0769   30.2528   48.2813 H   0  0  0  0  0  0  0  0  0  0  0  0
  1  2  2  0
  2  3  1  0
  3  4  1  0
  4  5  1  0
  4  6  2  0
  6  7  1  0
  7  8  1  0
  8  9  1  0
  9 10  1  0
 10 11  1  0
 11 12  1  0
 12 13  2  0
 13 14  1  0
 14 15  2  0
 15 16  1  0
 16 17  2  0
 10 18  1  0
 18 19  1  0
 19 20  1  0
 20 21  2  0
 21 22  1  0
 22 23  2  0
 23 24  1  0
 24 25  2  0
  6 26  1  0
 26  2  1  0
 19  7  1  0
 25 20  1  0
 17 12  1  0
  7 27  1  6
  8 28  1  0
  8 29  1  0
  9 30  1  0
  9 31  1  0
 11 32  1  0
 11 33  1  0
 13 34  1  0
 14 35  1  0
 15 36  1  0
 16 37  1  0
 17 38  1  0
 18 39  1  0
 18 40  1  0
 19 41  1  6
 21 42  1  0
 22 43  1  0
 23 44  1  0
 24 45  1  0
 25 46  1  0
M  CHG  3   3  -1   5  -1  26  -1
M  END
>  <UniqueID>  (53) 
49

>  <SMILES>  (53) 
O=c1[n-]c([O-])c([C@H]2CCN(Cc3ccccc3)C[C@H]2c2ccccc2)[n-]1

>  <Energy>  (53) 
88.06939005463417

>  <Genealogy>  (53) 
O=c1[n-]c([O-])c(C2CCN(Cc3ccccc3)CC2c2ccccc2)[n-]1 (protonated)
O=c1[n-]c([O-])c([C@H]2CCN(Cc3ccccc3)C[C@H]2c2ccccc2)[n-]1 (chirality)
O=c1[n-]c([O-])c([C@H]2CCN(Cc3ccccc3)C[C@H]2c2ccccc2)[n-]1 (3D coordinates assigned)
O=c1[n-]c([O-])c([C@H]2CCN(Cc3ccccc3)C[C@H]2c2ccccc2)[n-]1 (nonaromatic ring conformer: 88.06939005463417 kcal/mol)

>  <smiles>  (53) 
O=c1[nH]c(O)c(C2CCN(Cc3ccccc3)CC2c2ccccc2)[nH]1

>  <score_type>  (53) 
oracle

>  <origin>  (53) 
adg

>  <m_score__min__energy>  (53) 
-15.25

>  <m_primary>  (53) 
energy

$$$$
53:0
     RDKit          3D

 34 36  0  0  0  0  0  0  0  0999 V2000
   57.8260   27.9140   46.7760 O   0  0  0  0  0  0  0  0  0  0  0  0
   57.0210   27.6000   45.8590 C   0  0  0  0  0  0  0  0  0  0  0  0
   56.2050   28.6090   45.2480 N   0  0  0  0  0  0  0  0  0  0  0  0
   56.6660   29.7710   44.5410 C   0  0  0  0  0  0  0  0  0  0  0  0
   56.5300   29.8960   43.1480 C   0  0  0  0  0  0  0  0  0  0  0  0
   57.0110   31.0340   42.4970 C   0  0  0  0  0  0  0  0  0  0  0  0
   57.6390   32.0480   43.2230 C   0  0  0  0  0  0  0  0  0  0  0  0
   57.8070   31.9300   44.6140 C   0  0  0  0  0  0  0  0  0  0  0  0
   58.4880   33.0010   45.3830 C   0  0  0  0  0  0  0  0  0  0  0  0
   58.9720   34.1780   44.8010 C   0  0  0  0  0  0  0  0  0  0  0  0
   59.6650   35.1260   46.0100 S   0  0  0  0  0  0  0  0  0  0  0  0
   59.3280   34.0070   47.2130 C   0  0  0  0  0  0  0  0  0  0  0  0
   59.6290   34.1520   48.4260 O   0  0  0  0  0  0  0  0  0  0  0  0
   58.6950   32.9200   46.7290 N   0  0  0  0  0  0  0  0  0  0  0  0
   57.3220   30.7780   45.2610 C   0  0  0  0  0  0  0  0  0  0  0  0
   56.9700   26.2050   45.3490 C   0  0  0  0  0  0  0  0  0  0  0  0
   56.4620   25.1950   46.1840 C   0  0  0  0  0  0  0  0  0  0  0  0
   56.3820   23.8730   45.7430 C   0  0  0  0  0  0  0  0  0  0  0  0
   56.8130   23.5230   44.4560 C   0  0  0  0  0  0  0  0  0  0  0  0
   56.7280   22.1580   44.0060 N   0  0  0  0  0  0  0  0  0  0  0  0
   57.3610   21.2530   44.5890 O   0  0  0  0  0  0  0  0  0  0  0  0
   55.9480   21.8270   42.9210 O   0  0  0  0  0  0  0  0  0  0  0  0
   57.3310   24.5230   43.6180 C   0  0  0  0  0  0  0  0  0  0  0  0
   57.4160   25.8540   44.0510 C   0  0  0  0  0  0  0  0  0  0  0  0
   58.1430   27.0170   42.9440 Cl  0  0  0  0  0  0  0  0  0  0  0  0
   56.0440   29.0964   42.5696 H   0  0  0  0  0  0  0  0  0  0  0  0
   56.8946   31.1320   41.4076 H   0  0  0  0  0  0  0  0  0  0  0  0
   58.0049   32.9456   42.7030 H   0  0  0  0  0  0  0  0  0  0  0  0
   58.9105   34.4402   43.7345 H   0  0  0  0  0  0  0  0  0  0  0  0
   58.4220   32.1060   47.3250 H   0  0  0  0  0  0  0  0  0  0  0  0
   57.4599   30.6668   46.3466 H   0  0  0  0  0  0  0  0  0  0  0  0
   56.1228   25.4498   47.1989 H   0  0  0  0  0  0  0  0  0  0  0  0
   55.9771   23.0990   46.4115 H   0  0  0  0  0  0  0  0  0  0  0  0
   57.6752   24.2587   42.6072 H   0  0  0  0  0  0  0  0  0  0  0  0
  1  2  2  0
  2  3  1  0
  3  4  1  0
  4  5  2  0
  5  6  1  0
  6  7  2  0
  7  8  1  0
  8  9  1  0
  9 10  2  0
 10 11  1  0
 11 12  1  0
 12 13  2  0
 12 14  1  0
  8 15  2  0
  2 16  1  0
 16 17  2  0
 17 18  1  0
 18 19  2  0
 19 20  1  0
 20 21  2  0
 20 22  1  0
 19 23  1  0
 23 24  2  0
 24 25  1  0
 15  4  1  0
 24 16  1  0
 14  9  1  0
  5 26  1  0
  6 27  1  0
  7 28  1  0
 10 29  1  0
 14 30  1  0
 15 31  1  0
 17 32  1  0
 18 33  1  0
 23 34  1  0
M  CHG  3   3  -1  20   1  22  -1
M  END
>  <UniqueID>  (54) 
50

>  <SMILES>  (54) 
O=C([N-]c1cccc(-c2csc(=O)[nH]2)c1)c1ccc([N+](=O)[O-])cc1Cl

>  <Energy>  (54) 
79.945816371264

>  <Genealogy>  (54) 
O=C([N-]c1cccc(-c2csc(=O)[nH]2)c1)c1ccc([N+](=O)[O-])cc1Cl (protonated)
O=C([N-]c1cccc(-c2csc(=O)[nH]2)c1)c1ccc([N+](=O)[O-])cc1Cl (3D coordinates assigned)
O=C([N-]c1cccc(-c2csc(=O)[nH]2)c1)c1ccc([N+](=O)[O-])cc1Cl (optimized conformer: 79.945816371264 kcal/mol)

>  <smiles>  (54) 
O=C(Nc1cccc(-c2csc(=O)[nH]2)c1)c1ccc([N+](=O)[O-])cc1Cl

>  <score_type>  (54) 
oracle

>  <origin>  (54) 
adg

>  <m_score__min__energy>  (54) 
-10.09

>  <m_primary>  (54) 
energy

$$$$
54:0
     RDKit          3D

 62 65  0  0  0  0  0  0  0  0999 V2000
   57.0240   34.0180   45.0690 C   0  0  0  0  0  0  0  0  0  0  0  0
   57.6260   32.6520   45.2620 C   0  0  0  0  0  0  0  0  0  0  0  0
   56.9060   31.5680   44.8580 N   0  0  0  0  0  0  0  0  0  0  0  0
   57.3560   30.2940   45.0160 C   0  0  0  0  0  0  0  0  0  0  0  0
   58.6090   30.0510   45.6030 C   0  0  0  0  0  0  0  0  0  0  0  0
   59.1260   28.6720   45.7990 C   0  0  0  0  0  0  0  0  0  0  0  0
   59.9620   28.4490   46.7220 O   0  0  0  0  0  0  0  0  0  0  0  0
   58.7140   27.5400   44.8950 C   0  0  0  0  0  0  0  0  0  0  0  0
   57.2510   27.4540   44.8140 N   0  0  0  0  0  0  0  0  0  0  0  0
   56.6850   26.1270   45.7850 S   0  0  0  0  0  0  0  0  0  0  0  0
   57.3590   26.1730   47.1280 O   0  0  0  0  0  0  0  0  0  0  0  0
   55.2000   26.2370   45.9930 O   0  0  0  0  0  0  0  0  0  0  0  0
   57.0740   24.5970   45.0010 C   0  0  0  0  0  0  0  0  0  0  0  0
   58.1810   23.8440   45.4170 C   0  0  0  0  0  0  0  0  0  0  0  0
   58.4740   22.6230   44.8000 C   0  0  0  0  0  0  0  0  0  0  0  0
   57.6570   22.1430   43.7730 C   0  0  0  0  0  0  0  0  0  0  0  0
   56.5500   22.8890   43.3590 C   0  0  0  0  0  0  0  0  0  0  0  0
   56.2570   24.1110   43.9710 C   0  0  0  0  0  0  0  0  0  0  0  0
   59.3800   31.1530   45.9980 C   0  0  0  0  0  0  0  0  0  0  0  0
   58.8990   32.4620   45.8500 C   0  0  0  0  0  0  0  0  0  0  0  0
   59.7360   33.5890   46.3250 C   0  0  0  0  0  0  0  0  0  0  0  0
   60.1030   34.4800   45.5090 O   0  0  0  0  0  0  0  0  0  0  0  0
   60.2010   33.6410   47.6820 N   0  0  0  0  0  0  0  0  0  0  0  0
   61.6560   33.5670   47.8940 C   0  0  0  0  0  0  0  0  0  0  0  0
   62.0540   34.0660   49.2920 C   0  0  0  0  0  0  0  0  0  0  0  0
   61.1070   33.5850   50.2970 N   0  0  0  0  0  0  0  0  0  0  0  0
   61.5560   32.9900   51.5250 C   0  0  0  0  0  0  0  0  0  0  0  0
   61.2780   33.5490   52.6160 O   0  0  0  0  0  0  0  0  0  0  0  0
   62.3400   31.7340   51.5210 C   0  0  0  0  0  0  0  0  0  0  0  0
   63.7500   31.7650   51.4940 C   0  0  0  0  0  0  0  0  0  0  0  0
   64.4880   30.5760   51.5330 C   0  0  0  0  0  0  0  0  0  0  0  0
   63.8270   29.3440   51.5700 C   0  0  0  0  0  0  0  0  0  0  0  0
   62.4290   29.3000   51.5620 C   0  0  0  0  0  0  0  0  0  0  0  0
   61.6870   30.4870   51.5360 C   0  0  0  0  0  0  0  0  0  0  0  0
   59.6890   33.8540   50.0820 C   0  0  0  0  0  0  0  0  0  0  0  0
   59.2780   33.2420   48.7520 C   0  0  0  0  0  0  0  0  0  0  0  0
   56.8237   34.4724   46.0505 H   0  0  0  0  0  0  0  0  0  0  0  0
   57.7260   34.6521   44.5077 H   0  0  0  0  0  0  0  0  0  0  0  0
   56.0823   33.9277   44.5077 H   0  0  0  0  0  0  0  0  0  0  0  0
   56.7353   29.4494   44.6823 H   0  0  0  0  0  0  0  0  0  0  0  0
   59.1228   27.7131   43.8886 H   0  0  0  0  0  0  0  0  0  0  0  0
   59.1039   26.5968   45.3053 H   0  0  0  0  0  0  0  0  0  0  0  0
   57.0010   27.2300   43.8220 H   0  0  0  0  0  0  0  0  0  0  0  0
   58.8213   24.2144   46.2312 H   0  0  0  0  0  0  0  0  0  0  0  0
   59.3488   22.0400   45.1238 H   0  0  0  0  0  0  0  0  0  0  0  0
   57.8845   21.1805   43.2916 H   0  0  0  0  0  0  0  0  0  0  0  0
   55.9074   22.5133   42.5491 H   0  0  0  0  0  0  0  0  0  0  0  0
   55.3829   24.6929   43.6434 H   0  0  0  0  0  0  0  0  0  0  0  0
   60.3778   30.9885   46.4308 H   0  0  0  0  0  0  0  0  0  0  0  0
   61.9794   32.5214   47.7835 H   0  0  0  0  0  0  0  0  0  0  0  0
   62.1439   34.2121   47.1484 H   0  0  0  0  0  0  0  0  0  0  0  0
   63.0603   33.6946   49.5359 H   0  0  0  0  0  0  0  0  0  0  0  0
   62.0449   35.1660   49.2927 H   0  0  0  0  0  0  0  0  0  0  0  0
   64.2737   32.7309   51.4419 H   0  0  0  0  0  0  0  0  0  0  0  0
   65.5875   30.6107   51.5345 H   0  0  0  0  0  0  0  0  0  0  0  0
   64.4065   28.4097   51.6054 H   0  0  0  0  0  0  0  0  0  0  0  0
   61.9109   28.3298   51.5762 H   0  0  0  0  0  0  0  0  0  0  0  0
   60.5878   30.4449   51.5272 H   0  0  0  0  0  0  0  0  0  0  0  0
   59.0989   33.4057   50.8949 H   0  0  0  0  0  0  0  0  0  0  0  0
   59.5089   34.9391   50.0692 H   0  0  0  0  0  0  0  0  0  0  0  0
   59.2849   32.1458   48.8429 H   0  0  0  0  0  0  0  0  0  0  0  0
   58.2699   33.6010   48.4974 H   0  0  0  0  0  0  0  0  0  0  0  0
  1  2  1  0
  2  3  2  0
  3  4  1  0
  4  5  2  0
  5  6  1  0
  6  7  2  0
  6  8  1  0
  8  9  1  0
  9 10  1  0
 10 11  2  0
 10 12  2  0
 10 13  1  0
 13 14  2  0
 14 15  1  0
 15 16  2  0
 16 17  1  0
 17 18  2  0
  5 19  1  0
 19 20  2  0
 20 21  1  0
 21 22  2  0
 21 23  1  0
 23 24  1  0
 24 25  1  0
 25 26  1  0
 26 27  1  0
 27 28  2  0
 27 29  1  0
 29 30  2  0
 30 31  1  0
 31 32  2  0
 32 33  1  0
 33 34  2  0
 26 35  1  0
 35 36  1  0
 20  2  1  0
 36 23  1  0
 18 13  1  0
 34 29  1  0
  1 37  1  0
  1 38  1  0
  1 39  1  0
  4 40  1  0
  8 41  1  0
  8 42  1  0
  9 43  1  0
 14 44  1  0
 15 45  1  0
 16 46  1  0
 17 47  1  0
 18 48  1  0
 19 49  1  0
 24 50  1  0
 24 51  1  0
 25 52  1  0
 25 53  1  0
 30 54  1  0
 31 55  1  0
 32 56  1  0
 33 57  1  0
 34 58  1  0
 35 59  1  0
 35 60  1  0
 36 61  1  0
 36 62  1  0
M  END
>  <UniqueID>  (55) 
51

>  <SMILES>  (55) 
Cc1ncc(C(=O)CNS(=O)(=O)c2ccccc2)cc1C(=O)N1CCN(C(=O)c2ccccc2)CC1

>  <Energy>  (55) 
78.52489822659125

>  <Genealogy>  (55) 
Cc1ncc(C(=O)CNS(=O)(=O)c2ccccc2)cc1C(=O)N1CCN(C(=O)c2ccccc2)CC1 (3D coordinates assigned)
Cc1ncc(C(=O)CNS(=O)(=O)c2ccccc2)cc1C(=O)N1CCN(C(=O)c2ccccc2)CC1 (nonaromatic ring conformer: 78.52489822659125 kcal/mol)

>  <smiles>  (55) 
Cc1ncc(C(=O)CNS(=O)(=O)c2ccccc2)cc1C(=O)N1CCN(C(=O)c2ccccc2)CC1

>  <score_type>  (55) 
oracle

>  <origin>  (55) 
adg

>  <m_score__min__energy>  (55) 
-10.27

>  <m_primary>  (55) 
energy

$$$$
55:0
     RDKit          3D

 65 68  0  0  0  0  0  0  0  0999 V2000
   59.2770   30.1870   49.5050 C   0  0  0  0  0  0  0  0  0  0  0  0
   59.7480   31.4830   48.7970 C   0  0  1  0  0  0  0  0  0  0  0  0
   58.5090   32.4080   48.5070 C   0  0  0  0  0  0  0  0  0  0  0  0
   58.7080   33.4020   47.3770 C   0  0  0  0  0  0  0  0  0  0  0  0
   57.7920   33.4530   46.3090 C   0  0  0  0  0  0  0  0  0  0  0  0
   57.9660   34.3730   45.2700 C   0  0  0  0  0  0  0  0  0  0  0  0
   59.0550   35.2440   45.2790 C   0  0  0  0  0  0  0  0  0  0  0  0
   59.9850   35.1840   46.3200 C   0  0  0  0  0  0  0  0  0  0  0  0
   59.8220   34.2590   47.3550 C   0  0  0  0  0  0  0  0  0  0  0  0
   60.7380   32.2100   49.7000 C   0  0  0  0  0  0  0  0  0  0  0  0
   60.4670   33.3460   50.1740 O   0  0  0  0  0  0  0  0  0  0  0  0
   62.0580   31.6950   49.8720 N   0  0  0  0  0  0  0  0  0  0  0  0
   62.3910   31.1730   51.1680 C   0  0  0  0  0  0  0  0  0  0  0  0
   63.5240   31.4210   51.6610 O   0  0  0  0  0  0  0  0  0  0  0  0
   61.5020   30.3040   51.8810 N   0  0  0  0  0  0  0  0  0  0  0  0
   60.8350   30.6330   53.1340 C   0  0  0  0  0  0  0  0  0  0  0  0
   59.7830   31.6700   52.8720 C   0  0  0  0  0  0  0  0  0  0  0  0
   58.4750   31.2750   52.5450 C   0  0  0  0  0  0  0  0  0  0  0  0
   57.4780   32.2360   52.3480 C   0  0  0  0  0  0  0  0  0  0  0  0
   57.7770   33.5950   52.4830 C   0  0  0  0  0  0  0  0  0  0  0  0
   59.0740   33.9960   52.8210 C   0  0  0  0  0  0  0  0  0  0  0  0
   60.0750   33.0380   53.0180 C   0  0  0  0  0  0  0  0  0  0  0  0
   63.1120   32.1190   48.9470 C   0  0  0  0  0  0  0  0  0  0  0  0
   62.9080   31.5610   47.5240 C   0  0  2  0  0  0  0  0  0  0  0  0
   63.9020   32.0920   46.6880 O   0  0  0  0  0  0  0  0  0  0  0  0
   61.5240   31.9350   46.9400 C   0  0  0  0  0  0  0  0  0  0  0  0
   60.4270   31.1220   47.5160 N   0  0  0  0  0  0  0  0  0  0  0  0
   60.0080   29.9640   46.7620 C   0  0  0  0  0  0  0  0  0  0  0  0
   60.6150   28.8670   46.9100 O   0  0  0  0  0  0  0  0  0  0  0  0
   58.8250   30.0310   45.8650 C   0  0  0  0  0  0  0  0  0  0  0  0
   58.7650   31.0600   44.9090 C   0  0  0  0  0  0  0  0  0  0  0  0
   57.6420   31.2130   44.0950 C   0  0  0  0  0  0  0  0  0  0  0  0
   56.5660   30.3320   44.2150 C   0  0  0  0  0  0  0  0  0  0  0  0
   56.6110   29.2900   45.1460 C   0  0  0  0  0  0  0  0  0  0  0  0
   55.5450   28.3970   45.2130 O   0  0  0  0  0  0  0  0  0  0  0  0
   57.7370   29.1280   45.9850 C   0  0  0  0  0  0  0  0  0  0  0  0
   57.7970   28.0170   46.8920 N   0  0  0  0  0  0  0  0  0  0  0  0
   58.0970   28.1970   48.0910 O   0  0  0  0  0  0  0  0  0  0  0  0
   57.3430   26.7780   46.4960 O   0  0  0  0  0  0  0  0  0  0  0  0
   59.3274   30.3256   50.5951 H   0  0  0  0  0  0  0  0  0  0  0  0
   58.2406   29.9646   49.2112 H   0  0  0  0  0  0  0  0  0  0  0  0
   59.9288   29.3511   49.2112 H   0  0  0  0  0  0  0  0  0  0  0  0
   57.6542   31.7649   48.2506 H   0  0  0  0  0  0  0  0  0  0  0  0
   58.3464   33.0028   49.4179 H   0  0  0  0  0  0  0  0  0  0  0  0
   56.9340   32.7649   46.2916 H   0  0  0  0  0  0  0  0  0  0  0  0
   57.2415   34.4096   44.4431 H   0  0  0  0  0  0  0  0  0  0  0  0
   59.1816   35.9767   44.4683 H   0  0  0  0  0  0  0  0  0  0  0  0
   60.8477   35.8665   46.3250 H   0  0  0  0  0  0  0  0  0  0  0  0
   60.5711   34.2012   48.1584 H   0  0  0  0  0  0  0  0  0  0  0  0
   60.3659   29.7292   53.5500 H   0  0  0  0  0  0  0  0  0  0  0  0
   61.5695   31.0236   53.8537 H   0  0  0  0  0  0  0  0  0  0  0  0
   58.2342   30.2065   52.4436 H   0  0  0  0  0  0  0  0  0  0  0  0
   56.4568   31.9219   52.0864 H   0  0  0  0  0  0  0  0  0  0  0  0
   56.9923   34.3492   52.3234 H   0  0  0  0  0  0  0  0  0  0  0  0
   59.3072   35.0652   52.9320 H   0  0  0  0  0  0  0  0  0  0  0  0
   61.0929   33.3558   53.2878 H   0  0  0  0  0  0  0  0  0  0  0  0
   63.1171   33.2179   48.8977 H   0  0  0  0  0  0  0  0  0  0  0  0
   64.0672   31.7269   49.3262 H   0  0  0  0  0  0  0  0  0  0  0  0
   62.9676   30.4641   47.5801 H   0  0  0  0  0  0  0  0  0  0  0  0
   64.7080   31.5130   46.7770 H   0  0  0  0  0  0  0  0  0  0  0  0
   61.3262   32.9959   47.1529 H   0  0  0  0  0  0  0  0  0  0  0  0
   61.5533   31.7385   45.8581 H   0  0  0  0  0  0  0  0  0  0  0  0
   59.6129   31.7524   44.8014 H   0  0  0  0  0  0  0  0  0  0  0  0
   57.6046   32.0287   43.3580 H   0  0  0  0  0  0  0  0  0  0  0  0
   55.6801   30.4579   43.5752 H   0  0  0  0  0  0  0  0  0  0  0  0
  2  1  1  1
  2  3  1  0
  3  4  1  0
  4  5  2  0
  5  6  1  0
  6  7  2  0
  7  8  1  0
  8  9  2  0
  2 10  1  0
 10 11  2  0
 10 12  1  0
 12 13  1  0
 13 14  2  0
 13 15  1  0
 15 16  1  0
 16 17  1  0
 17 18  2  0
 18 19  1  0
 19 20  2  0
 20 21  1  0
 21 22  2  0
 12 23  1  0
 23 24  1  0
 24 25  1  0
 24 26  1  0
 26 27  1  0
 27 28  1  0
 28 29  2  0
 28 30  1  0
 30 31  2  0
 31 32  1  0
 32 33  2  0
 33 34  1  0
 34 35  1  0
 34 36  2  0
 36 37  1  0
 37 38  2  0
 37 39  1  0
 27  2  1  0
 36 30  1  0
  9  4  1  0
 22 17  1  0
  1 40  1  0
  1 41  1  0
  1 42  1  0
  3 43  1  0
  3 44  1  0
  5 45  1  0
  6 46  1  0
  7 47  1  0
  8 48  1  0
  9 49  1  0
 16 50  1  0
 16 51  1  0
 18 52  1  0
 19 53  1  0
 20 54  1  0
 21 55  1  0
 22 56  1  0
 23 57  1  0
 23 58  1  0
 24 59  1  1
 25 60  1  0
 26 61  1  0
 26 62  1  0
 31 63  1  0
 32 64  1  0
 33 65  1  0
M  CHG  4  15  -1  35  -1  37   1  39  -1
M  END
>  <UniqueID>  (56) 
52

>  <SMILES>  (56) 
C[C@@]1(Cc2ccccc2)C(=O)N(C(=O)[N-]Cc2ccccc2)C[C@H](O)CN1C(=O)c1cccc([O-])c1[N+](=O)[O-]

>  <Energy>  (56) 
101.45963284191464

>  <Genealogy>  (56) 
CC1(Cc2ccccc2)C(=O)N(C(=O)[N-]Cc2ccccc2)CC(O)CN1C(=O)c1cccc([O-])c1[N+](=O)[O-] (protonated)
C[C@@]1(Cc2ccccc2)C(=O)N(C(=O)[N-]Cc2ccccc2)C[C@H](O)CN1C(=O)c1cccc([O-])c1[N+](=O)[O-] (chirality)
C[C@@]1(Cc2ccccc2)C(=O)N(C(=O)[N-]Cc2ccccc2)C[C@H](O)CN1C(=O)c1cccc([O-])c1[N+](=O)[O-] (3D coordinates assigned)
C[C@@]1(Cc2ccccc2)C(=O)N(C(=O)[N-]Cc2ccccc2)C[C@H](O)CN1C(=O)c1cccc([O-])c1[N+](=O)[O-] (nonaromatic ring conformer: 101.45963284191464 kcal/mol)

>  <smiles>  (56) 
CC1(Cc2ccccc2)C(=O)N(C(=O)NCc2ccccc2)CC(O)CN1C(=O)c1cccc(O)c1[N+](=O)[O-]

>  <score_type>  (56) 
oracle

>  <origin>  (56) 
adg

>  <m_score__min__energy>  (56) 
-11.93

>  <m_primary>  (56) 
energy

$$$$
56:0
     RDKit          3D

 54 56  0  0  0  0  0  0  0  0999 V2000
   56.6420   29.3390   43.4690 C   0  0  0  0  0  0  0  0  0  0  0  0
   57.6440   28.9870   44.2900 C   0  0  0  0  0  0  0  0  0  0  0  0
   58.0250   27.6880   44.6630 C   0  0  0  0  0  0  0  0  0  0  0  0
   57.4180   26.5000   44.4770 C   0  0  0  0  0  0  0  0  0  0  0  0
   56.9610   25.5950   45.5440 C   0  0  0  0  0  0  0  0  0  0  0  0
   57.5990   24.4710   45.9210 N   0  0  0  0  0  0  0  0  0  0  0  0
   56.7480   23.9140   46.8090 C   0  0  0  0  0  0  0  0  0  0  0  0
   57.0020   22.8360   47.4070 O   0  0  0  0  0  0  0  0  0  0  0  0
   55.5980   24.5970   47.0000 N   0  0  0  0  0  0  0  0  0  0  0  0
   55.7450   25.6510   46.1790 C   0  0  0  0  0  0  0  0  0  0  0  0
   54.7840   26.6400   46.0120 O   0  0  0  0  0  0  0  0  0  0  0  0
   59.2320   27.8160   45.3330 C   0  0  0  0  0  0  0  0  0  0  0  0
   59.5020   29.1670   45.4160 C   0  0  0  0  0  0  0  0  0  0  0  0
   60.7600   29.7500   45.9880 C   0  0  0  0  0  0  0  0  0  0  0  0
   58.5420   29.8750   44.7860 N   0  0  0  0  0  0  0  0  0  0  0  0
   58.5560   31.2970   44.5900 C   0  0  0  0  0  0  0  0  0  0  0  0
   58.4180   31.7620   43.4250 O   0  0  0  0  0  0  0  0  0  0  0  0
   58.7190   32.1840   45.7120 N   0  0  0  0  0  0  0  0  0  0  0  0
   58.3750   31.7050   47.0590 C   0  0  0  0  0  0  0  0  0  0  0  0
   58.3150   32.8530   48.0730 C   0  0  0  0  0  0  0  0  0  0  0  0
   59.5000   33.7110   47.9430 N   0  0  0  0  0  0  0  0  0  0  0  0
   60.1160   34.2810   49.1140 C   0  0  0  0  0  0  0  0  0  0  0  0
   61.1680   34.9650   48.9970 O   0  0  0  0  0  0  0  0  0  0  0  0
   59.5350   34.0750   50.3770 O   0  0  0  0  0  0  0  0  0  0  0  0
   59.6690   32.9050   51.1970 C   0  0  0  0  0  0  0  0  0  0  0  0
   60.2440   33.3610   52.5460 C   0  0  0  0  0  0  0  0  0  0  0  0
   60.6460   31.9020   50.5530 C   0  0  0  0  0  0  0  0  0  0  0  0
   58.2960   32.2490   51.4380 C   0  0  0  0  0  0  0  0  0  0  0  0
   60.0010   34.0840   46.6110 C   0  0  0  0  0  0  0  0  0  0  0  0
   59.0740   33.5920   45.4950 C   0  0  0  0  0  0  0  0  0  0  0  0
   56.4500   30.4017   43.2597 H   0  0  0  0  0  0  0  0  0  0  0  0
   56.0129   28.5647   43.0055 H   0  0  0  0  0  0  0  0  0  0  0  0
   57.2494   26.1786   43.4386 H   0  0  0  0  0  0  0  0  0  0  0  0
   59.8549   26.9978   45.7235 H   0  0  0  0  0  0  0  0  0  0  0  0
   60.7087   29.7262   47.0865 H   0  0  0  0  0  0  0  0  0  0  0  0
   61.6246   29.1608   45.6485 H   0  0  0  0  0  0  0  0  0  0  0  0
   60.8693   30.7906   45.6485 H   0  0  0  0  0  0  0  0  0  0  0  0
   57.3927   31.2114   47.0214 H   0  0  0  0  0  0  0  0  0  0  0  0
   59.1578   31.0032   47.3827 H   0  0  0  0  0  0  0  0  0  0  0  0
   57.4112   33.4524   47.8893 H   0  0  0  0  0  0  0  0  0  0  0  0
   58.2881   32.4318   49.0888 H   0  0  0  0  0  0  0  0  0  0  0  0
   59.6675   32.9038   53.3637 H   0  0  0  0  0  0  0  0  0  0  0  0
   61.2963   33.0492   52.6203 H   0  0  0  0  0  0  0  0  0  0  0  0
   60.1801   34.4566   52.6203 H   0  0  0  0  0  0  0  0  0  0  0  0
   61.1808   31.3530   51.3420 H   0  0  0  0  0  0  0  0  0  0  0  0
   60.0839   31.1919   49.9287 H   0  0  0  0  0  0  0  0  0  0  0  0
   61.3706   32.4453   49.9287 H   0  0  0  0  0  0  0  0  0  0  0  0
   58.1156   32.1628   52.5197 H   0  0  0  0  0  0  0  0  0  0  0  0
   57.5088   32.8683   50.9832 H   0  0  0  0  0  0  0  0  0  0  0  0
   58.2832   31.2475   50.9832 H   0  0  0  0  0  0  0  0  0  0  0  0
   60.0768   35.1799   46.5534 H   0  0  0  0  0  0  0  0  0  0  0  0
   60.9843   33.6112   46.4713 H   0  0  0  0  0  0  0  0  0  0  0  0
   58.1578   34.2007   45.4895 H   0  0  0  0  0  0  0  0  0  0  0  0
   59.5940   33.6856   44.5302 H   0  0  0  0  0  0  0  0  0  0  0  0
  1  2  2  0
  2  3  1  0
  3  4  2  3
  4  5  1  0
  5  6  1  0
  6  7  1  0
  7  8  2  0
  7  9  1  0
  9 10  1  0
 10 11  1  0
  3 12  1  0
 12 13  2  0
 13 14  1  0
 13 15  1  0
 15 16  1  0
 16 17  2  0
 16 18  1  0
 18 19  1  0
 19 20  1  0
 20 21  1  0
 21 22  1  0
 22 23  2  0
 22 24  1  0
 24 25  1  0
 25 26  1  0
 25 27  1  0
 25 28  1  0
 21 29  1  0
 29 30  1  0
 15  2  1  0
 30 18  1  0
 10  5  2  0
  1 31  1  0
  1 32  1  0
  4 33  1  0
 12 34  1  0
 14 35  1  0
 14 36  1  0
 14 37  1  0
 19 38  1  0
 19 39  1  0
 20 40  1  0
 20 41  1  0
 26 42  1  0
 26 43  1  0
 26 44  1  0
 27 45  1  0
 27 46  1  0
 27 47  1  0
 28 48  1  0
 28 49  1  0
 28 50  1  0
 29 51  1  0
 29 52  1  0
 30 53  1  0
 30 54  1  0
M  CHG  3   6  -1   9  -1  11  -1
M  END
>  <UniqueID>  (57) 
53

>  <SMILES>  (57) 
C=c1c(=Cc2[n-]c(=O)[n-]c2[O-])cc(C)n1C(=O)N1CCN(C(=O)OC(C)(C)C)CC1

>  <Energy>  (57) 
123.23071606514351

>  <Genealogy>  (57) 
C=c1c(=Cc2[n-]c(=O)[n-]c2[O-])cc(C)n1C(=O)N1CCN(C(=O)OC(C)(C)C)CC1 (protonated)
C=c1c(=Cc2[n-]c(=O)[n-]c2[O-])cc(C)n1C(=O)N1CCN(C(=O)OC(C)(C)C)CC1 (3D coordinates assigned)
C=c1c(=Cc2[n-]c(=O)[n-]c2[O-])cc(C)n1C(=O)N1CCN(C(=O)OC(C)(C)C)CC1 (nonaromatic ring conformer: 123.23071606514351 kcal/mol)

>  <smiles>  (57) 
C=c1c(=Cc2[nH]c(=O)[nH]c2O)cc(C)n1C(=O)N1CCN(C(=O)OC(C)(C)C)CC1

>  <score_type>  (57) 
oracle

>  <origin>  (57) 
adg

>  <m_score__min__energy>  (57) 
-16.629999999999999

>  <m_primary>  (57) 
energy

$$$$
57:0
     RDKit          3D

 50 53  0  0  0  0  0  0  0  0999 V2000
   51.5810   23.3910   44.4420 H   0  0  0  0  0  0  0  0  0  0  0  0
   52.3480   23.0010   45.0360 N   0  0  0  0  0  0  0  0  0  0  0  0
   53.5040   23.5750   45.0950 C   0  0  0  0  0  0  0  0  0  0  0  0
   53.8350   24.4620   46.0550 N   0  0  0  0  0  0  0  0  0  0  0  0
   55.0770   24.9240   45.9230 N   0  0  0  0  0  0  0  0  0  0  0  0
   55.7280   24.4110   44.8530 C   0  0  0  0  0  0  0  0  0  0  0  0
   57.1530   24.7250   44.5250 C   0  0  0  0  0  0  0  0  0  0  0  0
   57.5219   24.0012   43.7834 H   0  0  0  0  0  0  0  0  0  0  0  0
   57.2084   25.7455   44.1182 H   0  0  0  0  0  0  0  0  0  0  0  0
   58.0210   24.6450   45.7820 C   0  0  0  0  0  0  0  0  0  0  0  0
   57.4534   24.1506   46.5841 H   0  0  0  0  0  0  0  0  0  0  0  0
   58.9298   24.0689   45.5533 H   0  0  0  0  0  0  0  0  0  0  0  0
   58.4140   26.0160   46.2290 C   0  0  0  0  0  0  0  0  0  0  0  0
   59.4570   26.2600   47.0620 N   0  0  0  0  0  0  0  0  0  0  0  0
   59.4290   27.6030   47.1160 C   0  0  0  0  0  0  0  0  0  0  0  0
   58.4690   28.1290   46.3620 N   0  0  0  0  0  0  0  0  0  0  0  0
   57.7920   27.1410   45.8080 N   0  0  0  0  0  0  0  0  0  0  0  0
   58.0980   29.5410   46.3920 C   0  0  2  0  0  0  0  0  0  0  0  0
   57.2863   29.6705   47.1230 H   0  0  0  0  0  0  0  0  0  0  0  0
   57.5740   29.9960   45.0400 C   0  0  0  0  0  0  0  0  0  0  0  0
   58.3440   30.8820   44.2640 C   0  0  0  0  0  0  0  0  0  0  0  0
   59.3057   31.2509   44.6502 H   0  0  0  0  0  0  0  0  0  0  0  0
   57.8970   31.2970   43.0070 C   0  0  0  0  0  0  0  0  0  0  0  0
   58.5046   31.9936   42.4108 H   0  0  0  0  0  0  0  0  0  0  0  0
   56.6800   30.8290   42.5060 C   0  0  0  0  0  0  0  0  0  0  0  0
   56.3276   31.1609   41.5182 H   0  0  0  0  0  0  0  0  0  0  0  0
   55.9110   29.9400   43.2590 C   0  0  0  0  0  0  0  0  0  0  0  0
   54.9546   29.5703   42.8607 H   0  0  0  0  0  0  0  0  0  0  0  0
   56.3510   29.5170   44.5180 C   0  0  0  0  0  0  0  0  0  0  0  0
   55.5690   28.6200   45.2400 O   0  0  0  0  0  0  0  0  0  0  0  0
   59.3120   30.4140   46.8500 C   0  0  1  0  0  0  0  0  0  0  0  0
   59.9499   30.5859   45.9705 H   0  0  0  0  0  0  0  0  0  0  0  0
   58.8080   31.7380   47.3730 C   0  0  0  0  0  0  0  0  0  0  0  0
   58.1740   31.7710   48.4630 O   0  0  0  0  0  0  0  0  0  0  0  0
   59.0770   32.9530   46.6580 N   0  0  0  0  0  0  0  0  0  0  0  0
   59.6940   32.9220   45.8150 H   0  0  0  0  0  0  0  0  0  0  0  0
   58.5450   34.2470   47.0780 C   0  0  0  0  0  0  0  0  0  0  0  0
   57.6118   34.4491   46.5319 H   0  0  0  0  0  0  0  0  0  0  0  0
   58.3525   34.2177   48.1606 H   0  0  0  0  0  0  0  0  0  0  0  0
   59.5470   35.3570   46.7860 C   0  0  0  0  0  0  0  0  0  0  0  0
   59.9213   35.7717   47.7336 H   0  0  0  0  0  0  0  0  0  0  0  0
   60.3882   34.9485   46.2068 H   0  0  0  0  0  0  0  0  0  0  0  0
   59.0549   36.1522   46.2068 H   0  0  0  0  0  0  0  0  0  0  0  0
   60.2160   29.7090   47.8720 C   0  0  0  0  0  0  0  0  0  0  0  0
   61.2070   30.4860   48.6890 C   0  0  0  0  0  0  0  0  0  0  0  0
   61.0049   30.3275   49.7586 H   0  0  0  0  0  0  0  0  0  0  0  0
   62.2253   30.1431   48.4536 H   0  0  0  0  0  0  0  0  0  0  0  0
   61.1170   31.5567   48.4536 H   0  0  0  0  0  0  0  0  0  0  0  0
   60.2780   28.4080   47.9280 N   0  0  0  0  0  0  0  0  0  0  0  0
   54.7660   23.3090   44.0110 S   0  0  0  0  0  0  0  0  0  0  0  0
  1  2  1  0
  2  3  2  0
  3  4  1  0
  4  5  1  0
  5  6  2  0
  6  7  1  0
  7  8  1  0
  7  9  1  0
  7 10  1  0
 10 11  1  0
 10 12  1  0
 10 13  1  0
 13 14  1  0
 14 15  2  0
 15 16  1  0
 16 17  1  0
 16 18  1  0
 18 19  1  1
 18 20  1  0
 20 21  2  0
 21 22  1  0
 21 23  1  0
 23 24  1  0
 23 25  2  0
 25 26  1  0
 25 27  1  0
 27 28  1  0
 27 29  2  0
 29 30  1  0
 18 31  1  0
 31 32  1  6
 31 33  1  0
 33 34  2  0
 33 35  1  0
 35 36  1  0
 35 37  1  0
 37 38  1  0
 37 39  1  0
 37 40  1  0
 40 41  1  0
 40 42  1  0
 40 43  1  0
 31 44  1  0
 44 45  1  0
 45 46  1  0
 45 47  1  0
 45 48  1  0
 44 49  2  0
  6 50  1  0
 50  3  1  0
 17 13  2  0
 29 20  1  0
 49 15  1  0
M  CHG  2   4  -1  30  -1
M  END
>  <UniqueID>  (58) 
54

>  <SMILES>  (58) 
[H]/N=c1/[n-]nc(CCc2nc3n(n2)[C@H](c2ccccc2[O-])[C@@H](C(=O)NCC)C(C)=N3)s1

>  <Energy>  (58) 
114.94381100012825

>  <Genealogy>  (58) 
CCNC(=O)C1C(C)=Nc2nc(CCc3n[n-]c(=N)s3)nn2C1c1ccccc1[O-] (protonated)
CCNC(=O)[C@H]1C(C)=Nc2nc(CCc3n[n-]c(=N)s3)nn2[C@@H]1c1ccccc1[O-] (chirality)
[H]/N=c1/[n-]nc(CCc2nc3n(n2)[C@H](c2ccccc2[O-])[C@@H](C(=O)NCC)C(C)=N3)s1 (cis-trans isomerization)
[H]/N=c1/[n-]nc(CCc2nc3n(n2)[C@H](c2ccccc2[O-])[C@@H](C(=O)NCC)C(C)=N3)s1 (3D coordinates assigned)
[H]/N=c1/[n-]nc(CCc2nc3n(n2)[C@H](c2ccccc2[O-])[C@@H](C(=O)NCC)C(C)=N3)s1 (nonaromatic ring conformer: 114.94381100012825 kcal/mol)

>  <smiles>  (58) 
CCNC(=O)C1C(C)=Nc2nc(CCc3n[nH]c(=N)s3)nn2C1c1ccccc1O

>  <score_type>  (58) 
oracle

>  <origin>  (58) 
adg

>  <m_score__min__energy>  (58) 
-14.029999999999999

>  <m_primary>  (58) 
energy

$$$$
58:0
     RDKit          3D

 45 48  0  0  0  0  0  0  0  0999 V2000
   64.2930   33.6740   47.8620 N   0  0  0  0  0  0  0  0  0  0  0  0
   63.8600   33.1490   49.4500 S   0  0  0  0  0  0  0  0  0  0  0  0
   64.4590   31.7950   49.7120 O   0  0  0  0  0  0  0  0  0  0  0  0
   64.4000   34.1190   50.4630 O   0  0  0  0  0  0  0  0  0  0  0  0
   62.1060   33.0570   49.5840 C   0  0  0  0  0  0  0  0  0  0  0  0
   61.4930   33.0420   50.8420 C   0  0  0  0  0  0  0  0  0  0  0  0
   60.1020   32.9790   50.9450 C   0  0  0  0  0  0  0  0  0  0  0  0
   59.3140   32.9370   49.7920 C   0  0  0  0  0  0  0  0  0  0  0  0
   59.9130   32.9610   48.5180 C   0  0  0  0  0  0  0  0  0  0  0  0
   59.0760   32.9230   47.2920 C   0  0  0  0  0  0  0  0  0  0  0  0
   58.1370   33.9370   47.0350 C   0  0  0  0  0  0  0  0  0  0  0  0
   57.3450   33.8930   45.8860 C   0  0  0  0  0  0  0  0  0  0  0  0
   57.4790   32.8370   44.9810 C   0  0  0  0  0  0  0  0  0  0  0  0
   58.4130   31.8150   45.2160 C   0  0  0  0  0  0  0  0  0  0  0  0
   58.5330   30.6600   44.2500 C   0  0  0  0  0  0  0  0  0  0  0  0
   57.8860   29.4450   44.8010 N   0  0  0  0  0  0  0  0  0  0  0  0
   56.5100   29.3900   44.7800 C   0  0  0  0  0  0  0  0  0  0  0  0
   55.8320   30.3330   44.2880 O   0  0  0  0  0  0  0  0  0  0  0  0
   55.8500   28.3230   45.2890 N   0  0  0  0  0  0  0  0  0  0  0  0
   56.4980   27.2760   45.8400 C   0  0  0  0  0  0  0  0  0  0  0  0
   55.8280   26.3100   46.2970 O   0  0  0  0  0  0  0  0  0  0  0  0
   57.8960   27.2780   45.8980 C   0  0  0  0  0  0  0  0  0  0  0  0
   58.5970   26.2020   46.4740 C   0  0  0  0  0  0  0  0  0  0  0  0
   59.9880   26.2170   46.5300 C   0  0  0  0  0  0  0  0  0  0  0  0
   60.6930   27.2990   46.0140 C   0  0  0  0  0  0  0  0  0  0  0  0
   60.0160   28.3750   45.4360 C   0  0  0  0  0  0  0  0  0  0  0  0
   58.5970   28.3950   45.3640 C   0  0  0  0  0  0  0  0  0  0  0  0
   59.2080   31.8670   46.3720 C   0  0  0  0  0  0  0  0  0  0  0  0
   61.3160   33.0240   48.4260 C   0  0  0  0  0  0  0  0  0  0  0  0
   64.9160   32.9400   47.4580 H   0  0  0  0  0  0  0  0  0  0  0  0
   63.4190   33.6740   47.2910 H   0  0  0  0  0  0  0  0  0  0  0  0
   62.1090   33.0800   51.7525 H   0  0  0  0  0  0  0  0  0  0  0  0
   59.6254   32.9624   51.9362 H   0  0  0  0  0  0  0  0  0  0  0  0
   58.2188   32.8849   49.8801 H   0  0  0  0  0  0  0  0  0  0  0  0
   58.0254   34.7707   47.7439 H   0  0  0  0  0  0  0  0  0  0  0  0
   56.6137   34.6917   45.6928 H   0  0  0  0  0  0  0  0  0  0  0  0
   56.8495   32.8060   44.0795 H   0  0  0  0  0  0  0  0  0  0  0  0
   58.0450   30.9303   43.3019 H   0  0  0  0  0  0  0  0  0  0  0  0
   59.5995   30.4478   44.0841 H   0  0  0  0  0  0  0  0  0  0  0  0
   58.0426   25.3442   46.8823 H   0  0  0  0  0  0  0  0  0  0  0  0
   60.5294   25.3730   46.9824 H   0  0  0  0  0  0  0  0  0  0  0  0
   61.7919   27.3073   46.0615 H   0  0  0  0  0  0  0  0  0  0  0  0
   60.5904   29.2207   45.0299 H   0  0  0  0  0  0  0  0  0  0  0  0
   59.9439   31.0715   46.5609 H   0  0  0  0  0  0  0  0  0  0  0  0
   61.7970   33.0476   47.4370 H   0  0  0  0  0  0  0  0  0  0  0  0
  1  2  1  0
  2  3  2  0
  2  4  2  0
  2  5  1  0
  5  6  2  0
  6  7  1  0
  7  8  2  0
  8  9  1  0
  9 10  1  0
 10 11  2  0
 11 12  1  0
 12 13  2  0
 13 14  1  0
 14 15  1  0
 15 16  1  0
 16 17  1  0
 17 18  2  0
 17 19  1  0
 19 20  1  0
 20 21  2  0
 20 22  1  0
 22 23  2  0
 23 24  1  0
 24 25  2  0
 25 26  1  0
 26 27  2  0
 14 28  2  0
  9 29  2  0
 29  5  1  0
 28 10  1  0
 27 16  1  0
 27 22  1  0
  1 30  1  0
  1 31  1  0
  6 32  1  0
  7 33  1  0
  8 34  1  0
 11 35  1  0
 12 36  1  0
 13 37  1  0
 15 38  1  0
 15 39  1  0
 23 40  1  0
 24 41  1  0
 25 42  1  0
 26 43  1  0
 28 44  1  0
 29 45  1  0
M  CHG  1  19  -1
M  END
>  <UniqueID>  (59) 
55

>  <SMILES>  (59) 
NS(=O)(=O)c1cccc(-c2cccc(Cn3c(=O)[n-]c(=O)c4ccccc43)c2)c1

>  <Energy>  (59) 
66.32932657618422

>  <Genealogy>  (59) 
NS(=O)(=O)c1cccc(-c2cccc(Cn3c(=O)[n-]c(=O)c4ccccc43)c2)c1 (protonated)
NS(=O)(=O)c1cccc(-c2cccc(Cn3c(=O)[n-]c(=O)c4ccccc43)c2)c1 (3D coordinates assigned)
NS(=O)(=O)c1cccc(-c2cccc(Cn3c(=O)[n-]c(=O)c4ccccc43)c2)c1 (optimized conformer: 66.32932657618422 kcal/mol)

>  <smiles>  (59) 
NS(=O)(=O)c1cccc(-c2cccc(Cn3c(=O)[nH]c(=O)c4ccccc43)c2)c1

>  <score_type>  (59) 
oracle

>  <origin>  (59) 
adg

>  <m_score__min__energy>  (59) 
-11.83

>  <m_primary>  (59) 
energy

$$$$
59:0
     RDKit          3D

 66 69  0  0  0  0  0  0  0  0999 V2000
   58.0380   30.3640   46.7440 O   0  0  0  0  0  0  0  0  0  0  0  0
   59.2610   30.3200   47.0540 C   0  0  0  0  0  0  0  0  0  0  0  0
   60.3030   30.2630   45.9620 C   0  0  0  0  0  0  0  0  0  0  0  0
   60.2550   28.9450   45.1700 C   0  0  0  0  0  0  0  0  0  0  0  0
   58.9060   28.7390   44.4580 C   0  0  0  0  0  0  0  0  0  0  0  0
   57.9140   27.9340   45.3100 C   0  0  0  0  0  0  0  0  0  0  0  0
   57.5930   26.6180   44.6490 C   0  0  0  0  0  0  0  0  0  0  0  0
   57.3050   25.4890   45.3140 C   0  0  0  0  0  0  0  0  0  0  0  0
   56.0130   24.7790   45.2120 C   0  0  0  0  0  0  0  0  0  0  0  0
   54.8250   25.4040   45.6160 C   0  0  0  0  0  0  0  0  0  0  0  0
   54.8400   26.7050   46.1060 O   0  0  0  0  0  0  0  0  0  0  0  0
   53.6470   24.7330   45.5390 N   0  0  0  0  0  0  0  0  0  0  0  0
   53.5930   23.4610   45.0640 C   0  0  0  0  0  0  0  0  0  0  0  0
   52.4900   22.8590   45.0030 O   0  0  0  0  0  0  0  0  0  0  0  0
   54.7270   22.8420   44.6480 N   0  0  0  0  0  0  0  0  0  0  0  0
   55.9290   23.4710   44.7030 C   0  0  0  0  0  0  0  0  0  0  0  0
   56.9580   22.8780   44.2820 O   0  0  0  0  0  0  0  0  0  0  0  0
   59.6400   30.2270   48.4440 N   0  0  0  0  0  0  0  0  0  0  0  0
   60.8520   29.4910   48.8350 C   0  0  0  0  0  0  0  0  0  0  0  0
   61.1190   29.5900   50.3460 C   0  0  0  0  0  0  0  0  0  0  0  0
   60.7940   30.9240   50.8940 N   0  0  0  0  0  0  0  0  0  0  0  0
   61.8950   31.9160   50.8890 C   0  0  0  0  0  0  0  0  0  0  0  0
   62.2320   32.4480   49.5120 C   0  0  0  0  0  0  0  0  0  0  0  0
   63.4650   32.1540   48.9070 C   0  0  0  0  0  0  0  0  0  0  0  0
   63.7830   32.6890   47.6560 C   0  0  0  0  0  0  0  0  0  0  0  0
   62.8660   33.5010   46.9870 C   0  0  0  0  0  0  0  0  0  0  0  0
   61.6150   33.7690   47.5510 C   0  0  0  0  0  0  0  0  0  0  0  0
   60.7300   34.6070   46.8580 O   0  0  0  0  0  0  0  0  0  0  0  0
   59.4800   34.2330   46.3480 C   0  0  0  0  0  0  0  0  0  0  0  0
   59.3040   34.1980   44.9590 C   0  0  0  0  0  0  0  0  0  0  0  0
   58.0770   33.8130   44.4110 C   0  0  0  0  0  0  0  0  0  0  0  0
   57.0190   33.4480   45.2510 C   0  0  0  0  0  0  0  0  0  0  0  0
   57.1920   33.4590   46.6370 C   0  0  0  0  0  0  0  0  0  0  0  0
   58.4170   33.8460   47.1880 C   0  0  0  0  0  0  0  0  0  0  0  0
   61.3020   33.2430   48.8180 C   0  0  0  0  0  0  0  0  0  0  0  0
   59.4530   31.4650   50.5620 C   0  0  0  0  0  0  0  0  0  0  0  0
   58.7100   30.6530   49.4930 C   0  0  0  0  0  0  0  0  0  0  0  0
   60.1319   31.0985   45.2672 H   0  0  0  0  0  0  0  0  0  0  0  0
   61.2916   30.3301   46.4396 H   0  0  0  0  0  0  0  0  0  0  0  0
   61.0550   28.9568   44.4151 H   0  0  0  0  0  0  0  0  0  0  0  0
   60.3878   28.1188   45.8840 H   0  0  0  0  0  0  0  0  0  0  0  0
   58.4671   29.7238   44.2400 H   0  0  0  0  0  0  0  0  0  0  0  0
   59.0958   28.1705   43.5356 H   0  0  0  0  0  0  0  0  0  0  0  0
   58.3579   27.7434   46.2983 H   0  0  0  0  0  0  0  0  0  0  0  0
   56.9852   28.5138   45.4155 H   0  0  0  0  0  0  0  0  0  0  0  0
   57.5950   26.5809   43.5496 H   0  0  0  0  0  0  0  0  0  0  0  0
   58.0766   25.0666   45.9745 H   0  0  0  0  0  0  0  0  0  0  0  0
   60.7282   28.4321   48.5641 H   0  0  0  0  0  0  0  0  0  0  0  0
   61.7077   29.9373   48.3071 H   0  0  0  0  0  0  0  0  0  0  0  0
   60.5048   28.8377   50.8624 H   0  0  0  0  0  0  0  0  0  0  0  0
   62.1932   29.4162   50.5068 H   0  0  0  0  0  0  0  0  0  0  0  0
   61.6012   32.7634   51.5258 H   0  0  0  0  0  0  0  0  0  0  0  0
   62.7924   31.4005   51.2617 H   0  0  0  0  0  0  0  0  0  0  0  0
   64.1841   31.4991   49.4208 H   0  0  0  0  0  0  0  0  0  0  0  0
   64.7585   32.4697   47.1973 H   0  0  0  0  0  0  0  0  0  0  0  0
   63.1290   33.9328   46.0101 H   0  0  0  0  0  0  0  0  0  0  0  0
   60.1363   34.4751   44.2953 H   0  0  0  0  0  0  0  0  0  0  0  0
   57.9431   33.7970   43.3193 H   0  0  0  0  0  0  0  0  0  0  0  0
   56.0511   33.1524   44.8198 H   0  0  0  0  0  0  0  0  0  0  0  0
   56.3627   33.1626   47.2961 H   0  0  0  0  0  0  0  0  0  0  0  0
   58.5514   33.8484   48.2798 H   0  0  0  0  0  0  0  0  0  0  0  0
   60.3217   33.4553   49.2696 H   0  0  0  0  0  0  0  0  0  0  0  0
   58.8445   31.4724   51.4783 H   0  0  0  0  0  0  0  0  0  0  0  0
   59.6050   32.4745   50.1523 H   0  0  0  0  0  0  0  0  0  0  0  0
   58.2577   29.7656   49.9599 H   0  0  0  0  0  0  0  0  0  0  0  0
   57.9267   31.2818   49.0446 H   0  0  0  0  0  0  0  0  0  0  0  0
  1  2  2  0
  2  3  1  0
  3  4  1  0
  4  5  1  0
  5  6  1  0
  6  7  1  0
  7  8  2  3
  8  9  1  0
  9 10  2  0
 10 11  1  0
 10 12  1  0
 12 13  1  0
 13 14  2  0
 13 15  1  0
 15 16  1  0
 16 17  2  0
  2 18  1  0
 18 19  1  0
 19 20  1  0
 20 21  1  0
 21 22  1  0
 22 23  1  0
 23 24  2  0
 24 25  1  0
 25 26  2  0
 26 27  1  0
 27 28  1  0
 28 29  1  0
 29 30  2  0
 30 31  1  0
 31 32  2  0
 32 33  1  0
 33 34  2  0
 27 35  2  0
 21 36  1  0
 36 37  1  0
 16  9  1  0
 37 18  1  0
 35 23  1  0
 34 29  1  0
  3 38  1  0
  3 39  1  0
  4 40  1  0
  4 41  1  0
  5 42  1  0
  5 43  1  0
  6 44  1  0
  6 45  1  0
  7 46  1  0
  8 47  1  0
 19 48  1  0
 19 49  1  0
 20 50  1  0
 20 51  1  0
 22 52  1  0
 22 53  1  0
 24 54  1  0
 25 55  1  0
 26 56  1  0
 30 57  1  0
 31 58  1  0
 32 59  1  0
 33 60  1  0
 34 61  1  0
 35 62  1  0
 36 63  1  0
 36 64  1  0
 37 65  1  0
 37 66  1  0
M  CHG  3  11  -1  12  -1  15  -1
M  END
>  <UniqueID>  (60) 
56

>  <SMILES>  (60) 
O=C(CCCCC=Cc1c([O-])[n-]c(=O)[n-]c1=O)N1CCN(Cc2cccc(Oc3ccccc3)c2)CC1

>  <Energy>  (60) 
87.55641356493791

>  <Genealogy>  (60) 
O=C(CCCCC=Cc1c([O-])[n-]c(=O)[n-]c1=O)N1CCN(Cc2cccc(Oc3ccccc3)c2)CC1 (protonated)
O=C(CCCCC=Cc1c([O-])[n-]c(=O)[n-]c1=O)N1CCN(Cc2cccc(Oc3ccccc3)c2)CC1 (3D coordinates assigned)
O=C(CCCCC=Cc1c([O-])[n-]c(=O)[n-]c1=O)N1CCN(Cc2cccc(Oc3ccccc3)c2)CC1 (nonaromatic ring conformer: 87.55641356493791 kcal/mol)

>  <smiles>  (60) 
O=C(CCCCC=Cc1c(O)[nH]c(=O)[nH]c1=O)N1CCN(Cc2cccc(Oc3ccccc3)c2)CC1

>  <score_type>  (60) 
oracle

>  <origin>  (60) 
adg

>  <m_score__min__energy>  (60) 
-16.989999999999998

>  <m_primary>  (60) 
energy

$$$$
60:0
     RDKit          3D

 49 51  0  0  0  0  0  0  0  0999 V2000
   56.7100   24.3330   43.9900 C   0  0  0  0  0  0  0  0  0  0  0  0
   56.0960   24.5940   45.2470 O   0  0  0  0  0  0  0  0  0  0  0  0
   55.9330   25.8860   45.7580 C   0  0  0  0  0  0  0  0  0  0  0  0
   54.7720   26.3200   45.9950 O   0  0  0  0  0  0  0  0  0  0  0  0
   57.1340   26.7290   46.0200 C   0  0  0  0  0  0  0  0  0  0  0  0
   58.2740   26.1180   46.5780 C   0  0  0  0  0  0  0  0  0  0  0  0
   59.4090   26.8680   46.8820 C   0  0  0  0  0  0  0  0  0  0  0  0
   59.4230   28.2400   46.6500 C   0  0  0  0  0  0  0  0  0  0  0  0
   58.3070   28.8680   46.0980 C   0  0  0  0  0  0  0  0  0  0  0  0
   57.1620   28.1240   45.7500 C   0  0  0  0  0  0  0  0  0  0  0  0
   55.9940   28.7650   45.2080 N   0  0  0  0  0  0  0  0  0  0  0  0
   55.9000   29.7420   44.1630 C   0  0  0  0  0  0  0  0  0  0  0  0
   55.5110   29.4280   43.0070 O   0  0  0  0  0  0  0  0  0  0  0  0
   56.2500   31.1650   44.4700 C   0  0  0  0  0  0  0  0  0  0  0  0
   57.6920   31.7320   43.4960 S   0  0  0  0  0  0  0  0  0  0  0  0
   58.5550   32.4670   44.8840 C   0  0  0  0  0  0  0  0  0  0  0  0
   58.7150   33.8110   44.9420 N   0  0  0  0  0  0  0  0  0  0  0  0
   59.4350   34.3920   45.9330 C   0  0  0  0  0  0  0  0  0  0  0  0
   59.5530   35.6470   45.9480 O   0  0  0  0  0  0  0  0  0  0  0  0
   60.0500   33.5950   46.9200 C   0  0  0  0  0  0  0  0  0  0  0  0
   60.8750   34.2240   48.0170 C   0  0  0  0  0  0  0  0  0  0  0  0
   59.8500   32.1960   46.8520 C   0  0  0  0  0  0  0  0  0  0  0  0
   60.4260   31.2380   47.8660 C   0  0  0  0  0  0  0  0  0  0  0  0
   59.5090   31.0740   49.0490 C   0  0  0  0  0  0  0  0  0  0  0  0
   59.4230   29.8420   49.7190 C   0  0  0  0  0  0  0  0  0  0  0  0
   58.5650   29.6930   50.8140 C   0  0  0  0  0  0  0  0  0  0  0  0
   57.7820   30.7700   51.2430 C   0  0  0  0  0  0  0  0  0  0  0  0
   57.8530   31.9950   50.5750 C   0  0  0  0  0  0  0  0  0  0  0  0
   58.7080   32.1470   49.4790 C   0  0  0  0  0  0  0  0  0  0  0  0
   59.1070   31.6760   45.8380 N   0  0  0  0  0  0  0  0  0  0  0  0
   57.7112   23.9074   44.1523 H   0  0  0  0  0  0  0  0  0  0  0  0
   56.0953   23.6184   43.4230 H   0  0  0  0  0  0  0  0  0  0  0  0
   56.7980   25.2715   43.4230 H   0  0  0  0  0  0  0  0  0  0  0  0
   58.2685   25.0360   46.7762 H   0  0  0  0  0  0  0  0  0  0  0  0
   60.2956   26.3741   47.3063 H   0  0  0  0  0  0  0  0  0  0  0  0
   60.3162   28.8303   46.9025 H   0  0  0  0  0  0  0  0  0  0  0  0
   58.3206   29.9554   45.9325 H   0  0  0  0  0  0  0  0  0  0  0  0
   55.3863   31.8037   44.2332 H   0  0  0  0  0  0  0  0  0  0  0  0
   56.5088   31.2322   45.5370 H   0  0  0  0  0  0  0  0  0  0  0  0
   60.4761   33.9199   48.9960 H   0  0  0  0  0  0  0  0  0  0  0  0
   61.9195   33.8909   47.9271 H   0  0  0  0  0  0  0  0  0  0  0  0
   60.8304   35.3194   47.9271 H   0  0  0  0  0  0  0  0  0  0  0  0
   60.5737   30.2579   47.3889 H   0  0  0  0  0  0  0  0  0  0  0  0
   61.3829   31.6460   48.2235 H   0  0  0  0  0  0  0  0  0  0  0  0
   60.0328   28.9911   49.3812 H   0  0  0  0  0  0  0  0  0  0  0  0
   58.5060   28.7278   51.3383 H   0  0  0  0  0  0  0  0  0  0  0  0
   57.1105   30.6524   52.1062 H   0  0  0  0  0  0  0  0  0  0  0  0
   57.2356   32.8409   50.9116 H   0  0  0  0  0  0  0  0  0  0  0  0
   58.7543   33.1106   48.9505 H   0  0  0  0  0  0  0  0  0  0  0  0
  1  2  1  0
  2  3  1  0
  3  4  2  0
  3  5  1  0
  5  6  2  0
  6  7  1  0
  7  8  2  0
  8  9  1  0
  9 10  2  0
 10 11  1  0
 11 12  1  0
 12 13  2  0
 12 14  1  0
 14 15  1  0
 15 16  1  0
 16 17  2  0
 17 18  1  0
 18 19  2  0
 18 20  1  0
 20 21  1  0
 20 22  2  0
 22 23  1  0
 23 24  1  0
 24 25  2  0
 25 26  1  0
 26 27  2  0
 27 28  1  0
 28 29  2  0
 22 30  1  0
 10  5  1  0
 30 16  1  0
 29 24  1  0
  1 31  1  0
  1 32  1  0
  1 33  1  0
  6 34  1  0
  7 35  1  0
  8 36  1  0
  9 37  1  0
 14 38  1  0
 14 39  1  0
 21 40  1  0
 21 41  1  0
 21 42  1  0
 23 43  1  0
 23 44  1  0
 25 45  1  0
 26 46  1  0
 27 47  1  0
 28 48  1  0
 29 49  1  0
M  CHG  2  11  -1  30  -1
M  END
>  <UniqueID>  (61) 
57

>  <SMILES>  (61) 
COC(=O)c1ccccc1[N-]C(=O)CSc1nc(=O)c(C)c(Cc2ccccc2)[n-]1

>  <Energy>  (61) 
49.26030364833366

>  <Genealogy>  (61) 
COC(=O)c1ccccc1[N-]C(=O)CSc1nc(=O)c(C)c(Cc2ccccc2)[n-]1 (protonated)
COC(=O)c1ccccc1[N-]C(=O)CSc1nc(=O)c(C)c(Cc2ccccc2)[n-]1 (3D coordinates assigned)
COC(=O)c1ccccc1[N-]C(=O)CSc1nc(=O)c(C)c(Cc2ccccc2)[n-]1 (optimized conformer: 49.26030364833366 kcal/mol)

>  <smiles>  (61) 
COC(=O)c1ccccc1NC(=O)CSc1nc(=O)c(C)c(Cc2ccccc2)[nH]1

>  <score_type>  (61) 
oracle

>  <origin>  (61) 
adg

>  <m_score__min__energy>  (61) 
-12.140000000000001

>  <m_primary>  (61) 
energy

$$$$
61:0
     RDKit          3D

 46 48  0  0  0  0  0  0  0  0999 V2000
   64.2900   31.8150   50.3590 C   0  0  0  0  0  0  0  0  0  0  0  0
   63.1720   31.4690   49.5390 O   0  0  0  0  0  0  0  0  0  0  0  0
   62.6600   32.2770   48.5150 C   0  0  0  0  0  0  0  0  0  0  0  0
   63.5560   33.0640   47.7790 C   0  0  0  0  0  0  0  0  0  0  0  0
   63.0980   33.8570   46.7220 C   0  0  0  0  0  0  0  0  0  0  0  0
   61.7400   33.8710   46.3940 C   0  0  0  0  0  0  0  0  0  0  0  0
   60.8250   33.1190   47.1450 C   0  0  0  0  0  0  0  0  0  0  0  0
   59.4540   33.0600   46.7280 N   0  0  0  0  0  0  0  0  0  0  0  0
   58.9150   32.3090   45.8040 C   0  0  0  0  0  0  0  0  0  0  0  0
   58.6910   31.0060   46.1070 N   0  0  0  0  0  0  0  0  0  0  0  0
   58.1420   30.1290   45.2260 C   0  0  0  0  0  0  0  0  0  0  0  0
   57.9140   28.7260   45.6550 C   0  0  0  0  0  0  0  0  0  0  0  0
   59.0160   27.9460   46.0610 C   0  0  0  0  0  0  0  0  0  0  0  0
   58.8500   26.6030   46.4080 C   0  0  0  0  0  0  0  0  0  0  0  0
   57.5830   26.0180   46.3570 C   0  0  0  0  0  0  0  0  0  0  0  0
   56.4630   26.7820   45.9800 C   0  0  0  0  0  0  0  0  0  0  0  0
   55.1400   26.2290   45.9740 N   0  0  0  0  0  0  0  0  0  0  0  0
   54.7470   24.5600   45.6910 S   0  0  0  0  0  0  0  0  0  0  0  0
   53.0280   24.4220   45.2360 C   0  0  0  0  0  0  0  0  0  0  0  0
   54.9820   23.7920   46.9630 O   0  0  0  0  0  0  0  0  0  0  0  0
   55.6310   23.9820   44.6130 O   0  0  0  0  0  0  0  0  0  0  0  0
   56.6330   28.1310   45.6210 C   0  0  0  0  0  0  0  0  0  0  0  0
   55.5540   28.8290   45.1690 F   0  0  0  0  0  0  0  0  0  0  0  0
   57.7690   30.5980   43.9570 C   0  0  0  0  0  0  0  0  0  0  0  0
   58.0050   31.8980   43.6050 N   0  0  0  0  0  0  0  0  0  0  0  0
   57.6700   32.3440   42.2430 C   0  0  0  0  0  0  0  0  0  0  0  0
   58.5980   32.7610   44.4960 C   0  0  0  0  0  0  0  0  0  0  0  0
   58.8960   33.9300   44.1250 O   0  0  0  0  0  0  0  0  0  0  0  0
   61.2880   32.3090   48.1950 C   0  0  0  0  0  0  0  0  0  0  0  0
   64.0084   31.7278   51.4188 H   0  0  0  0  0  0  0  0  0  0  0  0
   65.1267   31.1338   50.1447 H   0  0  0  0  0  0  0  0  0  0  0  0
   64.5956   32.8497   50.1447 H   0  0  0  0  0  0  0  0  0  0  0  0
   64.6260   33.0580   48.0342 H   0  0  0  0  0  0  0  0  0  0  0  0
   63.8080   34.4706   46.1480 H   0  0  0  0  0  0  0  0  0  0  0  0
   61.3874   34.4737   45.5441 H   0  0  0  0  0  0  0  0  0  0  0  0
   60.0171   28.3997   46.1050 H   0  0  0  0  0  0  0  0  0  0  0  0
   59.7186   26.0055   46.7219 H   0  0  0  0  0  0  0  0  0  0  0  0
   57.4599   24.9552   46.6127 H   0  0  0  0  0  0  0  0  0  0  0  0
   52.4109   24.3725   46.1452 H   0  0  0  0  0  0  0  0  0  0  0  0
   52.7346   25.2995   44.6411 H   0  0  0  0  0  0  0  0  0  0  0  0
   52.8783   23.5090   44.6411 H   0  0  0  0  0  0  0  0  0  0  0  0
   57.2845   29.9166   43.2422 H   0  0  0  0  0  0  0  0  0  0  0  0
   57.0102   33.2225   42.2967 H   0  0  0  0  0  0  0  0  0  0  0  0
   58.5929   32.6108   41.7072 H   0  0  0  0  0  0  0  0  0  0  0  0
   57.1566   31.5320   41.7072 H   0  0  0  0  0  0  0  0  0  0  0  0
   60.5769   31.6973   48.7697 H   0  0  0  0  0  0  0  0  0  0  0  0
  1  2  1  0
  2  3  1  0
  3  4  2  0
  4  5  1  0
  5  6  2  0
  6  7  1  0
  7  8  1  0
  8  9  2  3
  9 10  1  0
 10 11  1  0
 11 12  1  0
 12 13  2  0
 13 14  1  0
 14 15  2  0
 15 16  1  0
 16 17  1  0
 17 18  1  0
 18 19  1  0
 18 20  2  0
 18 21  2  0
 16 22  2  0
 22 23  1  0
 11 24  2  0
 24 25  1  0
 25 26  1  0
 25 27  1  0
 27 28  2  0
  7 29  2  0
 29  3  1  0
 27  9  1  0
 22 12  1  0
  1 30  1  0
  1 31  1  0
  1 32  1  0
  4 33  1  0
  5 34  1  0
  6 35  1  0
 13 36  1  0
 14 37  1  0
 15 38  1  0
 19 39  1  0
 19 40  1  0
 19 41  1  0
 24 42  1  0
 26 43  1  0
 26 44  1  0
 26 45  1  0
 29 46  1  0
M  CHG  2  10  -1  17  -1
M  END
>  <UniqueID>  (62) 
58

>  <SMILES>  (62) 
COc1cccc(N=c2[n-]c(-c3cccc([N-]S(C)(=O)=O)c3F)cn(C)c2=O)c1

>  <Energy>  (62) 
70.03850459116616

>  <Genealogy>  (62) 
COc1cccc(N=c2[n-]c(-c3cccc([N-]S(C)(=O)=O)c3F)cn(C)c2=O)c1 (protonated)
COc1cccc(N=c2[n-]c(-c3cccc([N-]S(C)(=O)=O)c3F)cn(C)c2=O)c1 (3D coordinates assigned)
COc1cccc(N=c2[n-]c(-c3cccc([N-]S(C)(=O)=O)c3F)cn(C)c2=O)c1 (optimized conformer: 70.03850459116616 kcal/mol)

>  <smiles>  (62) 
COc1cccc(N=c2[nH]c(-c3cccc(NS(C)(=O)=O)c3F)cn(C)c2=O)c1

>  <score_type>  (62) 
oracle

>  <origin>  (62) 
adg

>  <m_score__min__energy>  (62) 
-11.9

>  <m_primary>  (62) 
energy

$$$$
62:0
     RDKit          3D

 48 51  0  0  0  0  0  0  0  0999 V2000
   57.7220   34.1560   44.5280 C   0  0  0  0  0  0  0  0  0  0  0  0
   58.6380   33.9240   45.6780 C   0  0  0  0  0  0  0  0  0  0  0  0
   60.0330   33.9400   45.6120 C   0  0  0  0  0  0  0  0  0  0  0  0
   60.6390   33.8090   46.8260 N   0  0  0  0  0  0  0  0  0  0  0  0
   61.9800   33.8070   47.0730 C   0  0  0  0  0  0  0  0  0  0  0  0
   62.8100   33.9010   46.1270 O   0  0  0  0  0  0  0  0  0  0  0  0
   62.4280   33.7170   48.4000 C   0  0  0  0  0  0  0  0  0  0  0  0
   61.4800   33.6210   49.4370 C   0  0  0  0  0  0  0  0  0  0  0  0
   61.9150   33.6660   50.8720 C   0  0  0  0  0  0  0  0  0  0  0  0
   60.8370   33.2420   51.7060 O   0  0  0  0  0  0  0  0  0  0  0  0
   60.1990   31.9990   51.5810 C   0  0  0  0  0  0  0  0  0  0  0  0
   58.9390   31.7510   52.1540 C   0  0  0  0  0  0  0  0  0  0  0  0
   58.3430   30.4940   52.0250 C   0  0  0  0  0  0  0  0  0  0  0  0
   58.9970   29.4770   51.3270 C   0  0  0  0  0  0  0  0  0  0  0  0
   60.2460   29.7110   50.7380 C   0  0  0  0  0  0  0  0  0  0  0  0
   60.9180   28.6190   50.0970 N   0  0  0  0  0  0  0  0  0  0  0  0
   60.4120   27.8150   49.0200 C   0  0  0  0  0  0  0  0  0  0  0  0
   60.7460   26.5980   48.9730 O   0  0  0  0  0  0  0  0  0  0  0  0
   59.4690   28.3470   48.0070 C   0  0  0  0  0  0  0  0  0  0  0  0
   58.5810   27.4930   47.3220 C   0  0  0  0  0  0  0  0  0  0  0  0
   57.7370   27.9980   46.3240 C   0  0  0  0  0  0  0  0  0  0  0  0
   57.7680   29.3600   45.9960 C   0  0  0  0  0  0  0  0  0  0  0  0
   56.7580   29.9830   44.6930 S   0  0  0  0  0  0  0  0  0  0  0  0
   55.1560   29.3400   44.8140 N   0  0  0  0  0  0  0  0  0  0  0  0
   56.6770   31.4780   44.7820 O   0  0  0  0  0  0  0  0  0  0  0  0
   57.3630   29.6000   43.3750 O   0  0  0  0  0  0  0  0  0  0  0  0
   58.6460   30.2150   46.6790 C   0  0  0  0  0  0  0  0  0  0  0  0
   59.4960   29.7110   47.6700 C   0  0  0  0  0  0  0  0  0  0  0  0
   60.8420   30.9800   50.8670 C   0  0  0  0  0  0  0  0  0  0  0  0
   60.1490   33.6260   49.1370 N   0  0  0  0  0  0  0  0  0  0  0  0
   59.7500   33.7060   47.8400 C   0  0  0  0  0  0  0  0  0  0  0  0
   58.1570   33.7760   47.2980 S   0  0  0  0  0  0  0  0  0  0  0  0
   56.7196   34.4099   44.9031 H   0  0  0  0  0  0  0  0  0  0  0  0
   58.1052   34.9854   43.9155 H   0  0  0  0  0  0  0  0  0  0  0  0
   57.6642   33.2441   43.9155 H   0  0  0  0  0  0  0  0  0  0  0  0
   60.5900   34.0481   44.6696 H   0  0  0  0  0  0  0  0  0  0  0  0
   63.5043   33.7214   48.6269 H   0  0  0  0  0  0  0  0  0  0  0  0
   62.7760   32.9967   51.0160 H   0  0  0  0  0  0  0  0  0  0  0  0
   62.2034   34.6939   51.1372 H   0  0  0  0  0  0  0  0  0  0  0  0
   58.4209   32.5493   52.7056 H   0  0  0  0  0  0  0  0  0  0  0  0
   57.3568   30.3053   52.4742 H   0  0  0  0  0  0  0  0  0  0  0  0
   58.5284   28.4857   51.2391 H   0  0  0  0  0  0  0  0  0  0  0  0
   58.5504   26.4224   47.5727 H   0  0  0  0  0  0  0  0  0  0  0  0
   57.0475   27.3228   45.7961 H   0  0  0  0  0  0  0  0  0  0  0  0
   55.1470   28.6920   45.6300 H   0  0  0  0  0  0  0  0  0  0  0  0
   58.6664   31.2872   46.4343 H   0  0  0  0  0  0  0  0  0  0  0  0
   60.1906   30.3878   48.1891 H   0  0  0  0  0  0  0  0  0  0  0  0
   61.8207   31.1727   50.4032 H   0  0  0  0  0  0  0  0  0  0  0  0
  1  2  1  0
  2  3  2  0
  3  4  1  0
  4  5  1  0
  5  6  2  0
  5  7  1  0
  7  8  2  0
  8  9  1  0
  9 10  1  0
 10 11  1  0
 11 12  2  0
 12 13  1  0
 13 14  2  0
 14 15  1  0
 15 16  1  0
 16 17  1  0
 17 18  2  0
 17 19  1  0
 19 20  2  0
 20 21  1  0
 21 22  2  0
 22 23  1  0
 23 24  1  0
 23 25  2  0
 23 26  2  0
 22 27  1  0
 27 28  2  0
 15 29  2  0
  8 30  1  0
 30 31  2  0
 31 32  1  0
 32  2  1  0
 31  4  1  0
 29 11  1  0
 28 19  1  0
  1 33  1  0
  1 34  1  0
  1 35  1  0
  3 36  1  0
  7 37  1  0
  9 38  1  0
  9 39  1  0
 12 40  1  0
 13 41  1  0
 14 42  1  0
 20 43  1  0
 21 44  1  0
 24 45  1  0
 27 46  1  0
 28 47  1  0
 29 48  1  0
M  CHG  2  16  -1  24  -1
M  END
>  <UniqueID>  (63) 
59

>  <SMILES>  (63) 
Cc1cn2c(=O)cc(COc3cccc([N-]C(=O)c4ccc(S([NH-])(=O)=O)cc4)c3)nc2s1

>  <Energy>  (63) 
95.7702169799081

>  <Genealogy>  (63) 
Cc1cn2c(=O)cc(COc3cccc([N-]C(=O)c4ccc(S([NH-])(=O)=O)cc4)c3)nc2s1 (protonated)
Cc1cn2c(=O)cc(COc3cccc([N-]C(=O)c4ccc(S([NH-])(=O)=O)cc4)c3)nc2s1 (3D coordinates assigned)
Cc1cn2c(=O)cc(COc3cccc([N-]C(=O)c4ccc(S([NH-])(=O)=O)cc4)c3)nc2s1 (optimized conformer: 95.7702169799081 kcal/mol)

>  <smiles>  (63) 
Cc1cn2c(=O)cc(COc3cccc(NC(=O)c4ccc(S(N)(=O)=O)cc4)c3)nc2s1

>  <score_type>  (63) 
oracle

>  <origin>  (63) 
adg

>  <m_score__min__energy>  (63) 
-13.25

>  <m_primary>  (63) 
energy

$$$$
63:0
     RDKit          3D

 32 33  0  0  0  0  0  0  0  0999 V2000
   54.5940   23.5030   43.8230 C   0  0  0  0  0  0  0  0  0  0  0  0
   53.9170   23.6390   45.4660 S   0  0  0  0  0  0  0  0  0  0  0  0
   52.9720   24.8070   45.4960 O   0  0  0  0  0  0  0  0  0  0  0  0
   53.1670   22.3820   45.8010 O   0  0  0  0  0  0  0  0  0  0  0  0
   55.1720   23.9010   46.6330 N   0  0  0  0  0  0  0  0  0  0  0  0
   56.3510   24.6560   46.3450 C   0  0  0  0  0  0  0  0  0  0  0  0
   57.5770   23.9850   46.2780 C   0  0  0  0  0  0  0  0  0  0  0  0
   58.7540   24.6890   46.0210 C   0  0  0  0  0  0  0  0  0  0  0  0
   58.7150   26.0720   45.8400 C   0  0  0  0  0  0  0  0  0  0  0  0
   57.5010   26.7640   45.9100 C   0  0  0  0  0  0  0  0  0  0  0  0
   57.5100   28.1820   45.7000 N   0  0  0  0  0  0  0  0  0  0  0  0
   58.2490   28.8630   44.6780 C   0  0  0  0  0  0  0  0  0  0  0  0
   59.4560   28.5690   44.4610 O   0  0  0  0  0  0  0  0  0  0  0  0
   57.5940   29.9700   43.8960 C   0  0  0  0  0  0  0  0  0  0  0  0
   57.0530   31.1070   44.7530 C   0  0  0  0  0  0  0  0  0  0  0  0
   55.6630   30.8310   44.3900 N   0  0  0  0  0  0  0  0  0  0  0  0
   56.1300   29.7240   43.5560 C   0  0  0  0  0  0  0  0  0  0  0  0
   56.3000   26.0480   46.1090 C   0  0  0  0  0  0  0  0  0  0  0  0
   55.0790   26.7160   46.0100 O   0  0  0  0  0  0  0  0  0  0  0  0
   55.6706   23.2867   43.8868 H   0  0  0  0  0  0  0  0  0  0  0  0
   54.0877   22.6886   43.2841 H   0  0  0  0  0  0  0  0  0  0  0  0
   54.4415   24.4497   43.2841 H   0  0  0  0  0  0  0  0  0  0  0  0
   57.6132   22.8960   46.4288 H   0  0  0  0  0  0  0  0  0  0  0  0
   59.7130   24.1535   45.9611 H   0  0  0  0  0  0  0  0  0  0  0  0
   59.6462   26.6226   45.6407 H   0  0  0  0  0  0  0  0  0  0  0  0
   58.3760   30.1035   43.1340 H   0  0  0  0  0  0  0  0  0  0  0  0
   57.2570   30.9792   45.8263 H   0  0  0  0  0  0  0  0  0  0  0  0
   57.4481   32.1212   44.5939 H   0  0  0  0  0  0  0  0  0  0  0  0
   55.1750   30.4330   45.2270 H   0  0  0  0  0  0  0  0  0  0  0  0
   55.7639   28.7419   43.8899 H   0  0  0  0  0  0  0  0  0  0  0  0
   55.8317   29.6993   42.4975 H   0  0  0  0  0  0  0  0  0  0  0  0
   54.2180   26.3350   46.3770 H   0  0  0  0  0  0  0  0  0  0  0  0
  1  2  1  0
  2  3  2  0
  2  4  2  0
  2  5  1  0
  5  6  1  0
  6  7  2  0
  7  8  1  0
  8  9  2  0
  9 10  1  0
 10 11  1  0
 11 12  1  0
 12 13  2  0
 12 14  1  0
 14 15  1  0
 15 16  1  0
 16 17  1  0
 10 18  2  0
 18 19  1  0
 18  6  1  0
 17 14  1  0
  1 20  1  0
  1 21  1  0
  1 22  1  0
  7 23  1  0
  8 24  1  0
  9 25  1  0
 14 26  1  0
 15 27  1  0
 15 28  1  0
 16 29  1  0
 17 30  1  0
 17 31  1  0
 19 32  1  0
M  CHG  2   5  -1  11  -1
M  END
>  <UniqueID>  (64) 
60

>  <SMILES>  (64) 
CS(=O)(=O)[N-]c1cccc([N-]C(=O)C2CNC2)c1O

>  <Energy>  (64) 
108.65007501018064

>  <Genealogy>  (64) 
CS(=O)(=O)[N-]c1cccc([N-]C(=O)C2CNC2)c1O (protonated)
CS(=O)(=O)[N-]c1cccc([N-]C(=O)C2CNC2)c1O (3D coordinates assigned)
CS(=O)(=O)[N-]c1cccc([N-]C(=O)C2CNC2)c1O (nonaromatic ring conformer: 108.65007501018064 kcal/mol)

>  <smiles>  (64) 
CS(=O)(=O)Nc1cccc(NC(=O)C2CNC2)c1O

>  <score_type>  (64) 
oracle

>  <origin>  (64) 
adg

>  <m_score__min__energy>  (64) 
-11.48

>  <m_primary>  (64) 
energy

$$$$
64:0
     RDKit          3D

 56 58  0  0  0  0  0  0  0  0999 V2000
   58.7110   24.0730   45.6810 C   0  0  0  0  0  0  0  0  0  0  0  0
   58.2390   25.4310   45.9800 N   0  0  0  0  0  0  0  0  0  0  0  0
   57.1500   25.6300   46.9490 C   0  0  0  0  0  0  0  0  0  0  0  0
   55.8020   25.6190   46.2750 C   0  0  0  0  0  0  0  0  0  0  0  0
   55.2370   26.7160   46.0230 O   0  0  0  0  0  0  0  0  0  0  0  0
   55.1310   24.4030   45.9210 N   0  0  0  0  0  0  0  0  0  0  0  0
   55.6580   23.4080   45.0400 C   0  0  0  0  0  0  0  0  0  0  0  0
   55.7690   23.7000   43.6740 C   0  0  0  0  0  0  0  0  0  0  0  0
   56.2720   22.7450   42.7870 C   0  0  0  0  0  0  0  0  0  0  0  0
   56.6830   21.4980   43.2630 C   0  0  0  0  0  0  0  0  0  0  0  0
   56.6070   21.2100   44.6280 C   0  0  0  0  0  0  0  0  0  0  0  0
   56.1060   22.1630   45.5230 C   0  0  0  0  0  0  0  0  0  0  0  0
   56.1250   21.7620   47.3970 Br  0  0  0  0  0  0  0  0  0  0  0  0
   58.7430   26.5540   45.2230 C   0  0  0  0  0  0  0  0  0  0  0  0
   59.9570   26.8830   45.3330 O   0  0  0  0  0  0  0  0  0  0  0  0
   57.8300   27.3710   44.3400 C   0  0  0  0  0  0  0  0  0  0  0  0
   57.9470   28.8480   44.6110 C   0  0  0  0  0  0  0  0  0  0  0  0
   57.3210   29.7770   43.7660 C   0  0  0  0  0  0  0  0  0  0  0  0
   57.4030   31.1460   44.0380 C   0  0  0  0  0  0  0  0  0  0  0  0
   58.1090   31.6080   45.1610 C   0  0  0  0  0  0  0  0  0  0  0  0
   58.1780   33.0180   45.4510 N   0  0  0  0  0  0  0  0  0  0  0  0
   58.8570   33.9300   44.5250 C   0  0  0  0  0  0  0  0  0  0  0  0
   59.2570   35.2340   45.2400 C   0  0  0  0  0  0  0  0  0  0  0  0
   59.6900   34.9890   46.6360 N   0  0  0  0  0  0  0  0  0  0  0  0
   60.9390   34.2020   46.6860 C   0  0  0  0  0  0  0  0  0  0  0  0
   58.6220   34.3690   47.4720 C   0  0  0  0  0  0  0  0  0  0  0  0
   57.5760   33.5760   46.6650 C   0  0  0  0  0  0  0  0  0  0  0  0
   58.7150   30.6750   46.0190 C   0  0  0  0  0  0  0  0  0  0  0  0
   58.6340   29.3070   45.7460 C   0  0  0  0  0  0  0  0  0  0  0  0
   58.8982   23.5345   46.6217 H   0  0  0  0  0  0  0  0  0  0  0  0
   57.9458   23.5388   45.0987 H   0  0  0  0  0  0  0  0  0  0  0  0
   59.6426   24.1285   45.0987 H   0  0  0  0  0  0  0  0  0  0  0  0
   57.1833   24.8222   47.6949 H   0  0  0  0  0  0  0  0  0  0  0  0
   57.2887   26.6108   47.4274 H   0  0  0  0  0  0  0  0  0  0  0  0
   55.4585   24.6861   43.2982 H   0  0  0  0  0  0  0  0  0  0  0  0
   56.3443   22.9752   41.7138 H   0  0  0  0  0  0  0  0  0  0  0  0
   57.0669   20.7418   42.5625 H   0  0  0  0  0  0  0  0  0  0  0  0
   56.9420   20.2309   45.0009 H   0  0  0  0  0  0  0  0  0  0  0  0
   58.0922   27.1821   43.2885 H   0  0  0  0  0  0  0  0  0  0  0  0
   56.7942   27.0696   44.5552 H   0  0  0  0  0  0  0  0  0  0  0  0
   56.7630   29.4265   42.8852 H   0  0  0  0  0  0  0  0  0  0  0  0
   56.9111   31.8664   43.3678 H   0  0  0  0  0  0  0  0  0  0  0  0
   59.7613   33.4405   44.1343 H   0  0  0  0  0  0  0  0  0  0  0  0
   58.1694   34.1747   43.7020 H   0  0  0  0  0  0  0  0  0  0  0  0
   60.0851   35.7025   44.6880 H   0  0  0  0  0  0  0  0  0  0  0  0
   58.3758   35.8918   45.2671 H   0  0  0  0  0  0  0  0  0  0  0  0
   59.9130   35.9240   47.0520 H   0  0  0  0  0  0  0  0  0  0  0  0
   61.2193   34.0254   47.7349 H   0  0  0  0  0  0  0  0  0  0  0  0
   60.7851   33.2374   46.1802 H   0  0  0  0  0  0  0  0  0  0  0  0
   61.7427   34.7572   46.1802 H   0  0  0  0  0  0  0  0  0  0  0  0
   59.0979   33.6838   48.1890 H   0  0  0  0  0  0  0  0  0  0  0  0
   58.0856   35.1928   47.9657 H   0  0  0  0  0  0  0  0  0  0  0  0
   57.1863   32.7556   47.2855 H   0  0  0  0  0  0  0  0  0  0  0  0
   56.7600   34.2551   46.3771 H   0  0  0  0  0  0  0  0  0  0  0  0
   59.2564   31.0235   46.9109 H   0  0  0  0  0  0  0  0  0  0  0  0
   59.1116   28.5851   46.4248 H   0  0  0  0  0  0  0  0  0  0  0  0
  1  2  1  0
  2  3  1  0
  3  4  1  0
  4  5  2  0
  4  6  1  0
  6  7  1  0
  7  8  2  0
  8  9  1  0
  9 10  2  0
 10 11  1  0
 11 12  2  0
 12 13  1  0
  2 14  1  0
 14 15  2  0
 14 16  1  0
 16 17  1  0
 17 18  2  0
 18 19  1  0
 19 20  2  0
 20 21  1  0
 21 22  1  0
 22 23  1  0
 23 24  1  0
 24 25  1  0
 24 26  1  0
 26 27  1  0
 20 28  1  0
 28 29  2  0
 12  7  1  0
 29 17  1  0
 27 21  1  0
  1 30  1  0
  1 31  1  0
  1 32  1  0
  3 33  1  0
  3 34  1  0
  8 35  1  0
  9 36  1  0
 10 37  1  0
 11 38  1  0
 16 39  1  0
 16 40  1  0
 18 41  1  0
 19 42  1  0
 22 43  1  0
 22 44  1  0
 23 45  1  0
 23 46  1  0
 24 47  1  0
 25 48  1  0
 25 49  1  0
 25 50  1  0
 26 51  1  0
 26 52  1  0
 27 53  1  0
 27 54  1  0
 28 55  1  0
 29 56  1  0
M  CHG  2   6  -1  24   1
M  END
>  <UniqueID>  (65) 
61

>  <SMILES>  (65) 
CN(CC(=O)[N-]c1ccccc1Br)C(=O)Cc1ccc(N2CC[NH+](C)CC2)cc1

>  <Energy>  (65) 
71.4524747980373

>  <Genealogy>  (65) 
CN(CC(=O)[N-]c1ccccc1Br)C(=O)Cc1ccc(N2CC[NH+](C)CC2)cc1 (protonated)
CN(CC(=O)[N-]c1ccccc1Br)C(=O)Cc1ccc(N2CC[NH+](C)CC2)cc1 (3D coordinates assigned)
CN(CC(=O)[N-]c1ccccc1Br)C(=O)Cc1ccc(N2CC[NH+](C)CC2)cc1 (nonaromatic ring conformer: 71.4524747980373 kcal/mol)

>  <smiles>  (65) 
CN1CCN(c2ccc(CC(=O)N(C)CC(=O)Nc3ccccc3Br)cc2)CC1

>  <score_type>  (65) 
oracle

>  <origin>  (65) 
adg

>  <m_score__min__energy>  (65) 
-9.4399999999999995

>  <m_primary>  (65) 
energy

$$$$
65:0
     RDKit          3D

 32 34  0  0  0  0  0  0  0  0999 V2000
   60.5580   28.2960   50.6950 C   0  0  0  0  0  0  0  0  0  0  0  0
   60.4440   27.5480   51.9400 N   0  0  0  0  0  0  0  0  0  0  0  0
   59.8020   28.0250   53.1300 C   0  0  0  0  0  0  0  0  0  0  0  0
   60.5130   28.2910   54.1340 O   0  0  0  0  0  0  0  0  0  0  0  0
   58.3500   28.2660   53.2070 C   0  0  0  0  0  0  0  0  0  0  0  0
   57.4950   27.3600   53.8490 C   0  0  0  0  0  0  0  0  0  0  0  0
   56.1250   27.6310   53.9220 C   0  0  0  0  0  0  0  0  0  0  0  0
   55.3620   26.8090   54.4980 O   0  0  0  0  0  0  0  0  0  0  0  0
   55.6170   28.8190   53.3630 C   0  0  0  0  0  0  0  0  0  0  0  0
   54.2480   29.1400   53.4090 C   0  0  0  0  0  0  0  0  0  0  0  0
   53.7790   30.3370   52.8440 C   0  0  0  0  0  0  0  0  0  0  0  0
   52.3220   30.6970   52.9300 C   0  0  0  0  0  0  0  0  0  0  0  0
   51.7570   30.8900   51.5560 C   0  0  0  0  0  0  0  0  0  0  0  0
   52.0180   29.8590   50.2480 S   0  0  0  0  0  0  0  0  0  0  0  0
   51.1580   30.8470   49.1950 C   0  0  0  0  0  0  0  0  0  0  0  0
   50.9770   30.5940   47.9760 O   0  0  0  0  0  0  0  0  0  0  0  0
   50.6800   31.9560   49.7940 N   0  0  0  0  0  0  0  0  0  0  0  0
   51.0200   31.9830   51.1100 C   0  0  0  0  0  0  0  0  0  0  0  0
   50.6520   33.0380   51.9360 O   0  0  0  0  0  0  0  0  0  0  0  0
   54.6900   31.2250   52.2480 C   0  0  0  0  0  0  0  0  0  0  0  0
   56.0510   30.9140   52.1980 C   0  0  0  0  0  0  0  0  0  0  0  0
   56.5190   29.7170   52.7480 C   0  0  0  0  0  0  0  0  0  0  0  0
   57.8440   29.4200   52.6940 N   0  0  0  0  0  0  0  0  0  0  0  0
   60.7202   29.3604   50.9203 H   0  0  0  0  0  0  0  0  0  0  0  0
   61.4078   27.9109   50.1124 H   0  0  0  0  0  0  0  0  0  0  0  0
   59.6320   28.1815   50.1124 H   0  0  0  0  0  0  0  0  0  0  0  0
   57.9000   26.4391   54.2938 H   0  0  0  0  0  0  0  0  0  0  0  0
   53.5405   28.4490   53.8906 H   0  0  0  0  0  0  0  0  0  0  0  0
   51.7766   29.8875   53.4372 H   0  0  0  0  0  0  0  0  0  0  0  0
   52.2155   31.6332   53.4976 H   0  0  0  0  0  0  0  0  0  0  0  0
   54.3294   32.1711   51.8180 H   0  0  0  0  0  0  0  0  0  0  0  0
   56.7563   31.6129   51.7246 H   0  0  0  0  0  0  0  0  0  0  0  0
  1  2  1  0
  2  3  1  0
  3  4  2  0
  3  5  1  0
  5  6  2  0
  6  7  1  0
  7  8  2  0
  7  9  1  0
  9 10  2  0
 10 11  1  0
 11 12  1  0
 12 13  1  0
 13 14  1  0
 14 15  1  0
 15 16  2  0
 15 17  1  0
 17 18  1  0
 18 19  1  0
 11 20  2  0
 20 21  1  0
 21 22  2  0
 22 23  1  0
 23  5  1  0
 22  9  1  0
 18 13  2  0
  1 24  1  0
  1 25  1  0
  1 26  1  0
  6 27  1  0
 10 28  1  0
 12 29  1  0
 12 30  1  0
 20 31  1  0
 21 32  1  0
M  CHG  4   2  -1  17  -1  19  -1  23  -1
M  END
>  <UniqueID>  (66) 
62

>  <SMILES>  (66) 
C[N-]C(=O)c1cc(=O)c2cc(Cc3sc(=O)[n-]c3[O-])ccc2[n-]1

>  <Energy>  (66) 
71.30726253557735

>  <Genealogy>  (66) 
C[N-]C(=O)c1cc(=O)c2cc(Cc3sc(=O)[n-]c3[O-])ccc2[n-]1 (protonated)
C[N-]C(=O)c1cc(=O)c2cc(Cc3sc(=O)[n-]c3[O-])ccc2[n-]1 (3D coordinates assigned)
C[N-]C(=O)c1cc(=O)c2cc(Cc3sc(=O)[n-]c3[O-])ccc2[n-]1 (optimized conformer: 71.30726253557735 kcal/mol)

>  <smiles>  (66) 
CNC(=O)c1cc(=O)c2cc(Cc3sc(=O)[nH]c3O)ccc2[nH]1

>  <score_type>  (66) 
oracle

>  <origin>  (66) 
adg

>  <m_score__min__energy>  (66) 
-15.23

>  <m_primary>  (66) 
energy

$$$$
66:0
     RDKit          3D

 40 42  0  0  0  0  0  0  0  0999 V2000
   56.7230   22.8550   47.3500 C   0  0  0  0  0  0  0  0  0  0  0  0
   56.8440   24.0050   46.6990 C   0  0  0  0  0  0  0  0  0  0  0  0
   55.8950   24.9670   46.7050 N   0  0  0  0  0  0  0  0  0  0  0  0
   56.2670   26.0420   45.9610 C   0  0  0  0  0  0  0  0  0  0  0  0
   55.5190   27.0490   45.8460 O   0  0  0  0  0  0  0  0  0  0  0  0
   57.5190   25.9460   45.3460 C   0  0  0  0  0  0  0  0  0  0  0  0
   58.1000   26.8990   44.5990 C   0  0  0  0  0  0  0  0  0  0  0  0
   57.8510   28.3460   44.7620 C   0  0  0  0  0  0  0  0  0  0  0  0
   57.0360   29.0570   43.8650 C   0  0  0  0  0  0  0  0  0  0  0  0
   56.8100   30.4240   44.0480 C   0  0  0  0  0  0  0  0  0  0  0  0
   57.3880   31.1010   45.1380 C   0  0  0  0  0  0  0  0  0  0  0  0
   57.2240   32.4810   45.3450 O   0  0  0  0  0  0  0  0  0  0  0  0
   57.9620   33.5050   44.6770 C   0  0  0  0  0  0  0  0  0  0  0  0
   59.0750   34.0080   45.5460 C   0  0  0  0  0  0  0  0  0  0  0  0
   59.6220   35.1130   45.2770 O   0  0  0  0  0  0  0  0  0  0  0  0
   59.4730   33.2660   46.7080 N   0  0  0  0  0  0  0  0  0  0  0  0
   60.7110   33.4830   47.4030 C   0  0  0  0  0  0  0  0  0  0  0  0
   61.9220   33.2130   46.7460 C   0  0  0  0  0  0  0  0  0  0  0  0
   63.1420   33.4340   47.3910 C   0  0  0  0  0  0  0  0  0  0  0  0
   63.1630   33.9410   48.6920 C   0  0  0  0  0  0  0  0  0  0  0  0
   61.9650   34.2380   49.3470 C   0  0  0  0  0  0  0  0  0  0  0  0
   60.7400   34.0180   48.7070 C   0  0  0  0  0  0  0  0  0  0  0  0
   59.5950   34.3750   49.3410 F   0  0  0  0  0  0  0  0  0  0  0  0
   58.1600   30.3800   46.0550 C   0  0  0  0  0  0  0  0  0  0  0  0
   58.3840   29.0110   45.8750 C   0  0  0  0  0  0  0  0  0  0  0  0
   58.1780   24.4500   45.7760 S   0  0  0  0  0  0  0  0  0  0  0  0
   57.5317   22.1106   47.3064 H   0  0  0  0  0  0  0  0  0  0  0  0
   55.8140   22.6461   47.9332 H   0  0  0  0  0  0  0  0  0  0  0  0
   58.8055   26.5822   43.8167 H   0  0  0  0  0  0  0  0  0  0  0  0
   56.5735   28.5350   43.0144 H   0  0  0  0  0  0  0  0  0  0  0  0
   56.1768   30.9738   43.3361 H   0  0  0  0  0  0  0  0  0  0  0  0
   58.3857   33.0970   43.7475 H   0  0  0  0  0  0  0  0  0  0  0  0
   57.2833   34.3409   44.4521 H   0  0  0  0  0  0  0  0  0  0  0  0
   58.7880   32.5900   47.1170 H   0  0  0  0  0  0  0  0  0  0  0  0
   61.9105   32.8250   45.7168 H   0  0  0  0  0  0  0  0  0  0  0  0
   64.0861   33.2085   46.8736 H   0  0  0  0  0  0  0  0  0  0  0  0
   64.1236   34.1067   49.2017 H   0  0  0  0  0  0  0  0  0  0  0  0
   61.9848   34.6458   50.3684 H   0  0  0  0  0  0  0  0  0  0  0  0
   58.5946   30.8939   46.9250 H   0  0  0  0  0  0  0  0  0  0  0  0
   58.9817   28.4532   46.6109 H   0  0  0  0  0  0  0  0  0  0  0  0
  1  2  2  0
  2  3  1  0
  3  4  1  0
  4  5  2  0
  4  6  1  0
  6  7  2  3
  7  8  1  0
  8  9  2  0
  9 10  1  0
 10 11  2  0
 11 12  1  0
 12 13  1  0
 13 14  1  0
 14 15  2  0
 14 16  1  0
 16 17  1  0
 17 18  2  0
 18 19  1  0
 19 20  2  0
 20 21  1  0
 21 22  2  0
 22 23  1  0
 11 24  1  0
 24 25  2  0
  6 26  1  0
 26  2  1  0
 25  8  1  0
 22 17  1  0
  1 27  1  0
  1 28  1  0
  7 29  1  0
  9 30  1  0
 10 31  1  0
 13 32  1  0
 13 33  1  0
 16 34  1  0
 18 35  1  0
 19 36  1  0
 20 37  1  0
 21 38  1  0
 24 39  1  0
 25 40  1  0
M  CHG  1   3  -1
M  END
>  <UniqueID>  (67) 
63

>  <SMILES>  (67) 
C=c1[n-]c(=O)c(=Cc2ccc(OCC(=O)Nc3ccccc3F)cc2)s1

>  <Energy>  (67) 
81.3273391264008

>  <Genealogy>  (67) 
C=c1[n-]c(=O)c(=Cc2ccc(OCC(=O)Nc3ccccc3F)cc2)s1 (protonated)
C=c1[n-]c(=O)c(=Cc2ccc(OCC(=O)Nc3ccccc3F)cc2)s1 (3D coordinates assigned)
C=c1[n-]c(=O)c(=Cc2ccc(OCC(=O)Nc3ccccc3F)cc2)s1 (optimized conformer: 81.3273391264008 kcal/mol)

>  <smiles>  (67) 
C=c1[nH]c(=O)c(=Cc2ccc(OCC(=O)Nc3ccccc3F)cc2)s1

>  <score_type>  (67) 
oracle

>  <origin>  (67) 
adg

>  <m_score__min__energy>  (67) 
-10.119999999999999

>  <m_primary>  (67) 
energy

$$$$
67:0
     RDKit          3D

 67 70  0  0  0  0  0  0  0  0999 V2000
   63.0690   33.4430   47.4320 C   0  0  0  0  0  0  0  0  0  0  0  0
   62.0210   33.8130   46.3830 C   0  0  0  0  0  0  0  0  0  0  0  0
   60.6570   33.6890   46.9170 N   0  0  0  0  0  0  0  0  0  0  0  0
   60.4200   33.0180   48.2060 C   0  0  0  0  0  0  0  0  0  0  0  0
   60.2110   31.5380   48.0260 C   0  0  0  0  0  0  0  0  0  0  0  0
   60.7500   30.8780   46.9070 C   0  0  0  0  0  0  0  0  0  0  0  0
   60.5980   29.4960   46.7660 C   0  0  0  0  0  0  0  0  0  0  0  0
   59.9120   28.7650   47.7410 C   0  0  0  0  0  0  0  0  0  0  0  0
   59.3720   29.4150   48.8570 C   0  0  0  0  0  0  0  0  0  0  0  0
   59.5170   30.7980   48.9960 C   0  0  0  0  0  0  0  0  0  0  0  0
   59.5590   34.3450   46.2520 C   0  0  0  0  0  0  0  0  0  0  0  0
   59.6650   35.5660   45.9500 O   0  0  0  0  0  0  0  0  0  0  0  0
   58.3280   33.6030   45.8920 C   0  0  0  0  0  0  0  0  0  0  0  0
   57.2130   34.1910   45.9440 O   0  0  0  0  0  0  0  0  0  0  0  0
   58.3560   32.2150   45.5200 N   0  0  0  0  0  0  0  0  0  0  0  0
   57.8260   31.6700   44.3020 C   0  0  0  0  0  0  0  0  0  0  0  0
   57.9890   32.4090   43.1190 C   0  0  0  0  0  0  0  0  0  0  0  0
   57.4080   31.9730   41.9240 C   0  0  0  0  0  0  0  0  0  0  0  0
   56.6520   30.8020   41.9020 C   0  0  0  0  0  0  0  0  0  0  0  0
   56.5020   30.0410   43.0660 C   0  0  0  0  0  0  0  0  0  0  0  0
   57.1090   30.4420   44.2730 C   0  0  0  0  0  0  0  0  0  0  0  0
   57.0310   29.5320   45.4410 C   0  0  0  0  0  0  0  0  0  0  0  0
   57.3930   29.9220   46.5870 O   0  0  0  0  0  0  0  0  0  0  0  0
   56.5590   28.1930   45.2550 N   0  0  0  0  0  0  0  0  0  0  0  0
   57.2660   26.9880   45.5980 C   0  0  0  0  0  0  0  0  0  0  0  0
   58.6520   26.8520   45.3890 C   0  0  0  0  0  0  0  0  0  0  0  0
   59.2800   25.6260   45.6270 C   0  0  0  0  0  0  0  0  0  0  0  0
   58.5350   24.5250   46.0560 C   0  0  0  0  0  0  0  0  0  0  0  0
   57.1520   24.6440   46.2580 C   0  0  0  0  0  0  0  0  0  0  0  0
   56.2030   23.2360   46.7520 S   0  0  0  0  0  0  0  0  0  0  0  0
   54.9780   23.7070   47.4810 O   0  0  0  0  0  0  0  0  0  0  0  0
   57.0180   22.4030   47.7010 O   0  0  0  0  0  0  0  0  0  0  0  0
   55.7430   22.2500   45.3800 N   0  0  0  0  0  0  0  0  0  0  0  0
   55.0850   23.0510   44.3220 C   0  0  0  0  0  0  0  0  0  0  0  0
   55.9510   23.1710   43.0580 C   0  0  0  0  0  0  0  0  0  0  0  0
   56.2760   21.9060   42.5060 O   0  0  0  0  0  0  0  0  0  0  0  0
   56.6360   20.9320   43.4780 C   0  0  0  0  0  0  0  0  0  0  0  0
   56.9030   21.4800   44.8930 C   0  0  0  0  0  0  0  0  0  0  0  0
   56.5270   25.8820   46.0400 C   0  0  0  0  0  0  0  0  0  0  0  0
   62.6492   33.5912   48.4379 H   0  0  0  0  0  0  0  0  0  0  0  0
   63.3571   32.3888   47.3066 H   0  0  0  0  0  0  0  0  0  0  0  0
   63.9551   34.0826   47.3066 H   0  0  0  0  0  0  0  0  0  0  0  0
   62.1866   34.8525   46.0634 H   0  0  0  0  0  0  0  0  0  0  0  0
   62.1234   33.1212   45.5339 H   0  0  0  0  0  0  0  0  0  0  0  0
   61.2906   33.1795   48.8587 H   0  0  0  0  0  0  0  0  0  0  0  0
   59.5104   33.4434   48.6551 H   0  0  0  0  0  0  0  0  0  0  0  0
   61.2926   31.4512   46.1408 H   0  0  0  0  0  0  0  0  0  0  0  0
   61.0179   28.9832   45.8881 H   0  0  0  0  0  0  0  0  0  0  0  0
   59.7965   27.6767   47.6307 H   0  0  0  0  0  0  0  0  0  0  0  0
   58.8342   28.8379   49.6236 H   0  0  0  0  0  0  0  0  0  0  0  0
   59.0854   31.3088   49.8694 H   0  0  0  0  0  0  0  0  0  0  0  0
   58.5781   33.3378   43.1324 H   0  0  0  0  0  0  0  0  0  0  0  0
   57.5476   32.5545   41.0008 H   0  0  0  0  0  0  0  0  0  0  0  0
   56.1724   30.4758   40.9673 H   0  0  0  0  0  0  0  0  0  0  0  0
   55.9032   29.1187   43.0390 H   0  0  0  0  0  0  0  0  0  0  0  0
   59.2414   27.7119   45.0379 H   0  0  0  0  0  0  0  0  0  0  0  0
   60.3651   25.5279   45.4759 H   0  0  0  0  0  0  0  0  0  0  0  0
   59.0345   23.5616   46.2360 H   0  0  0  0  0  0  0  0  0  0  0  0
   54.1330   22.5694   44.0542 H   0  0  0  0  0  0  0  0  0  0  0  0
   54.9249   24.0647   44.7178 H   0  0  0  0  0  0  0  0  0  0  0  0
   55.3997   23.7541   42.3056 H   0  0  0  0  0  0  0  0  0  0  0  0
   56.8916   23.6665   43.3404 H   0  0  0  0  0  0  0  0  0  0  0  0
   55.8169   20.2009   43.5458 H   0  0  0  0  0  0  0  0  0  0  0  0
   57.5872   20.4984   43.1357 H   0  0  0  0  0  0  0  0  0  0  0  0
   57.0912   20.6390   45.5766 H   0  0  0  0  0  0  0  0  0  0  0  0
   57.7789   22.1444   44.8561 H   0  0  0  0  0  0  0  0  0  0  0  0
   55.4464   25.9851   46.2179 H   0  0  0  0  0  0  0  0  0  0  0  0
  1  2  1  0
  2  3  1  0
  3  4  1  0
  4  5  1  0
  5  6  2  0
  6  7  1  0
  7  8  2  0
  8  9  1  0
  9 10  2  0
  3 11  1  0
 11 12  2  0
 11 13  1  0
 13 14  2  0
 13 15  1  0
 15 16  1  0
 16 17  2  0
 17 18  1  0
 18 19  2  0
 19 20  1  0
 20 21  2  0
 21 22  1  0
 22 23  2  0
 22 24  1  0
 24 25  1  0
 25 26  2  0
 26 27  1  0
 27 28  2  0
 28 29  1  0
 29 30  1  0
 30 31  2  0
 30 32  2  0
 30 33  1  0
 33 34  1  0
 34 35  1  0
 35 36  1  0
 36 37  1  0
 37 38  1  0
 29 39  2  0
 10  5  1  0
 21 16  1  0
 39 25  1  0
 38 33  1  0
  1 40  1  0
  1 41  1  0
  1 42  1  0
  2 43  1  0
  2 44  1  0
  4 45  1  0
  4 46  1  0
  6 47  1  0
  7 48  1  0
  8 49  1  0
  9 50  1  0
 10 51  1  0
 17 52  1  0
 18 53  1  0
 19 54  1  0
 20 55  1  0
 26 56  1  0
 27 57  1  0
 28 58  1  0
 34 59  1  0
 34 60  1  0
 35 61  1  0
 35 62  1  0
 37 63  1  0
 37 64  1  0
 38 65  1  0
 38 66  1  0
 39 67  1  0
M  CHG  2  15  -1  24  -1
M  END
>  <UniqueID>  (68) 
64

>  <SMILES>  (68) 
CCN(Cc1ccccc1)C(=O)C(=O)[N-]c1ccccc1C(=O)[N-]c1cccc(S(=O)(=O)N2CCOCC2)c1

>  <Energy>  (68) 
98.66697145491608

>  <Genealogy>  (68) 
CCN(Cc1ccccc1)C(=O)C(=O)[N-]c1ccccc1C(=O)[N-]c1cccc(S(=O)(=O)N2CCOCC2)c1 (protonated)
CCN(Cc1ccccc1)C(=O)C(=O)[N-]c1ccccc1C(=O)[N-]c1cccc(S(=O)(=O)N2CCOCC2)c1 (3D coordinates assigned)
CCN(Cc1ccccc1)C(=O)C(=O)[N-]c1ccccc1C(=O)[N-]c1cccc(S(=O)(=O)N2CCOCC2)c1 (nonaromatic ring conformer: 98.66697145491608 kcal/mol)

>  <smiles>  (68) 
CCN(Cc1ccccc1)C(=O)C(=O)Nc1ccccc1C(=O)Nc1cccc(S(=O)(=O)N2CCOCC2)c1

>  <score_type>  (68) 
oracle

>  <origin>  (68) 
adg

>  <m_score__min__energy>  (68) 
-13.869999999999999

>  <m_primary>  (68) 
energy

$$$$
68:0
     RDKit          3D

 49 52  0  0  0  0  0  0  0  0999 V2000
   63.2990   33.8660   49.9860 C   0  0  0  0  0  0  0  0  0  0  0  0
   64.5270   33.1180   49.4730 C   0  0  0  0  0  0  0  0  0  0  0  0
   64.4000   32.8240   48.0810 O   0  0  0  0  0  0  0  0  0  0  0  0
   63.3410   33.2830   47.2910 C   0  0  0  0  0  0  0  0  0  0  0  0
   63.4610   34.3350   46.6070 O   0  0  0  0  0  0  0  0  0  0  0  0
   62.0820   32.5750   47.2930 N   0  0  0  0  0  0  0  0  0  0  0  0
   60.9110   33.1990   46.6630 C   0  0  0  0  0  0  0  0  0  0  0  0
   59.6470   32.3480   46.8380 C   0  0  0  0  0  0  0  0  0  0  0  0
   59.9610   30.9480   46.5500 N   0  0  0  0  0  0  0  0  0  0  0  0
   58.9800   30.1390   45.8900 C   0  0  0  0  0  0  0  0  0  0  0  0
   58.3830   30.5860   44.7340 N   0  0  0  0  0  0  0  0  0  0  0  0
   57.4490   29.8280   44.0780 C   0  0  0  0  0  0  0  0  0  0  0  0
   56.6480   30.4530   42.6280 Cl  0  0  0  0  0  0  0  0  0  0  0  0
   57.1120   28.5980   44.5550 N   0  0  0  0  0  0  0  0  0  0  0  0
   57.7180   28.1370   45.6850 C   0  0  0  0  0  0  0  0  0  0  0  0
   58.6220   28.8810   46.3810 C   0  0  0  0  0  0  0  0  0  0  0  0
   59.0620   28.1580   47.6140 C   0  0  0  0  0  0  0  0  0  0  0  0
   58.1880   26.8780   47.5990 C   0  0  0  0  0  0  0  0  0  0  0  0
   57.4280   26.9230   46.3440 N   0  0  0  0  0  0  0  0  0  0  0  0
   56.5010   25.9230   45.8970 C   0  0  0  0  0  0  0  0  0  0  0  0
   55.2600   26.1360   45.9970 O   0  0  0  0  0  0  0  0  0  0  0  0
   56.9710   24.6600   45.2640 C   0  0  0  0  0  0  0  0  0  0  0  0
   57.3740   24.8330   43.8090 C   0  0  0  0  0  0  0  0  0  0  0  0
   56.0710   24.1260   44.1590 C   0  0  0  0  0  0  0  0  0  0  0  0
   61.1300   30.3070   47.1620 C   0  0  0  0  0  0  0  0  0  0  0  0
   61.9470   31.2980   48.0060 C   0  0  0  0  0  0  0  0  0  0  0  0
   63.3017   33.8644   51.0860 H   0  0  0  0  0  0  0  0  0  0  0  0
   63.3225   34.9033   49.6208 H   0  0  0  0  0  0  0  0  0  0  0  0
   62.3880   33.3693   49.6208 H   0  0  0  0  0  0  0  0  0  0  0  0
   65.4198   33.7413   49.6295 H   0  0  0  0  0  0  0  0  0  0  0  0
   64.6179   32.1711   50.0254 H   0  0  0  0  0  0  0  0  0  0  0  0
   60.7428   34.1844   47.1221 H   0  0  0  0  0  0  0  0  0  0  0  0
   61.1126   33.2931   45.5857 H   0  0  0  0  0  0  0  0  0  0  0  0
   59.2844   32.4376   47.8726 H   0  0  0  0  0  0  0  0  0  0  0  0
   58.8678   32.7001   46.1460 H   0  0  0  0  0  0  0  0  0  0  0  0
   58.6200   31.5320   44.3630 H   0  0  0  0  0  0  0  0  0  0  0  0
   60.1318   27.9068   47.5643 H   0  0  0  0  0  0  0  0  0  0  0  0
   58.9426   28.7534   48.5312 H   0  0  0  0  0  0  0  0  0  0  0  0
   58.8235   25.9807   47.6292 H   0  0  0  0  0  0  0  0  0  0  0  0
   57.5214   26.8345   48.4729 H   0  0  0  0  0  0  0  0  0  0  0  0
   57.4297   24.2232   46.1633 H   0  0  0  0  0  0  0  0  0  0  0  0
   57.3513   25.8310   43.3470 H   0  0  0  0  0  0  0  0  0  0  0  0
   58.2618   24.5768   43.2122 H   0  0  0  0  0  0  0  0  0  0  0  0
   55.1072   24.6134   43.9505 H   0  0  0  0  0  0  0  0  0  0  0  0
   55.6275   23.1480   43.9206 H   0  0  0  0  0  0  0  0  0  0  0  0
   60.7879   29.4857   47.8089 H   0  0  0  0  0  0  0  0  0  0  0  0
   61.7760   29.9313   46.3548 H   0  0  0  0  0  0  0  0  0  0  0  0
   61.4348   31.4686   48.9644 H   0  0  0  0  0  0  0  0  0  0  0  0
   62.9477   30.8784   48.1865 H   0  0  0  0  0  0  0  0  0  0  0  0
  1  2  1  0
  2  3  1  0
  3  4  1  0
  4  5  2  0
  4  6  1  0
  6  7  1  0
  7  8  1  0
  8  9  1  0
  9 10  1  0
 10 11  2  0
 11 12  1  0
 12 13  1  0
 12 14  2  0
 14 15  1  0
 15 16  2  0
 16 17  1  0
 17 18  1  0
 18 19  1  0
 19 20  1  0
 20 21  2  0
 20 22  1  0
 22 23  1  0
 23 24  1  0
  9 25  1  0
 25 26  1  0
 26  6  1  0
 16 10  1  0
 24 22  1  0
 19 15  1  0
  1 27  1  0
  1 28  1  0
  1 29  1  0
  2 30  1  0
  2 31  1  0
  7 32  1  0
  7 33  1  0
  8 34  1  0
  8 35  1  0
 11 36  1  0
 17 37  1  0
 17 38  1  0
 18 39  1  0
 18 40  1  0
 22 41  1  0
 23 42  1  0
 23 43  1  0
 24 44  1  0
 24 45  1  0
 25 46  1  0
 25 47  1  0
 26 48  1  0
 26 49  1  0
M  CHG  1  11   1
M  END
>  <UniqueID>  (69) 
65

>  <SMILES>  (69) 
CCOC(=O)N1CCN(c2[nH+]c(Cl)nc3c2CCN3C(=O)C2CC2)CC1

>  <Energy>  (69) 
332.4647253108832

>  <Genealogy>  (69) 
CCOC(=O)N1CCN(c2[nH+]c(Cl)nc3c2CCN3C(=O)C2CC2)CC1 (protonated)
CCOC(=O)N1CCN(c2[nH+]c(Cl)nc3c2CCN3C(=O)C2CC2)CC1 (3D coordinates assigned)
CCOC(=O)N1CCN(c2[nH+]c(Cl)nc3c2CCN3C(=O)C2CC2)CC1 (nonaromatic ring conformer: 332.4647253108832 kcal/mol)

>  <smiles>  (69) 
CCOC(=O)N1CCN(c2nc(Cl)nc3c2CCN3C(=O)C2CC2)CC1

>  <score_type>  (69) 
oracle

>  <origin>  (69) 
adg

>  <m_score__min__energy>  (69) 
-6.3300000000000001

>  <m_primary>  (69) 
energy

$$$$
69:0
     RDKit          3D

 51 53  0  0  0  0  0  0  0  0999 V2000
   55.7690   29.4670   44.7540 C   0  0  0  0  0  0  0  0  0  0  0  0
   56.6660   30.5040   45.2410 N   0  0  0  0  0  0  0  0  0  0  0  0
   57.4550   31.3950   44.4380 C   0  0  0  0  0  0  0  0  0  0  0  0
   57.6530   31.0860   43.2320 O   0  0  0  0  0  0  0  0  0  0  0  0
   58.0450   32.6510   44.9580 C   0  0  0  0  0  0  0  0  0  0  0  0
   58.4790   33.6820   44.1220 C   0  0  0  0  0  0  0  0  0  0  0  0
   59.0820   34.9220   45.0860 S   0  0  0  0  0  0  0  0  0  0  0  0
   58.7650   34.1040   46.5190 C   0  0  0  0  0  0  0  0  0  0  0  0
   59.0790   34.6190   47.8900 C   0  0  0  0  0  0  0  0  0  0  0  0
   60.5050   34.4180   48.2290 N   0  0  0  0  0  0  0  0  0  0  0  0
   61.2920   33.9680   47.0520 C   0  0  0  0  0  0  0  0  0  0  0  0
   61.6360   32.4610   47.0470 C   0  0  0  0  0  0  0  0  0  0  0  0
   60.6530   31.6830   47.8060 N   0  0  0  0  0  0  0  0  0  0  0  0
   60.1180   30.4570   47.2830 C   0  0  0  0  0  0  0  0  0  0  0  0
   58.8700   30.2970   47.2360 O   0  0  0  0  0  0  0  0  0  0  0  0
   60.9690   29.3890   46.8510 N   0  0  0  0  0  0  0  0  0  0  0  0
   60.7950   28.6450   45.6110 C   0  0  0  0  0  0  0  0  0  0  0  0
   59.6130   27.7280   45.7440 C   0  0  0  0  0  0  0  0  0  0  0  0
   58.7530   27.5210   44.6540 C   0  0  0  0  0  0  0  0  0  0  0  0
   57.6330   26.6950   44.7880 C   0  0  0  0  0  0  0  0  0  0  0  0
   57.3510   26.0810   46.0150 C   0  0  0  0  0  0  0  0  0  0  0  0
   55.9480   25.0300   46.1770 S   0  0  0  0  0  0  0  0  0  0  0  0
   54.5080   25.9450   45.9090 N   0  0  0  0  0  0  0  0  0  0  0  0
   56.0250   23.9160   45.1720 O   0  0  0  0  0  0  0  0  0  0  0  0
   55.9160   24.4330   47.5560 O   0  0  0  0  0  0  0  0  0  0  0  0
   58.2040   26.2930   47.1070 C   0  0  0  0  0  0  0  0  0  0  0  0
   59.3240   27.1190   46.9750 C   0  0  0  0  0  0  0  0  0  0  0  0
   60.2590   32.1140   49.1490 C   0  0  0  0  0  0  0  0  0  0  0  0
   60.7160   33.5540   49.4130 C   0  0  0  0  0  0  0  0  0  0  0  0
   58.2090   32.8960   46.2870 N   0  0  0  0  0  0  0  0  0  0  0  0
   55.3159   28.9432   45.6086 H   0  0  0  0  0  0  0  0  0  0  0  0
   54.9772   29.9245   44.1426 H   0  0  0  0  0  0  0  0  0  0  0  0
   56.3358   28.7494   44.1426 H   0  0  0  0  0  0  0  0  0  0  0  0
   58.4343   33.6832   43.0229 H   0  0  0  0  0  0  0  0  0  0  0  0
   58.8499   35.6942   47.9295 H   0  0  0  0  0  0  0  0  0  0  0  0
   58.4688   34.0627   48.6168 H   0  0  0  0  0  0  0  0  0  0  0  0
   60.7107   34.1904   46.1450 H   0  0  0  0  0  0  0  0  0  0  0  0
   62.2502   34.5067   47.0927 H   0  0  0  0  0  0  0  0  0  0  0  0
   61.6510   32.1013   46.0076 H   0  0  0  0  0  0  0  0  0  0  0  0
   62.6200   32.3301   47.5210 H   0  0  0  0  0  0  0  0  0  0  0  0
   60.6237   29.3474   44.7820 H   0  0  0  0  0  0  0  0  0  0  0  0
   61.6993   28.0531   45.4064 H   0  0  0  0  0  0  0  0  0  0  0  0
   58.9610   28.0104   43.6911 H   0  0  0  0  0  0  0  0  0  0  0  0
   56.9704   26.5266   43.9262 H   0  0  0  0  0  0  0  0  0  0  0  0
   54.7540   26.7140   45.2460 H   0  0  0  0  0  0  0  0  0  0  0  0
   57.9913   25.8078   48.0710 H   0  0  0  0  0  0  0  0  0  0  0  0
   59.9816   27.2924   47.8396 H   0  0  0  0  0  0  0  0  0  0  0  0
   59.1639   32.0607   49.2384 H   0  0  0  0  0  0  0  0  0  0  0  0
   60.7353   31.4514   49.8866 H   0  0  0  0  0  0  0  0  0  0  0  0
   60.1427   33.9612   50.2589 H   0  0  0  0  0  0  0  0  0  0  0  0
   61.7922   33.5376   49.6398 H   0  0  0  0  0  0  0  0  0  0  0  0
  1  2  1  0
  2  3  1  0
  3  4  2  0
  3  5  1  0
  5  6  2  0
  6  7  1  0
  7  8  1  0
  8  9  1  0
  9 10  1  0
 10 11  1  0
 11 12  1  0
 12 13  1  0
 13 14  1  0
 14 15  2  0
 14 16  1  0
 16 17  1  0
 17 18  1  0
 18 19  2  0
 19 20  1  0
 20 21  2  0
 21 22  1  0
 22 23  1  0
 22 24  2  0
 22 25  2  0
 21 26  1  0
 26 27  2  0
 13 28  1  0
 28 29  1  0
  8 30  2  0
 30  5  1  0
 29 10  1  0
 27 18  1  0
  1 31  1  0
  1 32  1  0
  1 33  1  0
  6 34  1  0
  9 35  1  0
  9 36  1  0
 11 37  1  0
 11 38  1  0
 12 39  1  0
 12 40  1  0
 17 41  1  0
 17 42  1  0
 19 43  1  0
 20 44  1  0
 23 45  1  0
 26 46  1  0
 27 47  1  0
 28 48  1  0
 28 49  1  0
 29 50  1  0
 29 51  1  0
M  CHG  3   2  -1  16  -1  23  -1
M  END
>  <UniqueID>  (70) 
66

>  <SMILES>  (70) 
C[N-]C(=O)c1csc(CN2CCN(C(=O)[N-]Cc3ccc(S([NH-])(=O)=O)cc3)CC2)n1

>  <Energy>  (70) 
89.94432808957848

>  <Genealogy>  (70) 
C[N-]C(=O)c1csc(CN2CCN(C(=O)[N-]Cc3ccc(S([NH-])(=O)=O)cc3)CC2)n1 (protonated)
C[N-]C(=O)c1csc(CN2CCN(C(=O)[N-]Cc3ccc(S([NH-])(=O)=O)cc3)CC2)n1 (3D coordinates assigned)
C[N-]C(=O)c1csc(CN2CCN(C(=O)[N-]Cc3ccc(S([NH-])(=O)=O)cc3)CC2)n1 (nonaromatic ring conformer: 89.94432808957848 kcal/mol)

>  <smiles>  (70) 
CNC(=O)c1csc(CN2CCN(C(=O)NCc3ccc(S(N)(=O)=O)cc3)CC2)n1

>  <score_type>  (70) 
oracle

>  <origin>  (70) 
adg

>  <m_score__min__energy>  (70) 
-15.029999999999999

>  <m_primary>  (70) 
energy

$$$$
70:0
     RDKit          3D

 39 41  0  0  0  0  0  0  0  0999 V2000
   55.1590   29.3510   44.8630 N   0  0  0  0  0  0  0  0  0  0  0  0
   56.7510   29.3370   44.1900 S   0  0  0  0  0  0  0  0  0  0  0  0
   57.6050   28.3530   44.9390 O   0  0  0  0  0  0  0  0  0  0  0  0
   56.6840   28.9200   42.7480 O   0  0  0  0  0  0  0  0  0  0  0  0
   57.4490   30.9500   44.3110 C   0  0  0  0  0  0  0  0  0  0  0  0
   57.5370   31.7660   43.1760 C   0  0  0  0  0  0  0  0  0  0  0  0
   58.1060   33.0370   43.2700 C   0  0  0  0  0  0  0  0  0  0  0  0
   58.5930   33.4990   44.4960 C   0  0  0  0  0  0  0  0  0  0  0  0
   58.5160   32.6920   45.6450 C   0  0  0  0  0  0  0  0  0  0  0  0
   59.0350   33.1780   46.9480 C   0  0  0  0  0  0  0  0  0  0  0  0
   60.0150   34.1440   47.1250 C   0  0  0  0  0  0  0  0  0  0  0  0
   60.1830   34.2900   48.4870 C   0  0  0  0  0  0  0  0  0  0  0  0
   59.3070   33.4050   49.0840 C   0  0  0  0  0  0  0  0  0  0  0  0
   59.1170   33.2390   50.5370 C   0  0  0  0  0  0  0  0  0  0  0  0
   59.2410   34.2390   51.2960 O   0  0  0  0  0  0  0  0  0  0  0  0
   58.7610   31.9650   51.0970 N   0  0  0  0  0  0  0  0  0  0  0  0
   57.7600   31.9080   52.1660 C   0  0  0  0  0  0  0  0  0  0  0  0
   57.4290   30.4530   52.5040 C   0  0  0  0  0  0  0  0  0  0  0  0
   57.3880   29.6950   51.3140 O   0  0  0  0  0  0  0  0  0  0  0  0
   58.6980   29.4980   50.8070 C   0  0  0  0  0  0  0  0  0  0  0  0
   59.5720   30.7750   50.8110 C   0  0  0  0  0  0  0  0  0  0  0  0
   58.6040   32.7380   48.1480 N   0  0  0  0  0  0  0  0  0  0  0  0
   57.9430   31.4110   45.5380 C   0  0  0  0  0  0  0  0  0  0  0  0
   55.1450   28.6390   45.6270 H   0  0  0  0  0  0  0  0  0  0  0  0
   57.1571   31.4046   42.2090 H   0  0  0  0  0  0  0  0  0  0  0  0
   58.1713   33.6765   42.3774 H   0  0  0  0  0  0  0  0  0  0  0  0
   59.0401   34.5019   44.5626 H   0  0  0  0  0  0  0  0  0  0  0  0
   60.5530   34.6874   46.3342 H   0  0  0  0  0  0  0  0  0  0  0  0
   60.8769   34.9752   48.9960 H   0  0  0  0  0  0  0  0  0  0  0  0
   58.1566   32.4078   53.0620 H   0  0  0  0  0  0  0  0  0  0  0  0
   56.8443   32.4147   51.8272 H   0  0  0  0  0  0  0  0  0  0  0  0
   58.2021   30.0461   53.1723 H   0  0  0  0  0  0  0  0  0  0  0  0
   56.4511   30.4046   53.0054 H   0  0  0  0  0  0  0  0  0  0  0  0
   59.1966   28.7354   51.4234 H   0  0  0  0  0  0  0  0  0  0  0  0
   58.5902   29.1889   49.7568 H   0  0  0  0  0  0  0  0  0  0  0  0
   60.3504   30.6761   51.5819 H   0  0  0  0  0  0  0  0  0  0  0  0
   60.0279   30.8915   49.8167 H   0  0  0  0  0  0  0  0  0  0  0  0
   57.8390   32.0500   48.3270 H   0  0  0  0  0  0  0  0  0  0  0  0
   57.8825   30.7655   46.4266 H   0  0  0  0  0  0  0  0  0  0  0  0
  1  2  1  0
  2  3  2  0
  2  4  2  0
  2  5  1  0
  5  6  2  0
  6  7  1  0
  7  8  2  0
  8  9  1  0
  9 10  1  0
 10 11  2  0
 11 12  1  0
 12 13  2  0
 13 14  1  0
 14 15  2  0
 14 16  1  0
 16 17  1  0
 17 18  1  0
 18 19  1  0
 19 20  1  0
 20 21  1  0
 13 22  1  0
  9 23  2  0
 23  5  1  0
 22 10  1  0
 21 16  1  0
  1 24  1  0
  6 25  1  0
  7 26  1  0
  8 27  1  0
 11 28  1  0
 12 29  1  0
 17 30  1  0
 17 31  1  0
 18 32  1  0
 18 33  1  0
 20 34  1  0
 20 35  1  0
 21 36  1  0
 21 37  1  0
 22 38  1  0
 23 39  1  0
M  CHG  1   1  -1
M  END
>  <UniqueID>  (71) 
67

>  <SMILES>  (71) 
[NH-]S(=O)(=O)c1cccc(-c2ccc(C(=O)N3CCOCC3)[nH]2)c1

>  <Energy>  (71) 
76.83099245302147

>  <Genealogy>  (71) 
[NH-]S(=O)(=O)c1cccc(-c2ccc(C(=O)N3CCOCC3)[nH]2)c1 (protonated)
[NH-]S(=O)(=O)c1cccc(-c2ccc(C(=O)N3CCOCC3)[nH]2)c1 (3D coordinates assigned)
[NH-]S(=O)(=O)c1cccc(-c2ccc(C(=O)N3CCOCC3)[nH]2)c1 (nonaromatic ring conformer: 76.83099245302147 kcal/mol)

>  <smiles>  (71) 
NS(=O)(=O)c1cccc(-c2ccc(C(=O)N3CCOCC3)[nH]2)c1

>  <score_type>  (71) 
oracle

>  <origin>  (71) 
adg

>  <m_score__min__energy>  (71) 
-10.960000000000001

>  <m_primary>  (71) 
energy

$$$$
71:0
     RDKit          3D

 42 44  0  0  0  0  0  0  0  0999 V2000
   54.4482   27.2375   53.7980 H   0  0  0  0  0  0  0  0  0  0  0  0
   53.8520   28.0620   53.3800 C   0  0  0  0  0  0  0  0  0  0  0  0
   52.7541   27.9951   53.3664 H   0  0  0  0  0  0  0  0  0  0  0  0
   54.4660   29.1530   52.8850 C   0  0  0  0  0  0  0  0  0  0  0  0
   53.8260   30.2650   52.3280 C   0  0  0  0  0  0  0  0  0  0  0  0
   52.4980   30.4960   52.2540 C   0  0  0  0  0  0  0  0  0  0  0  0
   51.9032   30.3831   53.1724 H   0  0  0  0  0  0  0  0  0  0  0  0
   51.7950   30.8900   51.0200 C   0  0  0  0  0  0  0  0  0  0  0  0
   51.7640   30.1260   49.9110 N   0  0  0  0  0  0  0  0  0  0  0  0
   51.0570   30.8710   49.0330 C   0  0  0  0  0  0  0  0  0  0  0  0
   50.7920   30.4770   47.8650 O   0  0  0  0  0  0  0  0  0  0  0  0
   50.6490   32.0650   49.5050 N   0  0  0  0  0  0  0  0  0  0  0  0
   51.1360   32.0700   50.7590 C   0  0  0  0  0  0  0  0  0  0  0  0
   51.0210   33.1530   51.6220 O   0  0  0  0  0  0  0  0  0  0  0  0
   54.8310   31.1160   51.9000 C   0  0  0  0  0  0  0  0  0  0  0  0
   54.6969   32.0995   51.4260 H   0  0  0  0  0  0  0  0  0  0  0  0
   56.0320   30.4980   52.1800 C   0  0  0  0  0  0  0  0  0  0  0  0
   57.3500   31.0700   51.8050 C   0  0  0  0  0  0  0  0  0  0  0  0
   57.8150   32.0600   52.4310 O   0  0  0  0  0  0  0  0  0  0  0  0
   58.0760   30.5780   50.6700 N   0  0  0  0  0  0  0  0  0  0  0  0
   58.8470   31.3770   49.7630 C   0  0  0  0  0  0  0  0  0  0  0  0
   59.5790   30.7380   48.7550 C   0  0  0  0  0  0  0  0  0  0  0  0
   59.5474   29.6420   48.6667 H   0  0  0  0  0  0  0  0  0  0  0  0
   60.3500   31.4860   47.8600 C   0  0  0  0  0  0  0  0  0  0  0  0
   60.9350   30.9740   47.0818 H   0  0  0  0  0  0  0  0  0  0  0  0
   60.3820   32.8910   47.9490 C   0  0  0  0  0  0  0  0  0  0  0  0
   61.2180   33.6760   47.0140 C   0  0  0  0  0  0  0  0  0  0  0  0
   60.6870   34.2620   46.0290 O   0  0  0  0  0  0  0  0  0  0  0  0
   62.5980   33.7740   47.2260 O   0  0  0  0  0  0  0  0  0  0  0  0
   63.3320   32.8200   47.9870 C   0  0  0  0  0  0  0  0  0  0  0  0
   63.1830   33.0136   49.0595 H   0  0  0  0  0  0  0  0  0  0  0  0
   62.9781   31.8071   47.7446 H   0  0  0  0  0  0  0  0  0  0  0  0
   64.4018   32.9024   47.7446 H   0  0  0  0  0  0  0  0  0  0  0  0
   59.6240   33.5310   48.9480 C   0  0  0  0  0  0  0  0  0  0  0  0
   59.6301   34.6285   49.0213 H   0  0  0  0  0  0  0  0  0  0  0  0
   58.8630   32.7770   49.8480 C   0  0  0  0  0  0  0  0  0  0  0  0
   58.2742   33.2847   50.6262 H   0  0  0  0  0  0  0  0  0  0  0  0
   55.8170   29.3130   52.8120 N   0  0  0  0  0  0  0  0  0  0  0  0
   56.8420   28.3100   53.1610 C   0  0  0  0  0  0  0  0  0  0  0  0
   56.9214   28.2323   54.2554 H   0  0  0  0  0  0  0  0  0  0  0  0
   56.5561   27.3331   52.7439 H   0  0  0  0  0  0  0  0  0  0  0  0
   57.8124   28.6170   52.7439 H   0  0  0  0  0  0  0  0  0  0  0  0
  1  2  1  0
  2  3  1  0
  2  4  2  0
  4  5  1  0
  5  6  2  0
  6  7  1  0
  6  8  1  0
  8  9  1  0
  9 10  1  0
 10 11  2  0
 10 12  1  0
 12 13  1  0
 13 14  1  0
  5 15  1  0
 15 16  1  0
 15 17  2  0
 17 18  1  0
 18 19  2  0
 18 20  1  0
 20 21  1  0
 21 22  2  0
 22 23  1  0
 22 24  1  0
 24 25  1  0
 24 26  2  0
 26 27  1  0
 27 28  2  0
 27 29  1  0
 29 30  1  0
 30 31  1  0
 30 32  1  0
 30 33  1  0
 26 34  1  0
 34 35  1  0
 34 36  2  0
 36 37  1  0
 17 38  1  0
 38 39  1  0
 39 40  1  0
 39 41  1  0
 39 42  1  0
 38  4  1  0
 13  8  2  0
 36 21  1  0
M  CHG  4   9  -1  12  -1  14  -1  20  -1
M  END
>  <UniqueID>  (72) 
68

>  <SMILES>  (72) 
C=c1/c(=C/c2[n-]c(=O)[n-]c2[O-])cc(C(=O)[N-]c2ccc(C(=O)OC)cc2)n1C

>  <Energy>  (72) 
115.81140738766165

>  <Genealogy>  (72) 
C=c1c(=Cc2[n-]c(=O)[n-]c2[O-])cc(C(=O)[N-]c2ccc(C(=O)OC)cc2)n1C (protonated)
C=c1/c(=C/c2[n-]c(=O)[n-]c2[O-])cc(C(=O)[N-]c2ccc(C(=O)OC)cc2)n1C (cis-trans isomerization)
C=c1/c(=C/c2[n-]c(=O)[n-]c2[O-])cc(C(=O)[N-]c2ccc(C(=O)OC)cc2)n1C (3D coordinates assigned)
C=c1/c(=C/c2[n-]c(=O)[n-]c2[O-])cc(C(=O)[N-]c2ccc(C(=O)OC)cc2)n1C (optimized conformer: 115.81140738766165 kcal/mol)

>  <smiles>  (72) 
C=c1c(=Cc2[nH]c(=O)[nH]c2O)cc(C(=O)Nc2ccc(C(=O)OC)cc2)n1C

>  <score_type>  (72) 
oracle

>  <origin>  (72) 
adg

>  <m_score__min__energy>  (72) 
-17.850000000000001

>  <m_primary>  (72) 
energy

$$$$
72:0
     RDKit          3D

 59 63  0  0  0  0  0  0  0  0999 V2000
   55.4650   31.6250   52.2920 C   0  0  0  0  0  0  0  0  0  0  0  0
   55.0300   30.4270   52.7200 C   0  0  0  0  0  0  0  0  0  0  0  0
   53.7000   30.0700   52.9720 C   0  0  0  0  0  0  0  0  0  0  0  0
   52.5970   30.8130   52.7550 C   0  0  0  0  0  0  0  0  0  0  0  0
   51.9610   30.9690   51.4340 C   0  0  0  0  0  0  0  0  0  0  0  0
   52.0620   30.0510   50.4510 N   0  0  0  0  0  0  0  0  0  0  0  0
   51.3880   30.6170   49.4280 C   0  0  0  0  0  0  0  0  0  0  0  0
   51.2440   30.0460   48.3140 O   0  0  0  0  0  0  0  0  0  0  0  0
   50.8880   31.8470   49.6890 N   0  0  0  0  0  0  0  0  0  0  0  0
   51.2690   32.0620   50.9580 C   0  0  0  0  0  0  0  0  0  0  0  0
   51.0230   33.2480   51.6480 O   0  0  0  0  0  0  0  0  0  0  0  0
   53.7300   28.7590   53.4320 C   0  0  0  0  0  0  0  0  0  0  0  0
   55.0570   28.3710   53.4490 C   0  0  0  0  0  0  0  0  0  0  0  0
   55.5290   26.9960   53.8450 C   0  0  0  0  0  0  0  0  0  0  0  0
   54.3430   26.0770   54.1120 C   0  0  0  0  0  0  0  0  0  0  0  0
   55.8480   29.3840   53.0200 N   0  0  0  0  0  0  0  0  0  0  0  0
   57.2780   29.3290   52.8530 C   0  0  0  0  0  0  0  0  0  0  0  0
   58.0350   28.3880   53.5550 C   0  0  0  0  0  0  0  0  0  0  0  0
   59.4160   28.3200   53.3680 C   0  0  0  0  0  0  0  0  0  0  0  0
   60.0520   29.1890   52.4820 C   0  0  0  0  0  0  0  0  0  0  0  0
   59.3110   30.1530   51.7750 C   0  0  0  0  0  0  0  0  0  0  0  0
   59.9650   31.0770   50.8150 C   0  0  0  0  0  0  0  0  0  0  0  0
   61.2250   31.0890   50.7170 O   0  0  0  0  0  0  0  0  0  0  0  0
   59.1970   31.9990   50.0190 N   0  0  0  0  0  0  0  0  0  0  0  0
   58.4950   31.5360   48.8160 C   0  0  0  0  0  0  0  0  0  0  0  0
   58.6350   32.5600   47.6760 C   0  0  0  0  0  0  0  0  0  0  0  0
   59.9780   33.1590   47.7370 N   0  0  0  0  0  0  0  0  0  0  0  0
   60.2240   33.9610   46.5290 C   0  0  0  0  0  0  0  0  0  0  0  0
   59.6010   35.3470   46.5850 C   0  0  0  0  0  0  0  0  0  0  0  0
   58.9600   34.2600   45.7390 C   0  0  0  0  0  0  0  0  0  0  0  0
   60.1340   34.0180   48.9440 C   0  0  0  0  0  0  0  0  0  0  0  0
   59.4240   33.4390   50.1850 C   0  0  0  0  0  0  0  0  0  0  0  0
   57.9170   30.2130   51.9720 C   0  0  0  0  0  0  0  0  0  0  0  0
   56.5395   31.7931   52.1269 H   0  0  0  0  0  0  0  0  0  0  0  0
   54.7464   32.4371   52.1070 H   0  0  0  0  0  0  0  0  0  0  0  0
   52.1452   31.3330   53.6126 H   0  0  0  0  0  0  0  0  0  0  0  0
   52.8643   28.1474   53.7261 H   0  0  0  0  0  0  0  0  0  0  0  0
   56.1368   26.5743   53.0310 H   0  0  0  0  0  0  0  0  0  0  0  0
   56.1275   27.0780   54.7642 H   0  0  0  0  0  0  0  0  0  0  0  0
   54.2013   25.9672   55.1973 H   0  0  0  0  0  0  0  0  0  0  0  0
   53.4357   26.5102   53.6657 H   0  0  0  0  0  0  0  0  0  0  0  0
   54.5360   25.0903   53.6657 H   0  0  0  0  0  0  0  0  0  0  0  0
   57.5414   27.6993   54.2565 H   0  0  0  0  0  0  0  0  0  0  0  0
   60.0067   27.5763   53.9229 H   0  0  0  0  0  0  0  0  0  0  0  0
   61.1400   29.1201   52.3351 H   0  0  0  0  0  0  0  0  0  0  0  0
   58.9251   30.5762   48.4939 H   0  0  0  0  0  0  0  0  0  0  0  0
   57.4278   31.4156   49.0539 H   0  0  0  0  0  0  0  0  0  0  0  0
   58.4989   32.0559   46.7078 H   0  0  0  0  0  0  0  0  0  0  0  0
   57.8713   33.3444   47.7831 H   0  0  0  0  0  0  0  0  0  0  0  0
   61.2209   33.5626   46.2894 H   0  0  0  0  0  0  0  0  0  0  0  0
   59.1065   35.6909   47.5054 H   0  0  0  0  0  0  0  0  0  0  0  0
   59.9602   36.3694   46.3959 H   0  0  0  0  0  0  0  0  0  0  0  0
   58.0014   33.8171   46.0469 H   0  0  0  0  0  0  0  0  0  0  0  0
   58.6629   34.1697   44.6837 H   0  0  0  0  0  0  0  0  0  0  0  0
   61.2063   34.1188   49.1676 H   0  0  0  0  0  0  0  0  0  0  0  0
   59.6708   34.9904   48.7208 H   0  0  0  0  0  0  0  0  0  0  0  0
   60.0513   33.6071   51.0728 H   0  0  0  0  0  0  0  0  0  0  0  0
   58.4532   33.9415   50.3075 H   0  0  0  0  0  0  0  0  0  0  0  0
   57.3230   30.9623   51.4281 H   0  0  0  0  0  0  0  0  0  0  0  0
  1  2  2  0
  2  3  1  0
  3  4  2  3
  4  5  1  0
  5  6  1  0
  6  7  1  0
  7  8  2  0
  7  9  1  0
  9 10  1  0
 10 11  1  0
  3 12  1  0
 12 13  2  0
 13 14  1  0
 14 15  1  0
 13 16  1  0
 16 17  1  0
 17 18  2  0
 18 19  1  0
 19 20  2  0
 20 21  1  0
 21 22  1  0
 22 23  2  0
 22 24  1  0
 24 25  1  0
 25 26  1  0
 26 27  1  0
 27 28  1  0
 28 29  1  0
 29 30  1  0
 27 31  1  0
 31 32  1  0
 21 33  2  0
 16  2  1  0
 33 17  1  0
 10  5  2  0
 32 24  1  0
 30 28  1  0
  1 34  1  0
  1 35  1  0
  4 36  1  0
 12 37  1  0
 14 38  1  0
 14 39  1  0
 15 40  1  0
 15 41  1  0
 15 42  1  0
 18 43  1  0
 19 44  1  0
 20 45  1  0
 25 46  1  0
 25 47  1  0
 26 48  1  0
 26 49  1  0
 28 50  1  0
 29 51  1  0
 29 52  1  0
 30 53  1  0
 30 54  1  0
 31 55  1  0
 31 56  1  0
 32 57  1  0
 32 58  1  0
 33 59  1  0
M  CHG  3   6  -1   9  -1  11  -1
M  END
>  <UniqueID>  (73) 
69

>  <SMILES>  (73) 
C=c1c(=Cc2[n-]c(=O)[n-]c2[O-])cc(CC)n1-c1cccc(C(=O)N2CCN(C3CC3)CC2)c1

>  <Energy>  (73) 
408.0636502373623

>  <Genealogy>  (73) 
C=c1c(=Cc2[n-]c(=O)[n-]c2[O-])cc(CC)n1-c1cccc(C(=O)N2CCN(C3CC3)CC2)c1 (protonated)
C=c1c(=Cc2[n-]c(=O)[n-]c2[O-])cc(CC)n1-c1cccc(C(=O)N2CCN(C3CC3)CC2)c1 (3D coordinates assigned)
C=c1c(=Cc2[n-]c(=O)[n-]c2[O-])cc(CC)n1-c1cccc(C(=O)N2CCN(C3CC3)CC2)c1 (nonaromatic ring conformer: 408.0636502373623 kcal/mol)

>  <smiles>  (73) 
C=c1c(=Cc2[nH]c(=O)[nH]c2O)cc(CC)n1-c1cccc(C(=O)N2CCN(C3CC3)CC2)c1

>  <score_type>  (73) 
oracle

>  <origin>  (73) 
adg

>  <m_score__min__energy>  (73) 
-17.859999999999999

>  <m_primary>  (73) 
energy

$$$$
73:0
     RDKit          3D

 43 45  0  0  1  0  0  0  0  0999 V2000
   58.5940   22.7810   44.9330 C   0  0  0  0  0  0  0  0  0  0  0  0
   58.9450   23.6320   46.0060 O   0  0  0  0  0  0  0  0  0  0  0  0
   58.3260   24.8790   46.0780 C   0  0  0  0  0  0  0  0  0  0  0  0
   56.9400   24.8710   45.9860 C   0  0  0  0  0  0  0  0  0  0  0  0
   56.2890   26.0920   46.0520 C   0  0  0  0  0  0  0  0  0  0  0  0
   54.9070   26.2150   45.9740 O   0  0  0  0  0  0  0  0  0  0  0  0
   54.2070   25.0160   45.6150 C   0  0  0  0  0  0  0  0  0  0  0  0
   57.0270   27.2480   46.2030 C   0  0  0  0  0  0  0  0  0  0  0  0
   58.4060   27.2560   46.2940 C   0  0  0  0  0  0  0  0  0  0  0  0
   59.1330   28.5100   46.4540 C   0  0  0  0  0  0  0  0  0  0  0  0
   60.0560   29.0410   45.6660 N   0  0  0  0  0  0  0  0  0  0  0  0
   60.4810   30.2090   46.1640 N   0  0  0  0  0  0  0  0  0  0  0  0
   59.7900   30.4110   47.3140 C   0  0  0  0  0  0  0  0  0  0  0  0
   59.9220   31.7810   48.4120 S   0  0  0  0  0  0  0  0  0  0  0  0
   59.7190   33.3870   47.6480 C   0  0  0  0  0  0  0  0  0  0  0  0
   58.5490   33.4120   46.7110 C   0  0  0  0  0  0  0  0  0  0  0  0
   57.4230   33.8440   47.0670 O   0  0  0  0  0  0  0  0  0  0  0  0
   58.7520   32.9180   45.3720 N   0  0  0  0  0  0  0  0  0  0  0  0
   58.0260   31.9270   44.9250 C   0  0  0  0  0  0  0  0  0  0  0  0
   57.6740   31.6350   43.6250 C   0  0  0  0  0  0  0  0  0  0  0  0
   56.9020   30.4800   43.7220 C   0  0  0  0  0  0  0  0  0  0  0  0
   56.2600   29.7270   42.6170 C   0  0  0  0  0  0  0  0  0  0  0  0
   56.8230   30.1440   44.9960 O   0  0  0  0  0  0  0  0  0  0  0  0
   57.4840   30.9910   45.7330 N   0  0  0  0  0  0  0  0  0  0  0  0
   58.9690   29.3660   47.4800 N   0  0  0  0  0  0  0  0  0  0  0  0
   59.0530   26.0420   46.2280 C   0  0  0  0  0  0  0  0  0  0  0  0
   58.2028   21.8326   45.3300 H   0  0  0  0  0  0  0  0  0  0  0  0
   57.8227   23.2666   44.3171 H   0  0  0  0  0  0  0  0  0  0  0  0
   59.4833   22.5817   44.3171 H   0  0  0  0  0  0  0  0  0  0  0  0
   56.3809   23.9314   45.8654 H   0  0  0  0  0  0  0  0  0  0  0  0
   53.8971   24.4852   46.5273 H   0  0  0  0  0  0  0  0  0  0  0  0
   53.3178   25.2744   45.0212 H   0  0  0  0  0  0  0  0  0  0  0  0
   54.8691   24.3687   45.0212 H   0  0  0  0  0  0  0  0  0  0  0  0
   56.4927   28.2082   46.2533 H   0  0  0  0  0  0  0  0  0  0  0  0
   61.2180   30.8480   45.7390 H   0  0  0  0  0  0  0  0  0  0  0  0
   59.5612   34.1388   48.4353 H   0  0  0  0  0  0  0  0  0  0  0  0
   60.6272   33.6078   47.0680 H   0  0  0  0  0  0  0  0  0  0  0  0
   57.9428   32.1902   42.7142 H   0  0  0  0  0  0  0  0  0  0  0  0
   55.6001   28.9530   43.0357 H   0  0  0  0  0  0  0  0  0  0  0  0
   55.6685   30.4175   41.9979 H   0  0  0  0  0  0  0  0  0  0  0  0
   57.0354   29.2521   41.9979 H   0  0  0  0  0  0  0  0  0  0  0  0
   57.5600   30.9230   46.7850 H   0  0  0  0  0  0  0  0  0  0  0  0
   60.1501   25.9996   46.2949 H   0  0  0  0  0  0  0  0  0  0  0  0
  1  2  1  0
  2  3  1  0
  3  4  2  0
  4  5  1  0
  5  6  1  0
  6  7  1  0
  5  8  2  0
  8  9  1  0
  9 10  1  0
 10 11  2  0
 11 12  1  0
 12 13  1  0
 13 14  1  0
 14 15  1  0
 15 16  1  0
 16 17  2  0
 16 18  1  0
 18 19  2  0
 19 20  1  0
 20 21  2  0
 21 22  1  0
 21 23  1  0
 23 24  1  0
 13 25  2  0
  9 26  2  0
 26  3  1  0
 25 10  1  0
 24 19  1  0
  1 27  1  0
  1 28  1  0
  1 29  1  0
  4 30  1  0
  7 31  1  0
  7 32  1  0
  7 33  1  0
  8 34  1  0
 12 35  1  0
 15 36  1  0
 15 37  1  0
 20 38  1  0
 22 39  1  0
 22 40  1  0
 22 41  1  0
 24 42  1  0
 26 43  1  0
M  END
>  <smiles>  (74) 
COc1cc(OC)cc(-c2n[nH]c(SCC(=O)N=c3cc(C)o[nH]3)n2)c1

>  <score_type>  (74) 
oracle

>  <origin>  (74) 
adg

>  <m_score__min__energy>  (74) 
-8.0500000000000007

>  <m_primary>  (74) 
energy

$$$$
74:0
     RDKit          3D

 53 56  0  0  0  0  0  0  0  0999 V2000
   64.9810   32.7520   49.5790 C   0  0  0  0  0  0  0  0  0  0  0  0
   63.7250   33.3620   49.1220 N   0  0  0  0  0  0  0  0  0  0  0  0
   62.5710   32.6160   49.6560 C   0  0  0  0  0  0  0  0  0  0  0  0
   61.2490   33.2970   49.2460 C   0  0  0  0  0  0  0  0  0  0  0  0
   61.4730   34.3590   48.2420 N   0  0  0  0  0  0  0  0  0  0  0  0
   60.1970   34.9470   47.7710 C   0  0  0  0  0  0  0  0  0  0  0  0
   59.5170   33.9890   46.8790 N   0  0  0  0  0  0  0  0  0  0  0  0
   58.1650   33.6530   47.4010 C   0  0  0  0  0  0  0  0  0  0  0  0
   57.1940   33.1540   46.3150 C   0  0  0  0  0  0  0  0  0  0  0  0
   57.9290   32.4600   45.1600 C   0  0  0  0  0  0  0  0  0  0  0  0
   58.4830   31.1590   45.6000 N   0  0  0  0  0  0  0  0  0  0  0  0
   59.6710   30.8460   46.1920 C   0  0  0  0  0  0  0  0  0  0  0  0
   60.5860   31.6820   46.4200 O   0  0  0  0  0  0  0  0  0  0  0  0
   59.8000   29.5390   46.5280 N   0  0  0  0  0  0  0  0  0  0  0  0
   58.6250   29.0190   46.1370 C   0  0  0  0  0  0  0  0  0  0  0  0
   58.1950   27.7030   46.2710 C   0  0  0  0  0  0  0  0  0  0  0  0
   56.8890   27.3950   45.8270 C   0  0  0  0  0  0  0  0  0  0  0  0
   56.3660   26.0140   45.9630 C   0  0  0  0  0  0  0  0  0  0  0  0
   54.9640   25.7740   45.9860 N   0  0  0  0  0  0  0  0  0  0  0  0
   57.1560   25.0380   46.0670 O   0  0  0  0  0  0  0  0  0  0  0  0
   56.1030   28.3900   45.2860 N   0  0  0  0  0  0  0  0  0  0  0  0
   56.5440   29.6780   45.1590 C   0  0  0  0  0  0  0  0  0  0  0  0
   57.8320   29.9800   45.5940 C   0  0  0  0  0  0  0  0  0  0  0  0
   58.9760   33.4100   44.5240 C   0  0  0  0  0  0  0  0  0  0  0  0
   59.4700   34.5000   45.4950 C   0  0  0  0  0  0  0  0  0  0  0  0
   62.3020   33.8630   47.1280 C   0  0  0  0  0  0  0  0  0  0  0  0
   63.6760   33.3840   47.6420 C   0  0  0  0  0  0  0  0  0  0  0  0
   65.0043   32.7407   50.6787 H   0  0  0  0  0  0  0  0  0  0  0  0
   65.0472   31.7214   49.2002 H   0  0  0  0  0  0  0  0  0  0  0  0
   65.8319   33.3372   49.2002 H   0  0  0  0  0  0  0  0  0  0  0  0
   62.5880   31.5904   49.2586 H   0  0  0  0  0  0  0  0  0  0  0  0
   62.6362   32.5992   50.7539 H   0  0  0  0  0  0  0  0  0  0  0  0
   60.5743   32.5397   48.8203 H   0  0  0  0  0  0  0  0  0  0  0  0
   60.8068   33.7577   50.1417 H   0  0  0  0  0  0  0  0  0  0  0  0
   59.5523   35.1654   48.6351 H   0  0  0  0  0  0  0  0  0  0  0  0
   60.4014   35.8786   47.2230 H   0  0  0  0  0  0  0  0  0  0  0  0
   58.2712   32.8655   48.1616 H   0  0  0  0  0  0  0  0  0  0  0  0
   57.7389   34.5785   47.8156 H   0  0  0  0  0  0  0  0  0  0  0  0
   56.4910   32.4398   46.7685 H   0  0  0  0  0  0  0  0  0  0  0  0
   56.6656   34.0273   45.9050 H   0  0  0  0  0  0  0  0  0  0  0  0
   57.2133   32.2261   44.3581 H   0  0  0  0  0  0  0  0  0  0  0  0
   58.8468   26.9311   46.7061 H   0  0  0  0  0  0  0  0  0  0  0  0
   54.3110   26.3190   45.3840 H   0  0  0  0  0  0  0  0  0  0  0  0
   55.1340   28.1760   44.9590 H   0  0  0  0  0  0  0  0  0  0  0  0
   55.8983   30.4554   44.7246 H   0  0  0  0  0  0  0  0  0  0  0  0
   59.8403   32.8119   44.1996 H   0  0  0  0  0  0  0  0  0  0  0  0
   58.4879   33.9188   43.6797 H   0  0  0  0  0  0  0  0  0  0  0  0
   60.4786   34.8200   45.1946 H   0  0  0  0  0  0  0  0  0  0  0  0
   58.7710   35.3485   45.4567 H   0  0  0  0  0  0  0  0  0  0  0  0
   61.7861   33.0229   46.6401 H   0  0  0  0  0  0  0  0  0  0  0  0
   62.4586   34.6827   46.4113 H   0  0  0  0  0  0  0  0  0  0  0  0
   63.8651   32.3688   47.2631 H   0  0  0  0  0  0  0  0  0  0  0  0
   64.4427   34.0859   47.2820 H   0  0  0  0  0  0  0  0  0  0  0  0
  1  2  1  0
  2  3  1  0
  3  4  1  0
  4  5  1  0
  5  6  1  0
  6  7  1  0
  7  8  1  0
  8  9  1  0
  9 10  1  0
 10 11  1  0
 11 12  1  0
 12 13  2  0
 12 14  1  0
 14 15  1  0
 15 16  2  0
 16 17  1  0
 17 18  1  0
 18 19  1  0
 18 20  2  0
 17 21  2  0
 21 22  1  0
 22 23  2  0
 10 24  1  0
 24 25  1  0
  5 26  1  0
 26 27  1  0
 27  2  1  0
 25  7  1  0
 23 11  1  0
 23 15  1  0
  1 28  1  0
  1 29  1  0
  1 30  1  0
  3 31  1  0
  3 32  1  0
  4 33  1  0
  4 34  1  0
  6 35  1  0
  6 36  1  0
  8 37  1  0
  8 38  1  0
  9 39  1  0
  9 40  1  0
 10 41  1  0
 16 42  1  0
 19 43  1  0
 21 44  1  0
 22 45  1  0
 24 46  1  0
 24 47  1  0
 25 48  1  0
 25 49  1  0
 26 50  1  0
 26 51  1  0
 27 52  1  0
 27 53  1  0
M  CHG  3  14  -1  19  -1  21   1
M  END
>  <UniqueID>  (75) 
70

>  <SMILES>  (75) 
CN1CCN(CN2CCC(n3c(=O)[n-]c4cc(C([NH-])=O)[nH+]cc43)CC2)CC1

>  <Energy>  (75) 
113.59414826868071

>  <Genealogy>  (75) 
CN1CCN(CN2CCC(n3c(=O)[n-]c4cc(C([NH-])=O)[nH+]cc43)CC2)CC1 (protonated)
CN1CCN(CN2CCC(n3c(=O)[n-]c4cc(C([NH-])=O)[nH+]cc43)CC2)CC1 (3D coordinates assigned)
CN1CCN(CN2CCC(n3c(=O)[n-]c4cc(C([NH-])=O)[nH+]cc43)CC2)CC1 (nonaromatic ring conformer: 113.59414826868071 kcal/mol)

>  <smiles>  (75) 
CN1CCN(CN2CCC(n3c(=O)[nH]c4cc(C(N)=O)ncc43)CC2)CC1

>  <score_type>  (75) 
oracle

>  <origin>  (75) 
adg

>  <m_score__min__energy>  (75) 
-10.49

>  <m_primary>  (75) 
energy

$$$$
75:0
     RDKit          3D

 36 38  0  0  0  0  0  0  0  0999 V2000
   56.4550   26.9400   45.6890 O   0  0  0  0  0  0  0  0  0  0  0  0
   56.6580   28.1540   45.4240 C   0  0  0  0  0  0  0  0  0  0  0  0
   55.5370   28.9740   45.0590 N   0  0  0  0  0  0  0  0  0  0  0  0
   55.3910   29.7580   43.8340 C   0  0  0  0  0  0  0  0  0  0  0  0
   56.4210   30.8570   43.7650 C   0  0  0  0  0  0  0  0  0  0  0  0
   56.6450   31.6950   44.8710 C   0  0  0  0  0  0  0  0  0  0  0  0
   57.5890   32.7230   44.7960 C   0  0  0  0  0  0  0  0  0  0  0  0
   58.3270   32.9140   43.6230 C   0  0  0  0  0  0  0  0  0  0  0  0
   59.2420   33.9110   43.5530 F   0  0  0  0  0  0  0  0  0  0  0  0
   58.1210   32.0740   42.5240 C   0  0  0  0  0  0  0  0  0  0  0  0
   57.1750   31.0460   42.5950 C   0  0  0  0  0  0  0  0  0  0  0  0
   58.0260   28.6860   45.5490 C   0  0  0  0  0  0  0  0  0  0  0  0
   59.1370   28.2050   44.8830 C   0  0  0  0  0  0  0  0  0  0  0  0
   60.1860   29.0060   45.2850 C   0  0  0  0  0  0  0  0  0  0  0  0
   61.5060   28.8530   44.8670 O   0  0  0  0  0  0  0  0  0  0  0  0
   59.7690   29.9570   46.1470 N   0  0  0  0  0  0  0  0  0  0  0  0
   60.5810   30.9740   46.7650 C   0  0  0  0  0  0  0  0  0  0  0  0
   60.0200   32.1870   47.2070 C   0  0  0  0  0  0  0  0  0  0  0  0
   60.8390   33.1470   47.8050 C   0  0  0  0  0  0  0  0  0  0  0  0
   62.2020   32.9000   47.9600 C   0  0  0  0  0  0  0  0  0  0  0  0
   62.7290   31.6870   47.5170 C   0  0  0  0  0  0  0  0  0  0  0  0
   61.9170   30.7630   46.9380 N   0  0  0  0  0  0  0  0  0  0  0  0
   58.4390   29.7750   46.2990 C   0  0  0  0  0  0  0  0  0  0  0  0
   55.5158   29.0941   42.9659 H   0  0  0  0  0  0  0  0  0  0  0  0
   54.3911   30.2165   43.8305 H   0  0  0  0  0  0  0  0  0  0  0  0
   56.0751   31.5412   45.7992 H   0  0  0  0  0  0  0  0  0  0  0  0
   57.7519   33.3830   45.6608 H   0  0  0  0  0  0  0  0  0  0  0  0
   58.7035   32.2219   41.6027 H   0  0  0  0  0  0  0  0  0  0  0  0
   57.0209   30.3828   41.7310 H   0  0  0  0  0  0  0  0  0  0  0  0
   59.1768   27.3603   44.1795 H   0  0  0  0  0  0  0  0  0  0  0  0
   62.2480   29.4130   45.2690 H   0  0  0  0  0  0  0  0  0  0  0  0
   58.9438   32.3774   47.0822 H   0  0  0  0  0  0  0  0  0  0  0  0
   60.4088   34.0975   48.1535 H   0  0  0  0  0  0  0  0  0  0  0  0
   62.8544   33.6530   48.4263 H   0  0  0  0  0  0  0  0  0  0  0  0
   63.8023   31.4778   47.6362 H   0  0  0  0  0  0  0  0  0  0  0  0
   57.7826   30.3980   46.9244 H   0  0  0  0  0  0  0  0  0  0  0  0
  1  2  2  0
  2  3  1  0
  3  4  1  0
  4  5  1  0
  5  6  2  0
  6  7  1  0
  7  8  2  0
  8  9  1  0
  8 10  1  0
 10 11  2  0
  2 12  1  0
 12 13  1  0
 13 14  2  0
 14 15  1  0
 14 16  1  0
 16 17  1  0
 17 18  2  0
 18 19  1  0
 19 20  2  0
 20 21  1  0
 21 22  2  0
 16 23  1  0
 11  5  1  0
 23 12  2  0
 22 17  1  0
  4 24  1  0
  4 25  1  0
  6 26  1  0
  7 27  1  0
 10 28  1  0
 11 29  1  0
 13 30  1  0
 15 31  1  0
 18 32  1  0
 19 33  1  0
 20 34  1  0
 21 35  1  0
 23 36  1  0
M  CHG  1   3  -1
M  END
>  <UniqueID>  (76) 
71

>  <SMILES>  (76) 
O=C([N-]Cc1ccc(F)cc1)c1cc(O)n(-c2ccccn2)c1

>  <Energy>  (76) 
69.32697479468706

>  <Genealogy>  (76) 
O=C([N-]Cc1ccc(F)cc1)c1cc(O)n(-c2ccccn2)c1 (protonated)
O=C([N-]Cc1ccc(F)cc1)c1cc(O)n(-c2ccccn2)c1 (3D coordinates assigned)
O=C([N-]Cc1ccc(F)cc1)c1cc(O)n(-c2ccccn2)c1 (optimized conformer: 69.32697479468706 kcal/mol)

>  <smiles>  (76) 
O=C(NCc1ccc(F)cc1)c1cc(O)n(-c2ccccn2)c1

>  <score_type>  (76) 
oracle

>  <origin>  (76) 
adg

>  <m_score__min__energy>  (76) 
-9.1899999999999995

>  <m_primary>  (76) 
energy

$$$$
76:0
     RDKit          3D

 71 74  0  0  0  0  0  0  0  0999 V2000
   63.2010   32.7330   47.1200 C   0  0  0  0  0  0  0  0  0  0  0  0
   62.7750   31.5690   48.0280 C   0  0  0  0  0  0  0  0  0  0  0  0
   61.4050   31.0650   47.7750 N   0  0  0  0  0  0  0  0  0  0  0  0
   61.2430   30.4680   46.4320 C   0  0  0  0  0  0  0  0  0  0  0  0
   59.7610   30.1920   46.1620 C   0  0  0  0  0  0  0  0  0  0  0  0
   59.2050   29.4060   47.2650 N   0  0  0  0  0  0  0  0  0  0  0  0
   58.5480   28.1500   47.0210 C   0  0  0  0  0  0  0  0  0  0  0  0
   58.9710   27.0060   47.7120 C   0  0  0  0  0  0  0  0  0  0  0  0
   58.3260   25.7830   47.5190 C   0  0  0  0  0  0  0  0  0  0  0  0
   57.2510   25.6840   46.6280 C   0  0  0  0  0  0  0  0  0  0  0  0
   56.4540   24.1300   46.3730 S   0  0  0  0  0  0  0  0  0  0  0  0
   56.7910   23.2070   47.5120 O   0  0  0  0  0  0  0  0  0  0  0  0
   54.9660   24.3460   46.3880 O   0  0  0  0  0  0  0  0  0  0  0  0
   56.9040   23.3730   44.8580 N   0  0  0  0  0  0  0  0  0  0  0  0
   58.3390   23.5330   44.5420 C   0  0  0  0  0  0  0  0  0  0  0  0
   59.1700   22.2830   44.8780 C   0  0  0  0  0  0  0  0  0  0  0  0
   58.5730   21.5560   45.9270 O   0  0  0  0  0  0  0  0  0  0  0  0
   57.3670   20.9740   45.4740 C   0  0  0  0  0  0  0  0  0  0  0  0
   56.4350   21.9790   44.7560 C   0  0  0  0  0  0  0  0  0  0  0  0
   56.8300   26.8200   45.9240 C   0  0  0  0  0  0  0  0  0  0  0  0
   57.4600   28.0620   46.1250 C   0  0  0  0  0  0  0  0  0  0  0  0
   57.0570   29.2150   45.3660 N   0  0  0  0  0  0  0  0  0  0  0  0
   57.0460   29.2520   43.9290 C   0  0  0  0  0  0  0  0  0  0  0  0
   57.4190   28.2480   43.2590 O   0  0  0  0  0  0  0  0  0  0  0  0
   56.6000   30.4960   43.2090 C   0  0  0  0  0  0  0  0  0  0  0  0
   57.3920   31.7260   43.6560 C   0  0  0  0  0  0  0  0  0  0  0  0
   57.0470   32.0770   45.0330 N   0  0  0  0  0  0  0  0  0  0  0  0
   57.2910   33.3610   45.6180 C   0  0  0  0  0  0  0  0  0  0  0  0
   56.6110   34.3470   45.2250 O   0  0  0  0  0  0  0  0  0  0  0  0
   58.3220   33.5620   46.6570 C   0  0  0  0  0  0  0  0  0  0  0  0
   59.4360   34.3780   46.3980 C   0  0  0  0  0  0  0  0  0  0  0  0
   60.4110   34.5740   47.3820 C   0  0  0  0  0  0  0  0  0  0  0  0
   60.2910   33.9420   48.6240 C   0  0  0  0  0  0  0  0  0  0  0  0
   61.5100   34.1950   49.8590 Cl  0  0  0  0  0  0  0  0  0  0  0  0
   59.2020   33.1000   48.8760 C   0  0  0  0  0  0  0  0  0  0  0  0
   58.2240   32.9060   47.8950 C   0  0  0  0  0  0  0  0  0  0  0  0
   59.4250   29.8870   48.6320 C   0  0  0  0  0  0  0  0  0  0  0  0
   60.9160   30.1580   48.8350 C   0  0  0  0  0  0  0  0  0  0  0  0
   63.5133   33.5863   47.7399 H   0  0  0  0  0  0  0  0  0  0  0  0
   64.0408   32.4143   46.4850 H   0  0  0  0  0  0  0  0  0  0  0  0
   62.3539   33.0317   46.4850 H   0  0  0  0  0  0  0  0  0  0  0  0
   63.4804   30.7387   47.8766 H   0  0  0  0  0  0  0  0  0  0  0  0
   62.7821   31.9555   49.0579 H   0  0  0  0  0  0  0  0  0  0  0  0
   61.6287   31.1652   45.6736 H   0  0  0  0  0  0  0  0  0  0  0  0
   61.8029   29.5223   46.3851 H   0  0  0  0  0  0  0  0  0  0  0  0
   59.2187   31.1456   46.0808 H   0  0  0  0  0  0  0  0  0  0  0  0
   59.6566   29.6312   45.2214 H   0  0  0  0  0  0  0  0  0  0  0  0
   59.8174   27.0724   48.4115 H   0  0  0  0  0  0  0  0  0  0  0  0
   58.6642   24.8929   48.0698 H   0  0  0  0  0  0  0  0  0  0  0  0
   58.4402   23.7429   43.4670 H   0  0  0  0  0  0  0  0  0  0  0  0
   58.7222   24.3592   45.1589 H   0  0  0  0  0  0  0  0  0  0  0  0
   59.2356   21.6424   43.9862 H   0  0  0  0  0  0  0  0  0  0  0  0
   60.1746   22.6004   45.1943 H   0  0  0  0  0  0  0  0  0  0  0  0
   57.6125   20.1629   44.7727 H   0  0  0  0  0  0  0  0  0  0  0  0
   56.8292   20.6065   46.3604 H   0  0  0  0  0  0  0  0  0  0  0  0
   56.3775   21.7054   43.6921 H   0  0  0  0  0  0  0  0  0  0  0  0
   55.4522   21.9255   45.2472 H   0  0  0  0  0  0  0  0  0  0  0  0
   55.9992   26.7401   45.2075 H   0  0  0  0  0  0  0  0  0  0  0  0
   56.6450   30.0250   45.8820 H   0  0  0  0  0  0  0  0  0  0  0  0
   56.7447   30.3529   42.1280 H   0  0  0  0  0  0  0  0  0  0  0  0
   55.5397   30.6671   43.4468 H   0  0  0  0  0  0  0  0  0  0  0  0
   58.4682   31.5065   43.5959 H   0  0  0  0  0  0  0  0  0  0  0  0
   57.1433   32.5713   42.9975 H   0  0  0  0  0  0  0  0  0  0  0  0
   59.5420   34.8649   45.4173 H   0  0  0  0  0  0  0  0  0  0  0  0
   61.2732   35.2261   47.1786 H   0  0  0  0  0  0  0  0  0  0  0  0
   59.1150   32.5901   49.8468 H   0  0  0  0  0  0  0  0  0  0  0  0
   57.3742   32.2365   48.0941 H   0  0  0  0  0  0  0  0  0  0  0  0
   58.8571   30.8155   48.7913 H   0  0  0  0  0  0  0  0  0  0  0  0
   59.0861   29.1264   49.3508 H   0  0  0  0  0  0  0  0  0  0  0  0
   61.0723   30.6262   49.8180 H   0  0  0  0  0  0  0  0  0  0  0  0
   61.4693   29.2085   48.7867 H   0  0  0  0  0  0  0  0  0  0  0  0
  1  2  1  0
  2  3  1  0
  3  4  1  0
  4  5  1  0
  5  6  1  0
  6  7  1  0
  7  8  2  0
  8  9  1  0
  9 10  2  0
 10 11  1  0
 11 12  2  0
 11 13  2  0
 11 14  1  0
 14 15  1  0
 15 16  1  0
 16 17  1  0
 17 18  1  0
 18 19  1  0
 10 20  1  0
 20 21  2  0
 21 22  1  0
 22 23  1  0
 23 24  2  0
 23 25  1  0
 25 26  1  0
 26 27  1  0
 27 28  1  0
 28 29  2  0
 28 30  1  0
 30 31  2  0
 31 32  1  0
 32 33  2  0
 33 34  1  0
 33 35  1  0
 35 36  2  0
  6 37  1  0
 37 38  1  0
 38  3  1  0
 21  7  1  0
 36 30  1  0
 19 14  1  0
  1 39  1  0
  1 40  1  0
  1 41  1  0
  2 42  1  0
  2 43  1  0
  4 44  1  0
  4 45  1  0
  5 46  1  0
  5 47  1  0
  8 48  1  0
  9 49  1  0
 15 50  1  0
 15 51  1  0
 16 52  1  0
 16 53  1  0
 18 54  1  0
 18 55  1  0
 19 56  1  0
 19 57  1  0
 20 58  1  0
 22 59  1  0
 25 60  1  0
 25 61  1  0
 26 62  1  0
 26 63  1  0
 31 64  1  0
 32 65  1  0
 35 66  1  0
 36 67  1  0
 37 68  1  0
 37 69  1  0
 38 70  1  0
 38 71  1  0
M  CHG  1  27  -1
M  END
>  <UniqueID>  (77) 
72

>  <SMILES>  (77) 
CCN1CCN(c2ccc(S(=O)(=O)N3CCOCC3)cc2NC(=O)CC[N-]C(=O)c2ccc(Cl)cc2)CC1

>  <Energy>  (77) 
93.53181551324585

>  <Genealogy>  (77) 
CCN1CCN(c2ccc(S(=O)(=O)N3CCOCC3)cc2NC(=O)CC[N-]C(=O)c2ccc(Cl)cc2)CC1 (protonated)
CCN1CCN(c2ccc(S(=O)(=O)N3CCOCC3)cc2NC(=O)CC[N-]C(=O)c2ccc(Cl)cc2)CC1 (3D coordinates assigned)
CCN1CCN(c2ccc(S(=O)(=O)N3CCOCC3)cc2NC(=O)CC[N-]C(=O)c2ccc(Cl)cc2)CC1 (nonaromatic ring conformer: 93.53181551324585 kcal/mol)

>  <smiles>  (77) 
CCN1CCN(c2ccc(S(=O)(=O)N3CCOCC3)cc2NC(=O)CCNC(=O)c2ccc(Cl)cc2)CC1

>  <score_type>  (77) 
oracle

>  <origin>  (77) 
adg

>  <m_score__min__energy>  (77) 
-11.84

>  <m_primary>  (77) 
energy

$$$$
77:0
     RDKit          3D

 42 45  0  0  0  0  0  0  0  0999 V2000
   54.1400   24.8430   45.6190 C   0  0  0  0  0  0  0  0  0  0  0  0
   55.3360   25.4150   45.6980 C   0  0  0  0  0  0  0  0  0  0  0  0
   56.4640   24.8240   45.2470 N   0  0  0  0  0  0  0  0  0  0  0  0
   57.4120   25.7360   45.5170 C   0  0  0  0  0  0  0  0  0  0  0  0
   58.6210   25.5850   45.2050 O   0  0  0  0  0  0  0  0  0  0  0  0
   56.8540   26.8430   46.1260 C   0  0  0  0  0  0  0  0  0  0  0  0
   57.4540   27.9710   46.5350 C   0  0  0  0  0  0  0  0  0  0  0  0
   57.3440   29.2680   45.8440 C   0  0  0  0  0  0  0  0  0  0  0  0
   56.2590   29.7160   45.1060 C   0  0  0  0  0  0  0  0  0  0  0  0
   55.1400   28.9510   44.8020 O   0  0  0  0  0  0  0  0  0  0  0  0
   56.4000   31.0040   44.7130 N   0  0  0  0  0  0  0  0  0  0  0  0
   57.5860   31.3760   45.2320 C   0  0  0  0  0  0  0  0  0  0  0  0
   58.1610   32.6420   45.1570 C   0  0  0  0  0  0  0  0  0  0  0  0
   59.3750   32.8600   45.8320 C   0  0  0  0  0  0  0  0  0  0  0  0
   59.9890   31.8150   46.5650 C   0  0  0  0  0  0  0  0  0  0  0  0
   61.5110   32.0940   47.4070 S   0  0  0  0  0  0  0  0  0  0  0  0
   62.1670   33.3170   46.8310 O   0  0  0  0  0  0  0  0  0  0  0  0
   62.4340   30.9240   47.2070 O   0  0  0  0  0  0  0  0  0  0  0  0
   61.2400   32.3450   49.1060 N   0  0  0  0  0  0  0  0  0  0  0  0
   60.3170   33.4570   49.3430 C   0  0  0  0  0  0  0  0  0  0  0  0
   59.2950   33.0820   50.3820 C   0  0  0  0  0  0  0  0  0  0  0  0
   59.1920   33.8270   51.5700 C   0  0  0  0  0  0  0  0  0  0  0  0
   58.2650   33.4640   52.5510 C   0  0  0  0  0  0  0  0  0  0  0  0
   57.4290   32.3620   52.3520 C   0  0  0  0  0  0  0  0  0  0  0  0
   57.5280   31.6130   51.1770 C   0  0  0  0  0  0  0  0  0  0  0  0
   58.4650   31.9630   50.2000 C   0  0  0  0  0  0  0  0  0  0  0  0
   59.3820   30.5460   46.6240 C   0  0  0  0  0  0  0  0  0  0  0  0
   58.1830   30.3580   45.9340 C   0  0  0  0  0  0  0  0  0  0  0  0
   55.5270   26.6450   46.2310 N   0  0  0  0  0  0  0  0  0  0  0  0
   53.2527   25.3684   46.0019 H   0  0  0  0  0  0  0  0  0  0  0  0
   54.0367   23.8438   45.1707 H   0  0  0  0  0  0  0  0  0  0  0  0
   58.0686   27.9248   47.4461 H   0  0  0  0  0  0  0  0  0  0  0  0
   57.6789   33.4490   44.5857 H   0  0  0  0  0  0  0  0  0  0  0  0
   59.8519   33.8504   45.7905 H   0  0  0  0  0  0  0  0  0  0  0  0
   60.8857   34.3309   49.6936 H   0  0  0  0  0  0  0  0  0  0  0  0
   59.7976   33.6945   48.4029 H   0  0  0  0  0  0  0  0  0  0  0  0
   59.8436   34.6990   51.7280 H   0  0  0  0  0  0  0  0  0  0  0  0
   58.1934   34.0467   53.4812 H   0  0  0  0  0  0  0  0  0  0  0  0
   56.6929   32.0843   53.1208 H   0  0  0  0  0  0  0  0  0  0  0  0
   56.8681   30.7470   51.0202 H   0  0  0  0  0  0  0  0  0  0  0  0
   58.5528   31.3594   49.2846 H   0  0  0  0  0  0  0  0  0  0  0  0
   59.8394   29.7262   47.1973 H   0  0  0  0  0  0  0  0  0  0  0  0
  1  2  2  0
  2  3  1  0
  3  4  1  0
  4  5  2  0
  4  6  1  0
  6  7  2  3
  7  8  1  0
  8  9  2  0
  9 10  1  0
  9 11  1  0
 11 12  1  0
 12 13  2  0
 13 14  1  0
 14 15  2  0
 15 16  1  0
 16 17  2  0
 16 18  2  0
 16 19  1  0
 19 20  1  0
 20 21  1  0
 21 22  2  0
 22 23  1  0
 23 24  2  0
 24 25  1  0
 25 26  2  0
 15 27  1  0
 27 28  2  0
  6 29  1  0
 29  2  1  0
 28  8  1  0
 28 12  1  0
 26 21  1  0
  1 30  1  0
  1 31  1  0
  7 32  1  0
 13 33  1  0
 14 34  1  0
 20 35  1  0
 20 36  1  0
 22 37  1  0
 23 38  1  0
 24 39  1  0
 25 40  1  0
 26 41  1  0
 27 42  1  0
M  CHG  5   3  -1  10  -1  11  -1  19  -1  29  -1
M  END
>  <UniqueID>  (78) 
73

>  <SMILES>  (78) 
C=c1[n-]c(=O)c(=Cc2c([O-])[n-]c3ccc(S(=O)(=O)[N-]Cc4ccccc4)cc23)[n-]1

>  <Energy>  (78) 
111.66613670277873

>  <Genealogy>  (78) 
C=c1[n-]c(=O)c(=Cc2c([O-])[n-]c3ccc(S(=O)(=O)[N-]Cc4ccccc4)cc23)[n-]1 (protonated)
C=c1[n-]c(=O)c(=Cc2c([O-])[n-]c3ccc(S(=O)(=O)[N-]Cc4ccccc4)cc23)[n-]1 (3D coordinates assigned)
C=c1[n-]c(=O)c(=Cc2c([O-])[n-]c3ccc(S(=O)(=O)[N-]Cc4ccccc4)cc23)[n-]1 (optimized conformer: 111.66613670277873 kcal/mol)

>  <smiles>  (78) 
C=c1[nH]c(=O)c(=Cc2c(O)[nH]c3ccc(S(=O)(=O)NCc4ccccc4)cc23)[nH]1

>  <score_type>  (78) 
oracle

>  <origin>  (78) 
adg

>  <m_score__min__energy>  (78) 
-17.109999999999999

>  <m_primary>  (78) 
energy

$$$$
78:0
     RDKit          3D

 44 46  0  0  0  0  0  0  0  0999 V2000
   58.4780   27.5040   46.4610 C   0  0  0  0  0  0  0  0  0  0  0  0
   58.0520   28.5190   45.7150 C   0  0  0  0  0  0  0  0  0  0  0  0
   57.0160   28.4340   44.7470 N   0  0  0  0  0  0  0  0  0  0  0  0
   56.8930   29.7450   44.1850 C   0  0  0  0  0  0  0  0  0  0  0  0
   55.9040   30.0640   43.1060 C   0  0  0  0  0  0  0  0  0  0  0  0
   57.7620   30.6130   44.7310 C   0  0  0  0  0  0  0  0  0  0  0  0
   57.9420   32.0350   44.3610 C   0  0  0  0  0  0  0  0  0  0  0  0
   57.6820   32.4030   43.1830 O   0  0  0  0  0  0  0  0  0  0  0  0
   58.4400   32.9990   45.3090 N   0  0  0  0  0  0  0  0  0  0  0  0
   57.9400   33.0220   46.6880 C   0  0  0  0  0  0  0  0  0  0  0  0
   59.0670   33.3670   47.6870 C   0  0  0  0  0  0  0  0  0  0  0  0
   60.1920   34.1530   47.1040 N   0  0  0  0  0  0  0  0  0  0  0  0
   61.3710   33.3070   46.7590 C   0  0  0  0  0  0  0  0  0  0  0  0
   62.6850   34.0930   46.7530 C   0  0  0  0  0  0  0  0  0  0  0  0
   63.7680   33.0690   47.0250 C   0  0  0  0  0  0  0  0  0  0  0  0
   63.1260   32.0150   47.9130 C   0  0  0  0  0  0  0  0  0  0  0  0
   61.6150   32.2070   47.8030 C   0  0  0  0  0  0  0  0  0  0  0  0
   59.7200   35.0030   45.9850 C   0  0  0  0  0  0  0  0  0  0  0  0
   59.1950   34.1560   44.8170 C   0  0  0  0  0  0  0  0  0  0  0  0
   58.5470   29.8800   45.7240 C   0  0  0  0  0  0  0  0  0  0  0  0
   59.5020   30.3260   46.4120 O   0  0  0  0  0  0  0  0  0  0  0  0
   59.2882   27.6584   47.1888 H   0  0  0  0  0  0  0  0  0  0  0  0
   58.0202   26.5099   46.3503 H   0  0  0  0  0  0  0  0  0  0  0  0
   56.4610   27.5870   44.4920 H   0  0  0  0  0  0  0  0  0  0  0  0
   54.9510   30.3714   43.5613 H   0  0  0  0  0  0  0  0  0  0  0  0
   56.2931   30.8822   42.4822 H   0  0  0  0  0  0  0  0  0  0  0  0
   55.7417   29.1726   42.4822 H   0  0  0  0  0  0  0  0  0  0  0  0
   57.1454   33.7784   46.7687 H   0  0  0  0  0  0  0  0  0  0  0  0
   57.5516   32.0226   46.9337 H   0  0  0  0  0  0  0  0  0  0  0  0
   58.6296   33.9518   48.5096 H   0  0  0  0  0  0  0  0  0  0  0  0
   59.4941   32.4093   48.0191 H   0  0  0  0  0  0  0  0  0  0  0  0
   61.1226   32.9075   45.7647 H   0  0  0  0  0  0  0  0  0  0  0  0
   62.8435   34.5701   45.7746 H   0  0  0  0  0  0  0  0  0  0  0  0
   62.6842   34.8967   47.5040 H   0  0  0  0  0  0  0  0  0  0  0  0
   64.1141   32.6178   46.0834 H   0  0  0  0  0  0  0  0  0  0  0  0
   64.6455   33.5251   47.5067 H   0  0  0  0  0  0  0  0  0  0  0  0
   63.4059   31.0083   47.5691 H   0  0  0  0  0  0  0  0  0  0  0  0
   63.4624   32.1185   48.9552 H   0  0  0  0  0  0  0  0  0  0  0  0
   61.1385   31.2694   47.4808 H   0  0  0  0  0  0  0  0  0  0  0  0
   61.1858   32.4899   48.7755 H   0  0  0  0  0  0  0  0  0  0  0  0
   58.9101   35.6533   46.3472 H   0  0  0  0  0  0  0  0  0  0  0  0
   60.5700   35.6002   45.6232 H   0  0  0  0  0  0  0  0  0  0  0  0
   58.5370   34.7755   44.1898 H   0  0  0  0  0  0  0  0  0  0  0  0
   60.0529   33.7934   44.2317 H   0  0  0  0  0  0  0  0  0  0  0  0
  1  2  2  0
  2  3  1  0
  3  4  1  0
  4  5  1  0
  4  6  2  0
  6  7  1  0
  7  8  2  0
  7  9  1  0
  9 10  1  0
 10 11  1  0
 11 12  1  0
 12 13  1  0
 13 14  1  0
 14 15  1  0
 15 16  1  0
 16 17  1  0
 12 18  1  0
 18 19  1  0
  6 20  1  0
 20 21  2  0
 20  2  1  0
 19  9  1  0
 17 13  1  0
  1 22  1  0
  1 23  1  0
  3 24  1  0
  5 25  1  0
  5 26  1  0
  5 27  1  0
 10 28  1  0
 10 29  1  0
 11 30  1  0
 11 31  1  0
 13 32  1  0
 14 33  1  0
 14 34  1  0
 15 35  1  0
 15 36  1  0
 16 37  1  0
 16 38  1  0
 17 39  1  0
 17 40  1  0
 18 41  1  0
 18 42  1  0
 19 43  1  0
 19 44  1  0
M  END
>  <UniqueID>  (79) 
74

>  <SMILES>  (79) 
C=C1NC(C)=C(C(=O)N2CCN(C3CCCC3)CC2)C1=O

>  <Energy>  (79) 
82.9166568458038

>  <Genealogy>  (79) 
C=C1NC(C)=C(C(=O)N2CCN(C3CCCC3)CC2)C1=O (3D coordinates assigned)
C=C1NC(C)=C(C(=O)N2CCN(C3CCCC3)CC2)C1=O (nonaromatic ring conformer: 82.9166568458038 kcal/mol)

>  <smiles>  (79) 
C=C1NC(C)=C(C(=O)N2CCN(C3CCCC3)CC2)C1=O

>  <score_type>  (79) 
oracle

>  <origin>  (79) 
adg

>  <m_score__min__energy>  (79) 
-8.3900000000000006

>  <m_primary>  (79) 
energy

$$$$
79:0
     RDKit          3D

 48 50  0  0  0  0  0  0  0  0999 V2000
   57.7710   19.9380   47.3210 C   0  0  0  0  0  0  0  0  0  0  0  0
   57.2870   20.8290   46.1700 C   0  0  0  0  0  0  0  0  0  0  0  0
   56.4920   19.9850   45.1630 C   0  0  0  0  0  0  0  0  0  0  0  0
   58.4930   21.5310   45.5010 C   0  0  0  0  0  0  0  0  0  0  0  0
   58.1130   22.4560   44.3280 C   0  0  0  0  0  0  0  0  0  0  0  0
   57.2510   23.5760   44.7680 N   0  0  0  0  0  0  0  0  0  0  0  0
   55.8860   23.4970   44.6400 C   0  0  0  0  0  0  0  0  0  0  0  0
   55.3440   22.4790   44.1280 O   0  0  0  0  0  0  0  0  0  0  0  0
   55.0960   24.5190   45.0630 N   0  0  0  0  0  0  0  0  0  0  0  0
   55.6230   25.6380   45.6170 C   0  0  0  0  0  0  0  0  0  0  0  0
   54.7730   26.6710   46.0030 O   0  0  0  0  0  0  0  0  0  0  0  0
   57.0090   25.7570   45.7730 C   0  0  0  0  0  0  0  0  0  0  0  0
   57.6020   26.9710   46.3880 C   0  0  0  0  0  0  0  0  0  0  0  0
   57.9180   26.9570   47.6090 O   0  0  0  0  0  0  0  0  0  0  0  0
   57.7890   28.1750   45.6210 N   0  0  0  0  0  0  0  0  0  0  0  0
   57.4570   28.1650   44.1900 C   0  0  0  0  0  0  0  0  0  0  0  0
   56.6530   29.4140   43.8340 C   0  0  0  0  0  0  0  0  0  0  0  0
   57.4530   30.6760   44.1650 C   0  0  0  0  0  0  0  0  0  0  0  0
   58.0230   30.6410   45.5640 C   0  0  0  0  0  0  0  0  0  0  0  0
   58.4470   31.8390   46.1580 C   0  0  0  0  0  0  0  0  0  0  0  0
   59.0490   31.8300   47.4170 C   0  0  0  0  0  0  0  0  0  0  0  0
   59.2550   30.6220   48.0840 C   0  0  0  0  0  0  0  0  0  0  0  0
   58.8510   29.4190   47.4990 C   0  0  0  0  0  0  0  0  0  0  0  0
   58.2190   29.4120   46.2380 C   0  0  0  0  0  0  0  0  0  0  0  0
   57.8170   24.6980   45.3230 C   0  0  0  0  0  0  0  0  0  0  0  0
   59.0720   24.7800   45.4430 O   0  0  0  0  0  0  0  0  0  0  0  0
   57.5152   20.4088   48.2817 H   0  0  0  0  0  0  0  0  0  0  0  0
   57.2832   18.9544   47.2534 H   0  0  0  0  0  0  0  0  0  0  0  0
   58.8616   19.8118   47.2534 H   0  0  0  0  0  0  0  0  0  0  0  0
   56.6197   21.6115   46.5604 H   0  0  0  0  0  0  0  0  0  0  0  0
   55.8359   19.2885   45.7056 H   0  0  0  0  0  0  0  0  0  0  0  0
   55.8815   20.6468   44.5311 H   0  0  0  0  0  0  0  0  0  0  0  0
   57.1891   19.4152   44.5311 H   0  0  0  0  0  0  0  0  0  0  0  0
   59.0079   22.1341   46.2634 H   0  0  0  0  0  0  0  0  0  0  0  0
   59.1304   20.7371   45.0846 H   0  0  0  0  0  0  0  0  0  0  0  0
   59.0328   22.8669   43.8862 H   0  0  0  0  0  0  0  0  0  0  0  0
   57.5520   21.8616   43.5918 H   0  0  0  0  0  0  0  0  0  0  0  0
   54.0590   24.4480   44.9530 H   0  0  0  0  0  0  0  0  0  0  0  0
   58.3854   28.1485   43.6003 H   0  0  0  0  0  0  0  0  0  0  0  0
   56.8568   27.2713   43.9638 H   0  0  0  0  0  0  0  0  0  0  0  0
   56.4229   29.4025   42.7584 H   0  0  0  0  0  0  0  0  0  0  0  0
   55.7220   29.4179   44.4198 H   0  0  0  0  0  0  0  0  0  0  0  0
   58.2815   30.7684   43.4473 H   0  0  0  0  0  0  0  0  0  0  0  0
   56.7693   31.5353   44.1007 H   0  0  0  0  0  0  0  0  0  0  0  0
   58.3040   32.7921   45.6278 H   0  0  0  0  0  0  0  0  0  0  0  0
   59.3613   32.7758   47.8838 H   0  0  0  0  0  0  0  0  0  0  0  0
   59.7367   30.6166   49.0729 H   0  0  0  0  0  0  0  0  0  0  0  0
   59.0273   28.4698   48.0262 H   0  0  0  0  0  0  0  0  0  0  0  0
  1  2  1  0
  2  3  1  0
  2  4  1  0
  4  5  1  0
  5  6  1  0
  6  7  1  0
  7  8  2  0
  7  9  1  0
  9 10  1  0
 10 11  1  0
 10 12  2  0
 12 13  1  0
 13 14  2  0
 13 15  1  0
 15 16  1  0
 16 17  1  0
 17 18  1  0
 18 19  1  0
 19 20  2  0
 20 21  1  0
 21 22  2  0
 22 23  1  0
 23 24  2  0
 12 25  1  0
 25 26  2  0
 25  6  1  0
 24 15  1  0
 24 19  1  0
  1 27  1  0
  1 28  1  0
  1 29  1  0
  2 30  1  0
  3 31  1  0
  3 32  1  0
  3 33  1  0
  4 34  1  0
  4 35  1  0
  5 36  1  0
  5 37  1  0
  9 38  1  0
 16 39  1  0
 16 40  1  0
 17 41  1  0
 17 42  1  0
 18 43  1  0
 18 44  1  0
 20 45  1  0
 21 46  1  0
 22 47  1  0
 23 48  1  0
M  CHG  1  11  -1
M  END
>  <UniqueID>  (80) 
75

>  <SMILES>  (80) 
CC(C)CCn1c(=O)[nH]c([O-])c(C(=O)N2CCCc3ccccc32)c1=O

>  <Energy>  (80) 
57.91122153819492

>  <Genealogy>  (80) 
CC(C)CCn1c(=O)[nH]c([O-])c(C(=O)N2CCCc3ccccc32)c1=O (protonated)
CC(C)CCn1c(=O)[nH]c([O-])c(C(=O)N2CCCc3ccccc32)c1=O (3D coordinates assigned)
CC(C)CCn1c(=O)[nH]c([O-])c(C(=O)N2CCCc3ccccc32)c1=O (nonaromatic ring conformer: 57.91122153819492 kcal/mol)

>  <smiles>  (80) 
CC(C)CCn1c(=O)[nH]c(O)c(C(=O)N2CCCc3ccccc32)c1=O

>  <score_type>  (80) 
oracle

>  <origin>  (80) 
adg

>  <m_score__min__energy>  (80) 
-11.34

>  <m_primary>  (80) 
energy

$$$$
80:0
     RDKit          3D

 53 56  0  0  0  0  0  0  0  0999 V2000
   55.4850   29.1460   44.8290 N   0  0  0  0  0  0  0  0  0  0  0  0
   56.7570   29.6740   45.2170 C   0  0  0  0  0  0  0  0  0  0  0  0
   57.2090   30.6920   44.6220 O   0  0  0  0  0  0  0  0  0  0  0  0
   57.5700   29.0250   46.2730 C   0  0  0  0  0  0  0  0  0  0  0  0
   58.3460   29.8200   47.1350 C   0  0  0  0  0  0  0  0  0  0  0  0
   59.1470   29.2330   48.1290 C   0  0  0  0  0  0  0  0  0  0  0  0
   60.0120   30.0910   49.0150 C   0  0  0  0  0  0  0  0  0  0  0  0
   59.2110   30.6110   50.1860 C   0  0  0  0  0  0  0  0  0  0  0  0
   58.7250   31.9200   50.1630 C   0  0  0  0  0  0  0  0  0  0  0  0
   57.9520   32.3740   51.1780 N   0  0  0  0  0  0  0  0  0  0  0  0
   57.6420   31.5870   52.2390 C   0  0  0  0  0  0  0  0  0  0  0  0
   56.9020   32.0550   53.1470 O   0  0  0  0  0  0  0  0  0  0  0  0
   58.1230   30.3050   52.3160 N   0  0  0  0  0  0  0  0  0  0  0  0
   57.7710   29.4480   53.4660 C   0  0  0  0  0  0  0  0  0  0  0  0
   56.5540   28.5680   53.1130 C   0  0  0  0  0  0  0  0  0  0  0  0
   55.2540   29.2760   53.1380 N   0  0  0  0  0  0  0  0  0  0  0  0
   55.0260   30.0440   54.3740 C   0  0  0  0  0  0  0  0  0  0  0  0
   53.5340   30.3690   54.4970 C   0  0  0  0  0  0  0  0  0  0  0  0
   52.9750   30.9260   53.2100 C   0  0  0  0  0  0  0  0  0  0  0  0
   51.7260   31.5640   53.2220 C   0  0  0  0  0  0  0  0  0  0  0  0
   51.1600   32.0340   52.0320 C   0  0  0  0  0  0  0  0  0  0  0  0
   49.9250   32.6690   52.0550 O   0  0  0  0  0  0  0  0  0  0  0  0
   51.8350   31.8610   50.8210 C   0  0  0  0  0  0  0  0  0  0  0  0
   53.0750   31.2210   50.7960 C   0  0  0  0  0  0  0  0  0  0  0  0
   53.6480   30.7340   51.9810 C   0  0  0  0  0  0  0  0  0  0  0  0
   55.0240   30.1150   51.9460 C   0  0  0  0  0  0  0  0  0  0  0  0
   58.8840   29.8010   51.2890 C   0  0  0  0  0  0  0  0  0  0  0  0
   59.2930   28.6070   51.3260 O   0  0  0  0  0  0  0  0  0  0  0  0
   59.1630   27.8370   48.2610 C   0  0  0  0  0  0  0  0  0  0  0  0
   58.3750   27.0420   47.4270 C   0  0  0  0  0  0  0  0  0  0  0  0
   57.5770   27.6250   46.4400 C   0  0  0  0  0  0  0  0  0  0  0  0
   56.7810   26.8240   45.6870 F   0  0  0  0  0  0  0  0  0  0  0  0
   54.9290   29.6260   44.0900 H   0  0  0  0  0  0  0  0  0  0  0  0
   55.1550   28.2170   45.1710 H   0  0  0  0  0  0  0  0  0  0  0  0
   58.3257   30.9148   47.0299 H   0  0  0  0  0  0  0  0  0  0  0  0
   60.8548   29.4915   49.3896 H   0  0  0  0  0  0  0  0  0  0  0  0
   60.3866   30.9445   48.4308 H   0  0  0  0  0  0  0  0  0  0  0  0
   58.9702   32.5827   49.3199 H   0  0  0  0  0  0  0  0  0  0  0  0
   58.6267   28.8035   53.7158 H   0  0  0  0  0  0  0  0  0  0  0  0
   57.5199   30.0840   54.3277 H   0  0  0  0  0  0  0  0  0  0  0  0
   56.7050   28.1634   52.1013 H   0  0  0  0  0  0  0  0  0  0  0  0
   56.4989   27.7873   53.8859 H   0  0  0  0  0  0  0  0  0  0  0  0
   55.3455   29.4481   55.2417 H   0  0  0  0  0  0  0  0  0  0  0  0
   55.6062   30.9779   54.3412 H   0  0  0  0  0  0  0  0  0  0  0  0
   52.9888   29.4487   54.7534 H   0  0  0  0  0  0  0  0  0  0  0  0
   53.4129   31.1309   55.2811 H   0  0  0  0  0  0  0  0  0  0  0  0
   51.1883   31.6956   54.1726 H   0  0  0  0  0  0  0  0  0  0  0  0
   51.3884   32.2298   49.8858 H   0  0  0  0  0  0  0  0  0  0  0  0
   53.6068   31.0974   49.8411 H   0  0  0  0  0  0  0  0  0  0  0  0
   55.1160   29.4922   51.0439 H   0  0  0  0  0  0  0  0  0  0  0  0
   55.7721   30.9213   51.9339 H   0  0  0  0  0  0  0  0  0  0  0  0
   59.7992   27.3664   49.0250 H   0  0  0  0  0  0  0  0  0  0  0  0
   58.3826   25.9487   47.5479 H   0  0  0  0  0  0  0  0  0  0  0  0
  1  2  1  0
  2  3  2  0
  2  4  1  0
  4  5  2  0
  5  6  1  0
  6  7  1  0
  7  8  1  0
  8  9  2  0
  9 10  1  0
 10 11  1  0
 11 12  2  0
 11 13  1  0
 13 14  1  0
 14 15  1  0
 15 16  1  0
 16 17  1  0
 17 18  1  0
 18 19  1  0
 19 20  2  0
 20 21  1  0
 21 22  1  0
 21 23  2  0
 23 24  1  0
 24 25  2  0
 25 26  1  0
 13 27  1  0
 27 28  2  0
  6 29  2  0
 29 30  1  0
 30 31  2  0
 31 32  1  0
 31  4  1  0
 27  8  1  0
 26 16  1  0
 25 19  1  0
  1 33  1  0
  1 34  1  0
  5 35  1  0
  7 36  1  0
  7 37  1  0
  9 38  1  0
 14 39  1  0
 14 40  1  0
 15 41  1  0
 15 42  1  0
 17 43  1  0
 17 44  1  0
 18 45  1  0
 18 46  1  0
 20 47  1  0
 23 48  1  0
 24 49  1  0
 26 50  1  0
 26 51  1  0
 29 52  1  0
 30 53  1  0
M  CHG  2  10  -1  22  -1
M  END
>  <UniqueID>  (81) 
76

>  <SMILES>  (81) 
NC(=O)c1cc(Cc2c[n-]c(=O)n(CCN3CCc4cc([O-])ccc4C3)c2=O)ccc1F

>  <Energy>  (81) 
68.47740314069898

>  <Genealogy>  (81) 
NC(=O)c1cc(Cc2c[n-]c(=O)n(CCN3CCc4cc([O-])ccc4C3)c2=O)ccc1F (protonated)
NC(=O)c1cc(Cc2c[n-]c(=O)n(CCN3CCc4cc([O-])ccc4C3)c2=O)ccc1F (3D coordinates assigned)
NC(=O)c1cc(Cc2c[n-]c(=O)n(CCN3CCc4cc([O-])ccc4C3)c2=O)ccc1F (nonaromatic ring conformer: 68.47740314069898 kcal/mol)

>  <smiles>  (81) 
NC(=O)c1cc(Cc2c[nH]c(=O)n(CCN3CCc4cc(O)ccc4C3)c2=O)ccc1F

>  <score_type>  (81) 
oracle

>  <origin>  (81) 
adg

>  <m_score__min__energy>  (81) 
-12.640000000000001

>  <m_primary>  (81) 
energy

$$$$
81:0
     RDKit          3D

 45 47  0  0  0  0  0  0  0  0999 V2000
   58.1680   29.1050   47.5080 O   0  0  0  0  0  0  0  0  0  0  0  0
   58.6590   30.0600   46.8490 C   0  0  0  0  0  0  0  0  0  0  0  0
   60.1390   30.1420   46.6610 C   0  0  0  0  0  0  0  0  0  0  0  0
   60.9920   30.1360   48.2750 S   0  0  0  0  0  0  0  0  0  0  0  0
   62.0100   31.5700   47.9200 C   0  0  0  0  0  0  0  0  0  0  0  0
   63.1060   31.8810   48.7340 C   0  0  0  0  0  0  0  0  0  0  0  0
   63.8780   33.0070   48.4380 C   0  0  0  0  0  0  0  0  0  0  0  0
   63.5500   33.8060   47.3400 C   0  0  0  0  0  0  0  0  0  0  0  0
   62.4590   33.4530   46.5410 C   0  0  0  0  0  0  0  0  0  0  0  0
   61.7190   32.3520   46.8440 N   0  0  0  0  0  0  0  0  0  0  0  0
   57.8180   31.0340   46.2190 N   0  0  0  0  0  0  0  0  0  0  0  0
   57.5940   31.2230   44.8110 C   0  0  0  0  0  0  0  0  0  0  0  0
   57.0880   30.1940   43.9960 C   0  0  0  0  0  0  0  0  0  0  0  0
   56.9360   30.3930   42.6210 C   0  0  0  0  0  0  0  0  0  0  0  0
   57.2810   31.6180   42.0470 C   0  0  0  0  0  0  0  0  0  0  0  0
   57.7570   32.6570   42.8500 C   0  0  0  0  0  0  0  0  0  0  0  0
   57.8930   32.4750   44.2340 C   0  0  0  0  0  0  0  0  0  0  0  0
   58.3580   33.5920   45.0760 C   0  0  0  0  0  0  0  0  0  0  0  0
   57.9840   34.7660   44.8040 O   0  0  0  0  0  0  0  0  0  0  0  0
   59.1830   33.3460   46.2220 N   0  0  0  0  0  0  0  0  0  0  0  0
   59.3960   34.3640   47.2500 C   0  0  0  0  0  0  0  0  0  0  0  0
   59.3810   33.7310   48.6190 C   0  0  0  0  0  0  0  0  0  0  0  0
   60.2830   34.1700   49.6040 C   0  0  0  0  0  0  0  0  0  0  0  0
   60.3190   33.5430   50.8550 C   0  0  0  0  0  0  0  0  0  0  0  0
   59.4610   32.4730   51.1290 C   0  0  0  0  0  0  0  0  0  0  0  0
   58.5630   32.0300   50.1540 C   0  0  0  0  0  0  0  0  0  0  0  0
   58.5230   32.6550   48.9030 C   0  0  0  0  0  0  0  0  0  0  0  0
   60.4769   29.2779   46.0701 H   0  0  0  0  0  0  0  0  0  0  0  0
   60.3788   31.0785   46.1362 H   0  0  0  0  0  0  0  0  0  0  0  0
   63.3562   31.2460   49.5966 H   0  0  0  0  0  0  0  0  0  0  0  0
   64.7423   33.2639   49.0681 H   0  0  0  0  0  0  0  0  0  0  0  0
   64.1434   34.7024   47.1070 H   0  0  0  0  0  0  0  0  0  0  0  0
   62.1981   34.0662   45.6658 H   0  0  0  0  0  0  0  0  0  0  0  0
   56.8106   29.2280   44.4431 H   0  0  0  0  0  0  0  0  0  0  0  0
   56.5435   29.5824   41.9894 H   0  0  0  0  0  0  0  0  0  0  0  0
   57.1779   31.7650   40.9618 H   0  0  0  0  0  0  0  0  0  0  0  0
   58.0262   33.6217   42.3952 H   0  0  0  0  0  0  0  0  0  0  0  0
   59.5460   32.3820   46.3930 H   0  0  0  0  0  0  0  0  0  0  0  0
   60.3690   34.8497   47.0846 H   0  0  0  0  0  0  0  0  0  0  0  0
   58.5897   35.1098   47.1899 H   0  0  0  0  0  0  0  0  0  0  0  0
   60.9623   35.0085   49.3910 H   0  0  0  0  0  0  0  0  0  0  0  0
   61.0235   33.8925   51.6241 H   0  0  0  0  0  0  0  0  0  0  0  0
   59.4930   31.9801   52.1119 H   0  0  0  0  0  0  0  0  0  0  0  0
   57.8873   31.1894   50.3704 H   0  0  0  0  0  0  0  0  0  0  0  0
   57.8161   32.3022   48.1376 H   0  0  0  0  0  0  0  0  0  0  0  0
  1  2  2  0
  2  3  1  0
  3  4  1  0
  4  5  1  0
  5  6  2  0
  6  7  1  0
  7  8  2  0
  8  9  1  0
  9 10  2  0
  2 11  1  0
 11 12  1  0
 12 13  2  0
 13 14  1  0
 14 15  2  0
 15 16  1  0
 16 17  2  0
 17 18  1  0
 18 19  2  0
 18 20  1  0
 20 21  1  0
 21 22  1  0
 22 23  2  0
 23 24  1  0
 24 25  2  0
 25 26  1  0
 26 27  2  0
 10  5  1  0
 17 12  1  0
 27 22  1  0
  3 28  1  0
  3 29  1  0
  6 30  1  0
  7 31  1  0
  8 32  1  0
  9 33  1  0
 13 34  1  0
 14 35  1  0
 15 36  1  0
 16 37  1  0
 20 38  1  0
 21 39  1  0
 21 40  1  0
 23 41  1  0
 24 42  1  0
 25 43  1  0
 26 44  1  0
 27 45  1  0
M  CHG  1  11  -1
M  END
>  <UniqueID>  (82) 
77

>  <SMILES>  (82) 
O=C(CSc1ccccn1)[N-]c1ccccc1C(=O)NCc1ccccc1

>  <Energy>  (82) 
46.48001317383645

>  <Genealogy>  (82) 
O=C(CSc1ccccn1)[N-]c1ccccc1C(=O)NCc1ccccc1 (protonated)
O=C(CSc1ccccn1)[N-]c1ccccc1C(=O)NCc1ccccc1 (3D coordinates assigned)
O=C(CSc1ccccn1)[N-]c1ccccc1C(=O)NCc1ccccc1 (optimized conformer: 46.48001317383645 kcal/mol)

>  <smiles>  (82) 
O=C(CSc1ccccn1)Nc1ccccc1C(=O)NCc1ccccc1

>  <score_type>  (82) 
oracle

>  <origin>  (82) 
adg

>  <m_score__min__energy>  (82) 
-10.130000000000001

>  <m_primary>  (82) 
energy

$$$$
82:0
     RDKit          3D

 54 56  0  0  0  0  0  0  0  0999 V2000
   52.6020   21.9730   46.1520 C   0  0  0  0  0  0  0  0  0  0  0  0
   53.5050   23.1290   45.8650 C   0  0  0  0  0  0  0  0  0  0  0  0
   53.1620   23.9790   44.9980 O   0  0  0  0  0  0  0  0  0  0  0  0
   54.7910   23.2080   46.5000 N   0  0  0  0  0  0  0  0  0  0  0  0
   55.6460   24.3670   46.4620 C   0  0  0  0  0  0  0  0  0  0  0  0
   55.1880   25.5980   45.9620 C   0  0  0  0  0  0  0  0  0  0  0  0
   56.0000   26.6870   45.9740 N   0  0  0  0  0  0  0  0  0  0  0  0
   57.2690   26.6440   46.4620 C   0  0  0  0  0  0  0  0  0  0  0  0
   58.0960   27.8670   46.4550 C   0  0  0  0  0  0  0  0  0  0  0  0
   59.0180   28.0010   47.3040 O   0  0  0  0  0  0  0  0  0  0  0  0
   57.8490   28.9210   45.5090 N   0  0  0  0  0  0  0  0  0  0  0  0
   57.8720   28.6450   44.0660 C   0  0  0  0  0  0  0  0  0  0  0  0
   56.7050   29.3510   43.3600 C   0  0  0  0  0  0  0  0  0  0  0  0
   56.3870   30.7500   43.9310 C   0  0  0  0  0  0  0  0  0  0  0  0
   57.5060   31.2960   44.8390 C   0  0  1  0  0  0  0  0  0  0  0  0
   57.1690   32.6980   45.3960 C   0  0  0  0  0  0  0  0  0  0  0  0
   58.2460   33.2130   46.3300 C   0  0  0  0  0  0  0  0  0  0  0  0
   58.2260   32.7780   47.6670 C   0  0  0  0  0  0  0  0  0  0  0  0
   59.2000   33.2050   48.5810 C   0  0  0  0  0  0  0  0  0  0  0  0
   59.1830   32.7020   49.9950 C   0  0  0  0  0  0  0  0  0  0  0  0
   60.2290   34.0480   48.1440 C   0  0  0  0  0  0  0  0  0  0  0  0
   60.2620   34.4910   46.8230 C   0  0  0  0  0  0  0  0  0  0  0  0
   59.2820   34.0840   45.9010 C   0  0  0  0  0  0  0  0  0  0  0  0
   59.3410   34.6260   44.4950 C   0  0  0  0  0  0  0  0  0  0  0  0
   57.7580   30.3040   45.9940 C   0  0  0  0  0  0  0  0  0  0  0  0
   57.7590   25.4430   46.9950 C   0  0  0  0  0  0  0  0  0  0  0  0
   56.9460   24.3050   46.9950 C   0  0  0  0  0  0  0  0  0  0  0  0
   57.3910   23.2250   47.4700 O   0  0  0  0  0  0  0  0  0  0  0  0
   52.5031   21.8464   47.2402 H   0  0  0  0  0  0  0  0  0  0  0  0
   51.6114   22.1638   45.7135 H   0  0  0  0  0  0  0  0  0  0  0  0
   53.0270   21.0581   45.7135 H   0  0  0  0  0  0  0  0  0  0  0  0
   55.1430   22.3500   46.9820 H   0  0  0  0  0  0  0  0  0  0  0  0
   54.1677   25.6800   45.5592 H   0  0  0  0  0  0  0  0  0  0  0  0
   58.8213   29.0067   43.6442 H   0  0  0  0  0  0  0  0  0  0  0  0
   57.7748   27.5602   43.9117 H   0  0  0  0  0  0  0  0  0  0  0  0
   56.9586   29.4602   42.2952 H   0  0  0  0  0  0  0  0  0  0  0  0
   55.8113   28.7294   43.5178 H   0  0  0  0  0  0  0  0  0  0  0  0
   56.2441   31.4472   43.0922 H   0  0  0  0  0  0  0  0  0  0  0  0
   55.4794   30.6571   44.5454 H   0  0  0  0  0  0  0  0  0  0  0  0
   58.4176   31.4012   44.2325 H   0  0  0  0  0  0  0  0  0  0  0  0
   57.0643   33.3985   44.5544 H   0  0  0  0  0  0  0  0  0  0  0  0
   56.2327   32.6198   45.9681 H   0  0  0  0  0  0  0  0  0  0  0  0
   57.4338   32.0919   48.0012 H   0  0  0  0  0  0  0  0  0  0  0  0
   59.2119   33.5556   50.6882 H   0  0  0  0  0  0  0  0  0  0  0  0
   58.2647   32.1212   50.1666 H   0  0  0  0  0  0  0  0  0  0  0  0
   60.0600   32.0605   50.1666 H   0  0  0  0  0  0  0  0  0  0  0  0
   61.0150   34.3621   48.8466 H   0  0  0  0  0  0  0  0  0  0  0  0
   61.0655   35.1681   46.4975 H   0  0  0  0  0  0  0  0  0  0  0  0
   59.4600   35.7190   44.5281 H   0  0  0  0  0  0  0  0  0  0  0  0
   60.1959   34.1800   43.9657 H   0  0  0  0  0  0  0  0  0  0  0  0
   58.4102   34.3743   43.9657 H   0  0  0  0  0  0  0  0  0  0  0  0
   58.7013   30.5699   46.4934 H   0  0  0  0  0  0  0  0  0  0  0  0
   56.9114   30.3682   46.6933 H   0  0  0  0  0  0  0  0  0  0  0  0
   58.7764   25.3963   47.4105 H   0  0  0  0  0  0  0  0  0  0  0  0
  1  2  1  0
  2  3  2  0
  2  4  1  0
  4  5  1  0
  5  6  2  0
  6  7  1  0
  7  8  1  0
  8  9  1  0
  9 10  2  0
  9 11  1  0
 11 12  1  0
 12 13  1  0
 13 14  1  0
 14 15  1  0
 15 16  1  0
 16 17  1  0
 17 18  2  0
 18 19  1  0
 19 20  1  0
 19 21  2  0
 21 22  1  0
 22 23  2  0
 23 24  1  0
 15 25  1  0
  8 26  2  0
 26 27  1  0
 27 28  2  0
 27  5  1  0
 25 11  1  0
 23 17  1  0
  1 29  1  0
  1 30  1  0
  1 31  1  0
  4 32  1  0
  6 33  1  0
 12 34  1  0
 12 35  1  0
 13 36  1  0
 13 37  1  0
 14 38  1  0
 14 39  1  0
 15 40  1  6
 16 41  1  0
 16 42  1  0
 18 43  1  0
 20 44  1  0
 20 45  1  0
 20 46  1  0
 21 47  1  0
 22 48  1  0
 24 49  1  0
 24 50  1  0
 24 51  1  0
 25 52  1  0
 25 53  1  0
 26 54  1  0
M  CHG  1   7  -1
M  END
>  <UniqueID>  (83) 
78

>  <SMILES>  (83) 
CC(=O)Nc1c[n-]c(C(=O)N2CCC[C@@H](Cc3cc(C)ccc3C)C2)cc1=O

>  <Energy>  (83) 
62.36505702320247

>  <Genealogy>  (83) 
CC(=O)Nc1c[n-]c(C(=O)N2CCCC(Cc3cc(C)ccc3C)C2)cc1=O (protonated)
CC(=O)Nc1c[n-]c(C(=O)N2CCC[C@@H](Cc3cc(C)ccc3C)C2)cc1=O (chirality)
CC(=O)Nc1c[n-]c(C(=O)N2CCC[C@@H](Cc3cc(C)ccc3C)C2)cc1=O (3D coordinates assigned)
CC(=O)Nc1c[n-]c(C(=O)N2CCC[C@@H](Cc3cc(C)ccc3C)C2)cc1=O (nonaromatic ring conformer: 62.36505702320247 kcal/mol)

>  <smiles>  (83) 
CC(=O)Nc1c[nH]c(C(=O)N2CCCC(Cc3cc(C)ccc3C)C2)cc1=O

>  <score_type>  (83) 
oracle

>  <origin>  (83) 
adg

>  <m_score__min__energy>  (83) 
-10.93

>  <m_primary>  (83) 
energy

$$$$
83:0
     RDKit          3D

 42 44  0  0  0  0  0  0  0  0999 V2000
   58.5110   31.8190   43.5960 C   0  0  0  0  0  0  0  0  0  0  0  0
   57.5060   30.7780   43.9930 C   0  0  0  0  0  0  0  0  0  0  0  0
   56.2180   30.7960   43.4470 C   0  0  0  0  0  0  0  0  0  0  0  0
   55.2740   29.8650   43.8830 C   0  0  0  0  0  0  0  0  0  0  0  0
   55.6030   28.9590   44.8410 N   0  0  0  0  0  0  0  0  0  0  0  0
   56.8450   28.9030   45.3970 C   0  0  0  0  0  0  0  0  0  0  0  0
   57.0640   28.0190   46.3310 N   0  0  0  0  0  0  0  0  0  0  0  0
   56.6290   26.6520   46.3690 C   0  0  0  0  0  0  0  0  0  0  0  0
   55.4630   26.3320   46.0060 O   0  0  0  0  0  0  0  0  0  0  0  0
   57.5370   25.6070   46.9360 C   0  0  0  0  0  0  0  0  0  0  0  0
   59.0890   25.4980   45.9760 S   0  0  0  0  0  0  0  0  0  0  0  0
   59.6770   27.1220   46.4520 C   0  0  0  0  0  0  0  0  0  0  0  0
   59.5050   27.5590   47.7280 N   0  0  0  0  0  0  0  0  0  0  0  0
   59.9580   28.7780   48.1200 C   0  0  0  0  0  0  0  0  0  0  0  0
   59.7920   29.1460   49.3140 O   0  0  0  0  0  0  0  0  0  0  0  0
   60.6090   29.6100   47.1980 C   0  0  0  0  0  0  0  0  0  0  0  0
   61.2610   31.1790   47.6760 S   0  0  0  0  0  0  0  0  0  0  0  0
   61.3380   31.2840   49.1740 O   0  0  0  0  0  0  0  0  0  0  0  0
   62.6500   31.3300   47.1200 O   0  0  0  0  0  0  0  0  0  0  0  0
   60.2010   32.4450   47.0650 C   0  0  0  0  0  0  0  0  0  0  0  0
   60.7320   33.6100   46.4870 C   0  0  0  0  0  0  0  0  0  0  0  0
   59.8750   34.6080   46.0100 C   0  0  0  0  0  0  0  0  0  0  0  0
   58.4900   34.4490   46.1080 C   0  0  0  0  0  0  0  0  0  0  0  0
   57.9590   33.2860   46.6740 C   0  0  0  0  0  0  0  0  0  0  0  0
   58.8100   32.2850   47.1510 C   0  0  0  0  0  0  0  0  0  0  0  0
   60.7680   29.1400   45.8900 C   0  0  0  0  0  0  0  0  0  0  0  0
   60.3010   27.9130   45.5430 N   0  0  0  0  0  0  0  0  0  0  0  0
   57.8210   29.8350   44.9810 C   0  0  0  0  0  0  0  0  0  0  0  0
   58.9472   32.2708   44.4991 H   0  0  0  0  0  0  0  0  0  0  0  0
   59.3075   31.3509   42.9989 H   0  0  0  0  0  0  0  0  0  0  0  0
   58.0151   32.5985   42.9989 H   0  0  0  0  0  0  0  0  0  0  0  0
   55.9514   31.5381   42.6801 H   0  0  0  0  0  0  0  0  0  0  0  0
   54.2625   29.8646   43.4507 H   0  0  0  0  0  0  0  0  0  0  0  0
   57.7759   25.8650   47.9783 H   0  0  0  0  0  0  0  0  0  0  0  0
   57.0256   24.6343   46.8877 H   0  0  0  0  0  0  0  0  0  0  0  0
   61.8218   33.7378   46.4093 H   0  0  0  0  0  0  0  0  0  0  0  0
   60.2922   35.5194   45.5570 H   0  0  0  0  0  0  0  0  0  0  0  0
   57.8180   35.2384   45.7401 H   0  0  0  0  0  0  0  0  0  0  0  0
   56.8687   33.1584   46.7441 H   0  0  0  0  0  0  0  0  0  0  0  0
   58.3885   31.3708   47.5943 H   0  0  0  0  0  0  0  0  0  0  0  0
   61.2730   29.7665   45.1400 H   0  0  0  0  0  0  0  0  0  0  0  0
   58.8248   29.8210   45.4307 H   0  0  0  0  0  0  0  0  0  0  0  0
  1  2  1  0
  2  3  1  0
  3  4  2  0
  4  5  1  0
  5  6  1  0
  6  7  2  3
  7  8  1  0
  8  9  2  0
  8 10  1  0
 10 11  1  0
 11 12  1  0
 12 13  2  0
 13 14  1  0
 14 15  2  0
 14 16  1  0
 16 17  1  0
 17 18  2  0
 17 19  2  0
 17 20  1  0
 20 21  2  0
 21 22  1  0
 22 23  2  0
 23 24  1  0
 24 25  2  0
 16 26  2  0
 26 27  1  0
  6 28  1  0
 28  2  2  0
 27 12  1  0
 25 20  1  0
  1 29  1  0
  1 30  1  0
  1 31  1  0
  3 32  1  0
  4 33  1  0
 10 34  1  0
 10 35  1  0
 21 36  1  0
 22 37  1  0
 23 38  1  0
 24 39  1  0
 25 40  1  0
 26 41  1  0
 28 42  1  0
M  CHG  2   5  -1  27  -1
M  END
>  <UniqueID>  (84) 
79

>  <SMILES>  (84) 
Cc1cc[n-]c(=NC(=O)CSc2nc(=O)c(S(=O)(=O)c3ccccc3)c[n-]2)c1

>  <Energy>  (84) 
46.14291017688341

>  <Genealogy>  (84) 
Cc1cc[n-]c(=NC(=O)CSc2nc(=O)c(S(=O)(=O)c3ccccc3)c[n-]2)c1 (protonated)
Cc1cc[n-]c(=NC(=O)CSc2nc(=O)c(S(=O)(=O)c3ccccc3)c[n-]2)c1 (3D coordinates assigned)
Cc1cc[n-]c(=NC(=O)CSc2nc(=O)c(S(=O)(=O)c3ccccc3)c[n-]2)c1 (optimized conformer: 46.14291017688341 kcal/mol)

>  <smiles>  (84) 
Cc1cc[nH]c(=NC(=O)CSc2nc(=O)c(S(=O)(=O)c3ccccc3)c[nH]2)c1

>  <score_type>  (84) 
oracle

>  <origin>  (84) 
adg

>  <m_score__min__energy>  (84) 
-12.94

>  <m_primary>  (84) 
energy

$$$$
84:0
     RDKit          3D

 53 56  0  0  0  0  0  0  0  0999 V2000
   56.7790   31.5420   51.9440 C   0  0  0  0  0  0  0  0  0  0  0  0
   57.4260   30.4880   51.2390 O   0  0  0  0  0  0  0  0  0  0  0  0
   58.5170   30.6690   50.3750 C   0  0  0  0  0  0  0  0  0  0  0  0
   58.6980   29.7540   49.3320 C   0  0  0  0  0  0  0  0  0  0  0  0
   59.7660   29.8910   48.4420 C   0  0  0  0  0  0  0  0  0  0  0  0
   60.6670   30.9590   48.5780 C   0  0  0  0  0  0  0  0  0  0  0  0
   61.8320   31.0980   47.6370 C   0  0  0  0  0  0  0  0  0  0  0  0
   62.1860   32.5470   47.4350 C   0  0  0  0  0  0  0  0  0  0  0  0
   63.3970   32.8770   47.3320 O   0  0  0  0  0  0  0  0  0  0  0  0
   61.1880   33.5770   47.3970 N   0  0  0  0  0  0  0  0  0  0  0  0
   59.8830   33.4720   46.8100 C   0  0  0  0  0  0  0  0  0  0  0  0
   58.8540   34.2900   47.2950 C   0  0  0  0  0  0  0  0  0  0  0  0
   57.5760   34.2180   46.7370 C   0  0  0  0  0  0  0  0  0  0  0  0
   57.3180   33.3340   45.6850 C   0  0  0  0  0  0  0  0  0  0  0  0
   58.3430   32.5220   45.1740 C   0  0  0  0  0  0  0  0  0  0  0  0
   58.0620   31.5730   44.0360 C   0  0  0  0  0  0  0  0  0  0  0  0
   57.5000   30.2660   44.5390 C   0  0  0  0  0  0  0  0  0  0  0  0
   56.1610   30.0610   44.4180 N   0  0  0  0  0  0  0  0  0  0  0  0
   55.5660   28.9630   44.8820 N   0  0  0  0  0  0  0  0  0  0  0  0
   56.2660   27.9880   45.5100 C   0  0  0  0  0  0  0  0  0  0  0  0
   55.6590   26.9780   45.9530 O   0  0  0  0  0  0  0  0  0  0  0  0
   57.6530   28.1220   45.6620 C   0  0  0  0  0  0  0  0  0  0  0  0
   58.2870   29.2710   45.1630 C   0  0  0  0  0  0  0  0  0  0  0  0
   59.7690   29.4210   45.4270 C   0  0  0  0  0  0  0  0  0  0  0  0
   60.5310   28.1060   45.1810 C   0  0  0  0  0  0  0  0  0  0  0  0
   59.7910   26.8270   45.6430 C   0  0  0  0  0  0  0  0  0  0  0  0
   58.4840   27.1020   46.4010 C   0  0  0  0  0  0  0  0  0  0  0  0
   59.6330   32.6190   45.7220 C   0  0  0  0  0  0  0  0  0  0  0  0
   60.4960   31.8720   49.6290 C   0  0  0  0  0  0  0  0  0  0  0  0
   59.4280   31.7300   50.5200 C   0  0  0  0  0  0  0  0  0  0  0  0
   56.8810   31.3758   53.0266 H   0  0  0  0  0  0  0  0  0  0  0  0
   57.2434   32.5022   51.6751 H   0  0  0  0  0  0  0  0  0  0  0  0
   55.7126   31.5625   51.6751 H   0  0  0  0  0  0  0  0  0  0  0  0
   57.9925   28.9187   49.2117 H   0  0  0  0  0  0  0  0  0  0  0  0
   59.9015   29.1595   47.6318 H   0  0  0  0  0  0  0  0  0  0  0  0
   62.7004   30.5699   48.0577 H   0  0  0  0  0  0  0  0  0  0  0  0
   61.5540   30.6642   46.6652 H   0  0  0  0  0  0  0  0  0  0  0  0
   59.0537   34.9915   48.1184 H   0  0  0  0  0  0  0  0  0  0  0  0
   56.7705   34.8582   47.1260 H   0  0  0  0  0  0  0  0  0  0  0  0
   56.3070   33.2744   45.2556 H   0  0  0  0  0  0  0  0  0  0  0  0
   57.3346   32.0370   43.3536 H   0  0  0  0  0  0  0  0  0  0  0  0
   59.0080   31.3666   43.5140 H   0  0  0  0  0  0  0  0  0  0  0  0
   60.1727   30.1964   44.7593 H   0  0  0  0  0  0  0  0  0  0  0  0
   59.9011   29.6996   46.4829 H   0  0  0  0  0  0  0  0  0  0  0  0
   60.7222   28.0188   44.1013 H   0  0  0  0  0  0  0  0  0  0  0  0
   61.4499   28.1649   45.7828 H   0  0  0  0  0  0  0  0  0  0  0  0
   59.5551   26.2235   44.7541 H   0  0  0  0  0  0  0  0  0  0  0  0
   60.4614   26.3060   46.3424 H   0  0  0  0  0  0  0  0  0  0  0  0
   57.9133   26.1660   46.4912 H   0  0  0  0  0  0  0  0  0  0  0  0
   58.7261   27.4943   47.3997 H   0  0  0  0  0  0  0  0  0  0  0  0
   60.4533   32.0227   45.2961 H   0  0  0  0  0  0  0  0  0  0  0  0
   61.2054   32.7035   49.7528 H   0  0  0  0  0  0  0  0  0  0  0  0
   59.2997   32.4527   51.3393 H   0  0  0  0  0  0  0  0  0  0  0  0
  1  2  1  0
  2  3  1  0
  3  4  2  0
  4  5  1  0
  5  6  2  0
  6  7  1  0
  7  8  1  0
  8  9  2  0
  8 10  1  0
 10 11  1  0
 11 12  2  0
 12 13  1  0
 13 14  2  0
 14 15  1  0
 15 16  1  0
 16 17  1  0
 17 18  2  0
 18 19  1  0
 19 20  1  0
 20 21  2  0
 20 22  1  0
 22 23  2  0
 23 24  1  0
 24 25  1  0
 25 26  1  0
 26 27  1  0
 15 28  2  0
  6 29  1  0
 29 30  2  0
 30  3  1  0
 28 11  1  0
 23 17  1  0
 27 22  1  0
  1 31  1  0
  1 32  1  0
  1 33  1  0
  4 34  1  0
  5 35  1  0
  7 36  1  0
  7 37  1  0
 12 38  1  0
 13 39  1  0
 14 40  1  0
 16 41  1  0
 16 42  1  0
 24 43  1  0
 24 44  1  0
 25 45  1  0
 25 46  1  0
 26 47  1  0
 26 48  1  0
 27 49  1  0
 27 50  1  0
 28 51  1  0
 29 52  1  0
 30 53  1  0
M  CHG  2  10  -1  19  -1
M  END
>  <UniqueID>  (85) 
80

>  <SMILES>  (85) 
COc1ccc(CC(=O)[N-]c2cccc(Cc3n[n-]c(=O)c4c3CCCC4)c2)cc1

>  <Energy>  (85) 
65.48213204098425

>  <Genealogy>  (85) 
COc1ccc(CC(=O)[N-]c2cccc(Cc3n[n-]c(=O)c4c3CCCC4)c2)cc1 (protonated)
COc1ccc(CC(=O)[N-]c2cccc(Cc3n[n-]c(=O)c4c3CCCC4)c2)cc1 (3D coordinates assigned)
COc1ccc(CC(=O)[N-]c2cccc(Cc3n[n-]c(=O)c4c3CCCC4)c2)cc1 (nonaromatic ring conformer: 65.48213204098425 kcal/mol)

>  <smiles>  (85) 
COc1ccc(CC(=O)Nc2cccc(Cc3n[nH]c(=O)c4c3CCCC4)c2)cc1

>  <score_type>  (85) 
oracle

>  <origin>  (85) 
adg

>  <m_score__min__energy>  (85) 
-13.69

>  <m_primary>  (85) 
energy

$$$$
85:0
     RDKit          3D

 58 61  0  0  0  0  0  0  0  0999 V2000
   57.0430   30.9610   43.6430 C   0  0  0  0  0  0  0  0  0  0  0  0
   57.6640   31.2990   44.7840 C   0  0  0  0  0  0  0  0  0  0  0  0
   58.2700   30.4290   45.7050 C   0  0  0  0  0  0  0  0  0  0  0  0
   58.5310   29.1080   45.6390 C   0  0  0  0  0  0  0  0  0  0  0  0
   57.6010   28.0310   46.0060 C   0  0  0  0  0  0  0  0  0  0  0  0
   57.9740   26.9020   46.6320 N   0  0  0  0  0  0  0  0  0  0  0  0
   56.8430   26.1640   46.6450 C   0  0  0  0  0  0  0  0  0  0  0  0
   56.7860   25.0210   47.1690 O   0  0  0  0  0  0  0  0  0  0  0  0
   55.7830   26.7410   46.0410 N   0  0  0  0  0  0  0  0  0  0  0  0
   56.2830   27.9160   45.6270 C   0  0  0  0  0  0  0  0  0  0  0  0
   55.5610   28.8560   44.8990 O   0  0  0  0  0  0  0  0  0  0  0  0
   58.6350   31.2070   46.7890 C   0  0  0  0  0  0  0  0  0  0  0  0
   58.3060   32.5110   46.4800 C   0  0  0  0  0  0  0  0  0  0  0  0
   58.6800   33.6730   47.3140 C   0  0  0  0  0  0  0  0  0  0  0  0
   58.5500   34.8360   46.8440 O   0  0  0  0  0  0  0  0  0  0  0  0
   59.2600   33.4940   48.6190 N   0  0  0  0  0  0  0  0  0  0  0  0
   58.7130   32.4760   49.5290 C   0  0  0  0  0  0  0  0  0  0  0  0
   59.3370   32.5780   50.9250 C   0  0  0  0  0  0  0  0  0  0  0  0
   60.7950   32.7130   50.8060 N   0  0  0  0  0  0  0  0  0  0  0  0
   61.6870   31.8390   51.5280 C   0  0  0  0  0  0  0  0  0  0  0  0
   61.2370   30.8380   52.1510 O   0  0  0  0  0  0  0  0  0  0  0  0
   63.1000   32.0720   51.5110 N   0  0  0  0  0  0  0  0  0  0  0  0
   63.9930   31.0420   50.9850 C   0  0  0  0  0  0  0  0  0  0  0  0
   65.0820   31.7060   50.1470 C   0  0  0  0  0  0  0  0  0  0  0  0
   65.7220   32.8170   50.8690 N   0  0  0  0  0  0  0  0  0  0  0  0
   67.0590   33.2580   50.4640 C   0  0  0  0  0  0  0  0  0  0  0  0
   64.9900   33.5830   51.8480 C   0  0  0  0  0  0  0  0  0  0  0  0
   65.4900   34.6350   52.3300 O   0  0  0  0  0  0  0  0  0  0  0  0
   63.6630   33.1110   52.3720 C   0  0  0  0  0  0  0  0  0  0  0  0
   61.3560   33.7160   49.8860 C   0  0  0  0  0  0  0  0  0  0  0  0
   60.2610   34.4520   49.1060 C   0  0  0  0  0  0  0  0  0  0  0  0
   57.7050   32.5690   45.2670 N   0  0  0  0  0  0  0  0  0  0  0  0
   57.1620   33.7720   44.6230 C   0  0  0  0  0  0  0  0  0  0  0  0
   56.6057   31.7413   43.0028 H   0  0  0  0  0  0  0  0  0  0  0  0
   56.9714   29.9037   43.3481 H   0  0  0  0  0  0  0  0  0  0  0  0
   59.5269   28.8104   45.2791 H   0  0  0  0  0  0  0  0  0  0  0  0
   54.6630   28.6190   44.4950 H   0  0  0  0  0  0  0  0  0  0  0  0
   59.0997   30.8531   47.7211 H   0  0  0  0  0  0  0  0  0  0  0  0
   57.6254   32.6182   49.6122 H   0  0  0  0  0  0  0  0  0  0  0  0
   58.9475   31.4832   49.1176 H   0  0  0  0  0  0  0  0  0  0  0  0
   58.9294   33.4577   51.4445 H   0  0  0  0  0  0  0  0  0  0  0  0
   59.1005   31.6690   51.4975 H   0  0  0  0  0  0  0  0  0  0  0  0
   64.4537   30.4927   51.8193 H   0  0  0  0  0  0  0  0  0  0  0  0
   63.4215   30.3395   50.3607 H   0  0  0  0  0  0  0  0  0  0  0  0
   65.8466   30.9558   49.8968 H   0  0  0  0  0  0  0  0  0  0  0  0
   64.6155   32.1115   49.2371 H   0  0  0  0  0  0  0  0  0  0  0  0
   67.6659   33.4582   51.3593 H   0  0  0  0  0  0  0  0  0  0  0  0
   67.5388   32.4705   49.8643 H   0  0  0  0  0  0  0  0  0  0  0  0
   66.9762   34.1764   49.8643 H   0  0  0  0  0  0  0  0  0  0  0  0
   63.8002   32.7039   53.3847 H   0  0  0  0  0  0  0  0  0  0  0  0
   62.9696   33.9647   52.3909 H   0  0  0  0  0  0  0  0  0  0  0  0
   61.9321   34.4500   50.4685 H   0  0  0  0  0  0  0  0  0  0  0  0
   61.9976   33.1929   49.1616 H   0  0  0  0  0  0  0  0  0  0  0  0
   59.7732   35.1843   49.7662 H   0  0  0  0  0  0  0  0  0  0  0  0
   60.7147   34.9678   48.2469 H   0  0  0  0  0  0  0  0  0  0  0  0
   56.8393   34.4869   45.3943 H   0  0  0  0  0  0  0  0  0  0  0  0
   57.9386   34.2346   43.9962 H   0  0  0  0  0  0  0  0  0  0  0  0
   56.3014   33.4956   43.9962 H   0  0  0  0  0  0  0  0  0  0  0  0
  1  2  2  0
  2  3  1  0
  3  4  2  3
  4  5  1  0
  5  6  1  0
  6  7  1  0
  7  8  2  0
  7  9  1  0
  9 10  1  0
 10 11  1  0
  3 12  1  0
 12 13  2  0
 13 14  1  0
 14 15  2  0
 14 16  1  0
 16 17  1  0
 17 18  1  0
 18 19  1  0
 19 20  1  0
 20 21  2  0
 20 22  1  0
 22 23  1  0
 23 24  1  0
 24 25  1  0
 25 26  1  0
 25 27  1  0
 27 28  2  0
 27 29  1  0
 19 30  1  0
 30 31  1  0
 13 32  1  0
 32 33  1  0
 32  2  1  0
 10  5  2  0
 31 16  1  0
 29 22  1  0
  1 34  1  0
  1 35  1  0
  4 36  1  0
 11 37  1  0
 12 38  1  0
 17 39  1  0
 17 40  1  0
 18 41  1  0
 18 42  1  0
 23 43  1  0
 23 44  1  0
 24 45  1  0
 24 46  1  0
 26 47  1  0
 26 48  1  0
 26 49  1  0
 29 50  1  0
 29 51  1  0
 30 52  1  0
 30 53  1  0
 31 54  1  0
 31 55  1  0
 33 56  1  0
 33 57  1  0
 33 58  1  0
M  CHG  2   6  -1   9  -1
M  END
>  <UniqueID>  (86) 
81

>  <SMILES>  (86) 
C=c1c(=Cc2[n-]c(=O)[n-]c2O)cc(C(=O)N2CCN(C(=O)N3CCN(C)C(=O)C3)CC2)n1C

>  <Energy>  (86) 
138.02192131632532

>  <Genealogy>  (86) 
C=c1c(=Cc2[n-]c(=O)[n-]c2O)cc(C(=O)N2CCN(C(=O)N3CCN(C)C(=O)C3)CC2)n1C (protonated)
C=c1c(=Cc2[n-]c(=O)[n-]c2O)cc(C(=O)N2CCN(C(=O)N3CCN(C)C(=O)C3)CC2)n1C (3D coordinates assigned)
C=c1c(=Cc2[n-]c(=O)[n-]c2O)cc(C(=O)N2CCN(C(=O)N3CCN(C)C(=O)C3)CC2)n1C (nonaromatic ring conformer: 138.02192131632532 kcal/mol)

>  <smiles>  (86) 
C=c1c(=Cc2[nH]c(=O)[nH]c2O)cc(C(=O)N2CCN(C(=O)N3CCN(C)C(=O)C3)CC2)n1C

>  <score_type>  (86) 
oracle

>  <origin>  (86) 
adg

>  <m_score__min__energy>  (86) 
-13.289999999999999

>  <m_primary>  (86) 
energy

$$$$
86:0
     RDKit          3D

 50 53  0  0  0  0  0  0  0  0999 V2000
   59.6560   35.3800   46.2390 C   0  0  0  0  0  0  0  0  0  0  0  0
   59.7950   34.2990   47.2810 C   0  0  0  0  0  0  0  0  0  0  0  0
   60.4770   34.5850   48.4740 C   0  0  0  0  0  0  0  0  0  0  0  0
   60.6250   33.5960   49.4490 C   0  0  0  0  0  0  0  0  0  0  0  0
   61.2340   33.8520   50.5200 O   0  0  0  0  0  0  0  0  0  0  0  0
   60.1130   32.3560   49.2450 N   0  0  0  0  0  0  0  0  0  0  0  0
   59.4450   32.0330   48.1060 C   0  0  0  0  0  0  0  0  0  0  0  0
   58.9410   30.7390   47.9450 C   0  0  0  0  0  0  0  0  0  0  0  0
   58.2580   30.3900   46.7790 C   0  0  0  0  0  0  0  0  0  0  0  0
   58.0700   31.3330   45.7630 C   0  0  0  0  0  0  0  0  0  0  0  0
   57.2260   30.8820   44.2830 S   0  0  0  0  0  0  0  0  0  0  0  0
   55.7570   30.7070   44.5460 O   0  0  0  0  0  0  0  0  0  0  0  0
   57.4190   31.9710   43.2670 O   0  0  0  0  0  0  0  0  0  0  0  0
   57.8680   29.3960   43.6560 N   0  0  0  0  0  0  0  0  0  0  0  0
   58.1790   28.2520   44.4700 C   0  0  0  0  0  0  0  0  0  0  0  0
   59.4970   27.9710   44.8820 C   0  0  0  0  0  0  0  0  0  0  0  0
   59.7660   26.8470   45.6680 C   0  0  0  0  0  0  0  0  0  0  0  0
   58.7290   25.9960   46.0540 C   0  0  0  0  0  0  0  0  0  0  0  0
   57.4140   26.2630   45.6540 C   0  0  0  0  0  0  0  0  0  0  0  0
   56.1050   25.2020   46.1660 S   0  0  0  0  0  0  0  0  0  0  0  0
   56.2610   24.8740   47.6270 O   0  0  0  0  0  0  0  0  0  0  0  0
   54.7920   25.9080   45.9730 O   0  0  0  0  0  0  0  0  0  0  0  0
   56.1310   23.7470   45.2030 N   0  0  0  0  0  0  0  0  0  0  0  0
   55.9540   24.0450   43.7840 C   0  0  0  0  0  0  0  0  0  0  0  0
   56.6160   22.9090   43.0220 C   0  0  0  0  0  0  0  0  0  0  0  0
   57.6090   22.2980   43.9990 C   0  0  0  0  0  0  0  0  0  0  0  0
   57.4230   23.0670   45.2990 C   0  0  0  0  0  0  0  0  0  0  0  0
   57.1430   27.3940   44.8710 C   0  0  0  0  0  0  0  0  0  0  0  0
   58.5600   32.6370   45.9220 C   0  0  0  0  0  0  0  0  0  0  0  0
   59.2620   33.0010   47.0880 C   0  0  0  0  0  0  0  0  0  0  0  0
   59.5308   36.3537   46.7352 H   0  0  0  0  0  0  0  0  0  0  0  0
   60.5587   35.4020   45.6108 H   0  0  0  0  0  0  0  0  0  0  0  0
   58.7771   35.1729   45.6108 H   0  0  0  0  0  0  0  0  0  0  0  0
   60.8951   35.5886   48.6411 H   0  0  0  0  0  0  0  0  0  0  0  0
   59.0833   29.9928   48.7406 H   0  0  0  0  0  0  0  0  0  0  0  0
   57.8660   29.3693   46.6584 H   0  0  0  0  0  0  0  0  0  0  0  0
   58.1430   29.3880   42.6470 H   0  0  0  0  0  0  0  0  0  0  0  0
   60.3180   28.6395   44.5836 H   0  0  0  0  0  0  0  0  0  0  0  0
   60.7978   26.6324   45.9833 H   0  0  0  0  0  0  0  0  0  0  0  0
   58.9454   25.1135   46.6739 H   0  0  0  0  0  0  0  0  0  0  0  0
   54.8834   24.0962   43.5365 H   0  0  0  0  0  0  0  0  0  0  0  0
   56.4005   25.0153   43.5213 H   0  0  0  0  0  0  0  0  0  0  0  0
   55.8681   22.1630   42.7152 H   0  0  0  0  0  0  0  0  0  0  0  0
   57.1075   23.2620   42.1034 H   0  0  0  0  0  0  0  0  0  0  0  0
   57.3932   21.2299   44.1495 H   0  0  0  0  0  0  0  0  0  0  0  0
   58.6423   22.3661   43.6279 H   0  0  0  0  0  0  0  0  0  0  0  0
   57.4243   22.3739   46.1532 H   0  0  0  0  0  0  0  0  0  0  0  0
   58.2395   23.7878   45.4531 H   0  0  0  0  0  0  0  0  0  0  0  0
   56.1081   27.6111   44.5679 H   0  0  0  0  0  0  0  0  0  0  0  0
   58.3950   33.3821   45.1298 H   0  0  0  0  0  0  0  0  0  0  0  0
  1  2  1  0
  2  3  2  0
  3  4  1  0
  4  5  2  0
  4  6  1  0
  6  7  1  0
  7  8  2  0
  8  9  1  0
  9 10  2  0
 10 11  1  0
 11 12  2  0
 11 13  2  0
 11 14  1  0
 14 15  1  0
 15 16  2  0
 16 17  1  0
 17 18  2  0
 18 19  1  0
 19 20  1  0
 20 21  2  0
 20 22  2  0
 20 23  1  0
 23 24  1  0
 24 25  1  0
 25 26  1  0
 26 27  1  0
 19 28  2  0
 10 29  1  0
 29 30  2  0
 30  2  1  0
 30  7  1  0
 28 15  1  0
 27 23  1  0
  1 31  1  0
  1 32  1  0
  1 33  1  0
  3 34  1  0
  8 35  1  0
  9 36  1  0
 14 37  1  0
 16 38  1  0
 17 39  1  0
 18 40  1  0
 24 41  1  0
 24 42  1  0
 25 43  1  0
 25 44  1  0
 26 45  1  0
 26 46  1  0
 27 47  1  0
 27 48  1  0
 28 49  1  0
 29 50  1  0
M  CHG  1   6  -1
M  END
>  <UniqueID>  (87) 
82

>  <SMILES>  (87) 
Cc1cc(=O)[n-]c2ccc(S(=O)(=O)Nc3cccc(S(=O)(=O)N4CCCC4)c3)cc12

>  <Energy>  (87) 
60.43652583340596

>  <Genealogy>  (87) 
Cc1cc(=O)[n-]c2ccc(S(=O)(=O)Nc3cccc(S(=O)(=O)N4CCCC4)c3)cc12 (protonated)
Cc1cc(=O)[n-]c2ccc(S(=O)(=O)Nc3cccc(S(=O)(=O)N4CCCC4)c3)cc12 (3D coordinates assigned)
Cc1cc(=O)[n-]c2ccc(S(=O)(=O)Nc3cccc(S(=O)(=O)N4CCCC4)c3)cc12 (nonaromatic ring conformer: 60.43652583340596 kcal/mol)

>  <smiles>  (87) 
Cc1cc(=O)[nH]c2ccc(S(=O)(=O)Nc3cccc(S(=O)(=O)N4CCCC4)c3)cc12

>  <score_type>  (87) 
oracle

>  <origin>  (87) 
adg

>  <m_score__min__energy>  (87) 
-11.470000000000001

>  <m_primary>  (87) 
energy

$$$$
87:0
     RDKit          3D

 65 69  0  0  0  0  0  0  0  0999 V2000
   55.5870   26.5390   46.2140 N   0  0  0  0  0  0  0  0  0  0  0  0
   57.2130   26.6140   45.6270 S   0  0  0  0  0  0  0  0  0  0  0  0
   57.2890   27.5600   44.4630 O   0  0  0  0  0  0  0  0  0  0  0  0
   57.6330   25.2470   45.1680 O   0  0  0  0  0  0  0  0  0  0  0  0
   58.2770   27.1800   46.9120 C   0  0  0  0  0  0  0  0  0  0  0  0
   59.3190   26.3570   47.3660 C   0  0  0  0  0  0  0  0  0  0  0  0
   60.1790   26.8020   48.3740 C   0  0  0  0  0  0  0  0  0  0  0  0
   60.0200   28.0870   48.9250 C   0  0  0  0  0  0  0  0  0  0  0  0
   60.8900   28.5560   49.9700 N   0  0  0  0  0  0  0  0  0  0  0  0
   61.1650   27.8270   51.0430 N   0  0  0  0  0  0  0  0  0  0  0  0
   62.0570   28.5070   51.7890 C   0  0  0  0  0  0  0  0  0  0  0  0
   62.6360   28.0230   53.0590 C   0  0  0  0  0  0  0  0  0  0  0  0
   62.7190   28.8260   54.0270 O   0  0  0  0  0  0  0  0  0  0  0  0
   63.1130   26.6680   53.2210 N   0  0  0  0  0  0  0  0  0  0  0  0
   62.5990   25.5670   52.3950 C   0  0  0  0  0  0  0  0  0  0  0  0
   62.6430   24.2530   53.1830 C   0  0  0  0  0  0  0  0  0  0  0  0
   63.9270   24.0360   53.7350 O   0  0  0  0  0  0  0  0  0  0  0  0
   64.2040   25.0360   54.6990 C   0  0  0  0  0  0  0  0  0  0  0  0
   64.3060   26.4140   54.0370 C   0  0  0  0  0  0  0  0  0  0  0  0
   62.3720   29.7020   51.1670 C   0  0  0  0  0  0  0  0  0  0  0  0
   61.6020   29.7090   50.0200 C   0  0  0  0  0  0  0  0  0  0  0  0
   61.5110   30.8460   49.0760 C   0  0  0  0  0  0  0  0  0  0  0  0
   61.2970   32.1450   49.5650 C   0  0  0  0  0  0  0  0  0  0  0  0
   61.1830   33.2230   48.6840 C   0  0  0  0  0  0  0  0  0  0  0  0
   61.2650   33.0160   47.3000 C   0  0  0  0  0  0  0  0  0  0  0  0
   61.1660   34.1080   46.3850 N   0  0  0  0  0  0  0  0  0  0  0  0
   59.6640   34.8850   46.0010 S   0  0  0  0  0  0  0  0  0  0  0  0
   59.6140   36.1990   46.7290 O   0  0  0  0  0  0  0  0  0  0  0  0
   59.6090   35.1480   44.5210 O   0  0  0  0  0  0  0  0  0  0  0  0
   58.2600   33.8920   46.4910 C   0  0  0  0  0  0  0  0  0  0  0  0
   58.0520   32.7560   45.5270 C   0  0  0  0  0  0  0  0  0  0  0  0
   57.7860   33.0120   44.1720 C   0  0  0  0  0  0  0  0  0  0  0  0
   57.6170   31.9510   43.2750 C   0  0  0  0  0  0  0  0  0  0  0  0
   57.7290   30.6300   43.7220 C   0  0  0  0  0  0  0  0  0  0  0  0
   58.0100   30.3690   45.0660 C   0  0  0  0  0  0  0  0  0  0  0  0
   58.1720   31.4260   45.9670 C   0  0  0  0  0  0  0  0  0  0  0  0
   61.4920   31.7270   46.8090 C   0  0  0  0  0  0  0  0  0  0  0  0
   61.5950   30.6450   47.6880 C   0  0  0  0  0  0  0  0  0  0  0  0
   58.9600   28.8980   48.4840 C   0  0  0  0  0  0  0  0  0  0  0  0
   58.0990   28.4510   47.4770 C   0  0  0  0  0  0  0  0  0  0  0  0
   55.1510   27.4650   46.0210 H   0  0  0  0  0  0  0  0  0  0  0  0
   59.4595   25.3582   46.9271 H   0  0  0  0  0  0  0  0  0  0  0  0
   60.9830   26.1453   48.7379 H   0  0  0  0  0  0  0  0  0  0  0  0
   61.5599   25.7833   52.1059 H   0  0  0  0  0  0  0  0  0  0  0  0
   63.2248   25.4688   51.4957 H   0  0  0  0  0  0  0  0  0  0  0  0
   61.9042   24.2966   53.9968 H   0  0  0  0  0  0  0  0  0  0  0  0
   62.4119   23.4249   52.4969 H   0  0  0  0  0  0  0  0  0  0  0  0
   63.3953   25.0526   55.4445 H   0  0  0  0  0  0  0  0  0  0  0  0
   65.1645   24.8043   55.1825 H   0  0  0  0  0  0  0  0  0  0  0  0
   64.3864   27.1871   54.8154 H   0  0  0  0  0  0  0  0  0  0  0  0
   65.1969   26.4400   53.3923 H   0  0  0  0  0  0  0  0  0  0  0  0
   63.0774   30.4736   51.5091 H   0  0  0  0  0  0  0  0  0  0  0  0
   61.2186   32.3147   50.6490 H   0  0  0  0  0  0  0  0  0  0  0  0
   61.0283   34.2384   49.0778 H   0  0  0  0  0  0  0  0  0  0  0  0
   58.4391   33.4843   47.4968 H   0  0  0  0  0  0  0  0  0  0  0  0
   57.3608   34.5255   46.4915 H   0  0  0  0  0  0  0  0  0  0  0  0
   57.7102   34.0496   43.8146 H   0  0  0  0  0  0  0  0  0  0  0  0
   57.3958   32.1560   42.2172 H   0  0  0  0  0  0  0  0  0  0  0  0
   57.5959   29.7971   43.0159 H   0  0  0  0  0  0  0  0  0  0  0  0
   58.1039   29.3303   45.4156 H   0  0  0  0  0  0  0  0  0  0  0  0
   58.3941   31.2162   47.0237 H   0  0  0  0  0  0  0  0  0  0  0  0
   61.5900   31.5634   45.7257 H   0  0  0  0  0  0  0  0  0  0  0  0
   61.7427   29.6300   47.2906 H   0  0  0  0  0  0  0  0  0  0  0  0
   58.8069   29.8901   48.9337 H   0  0  0  0  0  0  0  0  0  0  0  0
   57.2806   29.0975   47.1274 H   0  0  0  0  0  0  0  0  0  0  0  0
  1  2  1  0
  2  3  2  0
  2  4  2  0
  2  5  1  0
  5  6  2  0
  6  7  1  0
  7  8  2  0
  8  9  1  0
  9 10  1  0
 10 11  2  0
 11 12  1  0
 12 13  2  0
 12 14  1  0
 14 15  1  0
 15 16  1  0
 16 17  1  0
 17 18  1  0
 18 19  1  0
 11 20  1  0
 20 21  2  0
 21 22  1  0
 22 23  2  0
 23 24  1  0
 24 25  2  0
 25 26  1  0
 26 27  1  0
 27 28  2  0
 27 29  2  0
 27 30  1  0
 30 31  1  0
 31 32  2  0
 32 33  1  0
 33 34  2  0
 34 35  1  0
 35 36  2  0
 25 37  1  0
 37 38  2  0
  8 39  1  0
 39 40  2  0
 40  5  1  0
 21  9  1  0
 38 22  1  0
 19 14  1  0
 36 31  1  0
  1 41  1  0
  6 42  1  0
  7 43  1  0
 15 44  1  0
 15 45  1  0
 16 46  1  0
 16 47  1  0
 18 48  1  0
 18 49  1  0
 19 50  1  0
 19 51  1  0
 20 52  1  0
 23 53  1  0
 24 54  1  0
 30 55  1  0
 30 56  1  0
 32 57  1  0
 33 58  1  0
 34 59  1  0
 35 60  1  0
 36 61  1  0
 37 62  1  0
 38 63  1  0
 39 64  1  0
 40 65  1  0
M  CHG  2   1  -1  26  -1
M  END
>  <UniqueID>  (88) 
83

>  <SMILES>  (88) 
[NH-]S(=O)(=O)c1ccc(-n2nc(C(=O)N3CCOCC3)cc2-c2ccc([N-]S(=O)(=O)Cc3ccccc3)cc2)cc1

>  <Energy>  (88) 
116.73562941966661

>  <Genealogy>  (88) 
[NH-]S(=O)(=O)c1ccc(-n2nc(C(=O)N3CCOCC3)cc2-c2ccc([N-]S(=O)(=O)Cc3ccccc3)cc2)cc1 (protonated)
[NH-]S(=O)(=O)c1ccc(-n2nc(C(=O)N3CCOCC3)cc2-c2ccc([N-]S(=O)(=O)Cc3ccccc3)cc2)cc1 (3D coordinates assigned)
[NH-]S(=O)(=O)c1ccc(-n2nc(C(=O)N3CCOCC3)cc2-c2ccc([N-]S(=O)(=O)Cc3ccccc3)cc2)cc1 (nonaromatic ring conformer: 116.73562941966661 kcal/mol)

>  <smiles>  (88) 
NS(=O)(=O)c1ccc(-n2nc(C(=O)N3CCOCC3)cc2-c2ccc(NS(=O)(=O)Cc3ccccc3)cc2)cc1

>  <score_type>  (88) 
oracle

>  <origin>  (88) 
adg

>  <m_score__min__energy>  (88) 
-13.41

>  <m_primary>  (88) 
energy

$$$$
88:0
     RDKit          3D

 66 69  0  0  0  0  0  0  0  0999 V2000
   57.5470   31.9360   51.1780 C   0  0  0  0  0  0  0  0  0  0  0  0
   58.9450   32.1500   50.7800 N   0  0  0  0  0  0  0  0  0  0  0  0
   59.7760   32.4840   51.9460 C   0  0  0  0  0  0  0  0  0  0  0  0
   61.1150   33.0310   51.4540 C   0  0  0  0  0  0  0  0  0  0  0  0
   61.8030   32.0840   50.4310 C   0  0  0  0  0  0  0  0  0  0  0  0
   62.2100   32.7610   49.1710 N   0  0  0  0  0  0  0  0  0  0  0  0
   61.9810   31.9990   47.9150 C   0  0  0  0  0  0  0  0  0  0  0  0
   61.5230   32.8780   46.7500 C   0  0  0  0  0  0  0  0  0  0  0  0
   60.4200   33.7350   47.1960 N   0  0  0  0  0  0  0  0  0  0  0  0
   59.2420   33.9110   46.3870 C   0  0  0  0  0  0  0  0  0  0  0  0
   58.7350   35.0600   46.2670 O   0  0  0  0  0  0  0  0  0  0  0  0
   58.6110   32.7670   45.6960 C   0  0  0  0  0  0  0  0  0  0  0  0
   58.2810   32.8560   44.3350 C   0  0  0  0  0  0  0  0  0  0  0  0
   57.7410   31.7530   43.6660 C   0  0  0  0  0  0  0  0  0  0  0  0
   57.5100   30.5530   44.3530 C   0  0  0  0  0  0  0  0  0  0  0  0
   56.9960   29.3380   43.6280 C   0  0  0  0  0  0  0  0  0  0  0  0
   57.0620   28.1650   44.4980 N   0  0  0  0  0  0  0  0  0  0  0  0
   58.3100   27.5910   44.9140 C   0  0  0  0  0  0  0  0  0  0  0  0
   59.3840   27.9180   44.3400 O   0  0  0  0  0  0  0  0  0  0  0  0
   58.3450   26.6450   46.0690 C   0  0  0  0  0  0  0  0  0  0  0  0
   56.9970   26.5020   46.6060 N   0  0  0  0  0  0  0  0  0  0  0  0
   55.9200   25.7860   45.9880 C   0  0  0  0  0  0  0  0  0  0  0  0
   54.7880   26.3370   45.9330 O   0  0  0  0  0  0  0  0  0  0  0  0
   56.0870   24.4340   45.4160 C   0  0  0  0  0  0  0  0  0  0  0  0
   55.8790   24.0930   44.0930 C   0  0  0  0  0  0  0  0  0  0  0  0
   56.1430   22.7430   44.0080 C   0  0  0  0  0  0  0  0  0  0  0  0
   56.4920   22.3400   45.2790 C   0  0  0  0  0  0  0  0  0  0  0  0
   56.4500   23.3690   46.0950 O   0  0  0  0  0  0  0  0  0  0  0  0
   57.7870   30.4830   45.7280 C   0  0  0  0  0  0  0  0  0  0  0  0
   58.3360   31.5810   46.3930 C   0  0  0  0  0  0  0  0  0  0  0  0
   60.5820   34.5310   48.4160 C   0  0  0  0  0  0  0  0  0  0  0  0
   61.9100   34.2140   49.1210 C   0  0  0  0  0  0  0  0  0  0  0  0
   60.9990   30.7920   50.1410 C   0  0  0  0  0  0  0  0  0  0  0  0
   59.4660   30.9800   50.0340 C   0  0  0  0  0  0  0  0  0  0  0  0
   57.4758   31.9251   52.2756 H   0  0  0  0  0  0  0  0  0  0  0  0
   56.9234   32.7491   50.7782 H   0  0  0  0  0  0  0  0  0  0  0  0
   57.1952   30.9735   50.7782 H   0  0  0  0  0  0  0  0  0  0  0  0
   59.2677   33.2445   52.5569 H   0  0  0  0  0  0  0  0  0  0  0  0
   59.9410   31.5850   52.5580 H   0  0  0  0  0  0  0  0  0  0  0  0
   60.9432   34.0053   50.9731 H   0  0  0  0  0  0  0  0  0  0  0  0
   61.7800   33.1228   52.3254 H   0  0  0  0  0  0  0  0  0  0  0  0
   62.7288   31.7739   50.9376 H   0  0  0  0  0  0  0  0  0  0  0  0
   62.9212   31.5039   47.6305 H   0  0  0  0  0  0  0  0  0  0  0  0
   61.1762   31.2761   48.1142 H   0  0  0  0  0  0  0  0  0  0  0  0
   62.3611   33.5043   46.4102 H   0  0  0  0  0  0  0  0  0  0  0  0
   61.1837   32.2422   45.9190 H   0  0  0  0  0  0  0  0  0  0  0  0
   58.4479   33.7978   43.7918 H   0  0  0  0  0  0  0  0  0  0  0  0
   57.4965   31.8273   42.5961 H   0  0  0  0  0  0  0  0  0  0  0  0
   55.9518   29.5090   43.3274 H   0  0  0  0  0  0  0  0  0  0  0  0
   57.6188   29.1606   42.7388 H   0  0  0  0  0  0  0  0  0  0  0  0
   56.1730   27.7970   44.9050 H   0  0  0  0  0  0  0  0  0  0  0  0
   58.7137   25.6649   45.7320 H   0  0  0  0  0  0  0  0  0  0  0  0
   59.0163   27.0346   46.8485 H   0  0  0  0  0  0  0  0  0  0  0  0
   55.5672   24.7610   43.2766 H   0  0  0  0  0  0  0  0  0  0  0  0
   56.0866   22.1140   43.1074 H   0  0  0  0  0  0  0  0  0  0  0  0
   56.7641   21.3137   45.5664 H   0  0  0  0  0  0  0  0  0  0  0  0
   57.5704   29.5587   46.2837 H   0  0  0  0  0  0  0  0  0  0  0  0
   58.5541   31.5158   47.4692 H   0  0  0  0  0  0  0  0  0  0  0  0
   60.5632   35.5986   48.1517 H   0  0  0  0  0  0  0  0  0  0  0  0
   59.7586   34.2838   49.1022 H   0  0  0  0  0  0  0  0  0  0  0  0
   62.7230   34.7210   48.5807 H   0  0  0  0  0  0  0  0  0  0  0  0
   61.8228   34.5670   50.1592 H   0  0  0  0  0  0  0  0  0  0  0  0
   61.3580   30.3743   49.1888 H   0  0  0  0  0  0  0  0  0  0  0  0
   61.1659   30.1286   51.0024 H   0  0  0  0  0  0  0  0  0  0  0  0
   59.2067   31.1042   48.9722 H   0  0  0  0  0  0  0  0  0  0  0  0
   59.0055   30.0876   50.4829 H   0  0  0  0  0  0  0  0  0  0  0  0
  1  2  1  0
  2  3  1  0
  3  4  1  0
  4  5  1  0
  5  6  1  0
  6  7  1  0
  7  8  1  0
  8  9  1  0
  9 10  1  0
 10 11  2  0
 10 12  1  0
 12 13  2  0
 13 14  1  0
 14 15  2  0
 15 16  1  0
 16 17  1  0
 17 18  1  0
 18 19  2  0
 18 20  1  0
 20 21  1  0
 21 22  1  0
 22 23  2  0
 22 24  1  0
 24 25  2  0
 25 26  1  0
 26 27  2  0
 27 28  1  0
 15 29  1  0
 29 30  2  0
  9 31  1  0
 31 32  1  0
  5 33  1  0
 33 34  1  0
 34  2  1  0
 32  6  1  0
 30 12  1  0
 28 24  1  0
  1 35  1  0
  1 36  1  0
  1 37  1  0
  3 38  1  0
  3 39  1  0
  4 40  1  0
  4 41  1  0
  5 42  1  0
  7 43  1  0
  7 44  1  0
  8 45  1  0
  8 46  1  0
 13 47  1  0
 14 48  1  0
 16 49  1  0
 16 50  1  0
 17 51  1  0
 20 52  1  0
 20 53  1  0
 25 54  1  0
 26 55  1  0
 27 56  1  0
 29 57  1  0
 30 58  1  0
 31 59  1  0
 31 60  1  0
 32 61  1  0
 32 62  1  0
 33 63  1  0
 33 64  1  0
 34 65  1  0
 34 66  1  0
M  CHG  1  21  -1
M  END
>  <UniqueID>  (89) 
84

>  <SMILES>  (89) 
CN1CCC(N2CCN(C(=O)c3ccc(CNC(=O)C[N-]C(=O)c4ccco4)cc3)CC2)CC1

>  <Energy>  (89) 
112.98247141584494

>  <Genealogy>  (89) 
CN1CCC(N2CCN(C(=O)c3ccc(CNC(=O)C[N-]C(=O)c4ccco4)cc3)CC2)CC1 (protonated)
CN1CCC(N2CCN(C(=O)c3ccc(CNC(=O)C[N-]C(=O)c4ccco4)cc3)CC2)CC1 (3D coordinates assigned)
CN1CCC(N2CCN(C(=O)c3ccc(CNC(=O)C[N-]C(=O)c4ccco4)cc3)CC2)CC1 (nonaromatic ring conformer: 112.98247141584494 kcal/mol)

>  <smiles>  (89) 
CN1CCC(N2CCN(C(=O)c3ccc(CNC(=O)CNC(=O)c4ccco4)cc3)CC2)CC1

>  <score_type>  (89) 
oracle

>  <origin>  (89) 
adg

>  <m_score__min__energy>  (89) 
-10.91

>  <m_primary>  (89) 
energy

$$$$
89:0
     RDKit          3D

 48 50  0  0  0  0  0  0  0  0999 V2000
   62.6160   31.5870   48.4060 C   0  0  0  0  0  0  0  0  0  0  0  0
   61.5880   30.6050   48.0890 N   0  0  0  0  0  0  0  0  0  0  0  0
   61.0460   30.3990   46.8750 C   0  0  0  0  0  0  0  0  0  0  0  0
   60.1750   29.3370   46.9800 C   0  0  0  0  0  0  0  0  0  0  0  0
   59.3880   28.7040   45.8750 C   0  0  0  0  0  0  0  0  0  0  0  0
   57.9810   29.0650   45.9840 N   0  0  0  0  0  0  0  0  0  0  0  0
   57.4070   30.2170   45.3580 C   0  0  0  0  0  0  0  0  0  0  0  0
   56.2460   30.1620   44.8680 O   0  0  0  0  0  0  0  0  0  0  0  0
   58.1640   31.4320   45.2950 N   0  0  0  0  0  0  0  0  0  0  0  0
   57.6170   32.6740   44.7330 C   0  0  0  0  0  0  0  0  0  0  0  0
   58.7420   33.5270   44.0910 C   0  0  0  0  0  0  0  0  0  0  0  0
   59.2820   34.6330   45.0180 C   0  0  0  0  0  0  0  0  0  0  0  0
   59.1610   34.2400   46.4270 N   0  0  0  0  0  0  0  0  0  0  0  0
   60.3400   34.0470   47.2320 C   0  0  0  0  0  0  0  0  0  0  0  0
   61.4010   33.6290   46.6970 O   0  0  0  0  0  0  0  0  0  0  0  0
   60.3170   34.2560   48.6490 N   0  0  0  0  0  0  0  0  0  0  0  0
   59.6510   33.4200   49.6040 C   0  0  0  0  0  0  0  0  0  0  0  0
   59.1590   32.1750   49.1890 C   0  0  0  0  0  0  0  0  0  0  0  0
   58.5240   31.3290   50.1040 C   0  0  0  0  0  0  0  0  0  0  0  0
   58.3890   31.7150   51.4400 C   0  0  0  0  0  0  0  0  0  0  0  0
   58.8970   32.9450   51.8660 C   0  0  0  0  0  0  0  0  0  0  0  0
   59.5340   33.7940   50.9550 C   0  0  0  0  0  0  0  0  0  0  0  0
   57.8390   33.8660   46.9570 C   0  0  0  0  0  0  0  0  0  0  0  0
   56.8760   33.4650   45.8280 C   0  0  0  0  0  0  0  0  0  0  0  0
   60.2560   28.9220   48.2950 C   0  0  0  0  0  0  0  0  0  0  0  0
   61.1310   29.7100   48.9520 N   0  0  0  0  0  0  0  0  0  0  0  0
   62.7116   31.6783   49.4980 H   0  0  0  0  0  0  0  0  0  0  0  0
   63.5768   31.2627   47.9797 H   0  0  0  0  0  0  0  0  0  0  0  0
   62.3360   32.5616   47.9797 H   0  0  0  0  0  0  0  0  0  0  0  0
   61.2599   30.9750   45.9626 H   0  0  0  0  0  0  0  0  0  0  0  0
   59.7777   29.0517   44.9069 H   0  0  0  0  0  0  0  0  0  0  0  0
   59.4832   27.6107   45.9494 H   0  0  0  0  0  0  0  0  0  0  0  0
   59.1320   31.4250   45.6920 H   0  0  0  0  0  0  0  0  0  0  0  0
   56.8976   32.4199   43.9406 H   0  0  0  0  0  0  0  0  0  0  0  0
   59.5748   32.8599   43.8236 H   0  0  0  0  0  0  0  0  0  0  0  0
   58.3073   34.0260   43.2123 H   0  0  0  0  0  0  0  0  0  0  0  0
   60.3416   34.8136   44.7841 H   0  0  0  0  0  0  0  0  0  0  0  0
   58.6918   35.5470   44.8559 H   0  0  0  0  0  0  0  0  0  0  0  0
   59.2726   31.8623   48.1405 H   0  0  0  0  0  0  0  0  0  0  0  0
   58.1299   30.3575   49.7710 H   0  0  0  0  0  0  0  0  0  0  0  0
   57.8830   31.0509   52.1562 H   0  0  0  0  0  0  0  0  0  0  0  0
   58.7958   33.2460   52.9192 H   0  0  0  0  0  0  0  0  0  0  0  0
   59.9443   34.7561   51.2957 H   0  0  0  0  0  0  0  0  0  0  0  0
   57.9567   33.0165   47.6458 H   0  0  0  0  0  0  0  0  0  0  0  0
   57.4164   34.7365   47.4801 H   0  0  0  0  0  0  0  0  0  0  0  0
   56.0728   32.8391   46.2442 H   0  0  0  0  0  0  0  0  0  0  0  0
   56.4565   34.3783   45.3809 H   0  0  0  0  0  0  0  0  0  0  0  0
   59.6966   28.0835   48.7354 H   0  0  0  0  0  0  0  0  0  0  0  0
  1  2  1  0
  2  3  1  0
  3  4  2  0
  4  5  1  0
  5  6  1  0
  6  7  1  0
  7  8  2  0
  7  9  1  0
  9 10  1  0
 10 11  1  0
 11 12  1  0
 12 13  1  0
 13 14  1  0
 14 15  2  0
 14 16  1  0
 16 17  1  0
 17 18  2  0
 18 19  1  0
 19 20  2  0
 20 21  1  0
 21 22  2  0
 13 23  1  0
 23 24  1  0
  4 25  1  0
 25 26  2  0
 26  2  1  0
 24 10  1  0
 22 17  1  0
  1 27  1  0
  1 28  1  0
  1 29  1  0
  3 30  1  0
  5 31  1  0
  5 32  1  0
  9 33  1  0
 10 34  1  0
 11 35  1  0
 11 36  1  0
 12 37  1  0
 12 38  1  0
 18 39  1  0
 19 40  1  0
 20 41  1  0
 21 42  1  0
 22 43  1  0
 23 44  1  0
 23 45  1  0
 24 46  1  0
 24 47  1  0
 25 48  1  0
M  CHG  2   6  -1  16  -1
M  END
>  <UniqueID>  (90) 
85

>  <SMILES>  (90) 
Cn1cc(C[N-]C(=O)NC2CCN(C(=O)[N-]c3ccccc3)CC2)cn1

>  <Energy>  (90) 
81.49991035974863

>  <Genealogy>  (90) 
Cn1cc(C[N-]C(=O)NC2CCN(C(=O)[N-]c3ccccc3)CC2)cn1 (protonated)
Cn1cc(C[N-]C(=O)NC2CCN(C(=O)[N-]c3ccccc3)CC2)cn1 (3D coordinates assigned)
Cn1cc(C[N-]C(=O)NC2CCN(C(=O)[N-]c3ccccc3)CC2)cn1 (nonaromatic ring conformer: 81.49991035974863 kcal/mol)

>  <smiles>  (90) 
Cn1cc(CNC(=O)NC2CCN(C(=O)Nc3ccccc3)CC2)cn1

>  <score_type>  (90) 
oracle

>  <origin>  (90) 
adg

>  <m_score__min__energy>  (90) 
-10.17

>  <m_primary>  (90) 
energy

$$$$
90:0
     RDKit          3D

 36 37  0  0  0  0  0  0  0  0999 V2000
   59.9430   34.6270   47.7480 C   0  0  0  0  0  0  0  0  0  0  0  0
   59.3950   34.5990   46.4340 O   0  0  0  0  0  0  0  0  0  0  0  0
   58.7530   33.4870   45.8690 C   0  0  0  0  0  0  0  0  0  0  0  0
   58.7810   32.2750   46.5690 C   0  0  0  0  0  0  0  0  0  0  0  0
   58.1530   31.1380   46.0500 C   0  0  0  0  0  0  0  0  0  0  0  0
   57.4900   31.2010   44.8170 C   0  0  0  0  0  0  0  0  0  0  0  0
   56.6680   29.7840   44.1690 S   0  0  0  0  0  0  0  0  0  0  0  0
   55.3470   29.6240   44.8670 O   0  0  0  0  0  0  0  0  0  0  0  0
   56.4100   29.9640   42.6990 O   0  0  0  0  0  0  0  0  0  0  0  0
   57.6220   28.3510   44.4210 N   0  0  0  0  0  0  0  0  0  0  0  0
   57.2540   27.6800   45.6720 C   0  0  0  0  0  0  0  0  0  0  0  0
   57.1040   26.1710   45.4540 C   0  0  0  0  0  0  0  0  0  0  0  0
   55.8490   25.6550   46.0870 C   0  0  0  0  0  0  0  0  0  0  0  0
   54.7880   26.3330   46.0050 O   0  0  0  0  0  0  0  0  0  0  0  0
   55.8690   24.3790   46.7450 N   0  0  0  0  0  0  0  0  0  0  0  0
   56.2880   23.2570   46.2360 C   0  0  0  0  0  0  0  0  0  0  0  0
   57.2670   22.4990   46.7840 N   0  0  0  0  0  0  0  0  0  0  0  0
   57.3680   21.4510   45.9480 C   0  0  0  0  0  0  0  0  0  0  0  0
   56.4560   21.6130   44.9340 C   0  0  0  0  0  0  0  0  0  0  0  0
   56.2530   20.7350   43.8760 O   0  0  0  0  0  0  0  0  0  0  0  0
   55.7650   22.7520   45.1000 N   0  0  0  0  0  0  0  0  0  0  0  0
   57.4580   32.4110   44.1100 C   0  0  0  0  0  0  0  0  0  0  0  0
   58.0840   33.5480   44.6310 C   0  0  0  0  0  0  0  0  0  0  0  0
   59.1284   34.5854   48.4860 H   0  0  0  0  0  0  0  0  0  0  0  0
   60.6078   33.7617   47.8865 H   0  0  0  0  0  0  0  0  0  0  0  0
   60.5162   35.5556   47.8865 H   0  0  0  0  0  0  0  0  0  0  0  0
   59.3017   32.2163   47.5362 H   0  0  0  0  0  0  0  0  0  0  0  0
   58.1796   30.1922   46.6110 H   0  0  0  0  0  0  0  0  0  0  0  0
   58.0379   27.8602   46.4224 H   0  0  0  0  0  0  0  0  0  0  0  0
   56.2920   28.0841   46.0200 H   0  0  0  0  0  0  0  0  0  0  0  0
   57.0716   25.9659   44.3738 H   0  0  0  0  0  0  0  0  0  0  0  0
   57.9626   25.6646   45.9192 H   0  0  0  0  0  0  0  0  0  0  0  0
   58.0638   20.6061   46.0577 H   0  0  0  0  0  0  0  0  0  0  0  0
   56.8770   19.9520   43.7200 H   0  0  0  0  0  0  0  0  0  0  0  0
   56.9386   32.4665   43.1419 H   0  0  0  0  0  0  0  0  0  0  0  0
   58.0537   34.4944   44.0712 H   0  0  0  0  0  0  0  0  0  0  0  0
  1  2  1  0
  2  3  1  0
  3  4  2  0
  4  5  1  0
  5  6  2  0
  6  7  1  0
  7  8  2  0
  7  9  2  0
  7 10  1  0
 10 11  1  0
 11 12  1  0
 12 13  1  0
 13 14  2  0
 13 15  1  0
 15 16  2  3
 16 17  1  0
 17 18  1  0
 18 19  2  0
 19 20  1  0
 19 21  1  0
  6 22  1  0
 22 23  2  0
 23  3  1  0
 21 16  1  0
  1 24  1  0
  1 25  1  0
  1 26  1  0
  4 27  1  0
  5 28  1  0
 11 29  1  0
 11 30  1  0
 12 31  1  0
 12 32  1  0
 18 33  1  0
 20 34  1  0
 22 35  1  0
 23 36  1  0
M  CHG  3  10  -1  17  -1  21  -1
M  END
>  <UniqueID>  (91) 
86

>  <SMILES>  (91) 
COc1ccc(S(=O)(=O)[N-]CCC(=O)N=c2[n-]cc(O)[n-]2)cc1

>  <Energy>  (91) 
61.725278521663114

>  <Genealogy>  (91) 
COc1ccc(S(=O)(=O)[N-]CCC(=O)N=c2[n-]cc(O)[n-]2)cc1 (protonated)
COc1ccc(S(=O)(=O)[N-]CCC(=O)N=c2[n-]cc(O)[n-]2)cc1 (3D coordinates assigned)
COc1ccc(S(=O)(=O)[N-]CCC(=O)N=c2[n-]cc(O)[n-]2)cc1 (optimized conformer: 61.725278521663114 kcal/mol)

>  <smiles>  (91) 
COc1ccc(S(=O)(=O)NCCC(=O)N=c2[nH]cc(O)[nH]2)cc1

>  <score_type>  (91) 
oracle

>  <origin>  (91) 
adg

>  <m_score__min__energy>  (91) 
-12.27

>  <m_primary>  (91) 
energy

$$$$
91:0
     RDKit          3D

 38 39  0  0  0  0  0  0  0  0999 V2000
   50.6350   32.4120   49.3010 O   0  0  0  0  0  0  0  0  0  0  0  0
   51.1350   31.9630   50.3660 C   0  0  0  0  0  0  0  0  0  0  0  0
   51.0330   32.7110   51.5320 O   0  0  0  0  0  0  0  0  0  0  0  0
   51.8640   30.6810   50.3800 C   0  0  0  0  0  0  0  0  0  0  0  0
   51.7390   29.9100   49.3900 O   0  0  0  0  0  0  0  0  0  0  0  0
   52.7150   30.2590   51.5190 C   0  0  0  0  0  0  0  0  0  0  0  0
   52.1530   29.7390   52.6990 C   0  0  0  0  0  0  0  0  0  0  0  0
   52.9700   29.3710   53.7690 C   0  0  0  0  0  0  0  0  0  0  0  0
   54.3560   29.5190   53.6800 C   0  0  0  0  0  0  0  0  0  0  0  0
   54.9360   30.0370   52.5130 C   0  0  0  0  0  0  0  0  0  0  0  0
   56.4260   30.2390   52.4310 C   0  0  0  0  0  0  0  0  0  0  0  0
   56.7540   31.4970   51.6160 C   0  0  0  0  0  0  0  0  0  0  0  0
   57.3650   32.6170   52.4870 C   0  0  1  0  0  0  0  0  0  0  0  0
   57.8720   32.0790   53.8500 C   0  0  0  0  0  0  0  0  0  0  0  0
   59.0280   32.9150   54.4290 C   0  0  0  0  0  0  0  0  0  0  0  0
   58.9470   34.3700   53.9560 C   0  0  0  0  0  0  0  0  0  0  0  0
   59.0430   34.4850   52.4840 N   0  0  0  0  0  0  0  0  0  0  0  0
   58.5120   33.3230   51.7350 C   0  0  0  0  0  0  0  0  0  0  0  0
   54.1100   30.4210   51.4440 C   0  0  0  0  0  0  0  0  0  0  0  0
   51.0622   29.6216   52.7790 H   0  0  0  0  0  0  0  0  0  0  0  0
   52.5205   28.9627   54.6862 H   0  0  0  0  0  0  0  0  0  0  0  0
   54.9943   29.2285   54.5275 H   0  0  0  0  0  0  0  0  0  0  0  0
   56.8327   30.3497   53.4470 H   0  0  0  0  0  0  0  0  0  0  0  0
   56.8764   29.3665   51.9351 H   0  0  0  0  0  0  0  0  0  0  0  0
   57.4730   31.2301   50.8274 H   0  0  0  0  0  0  0  0  0  0  0  0
   55.8135   31.8769   51.1903 H   0  0  0  0  0  0  0  0  0  0  0  0
   56.5656   33.3445   52.6910 H   0  0  0  0  0  0  0  0  0  0  0  0
   57.0366   32.0915   54.5655 H   0  0  0  0  0  0  0  0  0  0  0  0
   58.2514   31.0601   53.6833 H   0  0  0  0  0  0  0  0  0  0  0  0
   58.9739   32.8907   55.5274 H   0  0  0  0  0  0  0  0  0  0  0  0
   59.9787   32.4862   54.0792 H   0  0  0  0  0  0  0  0  0  0  0  0
   57.9869   34.7959   54.2828 H   0  0  0  0  0  0  0  0  0  0  0  0
   59.7962   34.9153   54.3936 H   0  0  0  0  0  0  0  0  0  0  0  0
   60.0470   34.6180   52.2180 H   0  0  0  0  0  0  0  0  0  0  0  0
   58.5260   35.3450   52.1870 H   0  0  0  0  0  0  0  0  0  0  0  0
   58.1355   33.6713   50.7619 H   0  0  0  0  0  0  0  0  0  0  0  0
   59.3307   32.5985   51.6127 H   0  0  0  0  0  0  0  0  0  0  0  0
   54.5593   30.8534   50.5378 H   0  0  0  0  0  0  0  0  0  0  0  0
  1  2  2  0
  2  3  1  0
  2  4  1  0
  4  5  2  0
  4  6  1  0
  6  7  2  0
  7  8  1  0
  8  9  2  0
  9 10  1  0
 10 11  1  0
 11 12  1  0
 12 13  1  0
 13 14  1  0
 14 15  1  0
 15 16  1  0
 16 17  1  0
 17 18  1  0
 10 19  2  0
 19  6  1  0
 18 13  1  0
  7 20  1  0
  8 21  1  0
  9 22  1  0
 11 23  1  0
 11 24  1  0
 12 25  1  0
 12 26  1  0
 13 27  1  1
 14 28  1  0
 14 29  1  0
 15 30  1  0
 15 31  1  0
 16 32  1  0
 16 33  1  0
 17 34  1  0
 17 35  1  0
 18 36  1  0
 18 37  1  0
 19 38  1  0
M  CHG  2   3  -1  17   1
M  END
>  <UniqueID>  (92) 
87

>  <SMILES>  (92) 
O=C([O-])C(=O)c1cccc(CC[C@H]2CCC[NH2+]C2)c1

>  <Energy>  (92) 
42.048695945708566

>  <Genealogy>  (92) 
O=C([O-])C(=O)c1cccc(CCC2CCC[NH2+]C2)c1 (protonated)
O=C([O-])C(=O)c1cccc(CC[C@H]2CCC[NH2+]C2)c1 (chirality)
O=C([O-])C(=O)c1cccc(CC[C@H]2CCC[NH2+]C2)c1 (3D coordinates assigned)
O=C([O-])C(=O)c1cccc(CC[C@H]2CCC[NH2+]C2)c1 (nonaromatic ring conformer: 42.048695945708566 kcal/mol)

>  <smiles>  (92) 
O=C(O)C(=O)c1cccc(CCC2CCCNC2)c1

>  <score_type>  (92) 
oracle

>  <origin>  (92) 
adg

>  <m_score__min__energy>  (92) 
-9.3399999999999999

>  <m_primary>  (92) 
energy

$$$$
