0:0
     RDKit          3D

 49 51  0  0  0  0  0  0  0  0999 V2000
   55.6820   29.1620   45.1880 N   0  0  0  0  0  0  0  0  0  0  0  0
   56.8610   28.4300   45.5930 C   0  0  0  0  0  0  0  0  0  0  0  0
   58.1040   29.0440   45.3530 C   0  0  0  0  0  0  0  0  0  0  0  0
   58.1020   30.1890   44.4780 N   0  0  0  0  0  0  0  0  0  0  0  0
   57.4520   31.4370   44.7560 C   0  0  0  0  0  0  0  0  0  0  0  0
   56.2260   31.5530   44.4940 O   0  0  0  0  0  0  0  0  0  0  0  0
   58.1930   32.5910   45.3080 C   0  0  0  0  0  0  0  0  0  0  0  0
   58.5960   32.5940   46.6560 C   0  0  0  0  0  0  0  0  0  0  0  0
   59.2700   33.6960   47.1900 C   0  0  0  0  0  0  0  0  0  0  0  0
   59.5310   34.8120   46.3900 C   0  0  0  0  0  0  0  0  0  0  0  0
   59.1170   34.8280   45.0570 C   0  0  0  0  0  0  0  0  0  0  0  0
   58.4580   33.7210   44.5130 C   0  0  0  0  0  0  0  0  0  0  0  0
   59.3050   28.7360   45.9990 C   0  0  0  0  0  0  0  0  0  0  0  0
   60.3040   29.4740   45.7830 O   0  0  0  0  0  0  0  0  0  0  0  0
   59.4630   27.7660   46.9180 N   0  0  0  0  0  0  0  0  0  0  0  0
   58.7230   26.7030   47.2820 C   0  0  0  0  0  0  0  0  0  0  0  0
   59.1770   25.9980   48.2270 O   0  0  0  0  0  0  0  0  0  0  0  0
   57.5970   26.2880   46.6290 N   0  0  0  0  0  0  0  0  0  0  0  0
   57.2460   24.8920   46.7990 C   0  0  0  0  0  0  0  0  0  0  0  0
   57.9890   23.9950   46.3150 O   0  0  0  0  0  0  0  0  0  0  0  0
   56.0630   24.5000   47.5090 N   0  0  0  0  0  0  0  0  0  0  0  0
   55.4410   23.1750   47.4800 C   0  0  1  0  0  0  0  0  0  0  0  0
   54.6410   22.9670   48.7350 C   0  0  0  0  0  0  0  0  0  0  0  0
   53.4750   22.6050   48.6850 O   0  0  0  0  0  0  0  0  0  0  0  0
   54.5830   22.9670   46.2140 C   0  0  0  0  0  0  0  0  0  0  0  0
   55.3770   22.5500   45.0000 C   0  0  0  0  0  0  0  0  0  0  0  0
   55.5760   23.4450   43.9360 C   0  0  0  0  0  0  0  0  0  0  0  0
   56.3120   23.0550   42.8140 C   0  0  0  0  0  0  0  0  0  0  0  0
   56.8570   21.7690   42.7450 C   0  0  0  0  0  0  0  0  0  0  0  0
   56.6660   20.8730   43.8010 C   0  0  0  0  0  0  0  0  0  0  0  0
   55.9300   21.2590   44.9240 C   0  0  0  0  0  0  0  0  0  0  0  0
   56.6740   27.0900   46.0020 C   0  0  0  0  0  0  0  0  0  0  0  0
   55.5370   26.5930   45.7520 O   0  0  0  0  0  0  0  0  0  0  0  0
   55.7310   29.9960   44.5640 H   0  0  0  0  0  0  0  0  0  0  0  0
   54.7380   28.9660   45.5900 H   0  0  0  0  0  0  0  0  0  0  0  0
   58.3794   31.7240   47.2934 H   0  0  0  0  0  0  0  0  0  0  0  0
   59.5953   33.6849   48.2407 H   0  0  0  0  0  0  0  0  0  0  0  0
   60.0628   35.6780   46.8110 H   0  0  0  0  0  0  0  0  0  0  0  0
   59.3095   35.7133   44.4331 H   0  0  0  0  0  0  0  0  0  0  0  0
   58.1453   33.7339   43.4584 H   0  0  0  0  0  0  0  0  0  0  0  0
   56.2370   22.4169   47.4384 H   0  0  0  0  0  0  0  0  0  0  0  0
   55.1121   23.1433   49.7133 H   0  0  0  0  0  0  0  0  0  0  0  0
   53.8372   22.1865   46.4252 H   0  0  0  0  0  0  0  0  0  0  0  0
   54.1224   23.9374   45.9769 H   0  0  0  0  0  0  0  0  0  0  0  0
   55.1503   24.4581   43.9862 H   0  0  0  0  0  0  0  0  0  0  0  0
   56.4629   23.7607   41.9838 H   0  0  0  0  0  0  0  0  0  0  0  0
   57.4353   21.4628   41.8608 H   0  0  0  0  0  0  0  0  0  0  0  0
   57.0961   19.8620   43.7476 H   0  0  0  0  0  0  0  0  0  0  0  0
   55.7824   20.5503   45.7522 H   0  0  0  0  0  0  0  0  0  0  0  0
  1  2  1  0
  2  3  2  0
  3  4  1  0
  4  5  1  0
  5  6  2  0
  5  7  1  0
  7  8  2  0
  8  9  1  0
  9 10  2  0
 10 11  1  0
 11 12  2  0
  3 13  1  0
 13 14  2  0
 13 15  1  0
 15 16  1  0
 16 17  2  0
 16 18  1  0
 18 19  1  0
 19 20  2  0
 19 21  1  0
 21 22  1  0
 22 23  1  0
 23 24  2  0
 22 25  1  0
 25 26  1  0
 26 27  2  0
 27 28  1  0
 28 29  2  0
 29 30  1  0
 30 31  2  0
 18 32  1  0
 32 33  2  0
 32  2  1  0
 12  7  1  0
 31 26  1  0
  1 34  1  0
  1 35  1  0
  8 36  1  0
  9 37  1  0
 10 38  1  0
 11 39  1  0
 12 40  1  0
 22 41  1  6
 23 42  1  0
 25 43  1  0
 25 44  1  0
 27 45  1  0
 28 46  1  0
 29 47  1  0
 30 48  1  0
 31 49  1  0
M  CHG  3   4  -1  15  -1  21  -1
M  END
>  <UniqueID>  (1) 
1

>  <SMILES>  (1) 
Nc1c([N-]C(=O)c2ccccc2)c(=O)[n-]c(=O)n(C(=O)[N-][C@@H](C=O)Cc2ccccc2)c1=O

>  <Energy>  (1) 
102.39699734488669

>  <Genealogy>  (1) 
Nc1c([N-]C(=O)c2ccccc2)c(=O)[n-]c(=O)n(C(=O)[N-]C(C=O)Cc2ccccc2)c1=O (protonated)
Nc1c([N-]C(=O)c2ccccc2)c(=O)[n-]c(=O)n(C(=O)[N-][C@@H](C=O)Cc2ccccc2)c1=O (chirality)
Nc1c([N-]C(=O)c2ccccc2)c(=O)[n-]c(=O)n(C(=O)[N-][C@@H](C=O)Cc2ccccc2)c1=O (3D coordinates assigned)
Nc1c([N-]C(=O)c2ccccc2)c(=O)[n-]c(=O)n(C(=O)[N-][C@@H](C=O)Cc2ccccc2)c1=O (optimized conformer: 102.39699734488669 kcal/mol)

>  <smiles>  (1) 
Nc1c(NC(=O)c2ccccc2)c(=O)[nH]c(=O)n(C(=O)NC(C=O)Cc2ccccc2)c1=O

>  <score_type>  (1) 
oracle

>  <origin>  (1) 
adg

>  <m_score__min__energy>  (1) 
-12.51

>  <m_primary>  (1) 
energy

$$$$
1:0
     RDKit          3D

 27 28  0  0  0  0  0  0  0  0999 V2000
   56.3460   29.8210   44.9620 O   0  0  0  0  0  0  0  0  0  0  0  0
   57.3960   29.5000   45.5780 C   0  0  0  0  0  0  0  0  0  0  0  0
   57.9490   28.1090   45.4100 C   0  0  0  0  0  0  0  0  0  0  0  0
   57.8560   27.1490   46.9640 S   0  0  0  0  0  0  0  0  0  0  0  0
   56.4840   26.1180   46.4360 C   0  0  0  0  0  0  0  0  0  0  0  0
   55.3240   26.6990   46.0330 N   0  0  0  0  0  0  0  0  0  0  0  0
   54.2890   25.9630   45.6280 N   0  0  0  0  0  0  0  0  0  0  0  0
   54.3670   24.6080   45.6040 C   0  0  0  0  0  0  0  0  0  0  0  0
   53.3810   23.9250   45.2240 O   0  0  0  0  0  0  0  0  0  0  0  0
   55.5130   23.9940   45.9910 N   0  0  0  0  0  0  0  0  0  0  0  0
   56.5800   24.7230   46.4040 C   0  0  0  0  0  0  0  0  0  0  0  0
   57.6400   24.1390   46.7520 O   0  0  0  0  0  0  0  0  0  0  0  0
   57.9140   30.4050   46.5620 N   0  0  0  0  0  0  0  0  0  0  0  0
   58.5240   31.6790   46.3130 C   0  0  0  0  0  0  0  0  0  0  0  0
   59.8340   31.9520   46.7360 C   0  0  0  0  0  0  0  0  0  0  0  0
   60.4270   33.1860   46.4480 C   0  0  0  0  0  0  0  0  0  0  0  0
   62.2070   33.5530   47.0340 Br  0  0  0  0  0  0  0  0  0  0  0  0
   59.7210   34.1470   45.7190 C   0  0  0  0  0  0  0  0  0  0  0  0
   58.4280   33.8700   45.2670 C   0  0  0  0  0  0  0  0  0  0  0  0
   57.8290   32.6340   45.5550 C   0  0  0  0  0  0  0  0  0  0  0  0
   56.5430   32.3540   45.0950 O   0  0  0  0  0  0  0  0  0  0  0  0
   57.3701   27.5870   44.6338 H   0  0  0  0  0  0  0  0  0  0  0  0
   59.0076   28.1941   45.1235 H   0  0  0  0  0  0  0  0  0  0  0  0
   60.3975   31.1918   47.2969 H   0  0  0  0  0  0  0  0  0  0  0  0
   60.1830   35.1212   45.5011 H   0  0  0  0  0  0  0  0  0  0  0  0
   57.8780   34.6231   44.6836 H   0  0  0  0  0  0  0  0  0  0  0  0
   56.1200   31.4420   45.2270 H   0  0  0  0  0  0  0  0  0  0  0  0
  1  2  2  0
  2  3  1  0
  3  4  1  0
  4  5  1  0
  5  6  2  0
  6  7  1  0
  7  8  1  0
  8  9  2  0
  8 10  1  0
 10 11  1  0
 11 12  2  0
  2 13  1  0
 13 14  1  0
 14 15  2  0
 15 16  1  0
 16 17  1  0
 16 18  2  0
 18 19  1  0
 19 20  2  0
 20 21  1  0
 11  5  1  0
 20 14  1  0
  3 22  1  0
  3 23  1  0
 15 24  1  0
 18 25  1  0
 19 26  1  0
 21 27  1  0
M  CHG  3   7  -1  10  -1  13  -1
M  END
>  <UniqueID>  (2) 
2

>  <SMILES>  (2) 
O=C(CSc1n[n-]c(=O)[n-]c1=O)[N-]c1cc(Br)ccc1O

>  <Energy>  (2) 
30.678156520024807

>  <Genealogy>  (2) 
O=C(CSc1n[n-]c(=O)[n-]c1=O)[N-]c1cc(Br)ccc1O (protonated)
O=C(CSc1n[n-]c(=O)[n-]c1=O)[N-]c1cc(Br)ccc1O (3D coordinates assigned)
O=C(CSc1n[n-]c(=O)[n-]c1=O)[N-]c1cc(Br)ccc1O (optimized conformer: 30.678156520024807 kcal/mol)

>  <smiles>  (2) 
O=C(CSc1n[nH]c(=O)[nH]c1=O)Nc1cc(Br)ccc1O

>  <score_type>  (2) 
oracle

>  <origin>  (2) 
adg

>  <m_score__min__energy>  (2) 
-12.960000000000001

>  <m_primary>  (2) 
energy

$$$$
2:0
     RDKit          3D

 63 66  0  0  1  0  0  0  0  0999 V2000
   57.1330   25.4050   47.5320 O   0  0  0  0  0  0  0  0  0  0  0  0
   57.2580   26.2090   46.5750 C   0  0  0  0  0  0  0  0  0  0  0  0
   56.6390   25.9850   45.2880 N   0  0  0  0  0  0  0  0  0  0  0  0
   55.8410   24.8370   44.9920 C   0  0  0  0  0  0  0  0  0  0  0  0
   56.5690   23.6710   44.4970 C   0  0  0  0  0  0  0  0  0  0  0  0
   57.6990   23.1240   45.0570 C   0  0  0  0  0  0  0  0  0  0  0  0
   58.3020   22.0030   44.4990 C   0  0  0  0  0  0  0  0  0  0  0  0
   57.7780   21.4260   43.3780 C   0  0  0  0  0  0  0  0  0  0  0  0
   56.6430   21.9460   42.7830 C   0  0  0  0  0  0  0  0  0  0  0  0
   56.0730   23.0430   43.3490 C   0  0  0  0  0  0  0  0  0  0  0  0
   58.0450   27.4230   46.7080 C   0  0  0  0  0  0  0  0  0  0  0  0
   59.0650   27.4170   47.6290 C   0  0  0  0  0  0  0  0  0  0  0  0
   59.8670   28.4720   47.8660 N   0  0  0  0  0  0  0  0  0  0  0  0
   59.6390   29.5830   47.1470 C   0  0  0  0  0  0  0  0  0  0  0  0
   60.3920   30.5900   47.3540 N   0  0  0  0  0  0  0  0  0  0  0  0
   56.8580   29.3940   43.9370 C   0  0  0  0  0  0  0  0  0  0  0  0
   60.7390   32.7390   48.5310 C   0  0  0  0  0  0  0  0  0  0  0  0
   61.9910   33.0520   47.7620 C   0  0  0  0  0  0  0  0  0  0  0  0
   63.1950   32.4030   47.8080 C   0  0  0  0  0  0  0  0  0  0  0  0
   64.0310   33.0220   46.9520 N   0  0  0  0  0  0  0  0  0  0  0  0
   63.3540   34.0450   46.3800 C   0  0  0  0  0  0  0  0  0  0  0  0
   62.0990   34.0640   46.8780 N   0  0  0  0  0  0  0  0  0  0  0  0
   58.6400   29.6130   46.2340 N   0  0  0  0  0  0  0  0  0  0  0  0
   57.8420   28.5720   45.9940 C   0  0  0  0  0  0  0  0  0  0  0  0
   56.9370   28.6340   45.1190 N   0  0  0  0  0  0  0  0  0  0  0  0
   60.6550   31.2300   48.6170 C   0  0  0  0  0  0  0  0  0  0  0  0
   56.4590   30.8300   44.1090 C   0  0  0  0  0  0  0  0  0  0  0  0
   57.5960   31.7220   43.6930 C   0  0  0  0  0  0  0  0  0  0  0  0
   57.9910   32.7400   44.6800 C   0  0  0  0  0  0  0  0  0  0  0  0
   57.4380   32.6630   45.9400 C   0  0  0  0  0  0  0  0  0  0  0  0
   57.7520   33.5520   46.9490 C   0  0  0  0  0  0  0  0  0  0  0  0
   58.6490   34.5570   46.7010 C   0  0  0  0  0  0  0  0  0  0  0  0
   59.2290   34.6660   45.4400 C   0  0  0  0  0  0  0  0  0  0  0  0
   58.8910   33.7590   44.4570 C   0  0  0  0  0  0  0  0  0  0  0  0
   56.7750   26.6910   44.5310 H   0  0  0  0  0  0  0  0  0  0  0  0
   55.3173   24.5425   45.9134 H   0  0  0  0  0  0  0  0  0  0  0  0
   55.1694   25.1406   44.1754 H   0  0  0  0  0  0  0  0  0  0  0  0
   58.1321   23.5800   45.9595 H   0  0  0  0  0  0  0  0  0  0  0  0
   59.2050   21.5789   44.9624 H   0  0  0  0  0  0  0  0  0  0  0  0
   58.2631   20.5392   42.9440 H   0  0  0  0  0  0  0  0  0  0  0  0
   56.2147   21.4864   41.8800 H   0  0  0  0  0  0  0  0  0  0  0  0
   55.1709   23.4605   42.8779 H   0  0  0  0  0  0  0  0  0  0  0  0
   59.2361   26.4964   48.2063 H   0  0  0  0  0  0  0  0  0  0  0  0
   60.6230   28.4270   48.5700 H   0  0  0  0  0  0  0  0  0  0  0  0
   57.8472   29.3739   43.4562 H   0  0  0  0  0  0  0  0  0  0  0  0
   56.0596   28.9320   43.3378 H   0  0  0  0  0  0  0  0  0  0  0  0
   59.8597   33.1394   48.0052 H   0  0  0  0  0  0  0  0  0  0  0  0
   60.7620   33.1944   49.5320 H   0  0  0  0  0  0  0  0  0  0  0  0
   63.4371   31.5308   48.4330 H   0  0  0  0  0  0  0  0  0  0  0  0
   65.0200   32.7320   46.7870 H   0  0  0  0  0  0  0  0  0  0  0  0
   63.7588   34.7444   45.6337 H   0  0  0  0  0  0  0  0  0  0  0  0
   58.4860   30.5030   45.6880 H   0  0  0  0  0  0  0  0  0  0  0  0
   59.8460   30.9668   49.3144 H   0  0  0  0  0  0  0  0  0  0  0  0
   61.6378   30.8732   48.9587 H   0  0  0  0  0  0  0  0  0  0  0  0
   55.5790   31.0429   43.4843 H   0  0  0  0  0  0  0  0  0  0  0  0
   56.2146   31.0176   45.1650 H   0  0  0  0  0  0  0  0  0  0  0  0
   58.4708   31.0861   43.4922 H   0  0  0  0  0  0  0  0  0  0  0  0
   57.2412   32.2753   42.8110 H   0  0  0  0  0  0  0  0  0  0  0  0
   56.7164   31.8599   46.1507 H   0  0  0  0  0  0  0  0  0  0  0  0
   57.2869   33.4541   47.9410 H   0  0  0  0  0  0  0  0  0  0  0  0
   58.9096   35.2739   47.4936 H   0  0  0  0  0  0  0  0  0  0  0  0
   59.9509   35.4688   45.2292 H   0  0  0  0  0  0  0  0  0  0  0  0
   59.3547   33.8523   43.4639 H   0  0  0  0  0  0  0  0  0  0  0  0
  1  2  2  0
  2  3  1  0
  3  4  1  0
  4  5  1  0
  5  6  2  0
  6  7  1  0
  7  8  2  0
  8  9  1  0
  9 10  2  0
  2 11  1  0
 11 12  2  0
 12 13  1  0
 13 14  1  0
 14 15  2  0
 15 16  1  0
 16 17  1  0
 17 18  1  0
 18 19  2  0
 19 20  1  0
 20 21  1  0
 21 22  2  0
 14 23  1  0
 23 24  1  0
 24 25  2  0
 25 26  1  0
 26 27  1  0
 27 28  1  0
 28 29  1  0
 29 30  2  0
 30 31  1  0
 31 32  2  0
 32 33  1  0
 33 34  2  0
 10  5  1  0
 24 11  1  0
 34 29  1  0
 22 18  1  0
  3 35  1  0
  4 36  1  0
  4 37  1  0
  6 38  1  0
  7 39  1  0
  8 40  1  0
  9 41  1  0
 10 42  1  0
 12 43  1  0
 13 44  1  0
 16 45  1  0
 16 46  1  0
 17 47  1  0
 17 48  1  0
 19 49  1  0
 20 50  1  0
 21 51  1  0
 23 52  1  0
 26 53  1  0
 26 54  1  0
 27 55  1  0
 27 56  1  0
 28 57  1  0
 28 58  1  0
 30 59  1  0
 31 60  1  0
 32 61  1  0
 33 62  1  0
 34 63  1  0
M  END
>  <smiles>  (3) 
O=C(NCc1ccccc1)c1c[nH]c(=NCCc2c[nH]cn2)[nH]c1=NCCCc1ccccc1

>  <score_type>  (3) 
oracle

>  <origin>  (3) 
adg

>  <m_score__min__energy>  (3) 
-10.609999999999999

>  <m_primary>  (3) 
energy

$$$$
3:0
     RDKit          3D

 43 45  0  0  0  0  0  0  0  0999 V2000
   60.4360   34.2800   48.1260 C   0  0  0  0  0  0  0  0  0  0  0  0
   60.8940   33.2220   47.1090 C   0  0  0  0  0  0  0  0  0  0  0  0
   62.0920   33.7160   46.2830 C   0  0  0  0  0  0  0  0  0  0  0  0
   59.7580   32.8470   46.1900 C   0  0  0  0  0  0  0  0  0  0  0  0
   59.1030   33.6720   45.4970 O   0  0  0  0  0  0  0  0  0  0  0  0
   59.4780   31.4500   46.2150 N   0  0  0  0  0  0  0  0  0  0  0  0
   58.2980   30.8030   45.7100 C   0  0  0  0  0  0  0  0  0  0  0  0
   57.3510   31.5340   44.9810 C   0  0  0  0  0  0  0  0  0  0  0  0
   56.2040   30.9090   44.4930 C   0  0  0  0  0  0  0  0  0  0  0  0
   55.9820   29.5480   44.7270 C   0  0  0  0  0  0  0  0  0  0  0  0
   54.8230   28.9700   44.2200 O   0  0  0  0  0  0  0  0  0  0  0  0
   56.9210   28.7900   45.4650 C   0  0  0  0  0  0  0  0  0  0  0  0
   56.7260   27.3420   45.7480 C   0  0  0  0  0  0  0  0  0  0  0  0
   55.4270   26.8060   45.9960 N   0  0  0  0  0  0  0  0  0  0  0  0
   57.7170   26.5630   45.7720 O   0  0  0  0  0  0  0  0  0  0  0  0
   58.0770   29.4370   45.9480 C   0  0  0  0  0  0  0  0  0  0  0  0
   60.3960   30.9310   47.1610 C   0  0  0  0  0  0  0  0  0  0  0  0
   60.5520   29.6980   47.3660 O   0  0  0  0  0  0  0  0  0  0  0  0
   61.2000   31.9420   47.7710 N   0  0  0  0  0  0  0  0  0  0  0  0
   62.1310   31.7380   48.8540 C   0  0  0  0  0  0  0  0  0  0  0  0
   63.3620   31.6550   48.6110 O   0  0  0  0  0  0  0  0  0  0  0  0
   61.6880   31.5880   50.2100 N   0  0  0  0  0  0  0  0  0  0  0  0
   60.3930   31.9370   50.7230 C   0  0  0  0  0  0  0  0  0  0  0  0
   60.2320   33.1640   51.3810 C   0  0  0  0  0  0  0  0  0  0  0  0
   58.9870   33.5230   51.9080 C   0  0  0  0  0  0  0  0  0  0  0  0
   57.8930   32.6660   51.7680 C   0  0  0  0  0  0  0  0  0  0  0  0
   58.0380   31.4530   51.0890 C   0  0  0  0  0  0  0  0  0  0  0  0
   59.2810   31.0920   50.5580 C   0  0  0  0  0  0  0  0  0  0  0  0
   60.5993   33.9027   49.1463 H   0  0  0  0  0  0  0  0  0  0  0  0
   61.0147   35.2039   47.9797 H   0  0  0  0  0  0  0  0  0  0  0  0
   59.3663   34.4903   47.9797 H   0  0  0  0  0  0  0  0  0  0  0  0
   62.8932   34.0464   46.9605 H   0  0  0  0  0  0  0  0  0  0  0  0
   62.4626   32.8973   45.6486 H   0  0  0  0  0  0  0  0  0  0  0  0
   61.7778   34.5579   45.6486 H   0  0  0  0  0  0  0  0  0  0  0  0
   57.5129   32.6056   44.7928 H   0  0  0  0  0  0  0  0  0  0  0  0
   55.4677   31.4911   43.9193 H   0  0  0  0  0  0  0  0  0  0  0  0
   54.7400   26.6820   45.2200 H   0  0  0  0  0  0  0  0  0  0  0  0
   58.8187   28.8615   46.5213 H   0  0  0  0  0  0  0  0  0  0  0  0
   61.0880   33.8473   51.4834 H   0  0  0  0  0  0  0  0  0  0  0  0
   58.8693   34.4821   52.4337 H   0  0  0  0  0  0  0  0  0  0  0  0
   56.9174   32.9457   52.1921 H   0  0  0  0  0  0  0  0  0  0  0  0
   57.1744   30.7818   50.9720 H   0  0  0  0  0  0  0  0  0  0  0  0
   59.3888   30.1444   50.0098 H   0  0  0  0  0  0  0  0  0  0  0  0
  1  2  1  0
  2  3  1  0
  2  4  1  0
  4  5  2  0
  4  6  1  0
  6  7  1  0
  7  8  2  0
  8  9  1  0
  9 10  2  0
 10 11  1  0
 10 12  1  0
 12 13  1  0
 13 14  1  0
 13 15  2  0
 12 16  2  0
  6 17  1  0
 17 18  2  0
 17 19  1  0
 19 20  1  0
 20 21  2  0
 20 22  1  0
 22 23  1  0
 23 24  2  0
 24 25  1  0
 25 26  2  0
 26 27  1  0
 27 28  2  0
 19  2  1  0
 28 23  1  0
 16  7  1  0
  1 29  1  0
  1 30  1  0
  1 31  1  0
  3 32  1  0
  3 33  1  0
  3 34  1  0
  8 35  1  0
  9 36  1  0
 14 37  1  0
 16 38  1  0
 24 39  1  0
 25 40  1  0
 26 41  1  0
 27 42  1  0
 28 43  1  0
M  CHG  3  11  -1  14  -1  22  -1
M  END
>  <UniqueID>  (4) 
3

>  <SMILES>  (4) 
CC1(C)C(=O)N(c2ccc([O-])c(C([NH-])=O)c2)C(=O)N1C(=O)[N-]c1ccccc1

>  <Energy>  (4) 
74.09628409794249

>  <Genealogy>  (4) 
CC1(C)C(=O)N(c2ccc([O-])c(C([NH-])=O)c2)C(=O)N1C(=O)[N-]c1ccccc1 (protonated)
CC1(C)C(=O)N(c2ccc([O-])c(C([NH-])=O)c2)C(=O)N1C(=O)[N-]c1ccccc1 (3D coordinates assigned)
CC1(C)C(=O)N(c2ccc([O-])c(C([NH-])=O)c2)C(=O)N1C(=O)[N-]c1ccccc1 (nonaromatic ring conformer: 74.09628409794249 kcal/mol)

>  <smiles>  (4) 
CC1(C)C(=O)N(c2ccc(O)c(C(N)=O)c2)C(=O)N1C(=O)Nc1ccccc1

>  <score_type>  (4) 
oracle

>  <origin>  (4) 
adg

>  <m_score__min__energy>  (4) 
-14.92

>  <m_primary>  (4) 
energy

$$$$
4:0
     RDKit          3D

 35 36  0  0  0  0  0  0  0  0999 V2000
   57.4580   32.3420   40.8600 C   0  0  0  0  0  0  0  0  0  0  0  0
   57.3830   31.6930   42.2060 C   0  0  0  0  0  0  0  0  0  0  0  0
   56.6640   30.5240   42.3620 C   0  0  0  0  0  0  0  0  0  0  0  0
   56.6110   29.9470   43.6120 C   0  0  0  0  0  0  0  0  0  0  0  0
   57.2480   30.4890   44.7180 C   0  0  0  0  0  0  0  0  0  0  0  0
   57.1690   29.8710   45.9660 O   0  0  0  0  0  0  0  0  0  0  0  0
   58.3880   29.4540   46.5530 C   0  0  0  0  0  0  0  0  0  0  0  0
   58.4320   27.9520   46.7520 C   0  0  0  0  0  0  0  0  0  0  0  0
   57.1820   27.3050   46.3980 N   0  0  0  0  0  0  0  0  0  0  0  0
   57.1690   25.8780   46.4400 C   0  0  0  0  0  0  0  0  0  0  0  0
   58.2640   25.3330   46.7850 O   0  0  0  0  0  0  0  0  0  0  0  0
   55.9840   25.1100   46.1110 C   0  0  0  0  0  0  0  0  0  0  0  0
   56.1010   23.7290   46.0970 C   0  0  0  0  0  0  0  0  0  0  0  0
   54.9590   23.0220   45.7790 C   0  0  0  0  0  0  0  0  0  0  0  0
   53.7660   23.6470   45.4910 C   0  0  0  0  0  0  0  0  0  0  0  0
   52.7320   22.9600   45.2030 O   0  0  0  0  0  0  0  0  0  0  0  0
   53.7060   25.0100   45.5200 N   0  0  0  0  0  0  0  0  0  0  0  0
   54.7920   25.6620   45.8210 N   0  0  0  0  0  0  0  0  0  0  0  0
   57.9520   31.6560   44.5050 C   0  0  0  0  0  0  0  0  0  0  0  0
   58.0350   32.2720   43.2760 C   0  0  0  0  0  0  0  0  0  0  0  0
   57.5835   33.4279   40.9830 H   0  0  0  0  0  0  0  0  0  0  0  0
   58.3150   31.9345   40.3037 H   0  0  0  0  0  0  0  0  0  0  0  0
   56.5306   32.1407   40.3037 H   0  0  0  0  0  0  0  0  0  0  0  0
   56.1455   30.0642   41.5077 H   0  0  0  0  0  0  0  0  0  0  0  0
   56.0386   29.0161   43.7381 H   0  0  0  0  0  0  0  0  0  0  0  0
   59.2192   29.7507   45.8965 H   0  0  0  0  0  0  0  0  0  0  0  0
   58.4736   29.9323   47.5398 H   0  0  0  0  0  0  0  0  0  0  0  0
   59.2338   27.5368   46.1238 H   0  0  0  0  0  0  0  0  0  0  0  0
   58.6141   27.7628   47.8202 H   0  0  0  0  0  0  0  0  0  0  0  0
   56.3210   27.8100   46.1240 H   0  0  0  0  0  0  0  0  0  0  0  0
   57.0511   23.2245   46.3266 H   0  0  0  0  0  0  0  0  0  0  0  0
   55.0032   21.9232   45.7548 H   0  0  0  0  0  0  0  0  0  0  0  0
   52.8110   25.5050   45.3040 H   0  0  0  0  0  0  0  0  0  0  0  0
   58.4721   32.1167   45.3578 H   0  0  0  0  0  0  0  0  0  0  0  0
   58.6071   33.2030   43.1501 H   0  0  0  0  0  0  0  0  0  0  0  0
  1  2  1  0
  2  3  2  0
  3  4  1  0
  4  5  2  0
  5  6  1  0
  6  7  1  0
  7  8  1  0
  8  9  1  0
  9 10  1  0
 10 11  2  0
 10 12  1  0
 12 13  1  0
 13 14  2  0
 14 15  1  0
 15 16  2  0
 15 17  1  0
 17 18  1  0
  5 19  1  0
 19 20  2  0
 20  2  1  0
 18 12  2  0
  1 21  1  0
  1 22  1  0
  1 23  1  0
  3 24  1  0
  4 25  1  0
  7 26  1  0
  7 27  1  0
  8 28  1  0
  8 29  1  0
  9 30  1  0
 13 31  1  0
 14 32  1  0
 17 33  1  0
 19 34  1  0
 20 35  1  0
M  END
>  <smiles>  (5) 
Cc1ccc(OCCNC(=O)c2ccc(=O)[nH]n2)cc1

>  <score_type>  (5) 
oracle

>  <origin>  (5) 
adg

>  <m_score__min__energy>  (5) 
-7.5199999999999996

>  <m_primary>  (5) 
energy

$$$$
5:0
     RDKit          3D

 55 58  0  0  0  0  0  0  0  0999 V2000
   59.1660   24.8640   45.9320 C   0  0  0  0  0  0  0  0  0  0  0  0
   60.2290   25.8040   46.0550 O   0  0  0  0  0  0  0  0  0  0  0  0
   60.1120   27.0520   46.6840 C   0  0  0  0  0  0  0  0  0  0  0  0
   59.9400   27.1850   48.0750 C   0  0  0  0  0  0  0  0  0  0  0  0
   59.8330   28.4530   48.6530 C   0  0  0  0  0  0  0  0  0  0  0  0
   59.9080   29.6050   47.8560 C   0  0  0  0  0  0  0  0  0  0  0  0
   59.7970   30.9110   48.4460 N   0  0  0  0  0  0  0  0  0  0  0  0
   58.6900   31.3730   49.0140 N   0  0  0  0  0  0  0  0  0  0  0  0
   58.8670   32.6690   49.3350 C   0  0  0  0  0  0  0  0  0  0  0  0
   60.1460   33.0290   48.9570 C   0  0  0  0  0  0  0  0  0  0  0  0
   60.7090   31.9080   48.4110 C   0  0  0  0  0  0  0  0  0  0  0  0
   61.9370   31.9850   47.5480 C   0  0  0  0  0  0  0  0  0  0  0  0
   62.9150   33.1530   47.9620 C   0  0  0  0  0  0  0  0  0  0  0  0
   64.1480   32.5400   48.6630 C   0  0  0  0  0  0  0  0  0  0  0  0
   63.4100   33.8650   46.6830 C   0  0  0  0  0  0  0  0  0  0  0  0
   62.2800   34.2220   48.9380 C   0  0  0  0  0  0  0  0  0  0  0  0
   60.7540   34.3840   48.8260 C   0  0  1  0  0  0  0  0  0  0  0  0
   60.4080   34.9530   47.5270 N   0  0  0  0  0  0  0  0  0  0  0  0
   59.8590   34.1900   46.4500 C   0  0  0  0  0  0  0  0  0  0  0  0
   60.6150   33.5580   45.6630 O   0  0  0  0  0  0  0  0  0  0  0  0
   58.3850   34.2180   46.2120 C   0  0  0  0  0  0  0  0  0  0  0  0
   57.9950   33.0270   45.3790 C   0  0  0  0  0  0  0  0  0  0  0  0
   58.0200   33.0960   43.9780 C   0  0  0  0  0  0  0  0  0  0  0  0
   57.7310   31.9620   43.2180 C   0  0  0  0  0  0  0  0  0  0  0  0
   57.4250   30.7650   43.8660 C   0  0  0  0  0  0  0  0  0  0  0  0
   57.4160   30.7080   45.2250 N   0  0  0  0  0  0  0  0  0  0  0  0
   57.6950   31.7990   45.9880 C   0  0  0  0  0  0  0  0  0  0  0  0
   60.0530   29.4720   46.4690 C   0  0  0  0  0  0  0  0  0  0  0  0
   60.1640   28.2040   45.8900 C   0  0  0  0  0  0  0  0  0  0  0  0
   58.8253   24.5627   46.9336 H   0  0  0  0  0  0  0  0  0  0  0  0
   58.3309   25.3245   45.3837 H   0  0  0  0  0  0  0  0  0  0  0  0
   59.5209   23.9789   45.3837 H   0  0  0  0  0  0  0  0  0  0  0  0
   59.8896   26.2876   48.7092 H   0  0  0  0  0  0  0  0  0  0  0  0
   59.6891   28.5482   49.7394 H   0  0  0  0  0  0  0  0  0  0  0  0
   57.8090   30.8280   49.1410 H   0  0  0  0  0  0  0  0  0  0  0  0
   58.1246   33.3247   49.8134 H   0  0  0  0  0  0  0  0  0  0  0  0
   62.4791   31.0310   47.6253 H   0  0  0  0  0  0  0  0  0  0  0  0
   61.6022   32.1875   46.5199 H   0  0  0  0  0  0  0  0  0  0  0  0
   64.0193   32.6040   49.7536 H   0  0  0  0  0  0  0  0  0  0  0  0
   64.2514   31.4856   48.3672 H   0  0  0  0  0  0  0  0  0  0  0  0
   65.0511   33.0940   48.3672 H   0  0  0  0  0  0  0  0  0  0  0  0
   64.0174   34.7388   46.9615 H   0  0  0  0  0  0  0  0  0  0  0  0
   64.0199   33.1689   46.0885 H   0  0  0  0  0  0  0  0  0  0  0  0
   62.5450   34.1942   46.0885 H   0  0  0  0  0  0  0  0  0  0  0  0
   62.5160   33.9236   49.9701 H   0  0  0  0  0  0  0  0  0  0  0  0
   62.7125   35.1922   48.6523 H   0  0  0  0  0  0  0  0  0  0  0  0
   60.3801   35.0568   49.6118 H   0  0  0  0  0  0  0  0  0  0  0  0
   57.8561   34.1818   47.1758 H   0  0  0  0  0  0  0  0  0  0  0  0
   58.1138   35.1435   45.6829 H   0  0  0  0  0  0  0  0  0  0  0  0
   58.2675   34.0443   43.4785 H   0  0  0  0  0  0  0  0  0  0  0  0
   57.7443   32.0113   42.1192 H   0  0  0  0  0  0  0  0  0  0  0  0
   57.1907   29.8660   43.2771 H   0  0  0  0  0  0  0  0  0  0  0  0
   57.6854   31.7184   47.0850 H   0  0  0  0  0  0  0  0  0  0  0  0
   60.0797   30.3689   45.8327 H   0  0  0  0  0  0  0  0  0  0  0  0
   60.2933   28.1108   44.8016 H   0  0  0  0  0  0  0  0  0  0  0  0
  1  2  1  0
  2  3  1  0
  3  4  2  0
  4  5  1  0
  5  6  2  0
  6  7  1  0
  7  8  1  0
  8  9  2  0
  9 10  1  0
 10 11  2  0
 11 12  1  0
 12 13  1  0
 13 14  1  0
 13 15  1  0
 13 16  1  0
 16 17  1  0
 17 18  1  0
 18 19  1  0
 19 20  2  0
 19 21  1  0
 21 22  1  0
 22 23  2  0
 23 24  1  0
 24 25  2  0
 25 26  1  0
 26 27  2  0
  6 28  1  0
 28 29  2  0
 29  3  1  0
 11  7  1  0
 27 22  1  0
 17 10  1  0
  1 30  1  0
  1 31  1  0
  1 32  1  0
  4 33  1  0
  5 34  1  0
  8 35  1  0
  9 36  1  0
 12 37  1  0
 12 38  1  0
 14 39  1  0
 14 40  1  0
 14 41  1  0
 15 42  1  0
 15 43  1  0
 15 44  1  0
 16 45  1  0
 16 46  1  0
 17 47  1  1
 21 48  1  0
 21 49  1  0
 23 50  1  0
 24 51  1  0
 25 52  1  0
 27 53  1  0
 28 54  1  0
 29 55  1  0
M  CHG  2   8   1  18  -1
M  END
>  <UniqueID>  (6) 
4

>  <SMILES>  (6) 
COc1ccc(-n2[nH+]cc3c2CC(C)(C)C[C@H]3[N-]C(=O)Cc2cccnc2)cc1

>  <Energy>  (6) 
95.24200365911544

>  <Genealogy>  (6) 
COc1ccc(-n2[nH+]cc3c2CC(C)(C)CC3[N-]C(=O)Cc2cccnc2)cc1 (protonated)
COc1ccc(-n2[nH+]cc3c2CC(C)(C)C[C@H]3[N-]C(=O)Cc2cccnc2)cc1 (chirality)
COc1ccc(-n2[nH+]cc3c2CC(C)(C)C[C@H]3[N-]C(=O)Cc2cccnc2)cc1 (3D coordinates assigned)
COc1ccc(-n2[nH+]cc3c2CC(C)(C)C[C@H]3[N-]C(=O)Cc2cccnc2)cc1 (nonaromatic ring conformer: 95.24200365911544 kcal/mol)

>  <smiles>  (6) 
COc1ccc(-n2ncc3c2CC(C)(C)CC3NC(=O)Cc2cccnc2)cc1

>  <score_type>  (6) 
oracle

>  <origin>  (6) 
adg

>  <m_score__min__energy>  (6) 
-9.0700000000000003

>  <m_primary>  (6) 
energy

$$$$
6:0
     RDKit          3D

 51 52  0  0  0  0  0  0  0  0999 V2000
   63.7260   33.1460   47.1770 C   0  0  0  0  0  0  0  0  0  0  0  0
   62.3910   33.8110   46.8490 C   0  0  0  0  0  0  0  0  0  0  0  0
   61.2150   32.8240   46.9160 C   0  0  0  0  0  0  0  0  0  0  0  0
   59.9630   33.4940   47.3090 N   0  0  0  0  0  0  0  0  0  0  0  0
   59.6660   34.8320   46.7750 C   0  0  0  0  0  0  0  0  0  0  0  0
   59.3340   34.7560   45.2790 C   0  0  0  0  0  0  0  0  0  0  0  0
   57.9230   34.2190   45.0540 C   0  0  0  0  0  0  0  0  0  0  0  0
   58.9470   32.7960   48.0660 C   0  0  0  0  0  0  0  0  0  0  0  0
   57.7300   33.0280   47.8320 O   0  0  0  0  0  0  0  0  0  0  0  0
   59.2900   31.8170   49.1570 C   0  0  0  0  0  0  0  0  0  0  0  0
   58.9060   30.4940   48.7960 O   0  0  0  0  0  0  0  0  0  0  0  0
   59.4300   29.8100   47.6920 C   0  0  0  0  0  0  0  0  0  0  0  0
   60.6230   29.4010   47.7100 O   0  0  0  0  0  0  0  0  0  0  0  0
   58.5660   29.5470   46.5210 C   0  0  0  0  0  0  0  0  0  0  0  0
   57.9760   30.6050   45.8100 C   0  0  0  0  0  0  0  0  0  0  0  0
   57.2130   30.3490   44.6680 C   0  0  0  0  0  0  0  0  0  0  0  0
   57.0410   29.0390   44.2170 C   0  0  0  0  0  0  0  0  0  0  0  0
   57.6200   27.9650   44.9140 C   0  0  0  0  0  0  0  0  0  0  0  0
   57.4710   26.6110   44.4350 N   0  0  0  0  0  0  0  0  0  0  0  0
   57.2340   25.7150   45.5470 C   0  0  0  0  0  0  0  0  0  0  0  0
   56.0600   25.7990   46.3200 C   0  0  0  0  0  0  0  0  0  0  0  0
   55.0630   26.7150   46.0040 O   0  0  0  0  0  0  0  0  0  0  0  0
   55.8910   24.9800   47.3900 N   0  0  0  0  0  0  0  0  0  0  0  0
   56.8360   24.0700   47.7350 C   0  0  0  0  0  0  0  0  0  0  0  0
   56.6570   23.3260   48.7330 O   0  0  0  0  0  0  0  0  0  0  0  0
   57.9730   23.9600   47.0020 N   0  0  0  0  0  0  0  0  0  0  0  0
   58.1930   24.7540   45.9230 C   0  0  0  0  0  0  0  0  0  0  0  0
   59.2600   24.6220   45.2670 O   0  0  0  0  0  0  0  0  0  0  0  0
   58.3660   28.2290   46.0770 C   0  0  0  0  0  0  0  0  0  0  0  0
   63.8472   33.0856   48.2686 H   0  0  0  0  0  0  0  0  0  0  0  0
   63.7458   32.1327   46.7493 H   0  0  0  0  0  0  0  0  0  0  0  0
   64.5467   33.7406   46.7493 H   0  0  0  0  0  0  0  0  0  0  0  0
   62.2134   34.6222   47.5704 H   0  0  0  0  0  0  0  0  0  0  0  0
   62.4502   34.1941   45.8196 H   0  0  0  0  0  0  0  0  0  0  0  0
   61.0780   32.3649   45.9258 H   0  0  0  0  0  0  0  0  0  0  0  0
   61.4492   32.0626   47.6745 H   0  0  0  0  0  0  0  0  0  0  0  0
   58.8055   35.2538   47.3151 H   0  0  0  0  0  0  0  0  0  0  0  0
   60.5509   35.4715   46.9094 H   0  0  0  0  0  0  0  0  0  0  0  0
   59.4084   35.7632   44.8432 H   0  0  0  0  0  0  0  0  0  0  0  0
   60.0483   34.0718   44.7977 H   0  0  0  0  0  0  0  0  0  0  0  0
   57.4412   34.0356   46.0257 H   0  0  0  0  0  0  0  0  0  0  0  0
   57.3360   34.9566   44.4871 H   0  0  0  0  0  0  0  0  0  0  0  0
   57.9750   33.2778   44.4871 H   0  0  0  0  0  0  0  0  0  0  0  0
   60.3755   31.8409   49.3333 H   0  0  0  0  0  0  0  0  0  0  0  0
   58.7447   32.1034   50.0684 H   0  0  0  0  0  0  0  0  0  0  0  0
   58.1154   31.6404   46.1541 H   0  0  0  0  0  0  0  0  0  0  0  0
   56.7462   31.1823   44.1224 H   0  0  0  0  0  0  0  0  0  0  0  0
   56.4486   28.8464   43.3104 H   0  0  0  0  0  0  0  0  0  0  0  0
   56.6830   26.5810   43.7490 H   0  0  0  0  0  0  0  0  0  0  0  0
   58.3270   26.2980   43.9200 H   0  0  0  0  0  0  0  0  0  0  0  0
   58.7983   27.3929   46.6462 H   0  0  0  0  0  0  0  0  0  0  0  0
  1  2  1  0
  2  3  1  0
  3  4  1  0
  4  5  1  0
  5  6  1  0
  6  7  1  0
  4  8  1  0
  8  9  2  0
  8 10  1  0
 10 11  1  0
 11 12  1  0
 12 13  2  0
 12 14  1  0
 14 15  2  0
 15 16  1  0
 16 17  2  0
 17 18  1  0
 18 19  1  0
 19 20  1  0
 20 21  2  0
 21 22  1  0
 21 23  1  0
 23 24  1  0
 24 25  2  0
 24 26  1  0
 26 27  1  0
 27 28  2  0
 18 29  2  0
 29 14  1  0
 27 20  1  0
  1 30  1  0
  1 31  1  0
  1 32  1  0
  2 33  1  0
  2 34  1  0
  3 35  1  0
  3 36  1  0
  5 37  1  0
  5 38  1  0
  6 39  1  0
  6 40  1  0
  7 41  1  0
  7 42  1  0
  7 43  1  0
 10 44  1  0
 10 45  1  0
 15 46  1  0
 16 47  1  0
 17 48  1  0
 19 49  1  0
 19 50  1  0
 29 51  1  0
M  CHG  4  19   1  22  -1  23  -1  26  -1
M  END
>  <UniqueID>  (7) 
5

>  <SMILES>  (7) 
CCCN(CCC)C(=O)COC(=O)c1cccc([NH2+]c2c([O-])[n-]c(=O)[n-]c2=O)c1

>  <Energy>  (7) 
45.125435670893594

>  <Genealogy>  (7) 
CCCN(CCC)C(=O)COC(=O)c1cccc([NH2+]c2c([O-])[n-]c(=O)[n-]c2=O)c1 (protonated)
CCCN(CCC)C(=O)COC(=O)c1cccc([NH2+]c2c([O-])[n-]c(=O)[n-]c2=O)c1 (3D coordinates assigned)
CCCN(CCC)C(=O)COC(=O)c1cccc([NH2+]c2c([O-])[n-]c(=O)[n-]c2=O)c1 (optimized conformer: 45.125435670893594 kcal/mol)

>  <smiles>  (7) 
CCCN(CCC)C(=O)COC(=O)c1cccc(Nc2c(O)[nH]c(=O)[nH]c2=O)c1

>  <score_type>  (7) 
oracle

>  <origin>  (7) 
adg

>  <m_score__min__energy>  (7) 
-14.359999999999999

>  <m_primary>  (7) 
energy

$$$$
7:0
     RDKit          3D

 44 48  0  0  1  0  0  0  0  0999 V2000
   58.4080   34.5030   46.3050 O   0  0  0  0  0  0  0  0  0  0  0  0
   58.0850   33.5430   45.5550 C   0  0  0  0  0  0  0  0  0  0  0  0
   57.1440   33.5070   44.5860 N   0  0  0  0  0  0  0  0  0  0  0  0
   57.1060   32.3080   44.0210 N   0  0  0  0  0  0  0  0  0  0  0  0
   58.0330   31.5450   44.6250 C   0  0  0  0  0  0  0  0  0  0  0  0
   58.6670   32.2930   45.5940 C   0  0  0  0  0  0  0  0  0  0  0  0
   59.7310   31.6230   46.3770 C   0  0  1  0  0  0  0  0  0  0  0  0
   60.1450   32.3750   47.5540 C   0  0  0  0  0  0  0  0  0  0  0  0
   59.4180   32.8680   48.6210 C   0  0  0  0  0  0  0  0  0  0  0  0
   60.2600   33.5100   49.4810 N   0  0  0  0  0  0  0  0  0  0  0  0
   61.5170   33.4480   49.0050 C   0  0  0  0  0  0  0  0  0  0  0  0
   62.7550   33.9160   49.4500 C   0  0  0  0  0  0  0  0  0  0  0  0
   63.9060   33.6920   48.7240 C   0  0  0  0  0  0  0  0  0  0  0  0
   63.8530   32.9940   47.5340 C   0  0  0  0  0  0  0  0  0  0  0  0
   62.6220   32.5390   47.1080 C   0  0  0  0  0  0  0  0  0  0  0  0
   61.4550   32.7500   47.8170 C   0  0  0  0  0  0  0  0  0  0  0  0
   59.1580   30.2760   46.7440 C   0  0  0  0  0  0  0  0  0  0  0  0
   58.5500   29.5310   45.8180 C   0  0  0  0  0  0  0  0  0  0  0  0
   57.9960   28.2310   46.1640 C   0  0  0  0  0  0  0  0  0  0  0  0
   58.7110   27.2890   46.8690 C   0  0  0  0  0  0  0  0  0  0  0  0
   58.1700   26.0390   47.1980 C   0  0  0  0  0  0  0  0  0  0  0  0
   56.8960   25.7010   46.8250 C   0  0  0  0  0  0  0  0  0  0  0  0
   56.3400   24.4690   47.1390 O   0  0  0  0  0  0  0  0  0  0  0  0
   56.1690   26.6310   46.1200 C   0  0  0  0  0  0  0  0  0  0  0  0
   54.8810   26.2770   45.7500 O   0  0  0  0  0  0  0  0  0  0  0  0
   56.7130   27.8800   45.7940 C   0  0  0  0  0  0  0  0  0  0  0  0
   58.4880   30.1170   44.4560 C   0  0  0  0  0  0  0  0  0  0  0  0
   56.5510   34.3320   44.3480 H   0  0  0  0  0  0  0  0  0  0  0  0
   56.4730   32.0050   43.2470 H   0  0  0  0  0  0  0  0  0  0  0  0
   60.6538   31.5369   45.7845 H   0  0  0  0  0  0  0  0  0  0  0  0
   58.3316   32.7597   48.7555 H   0  0  0  0  0  0  0  0  0  0  0  0
   59.9620   33.9820   50.3860 H   0  0  0  0  0  0  0  0  0  0  0  0
   62.8133   34.4733   50.3966 H   0  0  0  0  0  0  0  0  0  0  0  0
   64.8699   34.0709   49.0945 H   0  0  0  0  0  0  0  0  0  0  0  0
   64.7627   32.8067   46.9446 H   0  0  0  0  0  0  0  0  0  0  0  0
   62.5672   31.9828   46.1606 H   0  0  0  0  0  0  0  0  0  0  0  0
   59.2415   29.9072   47.7769 H   0  0  0  0  0  0  0  0  0  0  0  0
   59.7383   27.5249   47.1836 H   0  0  0  0  0  0  0  0  0  0  0  0
   58.7777   25.3180   47.7645 H   0  0  0  0  0  0  0  0  0  0  0  0
   55.4280   24.1960   46.8120 H   0  0  0  0  0  0  0  0  0  0  0  0
   54.0890   26.2780   46.3790 H   0  0  0  0  0  0  0  0  0  0  0  0
   56.1024   28.5995   45.2288 H   0  0  0  0  0  0  0  0  0  0  0  0
   59.4812   30.0879   43.9841 H   0  0  0  0  0  0  0  0  0  0  0  0
   57.7979   29.5531   43.8112 H   0  0  0  0  0  0  0  0  0  0  0  0
  1  2  2  0
  2  3  1  0
  3  4  1  0
  4  5  1  0
  5  6  2  0
  6  7  1  0
  7  8  1  0
  8  9  2  0
  9 10  1  0
 10 11  1  0
 11 12  2  0
 12 13  1  0
 13 14  2  0
 14 15  1  0
 15 16  2  0
  7 17  1  0
 17 18  2  0
 18 19  1  0
 19 20  2  0
 20 21  1  0
 21 22  2  0
 22 23  1  0
 22 24  1  0
 24 25  1  0
 24 26  2  0
 18 27  1  0
  6  2  1  0
 16  8  1  0
 26 19  1  0
 27  5  1  0
 16 11  1  0
  3 28  1  0
  4 29  1  0
  7 30  1  6
  9 31  1  0
 10 32  1  0
 12 33  1  0
 13 34  1  0
 14 35  1  0
 15 36  1  0
 17 37  1  0
 20 38  1  0
 21 39  1  0
 23 40  1  0
 25 41  1  0
 26 42  1  0
 27 43  1  0
 27 44  1  0
M  END
>  <smiles>  (8) 
O=c1[nH][nH]c2c1C(c1c[nH]c3ccccc13)C=C(c1ccc(O)c(O)c1)C2

>  <score_type>  (8) 
oracle

>  <origin>  (8) 
adg

>  <m_score__min__energy>  (8) 
-9.3100000000000005

>  <m_primary>  (8) 
energy

$$$$
8:0
     RDKit          3D

 38 40  0  0  0  0  0  0  0  0999 V2000
   58.8830   29.8210   47.8610 C   0  0  0  0  0  0  0  0  0  0  0  0
   58.2920   29.7160   46.6590 C   0  0  0  0  0  0  0  0  0  0  0  0
   57.6920   28.5700   46.1290 C   0  0  0  0  0  0  0  0  0  0  0  0
   57.5300   27.3750   46.7310 C   0  0  0  0  0  0  0  0  0  0  0  0
   57.1740   26.1370   46.0020 C   0  0  0  0  0  0  0  0  0  0  0  0
   55.8430   25.8390   45.6620 C   0  0  0  0  0  0  0  0  0  0  0  0
   54.8130   26.7110   46.0010 O   0  0  0  0  0  0  0  0  0  0  0  0
   55.5540   24.7010   44.9760 N   0  0  0  0  0  0  0  0  0  0  0  0
   56.5440   23.8500   44.5890 C   0  0  0  0  0  0  0  0  0  0  0  0
   56.1850   22.4860   43.7590 S   0  0  0  0  0  0  0  0  0  0  0  0
   57.8380   24.1340   44.8810 N   0  0  0  0  0  0  0  0  0  0  0  0
   58.1740   25.2550   45.5690 C   0  0  0  0  0  0  0  0  0  0  0  0
   59.3870   25.4860   45.8190 O   0  0  0  0  0  0  0  0  0  0  0  0
   57.2540   28.9110   44.8560 C   0  0  0  0  0  0  0  0  0  0  0  0
   57.5960   30.2350   44.6620 C   0  0  0  0  0  0  0  0  0  0  0  0
   57.3120   31.0140   43.4140 C   0  0  0  0  0  0  0  0  0  0  0  0
   58.2320   30.7220   45.7520 N   0  0  0  0  0  0  0  0  0  0  0  0
   58.7210   32.0670   45.9070 C   0  0  0  0  0  0  0  0  0  0  0  0
   57.8900   33.1570   45.6160 C   0  0  0  0  0  0  0  0  0  0  0  0
   58.3590   34.4610   45.7770 C   0  0  0  0  0  0  0  0  0  0  0  0
   59.6610   34.6880   46.2320 C   0  0  0  0  0  0  0  0  0  0  0  0
   60.5090   33.6050   46.5320 C   0  0  0  0  0  0  0  0  0  0  0  0
   61.8880   33.8390   47.0150 C   0  0  0  0  0  0  0  0  0  0  0  0
   62.8570   33.8430   46.2110 O   0  0  0  0  0  0  0  0  0  0  0  0
   62.1320   34.0590   48.3660 O   0  0  0  0  0  0  0  0  0  0  0  0
   60.0260   32.2950   46.3680 C   0  0  0  0  0  0  0  0  0  0  0  0
   59.3244   30.7783   48.1751 H   0  0  0  0  0  0  0  0  0  0  0  0
   58.9254   28.9496   48.5310 H   0  0  0  0  0  0  0  0  0  0  0  0
   57.6696   27.3168   47.8206 H   0  0  0  0  0  0  0  0  0  0  0  0
   54.5590   24.4900   44.7360 H   0  0  0  0  0  0  0  0  0  0  0  0
   56.7357   28.2546   44.1415 H   0  0  0  0  0  0  0  0  0  0  0  0
   56.9466   32.0162   43.6825 H   0  0  0  0  0  0  0  0  0  0  0  0
   58.2343   31.1065   42.8216 H   0  0  0  0  0  0  0  0  0  0  0  0
   56.5466   30.4912   42.8216 H   0  0  0  0  0  0  0  0  0  0  0  0
   56.8640   32.9839   45.2593 H   0  0  0  0  0  0  0  0  0  0  0  0
   57.7025   35.3127   45.5453 H   0  0  0  0  0  0  0  0  0  0  0  0
   60.0251   35.7185   46.3563 H   0  0  0  0  0  0  0  0  0  0  0  0
   60.6777   31.4406   46.6034 H   0  0  0  0  0  0  0  0  0  0  0  0
  1  2  2  0
  2  3  1  0
  3  4  2  3
  4  5  1  0
  5  6  2  0
  6  7  1  0
  6  8  1  0
  8  9  1  0
  9 10  2  0
  9 11  1  0
 11 12  1  0
 12 13  2  0
  3 14  1  0
 14 15  2  0
 15 16  1  0
 15 17  1  0
 17 18  1  0
 18 19  2  0
 19 20  1  0
 20 21  2  0
 21 22  1  0
 22 23  1  0
 23 24  2  0
 23 25  1  0
 22 26  2  0
 17  2  1  0
 26 18  1  0
 12  5  1  0
  1 27  1  0
  1 28  1  0
  4 29  1  0
  8 30  1  0
 14 31  1  0
 16 32  1  0
 16 33  1  0
 16 34  1  0
 19 35  1  0
 20 36  1  0
 21 37  1  0
 26 38  1  0
M  CHG  3   7  -1  11  -1  25  -1
M  END
>  <UniqueID>  (9) 
6

>  <SMILES>  (9) 
C=c1c(=Cc2c([O-])[nH]c(=S)[n-]c2=O)cc(C)n1-c1cccc(C(=O)[O-])c1

>  <Energy>  (9) 
85.77372455330482

>  <Genealogy>  (9) 
C=c1c(=Cc2c([O-])[nH]c(=S)[n-]c2=O)cc(C)n1-c1cccc(C(=O)[O-])c1 (protonated)
C=c1c(=Cc2c([O-])[nH]c(=S)[n-]c2=O)cc(C)n1-c1cccc(C(=O)[O-])c1 (3D coordinates assigned)
C=c1c(=Cc2c([O-])[nH]c(=S)[n-]c2=O)cc(C)n1-c1cccc(C(=O)[O-])c1 (optimized conformer: 85.77372455330482 kcal/mol)

>  <smiles>  (9) 
C=c1c(=Cc2c(O)[nH]c(=S)[nH]c2=O)cc(C)n1-c1cccc(C(=O)O)c1

>  <score_type>  (9) 
oracle

>  <origin>  (9) 
adg

>  <m_score__min__energy>  (9) 
-14.699999999999999

>  <m_primary>  (9) 
energy

$$$$
9:0
     RDKit          3D

 47 49  0  0  0  0  0  0  0  0999 V2000
   59.3400   31.6230   46.2690 C   0  0  0  0  0  0  0  0  0  0  0  0
   58.5190   30.6690   45.4500 C   0  0  0  0  0  0  0  0  0  0  0  0
   57.2070   30.9680   45.2320 N   0  0  0  0  0  0  0  0  0  0  0  0
   56.3900   30.1780   44.4880 C   0  0  0  0  0  0  0  0  0  0  0  0
   55.1510   30.5140   44.3290 N   0  0  0  0  0  0  0  0  0  0  0  0
   56.9000   29.0120   43.9070 C   0  0  0  0  0  0  0  0  0  0  0  0
   58.2410   28.6780   44.1010 C   0  0  0  0  0  0  0  0  0  0  0  0
   59.0730   29.4980   44.8800 C   0  0  0  0  0  0  0  0  0  0  0  0
   60.5250   29.1220   45.0590 C   0  0  0  0  0  0  0  0  0  0  0  0
   60.6350   27.7910   45.6470 N   0  0  0  0  0  0  0  0  0  0  0  0
   60.0210   27.4590   46.9010 C   0  0  0  0  0  0  0  0  0  0  0  0
   59.6700   28.3700   47.7000 O   0  0  0  0  0  0  0  0  0  0  0  0
   59.7550   26.0270   47.2550 C   0  0  0  0  0  0  0  0  0  0  0  0
   58.5080   25.5770   46.6130 N   0  0  0  0  0  0  0  0  0  0  0  0
   58.5130   24.3820   45.9460 C   0  0  0  0  0  0  0  0  0  0  0  0
   57.3720   23.9250   45.2870 C   0  0  0  0  0  0  0  0  0  0  0  0
   56.1950   24.6850   45.3290 C   0  0  0  0  0  0  0  0  0  0  0  0
   54.9990   24.2610   44.6570 N   0  0  0  0  0  0  0  0  0  0  0  0
   53.9730   23.4150   45.1920 C   0  0  0  0  0  0  0  0  0  0  0  0
   52.8810   23.3370   44.5770 O   0  0  0  0  0  0  0  0  0  0  0  0
   54.1390   22.7000   46.4770 C   0  0  0  0  0  0  0  0  0  0  0  0
   53.6670   21.3870   46.6380 C   0  0  0  0  0  0  0  0  0  0  0  0
   53.8370   20.7410   47.8630 C   0  0  0  0  0  0  0  0  0  0  0  0
   54.4630   21.4040   48.9190 C   0  0  0  0  0  0  0  0  0  0  0  0
   54.9110   22.7120   48.7300 C   0  0  0  0  0  0  0  0  0  0  0  0
   54.7380   23.3250   47.5290 N   0  0  0  0  0  0  0  0  0  0  0  0
   56.2100   25.9220   45.9830 C   0  0  0  0  0  0  0  0  0  0  0  0
   55.0640   26.7140   45.9990 O   0  0  0  0  0  0  0  0  0  0  0  0
   57.3780   26.3600   46.6220 C   0  0  0  0  0  0  0  0  0  0  0  0
   57.3760   27.4830   47.1990 O   0  0  0  0  0  0  0  0  0  0  0  0
   59.1715   31.4272   47.3382 H   0  0  0  0  0  0  0  0  0  0  0  0
   60.4057   31.4845   46.0344 H   0  0  0  0  0  0  0  0  0  0  0  0
   59.0442   32.6562   46.0344 H   0  0  0  0  0  0  0  0  0  0  0  0
   54.4220   30.3380   45.0580 H   0  0  0  0  0  0  0  0  0  0  0  0
   56.2491   28.3636   43.3021 H   0  0  0  0  0  0  0  0  0  0  0  0
   58.6490   27.7661   43.6405 H   0  0  0  0  0  0  0  0  0  0  0  0
   61.0249   29.1282   44.0791 H   0  0  0  0  0  0  0  0  0  0  0  0
   61.0029   29.8504   45.7306 H   0  0  0  0  0  0  0  0  0  0  0  0
   61.1270   27.0450   45.1060 H   0  0  0  0  0  0  0  0  0  0  0  0
   60.5911   25.4033   46.9058 H   0  0  0  0  0  0  0  0  0  0  0  0
   59.6547   25.9356   48.3466 H   0  0  0  0  0  0  0  0  0  0  0  0
   59.4294   23.7737   45.9294 H   0  0  0  0  0  0  0  0  0  0  0  0
   57.3956   22.9727   44.7369 H   0  0  0  0  0  0  0  0  0  0  0  0
   53.1670   20.8718   45.8046 H   0  0  0  0  0  0  0  0  0  0  0  0
   53.4778   19.7099   47.9961 H   0  0  0  0  0  0  0  0  0  0  0  0
   54.6016   20.9022   49.8880 H   0  0  0  0  0  0  0  0  0  0  0  0
   55.4048   23.2478   49.5540 H   0  0  0  0  0  0  0  0  0  0  0  0
  1  2  1  0
  2  3  1  0
  3  4  1  0
  4  5  2  3
  4  6  1  0
  6  7  2  0
  7  8  1  0
  8  9  1  0
  9 10  1  0
 10 11  1  0
 11 12  2  0
 11 13  1  0
 13 14  1  0
 14 15  1  0
 15 16  2  0
 16 17  1  0
 17 18  1  0
 18 19  1  0
 19 20  2  0
 19 21  1  0
 21 22  2  0
 22 23  1  0
 23 24  2  0
 24 25  1  0
 25 26  2  0
 17 27  2  0
 27 28  1  0
 27 29  1  0
 29 30  2  0
  8  2  2  0
 29 14  1  0
 26 21  1  0
  1 31  1  0
  1 32  1  0
  1 33  1  0
  5 34  1  0
  6 35  1  0
  7 36  1  0
  9 37  1  0
  9 38  1  0
 10 39  1  0
 13 40  1  0
 13 41  1  0
 15 42  1  0
 16 43  1  0
 22 44  1  0
 23 45  1  0
 24 46  1  0
 25 47  1  0
M  CHG  3   3  -1  18  -1  28  -1
M  END
>  <UniqueID>  (10) 
7

>  <SMILES>  (10) 
Cc1[n-]c(=N)ccc1CNC(=O)Cn1ccc([N-]C(=O)c2ccccn2)c([O-])c1=O

>  <Energy>  (10) 
55.59922384486653

>  <Genealogy>  (10) 
Cc1[n-]c(=N)ccc1CNC(=O)Cn1ccc([N-]C(=O)c2ccccn2)c([O-])c1=O (protonated)
Cc1[n-]c(=N)ccc1CNC(=O)Cn1ccc([N-]C(=O)c2ccccn2)c([O-])c1=O (3D coordinates assigned)
Cc1[n-]c(=N)ccc1CNC(=O)Cn1ccc([N-]C(=O)c2ccccn2)c([O-])c1=O (optimized conformer: 55.59922384486653 kcal/mol)

>  <smiles>  (10) 
Cc1[nH]c(=N)ccc1CNC(=O)Cn1ccc(NC(=O)c2ccccn2)c(O)c1=O

>  <score_type>  (10) 
oracle

>  <origin>  (10) 
adg

>  <m_score__min__energy>  (10) 
-14.92

>  <m_primary>  (10) 
energy

$$$$
10:0
     RDKit          3D

 69 72  0  0  1  0  0  0  0  0999 V2000
   56.6420   29.5370   42.9680 C   0  0  0  0  0  0  0  0  0  0  0  0
   56.5880   30.2090   44.2970 C   0  0  2  0  0  0  0  0  0  0  0  0
   57.2690   31.5630   44.3510 C   0  0  0  0  0  0  0  0  0  0  0  0
   57.1850   32.1310   45.6180 O   0  0  0  0  0  0  0  0  0  0  0  0
   56.8000   29.3890   45.4450 N   0  0  0  0  0  0  0  0  0  0  0  0
   57.6080   28.4380   45.6170 C   0  0  0  0  0  0  0  0  0  0  0  0
   57.2830   27.2220   45.1540 N   0  0  0  0  0  0  0  0  0  0  0  0
   58.1120   26.2040   45.3120 C   0  0  0  0  0  0  0  0  0  0  0  0
   57.8320   25.0210   44.9050 N   0  0  0  0  0  0  0  0  0  0  0  0
   56.5590   24.4600   45.1430 C   0  0  0  0  0  0  0  0  0  0  0  0
   56.0160   24.2740   46.3910 C   0  0  0  0  0  0  0  0  0  0  0  0
   54.7730   23.6830   46.5750 C   0  0  0  0  0  0  0  0  0  0  0  0
   54.0130   23.2480   45.5070 C   0  0  0  0  0  0  0  0  0  0  0  0
   52.7410   22.6330   45.6840 N   0  0  0  0  0  0  0  0  0  0  0  0
   52.6630   21.3480   46.3940 C   0  0  0  0  0  0  0  0  0  0  0  0
   51.4460   21.3330   47.2590 C   0  0  0  0  0  0  0  0  0  0  0  0
   50.9230   22.6290   47.5180 N   0  0  0  0  0  0  0  0  0  0  0  0
   49.9010   22.5730   48.5280 C   0  0  0  0  0  0  0  0  0  0  0  0
   50.3670   22.9070   49.9020 C   0  0  0  0  0  0  0  0  0  0  0  0
   51.7810   22.9560   49.8430 O   0  0  0  0  0  0  0  0  0  0  0  0
   50.4800   23.3170   46.3180 C   0  0  0  0  0  0  0  0  0  0  0  0
   51.5000   23.1770   45.2090 C   0  0  0  0  0  0  0  0  0  0  0  0
   54.5590   23.4360   44.2430 C   0  0  0  0  0  0  0  0  0  0  0  0
   55.8120   24.0320   44.0660 C   0  0  0  0  0  0  0  0  0  0  0  0
   59.3270   26.3180   45.9430 N   0  0  0  0  0  0  0  0  0  0  0  0
   59.6730   27.5240   46.4140 C   0  0  0  0  0  0  0  0  0  0  0  0
   58.8050   28.6110   46.2540 C   0  0  0  0  0  0  0  0  0  0  0  0
   59.2810   29.8700   46.8150 C   0  0  0  0  0  0  0  0  0  0  0  0
   58.4490   30.5220   47.4990 O   0  0  0  0  0  0  0  0  0  0  0  0
   60.5910   30.3390   46.6050 N   0  0  0  0  0  0  0  0  0  0  0  0
   61.1480   31.5400   47.0800 C   0  0  0  0  0  0  0  0  0  0  0  0
   62.4750   31.5220   47.5150 C   0  0  0  0  0  0  0  0  0  0  0  0
   63.0950   32.6710   47.9770 C   0  0  0  0  0  0  0  0  0  0  0  0
   62.4460   33.8920   48.0350 C   0  0  0  0  0  0  0  0  0  0  0  0
   61.1360   33.9110   47.6060 C   0  0  0  0  0  0  0  0  0  0  0  0
   60.5150   32.7540   47.1420 C   0  0  0  0  0  0  0  0  0  0  0  0
   56.7294   28.4497   43.1102 H   0  0  0  0  0  0  0  0  0  0  0  0
   55.7230   29.7607   42.4064 H   0  0  0  0  0  0  0  0  0  0  0  0
   57.5135   29.9046   42.4064 H   0  0  0  0  0  0  0  0  0  0  0  0
   55.5148   30.4340   44.3842 H   0  0  0  0  0  0  0  0  0  0  0  0
   58.3293   31.4396   44.0852 H   0  0  0  0  0  0  0  0  0  0  0  0
   56.7599   32.2315   43.6411 H   0  0  0  0  0  0  0  0  0  0  0  0
   57.0220   31.3720   46.2360 H   0  0  0  0  0  0  0  0  0  0  0  0
   56.3830   27.1140   44.6790 H   0  0  0  0  0  0  0  0  0  0  0  0
   56.5842   24.6039   47.2732 H   0  0  0  0  0  0  0  0  0  0  0  0
   54.3841   23.5582   47.5964 H   0  0  0  0  0  0  0  0  0  0  0  0
   52.6042   20.5279   45.6633 H   0  0  0  0  0  0  0  0  0  0  0  0
   53.5593   21.2178   47.0182 H   0  0  0  0  0  0  0  0  0  0  0  0
   50.6691   20.7370   46.7579 H   0  0  0  0  0  0  0  0  0  0  0  0
   51.7403   20.9015   48.2271 H   0  0  0  0  0  0  0  0  0  0  0  0
   49.1077   23.2836   48.2528 H   0  0  0  0  0  0  0  0  0  0  0  0
   49.5539   21.5298   48.5621 H   0  0  0  0  0  0  0  0  0  0  0  0
   49.9651   23.8824   50.2136 H   0  0  0  0  0  0  0  0  0  0  0  0
   50.0237   22.1597   50.6325 H   0  0  0  0  0  0  0  0  0  0  0  0
   52.0310   22.9200   48.8740 H   0  0  0  0  0  0  0  0  0  0  0  0
   49.5250   22.8838   45.9860 H   0  0  0  0  0  0  0  0  0  0  0  0
   50.3567   24.3852   46.5500 H   0  0  0  0  0  0  0  0  0  0  0  0
   51.0932   22.5099   44.4347 H   0  0  0  0  0  0  0  0  0  0  0  0
   51.7017   24.1800   44.8048 H   0  0  0  0  0  0  0  0  0  0  0  0
   53.9916   23.1079   43.3596 H   0  0  0  0  0  0  0  0  0  0  0  0
   56.2089   24.1617   43.0483 H   0  0  0  0  0  0  0  0  0  0  0  0
   59.9560   25.4950   46.0490 H   0  0  0  0  0  0  0  0  0  0  0  0
   60.6374   27.6597   46.9255 H   0  0  0  0  0  0  0  0  0  0  0  0
   61.2130   29.7010   46.0210 H   0  0  0  0  0  0  0  0  0  0  0  0
   63.0383   30.5775   47.4902 H   0  0  0  0  0  0  0  0  0  0  0  0
   64.1416   32.6109   48.3101 H   0  0  0  0  0  0  0  0  0  0  0  0
   62.9484   34.7985   48.4036 H   0  0  0  0  0  0  0  0  0  0  0  0
   60.5722   34.8552   47.6306 H   0  0  0  0  0  0  0  0  0  0  0  0
   59.4682   32.8175   46.8100 H   0  0  0  0  0  0  0  0  0  0  0  0
  1  2  1  0
  2  3  1  0
  3  4  1  0
  2  5  1  0
  5  6  2  0
  6  7  1  0
  7  8  1  0
  8  9  2  0
  9 10  1  0
 10 11  2  0
 11 12  1  0
 12 13  2  0
 13 14  1  0
 14 15  1  0
 15 16  1  0
 16 17  1  0
 17 18  1  0
 18 19  1  0
 19 20  1  0
 17 21  1  0
 21 22  1  0
 13 23  1  0
 23 24  2  0
  8 25  1  0
 25 26  1  0
 26 27  2  0
 27 28  1  0
 28 29  2  0
 28 30  1  0
 30 31  1  0
 31 32  2  0
 32 33  1  0
 33 34  2  0
 34 35  1  0
 35 36  2  0
 27  6  1  0
 36 31  1  0
 24 10  1  0
 22 14  1  0
  1 37  1  0
  1 38  1  0
  1 39  1  0
  2 40  1  1
  3 41  1  0
  3 42  1  0
  4 43  1  0
  7 44  1  0
 11 45  1  0
 12 46  1  0
 15 47  1  0
 15 48  1  0
 16 49  1  0
 16 50  1  0
 18 51  1  0
 18 52  1  0
 19 53  1  0
 19 54  1  0
 20 55  1  0
 21 56  1  0
 21 57  1  0
 22 58  1  0
 22 59  1  0
 23 60  1  0
 24 61  1  0
 25 62  1  0
 26 63  1  0
 30 64  1  0
 32 65  1  0
 33 66  1  0
 34 67  1  0
 35 68  1  0
 36 69  1  0
M  END
>  <smiles>  (11) 
CC(CO)N=c1[nH]c(=Nc2ccc(N3CCN(CCO)CC3)cc2)[nH]cc1C(=O)Nc1ccccc1

>  <score_type>  (11) 
oracle

>  <origin>  (11) 
adg

>  <m_score__min__energy>  (11) 
-8.1600000000000001

>  <m_primary>  (11) 
energy

$$$$
11:0
     RDKit          3D

 77 81  0  0  0  0  0  0  0  0999 V2000
   61.3610   26.7250   48.8970 H   0  0  0  0  0  0  0  0  0  0  0  0
   61.1370   26.4600   47.9430 O   0  0  0  0  0  0  0  0  0  0  0  0
   60.0460   27.0130   47.2650 C   0  0  0  0  0  0  0  0  0  0  0  0
   59.6840   26.5200   46.0070 C   0  0  0  0  0  0  0  0  0  0  0  0
   60.2534   25.6911   45.5613 H   0  0  0  0  0  0  0  0  0  0  0  0
   58.6050   27.0720   45.3120 C   0  0  0  0  0  0  0  0  0  0  0  0
   58.3382   26.6778   44.3203 H   0  0  0  0  0  0  0  0  0  0  0  0
   57.8580   28.1230   45.8640 C   0  0  0  0  0  0  0  0  0  0  0  0
   56.7420   28.6870   45.0590 C   0  0  0  0  0  0  0  0  0  0  0  0
   55.7437   28.7043   45.5206 H   0  0  0  0  0  0  0  0  0  0  0  0
   56.8550   29.1760   43.8160 C   0  0  0  0  0  0  0  0  0  0  0  0
   57.0638   28.4834   42.9874 H   0  0  0  0  0  0  0  0  0  0  0  0
   56.7080   30.6130   43.5260 C   0  0  0  0  0  0  0  0  0  0  0  0
   56.6590   30.9920   42.3240 O   0  0  0  0  0  0  0  0  0  0  0  0
   56.6420   31.5720   44.5890 N   0  0  0  0  0  0  0  0  0  0  0  0
   57.7190   31.9180   45.4680 C   0  0  0  0  0  0  0  0  0  0  0  0
   58.8910   31.1450   45.5460 C   0  0  0  0  0  0  0  0  0  0  0  0
   58.9623   30.2005   44.9867 H   0  0  0  0  0  0  0  0  0  0  0  0
   59.9670   31.5720   46.3320 C   0  0  0  0  0  0  0  0  0  0  0  0
   60.8780   30.9587   46.3945 H   0  0  0  0  0  0  0  0  0  0  0  0
   59.8870   32.7810   47.0410 C   0  0  0  0  0  0  0  0  0  0  0  0
   61.0080   33.2440   47.8070 N   0  0  0  0  0  0  0  0  0  0  0  0
   62.3020   33.4650   47.1530 C   0  0  0  0  0  0  0  0  0  0  0  0
   62.3632   32.8425   46.2482 H   0  0  0  0  0  0  0  0  0  0  0  0
   62.3920   34.5276   46.8834 H   0  0  0  0  0  0  0  0  0  0  0  0
   63.4490   33.0890   48.1080 C   0  0  0  0  0  0  0  0  0  0  0  0
   63.5526   31.9939   48.1174 H   0  0  0  0  0  0  0  0  0  0  0  0
   64.3595   33.5844   47.7398 H   0  0  0  0  0  0  0  0  0  0  0  0
   63.2220   33.5540   49.4970 N   0  0  0  0  0  0  0  0  0  0  0  0
   64.4360   33.8400   50.3010 C   0  0  0  0  0  0  0  0  0  0  0  0
   65.2522   34.0705   49.6005 H   0  0  0  0  0  0  0  0  0  0  0  0
   64.1513   34.6682   50.9666 H   0  0  0  0  0  0  0  0  0  0  0  0
   64.9370   32.7030   51.2540 C   0  0  1  0  0  0  0  0  0  0  0  0
   65.3430   33.3050   52.4640 O   0  0  0  0  0  0  0  0  0  0  0  0
   66.2640   33.0060   52.6780 H   0  0  0  0  0  0  0  0  0  0  0  0
   63.7440   31.7560   51.5100 C   0  0  0  0  0  0  0  0  0  0  0  0
   63.7920   30.4030   51.0950 C   0  0  0  0  0  0  0  0  0  0  0  0
   64.6804   30.0293   50.5647 H   0  0  0  0  0  0  0  0  0  0  0  0
   62.7260   29.5360   51.3500 C   0  0  0  0  0  0  0  0  0  0  0  0
   62.7734   28.4936   51.0019 H   0  0  0  0  0  0  0  0  0  0  0  0
   61.6030   29.9850   52.0430 C   0  0  0  0  0  0  0  0  0  0  0  0
   60.7643   29.2998   52.2355 H   0  0  0  0  0  0  0  0  0  0  0  0
   61.5440   31.3040   52.4920 C   0  0  0  0  0  0  0  0  0  0  0  0
   60.6603   31.6557   53.0447 H   0  0  0  0  0  0  0  0  0  0  0  0
   62.6050   32.1820   52.2420 C   0  0  0  0  0  0  0  0  0  0  0  0
   62.5100   33.4450   52.7250 F   0  0  0  0  0  0  0  0  0  0  0  0
   66.1540   31.9360   50.6410 C   0  0  0  0  0  0  0  0  0  0  0  0
   66.1491   30.9045   51.0231 H   0  0  0  0  0  0  0  0  0  0  0  0
   66.0483   31.9635   49.5464 H   0  0  0  0  0  0  0  0  0  0  0  0
   67.4390   32.5560   50.9790 N   0  0  0  0  0  0  0  0  0  0  0  0
   68.1790   32.2330   52.0250 N   0  0  0  0  0  0  0  0  0  0  0  0
   69.2520   33.0460   51.9700 C   0  0  0  0  0  0  0  0  0  0  0  0
   70.0715   33.0247   52.7035 H   0  0  0  0  0  0  0  0  0  0  0  0
   69.2120   33.8910   50.9150 N   0  0  0  0  0  0  0  0  0  0  0  0
   68.0540   33.5530   50.3200 C   0  0  0  0  0  0  0  0  0  0  0  0
   67.6608   34.0312   49.4108 H   0  0  0  0  0  0  0  0  0  0  0  0
   62.0370   34.3990   49.7310 C   0  0  0  0  0  0  0  0  0  0  0  0
   61.9167   34.5692   50.8111 H   0  0  0  0  0  0  0  0  0  0  0  0
   62.1697   35.3629   49.2178 H   0  0  0  0  0  0  0  0  0  0  0  0
   60.7900   33.7010   49.1840 C   0  0  0  0  0  0  0  0  0  0  0  0
   60.5551   32.8337   49.8185 H   0  0  0  0  0  0  0  0  0  0  0  0
   59.9554   34.4175   49.1888 H   0  0  0  0  0  0  0  0  0  0  0  0
   58.7250   33.5640   46.9460 C   0  0  0  0  0  0  0  0  0  0  0  0
   58.6605   34.5178   47.4902 H   0  0  0  0  0  0  0  0  0  0  0  0
   57.6500   33.1350   46.1620 C   0  0  0  0  0  0  0  0  0  0  0  0
   56.7447   33.7555   46.0889 H   0  0  0  0  0  0  0  0  0  0  0  0
   58.2200   28.6120   47.1360 C   0  0  0  0  0  0  0  0  0  0  0  0
   57.6457   29.4367   47.5833 H   0  0  0  0  0  0  0  0  0  0  0  0
   59.3060   28.0600   47.8420 C   0  0  0  0  0  0  0  0  0  0  0  0
   59.6600   28.6180   49.2000 C   0  0  0  0  0  0  0  0  0  0  0  0
   60.6609   28.2617   49.4851 H   0  0  0  0  0  0  0  0  0  0  0  0
   58.9070   28.2762   49.9254 H   0  0  0  0  0  0  0  0  0  0  0  0
   59.6600   30.1200   49.1840 C   0  0  0  0  0  0  0  0  0  0  0  0
   60.3339   30.6477   48.4930 H   0  0  0  0  0  0  0  0  0  0  0  0
   58.8610   30.8350   49.9890 C   0  0  0  0  0  0  0  0  0  0  0  0
   58.8851   31.9341   49.9527 H   0  0  0  0  0  0  0  0  0  0  0  0
   58.1813   30.3225   50.6857 H   0  0  0  0  0  0  0  0  0  0  0  0
  1  2  1  0
  2  3  1  0
  3  4  2  0
  4  5  1  0
  4  6  1  0
  6  7  1  0
  6  8  2  0
  8  9  1  0
  9 10  1  0
  9 11  2  0
 11 12  1  0
 11 13  1  0
 13 14  2  0
 13 15  1  0
 15 16  1  0
 16 17  2  0
 17 18  1  0
 17 19  1  0
 19 20  1  0
 19 21  2  0
 21 22  1  0
 22 23  1  0
 23 24  1  0
 23 25  1  0
 23 26  1  0
 26 27  1  0
 26 28  1  0
 26 29  1  0
 29 30  1  0
 30 31  1  0
 30 32  1  0
 30 33  1  0
 33 34  1  1
 34 35  1  0
 33 36  1  0
 36 37  2  0
 37 38  1  0
 37 39  1  0
 39 40  1  0
 39 41  2  0
 41 42  1  0
 41 43  1  0
 43 44  1  0
 43 45  2  0
 45 46  1  0
 33 47  1  0
 47 48  1  0
 47 49  1  0
 47 50  1  0
 50 51  1  0
 51 52  2  0
 52 53  1  0
 52 54  1  0
 54 55  2  0
 55 56  1  0
 29 57  1  0
 57 58  1  0
 57 59  1  0
 57 60  1  0
 60 61  1  0
 60 62  1  0
 21 63  1  0
 63 64  1  0
 63 65  2  0
 65 66  1  0
  8 67  1  0
 67 68  1  0
 67 69  2  0
 69 70  1  0
 70 71  1  0
 70 72  1  0
 70 73  1  0
 73 74  1  0
 73 75  2  0
 75 76  1  0
 75 77  1  0
 69  3  1  0
 65 16  1  0
 60 22  1  0
 45 36  1  0
 55 50  1  0
M  CHG  1  15  -1
M  END
>  <UniqueID>  (12) 
8

>  <SMILES>  (12) 
C=CCc1cc(/C=C/C(=O)[N-]c2ccc(N3CCN(C[C@](O)(Cn4cncn4)c4ccccc4F)CC3)cc2)ccc1O

>  <Energy>  (12) 
142.55780960107685

>  <Genealogy>  (12) 
C=CCc1cc(C=CC(=O)[N-]c2ccc(N3CCN(CC(O)(Cn4cncn4)c4ccccc4F)CC3)cc2)ccc1O (protonated)
C=CCc1cc(C=CC(=O)[N-]c2ccc(N3CCN(C[C@](O)(Cn4cncn4)c4ccccc4F)CC3)cc2)ccc1O (chirality)
C=CCc1cc(/C=C/C(=O)[N-]c2ccc(N3CCN(C[C@](O)(Cn4cncn4)c4ccccc4F)CC3)cc2)ccc1O (cis-trans isomerization)
C=CCc1cc(/C=C/C(=O)[N-]c2ccc(N3CCN(C[C@](O)(Cn4cncn4)c4ccccc4F)CC3)cc2)ccc1O (3D coordinates assigned)
C=CCc1cc(/C=C/C(=O)[N-]c2ccc(N3CCN(C[C@](O)(Cn4cncn4)c4ccccc4F)CC3)cc2)ccc1O (nonaromatic ring conformer: 142.55780960107685 kcal/mol)

>  <smiles>  (12) 
C=CCc1cc(C=CC(=O)Nc2ccc(N3CCN(CC(O)(Cn4cncn4)c4ccccc4F)CC3)cc2)ccc1O

>  <score_type>  (12) 
oracle

>  <origin>  (12) 
adg

>  <m_score__min__energy>  (12) 
-10.710000000000001

>  <m_primary>  (12) 
energy

$$$$
12:0
     RDKit          3D

 46 49  0  0  0  0  0  0  0  0999 V2000
   62.2240   32.0630   48.7210 C   0  0  0  0  0  0  0  0  0  0  0  0
   61.3940   30.9070   48.3420 N   0  0  0  0  0  0  0  0  0  0  0  0
   60.6670   30.9400   47.1720 C   0  0  0  0  0  0  0  0  0  0  0  0
   60.7780   31.9060   46.3700 O   0  0  0  0  0  0  0  0  0  0  0  0
   59.8340   29.8610   46.8810 C   0  0  0  0  0  0  0  0  0  0  0  0
   59.8190   28.7800   47.6960 C   0  0  0  0  0  0  0  0  0  0  0  0
   59.0700   27.7940   47.1700 N   0  0  0  0  0  0  0  0  0  0  0  0
   58.6110   28.3430   46.0180 C   0  0  0  0  0  0  0  0  0  0  0  0
   57.7810   27.3380   44.7820 S   0  0  0  0  0  0  0  0  0  0  0  0
   57.2150   26.1020   45.9450 C   0  0  0  0  0  0  0  0  0  0  0  0
   57.9590   25.0770   46.4810 C   0  0  0  0  0  0  0  0  0  0  0  0
   57.0610   24.3270   47.2160 C   0  0  0  0  0  0  0  0  0  0  0  0
   57.3980   23.1920   47.9430 O   0  0  0  0  0  0  0  0  0  0  0  0
   55.8060   24.8190   47.1430 N   0  0  0  0  0  0  0  0  0  0  0  0
   55.9170   25.9050   46.3560 C   0  0  0  0  0  0  0  0  0  0  0  0
   54.8360   26.6940   45.9860 O   0  0  0  0  0  0  0  0  0  0  0  0
   59.0310   29.6230   45.8200 N   0  0  0  0  0  0  0  0  0  0  0  0
   58.6950   30.5140   44.7000 C   0  0  0  0  0  0  0  0  0  0  0  0
   57.6020   31.5330   45.0720 C   0  0  0  0  0  0  0  0  0  0  0  0
   58.1450   32.8370   45.5990 C   0  0  0  0  0  0  0  0  0  0  0  0
   58.6890   33.7870   44.7170 C   0  0  0  0  0  0  0  0  0  0  0  0
   59.2800   34.9520   45.2130 C   0  0  0  0  0  0  0  0  0  0  0  0
   59.3260   35.1830   46.5910 C   0  0  0  0  0  0  0  0  0  0  0  0
   58.7760   34.2510   47.4740 C   0  0  0  0  0  0  0  0  0  0  0  0
   58.1930   33.0790   46.9830 C   0  0  0  0  0  0  0  0  0  0  0  0
   60.5420   28.7210   48.8480 N   0  0  0  0  0  0  0  0  0  0  0  0
   60.4520   27.5520   49.7330 C   0  0  0  0  0  0  0  0  0  0  0  0
   61.2980   29.8190   49.1930 C   0  0  0  0  0  0  0  0  0  0  0  0
   61.9130   29.8290   50.2970 O   0  0  0  0  0  0  0  0  0  0  0  0
   62.2750   32.1340   49.8175 H   0  0  0  0  0  0  0  0  0  0  0  0
   63.2380   31.9354   48.3143 H   0  0  0  0  0  0  0  0  0  0  0  0
   61.7789   32.9830   48.3143 H   0  0  0  0  0  0  0  0  0  0  0  0
   59.0360   24.8939   46.3524 H   0  0  0  0  0  0  0  0  0  0  0  0
   57.7730   22.3750   47.4780 H   0  0  0  0  0  0  0  0  0  0  0  0
   59.6007   31.0608   44.3988 H   0  0  0  0  0  0  0  0  0  0  0  0
   58.3098   29.8919   43.8787 H   0  0  0  0  0  0  0  0  0  0  0  0
   57.0030   31.7436   44.1737 H   0  0  0  0  0  0  0  0  0  0  0  0
   57.0040   31.0838   45.8785 H   0  0  0  0  0  0  0  0  0  0  0  0
   58.6492   33.6125   43.6317 H   0  0  0  0  0  0  0  0  0  0  0  0
   59.7097   35.6885   44.5181 H   0  0  0  0  0  0  0  0  0  0  0  0
   59.7953   36.0987   46.9798 H   0  0  0  0  0  0  0  0  0  0  0  0
   58.8016   34.4394   48.5574 H   0  0  0  0  0  0  0  0  0  0  0  0
   57.7700   32.3430   47.6826 H   0  0  0  0  0  0  0  0  0  0  0  0
   60.4775   27.8832   50.7817 H   0  0  0  0  0  0  0  0  0  0  0  0
   59.5101   27.0177   49.5400 H   0  0  0  0  0  0  0  0  0  0  0  0
   61.3010   26.8798   49.5400 H   0  0  0  0  0  0  0  0  0  0  0  0
  1  2  1  0
  2  3  1  0
  3  4  2  0
  3  5  1  0
  5  6  2  0
  6  7  1  0
  7  8  2  0
  8  9  1  0
  9 10  1  0
 10 11  1  0
 11 12  2  0
 12 13  1  0
 12 14  1  0
 14 15  1  0
 15 16  1  0
  8 17  1  0
 17 18  1  0
 18 19  1  0
 19 20  1  0
 20 21  2  0
 21 22  1  0
 22 23  2  0
 23 24  1  0
 24 25  2  0
  6 26  1  0
 26 27  1  0
 26 28  1  0
 28 29  2  0
 28  2  1  0
 17  5  1  0
 25 20  1  0
 15 10  2  0
  1 30  1  0
  1 31  1  0
  1 32  1  0
 11 33  1  0
 13 34  1  0
 18 35  1  0
 18 36  1  0
 19 37  1  0
 19 38  1  0
 21 39  1  0
 22 40  1  0
 23 41  1  0
 24 42  1  0
 25 43  1  0
 27 44  1  0
 27 45  1  0
 27 46  1  0
M  CHG  2  14  -1  16  -1
M  END
>  <UniqueID>  (13) 
9

>  <SMILES>  (13) 
Cn1c(=O)c2c(nc(Sc3cc(O)[n-]c3[O-])n2CCc2ccccc2)n(C)c1=O

>  <Energy>  (13) 
116.26646684294077

>  <Genealogy>  (13) 
Cn1c(=O)c2c(nc(Sc3cc(O)[n-]c3[O-])n2CCc2ccccc2)n(C)c1=O (protonated)
Cn1c(=O)c2c(nc(Sc3cc(O)[n-]c3[O-])n2CCc2ccccc2)n(C)c1=O (3D coordinates assigned)
Cn1c(=O)c2c(nc(Sc3cc(O)[n-]c3[O-])n2CCc2ccccc2)n(C)c1=O (optimized conformer: 116.26646684294077 kcal/mol)

>  <smiles>  (13) 
Cn1c(=O)c2c(nc(Sc3cc(O)[nH]c3O)n2CCc2ccccc2)n(C)c1=O

>  <score_type>  (13) 
oracle

>  <origin>  (13) 
adg

>  <m_score__min__energy>  (13) 
-14.27

>  <m_primary>  (13) 
energy

$$$$
13:0
     RDKit          3D

 41 43  0  0  0  0  0  0  0  0999 V2000
   64.8480   32.7424   47.5980 H   0  0  0  0  0  0  0  0  0  0  0  0
   63.7980   33.0360   47.7440 C   0  0  0  0  0  0  0  0  0  0  0  0
   62.9260   32.8970   49.1770 S   0  0  0  0  0  0  0  0  0  0  0  0
   61.4930   33.5470   48.5800 C   0  0  0  0  0  0  0  0  0  0  0  0
   60.2180   33.6820   49.3490 C   0  0  0  0  0  0  0  0  0  0  0  0
   59.5902   34.4545   48.8809 H   0  0  0  0  0  0  0  0  0  0  0  0
   60.4497   33.9677   50.3857 H   0  0  0  0  0  0  0  0  0  0  0  0
   59.4830   32.3810   49.3510 C   0  0  0  0  0  0  0  0  0  0  0  0
   58.3060   32.3380   49.8000 O   0  0  0  0  0  0  0  0  0  0  0  0
   60.1220   31.2140   48.8100 N   0  0  0  0  0  0  0  0  0  0  0  0
   59.8710   30.6280   47.6760 C   0  0  0  0  0  0  0  0  0  0  0  0
   60.0260   31.2650   46.4940 N   0  0  0  0  0  0  0  0  0  0  0  0
   59.7080   30.5100   45.4440 N   0  0  0  0  0  0  0  0  0  0  0  0
   59.2960   29.2690   45.7870 C   0  0  0  0  0  0  0  0  0  0  0  0
   58.7740   28.0340   44.6040 S   0  0  0  0  0  0  0  0  0  0  0  0
   57.0030   28.3620   44.8750 C   0  0  0  0  0  0  0  0  0  0  0  0
   56.4046   27.5959   44.3603 H   0  0  0  0  0  0  0  0  0  0  0  0
   56.7839   28.3332   45.9526 H   0  0  0  0  0  0  0  0  0  0  0  0
   56.6610   29.7110   44.3310 C   0  0  0  0  0  0  0  0  0  0  0  0
   55.4990   30.1720   44.5020 O   0  0  0  0  0  0  0  0  0  0  0  0
   57.6610   30.4920   43.6600 N   0  0  0  0  0  0  0  0  0  0  0  0
   58.6110   30.0830   43.5100 H   0  0  0  0  0  0  0  0  0  0  0  0
   57.4340   31.8780   43.2600 C   0  0  0  0  0  0  0  0  0  0  0  0
   58.0561   32.1112   42.3833 H   0  0  0  0  0  0  0  0  0  0  0  0
   56.3717   32.0132   43.0085 H   0  0  0  0  0  0  0  0  0  0  0  0
   57.7970   32.8020   44.3890 C   0  0  0  0  0  0  0  0  0  0  0  0
   58.8050   33.7630   44.2100 C   0  0  0  0  0  0  0  0  0  0  0  0
   59.3092   33.8538   43.2366 H   0  0  0  0  0  0  0  0  0  0  0  0
   59.1700   34.6050   45.2650 C   0  0  0  0  0  0  0  0  0  0  0  0
   59.9578   35.3586   45.1185 H   0  0  0  0  0  0  0  0  0  0  0  0
   58.5360   34.4910   46.5050 C   0  0  0  0  0  0  0  0  0  0  0  0
   58.8930   35.3070   47.5260 F   0  0  0  0  0  0  0  0  0  0  0  0
   57.5380   33.5300   46.6930 C   0  0  0  0  0  0  0  0  0  0  0  0
   57.0411   33.4377   47.6700 H   0  0  0  0  0  0  0  0  0  0  0  0
   57.1710   32.6860   45.6400 C   0  0  0  0  0  0  0  0  0  0  0  0
   56.3885   31.9281   45.7927 H   0  0  0  0  0  0  0  0  0  0  0  0
   59.3120   29.0470   47.4550 S   0  0  0  0  0  0  0  0  0  0  0  0
   61.6750   33.8690   47.2410 C   0  0  0  0  0  0  0  0  0  0  0  0
   60.8858   34.3030   46.6095 H   0  0  0  0  0  0  0  0  0  0  0  0
   62.9650   33.5850   46.7770 C   0  0  0  0  0  0  0  0  0  0  0  0
   63.2887   33.7784   45.7437 H   0  0  0  0  0  0  0  0  0  0  0  0
  1  2  1  0
  2  3  1  0
  3  4  1  0
  4  5  1  0
  5  6  1  0
  5  7  1  0
  5  8  1  0
  8  9  2  0
  8 10  1  0
 10 11  2  0
 11 12  1  0
 12 13  1  0
 13 14  2  0
 14 15  1  0
 15 16  1  0
 16 17  1  0
 16 18  1  0
 16 19  1  0
 19 20  2  0
 19 21  1  0
 21 22  1  0
 21 23  1  0
 23 24  1  0
 23 25  1  0
 23 26  1  0
 26 27  2  0
 27 28  1  0
 27 29  1  0
 29 30  1  0
 29 31  2  0
 31 32  1  0
 31 33  1  0
 33 34  1  0
 33 35  2  0
 35 36  1  0
 14 37  1  0
  4 38  2  0
 38 39  1  0
 38 40  1  0
 40 41  1  0
 40  2  2  0
 37 11  1  0
 35 26  1  0
M  CHG  1  12  -1
M  END
>  <UniqueID>  (14) 
10

>  <SMILES>  (14) 
O=C(Cc1cccs1)/N=c1/[n-]nc(SCC(=O)NCc2ccc(F)cc2)s1

>  <Energy>  (14) 
96.35642988356389

>  <Genealogy>  (14) 
O=C(Cc1cccs1)N=c1[n-]nc(SCC(=O)NCc2ccc(F)cc2)s1 (protonated)
O=C(Cc1cccs1)/N=c1/[n-]nc(SCC(=O)NCc2ccc(F)cc2)s1 (cis-trans isomerization)
O=C(Cc1cccs1)/N=c1/[n-]nc(SCC(=O)NCc2ccc(F)cc2)s1 (3D coordinates assigned)
O=C(Cc1cccs1)/N=c1/[n-]nc(SCC(=O)NCc2ccc(F)cc2)s1 (optimized conformer: 96.35642988356389 kcal/mol)

>  <smiles>  (14) 
O=C(Cc1cccs1)N=c1[nH]nc(SCC(=O)NCc2ccc(F)cc2)s1

>  <score_type>  (14) 
oracle

>  <origin>  (14) 
adg

>  <m_score__min__energy>  (14) 
-10.33

>  <m_primary>  (14) 
energy

$$$$
14:0
     RDKit          3D

 35 36  0  0  0  0  0  0  0  0999 V2000
   55.1600   26.6870   46.0070 O   0  0  0  0  0  0  0  0  0  0  0  0
   55.8620   25.6520   45.8540 C   0  0  0  0  0  0  0  0  0  0  0  0
   57.0980   25.7100   45.0130 C   0  0  0  0  0  0  0  0  0  0  0  0
   58.0040   26.8570   45.4710 C   0  0  0  0  0  0  0  0  0  0  0  0
   57.3420   28.1440   45.2640 N   0  0  0  0  0  0  0  0  0  0  0  0
   58.0180   29.3950   45.4280 C   0  0  0  0  0  0  0  0  0  0  0  0
   59.2450   29.4220   45.7150 O   0  0  0  0  0  0  0  0  0  0  0  0
   57.2960   30.6130   45.2050 N   0  0  0  0  0  0  0  0  0  0  0  0
   57.7740   31.9450   45.4450 C   0  0  0  0  0  0  0  0  0  0  0  0
   57.9740   32.4410   46.7480 C   0  0  0  0  0  0  0  0  0  0  0  0
   58.4190   33.7520   46.9420 C   0  0  0  0  0  0  0  0  0  0  0  0
   58.6540   34.5830   45.8430 C   0  0  0  0  0  0  0  0  0  0  0  0
   58.4330   34.1060   44.5480 C   0  0  0  0  0  0  0  0  0  0  0  0
   57.9880   32.7950   44.3490 C   0  0  0  0  0  0  0  0  0  0  0  0
   57.7740   32.3470   43.0870 F   0  0  0  0  0  0  0  0  0  0  0  0
   55.5130   24.4330   46.5170 N   0  0  0  0  0  0  0  0  0  0  0  0
   54.7500   23.3630   45.8870 C   0  0  0  0  0  0  0  0  0  0  0  0
   55.5530   22.7220   44.8000 C   0  0  0  0  0  0  0  0  0  0  0  0
   55.4700   23.0130   43.4440 C   0  0  0  0  0  0  0  0  0  0  0  0
   56.2860   22.2660   42.6540 N   0  0  0  0  0  0  0  0  0  0  0  0
   57.0170   21.3790   43.3650 C   0  0  0  0  0  0  0  0  0  0  0  0
   56.6750   21.4880   45.0080 S   0  0  0  0  0  0  0  0  0  0  0  0
   57.6433   24.7591   45.1046 H   0  0  0  0  0  0  0  0  0  0  0  0
   56.8085   25.8813   43.9657 H   0  0  0  0  0  0  0  0  0  0  0  0
   58.2314   26.7343   46.5402 H   0  0  0  0  0  0  0  0  0  0  0  0
   58.9326   26.8349   44.8818 H   0  0  0  0  0  0  0  0  0  0  0  0
   56.3500   28.1490   44.9360 H   0  0  0  0  0  0  0  0  0  0  0  0
   57.7793   31.7943   47.6163 H   0  0  0  0  0  0  0  0  0  0  0  0
   58.5845   34.1303   47.9616 H   0  0  0  0  0  0  0  0  0  0  0  0
   59.0125   35.6114   45.9972 H   0  0  0  0  0  0  0  0  0  0  0  0
   58.6094   34.7629   43.6835 H   0  0  0  0  0  0  0  0  0  0  0  0
   54.4940   22.6063   46.6432 H   0  0  0  0  0  0  0  0  0  0  0  0
   53.8329   23.7866   45.4516 H   0  0  0  0  0  0  0  0  0  0  0  0
   54.7981   23.7856   43.0420 H   0  0  0  0  0  0  0  0  0  0  0  0
   57.7414   20.6771   42.9261 H   0  0  0  0  0  0  0  0  0  0  0  0
  1  2  2  0
  2  3  1  0
  3  4  1  0
  4  5  1  0
  5  6  1  0
  6  7  2  0
  6  8  1  0
  8  9  1  0
  9 10  2  0
 10 11  1  0
 11 12  2  0
 12 13  1  0
 13 14  2  0
 14 15  1  0
  2 16  1  0
 16 17  1  0
 17 18  1  0
 18 19  2  0
 19 20  1  0
 20 21  2  0
 21 22  1  0
 14  9  1  0
 22 18  1  0
  3 23  1  0
  3 24  1  0
  4 25  1  0
  4 26  1  0
  5 27  1  0
 10 28  1  0
 11 29  1  0
 12 30  1  0
 13 31  1  0
 17 32  1  0
 17 33  1  0
 19 34  1  0
 21 35  1  0
M  CHG  2   8  -1  16  -1
M  END
>  <UniqueID>  (15) 
11

>  <SMILES>  (15) 
O=C(CCNC(=O)[N-]c1ccccc1F)[N-]Cc1cncs1

>  <Energy>  (15) 
59.629549309509336

>  <Genealogy>  (15) 
O=C(CCNC(=O)[N-]c1ccccc1F)[N-]Cc1cncs1 (protonated)
O=C(CCNC(=O)[N-]c1ccccc1F)[N-]Cc1cncs1 (3D coordinates assigned)
O=C(CCNC(=O)[N-]c1ccccc1F)[N-]Cc1cncs1 (optimized conformer: 59.629549309509336 kcal/mol)

>  <smiles>  (15) 
O=C(CCNC(=O)Nc1ccccc1F)NCc1cncs1

>  <score_type>  (15) 
oracle

>  <origin>  (15) 
adg

>  <m_score__min__energy>  (15) 
-11.16

>  <m_primary>  (15) 
energy

$$$$
15:0
     RDKit          3D

 40 43  0  0  0  0  0  0  0  0999 V2000
   61.2220   30.4930   47.4320 C   0  0  0  0  0  0  0  0  0  0  0  0
   60.0650   30.3680   46.5400 C   0  0  0  0  0  0  0  0  0  0  0  0
   59.7000   29.1100   46.0350 C   0  0  0  0  0  0  0  0  0  0  0  0
   58.6230   28.8620   45.2620 C   0  0  0  0  0  0  0  0  0  0  0  0
   58.2050   27.5940   44.6950 C   0  0  0  0  0  0  0  0  0  0  0  0
   58.1740   27.4880   43.2950 C   0  0  0  0  0  0  0  0  0  0  0  0
   57.7780   26.3420   42.6470 C   0  0  0  0  0  0  0  0  0  0  0  0
   57.3930   25.2380   43.3630 C   0  0  0  0  0  0  0  0  0  0  0  0
   57.4130   25.3140   44.7200 C   0  0  0  0  0  0  0  0  0  0  0  0
   57.8140   26.4780   45.3780 C   0  0  0  0  0  0  0  0  0  0  0  0
   57.7510   26.4170   47.1180 Cl  0  0  0  0  0  0  0  0  0  0  0  0
   57.8420   29.9250   44.9550 N   0  0  0  0  0  0  0  0  0  0  0  0
   58.1480   31.1380   45.4090 C   0  0  0  0  0  0  0  0  0  0  0  0
   57.2750   32.1350   45.0600 N   0  0  0  0  0  0  0  0  0  0  0  0
   57.4910   33.3850   45.4930 C   0  0  0  0  0  0  0  0  0  0  0  0
   56.6710   34.3270   45.1710 N   0  0  0  0  0  0  0  0  0  0  0  0
   58.5610   33.6210   46.2530 N   0  0  0  0  0  0  0  0  0  0  0  0
   59.4680   32.6530   46.6270 C   0  0  0  0  0  0  0  0  0  0  0  0
   60.5600   33.1550   47.4320 C   0  0  0  0  0  0  0  0  0  0  0  0
   60.5110   33.4070   48.7900 C   0  0  0  0  0  0  0  0  0  0  0  0
   61.5940   33.8700   49.5100 C   0  0  0  0  0  0  0  0  0  0  0  0
   62.7710   34.0840   48.8180 C   0  0  0  0  0  0  0  0  0  0  0  0
   62.8670   33.8450   47.4580 C   0  0  0  0  0  0  0  0  0  0  0  0
   61.7700   33.3770   46.7320 C   0  0  0  0  0  0  0  0  0  0  0  0
   59.2430   31.4080   46.1970 C   0  0  0  0  0  0  0  0  0  0  0  0
   60.8841   30.4565   48.4782 H   0  0  0  0  0  0  0  0  0  0  0  0
   61.9214   29.6652   47.2435 H   0  0  0  0  0  0  0  0  0  0  0  0
   61.7285   31.4511   47.2435 H   0  0  0  0  0  0  0  0  0  0  0  0
   60.3453   28.2566   46.2907 H   0  0  0  0  0  0  0  0  0  0  0  0
   58.4787   28.3566   42.6928 H   0  0  0  0  0  0  0  0  0  0  0  0
   57.7700   26.3106   41.5475 H   0  0  0  0  0  0  0  0  0  0  0  0
   57.0766   24.3160   42.8533 H   0  0  0  0  0  0  0  0  0  0  0  0
   57.1066   24.4393   45.3125 H   0  0  0  0  0  0  0  0  0  0  0  0
   56.4390   31.9410   44.4630 H   0  0  0  0  0  0  0  0  0  0  0  0
   55.9540   34.6260   45.8650 H   0  0  0  0  0  0  0  0  0  0  0  0
   59.5646   33.2303   49.3221 H   0  0  0  0  0  0  0  0  0  0  0  0
   61.5230   34.0609   50.5910 H   0  0  0  0  0  0  0  0  0  0  0  0
   63.6532   34.4533   49.3614 H   0  0  0  0  0  0  0  0  0  0  0  0
   63.8212   34.0264   46.9418 H   0  0  0  0  0  0  0  0  0  0  0  0
   61.8437   33.1870   45.6510 H   0  0  0  0  0  0  0  0  0  0  0  0
  1  2  1  0
  2  3  2  0
  3  4  1  0
  4  5  1  0
  5  6  2  0
  6  7  1  0
  7  8  2  0
  8  9  1  0
  9 10  2  0
 10 11  1  0
  4 12  2  0
 12 13  1  0
 13 14  1  0
 14 15  1  0
 15 16  2  3
 15 17  1  0
 17 18  2  0
 18 19  1  0
 19 20  2  0
 20 21  1  0
 21 22  2  0
 22 23  1  0
 23 24  2  0
 18 25  1  0
 25  2  1  0
 10  5  1  0
 25 13  2  0
 24 19  1  0
  1 26  1  0
  1 27  1  0
  1 28  1  0
  3 29  1  0
  6 30  1  0
  7 31  1  0
  8 32  1  0
  9 33  1  0
 14 34  1  0
 16 35  1  0
 20 36  1  0
 21 37  1  0
 22 38  1  0
 23 39  1  0
 24 40  1  0
M  END
>  <smiles>  (16) 
Cc1cc(-c2ccccc2Cl)nc2[nH]c(=N)nc(-c3ccccc3)c12

>  <score_type>  (16) 
oracle

>  <origin>  (16) 
adg

>  <m_score__min__energy>  (16) 
-7.9199999999999999

>  <m_primary>  (16) 
energy

$$$$
16:0
     RDKit          3D

 64 67  0  0  0  0  0  0  0  0999 V2000
   60.2780   28.4690   52.0860 C   0  0  0  0  0  0  0  0  0  0  0  0
   59.8420   29.7430   50.8660 S   0  0  0  0  0  0  0  0  0  0  0  0
   58.2760   30.1410   51.6570 C   0  0  0  0  0  0  0  0  0  0  0  0
   57.6820   29.1890   52.4980 C   0  0  0  0  0  0  0  0  0  0  0  0
   56.4490   29.4540   53.1000 C   0  0  0  0  0  0  0  0  0  0  0  0
   55.7980   30.6660   52.8600 C   0  0  0  0  0  0  0  0  0  0  0  0
   56.3780   31.6160   52.0140 C   0  0  0  0  0  0  0  0  0  0  0  0
   57.6150   31.3600   51.3990 C   0  0  0  0  0  0  0  0  0  0  0  0
   58.2130   32.3440   50.5380 N   0  0  0  0  0  0  0  0  0  0  0  0
   59.2130   33.2710   50.9720 C   0  0  0  0  0  0  0  0  0  0  0  0
   59.5550   33.3200   52.1880 O   0  0  0  0  0  0  0  0  0  0  0  0
   59.6930   34.2160   50.0600 O   0  0  0  0  0  0  0  0  0  0  0  0
   60.7430   34.0120   49.1520 C   0  0  0  0  0  0  0  0  0  0  0  0
   62.0680   33.8290   49.5900 C   0  0  0  0  0  0  0  0  0  0  0  0
   63.0990   33.6560   48.6640 C   0  0  0  0  0  0  0  0  0  0  0  0
   62.8210   33.6560   47.2960 C   0  0  0  0  0  0  0  0  0  0  0  0
   61.5060   33.8140   46.8490 C   0  0  0  0  0  0  0  0  0  0  0  0
   60.4580   33.9660   47.7700 C   0  0  0  0  0  0  0  0  0  0  0  0
   59.0890   34.1950   47.2610 C   0  0  0  0  0  0  0  0  0  0  0  0
   58.4100   33.3520   46.4670 C   0  0  0  0  0  0  0  0  0  0  0  0
   58.2850   33.4810   45.0040 C   0  0  0  0  0  0  0  0  0  0  0  0
   58.1980   34.6140   44.4580 O   0  0  0  0  0  0  0  0  0  0  0  0
   58.2390   32.2920   44.2060 N   0  0  0  0  0  0  0  0  0  0  0  0
   57.5500   31.0830   44.5620 C   0  0  0  0  0  0  0  0  0  0  0  0
   56.2490   30.8420   44.0890 C   0  0  0  0  0  0  0  0  0  0  0  0
   55.5790   29.6690   44.4290 C   0  0  0  0  0  0  0  0  0  0  0  0
   56.1930   28.7210   45.2430 C   0  0  0  0  0  0  0  0  0  0  0  0
   55.5220   27.5430   45.5450 O   0  0  0  0  0  0  0  0  0  0  0  0
   57.4860   28.9490   45.7460 C   0  0  0  0  0  0  0  0  0  0  0  0
   58.1090   27.9370   46.5520 N   0  0  0  0  0  0  0  0  0  0  0  0
   58.5390   26.6730   45.9500 C   0  0  0  0  0  0  0  0  0  0  0  0
   60.0430   26.4320   46.2130 C   0  0  0  0  0  0  0  0  0  0  0  0
   60.6210   27.3910   47.0840 O   0  0  0  0  0  0  0  0  0  0  0  0
   59.8320   27.5190   48.2510 C   0  0  0  0  0  0  0  0  0  0  0  0
   58.5250   28.2530   47.9180 C   0  0  0  0  0  0  0  0  0  0  0  0
   58.1620   30.1520   45.4320 C   0  0  0  0  0  0  0  0  0  0  0  0
   59.5700   30.3960   45.9210 C   0  0  0  0  0  0  0  0  0  0  0  0
   60.1405   28.8707   53.1007 H   0  0  0  0  0  0  0  0  0  0  0  0
   59.6290   27.5917   51.9479 H   0  0  0  0  0  0  0  0  0  0  0  0
   61.3285   28.1733   51.9479 H   0  0  0  0  0  0  0  0  0  0  0  0
   58.1883   28.2304   52.6845 H   0  0  0  0  0  0  0  0  0  0  0  0
   55.9904   28.7066   53.7641 H   0  0  0  0  0  0  0  0  0  0  0  0
   54.8286   30.8733   53.3367 H   0  0  0  0  0  0  0  0  0  0  0  0
   55.8626   32.5699   51.8287 H   0  0  0  0  0  0  0  0  0  0  0  0
   57.8320   32.4670   49.5730 H   0  0  0  0  0  0  0  0  0  0  0  0
   62.2926   33.8222   50.6668 H   0  0  0  0  0  0  0  0  0  0  0  0
   64.1330   33.5194   49.0136 H   0  0  0  0  0  0  0  0  0  0  0  0
   63.6373   33.5316   46.5693 H   0  0  0  0  0  0  0  0  0  0  0  0
   61.2916   33.8192   45.7701 H   0  0  0  0  0  0  0  0  0  0  0  0
   58.5878   35.1288   47.5558 H   0  0  0  0  0  0  0  0  0  0  0  0
   57.9077   32.4984   46.9455 H   0  0  0  0  0  0  0  0  0  0  0  0
   55.7558   31.5853   43.4453 H   0  0  0  0  0  0  0  0  0  0  0  0
   54.5607   29.4910   44.0529 H   0  0  0  0  0  0  0  0  0  0  0  0
   57.9582   25.8476   46.3875 H   0  0  0  0  0  0  0  0  0  0  0  0
   58.3710   26.7209   44.8640 H   0  0  0  0  0  0  0  0  0  0  0  0
   60.1636   25.4351   46.6620 H   0  0  0  0  0  0  0  0  0  0  0  0
   60.5605   26.5164   45.2460 H   0  0  0  0  0  0  0  0  0  0  0  0
   59.5988   26.5190   48.6455 H   0  0  0  0  0  0  0  0  0  0  0  0
   60.3895   28.0944   49.0047 H   0  0  0  0  0  0  0  0  0  0  0  0
   57.7400   27.9363   48.6205 H   0  0  0  0  0  0  0  0  0  0  0  0
   58.6873   29.3375   48.0047 H   0  0  0  0  0  0  0  0  0  0  0  0
   59.5810   30.3979   47.0209 H   0  0  0  0  0  0  0  0  0  0  0  0
   60.2306   29.5989   45.5491 H   0  0  0  0  0  0  0  0  0  0  0  0
   59.9239   31.3689   45.5491 H   0  0  0  0  0  0  0  0  0  0  0  0
  1  2  1  0
  2  3  1  0
  3  4  2  0
  4  5  1  0
  5  6  2  0
  6  7  1  0
  7  8  2  0
  8  9  1  0
  9 10  1  0
 10 11  2  0
 10 12  1  0
 12 13  1  0
 13 14  2  0
 14 15  1  0
 15 16  2  0
 16 17  1  0
 17 18  2  0
 18 19  1  0
 19 20  2  3
 20 21  1  0
 21 22  2  0
 21 23  1  0
 23 24  1  0
 24 25  2  0
 25 26  1  0
 26 27  2  0
 27 28  1  0
 27 29  1  0
 29 30  1  0
 30 31  1  0
 31 32  1  0
 32 33  1  0
 33 34  1  0
 34 35  1  0
 29 36  2  0
 36 37  1  0
  8  3  1  0
 18 13  1  0
 36 24  1  0
 35 30  1  0
  1 38  1  0
  1 39  1  0
  1 40  1  0
  4 41  1  0
  5 42  1  0
  6 43  1  0
  7 44  1  0
  9 45  1  0
 14 46  1  0
 15 47  1  0
 16 48  1  0
 17 49  1  0
 19 50  1  0
 20 51  1  0
 25 52  1  0
 26 53  1  0
 31 54  1  0
 31 55  1  0
 32 56  1  0
 32 57  1  0
 34 58  1  0
 34 59  1  0
 35 60  1  0
 35 61  1  0
 37 62  1  0
 37 63  1  0
 37 64  1  0
M  CHG  2  23  -1  28  -1
M  END
>  <UniqueID>  (17) 
12

>  <SMILES>  (17) 
CSc1ccccc1NC(=O)Oc1ccccc1C=CC(=O)[N-]c1ccc([O-])c(N2CCOCC2)c1C

>  <Energy>  (17) 
97.42188304758173

>  <Genealogy>  (17) 
CSc1ccccc1NC(=O)Oc1ccccc1C=CC(=O)[N-]c1ccc([O-])c(N2CCOCC2)c1C (protonated)
CSc1ccccc1NC(=O)Oc1ccccc1C=CC(=O)[N-]c1ccc([O-])c(N2CCOCC2)c1C (3D coordinates assigned)
CSc1ccccc1NC(=O)Oc1ccccc1C=CC(=O)[N-]c1ccc([O-])c(N2CCOCC2)c1C (nonaromatic ring conformer: 97.42188304758173 kcal/mol)

>  <smiles>  (17) 
CSc1ccccc1NC(=O)Oc1ccccc1C=CC(=O)Nc1ccc(O)c(N2CCOCC2)c1C

>  <score_type>  (17) 
oracle

>  <origin>  (17) 
adg

>  <m_score__min__energy>  (17) 
-13.029999999999999

>  <m_primary>  (17) 
energy

$$$$
17:0
     RDKit          3D

 53 56  0  0  0  0  0  0  0  0999 V2000
   54.3930   30.8200   51.8460 C   0  0  0  0  0  0  0  0  0  0  0  0
   55.6340   30.1220   52.3890 C   0  0  0  0  0  0  0  0  0  0  0  0
   56.7710   30.4050   51.5760 O   0  0  0  0  0  0  0  0  0  0  0  0
   57.4950   31.6010   51.6430 C   0  0  0  0  0  0  0  0  0  0  0  0
   56.9420   32.6740   52.0080 O   0  0  0  0  0  0  0  0  0  0  0  0
   58.9450   31.6000   51.2750 C   0  0  0  0  0  0  0  0  0  0  0  0
   59.1380   31.6930   49.7950 C   0  0  0  0  0  0  0  0  0  0  0  0
   59.0200   30.6510   49.0960 O   0  0  0  0  0  0  0  0  0  0  0  0
   59.5650   32.8930   49.2110 O   0  0  0  0  0  0  0  0  0  0  0  0
   60.8360   33.0730   48.6490 C   0  0  0  0  0  0  0  0  0  0  0  0
   61.9510   33.0340   49.4940 C   0  0  0  0  0  0  0  0  0  0  0  0
   63.2380   33.2040   48.9760 C   0  0  0  0  0  0  0  0  0  0  0  0
   64.7530   33.1300   50.1370 Br  0  0  0  0  0  0  0  0  0  0  0  0
   63.4180   33.4280   47.6090 C   0  0  0  0  0  0  0  0  0  0  0  0
   62.3110   33.4950   46.7600 C   0  0  0  0  0  0  0  0  0  0  0  0
   61.0130   33.3270   47.2690 C   0  0  0  0  0  0  0  0  0  0  0  0
   59.8800   33.4880   46.3890 N   0  0  0  0  0  0  0  0  0  0  0  0
   59.4620   34.7610   46.0790 C   0  0  0  0  0  0  0  0  0  0  0  0
   60.0310   35.7670   46.5880 O   0  0  0  0  0  0  0  0  0  0  0  0
   58.4120   34.9670   45.1830 C   0  0  0  0  0  0  0  0  0  0  0  0
   57.7750   33.8790   44.6030 C   0  0  0  0  0  0  0  0  0  0  0  0
   58.1630   32.5810   44.9420 C   0  0  0  0  0  0  0  0  0  0  0  0
   57.5020   31.4760   44.3850 C   0  0  0  0  0  0  0  0  0  0  0  0
   57.8630   30.1780   44.7540 C   0  0  0  0  0  0  0  0  0  0  0  0
   57.0160   28.8060   44.0450 S   0  0  0  0  0  0  0  0  0  0  0  0
   57.9910   27.7980   43.5020 O   0  0  0  0  0  0  0  0  0  0  0  0
   56.1520   29.2980   42.9190 O   0  0  0  0  0  0  0  0  0  0  0  0
   56.0200   28.0500   45.2440 N   0  0  0  0  0  0  0  0  0  0  0  0
   56.3250   26.9240   45.8090 C   0  0  0  0  0  0  0  0  0  0  0  0
   55.4390   25.9290   46.0360 N   0  0  0  0  0  0  0  0  0  0  0  0
   56.0350   24.8650   46.6390 C   0  0  0  0  0  0  0  0  0  0  0  0
   57.3950   25.0150   46.8910 C   0  0  0  0  0  0  0  0  0  0  0  0
   57.8680   26.5340   46.3400 S   0  0  0  0  0  0  0  0  0  0  0  0
   58.8750   29.9800   45.6970 C   0  0  0  0  0  0  0  0  0  0  0  0
   59.5570   31.0700   46.2400 C   0  0  0  0  0  0  0  0  0  0  0  0
   59.2230   32.3920   45.8650 C   0  0  0  0  0  0  0  0  0  0  0  0
   53.7723   31.1691   52.6844 H   0  0  0  0  0  0  0  0  0  0  0  0
   54.6957   31.6802   51.2308 H   0  0  0  0  0  0  0  0  0  0  0  0
   53.8151   30.1146   51.2308 H   0  0  0  0  0  0  0  0  0  0  0  0
   55.8265   30.4739   53.4133 H   0  0  0  0  0  0  0  0  0  0  0  0
   55.4584   29.0361   52.3837 H   0  0  0  0  0  0  0  0  0  0  0  0
   59.4352   32.4606   51.7536 H   0  0  0  0  0  0  0  0  0  0  0  0
   59.3867   30.6537   51.6205 H   0  0  0  0  0  0  0  0  0  0  0  0
   61.8136   32.8685   50.5728 H   0  0  0  0  0  0  0  0  0  0  0  0
   64.4320   33.5517   47.2010 H   0  0  0  0  0  0  0  0  0  0  0  0
   62.4568   33.6806   45.6856 H   0  0  0  0  0  0  0  0  0  0  0  0
   58.0900   35.9896   44.9370 H   0  0  0  0  0  0  0  0  0  0  0  0
   56.9647   34.0390   43.8765 H   0  0  0  0  0  0  0  0  0  0  0  0
   56.6952   31.6325   43.6538 H   0  0  0  0  0  0  0  0  0  0  0  0
   55.4820   23.9528   46.9077 H   0  0  0  0  0  0  0  0  0  0  0  0
   58.0485   24.2697   47.3680 H   0  0  0  0  0  0  0  0  0  0  0  0
   59.1357   28.9592   46.0132 H   0  0  0  0  0  0  0  0  0  0  0  0
   60.3636   30.8988   46.9681 H   0  0  0  0  0  0  0  0  0  0  0  0
  1  2  1  0
  2  3  1  0
  3  4  1  0
  4  5  2  0
  4  6  1  0
  6  7  1  0
  7  8  2  0
  7  9  1  0
  9 10  1  0
 10 11  2  0
 11 12  1  0
 12 13  1  0
 12 14  2  0
 14 15  1  0
 15 16  2  0
 16 17  1  0
 17 18  1  0
 18 19  2  0
 18 20  1  0
 20 21  2  0
 21 22  1  0
 22 23  2  0
 23 24  1  0
 24 25  1  0
 25 26  2  0
 25 27  2  0
 25 28  1  0
 28 29  2  3
 29 30  1  0
 30 31  1  0
 31 32  2  0
 32 33  1  0
 24 34  2  0
 34 35  1  0
 35 36  2  0
 16 10  1  0
 36 17  1  0
 36 22  1  0
 33 29  1  0
  1 37  1  0
  1 38  1  0
  1 39  1  0
  2 40  1  0
  2 41  1  0
  6 42  1  0
  6 43  1  0
 11 44  1  0
 14 45  1  0
 15 46  1  0
 20 47  1  0
 21 48  1  0
 23 49  1  0
 31 50  1  0
 32 51  1  0
 34 52  1  0
 35 53  1  0
M  CHG  1  30  -1
M  END
>  <UniqueID>  (18) 
13

>  <SMILES>  (18) 
CCOC(=O)CC(=O)Oc1cc(Br)ccc1-n1c(=O)ccc2cc(S(=O)(=O)N=c3[n-]ccs3)ccc21

>  <Energy>  (18) 
101.52762180402868

>  <Genealogy>  (18) 
CCOC(=O)CC(=O)Oc1cc(Br)ccc1-n1c(=O)ccc2cc(S(=O)(=O)N=c3[n-]ccs3)ccc21 (protonated)
CCOC(=O)CC(=O)Oc1cc(Br)ccc1-n1c(=O)ccc2cc(S(=O)(=O)N=c3[n-]ccs3)ccc21 (3D coordinates assigned)
CCOC(=O)CC(=O)Oc1cc(Br)ccc1-n1c(=O)ccc2cc(S(=O)(=O)N=c3[n-]ccs3)ccc21 (optimized conformer: 101.52762180402868 kcal/mol)

>  <smiles>  (18) 
CCOC(=O)CC(=O)Oc1cc(Br)ccc1-n1c(=O)ccc2cc(S(=O)(=O)N=c3[nH]ccs3)ccc21

>  <score_type>  (18) 
oracle

>  <origin>  (18) 
adg

>  <m_score__min__energy>  (18) 
-12.539999999999999

>  <m_primary>  (18) 
energy

$$$$
18:0
     RDKit          3D

 43 44  0  0  0  0  0  0  0  0999 V2000
   58.9989   26.7142   43.7938 H   0  0  0  0  0  0  0  0  0  0  0  0
   58.9800   27.2800   44.7370 C   0  0  0  0  0  0  0  0  0  0  0  0
   58.9640   26.6150   45.8550 N   0  0  0  0  0  0  0  0  0  0  0  0
   57.8890   26.6310   46.8040 C   0  0  0  0  0  0  0  0  0  0  0  0
   58.0240   27.3110   47.8570 O   0  0  0  0  0  0  0  0  0  0  0  0
   56.6340   25.8550   46.5580 C   0  0  0  0  0  0  0  0  0  0  0  0
   55.5100   26.4740   45.9590 C   0  0  0  0  0  0  0  0  0  0  0  0
   55.5260   27.8230   45.6220 O   0  0  0  0  0  0  0  0  0  0  0  0
   54.3860   25.7590   45.6990 N   0  0  0  0  0  0  0  0  0  0  0  0
   54.2820   24.4390   45.9850 C   0  0  0  0  0  0  0  0  0  0  0  0
   53.1000   23.7530   45.6800 C   0  0  0  0  0  0  0  0  0  0  0  0
   52.2581   24.2888   45.2174 H   0  0  0  0  0  0  0  0  0  0  0  0
   52.9880   22.3900   45.9620 C   0  0  0  0  0  0  0  0  0  0  0  0
   51.8490   21.7240   45.6490 F   0  0  0  0  0  0  0  0  0  0  0  0
   54.0560   21.7080   46.5520 C   0  0  0  0  0  0  0  0  0  0  0  0
   53.9652   20.6343   46.7732 H   0  0  0  0  0  0  0  0  0  0  0  0
   55.2390   22.3850   46.8620 C   0  0  0  0  0  0  0  0  0  0  0  0
   56.0747   21.8424   47.3280 H   0  0  0  0  0  0  0  0  0  0  0  0
   55.3650   23.7590   46.5800 C   0  0  0  0  0  0  0  0  0  0  0  0
   56.5430   24.4740   46.8690 C   0  0  0  0  0  0  0  0  0  0  0  0
   57.5140   23.8760   47.4100 O   0  0  0  0  0  0  0  0  0  0  0  0
   58.9740   28.7910   44.6670 C   0  0  0  0  0  0  0  0  0  0  0  0
   58.6706   29.0994   43.6556 H   0  0  0  0  0  0  0  0  0  0  0  0
   59.9876   29.1481   44.9019 H   0  0  0  0  0  0  0  0  0  0  0  0
   58.0340   29.3860   45.6540 N   0  0  1  0  0  0  0  0  0  0  0  0
   57.5270   28.6150   46.1480 H   0  0  0  0  0  0  0  0  0  0  0  0
   58.7840   30.1790   46.6640 C   0  0  0  0  0  0  0  0  0  0  0  0
   58.5164   31.2400   46.5510 H   0  0  0  0  0  0  0  0  0  0  0  0
   58.5112   29.8008   47.6602 H   0  0  0  0  0  0  0  0  0  0  0  0
   60.3040   30.0330   46.5050 C   0  0  0  0  0  0  0  0  0  0  0  0
   60.7739   29.9879   47.4985 H   0  0  0  0  0  0  0  0  0  0  0  0
   60.5277   29.1092   45.9513 H   0  0  0  0  0  0  0  0  0  0  0  0
   60.6994   30.8973   45.9513 H   0  0  0  0  0  0  0  0  0  0  0  0
   57.0270   30.2340   44.9620 C   0  0  0  0  0  0  0  0  0  0  0  0
   57.0276   31.2331   45.4222 H   0  0  0  0  0  0  0  0  0  0  0  0
   56.0453   29.7487   45.0657 H   0  0  0  0  0  0  0  0  0  0  0  0
   57.3300   30.3790   43.4570 C   0  0  0  0  0  0  0  0  0  0  0  0
   58.3025   29.9132   43.2397 H   0  0  0  0  0  0  0  0  0  0  0  0
   57.3498   31.4498   43.2060 H   0  0  0  0  0  0  0  0  0  0  0  0
   56.2540   29.7030   42.6130 C   0  0  0  0  0  0  0  0  0  0  0  0
   55.5095   29.2353   43.2740 H   0  0  0  0  0  0  0  0  0  0  0  0
   55.7605   30.4536   41.9782 H   0  0  0  0  0  0  0  0  0  0  0  0
   56.7161   28.9326   41.9782 H   0  0  0  0  0  0  0  0  0  0  0  0
  1  2  1  0
  2  3  2  0
  3  4  1  0
  4  5  2  0
  4  6  1  0
  6  7  2  0
  7  8  1  0
  7  9  1  0
  9 10  1  0
 10 11  2  0
 11 12  1  0
 11 13  1  0
 13 14  1  0
 13 15  2  0
 15 16  1  0
 15 17  1  0
 17 18  1  0
 17 19  2  0
 19 20  1  0
 20 21  2  0
  2 22  1  0
 22 23  1  0
 22 24  1  0
 22 25  1  0
 25 26  1  1
 25 27  1  0
 27 28  1  0
 27 29  1  0
 27 30  1  0
 30 31  1  0
 30 32  1  0
 30 33  1  0
 25 34  1  0
 34 35  1  0
 34 36  1  0
 34 37  1  0
 37 38  1  0
 37 39  1  0
 37 40  1  0
 40 41  1  0
 40 42  1  0
 40 43  1  0
 20  6  1  0
 19 10  1  0
M  CHG  3   8  -1   9  -1  25   1
M  END
>  <UniqueID>  (19) 
14

>  <SMILES>  (19) 
CCC[N@H+](CC)C/C=N\C(=O)c1c([O-])[n-]c2cc(F)ccc2c1=O

>  <Energy>  (19) 
56.56731764233495

>  <Genealogy>  (19) 
CCC[NH+](CC)CC=NC(=O)c1c([O-])[n-]c2cc(F)ccc2c1=O (protonated)
CCC[N@H+](CC)CC=NC(=O)c1c([O-])[n-]c2cc(F)ccc2c1=O (chirality)
CCC[N@H+](CC)C/C=N\C(=O)c1c([O-])[n-]c2cc(F)ccc2c1=O (cis-trans isomerization)
CCC[N@H+](CC)C/C=N\C(=O)c1c([O-])[n-]c2cc(F)ccc2c1=O (3D coordinates assigned)
CCC[N@H+](CC)C/C=N\C(=O)c1c([O-])[n-]c2cc(F)ccc2c1=O (optimized conformer: 56.56731764233495 kcal/mol)

>  <smiles>  (19) 
CCCN(CC)CC=NC(=O)c1c(O)[nH]c2cc(F)ccc2c1=O

>  <score_type>  (19) 
oracle

>  <origin>  (19) 
adg

>  <m_score__min__energy>  (19) 
-9.6400000000000006

>  <m_primary>  (19) 
energy

$$$$
19:0
     RDKit          3D

 56 58  0  0  0  0  0  0  0  0999 V2000
   62.7000   29.8440   51.5560 C   0  0  0  0  0  0  0  0  0  0  0  0
   61.4560   29.3000   51.1280 O   0  0  0  0  0  0  0  0  0  0  0  0
   60.7060   29.7940   50.0500 C   0  0  0  0  0  0  0  0  0  0  0  0
   59.8070   30.8410   50.2890 C   0  0  0  0  0  0  0  0  0  0  0  0
   59.0560   31.3870   49.2440 C   0  0  0  0  0  0  0  0  0  0  0  0
   59.1940   30.8850   47.9360 C   0  0  0  0  0  0  0  0  0  0  0  0
   58.4980   31.4710   46.8290 N   0  0  0  0  0  0  0  0  0  0  0  0
   57.9090   32.7770   46.8120 C   0  0  0  0  0  0  0  0  0  0  0  0
   57.3990   33.2590   47.8610 O   0  0  0  0  0  0  0  0  0  0  0  0
   57.9130   33.5880   45.5450 C   0  0  1  0  0  0  0  0  0  0  0  0
   59.1510   34.5030   45.4870 C   0  0  0  0  0  0  0  0  0  0  0  0
   60.1110   34.2210   46.6170 C   0  0  0  0  0  0  0  0  0  0  0  0
   61.2170   33.3750   46.4190 C   0  0  0  0  0  0  0  0  0  0  0  0
   62.0750   33.0770   47.4830 C   0  0  0  0  0  0  0  0  0  0  0  0
   61.8380   33.6220   48.7520 C   0  0  0  0  0  0  0  0  0  0  0  0
   62.9380   33.2330   50.1160 S   0  0  0  0  0  0  0  0  0  0  0  0
   64.1470   32.3720   49.0580 C   0  0  0  0  0  0  0  0  0  0  0  0
   60.7370   34.4630   48.9560 C   0  0  0  0  0  0  0  0  0  0  0  0
   59.8760   34.7640   47.8950 C   0  0  0  0  0  0  0  0  0  0  0  0
   57.9090   32.6860   44.3960 N   0  0  0  0  0  0  0  0  0  0  0  0
   57.0330   31.5610   44.2630 C   0  0  0  0  0  0  0  0  0  0  0  0
   55.9070   31.5590   44.8280 O   0  0  0  0  0  0  0  0  0  0  0  0
   57.4780   30.3690   43.4770 C   0  0  0  0  0  0  0  0  0  0  0  0
   57.8020   29.2220   44.4000 C   0  0  0  0  0  0  0  0  0  0  0  0
   59.0980   28.6700   44.4000 C   0  0  0  0  0  0  0  0  0  0  0  0
   59.4090   27.5940   45.2380 C   0  0  0  0  0  0  0  0  0  0  0  0
   58.4310   27.0530   46.0770 C   0  0  0  0  0  0  0  0  0  0  0  0
   57.1380   27.5880   46.0800 C   0  0  0  0  0  0  0  0  0  0  0  0
   56.8150   28.6680   45.2420 C   0  0  0  0  0  0  0  0  0  0  0  0
   55.5180   29.1870   45.2410 O   0  0  0  0  0  0  0  0  0  0  0  0
   60.0890   29.8380   47.6970 C   0  0  0  0  0  0  0  0  0  0  0  0
   60.8320   29.2840   48.7440 C   0  0  0  0  0  0  0  0  0  0  0  0
   62.7347   29.8592   52.6553 H   0  0  0  0  0  0  0  0  0  0  0  0
   63.5231   29.2237   51.1717 H   0  0  0  0  0  0  0  0  0  0  0  0
   62.8034   30.8695   51.1717 H   0  0  0  0  0  0  0  0  0  0  0  0
   59.6908   31.2374   51.3085 H   0  0  0  0  0  0  0  0  0  0  0  0
   58.3554   32.2110   49.4442 H   0  0  0  0  0  0  0  0  0  0  0  0
   57.0141   34.2216   45.5247 H   0  0  0  0  0  0  0  0  0  0  0  0
   59.6694   34.3401   44.5306 H   0  0  0  0  0  0  0  0  0  0  0  0
   58.8104   35.5448   45.5802 H   0  0  0  0  0  0  0  0  0  0  0  0
   61.4080   32.9462   45.4242 H   0  0  0  0  0  0  0  0  0  0  0  0
   62.9376   32.4134   47.3231 H   0  0  0  0  0  0  0  0  0  0  0  0
   64.8805   31.8496   49.6897 H   0  0  0  0  0  0  0  0  0  0  0  0
   63.6240   31.6418   48.4229 H   0  0  0  0  0  0  0  0  0  0  0  0
   64.6660   33.1050   48.4229 H   0  0  0  0  0  0  0  0  0  0  0  0
   60.5486   34.8880   49.9529 H   0  0  0  0  0  0  0  0  0  0  0  0
   59.0134   35.4264   48.0595 H   0  0  0  0  0  0  0  0  0  0  0  0
   56.6732   30.0661   42.7911 H   0  0  0  0  0  0  0  0  0  0  0  0
   58.3806   30.6342   42.9069 H   0  0  0  0  0  0  0  0  0  0  0  0
   59.8701   29.0876   43.7371 H   0  0  0  0  0  0  0  0  0  0  0  0
   60.4252   27.1729   45.2366 H   0  0  0  0  0  0  0  0  0  0  0  0
   58.6776   26.2067   46.7350 H   0  0  0  0  0  0  0  0  0  0  0  0
   56.3705   27.1606   46.7421 H   0  0  0  0  0  0  0  0  0  0  0  0
   55.3040   30.0920   45.6490 H   0  0  0  0  0  0  0  0  0  0  0  0
   60.2098   29.4465   46.6762 H   0  0  0  0  0  0  0  0  0  0  0  0
   61.5174   28.4467   48.5464 H   0  0  0  0  0  0  0  0  0  0  0  0
  1  2  1  0
  2  3  1  0
  3  4  2  0
  4  5  1  0
  5  6  2  0
  6  7  1  0
  7  8  1  0
  8  9  2  0
  8 10  1  0
 10 11  1  0
 11 12  1  0
 12 13  2  0
 13 14  1  0
 14 15  2  0
 15 16  1  0
 16 17  1  0
 15 18  1  0
 18 19  2  0
 10 20  1  0
 20 21  1  0
 21 22  2  0
 21 23  1  0
 23 24  1  0
 24 25  2  0
 25 26  1  0
 26 27  2  0
 27 28  1  0
 28 29  2  0
 29 30  1  0
  6 31  1  0
 31 32  2  0
 32  3  1  0
 19 12  1  0
 29 24  1  0
  1 33  1  0
  1 34  1  0
  1 35  1  0
  4 36  1  0
  5 37  1  0
 10 38  1  6
 11 39  1  0
 11 40  1  0
 13 41  1  0
 14 42  1  0
 17 43  1  0
 17 44  1  0
 17 45  1  0
 18 46  1  0
 19 47  1  0
 23 48  1  0
 23 49  1  0
 25 50  1  0
 26 51  1  0
 27 52  1  0
 28 53  1  0
 30 54  1  0
 31 55  1  0
 32 56  1  0
M  CHG  2   7  -1  20  -1
M  END
>  <UniqueID>  (20) 
15

>  <SMILES>  (20) 
COc1ccc([N-]C(=O)[C@@H](Cc2ccc(SC)cc2)[N-]C(=O)Cc2ccccc2O)cc1

>  <Energy>  (20) 
49.981306772696385

>  <Genealogy>  (20) 
COc1ccc([N-]C(=O)C(Cc2ccc(SC)cc2)[N-]C(=O)Cc2ccccc2O)cc1 (protonated)
COc1ccc([N-]C(=O)[C@@H](Cc2ccc(SC)cc2)[N-]C(=O)Cc2ccccc2O)cc1 (chirality)
COc1ccc([N-]C(=O)[C@@H](Cc2ccc(SC)cc2)[N-]C(=O)Cc2ccccc2O)cc1 (3D coordinates assigned)
COc1ccc([N-]C(=O)[C@@H](Cc2ccc(SC)cc2)[N-]C(=O)Cc2ccccc2O)cc1 (optimized conformer: 49.981306772696385 kcal/mol)

>  <smiles>  (20) 
COc1ccc(NC(=O)C(Cc2ccc(SC)cc2)NC(=O)Cc2ccccc2O)cc1

>  <score_type>  (20) 
oracle

>  <origin>  (20) 
adg

>  <m_score__min__energy>  (20) 
-11.9

>  <m_primary>  (20) 
energy

$$$$
20:0
     RDKit          3D

 29 30  0  0  0  0  0  0  0  0999 V2000
   59.2020   33.1890   46.0620 C   0  0  0  0  0  0  0  0  0  0  0  0
   57.6710   32.8230   45.2360 S   0  0  0  0  0  0  0  0  0  0  0  0
   56.6190   33.7790   45.7270 O   0  0  0  0  0  0  0  0  0  0  0  0
   57.8640   32.9810   43.7540 O   0  0  0  0  0  0  0  0  0  0  0  0
   57.2140   31.1920   45.6080 N   0  0  0  0  0  0  0  0  0  0  0  0
   57.9600   29.9900   45.3530 C   0  0  0  0  0  0  0  0  0  0  0  0
   59.3510   30.0560   45.4970 C   0  0  0  0  0  0  0  0  0  0  0  0
   60.1450   28.9300   45.2820 C   0  0  0  0  0  0  0  0  0  0  0  0
   59.5600   27.7200   44.9140 C   0  0  0  0  0  0  0  0  0  0  0  0
   58.1710   27.6280   44.7410 C   0  0  0  0  0  0  0  0  0  0  0  0
   57.5510   26.3070   44.3600 C   0  0  0  0  0  0  0  0  0  0  0  0
   57.1160   25.5600   45.5860 C   0  0  0  0  0  0  0  0  0  0  0  0
   57.7990   24.5270   46.1100 N   0  0  0  0  0  0  0  0  0  0  0  0
   57.0220   24.1260   47.1380 C   0  0  0  0  0  0  0  0  0  0  0  0
   57.3350   23.1660   47.8890 O   0  0  0  0  0  0  0  0  0  0  0  0
   55.8830   24.8320   47.2960 N   0  0  0  0  0  0  0  0  0  0  0  0
   55.9510   25.7340   46.3030 C   0  0  0  0  0  0  0  0  0  0  0  0
   54.9640   26.6880   46.0710 O   0  0  0  0  0  0  0  0  0  0  0  0
   57.3660   28.7680   44.9560 C   0  0  0  0  0  0  0  0  0  0  0  0
   55.9940   28.6720   44.7530 O   0  0  0  0  0  0  0  0  0  0  0  0
   59.0491   33.1524   47.1507 H   0  0  0  0  0  0  0  0  0  0  0  0
   59.9609   32.4470   45.7732 H   0  0  0  0  0  0  0  0  0  0  0  0
   59.5433   34.1940   45.7732 H   0  0  0  0  0  0  0  0  0  0  0  0
   59.8232   31.0074   45.7831 H   0  0  0  0  0  0  0  0  0  0  0  0
   61.2362   28.9971   45.4032 H   0  0  0  0  0  0  0  0  0  0  0  0
   60.1907   26.8323   44.7584 H   0  0  0  0  0  0  0  0  0  0  0  0
   56.6770   26.4889   43.7173 H   0  0  0  0  0  0  0  0  0  0  0  0
   58.2976   25.7047   43.8216 H   0  0  0  0  0  0  0  0  0  0  0  0
   55.1440   27.5160   45.5170 H   0  0  0  0  0  0  0  0  0  0  0  0
  1  2  1  0
  2  3  2  0
  2  4  2  0
  2  5  1  0
  5  6  1  0
  6  7  2  0
  7  8  1  0
  8  9  2  0
  9 10  1  0
 10 11  1  0
 11 12  1  0
 12 13  1  0
 13 14  1  0
 14 15  2  0
 14 16  1  0
 16 17  1  0
 17 18  1  0
 10 19  2  0
 19 20  1  0
 19  6  1  0
 17 12  2  0
  1 21  1  0
  1 22  1  0
  1 23  1  0
  7 24  1  0
  8 25  1  0
  9 26  1  0
 11 27  1  0
 11 28  1  0
 18 29  1  0
M  CHG  4   5  -1  13  -1  16  -1  20  -1
M  END
>  <UniqueID>  (21) 
16

>  <SMILES>  (21) 
CS(=O)(=O)[N-]c1cccc(Cc2[n-]c(=O)[n-]c2O)c1[O-]

>  <Energy>  (21) 
59.83123196908272

>  <Genealogy>  (21) 
CS(=O)(=O)[N-]c1cccc(Cc2[n-]c(=O)[n-]c2O)c1[O-] (protonated)
CS(=O)(=O)[N-]c1cccc(Cc2[n-]c(=O)[n-]c2O)c1[O-] (3D coordinates assigned)
CS(=O)(=O)[N-]c1cccc(Cc2[n-]c(=O)[n-]c2O)c1[O-] (optimized conformer: 59.83123196908272 kcal/mol)

>  <smiles>  (21) 
CS(=O)(=O)Nc1cccc(Cc2[nH]c(=O)[nH]c2O)c1O

>  <score_type>  (21) 
oracle

>  <origin>  (21) 
adg

>  <m_score__min__energy>  (21) 
-15.800000000000001

>  <m_primary>  (21) 
energy

$$$$
21:0
     RDKit          3D

 45 47  0  0  0  0  0  0  0  0999 V2000
   58.3814   29.0791   49.9203 H   0  0  0  0  0  0  0  0  0  0  0  0
   58.8700   29.0550   48.9350 C   0  0  0  0  0  0  0  0  0  0  0  0
   58.1850   28.6170   47.8460 N   0  0  0  0  0  0  0  0  0  0  0  0
   58.7420   28.5680   46.6040 C   0  0  0  0  0  0  0  0  0  0  0  0
   58.0740   28.1260   45.5740 N   0  0  0  0  0  0  0  0  0  0  0  0
   56.6790   28.2840   45.2450 C   0  0  0  0  0  0  0  0  0  0  0  0
   55.8730   27.3980   45.6350 O   0  0  0  0  0  0  0  0  0  0  0  0
   56.1350   29.4470   44.4590 C   0  0  0  0  0  0  0  0  0  0  0  0
   56.4080   29.3260   43.4003 H   0  0  0  0  0  0  0  0  0  0  0  0
   55.0411   29.4683   44.5723 H   0  0  0  0  0  0  0  0  0  0  0  0
   56.6690   30.6790   44.9420 O   0  0  0  0  0  0  0  0  0  0  0  0
   57.8800   31.2280   44.5030 C   0  0  0  0  0  0  0  0  0  0  0  0
   58.5570   30.6410   43.6160 O   0  0  0  0  0  0  0  0  0  0  0  0
   58.3550   32.5040   45.0830 C   0  0  0  0  0  0  0  0  0  0  0  0
   58.2620   33.6950   44.3420 C   0  0  0  0  0  0  0  0  0  0  0  0
   57.8229   33.6788   43.3336 H   0  0  0  0  0  0  0  0  0  0  0  0
   58.7240   34.8990   44.8790 C   0  0  0  0  0  0  0  0  0  0  0  0
   58.6448   35.8266   44.2931 H   0  0  0  0  0  0  0  0  0  0  0  0
   59.2860   34.9290   46.1570 C   0  0  0  0  0  0  0  0  0  0  0  0
   59.6530   35.8787   46.5735 H   0  0  0  0  0  0  0  0  0  0  0  0
   59.3830   33.7520   46.9090 C   0  0  0  0  0  0  0  0  0  0  0  0
   60.1330   33.7840   48.5010 S   0  0  0  0  0  0  0  0  0  0  0  0
   59.6160   34.9670   49.2710 O   0  0  0  0  0  0  0  0  0  0  0  0
   59.7760   32.5310   49.2530 O   0  0  0  0  0  0  0  0  0  0  0  0
   61.8630   33.9200   48.3160 N   0  0  0  0  0  0  0  0  0  0  0  0
   62.2850   33.5420   46.9690 C   0  0  0  0  0  0  0  0  0  0  0  0
   61.6347   32.7464   46.5764 H   0  0  0  0  0  0  0  0  0  0  0  0
   62.2199   34.3953   46.2779 H   0  0  0  0  0  0  0  0  0  0  0  0
   63.7150   33.0400   47.0890 C   0  0  0  0  0  0  0  0  0  0  0  0
   63.8643   32.1499   46.4602 H   0  0  0  0  0  0  0  0  0  0  0  0
   64.4425   33.7939   46.7537 H   0  0  0  0  0  0  0  0  0  0  0  0
   63.8990   32.6910   48.5570 C   0  0  0  0  0  0  0  0  0  0  0  0
   64.1395   31.6238   48.6716 H   0  0  0  0  0  0  0  0  0  0  0  0
   64.7267   33.2556   49.0109 H   0  0  0  0  0  0  0  0  0  0  0  0
   62.5680   33.0100   49.2180 C   0  0  0  0  0  0  0  0  0  0  0  0
   61.9842   32.0887   49.3606 H   0  0  0  0  0  0  0  0  0  0  0  0
   62.7152   33.4665   50.2079 H   0  0  0  0  0  0  0  0  0  0  0  0
   58.9200   32.5430   46.3710 C   0  0  0  0  0  0  0  0  0  0  0  0
   58.9991   31.6176   46.9604 H   0  0  0  0  0  0  0  0  0  0  0  0
   60.0740   28.9880   46.4340 C   0  0  0  0  0  0  0  0  0  0  0  0
   60.8550   28.9470   44.8570 Cl  0  0  0  0  0  0  0  0  0  0  0  0
   60.7950   29.4410   47.5430 C   0  0  0  0  0  0  0  0  0  0  0  0
   61.8372   29.7717   47.4231 H   0  0  0  0  0  0  0  0  0  0  0  0
   60.1940   29.4740   48.8010 C   0  0  0  0  0  0  0  0  0  0  0  0
   61.0900   30.0330   50.2010 Cl  0  0  0  0  0  0  0  0  0  0  0  0
  1  2  1  0
  2  3  1  0
  3  4  1  0
  4  5  2  0
  5  6  1  0
  6  7  2  0
  6  8  1  0
  8  9  1  0
  8 10  1  0
  8 11  1  0
 11 12  1  0
 12 13  2  0
 12 14  1  0
 14 15  2  0
 15 16  1  0
 15 17  1  0
 17 18  1  0
 17 19  2  0
 19 20  1  0
 19 21  1  0
 21 22  1  0
 22 23  2  0
 22 24  2  0
 22 25  1  0
 25 26  1  0
 26 27  1  0
 26 28  1  0
 26 29  1  0
 29 30  1  0
 29 31  1  0
 29 32  1  0
 32 33  1  0
 32 34  1  0
 32 35  1  0
 35 36  1  0
 35 37  1  0
 21 38  2  0
 38 39  1  0
  4 40  1  0
 40 41  1  0
 40 42  2  0
 42 43  1  0
 42 44  1  0
 44 45  1  0
 44  2  2  0
 38 14  1  0
 35 25  1  0
M  CHG  1   3  -1
M  END
>  <UniqueID>  (22) 
17

>  <SMILES>  (22) 
O=C(COC(=O)c1cccc(S(=O)(=O)N2CCCC2)c1)/N=c1\[n-]cc(Cl)cc1Cl

>  <Energy>  (22) 
50.39657787897113

>  <Genealogy>  (22) 
O=C(COC(=O)c1cccc(S(=O)(=O)N2CCCC2)c1)N=c1[n-]cc(Cl)cc1Cl (protonated)
O=C(COC(=O)c1cccc(S(=O)(=O)N2CCCC2)c1)/N=c1\[n-]cc(Cl)cc1Cl (cis-trans isomerization)
O=C(COC(=O)c1cccc(S(=O)(=O)N2CCCC2)c1)/N=c1\[n-]cc(Cl)cc1Cl (3D coordinates assigned)
O=C(COC(=O)c1cccc(S(=O)(=O)N2CCCC2)c1)/N=c1\[n-]cc(Cl)cc1Cl (nonaromatic ring conformer: 50.39657787897113 kcal/mol)

>  <smiles>  (22) 
O=C(COC(=O)c1cccc(S(=O)(=O)N2CCCC2)c1)N=c1[nH]cc(Cl)cc1Cl

>  <score_type>  (22) 
oracle

>  <origin>  (22) 
adg

>  <m_score__min__energy>  (22) 
-11.65

>  <m_primary>  (22) 
energy

$$$$
22:0
     RDKit          3D

 30 31  0  0  0  0  0  0  0  0999 V2000
   58.4859   32.0249   43.7283 H   0  0  0  0  0  0  0  0  0  0  0  0
   58.5500   31.7900   44.8010 C   0  0  0  0  0  0  0  0  0  0  0  0
   58.1320   30.5800   45.1970 C   0  0  0  0  0  0  0  0  0  0  0  0
   58.7214   30.0676   45.9716 H   0  0  0  0  0  0  0  0  0  0  0  0
   56.7060   29.7440   44.5700 S   0  0  0  0  0  0  0  0  0  0  0  0
   55.5890   30.7350   44.4130 O   0  0  0  0  0  0  0  0  0  0  0  0
   57.0270   29.1590   43.2240 O   0  0  0  0  0  0  0  0  0  0  0  0
   56.1890   28.4680   45.6250 N   0  0  0  0  0  0  0  0  0  0  0  0
   56.6720   27.1180   45.5990 C   0  0  0  0  0  0  0  0  0  0  0  0
   58.0350   26.8200   45.4100 C   0  0  0  0  0  0  0  0  0  0  0  0
   58.7573   27.6339   45.2493 H   0  0  0  0  0  0  0  0  0  0  0  0
   58.4730   25.4920   45.4260 C   0  0  0  0  0  0  0  0  0  0  0  0
   59.5391   25.2639   45.2799 H   0  0  0  0  0  0  0  0  0  0  0  0
   57.5600   24.4550   45.6270 C   0  0  0  0  0  0  0  0  0  0  0  0
   57.9079   23.4116   45.6428 H   0  0  0  0  0  0  0  0  0  0  0  0
   56.2050   24.7420   45.8080 C   0  0  0  0  0  0  0  0  0  0  0  0
   55.4861   23.9237   45.9618 H   0  0  0  0  0  0  0  0  0  0  0  0
   55.7610   26.0680   45.7940 C   0  0  0  0  0  0  0  0  0  0  0  0
   54.4110   26.3410   45.9850 O   0  0  0  0  0  0  0  0  0  0  0  0
   59.0900   32.8310   45.6970 C   0  0  0  0  0  0  0  0  0  0  0  0
   60.3110   32.6410   46.3650 C   0  0  0  0  0  0  0  0  0  0  0  0
   60.8719   31.7053   46.2245 H   0  0  0  0  0  0  0  0  0  0  0  0
   60.8170   33.6360   47.2080 C   0  0  0  0  0  0  0  0  0  0  0  0
   62.4920   33.3810   48.0880 Br  0  0  0  0  0  0  0  0  0  0  0  0
   60.0950   34.8160   47.4080 C   0  0  0  0  0  0  0  0  0  0  0  0
   60.4967   35.6012   48.0653 H   0  0  0  0  0  0  0  0  0  0  0  0
   58.8640   34.9990   46.7740 C   0  0  0  0  0  0  0  0  0  0  0  0
   58.2927   35.9238   46.9423 H   0  0  0  0  0  0  0  0  0  0  0  0
   58.3550   34.0090   45.9250 C   0  0  0  0  0  0  0  0  0  0  0  0
   57.1300   34.2110   45.2990 O   0  0  0  0  0  0  0  0  0  0  0  0
  1  2  1  0
  2  3  2  0
  3  4  1  0
  3  5  1  0
  5  6  2  0
  5  7  2  0
  5  8  1  0
  8  9  1  0
  9 10  2  0
 10 11  1  0
 10 12  1  0
 12 13  1  0
 12 14  2  0
 14 15  1  0
 14 16  1  0
 16 17  1  0
 16 18  2  0
 18 19  1  0
  2 20  1  0
 20 21  2  0
 21 22  1  0
 21 23  1  0
 23 24  1  0
 23 25  2  0
 25 26  1  0
 25 27  1  0
 27 28  1  0
 27 29  2  0
 29 30  1  0
 18  9  1  0
 29 20  1  0
M  CHG  3   8  -1  19  -1  30  -1
M  END
>  <UniqueID>  (23) 
18

>  <SMILES>  (23) 
O=S(=O)(/C=C\c1cc(Br)ccc1[O-])[N-]c1ccccc1[O-]

>  <Energy>  (23) 
38.60822787217889

>  <Genealogy>  (23) 
O=S(=O)(C=Cc1cc(Br)ccc1[O-])[N-]c1ccccc1[O-] (protonated)
O=S(=O)(/C=C\c1cc(Br)ccc1[O-])[N-]c1ccccc1[O-] (cis-trans isomerization)
O=S(=O)(/C=C\c1cc(Br)ccc1[O-])[N-]c1ccccc1[O-] (3D coordinates assigned)
O=S(=O)(/C=C\c1cc(Br)ccc1[O-])[N-]c1ccccc1[O-] (optimized conformer: 38.60822787217889 kcal/mol)

>  <smiles>  (23) 
O=S(=O)(C=Cc1cc(Br)ccc1O)Nc1ccccc1O

>  <score_type>  (23) 
oracle

>  <origin>  (23) 
adg

>  <m_score__min__energy>  (23) 
-15.82

>  <m_primary>  (23) 
energy

$$$$
23:0
     RDKit          3D

 39 41  0  0  0  0  0  0  0  0999 V2000
   54.6910   27.0160   46.8150 H   0  0  0  0  0  0  0  0  0  0  0  0
   55.2190   26.6060   46.0130 N   0  0  0  0  0  0  0  0  0  0  0  0
   56.4830   26.3180   46.0430 C   0  0  0  0  0  0  0  0  0  0  0  0
   56.8590   25.0970   46.5130 N   0  0  0  0  0  0  0  0  0  0  0  0
   58.1560   24.6920   46.5290 C   0  0  0  0  0  0  0  0  0  0  0  0
   58.4175   23.7002   46.9264 H   0  0  0  0  0  0  0  0  0  0  0  0
   59.1550   25.5330   46.0420 C   0  0  0  0  0  0  0  0  0  0  0  0
   60.2050   25.2053   46.0393 H   0  0  0  0  0  0  0  0  0  0  0  0
   58.8090   26.7950   45.5580 C   0  0  0  0  0  0  0  0  0  0  0  0
   59.5891   27.4632   45.1644 H   0  0  0  0  0  0  0  0  0  0  0  0
   57.4730   27.2150   45.5710 C   0  0  0  0  0  0  0  0  0  0  0  0
   57.1530   28.5710   45.0800 C   0  0  0  0  0  0  0  0  0  0  0  0
   58.0440   29.4760   44.6340 N   0  0  0  0  0  0  0  0  0  0  0  0
   59.4310   29.3220   44.4780 N   0  0  0  0  0  0  0  0  0  0  0  0
   59.9970   28.8350   45.2070 H   0  0  0  0  0  0  0  0  0  0  0  0
   59.9220   29.7150   43.6450 H   0  0  0  0  0  0  0  0  0  0  0  0
   57.2910   30.5360   44.2840 C   0  0  0  0  0  0  0  0  0  0  0  0
   57.9280   32.0800   43.6310 S   0  0  0  0  0  0  0  0  0  0  0  0
   57.1650   33.1160   44.9290 C   0  0  0  0  0  0  0  0  0  0  0  0
   56.7602   34.0291   44.4682 H   0  0  0  0  0  0  0  0  0  0  0  0
   56.3627   32.5379   45.4109 H   0  0  0  0  0  0  0  0  0  0  0  0
   58.1730   33.5000   45.9770 C   0  0  0  0  0  0  0  0  0  0  0  0
   58.2120   32.8250   47.2080 C   0  0  0  0  0  0  0  0  0  0  0  0
   57.5181   31.9931   47.3987 H   0  0  0  0  0  0  0  0  0  0  0  0
   59.1290   33.2060   48.1920 C   0  0  0  0  0  0  0  0  0  0  0  0
   59.1520   32.6702   49.1524 H   0  0  0  0  0  0  0  0  0  0  0  0
   60.0180   34.2630   47.9660 C   0  0  0  0  0  0  0  0  0  0  0  0
   60.9190   34.6070   48.9850 O   0  0  0  0  0  0  0  0  0  0  0  0
   62.2680   34.1580   49.0500 C   0  0  0  0  0  0  0  0  0  0  0  0
   62.5706   34.0573   50.1028 H   0  0  0  0  0  0  0  0  0  0  0  0
   62.3544   33.1827   48.5487 H   0  0  0  0  0  0  0  0  0  0  0  0
   62.9216   34.8870   48.5487 H   0  0  0  0  0  0  0  0  0  0  0  0
   59.9770   34.9420   46.7330 C   0  0  0  0  0  0  0  0  0  0  0  0
   60.6705   35.7745   46.5432 H   0  0  0  0  0  0  0  0  0  0  0  0
   59.0590   34.5630   45.7490 C   0  0  0  0  0  0  0  0  0  0  0  0
   59.0315   35.1017   44.7903 H   0  0  0  0  0  0  0  0  0  0  0  0
   55.9800   30.2960   44.4930 N   0  0  0  0  0  0  0  0  0  0  0  0
   55.9050   29.0650   44.9820 N   0  0  0  0  0  0  0  0  0  0  0  0
   55.0150   28.5860   45.2480 H   0  0  0  0  0  0  0  0  0  0  0  0
  1  2  1  0
  2  3  2  0
  3  4  1  0
  4  5  1  0
  5  6  1  0
  5  7  2  0
  7  8  1  0
  7  9  1  0
  9 10  1  0
  9 11  2  0
 11 12  1  0
 12 13  1  0
 13 14  1  0
 14 15  1  0
 14 16  1  0
 13 17  1  0
 17 18  1  0
 18 19  1  0
 19 20  1  0
 19 21  1  0
 19 22  1  0
 22 23  2  0
 23 24  1  0
 23 25  1  0
 25 26  1  0
 25 27  2  0
 27 28  1  0
 28 29  1  0
 29 30  1  0
 29 31  1  0
 29 32  1  0
 27 33  1  0
 33 34  1  0
 33 35  2  0
 35 36  1  0
 17 37  2  0
 37 38  1  0
 38 39  1  0
 11  3  1  0
 38 12  2  0
 35 22  1  0
M  CHG  2   4  -1  38   1
M  END
>  <UniqueID>  (24) 
19

>  <SMILES>  (24) 
[H]/N=c1/[n-]cccc1-c1[nH+]nc(SCc2ccc(OC)cc2)n1N

>  <Energy>  (24) 
81.11423406782477

>  <Genealogy>  (24) 
COc1ccc(CSc2n[nH+]c(-c3ccc[n-]c3=N)n2N)cc1 (protonated)
[H]/N=c1/[n-]cccc1-c1[nH+]nc(SCc2ccc(OC)cc2)n1N (cis-trans isomerization)
[H]/N=c1/[n-]cccc1-c1[nH+]nc(SCc2ccc(OC)cc2)n1N (3D coordinates assigned)
[H]/N=c1/[n-]cccc1-c1[nH+]nc(SCc2ccc(OC)cc2)n1N (optimized conformer: 81.11423406782477 kcal/mol)

>  <smiles>  (24) 
COc1ccc(CSc2nnc(-c3ccc[nH]c3=N)n2N)cc1

>  <score_type>  (24) 
oracle

>  <origin>  (24) 
adg

>  <m_score__min__energy>  (24) 
-9.4000000000000004

>  <m_primary>  (24) 
energy

$$$$
24:0
     RDKit          3D

 58 61  0  0  0  0  0  0  0  0999 V2000
   61.4810   33.5040   50.8150 C   0  0  0  0  0  0  0  0  0  0  0  0
   62.1250   33.4890   49.4550 C   0  0  0  0  0  0  0  0  0  0  0  0
   63.4910   33.1650   49.3610 C   0  0  0  0  0  0  0  0  0  0  0  0
   64.1370   33.1520   48.1260 C   0  0  0  0  0  0  0  0  0  0  0  0
   63.4330   33.4690   46.9660 C   0  0  0  0  0  0  0  0  0  0  0  0
   62.0820   33.8070   47.0380 C   0  0  0  0  0  0  0  0  0  0  0  0
   61.4100   33.8340   48.2760 C   0  0  0  0  0  0  0  0  0  0  0  0
   59.9460   34.2300   48.2980 C   0  0  0  0  0  0  0  0  0  0  0  0
   59.2790   33.9250   47.0180 N   0  0  0  0  0  0  0  0  0  0  0  0
   59.1150   34.9250   46.0990 C   0  0  0  0  0  0  0  0  0  0  0  0
   58.5010   34.6780   44.8740 C   0  0  0  0  0  0  0  0  0  0  0  0
   58.0250   33.4030   44.5910 C   0  0  0  0  0  0  0  0  0  0  0  0
   58.1470   32.3780   45.5380 C   0  0  0  0  0  0  0  0  0  0  0  0
   57.6120   31.0300   45.2240 C   0  0  0  0  0  0  0  0  0  0  0  0
   56.5050   30.9290   44.6270 O   0  0  0  0  0  0  0  0  0  0  0  0
   58.3050   29.8450   45.6490 N   0  0  0  0  0  0  0  0  0  0  0  0
   58.0970   28.5440   45.0710 C   0  0  0  0  0  0  0  0  0  0  0  0
   58.4700   28.2630   43.7440 C   0  0  0  0  0  0  0  0  0  0  0  0
   58.2720   26.9870   43.2120 C   0  0  0  0  0  0  0  0  0  0  0  0
   57.7140   25.9770   43.9990 C   0  0  0  0  0  0  0  0  0  0  0  0
   57.3650   26.2340   45.3300 C   0  0  0  0  0  0  0  0  0  0  0  0
   56.6560   24.9580   46.3160 S   0  0  0  0  0  0  0  0  0  0  0  0
   55.1580   24.9870   46.1850 O   0  0  0  0  0  0  0  0  0  0  0  0
   57.0140   25.2020   47.7560 O   0  0  0  0  0  0  0  0  0  0  0  0
   57.2780   23.4060   45.8140 N   0  0  0  0  0  0  0  0  0  0  0  0
   58.7300   23.4990   45.5690 C   0  0  0  0  0  0  0  0  0  0  0  0
   59.2460   22.2440   44.8350 C   0  0  0  0  0  0  0  0  0  0  0  0
   58.2880   21.2060   44.8740 O   0  0  0  0  0  0  0  0  0  0  0  0
   57.1350   21.5900   44.1450 C   0  0  0  0  0  0  0  0  0  0  0  0
   56.5850   22.9600   44.5970 C   0  0  0  0  0  0  0  0  0  0  0  0
   57.5580   27.5180   45.8620 C   0  0  0  0  0  0  0  0  0  0  0  0
   58.7950   32.6620   46.7620 C   0  0  0  0  0  0  0  0  0  0  0  0
   58.9440   31.7460   47.6170 O   0  0  0  0  0  0  0  0  0  0  0  0
   62.2611   33.4858   51.5903 H   0  0  0  0  0  0  0  0  0  0  0  0
   60.8765   34.4165   50.9244 H   0  0  0  0  0  0  0  0  0  0  0  0
   60.8347   32.6207   50.9244 H   0  0  0  0  0  0  0  0  0  0  0  0
   64.0555   32.9192   50.2725 H   0  0  0  0  0  0  0  0  0  0  0  0
   65.2040   32.8911   48.0670 H   0  0  0  0  0  0  0  0  0  0  0  0
   63.9438   33.4526   45.9919 H   0  0  0  0  0  0  0  0  0  0  0  0
   61.5343   34.0556   46.1170 H   0  0  0  0  0  0  0  0  0  0  0  0
   59.4397   33.6787   49.1041 H   0  0  0  0  0  0  0  0  0  0  0  0
   59.8869   35.3156   48.4654 H   0  0  0  0  0  0  0  0  0  0  0  0
   59.4734   35.9387   46.3312 H   0  0  0  0  0  0  0  0  0  0  0  0
   58.3934   35.4860   44.1354 H   0  0  0  0  0  0  0  0  0  0  0  0
   57.5508   33.1982   43.6198 H   0  0  0  0  0  0  0  0  0  0  0  0
   58.9130   29.9140   46.4960 H   0  0  0  0  0  0  0  0  0  0  0  0
   58.9195   29.0517   43.1228 H   0  0  0  0  0  0  0  0  0  0  0  0
   58.5563   26.7768   42.1704 H   0  0  0  0  0  0  0  0  0  0  0  0
   57.5484   24.9770   43.5717 H   0  0  0  0  0  0  0  0  0  0  0  0
   58.9351   24.3866   44.9525 H   0  0  0  0  0  0  0  0  0  0  0  0
   59.2456   23.5765   46.5376 H   0  0  0  0  0  0  0  0  0  0  0  0
   59.4556   22.5011   43.7862 H   0  0  0  0  0  0  0  0  0  0  0  0
   60.1612   21.8958   45.3362 H   0  0  0  0  0  0  0  0  0  0  0  0
   57.3944   21.6477   43.0776 H   0  0  0  0  0  0  0  0  0  0  0  0
   56.3545   20.8369   44.3288 H   0  0  0  0  0  0  0  0  0  0  0  0
   56.7439   23.6978   43.7968 H   0  0  0  0  0  0  0  0  0  0  0  0
   55.5100   22.8640   44.8096 H   0  0  0  0  0  0  0  0  0  0  0  0
   57.2845   27.7219   46.9078 H   0  0  0  0  0  0  0  0  0  0  0  0
  1  2  1  0
  2  3  2  0
  3  4  1  0
  4  5  2  0
  5  6  1  0
  6  7  2  0
  7  8  1  0
  8  9  1  0
  9 10  1  0
 10 11  2  0
 11 12  1  0
 12 13  2  0
 13 14  1  0
 14 15  2  0
 14 16  1  0
 16 17  1  0
 17 18  2  0
 18 19  1  0
 19 20  2  0
 20 21  1  0
 21 22  1  0
 22 23  2  0
 22 24  2  0
 22 25  1  0
 25 26  1  0
 26 27  1  0
 27 28  1  0
 28 29  1  0
 29 30  1  0
 21 31  2  0
 13 32  1  0
 32 33  2  0
  7  2  1  0
 32  9  1  0
 31 17  1  0
 30 25  1  0
  1 34  1  0
  1 35  1  0
  1 36  1  0
  3 37  1  0
  4 38  1  0
  5 39  1  0
  6 40  1  0
  8 41  1  0
  8 42  1  0
 10 43  1  0
 11 44  1  0
 12 45  1  0
 16 46  1  0
 18 47  1  0
 19 48  1  0
 20 49  1  0
 26 50  1  0
 26 51  1  0
 27 52  1  0
 27 53  1  0
 29 54  1  0
 29 55  1  0
 30 56  1  0
 30 57  1  0
 31 58  1  0
M  END
>  <UniqueID>  (25) 
20

>  <SMILES>  (25) 
Cc1ccccc1Cn1cccc(C(=O)Nc2cccc(S(=O)(=O)N3CCOCC3)c2)c1=O

>  <Energy>  (25) 
79.70879577847664

>  <Genealogy>  (25) 
Cc1ccccc1Cn1cccc(C(=O)Nc2cccc(S(=O)(=O)N3CCOCC3)c2)c1=O (3D coordinates assigned)
Cc1ccccc1Cn1cccc(C(=O)Nc2cccc(S(=O)(=O)N3CCOCC3)c2)c1=O (nonaromatic ring conformer: 79.70879577847664 kcal/mol)

>  <smiles>  (25) 
Cc1ccccc1Cn1cccc(C(=O)Nc2cccc(S(=O)(=O)N3CCOCC3)c2)c1=O

>  <score_type>  (25) 
oracle

>  <origin>  (25) 
adg

>  <m_score__min__energy>  (25) 
-11.609999999999999

>  <m_primary>  (25) 
energy

$$$$
25:0
     RDKit          3D

 43 45  0  0  0  0  0  0  0  0999 V2000
   55.1090   30.1070   43.3720 O   0  0  0  0  0  0  0  0  0  0  0  0
   56.1490   29.8800   44.0450 C   0  0  0  0  0  0  0  0  0  0  0  0
   57.4570   30.4780   43.5970 C   0  0  0  0  0  0  0  0  0  0  0  0
   57.8860   31.5930   44.5130 C   0  0  0  0  0  0  0  0  0  0  0  0
   57.7700   32.9340   44.1110 C   0  0  0  0  0  0  0  0  0  0  0  0
   58.1950   33.9640   44.9560 C   0  0  0  0  0  0  0  0  0  0  0  0
   58.7310   33.6640   46.2110 C   0  0  0  0  0  0  0  0  0  0  0  0
   59.2680   34.9590   47.2680 Cl  0  0  0  0  0  0  0  0  0  0  0  0
   58.8420   32.3320   46.6220 C   0  0  0  0  0  0  0  0  0  0  0  0
   58.4220   31.3010   45.7780 C   0  0  0  0  0  0  0  0  0  0  0  0
   56.0370   29.1030   45.2470 N   0  0  0  0  0  0  0  0  0  0  0  0
   56.7960   27.9240   45.5280 C   0  0  0  0  0  0  0  0  0  0  0  0
   58.1920   27.9780   45.4420 C   0  0  0  0  0  0  0  0  0  0  0  0
   58.9560   26.8370   45.6950 C   0  0  0  0  0  0  0  0  0  0  0  0
   58.3310   25.6400   46.0530 C   0  0  0  0  0  0  0  0  0  0  0  0
   56.9330   25.5750   46.1750 C   0  0  0  0  0  0  0  0  0  0  0  0
   56.2920   24.2730   46.5900 C   0  0  0  0  0  0  0  0  0  0  0  0
   55.5130   23.6970   45.4710 N   0  0  0  0  0  0  0  0  0  0  0  0
   55.6110   22.2310   45.4640 C   0  0  0  0  0  0  0  0  0  0  0  0
   56.7960   21.8490   44.5920 C   0  0  0  0  0  0  0  0  0  0  0  0
   57.0440   23.0530   43.7030 C   0  0  0  0  0  0  0  0  0  0  0  0
   56.0520   24.1130   44.1650 C   0  0  0  0  0  0  0  0  0  0  0  0
   56.1640   26.7320   45.9250 C   0  0  0  0  0  0  0  0  0  0  0  0
   54.7820   26.7050   46.0890 O   0  0  0  0  0  0  0  0  0  0  0  0
   58.2293   29.6947   43.5986 H   0  0  0  0  0  0  0  0  0  0  0  0
   57.3246   30.8889   42.5852 H   0  0  0  0  0  0  0  0  0  0  0  0
   57.3427   33.1751   43.1265 H   0  0  0  0  0  0  0  0  0  0  0  0
   58.1072   35.0116   44.6323 H   0  0  0  0  0  0  0  0  0  0  0  0
   59.2607   32.0956   47.6114 H   0  0  0  0  0  0  0  0  0  0  0  0
   58.5116   30.2548   46.1059 H   0  0  0  0  0  0  0  0  0  0  0  0
   58.6887   28.9222   45.1743 H   0  0  0  0  0  0  0  0  0  0  0  0
   60.0520   26.8807   45.6123 H   0  0  0  0  0  0  0  0  0  0  0  0
   58.9379   24.7420   46.2407 H   0  0  0  0  0  0  0  0  0  0  0  0
   57.0769   23.5622   46.8879 H   0  0  0  0  0  0  0  0  0  0  0  0
   55.6128   24.4647   47.4338 H   0  0  0  0  0  0  0  0  0  0  0  0
   55.7656   21.8614   46.4884 H   0  0  0  0  0  0  0  0  0  0  0  0
   54.6851   21.7858   45.0709 H   0  0  0  0  0  0  0  0  0  0  0  0
   57.6797   21.6400   45.2129 H   0  0  0  0  0  0  0  0  0  0  0  0
   56.5970   20.9402   44.0051 H   0  0  0  0  0  0  0  0  0  0  0  0
   58.0760   23.4139   43.8240 H   0  0  0  0  0  0  0  0  0  0  0  0
   56.9123   22.8079   42.6388 H   0  0  0  0  0  0  0  0  0  0  0  0
   56.5616   25.0828   44.2638 H   0  0  0  0  0  0  0  0  0  0  0  0
   55.2379   24.2180   43.4327 H   0  0  0  0  0  0  0  0  0  0  0  0
  1  2  2  0
  2  3  1  0
  3  4  1  0
  4  5  2  0
  5  6  1  0
  6  7  2  0
  7  8  1  0
  7  9  1  0
  9 10  2  0
  2 11  1  0
 11 12  1  0
 12 13  2  0
 13 14  1  0
 14 15  2  0
 15 16  1  0
 16 17  1  0
 17 18  1  0
 18 19  1  0
 19 20  1  0
 20 21  1  0
 21 22  1  0
 16 23  2  0
 23 24  1  0
 10  4  1  0
 23 12  1  0
 22 18  1  0
  3 25  1  0
  3 26  1  0
  5 27  1  0
  6 28  1  0
  9 29  1  0
 10 30  1  0
 13 31  1  0
 14 32  1  0
 15 33  1  0
 17 34  1  0
 17 35  1  0
 19 36  1  0
 19 37  1  0
 20 38  1  0
 20 39  1  0
 21 40  1  0
 21 41  1  0
 22 42  1  0
 22 43  1  0
M  CHG  2  11  -1  24  -1
M  END
>  <UniqueID>  (26) 
21

>  <SMILES>  (26) 
O=C(Cc1ccc(Cl)cc1)[N-]c1cccc(CN2CCCC2)c1[O-]

>  <Energy>  (26) 
51.51509367405034

>  <Genealogy>  (26) 
O=C(Cc1ccc(Cl)cc1)[N-]c1cccc(CN2CCCC2)c1[O-] (protonated)
O=C(Cc1ccc(Cl)cc1)[N-]c1cccc(CN2CCCC2)c1[O-] (3D coordinates assigned)
O=C(Cc1ccc(Cl)cc1)[N-]c1cccc(CN2CCCC2)c1[O-] (nonaromatic ring conformer: 51.51509367405034 kcal/mol)

>  <smiles>  (26) 
O=C(Cc1ccc(Cl)cc1)Nc1cccc(CN2CCCC2)c1O

>  <score_type>  (26) 
oracle

>  <origin>  (26) 
adg

>  <m_score__min__energy>  (26) 
-14.699999999999999

>  <m_primary>  (26) 
energy

$$$$
26:0
     RDKit          3D

 48 51  0  0  0  0  0  0  0  0999 V2000
   58.1220   34.1770   47.8450 O   0  0  0  0  0  0  0  0  0  0  0  0
   58.0970   33.2290   47.0160 C   0  0  0  0  0  0  0  0  0  0  0  0
   57.0730   33.1480   46.1340 N   0  0  0  0  0  0  0  0  0  0  0  0
   57.0040   32.1720   45.2320 N   0  0  0  0  0  0  0  0  0  0  0  0
   57.9580   31.2090   45.1300 C   0  0  0  0  0  0  0  0  0  0  0  0
   57.7710   30.1410   44.0760 C   0  0  0  0  0  0  0  0  0  0  0  0
   57.6730   28.7570   44.6790 C   0  0  0  0  0  0  0  0  0  0  0  0
   58.8380   27.9940   44.8660 C   0  0  0  0  0  0  0  0  0  0  0  0
   58.7660   26.7110   45.4070 C   0  0  0  0  0  0  0  0  0  0  0  0
   57.5360   26.1850   45.8010 C   0  0  0  0  0  0  0  0  0  0  0  0
   56.3710   26.9500   45.6850 C   0  0  0  0  0  0  0  0  0  0  0  0
   55.1400   26.3990   46.1630 N   0  0  0  0  0  0  0  0  0  0  0  0
   54.7020   24.7300   45.9780 S   0  0  0  0  0  0  0  0  0  0  0  0
   55.2330   23.9100   47.1190 O   0  0  0  0  0  0  0  0  0  0  0  0
   53.2020   24.6350   45.9760 O   0  0  0  0  0  0  0  0  0  0  0  0
   55.2810   24.1260   44.4590 N   0  0  0  0  0  0  0  0  0  0  0  0
   56.3980   23.2420   44.3570 C   0  0  0  0  0  0  0  0  0  0  0  0
   57.4280   23.3300   45.3040 C   0  0  0  0  0  0  0  0  0  0  0  0
   58.5140   22.4520   45.2470 C   0  0  0  0  0  0  0  0  0  0  0  0
   58.5880   21.4960   44.2310 C   0  0  0  0  0  0  0  0  0  0  0  0
   57.5820   21.4240   43.2650 C   0  0  0  0  0  0  0  0  0  0  0  0
   56.4900   22.2970   43.3190 C   0  0  0  0  0  0  0  0  0  0  0  0
   55.5130   22.2310   42.3330 O   0  0  0  0  0  0  0  0  0  0  0  0
   56.4330   28.2310   45.1030 C   0  0  0  0  0  0  0  0  0  0  0  0
   55.2700   28.9730   44.9390 O   0  0  0  0  0  0  0  0  0  0  0  0
   59.0680   31.2440   46.0100 C   0  0  0  0  0  0  0  0  0  0  0  0
   59.1120   32.2600   46.9970 C   0  0  0  0  0  0  0  0  0  0  0  0
   60.2730   32.3790   47.9640 C   0  0  0  0  0  0  0  0  0  0  0  0
   61.0460   31.0700   48.1200 C   0  0  0  0  0  0  0  0  0  0  0  0
   61.3920   30.5040   46.7480 C   0  0  0  0  0  0  0  0  0  0  0  0
   60.1180   30.1480   45.9800 C   0  0  0  0  0  0  0  0  0  0  0  0
   56.8464   30.3511   43.5183 H   0  0  0  0  0  0  0  0  0  0  0  0
   58.6496   30.1607   43.4144 H   0  0  0  0  0  0  0  0  0  0  0  0
   59.8152   28.4125   44.5832 H   0  0  0  0  0  0  0  0  0  0  0  0
   59.6815   26.1123   45.5233 H   0  0  0  0  0  0  0  0  0  0  0  0
   57.4818   25.1633   46.2050 H   0  0  0  0  0  0  0  0  0  0  0  0
   57.3813   24.0930   46.0950 H   0  0  0  0  0  0  0  0  0  0  0  0
   59.3110   22.5138   46.0027 H   0  0  0  0  0  0  0  0  0  0  0  0
   59.4388   20.7998   44.1919 H   0  0  0  0  0  0  0  0  0  0  0  0
   57.6484   20.6784   42.4590 H   0  0  0  0  0  0  0  0  0  0  0  0
   60.9618   33.1526   47.5937 H   0  0  0  0  0  0  0  0  0  0  0  0
   59.8598   32.6407   48.9493 H   0  0  0  0  0  0  0  0  0  0  0  0
   61.9733   31.2588   48.6808 H   0  0  0  0  0  0  0  0  0  0  0  0
   60.4230   30.3447   48.6639 H   0  0  0  0  0  0  0  0  0  0  0  0
   61.9600   31.2548   46.1791 H   0  0  0  0  0  0  0  0  0  0  0  0
   61.9947   29.5933   46.8799 H   0  0  0  0  0  0  0  0  0  0  0  0
   60.3866   29.9515   44.9316 H   0  0  0  0  0  0  0  0  0  0  0  0
   59.6799   29.2660   46.4701 H   0  0  0  0  0  0  0  0  0  0  0  0
  1  2  2  0
  2  3  1  0
  3  4  1  0
  4  5  2  0
  5  6  1  0
  6  7  1  0
  7  8  2  0
  8  9  1  0
  9 10  2  0
 10 11  1  0
 11 12  1  0
 12 13  1  0
 13 14  2  0
 13 15  2  0
 13 16  1  0
 16 17  1  0
 17 18  2  0
 18 19  1  0
 19 20  2  0
 20 21  1  0
 21 22  2  0
 22 23  1  0
 11 24  2  0
 24 25  1  0
  5 26  1  0
 26 27  2  0
 27 28  1  0
 28 29  1  0
 29 30  1  0
 30 31  1  0
 27  2  1  0
 24  7  1  0
 31 26  1  0
 22 17  1  0
  6 32  1  0
  6 33  1  0
  8 34  1  0
  9 35  1  0
 10 36  1  0
 18 37  1  0
 19 38  1  0
 20 39  1  0
 21 40  1  0
 28 41  1  0
 28 42  1  0
 29 43  1  0
 29 44  1  0
 30 45  1  0
 30 46  1  0
 31 47  1  0
 31 48  1  0
M  CHG  5   3  -1  12  -1  16  -1  23  -1  25  -1
M  END
>  <UniqueID>  (27) 
22

>  <SMILES>  (27) 
O=c1[n-]nc(Cc2cccc([N-]S(=O)(=O)[N-]c3ccccc3[O-])c2[O-])c2c1CCCC2

>  <Energy>  (27) 
68.48666139199904

>  <Genealogy>  (27) 
O=c1[n-]nc(Cc2cccc([N-]S(=O)(=O)[N-]c3ccccc3[O-])c2[O-])c2c1CCCC2 (protonated)
O=c1[n-]nc(Cc2cccc([N-]S(=O)(=O)[N-]c3ccccc3[O-])c2[O-])c2c1CCCC2 (3D coordinates assigned)
O=c1[n-]nc(Cc2cccc([N-]S(=O)(=O)[N-]c3ccccc3[O-])c2[O-])c2c1CCCC2 (nonaromatic ring conformer: 68.48666139199904 kcal/mol)

>  <smiles>  (27) 
O=c1[nH]nc(Cc2cccc(NS(=O)(=O)Nc3ccccc3O)c2O)c2c1CCCC2

>  <score_type>  (27) 
oracle

>  <origin>  (27) 
adg

>  <m_score__min__energy>  (27) 
-19.809999999999999

>  <m_primary>  (27) 
energy

$$$$
27:0
     RDKit          3D

 80 84  0  0  0  0  0  0  0  0999 V2000
   62.8880   32.5880   49.8450 N   0  0  0  0  0  0  0  0  0  0  0  0
   62.6500   31.1840   49.5140 C   0  0  0  0  0  0  0  0  0  0  0  0
   61.9000   30.4810   50.6230 C   0  0  0  0  0  0  0  0  0  0  0  0
   61.9650   30.9740   51.9350 C   0  0  0  0  0  0  0  0  0  0  0  0
   61.2880   30.3220   52.9660 C   0  0  0  0  0  0  0  0  0  0  0  0
   60.5300   29.1720   52.7050 C   0  0  0  0  0  0  0  0  0  0  0  0
   59.7140   28.5370   53.8020 C   0  0  0  0  0  0  0  0  0  0  0  0
   58.5510   27.8710   53.2250 N   0  0  0  0  0  0  0  0  0  0  0  0
   57.2390   28.3990   53.4140 C   0  0  0  0  0  0  0  0  0  0  0  0
   56.5850   28.0980   54.4570 O   0  0  0  0  0  0  0  0  0  0  0  0
   56.6610   29.3560   52.4090 C   0  0  1  0  0  0  0  0  0  0  0  0
   55.7810   30.4330   53.0750 C   0  0  0  0  0  0  0  0  0  0  0  0
   54.3390   30.4040   52.6240 C   0  0  0  0  0  0  0  0  0  0  0  0
   53.9940   30.7910   51.3160 C   0  0  0  0  0  0  0  0  0  0  0  0
   52.6520   30.8070   50.9140 C   0  0  0  0  0  0  0  0  0  0  0  0
   51.6460   30.4360   51.8090 C   0  0  0  0  0  0  0  0  0  0  0  0
   51.9780   30.0420   53.1060 C   0  0  0  0  0  0  0  0  0  0  0  0
   53.3180   30.0210   53.5140 C   0  0  0  0  0  0  0  0  0  0  0  0
   57.7530   29.9320   51.6190 N   0  0  0  0  0  0  0  0  0  0  0  0
   57.7940   31.2300   51.0050 C   0  0  0  0  0  0  0  0  0  0  0  0
   57.1520   32.1730   51.5400 O   0  0  0  0  0  0  0  0  0  0  0  0
   58.5080   31.4810   49.7410 C   0  0  0  0  0  0  0  0  0  0  0  0
   59.1740   32.6920   49.5200 C   0  0  0  0  0  0  0  0  0  0  0  0
   59.9650   32.8750   48.3760 C   0  0  0  0  0  0  0  0  0  0  0  0
   60.7740   34.1050   48.2180 C   0  0  0  0  0  0  0  0  0  0  0  0
   61.3980   34.5840   49.2040 O   0  0  0  0  0  0  0  0  0  0  0  0
   60.8120   34.7850   46.9580 N   0  0  0  0  0  0  0  0  0  0  0  0
   59.6470   35.4470   46.3860 C   0  0  0  0  0  0  0  0  0  0  0  0
   58.8090   34.4330   45.6570 C   0  0  0  0  0  0  0  0  0  0  0  0
   57.6920   33.8440   46.2810 C   0  0  0  0  0  0  0  0  0  0  0  0
   56.9920   32.8130   45.6400 C   0  0  0  0  0  0  0  0  0  0  0  0
   57.4000   32.3670   44.3770 C   0  0  0  0  0  0  0  0  0  0  0  0
   58.5060   32.9510   43.7500 C   0  0  0  0  0  0  0  0  0  0  0  0
   59.2080   33.9810   44.3870 C   0  0  0  0  0  0  0  0  0  0  0  0
   60.0340   31.8420   47.4230 C   0  0  0  0  0  0  0  0  0  0  0  0
   59.3250   30.6470   47.6100 C   0  0  0  0  0  0  0  0  0  0  0  0
   59.3950   29.5990   46.6360 N   0  0  0  0  0  0  0  0  0  0  0  0
   60.5720   29.2890   45.8370 C   0  0  0  0  0  0  0  0  0  0  0  0
   60.1070   28.5780   44.5460 C   0  0  0  0  0  0  0  0  0  0  0  0
   58.7890   27.8400   44.7980 C   0  0  0  0  0  0  0  0  0  0  0  0
   58.0140   28.7410   46.0990 S   0  0  0  0  0  0  0  0  0  0  0  0
   56.9590   29.6790   45.5730 O   0  0  0  0  0  0  0  0  0  0  0  0
   57.4660   27.8310   47.1650 O   0  0  0  0  0  0  0  0  0  0  0  0
   58.5570   30.4770   48.7640 C   0  0  0  0  0  0  0  0  0  0  0  0
   60.4770   28.6690   51.3950 C   0  0  0  0  0  0  0  0  0  0  0  0
   61.1750   29.3020   50.3640 C   0  0  0  0  0  0  0  0  0  0  0  0
   61.1440   28.7660   49.1180 F   0  0  0  0  0  0  0  0  0  0  0  0
   62.9270   33.1410   48.9560 H   0  0  0  0  0  0  0  0  0  0  0  0
   62.0820   32.9490   50.4080 H   0  0  0  0  0  0  0  0  0  0  0  0
   62.0575   31.1288   48.5889 H   0  0  0  0  0  0  0  0  0  0  0  0
   63.6225   30.6874   49.3815 H   0  0  0  0  0  0  0  0  0  0  0  0
   62.5523   31.8785   52.1516 H   0  0  0  0  0  0  0  0  0  0  0  0
   61.3495   30.7135   53.9921 H   0  0  0  0  0  0  0  0  0  0  0  0
   60.3305   27.7992   54.3364 H   0  0  0  0  0  0  0  0  0  0  0  0
   59.3784   29.3145   54.5040 H   0  0  0  0  0  0  0  0  0  0  0  0
   55.9880   28.8083   51.7329 H   0  0  0  0  0  0  0  0  0  0  0  0
   55.8074   30.2784   54.1638 H   0  0  0  0  0  0  0  0  0  0  0  0
   56.1904   31.4103   52.7795 H   0  0  0  0  0  0  0  0  0  0  0  0
   54.7817   31.0824   50.6056 H   0  0  0  0  0  0  0  0  0  0  0  0
   52.3898   31.1127   49.8904 H   0  0  0  0  0  0  0  0  0  0  0  0
   50.5929   30.4543   51.4919 H   0  0  0  0  0  0  0  0  0  0  0  0
   51.1856   29.7472   53.8097 H   0  0  0  0  0  0  0  0  0  0  0  0
   53.5737   29.7034   54.5356 H   0  0  0  0  0  0  0  0  0  0  0  0
   59.0762   33.5084   50.2507 H   0  0  0  0  0  0  0  0  0  0  0  0
   59.0527   35.9053   47.1902 H   0  0  0  0  0  0  0  0  0  0  0  0
   59.9740   36.2286   45.6845 H   0  0  0  0  0  0  0  0  0  0  0  0
   57.3688   34.1937   47.2726 H   0  0  0  0  0  0  0  0  0  0  0  0
   56.1208   32.3535   46.1297 H   0  0  0  0  0  0  0  0  0  0  0  0
   56.8501   31.5561   43.8769 H   0  0  0  0  0  0  0  0  0  0  0  0
   58.8238   32.6009   42.7568 H   0  0  0  0  0  0  0  0  0  0  0  0
   60.0765   34.4392   43.8912 H   0  0  0  0  0  0  0  0  0  0  0  0
   60.6508   31.9734   46.5217 H   0  0  0  0  0  0  0  0  0  0  0  0
   61.1025   30.2177   45.5800 H   0  0  0  0  0  0  0  0  0  0  0  0
   61.2548   28.6387   46.4035 H   0  0  0  0  0  0  0  0  0  0  0  0
   59.9598   29.3249   43.7520 H   0  0  0  0  0  0  0  0  0  0  0  0
   60.8737   27.8515   44.2386 H   0  0  0  0  0  0  0  0  0  0  0  0
   58.1618   27.8465   43.8944 H   0  0  0  0  0  0  0  0  0  0  0  0
   58.9470   26.7834   45.0600 H   0  0  0  0  0  0  0  0  0  0  0  0
   57.9860   29.5478   48.9074 H   0  0  0  0  0  0  0  0  0  0  0  0
   59.8813   27.7698   51.1792 H   0  0  0  0  0  0  0  0  0  0  0  0
  1  2  1  0
  2  3  1  0
  3  4  2  0
  4  5  1  0
  5  6  2  0
  6  7  1  0
  7  8  1  0
  8  9  1  0
  9 10  2  0
  9 11  1  0
 11 12  1  0
 12 13  1  0
 13 14  2  0
 14 15  1  0
 15 16  2  0
 16 17  1  0
 17 18  2  0
 11 19  1  0
 19 20  1  0
 20 21  2  0
 20 22  1  0
 22 23  2  0
 23 24  1  0
 24 25  1  0
 25 26  2  0
 25 27  1  0
 27 28  1  0
 28 29  1  0
 29 30  2  0
 30 31  1  0
 31 32  2  0
 32 33  1  0
 33 34  2  0
 24 35  2  0
 35 36  1  0
 36 37  1  0
 37 38  1  0
 38 39  1  0
 39 40  1  0
 40 41  1  0
 41 42  2  0
 41 43  2  0
 36 44  2  0
  6 45  1  0
 45 46  2  0
 46 47  1  0
 46  3  1  0
 18 13  1  0
 44 22  1  0
 34 29  1  0
 41 37  1  0
  1 48  1  0
  1 49  1  0
  2 50  1  0
  2 51  1  0
  4 52  1  0
  5 53  1  0
  7 54  1  0
  7 55  1  0
 11 56  1  6
 12 57  1  0
 12 58  1  0
 14 59  1  0
 15 60  1  0
 16 61  1  0
 17 62  1  0
 18 63  1  0
 23 64  1  0
 28 65  1  0
 28 66  1  0
 30 67  1  0
 31 68  1  0
 32 69  1  0
 33 70  1  0
 34 71  1  0
 35 72  1  0
 38 73  1  0
 38 74  1  0
 39 75  1  0
 39 76  1  0
 40 77  1  0
 40 78  1  0
 44 79  1  0
 45 80  1  0
M  CHG  3   8  -1  19  -1  27  -1
M  END
>  <UniqueID>  (28) 
23

>  <SMILES>  (28) 
NCc1ccc(C[N-]C(=O)[C@@H](Cc2ccccc2)[N-]C(=O)c2cc(C(=O)[N-]Cc3ccccc3)cc(N3CCCS3(=O)=O)c2)cc1F

>  <Energy>  (28) 
95.27032720809176

>  <Genealogy>  (28) 
NCc1ccc(C[N-]C(=O)C(Cc2ccccc2)[N-]C(=O)c2cc(C(=O)[N-]Cc3ccccc3)cc(N3CCCS3(=O)=O)c2)cc1F (protonated)
NCc1ccc(C[N-]C(=O)[C@@H](Cc2ccccc2)[N-]C(=O)c2cc(C(=O)[N-]Cc3ccccc3)cc(N3CCCS3(=O)=O)c2)cc1F (chirality)
NCc1ccc(C[N-]C(=O)[C@@H](Cc2ccccc2)[N-]C(=O)c2cc(C(=O)[N-]Cc3ccccc3)cc(N3CCCS3(=O)=O)c2)cc1F (3D coordinates assigned)
NCc1ccc(C[N-]C(=O)[C@@H](Cc2ccccc2)[N-]C(=O)c2cc(C(=O)[N-]Cc3ccccc3)cc(N3CCCS3(=O)=O)c2)cc1F (nonaromatic ring conformer: 95.27032720809176 kcal/mol)

>  <smiles>  (28) 
NCc1ccc(CNC(=O)C(Cc2ccccc2)NC(=O)c2cc(C(=O)NCc3ccccc3)cc(N3CCCS3(=O)=O)c2)cc1F

>  <score_type>  (28) 
oracle

>  <origin>  (28) 
adg

>  <m_score__min__energy>  (28) 
-15.199999999999999

>  <m_primary>  (28) 
energy

$$$$
28:0
     RDKit          3D

 42 45  0  0  0  0  0  0  0  0999 V2000
   57.3960   32.2170   43.1300 O   0  0  0  0  0  0  0  0  0  0  0  0
   57.2520   31.4000   44.0790 C   0  0  0  0  0  0  0  0  0  0  0  0
   56.3850   30.1950   43.8860 C   0  0  0  0  0  0  0  0  0  0  0  0
   56.8880   29.0690   44.7310 C   0  0  0  0  0  0  0  0  0  0  0  0
   56.0060   28.1560   45.2450 N   0  0  0  0  0  0  0  0  0  0  0  0
   56.4360   27.0990   45.9880 C   0  0  0  0  0  0  0  0  0  0  0  0
   55.6110   26.2710   46.4560 O   0  0  0  0  0  0  0  0  0  0  0  0
   57.7990   26.9620   46.2100 C   0  0  0  0  0  0  0  0  0  0  0  0
   58.6510   25.7920   47.0640 S   0  0  0  0  0  0  0  0  0  0  0  0
   60.1750   26.4660   46.7520 C   0  0  0  0  0  0  0  0  0  0  0  0
   60.0200   27.6140   45.9760 C   0  0  0  0  0  0  0  0  0  0  0  0
   58.6810   27.8780   45.6810 C   0  0  0  0  0  0  0  0  0  0  0  0
   58.2310   28.9230   44.9420 N   0  0  0  0  0  0  0  0  0  0  0  0
   57.9120   31.6130   45.3370 N   0  0  0  0  0  0  0  0  0  0  0  0
   58.5850   32.8320   45.6970 C   0  0  0  0  0  0  0  0  0  0  0  0
   58.5980   33.9420   44.8360 C   0  0  0  0  0  0  0  0  0  0  0  0
   59.2520   35.1170   45.2140 C   0  0  0  0  0  0  0  0  0  0  0  0
   59.8790   35.2030   46.4580 C   0  0  0  0  0  0  0  0  0  0  0  0
   59.8370   34.1220   47.3490 C   0  0  0  0  0  0  0  0  0  0  0  0
   60.5030   34.2270   48.6200 N   0  0  0  0  0  0  0  0  0  0  0  0
   61.8590   33.8160   48.8640 C   0  0  0  0  0  0  0  0  0  0  0  0
   62.4230   33.8860   50.1530 C   0  0  0  0  0  0  0  0  0  0  0  0
   63.7510   33.5050   50.3610 C   0  0  0  0  0  0  0  0  0  0  0  0
   64.5330   33.0680   49.2880 C   0  0  0  0  0  0  0  0  0  0  0  0
   63.9870   33.0190   48.0020 C   0  0  0  0  0  0  0  0  0  0  0  0
   62.6590   33.3990   47.7890 C   0  0  0  0  0  0  0  0  0  0  0  0
   59.1970   32.9320   46.9560 C   0  0  0  0  0  0  0  0  0  0  0  0
   55.3524   30.4375   44.1776 H   0  0  0  0  0  0  0  0  0  0  0  0
   56.4104   29.8948   42.8281 H   0  0  0  0  0  0  0  0  0  0  0  0
   61.1347   26.0614   47.1059 H   0  0  0  0  0  0  0  0  0  0  0  0
   60.8574   28.2405   45.6350 H   0  0  0  0  0  0  0  0  0  0  0  0
   57.9790   30.8030   45.9950 H   0  0  0  0  0  0  0  0  0  0  0  0
   58.0916   33.8857   43.8611 H   0  0  0  0  0  0  0  0  0  0  0  0
   59.2729   35.9774   44.5290 H   0  0  0  0  0  0  0  0  0  0  0  0
   60.4091   36.1244   46.7407 H   0  0  0  0  0  0  0  0  0  0  0  0
   59.9670   34.6390   49.4180 H   0  0  0  0  0  0  0  0  0  0  0  0
   61.8159   34.2418   50.9985 H   0  0  0  0  0  0  0  0  0  0  0  0
   64.1823   33.5491   51.3719 H   0  0  0  0  0  0  0  0  0  0  0  0
   65.5766   32.7631   49.4553 H   0  0  0  0  0  0  0  0  0  0  0  0
   64.6037   32.6808   47.1562 H   0  0  0  0  0  0  0  0  0  0  0  0
   62.2384   33.3711   46.7730 H   0  0  0  0  0  0  0  0  0  0  0  0
   59.1762   32.0723   47.6419 H   0  0  0  0  0  0  0  0  0  0  0  0
  1  2  2  0
  2  3  1  0
  3  4  1  0
  4  5  2  0
  5  6  1  0
  6  7  2  0
  6  8  1  0
  8  9  1  0
  9 10  1  0
 10 11  2  0
 11 12  1  0
 12 13  1  0
  2 14  1  0
 14 15  1  0
 15 16  2  0
 16 17  1  0
 17 18  2  0
 18 19  1  0
 19 20  1  0
 20 21  1  0
 21 22  2  0
 22 23  1  0
 23 24  2  0
 24 25  1  0
 25 26  2  0
 19 27  2  0
 13  4  1  0
 27 15  1  0
 12  8  2  0
 26 21  1  0
  3 28  1  0
  3 29  1  0
 10 30  1  0
 11 31  1  0
 14 32  1  0
 16 33  1  0
 17 34  1  0
 18 35  1  0
 20 36  1  0
 22 37  1  0
 23 38  1  0
 24 39  1  0
 25 40  1  0
 26 41  1  0
 27 42  1  0
M  CHG  1  13  -1
M  END
>  <UniqueID>  (29) 
24

>  <SMILES>  (29) 
O=C(Cc1nc(=O)c2sccc2[n-]1)Nc1cccc(Nc2ccccc2)c1

>  <Energy>  (29) 
86.08820001346393

>  <Genealogy>  (29) 
O=C(Cc1nc(=O)c2sccc2[n-]1)Nc1cccc(Nc2ccccc2)c1 (protonated)
O=C(Cc1nc(=O)c2sccc2[n-]1)Nc1cccc(Nc2ccccc2)c1 (3D coordinates assigned)
O=C(Cc1nc(=O)c2sccc2[n-]1)Nc1cccc(Nc2ccccc2)c1 (optimized conformer: 86.08820001346393 kcal/mol)

>  <smiles>  (29) 
O=C(Cc1nc(=O)c2sccc2[nH]1)Nc1cccc(Nc2ccccc2)c1

>  <score_type>  (29) 
oracle

>  <origin>  (29) 
adg

>  <m_score__min__energy>  (29) 
-10.69

>  <m_primary>  (29) 
energy

$$$$
29:0
     RDKit          3D

 35 36  0  0  0  0  0  0  0  0999 V2000
   58.9820   34.1500   46.1060 C   0  0  0  0  0  0  0  0  0  0  0  0
   59.5680   32.9180   46.5140 O   0  0  0  0  0  0  0  0  0  0  0  0
   59.0800   31.6490   46.1700 C   0  0  0  0  0  0  0  0  0  0  0  0
   59.9000   30.5390   46.4000 C   0  0  0  0  0  0  0  0  0  0  0  0
   59.4730   29.2570   46.0550 C   0  0  0  0  0  0  0  0  0  0  0  0
   58.2060   29.0530   45.4870 C   0  0  0  0  0  0  0  0  0  0  0  0
   57.8120   27.6570   45.0760 C   0  0  0  0  0  0  0  0  0  0  0  0
   56.8290   27.1190   46.0140 N   0  0  0  0  0  0  0  0  0  0  0  0
   56.0300   25.9530   45.7630 C   0  0  0  0  0  0  0  0  0  0  0  0
   54.7900   26.0070   45.9790 O   0  0  0  0  0  0  0  0  0  0  0  0
   56.6100   24.6890   45.2730 C   0  0  0  0  0  0  0  0  0  0  0  0
   55.9360   23.8980   44.3340 C   0  0  0  0  0  0  0  0  0  0  0  0
   56.5520   22.7340   43.8720 C   0  0  0  0  0  0  0  0  0  0  0  0
   55.9650   22.0020   43.0300 O   0  0  0  0  0  0  0  0  0  0  0  0
   57.7930   22.3970   44.3210 N   0  0  0  0  0  0  0  0  0  0  0  0
   58.4500   23.1920   45.2100 C   0  0  0  0  0  0  0  0  0  0  0  0
   59.6040   22.8800   45.6060 O   0  0  0  0  0  0  0  0  0  0  0  0
   57.8610   24.3280   45.6720 N   0  0  0  0  0  0  0  0  0  0  0  0
   57.3490   30.1590   45.2780 C   0  0  0  0  0  0  0  0  0  0  0  0
   56.0630   29.9420   44.7530 O   0  0  0  0  0  0  0  0  0  0  0  0
   55.7810   29.7190   43.3760 C   0  0  0  0  0  0  0  0  0  0  0  0
   57.8030   31.4530   45.6110 C   0  0  0  0  0  0  0  0  0  0  0  0
   58.7035   34.7356   46.9946 H   0  0  0  0  0  0  0  0  0  0  0  0
   59.7060   34.7189   45.5041 H   0  0  0  0  0  0  0  0  0  0  0  0
   58.0839   33.9473   45.5041 H   0  0  0  0  0  0  0  0  0  0  0  0
   60.8907   30.6788   46.8572 H   0  0  0  0  0  0  0  0  0  0  0  0
   60.1361   28.3969   46.2299 H   0  0  0  0  0  0  0  0  0  0  0  0
   57.3758   27.6838   44.0666 H   0  0  0  0  0  0  0  0  0  0  0  0
   58.7044   27.0139   45.0795 H   0  0  0  0  0  0  0  0  0  0  0  0
   54.9403   24.1886   43.9677 H   0  0  0  0  0  0  0  0  0  0  0  0
   58.2510   21.5240   43.9700 H   0  0  0  0  0  0  0  0  0  0  0  0
   54.9212   29.0391   43.2832 H   0  0  0  0  0  0  0  0  0  0  0  0
   55.5448   30.6772   42.8902 H   0  0  0  0  0  0  0  0  0  0  0  0
   56.6590   29.2683   42.8902 H   0  0  0  0  0  0  0  0  0  0  0  0
   57.1503   32.3200   45.4314 H   0  0  0  0  0  0  0  0  0  0  0  0
  1  2  1  0
  2  3  1  0
  3  4  2  0
  4  5  1  0
  5  6  2  0
  6  7  1  0
  7  8  1  0
  8  9  1  0
  9 10  2  0
  9 11  1  0
 11 12  2  0
 12 13  1  0
 13 14  2  0
 13 15  1  0
 15 16  1  0
 16 17  2  0
 16 18  1  0
  6 19  1  0
 19 20  1  0
 20 21  1  0
 19 22  2  0
 22  3  1  0
 18 11  1  0
  1 23  1  0
  1 24  1  0
  1 25  1  0
  4 26  1  0
  5 27  1  0
  7 28  1  0
  7 29  1  0
 12 30  1  0
 15 31  1  0
 21 32  1  0
 21 33  1  0
 21 34  1  0
 22 35  1  0
M  CHG  2   8  -1  18  -1
M  END
>  <UniqueID>  (30) 
25

>  <SMILES>  (30) 
COc1ccc(C[N-]C(=O)c2cc(=O)[nH]c(=O)[n-]2)c(OC)c1

>  <Energy>  (30) 
40.522467044086994

>  <Genealogy>  (30) 
COc1ccc(C[N-]C(=O)c2cc(=O)[nH]c(=O)[n-]2)c(OC)c1 (protonated)
COc1ccc(C[N-]C(=O)c2cc(=O)[nH]c(=O)[n-]2)c(OC)c1 (3D coordinates assigned)
COc1ccc(C[N-]C(=O)c2cc(=O)[nH]c(=O)[n-]2)c(OC)c1 (optimized conformer: 40.522467044086994 kcal/mol)

>  <smiles>  (30) 
COc1ccc(CNC(=O)c2cc(=O)[nH]c(=O)[nH]2)c(OC)c1

>  <score_type>  (30) 
oracle

>  <origin>  (30) 
adg

>  <m_score__min__energy>  (30) 
-9.9499999999999993

>  <m_primary>  (30) 
energy

$$$$
30:0
     RDKit          3D

 46 47  0  0  0  0  0  0  0  0999 V2000
   60.7630   26.7100   47.0330 C   0  0  0  0  0  0  0  0  0  0  0  0
   59.7060   27.5010   46.3220 C   0  0  0  0  0  0  0  0  0  0  0  0
   60.0240   28.7320   45.7300 C   0  0  0  0  0  0  0  0  0  0  0  0
   59.0360   29.4820   45.0850 C   0  0  0  0  0  0  0  0  0  0  0  0
   57.7160   29.0120   45.0360 C   0  0  0  0  0  0  0  0  0  0  0  0
   56.4550   29.9480   44.2400 S   0  0  0  0  0  0  0  0  0  0  0  0
   56.6770   29.9800   42.7530 O   0  0  0  0  0  0  0  0  0  0  0  0
   55.1220   29.3110   44.5150 O   0  0  0  0  0  0  0  0  0  0  0  0
   56.4610   31.5640   44.8720 N   0  0  0  0  0  0  0  0  0  0  0  0
   57.4160   32.3900   44.1330 C   0  0  0  0  0  0  0  0  0  0  0  0
   57.6050   33.7280   44.8490 C   0  0  0  0  0  0  0  0  0  0  0  0
   58.7020   33.6370   45.8790 C   0  0  0  0  0  0  0  0  0  0  0  0
   58.4870   32.9480   47.0830 C   0  0  0  0  0  0  0  0  0  0  0  0
   59.4950   32.8840   48.0500 C   0  0  0  0  0  0  0  0  0  0  0  0
   60.7240   33.5210   47.8300 C   0  0  0  0  0  0  0  0  0  0  0  0
   62.0040   33.4320   49.0380 S   0  0  0  0  0  0  0  0  0  0  0  0
   62.4700   34.8200   49.3840 O   0  0  0  0  0  0  0  0  0  0  0  0
   61.4480   32.7950   50.2830 O   0  0  0  0  0  0  0  0  0  0  0  0
   63.3330   32.4800   48.4260 N   0  0  0  0  0  0  0  0  0  0  0  0
   63.7730   33.0230   47.1350 C   0  0  0  0  0  0  0  0  0  0  0  0
   64.4430   32.5180   49.3880 C   0  0  0  0  0  0  0  0  0  0  0  0
   60.9300   34.2360   46.6420 C   0  0  0  0  0  0  0  0  0  0  0  0
   59.9270   34.2930   45.6710 C   0  0  0  0  0  0  0  0  0  0  0  0
   57.3890   27.7980   45.6540 C   0  0  0  0  0  0  0  0  0  0  0  0
   58.3780   27.0460   46.2940 C   0  0  0  0  0  0  0  0  0  0  0  0
   60.6278   26.8112   48.1200 H   0  0  0  0  0  0  0  0  0  0  0  0
   60.6802   25.6502   46.7503 H   0  0  0  0  0  0  0  0  0  0  0  0
   61.7565   27.0883   46.7503 H   0  0  0  0  0  0  0  0  0  0  0  0
   61.0563   29.1094   45.7734 H   0  0  0  0  0  0  0  0  0  0  0  0
   59.2947   30.4424   44.6152 H   0  0  0  0  0  0  0  0  0  0  0  0
   58.3822   31.8674   44.0742 H   0  0  0  0  0  0  0  0  0  0  0  0
   57.0310   32.5716   43.1187 H   0  0  0  0  0  0  0  0  0  0  0  0
   57.8686   34.4982   44.1092 H   0  0  0  0  0  0  0  0  0  0  0  0
   56.6658   33.9897   45.3582 H   0  0  0  0  0  0  0  0  0  0  0  0
   57.5205   32.4559   47.2667 H   0  0  0  0  0  0  0  0  0  0  0  0
   59.3230   32.3322   48.9859 H   0  0  0  0  0  0  0  0  0  0  0  0
   64.4571   33.8672   47.3063 H   0  0  0  0  0  0  0  0  0  0  0  0
   64.2936   32.2389   46.5657 H   0  0  0  0  0  0  0  0  0  0  0  0
   62.8980   33.3698   46.5657 H   0  0  0  0  0  0  0  0  0  0  0  0
   64.0414   32.5043   50.4120 H   0  0  0  0  0  0  0  0  0  0  0  0
   65.0900   31.6415   49.2361 H   0  0  0  0  0  0  0  0  0  0  0  0
   65.0286   33.4367   49.2361 H   0  0  0  0  0  0  0  0  0  0  0  0
   61.8854   34.7544   46.4735 H   0  0  0  0  0  0  0  0  0  0  0  0
   60.0970   34.8537   44.7400 H   0  0  0  0  0  0  0  0  0  0  0  0
   56.3506   27.4355   45.6355 H   0  0  0  0  0  0  0  0  0  0  0  0
   58.1149   26.0938   46.7778 H   0  0  0  0  0  0  0  0  0  0  0  0
  1  2  1  0
  2  3  2  0
  3  4  1  0
  4  5  2  0
  5  6  1  0
  6  7  2  0
  6  8  2  0
  6  9  1  0
  9 10  1  0
 10 11  1  0
 11 12  1  0
 12 13  2  0
 13 14  1  0
 14 15  2  0
 15 16  1  0
 16 17  2  0
 16 18  2  0
 16 19  1  0
 19 20  1  0
 19 21  1  0
 15 22  1  0
 22 23  2  0
  5 24  1  0
 24 25  2  0
 25  2  1  0
 23 12  1  0
  1 26  1  0
  1 27  1  0
  1 28  1  0
  3 29  1  0
  4 30  1  0
 10 31  1  0
 10 32  1  0
 11 33  1  0
 11 34  1  0
 13 35  1  0
 14 36  1  0
 20 37  1  0
 20 38  1  0
 20 39  1  0
 21 40  1  0
 21 41  1  0
 21 42  1  0
 22 43  1  0
 23 44  1  0
 24 45  1  0
 25 46  1  0
M  CHG  1   9  -1
M  END
>  <UniqueID>  (31) 
26

>  <SMILES>  (31) 
Cc1ccc(S(=O)(=O)[N-]CCc2ccc(S(=O)(=O)N(C)C)cc2)cc1

>  <Energy>  (31) 
35.12069449484461

>  <Genealogy>  (31) 
Cc1ccc(S(=O)(=O)[N-]CCc2ccc(S(=O)(=O)N(C)C)cc2)cc1 (protonated)
Cc1ccc(S(=O)(=O)[N-]CCc2ccc(S(=O)(=O)N(C)C)cc2)cc1 (3D coordinates assigned)
Cc1ccc(S(=O)(=O)[N-]CCc2ccc(S(=O)(=O)N(C)C)cc2)cc1 (optimized conformer: 35.12069449484461 kcal/mol)

>  <smiles>  (31) 
Cc1ccc(S(=O)(=O)NCCc2ccc(S(=O)(=O)N(C)C)cc2)cc1

>  <score_type>  (31) 
oracle

>  <origin>  (31) 
adg

>  <m_score__min__energy>  (31) 
-10.32

>  <m_primary>  (31) 
energy

$$$$
31:0
     RDKit          3D

 57 60  0  0  0  0  0  0  0  0999 V2000
   61.2802   28.7230   52.2749 H   0  0  0  0  0  0  0  0  0  0  0  0
   61.1800   29.0110   51.2180 C   0  0  0  0  0  0  0  0  0  0  0  0
   61.8360   30.0940   50.7480 N   0  0  0  0  0  0  0  0  0  0  0  0
   61.7590   30.4770   49.4490 C   0  0  0  0  0  0  0  0  0  0  0  0
   62.4860   31.6040   49.0460 C   0  0  0  0  0  0  0  0  0  0  0  0
   63.0807   32.1630   49.7834 H   0  0  0  0  0  0  0  0  0  0  0  0
   62.4610   32.0210   47.7200 C   0  0  0  0  0  0  0  0  0  0  0  0
   63.3610   33.4440   47.2260 Cl  0  0  0  0  0  0  0  0  0  0  0  0
   61.7270   31.3010   46.7840 C   0  0  0  0  0  0  0  0  0  0  0  0
   61.7194   31.6223   45.7320 H   0  0  0  0  0  0  0  0  0  0  0  0
   60.9980   30.1710   47.1700 C   0  0  0  0  0  0  0  0  0  0  0  0
   60.4416   29.6031   46.4098 H   0  0  0  0  0  0  0  0  0  0  0  0
   60.9620   29.7440   48.5180 C   0  0  0  0  0  0  0  0  0  0  0  0
   60.2150   28.6190   49.0210 C   0  0  0  0  0  0  0  0  0  0  0  0
   59.3520   27.8770   48.3670 N   0  0  0  0  0  0  0  0  0  0  0  0
   59.3170   26.5620   47.7240 C   0  0  0  0  0  0  0  0  0  0  0  0
   59.5072   25.7889   48.4830 H   0  0  0  0  0  0  0  0  0  0  0  0
   60.0884   26.5430   46.9400 H   0  0  0  0  0  0  0  0  0  0  0  0
   57.9560   26.2880   47.0640 C   0  0  0  0  0  0  0  0  0  0  0  0
   57.1643   26.6242   47.7496 H   0  0  0  0  0  0  0  0  0  0  0  0
   57.9092   25.2074   46.8638 H   0  0  0  0  0  0  0  0  0  0  0  0
   57.7660   26.9960   45.7260 C   0  0  0  0  0  0  0  0  0  0  0  0
   57.5249   26.2546   44.9499 H   0  0  0  0  0  0  0  0  0  0  0  0
   58.6930   27.5225   45.4550 H   0  0  0  0  0  0  0  0  0  0  0  0
   56.6760   27.9570   45.8350 N   0  0  0  0  0  0  0  0  0  0  0  0
   56.3830   28.9800   44.8750 C   0  0  0  0  0  0  0  0  0  0  0  0
   55.1870   29.3480   44.7360 O   0  0  0  0  0  0  0  0  0  0  0  0
   57.4460   29.6250   44.0220 C   0  0  0  0  0  0  0  0  0  0  0  0
   58.1208   28.8436   43.6424 H   0  0  0  0  0  0  0  0  0  0  0  0
   56.9479   30.1526   43.1952 H   0  0  0  0  0  0  0  0  0  0  0  0
   58.2690   30.6500   44.8160 C   0  0  0  0  0  0  0  0  0  0  0  0
   58.5344   30.2109   45.7890 H   0  0  0  0  0  0  0  0  0  0  0  0
   59.1629   30.8912   44.2220 H   0  0  0  0  0  0  0  0  0  0  0  0
   57.5200   31.9350   45.0550 C   0  0  0  0  0  0  0  0  0  0  0  0
   56.2700   31.9530   44.8990 O   0  0  0  0  0  0  0  0  0  0  0  0
   58.1880   33.1060   45.5630 N   0  0  0  0  0  0  0  0  0  0  0  0
   58.6400   33.1490   46.9440 C   0  0  0  0  0  0  0  0  0  0  0  0
   58.0420   32.3450   47.9350 C   0  0  0  0  0  0  0  0  0  0  0  0
   57.2013   31.6876   47.6682 H   0  0  0  0  0  0  0  0  0  0  0  0
   58.5060   32.3740   49.2540 C   0  0  0  0  0  0  0  0  0  0  0  0
   58.0372   31.7324   50.0146 H   0  0  0  0  0  0  0  0  0  0  0  0
   59.5600   33.2130   49.6070 C   0  0  0  0  0  0  0  0  0  0  0  0
   59.9367   33.2183   50.6405 H   0  0  0  0  0  0  0  0  0  0  0  0
   60.1380   34.0470   48.6490 C   0  0  0  0  0  0  0  0  0  0  0  0
   60.9680   34.7111   48.9320 H   0  0  0  0  0  0  0  0  0  0  0  0
   59.6670   34.0440   47.3260 C   0  0  0  0  0  0  0  0  0  0  0  0
   60.2900   34.9620   46.3120 C   0  0  0  0  0  0  0  0  0  0  0  0
   61.1533   34.4603   45.8504 H   0  0  0  0  0  0  0  0  0  0  0  0
   60.6151   35.8840   46.8163 H   0  0  0  0  0  0  0  0  0  0  0  0
   59.2770   35.3200   45.2280 C   0  0  0  0  0  0  0  0  0  0  0  0
   59.7664   35.9432   44.4651 H   0  0  0  0  0  0  0  0  0  0  0  0
   58.4424   35.8716   45.6853 H   0  0  0  0  0  0  0  0  0  0  0  0
   58.7340   34.0490   44.5700 C   0  0  0  0  0  0  0  0  0  0  0  0
   59.5504   33.5555   44.0223 H   0  0  0  0  0  0  0  0  0  0  0  0
   57.9188   34.3385   43.8906 H   0  0  0  0  0  0  0  0  0  0  0  0
   60.3800   28.2620   50.3680 C   0  0  0  0  0  0  0  0  0  0  0  0
   59.8651   27.3712   50.7571 H   0  0  0  0  0  0  0  0  0  0  0  0
  1  2  1  0
  2  3  1  0
  3  4  1  0
  4  5  2  0
  5  6  1  0
  5  7  1  0
  7  8  1  0
  7  9  2  0
  9 10  1  0
  9 11  1  0
 11 12  1  0
 11 13  2  0
 13 14  1  0
 14 15  2  0
 15 16  1  0
 16 17  1  0
 16 18  1  0
 16 19  1  0
 19 20  1  0
 19 21  1  0
 19 22  1  0
 22 23  1  0
 22 24  1  0
 22 25  1  0
 25 26  1  0
 26 27  2  0
 26 28  1  0
 28 29  1  0
 28 30  1  0
 28 31  1  0
 31 32  1  0
 31 33  1  0
 31 34  1  0
 34 35  2  0
 34 36  1  0
 36 37  1  0
 37 38  2  0
 38 39  1  0
 38 40  1  0
 40 41  1  0
 40 42  2  0
 42 43  1  0
 42 44  1  0
 44 45  1  0
 44 46  2  0
 46 47  1  0
 47 48  1  0
 47 49  1  0
 47 50  1  0
 50 51  1  0
 50 52  1  0
 50 53  1  0
 53 54  1  0
 53 55  1  0
 14 56  1  0
 56 57  1  0
 56  2  2  0
 13  4  1  0
 53 36  1  0
 46 37  1  0
M  CHG  2   3  -1  25  -1
M  END
>  <UniqueID>  (32) 
27

>  <SMILES>  (32) 
O=C(CCC(=O)N1CCCc2ccccc21)[N-]CCC/N=c1/cc[n-]c2cc(Cl)ccc12

>  <Energy>  (32) 
78.31464268787093

>  <Genealogy>  (32) 
O=C(CCC(=O)N1CCCc2ccccc21)[N-]CCCN=c1cc[n-]c2cc(Cl)ccc12 (protonated)
O=C(CCC(=O)N1CCCc2ccccc21)[N-]CCC/N=c1/cc[n-]c2cc(Cl)ccc12 (cis-trans isomerization)
O=C(CCC(=O)N1CCCc2ccccc21)[N-]CCC/N=c1/cc[n-]c2cc(Cl)ccc12 (3D coordinates assigned)
O=C(CCC(=O)N1CCCc2ccccc21)[N-]CCC/N=c1/cc[n-]c2cc(Cl)ccc12 (nonaromatic ring conformer: 78.31464268787093 kcal/mol)

>  <smiles>  (32) 
O=C(CCC(=O)N1CCCc2ccccc21)NCCCN=c1cc[nH]c2cc(Cl)ccc12

>  <score_type>  (32) 
oracle

>  <origin>  (32) 
adg

>  <m_score__min__energy>  (32) 
-11.6

>  <m_primary>  (32) 
energy

$$$$
32:0
     RDKit          3D

 59 62  0  0  0  0  0  0  0  0999 V2000
   55.4280   29.2880   44.9110 O   0  0  0  0  0  0  0  0  0  0  0  0
   56.6400   28.9640   45.0410 C   0  0  0  0  0  0  0  0  0  0  0  0
   56.9910   27.5400   45.2290 C   0  0  0  0  0  0  0  0  0  0  0  0
   56.4450   26.8110   46.2980 C   0  0  0  0  0  0  0  0  0  0  0  0
   56.7640   25.4610   46.4710 C   0  0  0  0  0  0  0  0  0  0  0  0
   57.6190   24.8140   45.5650 C   0  0  0  0  0  0  0  0  0  0  0  0
   57.9920   23.3720   45.7720 C   0  0  0  0  0  0  0  0  0  0  0  0
   58.1540   22.7160   44.4740 N   0  0  0  0  0  0  0  0  0  0  0  0
   56.6190   22.6210   43.6650 S   0  0  0  0  0  0  0  0  0  0  0  0
   56.5200   21.3070   42.9420 O   0  0  0  0  0  0  0  0  0  0  0  0
   56.5200   23.7270   42.6510 O   0  0  0  0  0  0  0  0  0  0  0  0
   55.2970   22.7440   44.8270 C   0  0  0  0  0  0  0  0  0  0  0  0
   54.3370   23.7600   44.7000 C   0  0  0  0  0  0  0  0  0  0  0  0
   53.2990   23.8690   45.6310 C   0  0  0  0  0  0  0  0  0  0  0  0
   53.2190   22.9710   46.6980 C   0  0  0  0  0  0  0  0  0  0  0  0
   54.1760   21.9620   46.8360 C   0  0  0  0  0  0  0  0  0  0  0  0
   55.2160   21.8470   45.9060 C   0  0  0  0  0  0  0  0  0  0  0  0
   56.1430   20.8690   46.0620 F   0  0  0  0  0  0  0  0  0  0  0  0
   58.1650   25.5400   44.4960 C   0  0  0  0  0  0  0  0  0  0  0  0
   57.8440   26.8890   44.3220 C   0  0  0  0  0  0  0  0  0  0  0  0
   57.6510   29.9870   45.0030 N   0  0  0  0  0  0  0  0  0  0  0  0
   58.7230   29.9980   46.0110 C   0  0  0  0  0  0  0  0  0  0  0  0
   59.4060   31.3650   46.0660 C   0  0  0  0  0  0  0  0  0  0  0  0
   58.3780   32.4110   45.9340 N   0  0  0  0  0  0  0  0  0  0  0  0
   58.8230   33.7420   46.4080 C   0  0  0  0  0  0  0  0  0  0  0  0
   60.1570   33.7270   47.1280 C   0  0  0  0  0  0  0  0  0  0  0  0
   61.3590   33.8110   46.4050 C   0  0  0  0  0  0  0  0  0  0  0  0
   62.5880   33.7980   47.0740 C   0  0  0  0  0  0  0  0  0  0  0  0
   62.6280   33.6920   48.4670 C   0  0  0  0  0  0  0  0  0  0  0  0
   61.4390   33.5890   49.1930 C   0  0  0  0  0  0  0  0  0  0  0  0
   60.2080   33.6000   48.5280 C   0  0  0  0  0  0  0  0  0  0  0  0
   57.7780   32.4420   44.5810 C   0  0  0  0  0  0  0  0  0  0  0  0
   57.5970   31.0320   43.9740 C   0  0  0  0  0  0  0  0  0  0  0  0
   55.7617   27.3057   47.0040 H   0  0  0  0  0  0  0  0  0  0  0  0
   56.3432   24.9034   47.3207 H   0  0  0  0  0  0  0  0  0  0  0  0
   58.9373   23.3150   46.3316 H   0  0  0  0  0  0  0  0  0  0  0  0
   57.1970   22.8668   46.3401 H   0  0  0  0  0  0  0  0  0  0  0  0
   58.4720   21.7340   44.6420 H   0  0  0  0  0  0  0  0  0  0  0  0
   54.4013   24.4733   43.8651 H   0  0  0  0  0  0  0  0  0  0  0  0
   52.5450   24.6626   45.5229 H   0  0  0  0  0  0  0  0  0  0  0  0
   52.4024   23.0581   47.4299 H   0  0  0  0  0  0  0  0  0  0  0  0
   54.1119   21.2564   47.6775 H   0  0  0  0  0  0  0  0  0  0  0  0
   58.8492   25.0450   43.7912 H   0  0  0  0  0  0  0  0  0  0  0  0
   58.2618   27.4446   43.4695 H   0  0  0  0  0  0  0  0  0  0  0  0
   58.2923   29.7706   46.9973 H   0  0  0  0  0  0  0  0  0  0  0  0
   59.4724   29.2414   45.7354 H   0  0  0  0  0  0  0  0  0  0  0  0
   59.9292   31.4792   47.0268 H   0  0  0  0  0  0  0  0  0  0  0  0
   60.1371   31.4523   45.2488 H   0  0  0  0  0  0  0  0  0  0  0  0
   58.9077   34.4086   45.5371 H   0  0  0  0  0  0  0  0  0  0  0  0
   58.0733   34.0874   47.1351 H   0  0  0  0  0  0  0  0  0  0  0  0
   61.3337   33.8873   45.3079 H   0  0  0  0  0  0  0  0  0  0  0  0
   63.5248   33.8714   46.5022 H   0  0  0  0  0  0  0  0  0  0  0  0
   63.5950   33.6897   48.9913 H   0  0  0  0  0  0  0  0  0  0  0  0
   61.4706   33.4991   50.2889 H   0  0  0  0  0  0  0  0  0  0  0  0
   59.2748   33.5088   49.1032 H   0  0  0  0  0  0  0  0  0  0  0  0
   56.7925   32.9265   44.6445 H   0  0  0  0  0  0  0  0  0  0  0  0
   58.4648   32.9988   43.9266 H   0  0  0  0  0  0  0  0  0  0  0  0
   56.6213   30.9842   43.4682 H   0  0  0  0  0  0  0  0  0  0  0  0
   58.4183   30.8565   43.2636 H   0  0  0  0  0  0  0  0  0  0  0  0
  1  2  2  0
  2  3  1  0
  3  4  2  0
  4  5  1  0
  5  6  2  0
  6  7  1  0
  7  8  1  0
  8  9  1  0
  9 10  2  0
  9 11  2  0
  9 12  1  0
 12 13  2  0
 13 14  1  0
 14 15  2  0
 15 16  1  0
 16 17  2  0
 17 18  1  0
  6 19  1  0
 19 20  2  0
  2 21  1  0
 21 22  1  0
 22 23  1  0
 23 24  1  0
 24 25  1  0
 25 26  1  0
 26 27  2  0
 27 28  1  0
 28 29  2  0
 29 30  1  0
 30 31  2  0
 24 32  1  0
 32 33  1  0
 20  3  1  0
 33 21  1  0
 17 12  1  0
 31 26  1  0
  4 34  1  0
  5 35  1  0
  7 36  1  0
  7 37  1  0
  8 38  1  0
 13 39  1  0
 14 40  1  0
 15 41  1  0
 16 42  1  0
 19 43  1  0
 20 44  1  0
 22 45  1  0
 22 46  1  0
 23 47  1  0
 23 48  1  0
 25 49  1  0
 25 50  1  0
 27 51  1  0
 28 52  1  0
 29 53  1  0
 30 54  1  0
 31 55  1  0
 32 56  1  0
 32 57  1  0
 33 58  1  0
 33 59  1  0
M  END
>  <UniqueID>  (33) 
28

>  <SMILES>  (33) 
O=C(c1ccc(CNS(=O)(=O)c2ccccc2F)cc1)N1CCN(Cc2ccccc2)CC1

>  <Energy>  (33) 
74.13213843940082

>  <Genealogy>  (33) 
O=C(c1ccc(CNS(=O)(=O)c2ccccc2F)cc1)N1CCN(Cc2ccccc2)CC1 (3D coordinates assigned)
O=C(c1ccc(CNS(=O)(=O)c2ccccc2F)cc1)N1CCN(Cc2ccccc2)CC1 (nonaromatic ring conformer: 74.13213843940082 kcal/mol)

>  <smiles>  (33) 
O=C(c1ccc(CNS(=O)(=O)c2ccccc2F)cc1)N1CCN(Cc2ccccc2)CC1

>  <score_type>  (33) 
oracle

>  <origin>  (33) 
adg

>  <m_score__min__energy>  (33) 
-10.300000000000001

>  <m_primary>  (33) 
energy

$$$$
33:0
     RDKit          3D

 56 59  0  0  0  0  0  0  0  0999 V2000
   54.5760   24.3920   47.1110 H   0  0  0  0  0  0  0  0  0  0  0  0
   55.5420   24.1320   46.9490 O   0  0  0  0  0  0  0  0  0  0  0  0
   56.4950   25.0550   46.5210 C   0  0  0  0  0  0  0  0  0  0  0  0
   57.8430   24.6830   46.5060 C   0  0  0  0  0  0  0  0  0  0  0  0
   58.1358   23.6742   46.8324 H   0  0  0  0  0  0  0  0  0  0  0  0
   58.8190   25.5850   46.0790 C   0  0  0  0  0  0  0  0  0  0  0  0
   59.8773   25.2850   46.0693 H   0  0  0  0  0  0  0  0  0  0  0  0
   58.4540   26.8680   45.6640 C   0  0  0  0  0  0  0  0  0  0  0  0
   59.2263   27.5727   45.3221 H   0  0  0  0  0  0  0  0  0  0  0  0
   57.1060   27.2630   45.6810 C   0  0  0  0  0  0  0  0  0  0  0  0
   56.7210   28.6390   45.1960 C   0  0  0  0  0  0  0  0  0  0  0  0
   56.9781   29.3789   45.9683 H   0  0  0  0  0  0  0  0  0  0  0  0
   55.6391   28.6538   44.9977 H   0  0  0  0  0  0  0  0  0  0  0  0
   57.4480   28.9780   43.9280 C   0  0  0  0  0  0  0  0  0  0  0  0
   57.4949   28.2343   43.1189 H   0  0  0  0  0  0  0  0  0  0  0  0
   58.0400   30.1650   43.7610 C   0  0  0  0  0  0  0  0  0  0  0  0
   58.6140   30.3421   42.8395 H   0  0  0  0  0  0  0  0  0  0  0  0
   57.9560   31.2510   44.7630 C   0  0  0  0  0  0  0  0  0  0  0  0
   57.1310   32.3490   44.4660 C   0  0  0  0  0  0  0  0  0  0  0  0
   56.5868   32.3792   43.5105 H   0  0  0  0  0  0  0  0  0  0  0  0
   56.9960   33.4010   45.3720 C   0  0  0  0  0  0  0  0  0  0  0  0
   56.3401   34.2507   45.1317 H   0  0  0  0  0  0  0  0  0  0  0  0
   57.6890   33.3790   46.5800 C   0  0  0  0  0  0  0  0  0  0  0  0
   57.5691   34.2041   47.2975 H   0  0  0  0  0  0  0  0  0  0  0  0
   58.5360   32.3100   46.8810 C   0  0  0  0  0  0  0  0  0  0  0  0
   59.0778   32.2965   47.8382 H   0  0  0  0  0  0  0  0  0  0  0  0
   58.7020   31.2520   45.9720 C   0  0  0  0  0  0  0  0  0  0  0  0
   59.6660   30.1850   46.3250 C   0  0  0  0  0  0  0  0  0  0  0  0
   60.6304   30.1782   45.7959 H   0  0  0  0  0  0  0  0  0  0  0  0
   59.4560   29.2250   47.2400 C   0  0  0  0  0  0  0  0  0  0  0  0
   59.4139   28.1861   46.8810 H   0  0  0  0  0  0  0  0  0  0  0  0
   59.2770   29.4490   48.6880 C   0  0  0  0  0  0  0  0  0  0  0  0
   59.6390   28.5500   49.4960 O   0  0  0  0  0  0  0  0  0  0  0  0
   58.6970   30.6270   49.1620 O   0  0  0  0  0  0  0  0  0  0  0  0
   59.3660   31.5540   50.0040 C   0  0  0  0  0  0  0  0  0  0  0  0
   58.9090   32.5490   49.8988 H   0  0  0  0  0  0  0  0  0  0  0  0
   59.2856   31.2382   51.0546 H   0  0  0  0  0  0  0  0  0  0  0  0
   60.7980   31.6110   49.5930 C   0  0  0  0  0  0  0  0  0  0  0  0
   61.2270   31.9190   48.3540 N   0  0  0  0  0  0  0  0  0  0  0  0
   62.5480   32.0230   48.4280 N   0  0  0  0  0  0  0  0  0  0  0  0
   62.9670   31.8040   49.6670 N   0  0  0  0  0  0  0  0  0  0  0  0
   64.3420   31.9170   50.0870 C   0  0  0  0  0  0  0  0  0  0  0  0
   65.1420   33.0100   49.6900 C   0  0  0  0  0  0  0  0  0  0  0  0
   64.7117   33.8015   49.0588 H   0  0  0  0  0  0  0  0  0  0  0  0
   66.4780   33.0930   50.0940 C   0  0  0  0  0  0  0  0  0  0  0  0
   67.0936   33.9493   49.7812 H   0  0  0  0  0  0  0  0  0  0  0  0
   67.0330   32.0910   50.8940 C   0  0  0  0  0  0  0  0  0  0  0  0
   68.0852   32.1577   51.2076 H   0  0  0  0  0  0  0  0  0  0  0  0
   66.2520   31.0040   51.2960 C   0  0  0  0  0  0  0  0  0  0  0  0
   66.7920   30.0300   52.0700 F   0  0  0  0  0  0  0  0  0  0  0  0
   64.9140   30.9180   50.8980 C   0  0  0  0  0  0  0  0  0  0  0  0
   64.3030   30.0623   51.2214 H   0  0  0  0  0  0  0  0  0  0  0  0
   61.8880   31.5440   50.4300 C   0  0  0  0  0  0  0  0  0  0  0  0
   61.8798   31.3223   51.5074 H   0  0  0  0  0  0  0  0  0  0  0  0
   56.1220   26.3460   46.1040 C   0  0  0  0  0  0  0  0  0  0  0  0
   54.7790   26.7140   46.1060 O   0  0  0  0  0  0  0  0  0  0  0  0
  1  2  1  0
  2  3  1  0
  3  4  2  0
  4  5  1  0
  4  6  1  0
  6  7  1  0
  6  8  2  0
  8  9  1  0
  8 10  1  0
 10 11  1  0
 11 12  1  0
 11 13  1  0
 11 14  1  0
 14 15  1  0
 14 16  2  0
 16 17  1  0
 16 18  1  0
 18 19  2  0
 19 20  1  0
 19 21  1  0
 21 22  1  0
 21 23  2  0
 23 24  1  0
 23 25  1  0
 25 26  1  0
 25 27  2  0
 27 28  1  0
 28 29  1  0
 28 30  2  3
 30 31  1  0
 30 32  1  0
 32 33  2  0
 32 34  1  0
 34 35  1  0
 35 36  1  0
 35 37  1  0
 35 38  1  0
 38 39  1  0
 39 40  2  0
 40 41  1  0
 41 42  1  0
 42 43  2  0
 43 44  1  0
 43 45  1  0
 45 46  1  0
 45 47  2  0
 47 48  1  0
 47 49  1  0
 49 50  1  0
 49 51  2  0
 51 52  1  0
 41 53  1  0
 53 54  1  0
 10 55  2  0
 55 56  1  0
 55  3  1  0
 27 18  1  0
 53 38  2  0
 51 42  1  0
M  CHG  1  56  -1
M  END
>  <UniqueID>  (34) 
29

>  <SMILES>  (34) 
O=C(C=Cc1ccccc1/C=C/Cc1cccc(O)c1[O-])OCc1cn(-c2cccc(F)c2)nn1

>  <Energy>  (34) 
101.06359659212478

>  <Genealogy>  (34) 
O=C(C=Cc1ccccc1C=CCc1cccc(O)c1[O-])OCc1cn(-c2cccc(F)c2)nn1 (protonated)
O=C(C=Cc1ccccc1/C=C/Cc1cccc(O)c1[O-])OCc1cn(-c2cccc(F)c2)nn1 (cis-trans isomerization)
O=C(C=Cc1ccccc1/C=C/Cc1cccc(O)c1[O-])OCc1cn(-c2cccc(F)c2)nn1 (3D coordinates assigned)
O=C(C=Cc1ccccc1/C=C/Cc1cccc(O)c1[O-])OCc1cn(-c2cccc(F)c2)nn1 (optimized conformer: 101.06359659212478 kcal/mol)

>  <smiles>  (34) 
O=C(C=Cc1ccccc1C=CCc1cccc(O)c1O)OCc1cn(-c2cccc(F)c2)nn1

>  <score_type>  (34) 
oracle

>  <origin>  (34) 
adg

>  <m_score__min__energy>  (34) 
-14.140000000000001

>  <m_primary>  (34) 
energy

$$$$
34:0
     RDKit          3D

 31 33  0  0  0  0  0  0  0  0999 V2000
   59.7360   30.0530   46.4430 H   0  0  0  0  0  0  0  0  0  0  0  0
   59.9590   30.9600   46.8260 O   0  0  0  0  0  0  0  0  0  0  0  0
   59.3670   32.1480   46.3900 C   0  0  0  0  0  0  0  0  0  0  0  0
   59.8670   33.3520   46.9000 C   0  0  0  0  0  0  0  0  0  0  0  0
   60.7446   33.3396   47.5631 H   0  0  0  0  0  0  0  0  0  0  0  0
   59.2640   34.5670   46.5760 C   0  0  0  0  0  0  0  0  0  0  0  0
   59.6659   35.5064   46.9835 H   0  0  0  0  0  0  0  0  0  0  0  0
   58.1510   34.5910   45.7350 C   0  0  0  0  0  0  0  0  0  0  0  0
   57.6671   35.5482   45.4909 H   0  0  0  0  0  0  0  0  0  0  0  0
   57.6510   33.4010   45.2030 C   0  0  0  0  0  0  0  0  0  0  0  0
   56.7687   33.4262   44.5466 H   0  0  0  0  0  0  0  0  0  0  0  0
   58.2640   32.1710   45.4980 C   0  0  0  0  0  0  0  0  0  0  0  0
   57.7340   30.9540   44.8470 C   0  0  0  0  0  0  0  0  0  0  0  0
   56.4460   30.7640   44.4970 N   0  0  0  0  0  0  0  0  0  0  0  0
   56.3740   29.5490   43.9750 N   0  0  0  0  0  0  0  0  0  0  0  0
   57.6190   29.0460   44.0320 C   0  0  0  0  0  0  0  0  0  0  0  0
   58.0740   27.4230   43.4250 S   0  0  0  0  0  0  0  0  0  0  0  0
   58.7430   26.8530   45.0250 C   0  0  0  0  0  0  0  0  0  0  0  0
   59.8072   27.1240   45.0881 H   0  0  0  0  0  0  0  0  0  0  0  0
   58.6214   25.7616   45.0894 H   0  0  0  0  0  0  0  0  0  0  0  0
   58.0080   27.4850   46.1630 C   0  0  0  0  0  0  0  0  0  0  0  0
   58.6190   28.2760   46.9310 O   0  0  0  0  0  0  0  0  0  0  0  0
   56.6230   27.1560   46.3710 N   0  0  0  0  0  0  0  0  0  0  0  0
   56.0220   26.0400   46.0770 C   0  0  0  0  0  0  0  0  0  0  0  0
   54.6860   25.9770   45.8880 N   0  0  0  0  0  0  0  0  0  0  0  0
   54.2740   24.7140   45.5990 C   0  0  0  0  0  0  0  0  0  0  0  0
   53.2185   24.4659   45.4134 H   0  0  0  0  0  0  0  0  0  0  0  0
   55.2830   23.7590   45.5550 C   0  0  0  0  0  0  0  0  0  0  0  0
   55.1502   22.6885   45.3394 H   0  0  0  0  0  0  0  0  0  0  0  0
   56.7430   24.5260   45.8890 S   0  0  0  0  0  0  0  0  0  0  0  0
   58.4570   29.8940   44.5740 O   0  0  0  0  0  0  0  0  0  0  0  0
  1  2  1  0
  2  3  1  0
  3  4  2  0
  4  5  1  0
  4  6  1  0
  6  7  1  0
  6  8  2  0
  8  9  1  0
  8 10  1  0
 10 11  1  0
 10 12  2  0
 12 13  1  0
 13 14  2  0
 14 15  1  0
 15 16  2  0
 16 17  1  0
 17 18  1  0
 18 19  1  0
 18 20  1  0
 18 21  1  0
 21 22  2  0
 21 23  1  0
 23 24  2  0
 24 25  1  0
 25 26  1  0
 26 27  1  0
 26 28  2  0
 28 29  1  0
 28 30  1  0
 16 31  1  0
 12  3  1  0
 31 13  1  0
 30 24  1  0
M  CHG  1  25  -1
M  END
>  <UniqueID>  (35) 
30

>  <SMILES>  (35) 
O=C(CSc1nnc(-c2ccccc2O)o1)/N=c1/[n-]ccs1

>  <Energy>  (35) 
102.19990775737845

>  <Genealogy>  (35) 
O=C(CSc1nnc(-c2ccccc2O)o1)N=c1[n-]ccs1 (protonated)
O=C(CSc1nnc(-c2ccccc2O)o1)/N=c1/[n-]ccs1 (cis-trans isomerization)
O=C(CSc1nnc(-c2ccccc2O)o1)/N=c1/[n-]ccs1 (3D coordinates assigned)
O=C(CSc1nnc(-c2ccccc2O)o1)/N=c1/[n-]ccs1 (optimized conformer: 102.19990775737845 kcal/mol)

>  <smiles>  (35) 
O=C(CSc1nnc(-c2ccccc2O)o1)N=c1[nH]ccs1

>  <score_type>  (35) 
oracle

>  <origin>  (35) 
adg

>  <m_score__min__energy>  (35) 
-9.7699999999999996

>  <m_primary>  (35) 
energy

$$$$
35:0
     RDKit          3D

 57 60  0  0  0  0  0  0  0  0999 V2000
   56.9850   23.2810   47.5200 O   0  0  0  0  0  0  0  0  0  0  0  0
   56.2010   24.0690   46.9250 C   0  0  0  0  0  0  0  0  0  0  0  0
   54.9110   23.6120   46.4850 N   0  0  0  0  0  0  0  0  0  0  0  0
   54.4020   22.2700   46.7610 C   0  0  0  0  0  0  0  0  0  0  0  0
   52.9060   22.3150   46.9080 C   0  0  0  0  0  0  0  0  0  0  0  0
   52.1150   22.9110   45.9150 C   0  0  0  0  0  0  0  0  0  0  0  0
   50.7270   22.9860   46.0700 C   0  0  0  0  0  0  0  0  0  0  0  0
   50.1220   22.4740   47.2210 C   0  0  0  0  0  0  0  0  0  0  0  0
   50.9050   21.8930   48.2220 C   0  0  0  0  0  0  0  0  0  0  0  0
   52.2930   21.8170   48.0710 C   0  0  0  0  0  0  0  0  0  0  0  0
   56.6140   25.4630   46.6860 C   0  0  0  0  0  0  0  0  0  0  0  0
   57.8190   25.9620   47.0080 N   0  0  0  0  0  0  0  0  0  0  0  0
   57.7680   27.2480   46.5930 C   0  0  0  0  0  0  0  0  0  0  0  0
   58.9020   28.1890   46.7260 C   0  0  0  0  0  0  0  0  0  0  0  0
   59.4540   28.8090   45.5920 C   0  0  0  0  0  0  0  0  0  0  0  0
   60.5080   29.7180   45.7220 C   0  0  0  0  0  0  0  0  0  0  0  0
   61.0140   30.0430   46.9910 C   0  0  0  0  0  0  0  0  0  0  0  0
   62.1230   31.0640   47.1560 C   0  0  0  0  0  0  0  0  0  0  0  0
   61.6570   32.4610   47.0830 N   0  0  0  0  0  0  0  0  0  0  0  0
   61.5850   33.1440   48.3840 C   0  0  0  0  0  0  0  0  0  0  0  0
   60.5100   34.2410   48.3980 C   0  0  0  0  0  0  0  0  0  0  0  0
   59.2100   33.7200   48.1200 O   0  0  0  0  0  0  0  0  0  0  0  0
   58.7570   33.2870   46.8600 C   0  0  0  0  0  0  0  0  0  0  0  0
   58.1650   32.0210   46.6640 C   0  0  0  0  0  0  0  0  0  0  0  0
   57.6870   31.6510   45.4020 C   0  0  0  0  0  0  0  0  0  0  0  0
   57.1040   30.4400   45.2270 F   0  0  0  0  0  0  0  0  0  0  0  0
   57.8050   32.5280   44.3230 C   0  0  0  0  0  0  0  0  0  0  0  0
   58.4120   33.7740   44.4990 C   0  0  0  0  0  0  0  0  0  0  0  0
   58.8920   34.1530   45.7600 C   0  0  0  0  0  0  0  0  0  0  0  0
   59.6560   35.7250   45.9490 Cl  0  0  0  0  0  0  0  0  0  0  0  0
   60.4930   29.3890   48.1180 C   0  0  0  0  0  0  0  0  0  0  0  0
   59.4410   28.4800   47.9910 C   0  0  0  0  0  0  0  0  0  0  0  0
   56.5900   27.5860   46.0210 N   0  0  0  0  0  0  0  0  0  0  0  0
   55.8750   26.4540   46.0900 C   0  0  0  0  0  0  0  0  0  0  0  0
   54.5740   26.3330   45.6170 O   0  0  0  0  0  0  0  0  0  0  0  0
   54.2840   24.2770   45.9860 H   0  0  0  0  0  0  0  0  0  0  0  0
   54.6677   21.6002   45.9299 H   0  0  0  0  0  0  0  0  0  0  0  0
   54.8484   21.8961   47.6942 H   0  0  0  0  0  0  0  0  0  0  0  0
   52.5881   23.3211   45.0106 H   0  0  0  0  0  0  0  0  0  0  0  0
   50.1108   23.4486   45.2849 H   0  0  0  0  0  0  0  0  0  0  0  0
   49.0297   22.5283   47.3390 H   0  0  0  0  0  0  0  0  0  0  0  0
   50.4287   21.4948   49.1301 H   0  0  0  0  0  0  0  0  0  0  0  0
   52.9071   21.3662   48.8645 H   0  0  0  0  0  0  0  0  0  0  0  0
   59.0534   28.5771   44.5941 H   0  0  0  0  0  0  0  0  0  0  0  0
   60.9438   30.1816   44.8247 H   0  0  0  0  0  0  0  0  0  0  0  0
   62.5971   30.9067   48.1360 H   0  0  0  0  0  0  0  0  0  0  0  0
   62.8246   30.9147   46.3220 H   0  0  0  0  0  0  0  0  0  0  0  0
   60.7090   32.4790   46.6430 H   0  0  0  0  0  0  0  0  0  0  0  0
   61.3469   32.4032   49.1615 H   0  0  0  0  0  0  0  0  0  0  0  0
   62.5588   33.6194   48.5730 H   0  0  0  0  0  0  0  0  0  0  0  0
   60.4981   34.7138   49.3911 H   0  0  0  0  0  0  0  0  0  0  0  0
   60.7587   34.9702   47.6129 H   0  0  0  0  0  0  0  0  0  0  0  0
   58.0788   31.3210   47.5082 H   0  0  0  0  0  0  0  0  0  0  0  0
   57.4202   32.2383   43.3341 H   0  0  0  0  0  0  0  0  0  0  0  0
   58.5135   34.4598   43.6450 H   0  0  0  0  0  0  0  0  0  0  0  0
   60.9178   29.5947   49.1116 H   0  0  0  0  0  0  0  0  0  0  0  0
   59.0317   27.9888   48.8860 H   0  0  0  0  0  0  0  0  0  0  0  0
  1  2  2  0
  2  3  1  0
  3  4  1  0
  4  5  1  0
  5  6  2  0
  6  7  1  0
  7  8  2  0
  8  9  1  0
  9 10  2  0
  2 11  1  0
 11 12  1  0
 12 13  2  0
 13 14  1  0
 14 15  2  0
 15 16  1  0
 16 17  2  0
 17 18  1  0
 18 19  1  0
 19 20  1  0
 20 21  1  0
 21 22  1  0
 22 23  1  0
 23 24  2  0
 24 25  1  0
 25 26  1  0
 25 27  2  0
 27 28  1  0
 28 29  2  0
 29 30  1  0
 17 31  1  0
 31 32  2  0
 13 33  1  0
 33 34  1  0
 34 35  1  0
 10  5  1  0
 34 11  2  0
 32 14  1  0
 29 23  1  0
  3 36  1  0
  4 37  1  0
  4 38  1  0
  6 39  1  0
  7 40  1  0
  8 41  1  0
  9 42  1  0
 10 43  1  0
 15 44  1  0
 16 45  1  0
 18 46  1  0
 18 47  1  0
 19 48  1  0
 20 49  1  0
 20 50  1  0
 21 51  1  0
 21 52  1  0
 24 53  1  0
 27 54  1  0
 28 55  1  0
 31 56  1  0
 32 57  1  0
M  CHG  2  33  -1  35  -1
M  END
>  <UniqueID>  (36) 
31

>  <SMILES>  (36) 
O=C(NCc1ccccc1)c1nc(-c2ccc(CNCCOc3cc(F)ccc3Cl)cc2)[n-]c1[O-]

>  <Energy>  (36) 
88.59430526288524

>  <Genealogy>  (36) 
O=C(NCc1ccccc1)c1nc(-c2ccc(CNCCOc3cc(F)ccc3Cl)cc2)[n-]c1[O-] (protonated)
O=C(NCc1ccccc1)c1nc(-c2ccc(CNCCOc3cc(F)ccc3Cl)cc2)[n-]c1[O-] (3D coordinates assigned)
O=C(NCc1ccccc1)c1nc(-c2ccc(CNCCOc3cc(F)ccc3Cl)cc2)[n-]c1[O-] (optimized conformer: 88.59430526288524 kcal/mol)

>  <smiles>  (36) 
O=C(NCc1ccccc1)c1nc(-c2ccc(CNCCOc3cc(F)ccc3Cl)cc2)[nH]c1O

>  <score_type>  (36) 
oracle

>  <origin>  (36) 
adg

>  <m_score__min__energy>  (36) 
-13.19

>  <m_primary>  (36) 
energy

$$$$
36:0
     RDKit          3D

 37 39  0  0  0  0  0  0  0  0999 V2000
   56.2690   27.1380   45.9730 N   0  0  0  0  0  0  0  0  0  0  0  0
   57.6360   27.5160   46.1990 C   0  0  0  0  0  0  0  0  0  0  0  0
   58.1970   27.2790   47.4640 C   0  0  0  0  0  0  0  0  0  0  0  0
   59.5280   27.6070   47.7250 C   0  0  0  0  0  0  0  0  0  0  0  0
   60.3170   28.1730   46.7250 C   0  0  0  0  0  0  0  0  0  0  0  0
   59.7760   28.4210   45.4630 C   0  0  0  0  0  0  0  0  0  0  0  0
   58.4310   28.1120   45.1850 C   0  0  0  0  0  0  0  0  0  0  0  0
   57.9020   28.3920   43.8000 C   0  0  0  0  0  0  0  0  0  0  0  0
   56.6740   29.6870   43.8420 S   0  0  0  0  0  0  0  0  0  0  0  0
   56.1750   29.9490   42.4490 O   0  0  0  0  0  0  0  0  0  0  0  0
   55.5130   29.2900   44.7100 O   0  0  0  0  0  0  0  0  0  0  0  0
   57.4020   31.1460   44.4840 C   0  0  0  0  0  0  0  0  0  0  0  0
   57.7790   31.3470   45.8040 C   0  0  0  0  0  0  0  0  0  0  0  0
   58.3320   32.5640   46.0490 N   0  0  0  0  0  0  0  0  0  0  0  0
   58.4030   33.3260   44.9280 C   0  0  0  0  0  0  0  0  0  0  0  0
   58.8670   34.5420   44.8620 N   0  0  0  0  0  0  0  0  0  0  0  0
   59.6860   35.2400   45.8140 C   0  0  0  0  0  0  0  0  0  0  0  0
   60.0140   36.4430   45.6410 O   0  0  0  0  0  0  0  0  0  0  0  0
   60.0940   34.5470   47.0410 C   0  0  0  0  0  0  0  0  0  0  0  0
   61.2650   33.8360   47.2240 C   0  0  0  0  0  0  0  0  0  0  0  0
   61.2150   33.3670   48.5180 C   0  0  0  0  0  0  0  0  0  0  0  0
   60.0220   33.8190   49.0440 C   0  0  0  0  0  0  0  0  0  0  0  0
   59.3760   34.5180   48.1400 O   0  0  0  0  0  0  0  0  0  0  0  0
   57.7690   32.5240   43.5920 S   0  0  0  0  0  0  0  0  0  0  0  0
   55.8310   27.1450   45.0270 H   0  0  0  0  0  0  0  0  0  0  0  0
   55.6800   26.7950   46.7630 H   0  0  0  0  0  0  0  0  0  0  0  0
   57.5812   26.8303   48.2573 H   0  0  0  0  0  0  0  0  0  0  0  0
   59.9550   27.4187   48.7211 H   0  0  0  0  0  0  0  0  0  0  0  0
   61.3678   28.4246   46.9311 H   0  0  0  0  0  0  0  0  0  0  0  0
   60.4068   28.8624   44.6774 H   0  0  0  0  0  0  0  0  0  0  0  0
   58.7342   28.7047   43.1522 H   0  0  0  0  0  0  0  0  0  0  0  0
   57.4359   27.4759   43.4081 H   0  0  0  0  0  0  0  0  0  0  0  0
   57.6419   30.5857   46.5861 H   0  0  0  0  0  0  0  0  0  0  0  0
   58.6230   32.8480   47.0070 H   0  0  0  0  0  0  0  0  0  0  0  0
   62.0687   33.6778   46.4898 H   0  0  0  0  0  0  0  0  0  0  0  0
   61.9731   32.7555   49.0291 H   0  0  0  0  0  0  0  0  0  0  0  0
   59.6662   33.6232   50.0663 H   0  0  0  0  0  0  0  0  0  0  0  0
  1  2  1  0
  2  3  2  0
  3  4  1  0
  4  5  2  0
  5  6  1  0
  6  7  2  0
  7  8  1  0
  8  9  1  0
  9 10  2  0
  9 11  2  0
  9 12  1  0
 12 13  2  0
 13 14  1  0
 14 15  1  0
 15 16  2  3
 16 17  1  0
 17 18  2  0
 17 19  1  0
 19 20  2  0
 20 21  1  0
 21 22  2  0
 22 23  1  0
 15 24  1  0
  7  2  1  0
 24 12  1  0
 23 19  1  0
  1 25  1  0
  1 26  1  0
  3 27  1  0
  4 28  1  0
  5 29  1  0
  6 30  1  0
  8 31  1  0
  8 32  1  0
 13 33  1  0
 14 34  1  0
 20 35  1  0
 21 36  1  0
 22 37  1  0
M  END
>  <UniqueID>  (37) 
32

>  <SMILES>  (37) 
Nc1ccccc1CS(=O)(=O)c1c[nH]c(=NC(=O)c2ccco2)s1

>  <Energy>  (37) 
97.67687334639538

>  <Genealogy>  (37) 
Nc1ccccc1CS(=O)(=O)c1c[nH]c(=NC(=O)c2ccco2)s1 (3D coordinates assigned)
Nc1ccccc1CS(=O)(=O)c1c[nH]c(=NC(=O)c2ccco2)s1 (optimized conformer: 97.67687334639538 kcal/mol)

>  <smiles>  (37) 
Nc1ccccc1CS(=O)(=O)c1c[nH]c(=NC(=O)c2ccco2)s1

>  <score_type>  (37) 
oracle

>  <origin>  (37) 
adg

>  <m_score__min__energy>  (37) 
-8.4800000000000004

>  <m_primary>  (37) 
energy

$$$$
37:0
     RDKit          3D

 32 33  0  0  1  0  0  0  0  0999 V2000
   66.2250   32.7270   49.8050 N   0  0  0  0  0  0  0  0  0  0  0  0
   65.1240   32.9530   49.5000 C   0  0  0  0  0  0  0  0  0  0  0  0
   63.7650   33.2450   49.1160 C   0  0  0  0  0  0  0  0  0  0  0  0
   63.3430   33.1430   47.7990 C   0  0  0  0  0  0  0  0  0  0  0  0
   62.0280   33.4260   47.4280 C   0  0  0  0  0  0  0  0  0  0  0  0
   61.1380   33.8160   48.4070 C   0  0  0  0  0  0  0  0  0  0  0  0
   59.7740   34.1280   48.1410 N   0  0  0  0  0  0  0  0  0  0  0  0
   59.2010   33.8340   47.0460 C   0  0  0  0  0  0  0  0  0  0  0  0
   59.2240   34.7620   46.0600 N   0  0  0  0  0  0  0  0  0  0  0  0
   58.6480   34.5500   44.8630 C   0  0  0  0  0  0  0  0  0  0  0  0
   58.0180   33.3240   44.6770 C   0  0  0  0  0  0  0  0  0  0  0  0
   57.4440   33.1170   43.4790 F   0  0  0  0  0  0  0  0  0  0  0  0
   58.0040   32.3910   45.6890 C   0  0  0  0  0  0  0  0  0  0  0  0
   57.4060   31.2770   45.4530 N   0  0  0  0  0  0  0  0  0  0  0  0
   57.6680   30.4310   44.3050 C   0  0  0  0  0  0  0  0  0  0  0  0
   56.3560   29.7450   44.0020 C   0  0  0  0  0  0  0  0  0  0  0  0
   56.2670   29.1520   42.7100 N   0  0  0  0  0  0  0  0  0  0  0  0
   55.4210   29.7120   44.8430 O   0  0  0  0  0  0  0  0  0  0  0  0
   58.6030   32.6640   46.8720 N   0  0  0  0  0  0  0  0  0  0  0  0
   61.5490   33.9230   49.7370 C   0  0  0  0  0  0  0  0  0  0  0  0
   62.8590   33.6350   50.0720 C   0  0  0  0  0  0  0  0  0  0  0  0
   64.0627   32.8313   47.0277 H   0  0  0  0  0  0  0  0  0  0  0  0
   61.7084   33.3401   46.3790 H   0  0  0  0  0  0  0  0  0  0  0  0
   59.7030   35.6940   46.2040 H   0  0  0  0  0  0  0  0  0  0  0  0
   58.6740   35.3105   44.0686 H   0  0  0  0  0  0  0  0  0  0  0  0
   57.9921   31.0374   43.4464 H   0  0  0  0  0  0  0  0  0  0  0  0
   58.4707   29.7064   44.5064 H   0  0  0  0  0  0  0  0  0  0  0  0
   56.6760   28.2190   42.4880 H   0  0  0  0  0  0  0  0  0  0  0  0
   55.7720   29.6410   41.9050 H   0  0  0  0  0  0  0  0  0  0  0  0
   58.5990   31.9780   47.6310 H   0  0  0  0  0  0  0  0  0  0  0  0
   60.8349   34.2345   50.5135 H   0  0  0  0  0  0  0  0  0  0  0  0
   63.1808   33.7195   51.1205 H   0  0  0  0  0  0  0  0  0  0  0  0
  1  2  3  0
  2  3  1  0
  3  4  2  0
  4  5  1  0
  5  6  2  0
  6  7  1  0
  7  8  2  0
  8  9  1  0
  9 10  1  0
 10 11  2  0
 11 12  1  0
 11 13  1  0
 13 14  2  0
 14 15  1  0
 15 16  1  0
 16 17  1  0
 16 18  2  0
 13 19  1  0
  6 20  1  0
 20 21  2  0
 21  3  1  0
 19  8  1  0
  4 22  1  0
  5 23  1  0
  9 24  1  0
 10 25  1  0
 15 26  1  0
 15 27  1  0
 17 28  1  0
 17 29  1  0
 19 30  1  0
 20 31  1  0
 21 32  1  0
M  END
>  <smiles>  (38) 
N#Cc1ccc(N=c2[nH]cc(F)c(=NCC(N)=O)[nH]2)cc1

>  <score_type>  (38) 
oracle

>  <origin>  (38) 
adg

>  <m_score__min__energy>  (38) 
-7.1600000000000001

>  <m_primary>  (38) 
energy

$$$$
38:0
     RDKit          3D

 76 79  0  0  0  0  0  0  0  0999 V2000
   61.7140   22.9220   52.3890 C   0  0  0  0  0  0  0  0  0  0  0  0
   60.8740   21.7750   52.3020 O   0  0  0  0  0  0  0  0  0  0  0  0
   59.5130   21.8120   51.9620 C   0  0  0  0  0  0  0  0  0  0  0  0
   58.5870   22.6010   52.6690 C   0  0  0  0  0  0  0  0  0  0  0  0
   57.2390   22.6070   52.3070 C   0  0  0  0  0  0  0  0  0  0  0  0
   56.7900   21.8320   51.2300 C   0  0  0  0  0  0  0  0  0  0  0  0
   55.3340   21.8390   50.8370 C   0  0  0  0  0  0  0  0  0  0  0  0
   55.1460   21.6710   49.3230 C   0  0  0  0  0  0  0  0  0  0  0  0
   55.5540   22.8720   48.5910 N   0  0  0  0  0  0  0  0  0  0  0  0
   56.6720   22.8530   47.6920 C   0  0  0  0  0  0  0  0  0  0  0  0
   57.3330   21.7890   47.5290 O   0  0  0  0  0  0  0  0  0  0  0  0
   57.0410   24.0670   46.9370 C   0  0  0  0  0  0  0  0  0  0  0  0
   58.3190   24.2100   46.3800 C   0  0  0  0  0  0  0  0  0  0  0  0
   58.6220   25.3550   45.6450 C   0  0  0  0  0  0  0  0  0  0  0  0
   57.6650   26.3630   45.4790 C   0  0  0  0  0  0  0  0  0  0  0  0
   58.0860   27.8100   44.5510 S   0  0  0  0  0  0  0  0  0  0  0  0
   59.5750   27.7970   44.3460 O   0  0  0  0  0  0  0  0  0  0  0  0
   57.4280   27.7610   43.2000 O   0  0  0  0  0  0  0  0  0  0  0  0
   57.6140   29.2740   45.3990 N   0  0  0  0  0  0  0  0  0  0  0  0
   56.8570   30.1420   44.4670 C   0  0  0  0  0  0  0  0  0  0  0  0
   57.5770   31.4680   44.1420 C   0  0  0  0  0  0  0  0  0  0  0  0
   57.0230   32.6890   44.8950 C   0  0  0  0  0  0  0  0  0  0  0  0
   58.0600   33.3640   45.7550 C   0  0  0  0  0  0  0  0  0  0  0  0
   58.9280   34.3200   45.2050 C   0  0  0  0  0  0  0  0  0  0  0  0
   59.8690   34.9670   46.0130 C   0  0  0  0  0  0  0  0  0  0  0  0
   59.9600   34.6550   47.3730 C   0  0  0  0  0  0  0  0  0  0  0  0
   59.0990   33.7050   47.9300 C   0  0  0  0  0  0  0  0  0  0  0  0
   58.1470   33.0670   47.1280 C   0  0  0  0  0  0  0  0  0  0  0  0
   58.8210   29.9650   45.9070 C   0  0  0  0  0  0  0  0  0  0  0  0
   59.2720   29.3920   47.2270 C   0  0  0  0  0  0  0  0  0  0  0  0
   58.9990   30.0730   48.4240 C   0  0  0  0  0  0  0  0  0  0  0  0
   59.4180   29.5450   49.6490 C   0  0  0  0  0  0  0  0  0  0  0  0
   60.1140   28.3330   49.6870 C   0  0  0  0  0  0  0  0  0  0  0  0
   60.3920   27.6500   48.5010 C   0  0  0  0  0  0  0  0  0  0  0  0
   59.9780   28.1770   47.2730 C   0  0  0  0  0  0  0  0  0  0  0  0
   56.4000   26.1920   46.0670 C   0  0  0  0  0  0  0  0  0  0  0  0
   55.5160   27.0820   45.9690 O   0  0  0  0  0  0  0  0  0  0  0  0
   56.1230   25.0570   46.7620 N   0  0  0  0  0  0  0  0  0  0  0  0
   57.7110   21.0490   50.5160 C   0  0  0  0  0  0  0  0  0  0  0  0
   59.0730   21.0320   50.8800 C   0  0  0  0  0  0  0  0  0  0  0  0
   60.0180   20.2500   50.1960 O   0  0  0  0  0  0  0  0  0  0  0  0
   60.6930   19.1280   50.7550 C   0  0  0  0  0  0  0  0  0  0  0  0
   61.8928   23.1662   53.4466 H   0  0  0  0  0  0  0  0  0  0  0  0
   62.6736   22.7122   51.8938 H   0  0  0  0  0  0  0  0  0  0  0  0
   61.2243   23.7735   51.8938 H   0  0  0  0  0  0  0  0  0  0  0  0
   58.9281   23.2178   53.5135 H   0  0  0  0  0  0  0  0  0  0  0  0
   56.5245   23.2244   52.8712 H   0  0  0  0  0  0  0  0  0  0  0  0
   54.8232   21.0122   51.3522 H   0  0  0  0  0  0  0  0  0  0  0  0
   54.9088   22.8114   51.1262 H   0  0  0  0  0  0  0  0  0  0  0  0
   55.7539   20.8207   48.9803 H   0  0  0  0  0  0  0  0  0  0  0  0
   54.0779   21.4957   49.1270 H   0  0  0  0  0  0  0  0  0  0  0  0
   54.9780   23.7410   48.6600 H   0  0  0  0  0  0  0  0  0  0  0  0
   59.0767   23.4252   46.5216 H   0  0  0  0  0  0  0  0  0  0  0  0
   59.6186   25.4671   45.1930 H   0  0  0  0  0  0  0  0  0  0  0  0
   56.6998   29.5914   43.5278 H   0  0  0  0  0  0  0  0  0  0  0  0
   55.9090   30.4002   44.9616 H   0  0  0  0  0  0  0  0  0  0  0  0
   58.6399   31.3558   44.4021 H   0  0  0  0  0  0  0  0  0  0  0  0
   57.4174   31.6592   43.0706 H   0  0  0  0  0  0  0  0  0  0  0  0
   56.6493   33.4161   44.1590 H   0  0  0  0  0  0  0  0  0  0  0  0
   56.2220   32.3331   45.5596 H   0  0  0  0  0  0  0  0  0  0  0  0
   58.8681   34.5616   44.1335 H   0  0  0  0  0  0  0  0  0  0  0  0
   60.5389   35.7230   45.5775 H   0  0  0  0  0  0  0  0  0  0  0  0
   60.7084   35.1567   48.0040 H   0  0  0  0  0  0  0  0  0  0  0  0
   59.1702   33.4590   48.9998 H   0  0  0  0  0  0  0  0  0  0  0  0
   57.4628   32.3293   47.5727 H   0  0  0  0  0  0  0  0  0  0  0  0
   59.6325   29.8530   45.1729 H   0  0  0  0  0  0  0  0  0  0  0  0
   58.5731   31.0260   46.0582 H   0  0  0  0  0  0  0  0  0  0  0  0
   58.4524   31.0272   48.3980 H   0  0  0  0  0  0  0  0  0  0  0  0
   59.2000   30.0833   50.5832 H   0  0  0  0  0  0  0  0  0  0  0  0
   60.4426   27.9174   50.6510 H   0  0  0  0  0  0  0  0  0  0  0  0
   60.9378   26.6955   48.5325 H   0  0  0  0  0  0  0  0  0  0  0  0
   60.2055   27.6393   46.3408 H   0  0  0  0  0  0  0  0  0  0  0  0
   57.3668   20.4432   49.6648 H   0  0  0  0  0  0  0  0  0  0  0  0
   60.6569   19.1880   51.8528 H   0  0  0  0  0  0  0  0  0  0  0  0
   60.2022   18.2016   50.4221 H   0  0  0  0  0  0  0  0  0  0  0  0
   61.7414   19.1276   50.4221 H   0  0  0  0  0  0  0  0  0  0  0  0
  1  2  1  0
  2  3  1  0
  3  4  2  0
  4  5  1  0
  5  6  2  0
  6  7  1  0
  7  8  1  0
  8  9  1  0
  9 10  1  0
 10 11  2  0
 10 12  1  0
 12 13  2  0
 13 14  1  0
 14 15  2  0
 15 16  1  0
 16 17  2  0
 16 18  2  0
 16 19  1  0
 19 20  1  0
 20 21  1  0
 21 22  1  0
 22 23  1  0
 23 24  2  0
 24 25  1  0
 25 26  2  0
 26 27  1  0
 27 28  2  0
 19 29  1  0
 29 30  1  0
 30 31  2  0
 31 32  1  0
 32 33  2  0
 33 34  1  0
 34 35  2  0
 15 36  1  0
 36 37  2  0
 36 38  1  0
  6 39  1  0
 39 40  2  0
 40 41  1  0
 41 42  1  0
 40  3  1  0
 38 12  1  0
 28 23  1  0
 35 30  1  0
  1 43  1  0
  1 44  1  0
  1 45  1  0
  4 46  1  0
  5 47  1  0
  7 48  1  0
  7 49  1  0
  8 50  1  0
  8 51  1  0
  9 52  1  0
 13 53  1  0
 14 54  1  0
 20 55  1  0
 20 56  1  0
 21 57  1  0
 21 58  1  0
 22 59  1  0
 22 60  1  0
 24 61  1  0
 25 62  1  0
 26 63  1  0
 27 64  1  0
 28 65  1  0
 29 66  1  0
 29 67  1  0
 31 68  1  0
 32 69  1  0
 33 70  1  0
 34 71  1  0
 35 72  1  0
 39 73  1  0
 42 74  1  0
 42 75  1  0
 42 76  1  0
M  CHG  1  38  -1
M  END
>  <UniqueID>  (39) 
33

>  <SMILES>  (39) 
COc1ccc(CCNC(=O)c2ccc(S(=O)(=O)N(CCCc3ccccc3)Cc3ccccc3)c(=O)[n-]2)cc1OC

>  <Energy>  (39) 
71.73810770106563

>  <Genealogy>  (39) 
COc1ccc(CCNC(=O)c2ccc(S(=O)(=O)N(CCCc3ccccc3)Cc3ccccc3)c(=O)[n-]2)cc1OC (protonated)
COc1ccc(CCNC(=O)c2ccc(S(=O)(=O)N(CCCc3ccccc3)Cc3ccccc3)c(=O)[n-]2)cc1OC (3D coordinates assigned)
COc1ccc(CCNC(=O)c2ccc(S(=O)(=O)N(CCCc3ccccc3)Cc3ccccc3)c(=O)[n-]2)cc1OC (optimized conformer: 71.73810770106563 kcal/mol)

>  <smiles>  (39) 
COc1ccc(CCNC(=O)c2ccc(S(=O)(=O)N(CCCc3ccccc3)Cc3ccccc3)c(=O)[nH]2)cc1OC

>  <score_type>  (39) 
oracle

>  <origin>  (39) 
adg

>  <m_score__min__energy>  (39) 
-13.52

>  <m_primary>  (39) 
energy

$$$$
39:0
     RDKit          3D

 47 49  0  0  0  0  0  0  0  0999 V2000
   54.4165   24.4184   45.9641 H   0  0  0  0  0  0  0  0  0  0  0  0
   55.3460   24.8970   45.6220 C   0  0  0  0  0  0  0  0  0  0  0  0
   55.6710   26.1420   46.0610 N   0  0  0  0  0  0  0  0  0  0  0  0
   56.8110   26.7770   45.6750 C   0  0  0  0  0  0  0  0  0  0  0  0
   57.0470   27.9710   46.1420 N   0  0  0  0  0  0  0  0  0  0  0  0
   56.7880   29.2210   45.4830 C   0  0  0  0  0  0  0  0  0  0  0  0
   55.7410   29.3390   44.7930 O   0  0  0  0  0  0  0  0  0  0  0  0
   57.6770   30.3900   45.6440 C   0  0  0  0  0  0  0  0  0  0  0  0
   57.2370   31.5860   45.2590 O   0  0  0  0  0  0  0  0  0  0  0  0
   57.9600   32.6990   45.3610 C   0  0  0  0  0  0  0  0  0  0  0  0
   57.3680   33.9770   44.8490 C   0  0  0  0  0  0  0  0  0  0  0  0
   57.0742   34.6112   45.6984 H   0  0  0  0  0  0  0  0  0  0  0  0
   58.1126   34.5064   44.2364 H   0  0  0  0  0  0  0  0  0  0  0  0
   56.4827   33.7514   44.2364 H   0  0  0  0  0  0  0  0  0  0  0  0
   59.2490   32.6490   45.9340 C   0  0  0  0  0  0  0  0  0  0  0  0
   60.0410   33.7940   46.0810 O   0  0  0  0  0  0  0  0  0  0  0  0
   59.7420   34.8340   47.0120 C   0  0  0  0  0  0  0  0  0  0  0  0
   60.4257   35.6789   46.8423 H   0  0  0  0  0  0  0  0  0  0  0  0
   58.6996   35.1531   46.8651 H   0  0  0  0  0  0  0  0  0  0  0  0
   59.9040   34.3440   48.4190 C   0  0  0  0  0  0  0  0  0  0  0  0
   59.3690   34.9780   49.3670 O   0  0  0  0  0  0  0  0  0  0  0  0
   60.7180   33.1970   48.6910 N   0  0  0  0  0  0  0  0  0  0  0  0
   61.1870   32.7130   47.8930 H   0  0  0  0  0  0  0  0  0  0  0  0
   60.9170   32.7070   50.0550 C   0  0  0  0  0  0  0  0  0  0  0  0
   61.5702   31.8223   50.0297 H   0  0  0  0  0  0  0  0  0  0  0  0
   61.3801   33.5045   50.6546 H   0  0  0  0  0  0  0  0  0  0  0  0
   59.6000   32.3320   50.6800 C   0  0  0  0  0  0  0  0  0  0  0  0
   58.9740   31.1200   50.3440 C   0  0  0  0  0  0  0  0  0  0  0  0
   59.4305   30.4562   49.5951 H   0  0  0  0  0  0  0  0  0  0  0  0
   57.7720   30.7550   50.9590 C   0  0  0  0  0  0  0  0  0  0  0  0
   57.2804   29.8094   50.6865 H   0  0  0  0  0  0  0  0  0  0  0  0
   57.1950   31.5900   51.9190 C   0  0  0  0  0  0  0  0  0  0  0  0
   56.2494   31.3018   52.4014 H   0  0  0  0  0  0  0  0  0  0  0  0
   57.8190   32.7920   52.2670 C   0  0  0  0  0  0  0  0  0  0  0  0
   57.3641   33.4482   53.0237 H   0  0  0  0  0  0  0  0  0  0  0  0
   59.0210   33.1610   51.6540 C   0  0  0  0  0  0  0  0  0  0  0  0
   59.5139   34.1032   51.9358 H   0  0  0  0  0  0  0  0  0  0  0  0
   59.7510   31.4060   46.3280 C   0  0  0  0  0  0  0  0  0  0  0  0
   60.9100   31.3120   46.8130 O   0  0  0  0  0  0  0  0  0  0  0  0
   58.9610   30.2660   46.1940 C   0  0  0  0  0  0  0  0  0  0  0  0
   59.3387   29.2839   46.5147 H   0  0  0  0  0  0  0  0  0  0  0  0
   57.6770   26.1340   44.7660 C   0  0  0  0  0  0  0  0  0  0  0  0
   58.5923   26.6372   44.4210 H   0  0  0  0  0  0  0  0  0  0  0  0
   57.3620   24.8530   44.3080 C   0  0  0  0  0  0  0  0  0  0  0  0
   58.0369   24.3380   43.6085 H   0  0  0  0  0  0  0  0  0  0  0  0
   56.1920   24.2260   44.7370 C   0  0  0  0  0  0  0  0  0  0  0  0
   55.7830   22.6180   44.1660 Cl  0  0  0  0  0  0  0  0  0  0  0  0
  1  2  1  0
  2  3  1  0
  3  4  1  0
  4  5  2  0
  5  6  1  0
  6  7  2  0
  6  8  1  0
  8  9  1  0
  9 10  1  0
 10 11  1  0
 11 12  1  0
 11 13  1  0
 11 14  1  0
 10 15  2  0
 15 16  1  0
 16 17  1  0
 17 18  1  0
 17 19  1  0
 17 20  1  0
 20 21  2  0
 20 22  1  0
 22 23  1  0
 22 24  1  0
 24 25  1  0
 24 26  1  0
 24 27  1  0
 27 28  2  0
 28 29  1  0
 28 30  1  0
 30 31  1  0
 30 32  2  0
 32 33  1  0
 32 34  1  0
 34 35  1  0
 34 36  2  0
 36 37  1  0
 15 38  1  0
 38 39  2  0
 38 40  1  0
 40 41  1  0
  4 42  1  0
 42 43  1  0
 42 44  2  0
 44 45  1  0
 44 46  1  0
 46 47  1  0
 46  2  2  0
 40  8  2  0
 36 27  1  0
M  CHG  1   3  -1
M  END
>  <UniqueID>  (40) 
34

>  <SMILES>  (40) 
Cc1oc(C(=O)/N=c2\ccc(Cl)c[n-]2)cc(=O)c1OCC(=O)NCc1ccccc1

>  <Energy>  (40) 
65.23031231291145

>  <Genealogy>  (40) 
Cc1oc(C(=O)N=c2ccc(Cl)c[n-]2)cc(=O)c1OCC(=O)NCc1ccccc1 (protonated)
Cc1oc(C(=O)/N=c2\ccc(Cl)c[n-]2)cc(=O)c1OCC(=O)NCc1ccccc1 (cis-trans isomerization)
Cc1oc(C(=O)/N=c2\ccc(Cl)c[n-]2)cc(=O)c1OCC(=O)NCc1ccccc1 (3D coordinates assigned)
Cc1oc(C(=O)/N=c2\ccc(Cl)c[n-]2)cc(=O)c1OCC(=O)NCc1ccccc1 (optimized conformer: 65.23031231291145 kcal/mol)

>  <smiles>  (40) 
Cc1oc(C(=O)N=c2ccc(Cl)c[nH]2)cc(=O)c1OCC(=O)NCc1ccccc1

>  <score_type>  (40) 
oracle

>  <origin>  (40) 
adg

>  <m_score__min__energy>  (40) 
-9.5500000000000007

>  <m_primary>  (40) 
energy

$$$$
40:0
     RDKit          3D

 29 30  0  0  0  0  0  0  0  0999 V2000
   55.1800   29.3260   44.7490 O   0  0  0  0  0  0  0  0  0  0  0  0
   56.2850   29.9140   44.6120 C   0  0  0  0  0  0  0  0  0  0  0  0
   56.3230   31.3440   44.7020 N   0  0  0  0  0  0  0  0  0  0  0  0
   57.2850   32.0780   45.1800 C   0  0  0  0  0  0  0  0  0  0  0  0
   58.5040   31.6220   45.5650 N   0  0  0  0  0  0  0  0  0  0  0  0
   59.3180   32.6250   45.9870 C   0  0  0  0  0  0  0  0  0  0  0  0
   58.7390   33.8890   45.9260 C   0  0  0  0  0  0  0  0  0  0  0  0
   59.3720   35.1170   46.2950 N   0  0  0  0  0  0  0  0  0  0  0  0
   59.6900   35.3330   47.4820 O   0  0  0  0  0  0  0  0  0  0  0  0
   59.6330   36.0720   45.3410 O   0  0  0  0  0  0  0  0  0  0  0  0
   57.1720   33.7510   45.3230 S   0  0  0  0  0  0  0  0  0  0  0  0
   57.4930   29.1520   44.5060 N   0  0  0  0  0  0  0  0  0  0  0  0
   57.8260   28.0090   45.3070 C   0  0  0  0  0  0  0  0  0  0  0  0
   57.6520   26.7360   44.7500 C   0  0  0  0  0  0  0  0  0  0  0  0
   57.9580   25.5900   45.4890 C   0  0  0  0  0  0  0  0  0  0  0  0
   57.7590   24.0010   44.7700 Cl  0  0  0  0  0  0  0  0  0  0  0  0
   58.4230   25.7100   46.7990 C   0  0  0  0  0  0  0  0  0  0  0  0
   58.5680   26.9730   47.3790 C   0  0  0  0  0  0  0  0  0  0  0  0
   58.2520   28.1360   46.6470 C   0  0  0  0  0  0  0  0  0  0  0  0
   58.3240   29.4150   47.2250 O   0  0  0  0  0  0  0  0  0  0  0  0
   59.2730   29.8170   48.2080 C   0  0  0  0  0  0  0  0  0  0  0  0
   58.9060   29.2890   49.4310 F   0  0  0  0  0  0  0  0  0  0  0  0
   60.5290   29.3440   47.8730 F   0  0  0  0  0  0  0  0  0  0  0  0
   58.8330   30.6340   45.5090 H   0  0  0  0  0  0  0  0  0  0  0  0
   60.3438   32.4530   46.3451 H   0  0  0  0  0  0  0  0  0  0  0  0
   57.2714   26.6373   43.7227 H   0  0  0  0  0  0  0  0  0  0  0  0
   58.6760   24.8085   47.3764 H   0  0  0  0  0  0  0  0  0  0  0  0
   58.9311   27.0606   48.4136 H   0  0  0  0  0  0  0  0  0  0  0  0
   59.2991   30.9155   48.2596 H   0  0  0  0  0  0  0  0  0  0  0  0
  1  2  2  0
  2  3  1  0
  3  4  2  3
  4  5  1  0
  5  6  1  0
  6  7  2  0
  7  8  1  0
  8  9  2  0
  8 10  1  0
  7 11  1  0
  2 12  1  0
 12 13  1  0
 13 14  2  0
 14 15  1  0
 15 16  1  0
 15 17  2  0
 17 18  1  0
 18 19  2  0
 19 20  1  0
 20 21  1  0
 21 22  1  0
 21 23  1  0
 11  4  1  0
 19 13  1  0
  5 24  1  0
  6 25  1  0
 14 26  1  0
 17 27  1  0
 18 28  1  0
 21 29  1  0
M  CHG  3   8   1  10  -1  12  -1
M  END
>  <UniqueID>  (41) 
35

>  <SMILES>  (41) 
O=C(N=c1[nH]cc([N+](=O)[O-])s1)[N-]c1cc(Cl)ccc1OC(F)F

>  <Energy>  (41) 
69.99980653820198

>  <Genealogy>  (41) 
O=C(N=c1[nH]cc([N+](=O)[O-])s1)[N-]c1cc(Cl)ccc1OC(F)F (protonated)
O=C(N=c1[nH]cc([N+](=O)[O-])s1)[N-]c1cc(Cl)ccc1OC(F)F (3D coordinates assigned)
O=C(N=c1[nH]cc([N+](=O)[O-])s1)[N-]c1cc(Cl)ccc1OC(F)F (optimized conformer: 69.99980653820198 kcal/mol)

>  <smiles>  (41) 
O=C(N=c1[nH]cc([N+](=O)[O-])s1)Nc1cc(Cl)ccc1OC(F)F

>  <score_type>  (41) 
oracle

>  <origin>  (41) 
adg

>  <m_score__min__energy>  (41) 
-8.6400000000000006

>  <m_primary>  (41) 
energy

$$$$
41:0
     RDKit          3D

 40 42  0  0  0  0  0  0  0  0999 V2000
   60.3470   29.5870   49.8580 C   0  0  0  0  0  0  0  0  0  0  0  0
   60.2910   28.2240   49.4510 O   0  0  0  0  0  0  0  0  0  0  0  0
   59.6770   27.7720   48.2730 C   0  0  0  0  0  0  0  0  0  0  0  0
   59.8530   26.4340   47.9030 C   0  0  0  0  0  0  0  0  0  0  0  0
   59.2670   25.9380   46.7380 C   0  0  0  0  0  0  0  0  0  0  0  0
   58.4950   26.7750   45.9290 C   0  0  0  0  0  0  0  0  0  0  0  0
   58.2980   28.1200   46.2850 C   0  0  0  0  0  0  0  0  0  0  0  0
   57.4960   29.0170   45.4180 C   0  0  0  0  0  0  0  0  0  0  0  0
   58.0800   30.1870   44.9010 C   0  0  0  0  0  0  0  0  0  0  0  0
   57.3570   31.0360   44.0450 C   0  0  0  0  0  0  0  0  0  0  0  0
   57.9830   32.2560   43.4790 C   0  0  0  0  0  0  0  0  0  0  0  0
   58.4490   32.2240   42.3090 O   0  0  0  0  0  0  0  0  0  0  0  0
   58.0310   33.4940   44.2010 N   0  0  0  0  0  0  0  0  0  0  0  0
   58.4890   33.6720   45.5510 C   0  0  0  0  0  0  0  0  0  0  0  0
   59.5250   34.5820   45.8000 C   0  0  0  0  0  0  0  0  0  0  0  0
   59.9930   34.7780   47.1020 C   0  0  0  0  0  0  0  0  0  0  0  0
   59.4390   34.0570   48.1630 C   0  0  0  0  0  0  0  0  0  0  0  0
   58.4200   33.1250   47.9220 C   0  0  0  0  0  0  0  0  0  0  0  0
   57.8670   32.3910   48.9680 O   0  0  0  0  0  0  0  0  0  0  0  0
   57.9530   32.9270   46.6170 C   0  0  0  0  0  0  0  0  0  0  0  0
   56.0220   30.7260   43.7440 C   0  0  0  0  0  0  0  0  0  0  0  0
   55.4300   29.5750   44.2650 C   0  0  0  0  0  0  0  0  0  0  0  0
   56.1570   28.7200   45.0980 C   0  0  0  0  0  0  0  0  0  0  0  0
   55.5320   27.5930   45.6210 O   0  0  0  0  0  0  0  0  0  0  0  0
   58.8980   28.6150   47.4560 C   0  0  0  0  0  0  0  0  0  0  0  0
   60.3493   29.6418   50.9566 H   0  0  0  0  0  0  0  0  0  0  0  0
   61.2649   30.0493   49.4659 H   0  0  0  0  0  0  0  0  0  0  0  0
   59.4701   30.1231   49.4659 H   0  0  0  0  0  0  0  0  0  0  0  0
   60.4581   25.7680   48.5356 H   0  0  0  0  0  0  0  0  0  0  0  0
   59.4134   24.8849   46.4558 H   0  0  0  0  0  0  0  0  0  0  0  0
   58.0393   26.3796   45.0092 H   0  0  0  0  0  0  0  0  0  0  0  0
   59.1159   30.4412   45.1698 H   0  0  0  0  0  0  0  0  0  0  0  0
   59.9718   35.1445   44.9670 H   0  0  0  0  0  0  0  0  0  0  0  0
   60.7994   35.5016   47.2921 H   0  0  0  0  0  0  0  0  0  0  0  0
   59.8027   34.2209   49.1881 H   0  0  0  0  0  0  0  0  0  0  0  0
   57.0030   32.6730   49.4150 H   0  0  0  0  0  0  0  0  0  0  0  0
   57.1635   32.1856   46.4245 H   0  0  0  0  0  0  0  0  0  0  0  0
   55.4388   31.3943   43.0935 H   0  0  0  0  0  0  0  0  0  0  0  0
   54.3843   29.3389   44.0185 H   0  0  0  0  0  0  0  0  0  0  0  0
   58.7581   29.6693   47.7368 H   0  0  0  0  0  0  0  0  0  0  0  0
  1  2  1  0
  2  3  1  0
  3  4  2  0
  4  5  1  0
  5  6  2  0
  6  7  1  0
  7  8  1  0
  8  9  2  0
  9 10  1  0
 10 11  1  0
 11 12  2  0
 11 13  1  0
 13 14  1  0
 14 15  2  0
 15 16  1  0
 16 17  2  0
 17 18  1  0
 18 19  1  0
 18 20  2  0
 10 21  2  0
 21 22  1  0
 22 23  2  0
 23 24  1  0
  7 25  2  0
 25  3  1  0
 23  8  1  0
 20 14  1  0
  1 26  1  0
  1 27  1  0
  1 28  1  0
  4 29  1  0
  5 30  1  0
  6 31  1  0
  9 32  1  0
 15 33  1  0
 16 34  1  0
 17 35  1  0
 19 36  1  0
 20 37  1  0
 21 38  1  0
 22 39  1  0
 25 40  1  0
M  CHG  2  13  -1  24  -1
M  END
>  <UniqueID>  (42) 
36

>  <SMILES>  (42) 
COc1cccc(-c2cc(C(=O)[N-]c3cccc(O)c3)ccc2[O-])c1

>  <Energy>  (42) 
54.74727667305293

>  <Genealogy>  (42) 
COc1cccc(-c2cc(C(=O)[N-]c3cccc(O)c3)ccc2[O-])c1 (protonated)
COc1cccc(-c2cc(C(=O)[N-]c3cccc(O)c3)ccc2[O-])c1 (3D coordinates assigned)
COc1cccc(-c2cc(C(=O)[N-]c3cccc(O)c3)ccc2[O-])c1 (optimized conformer: 54.74727667305293 kcal/mol)

>  <smiles>  (42) 
COc1cccc(-c2cc(C(=O)Nc3cccc(O)c3)ccc2O)c1

>  <score_type>  (42) 
oracle

>  <origin>  (42) 
adg

>  <m_score__min__energy>  (42) 
-11.23

>  <m_primary>  (42) 
energy

$$$$
42:0
     RDKit          3D

 45 48  0  0  0  0  0  0  0  0999 V2000
   65.7440   32.3120   50.1860 C   0  0  0  0  0  0  0  0  0  0  0  0
   65.0090   33.0900   49.3930 C   0  0  0  0  0  0  0  0  0  0  0  0
   63.5350   33.2190   49.5360 C   0  0  0  0  0  0  0  0  0  0  0  0
   62.6620   32.7240   48.5360 C   0  0  0  0  0  0  0  0  0  0  0  0
   63.2330   32.1060   47.2720 C   0  0  0  0  0  0  0  0  0  0  0  0
   61.3000   32.7800   48.7370 N   0  0  0  0  0  0  0  0  0  0  0  0
   60.3850   32.2200   47.7730 C   0  0  0  0  0  0  0  0  0  0  0  0
   60.1320   30.8420   47.7980 C   0  0  0  0  0  0  0  0  0  0  0  0
   59.2490   30.2610   46.8820 C   0  0  0  0  0  0  0  0  0  0  0  0
   58.9660   28.5230   46.9190 S   0  0  0  0  0  0  0  0  0  0  0  0
   59.9920   27.8320   46.0660 O   0  0  0  0  0  0  0  0  0  0  0  0
   59.0790   28.0210   48.3320 O   0  0  0  0  0  0  0  0  0  0  0  0
   57.3760   28.2030   46.3070 N   0  0  0  0  0  0  0  0  0  0  0  0
   56.9230   28.7200   45.2090 C   0  0  0  0  0  0  0  0  0  0  0  0
   55.7320   29.3470   45.1030 N   0  0  0  0  0  0  0  0  0  0  0  0
   55.5170   29.7890   43.8350 C   0  0  0  0  0  0  0  0  0  0  0  0
   56.5400   29.5140   42.9320 C   0  0  0  0  0  0  0  0  0  0  0  0
   57.7560   28.6860   43.7520 S   0  0  0  0  0  0  0  0  0  0  0  0
   58.6190   31.0580   45.9200 C   0  0  0  0  0  0  0  0  0  0  0  0
   58.8590   32.4390   45.8750 C   0  0  0  0  0  0  0  0  0  0  0  0
   58.2270   33.2360   44.9090 C   0  0  0  0  0  0  0  0  0  0  0  0
   58.4730   34.6110   44.8600 C   0  0  0  0  0  0  0  0  0  0  0  0
   59.3510   35.1990   45.7710 C   0  0  0  0  0  0  0  0  0  0  0  0
   59.9890   34.4180   46.7390 C   0  0  0  0  0  0  0  0  0  0  0  0
   59.7490   33.0320   46.8070 C   0  0  0  0  0  0  0  0  0  0  0  0
   60.7900   33.3480   49.8740 C   0  0  0  0  0  0  0  0  0  0  0  0
   59.5400   33.4090   50.0520 O   0  0  0  0  0  0  0  0  0  0  0  0
   61.6180   33.8450   50.8260 N   0  0  0  0  0  0  0  0  0  0  0  0
   62.9650   33.7760   50.6940 C   0  0  0  0  0  0  0  0  0  0  0  0
   63.6970   34.1960   51.6340 O   0  0  0  0  0  0  0  0  0  0  0  0
   66.8325   32.2500   50.0401 H   0  0  0  0  0  0  0  0  0  0  0  0
   65.2624   31.7315   50.9867 H   0  0  0  0  0  0  0  0  0  0  0  0
   65.5137   33.6606   48.5995 H   0  0  0  0  0  0  0  0  0  0  0  0
   63.9567   31.3227   47.5415 H   0  0  0  0  0  0  0  0  0  0  0  0
   62.4183   31.6643   46.6794 H   0  0  0  0  0  0  0  0  0  0  0  0
   63.7376   32.8833   46.6794 H   0  0  0  0  0  0  0  0  0  0  0  0
   60.6333   30.2103   48.5461 H   0  0  0  0  0  0  0  0  0  0  0  0
   54.6014   30.3248   43.5441 H   0  0  0  0  0  0  0  0  0  0  0  0
   56.5521   29.7897   41.8672 H   0  0  0  0  0  0  0  0  0  0  0  0
   57.9313   30.5987   45.1946 H   0  0  0  0  0  0  0  0  0  0  0  0
   57.5352   32.7771   44.1873 H   0  0  0  0  0  0  0  0  0  0  0  0
   57.9731   35.2311   44.1013 H   0  0  0  0  0  0  0  0  0  0  0  0
   59.5419   36.2814   45.7273 H   0  0  0  0  0  0  0  0  0  0  0  0
   60.6824   34.8886   47.4516 H   0  0  0  0  0  0  0  0  0  0  0  0
   61.2090   34.2670   51.6910 H   0  0  0  0  0  0  0  0  0  0  0  0
  1  2  2  0
  2  3  1  0
  3  4  2  0
  4  5  1  0
  4  6  1  0
  6  7  1  0
  7  8  2  0
  8  9  1  0
  9 10  1  0
 10 11  2  0
 10 12  2  0
 10 13  1  0
 13 14  2  3
 14 15  1  0
 15 16  1  0
 16 17  2  0
 17 18  1  0
  9 19  2  0
 19 20  1  0
 20 21  2  0
 21 22  1  0
 22 23  2  0
 23 24  1  0
 24 25  2  0
  6 26  1  0
 26 27  2  0
 26 28  1  0
 28 29  1  0
 29 30  2  0
 29  3  1  0
 25  7  1  0
 18 14  1  0
 25 20  1  0
  1 31  1  0
  1 32  1  0
  2 33  1  0
  5 34  1  0
  5 35  1  0
  5 36  1  0
  8 37  1  0
 16 38  1  0
 17 39  1  0
 19 40  1  0
 21 41  1  0
 22 42  1  0
 23 43  1  0
 24 44  1  0
 28 45  1  0
M  CHG  1  15  -1
M  END
>  <UniqueID>  (43) 
37

>  <SMILES>  (43) 
C=Cc1c(C)n(-c2cc(S(=O)(=O)N=c3[n-]ccs3)cc3ccccc23)c(=O)[nH]c1=O

>  <Energy>  (43) 
104.2033181615794

>  <Genealogy>  (43) 
C=Cc1c(C)n(-c2cc(S(=O)(=O)N=c3[n-]ccs3)cc3ccccc23)c(=O)[nH]c1=O (protonated)
C=Cc1c(C)n(-c2cc(S(=O)(=O)N=c3[n-]ccs3)cc3ccccc23)c(=O)[nH]c1=O (3D coordinates assigned)
C=Cc1c(C)n(-c2cc(S(=O)(=O)N=c3[n-]ccs3)cc3ccccc23)c(=O)[nH]c1=O (optimized conformer: 104.2033181615794 kcal/mol)

>  <smiles>  (43) 
C=Cc1c(C)n(-c2cc(S(=O)(=O)N=c3[nH]ccs3)cc3ccccc23)c(=O)[nH]c1=O

>  <score_type>  (43) 
oracle

>  <origin>  (43) 
adg

>  <m_score__min__energy>  (43) 
-10.93

>  <m_primary>  (43) 
energy

$$$$
43:0
     RDKit          3D

 70 73  0  0  0  0  0  0  0  0999 V2000
   50.1280   33.7110   51.9990 H   0  0  0  0  0  0  0  0  0  0  0  0
   50.2710   32.6770   52.0460 N   0  0  0  0  0  0  0  0  0  0  0  0
   51.1530   32.0180   51.1420 C   0  0  0  0  0  0  0  0  0  0  0  0
   51.0360   32.2200   49.9040 O   0  0  0  0  0  0  0  0  0  0  0  0
   52.1900   31.1080   51.6630 C   0  0  0  0  0  0  0  0  0  0  0  0
   53.8150   31.1750   51.2200 S   0  0  0  0  0  0  0  0  0  0  0  0
   54.2520   29.8830   52.2140 C   0  0  0  0  0  0  0  0  0  0  0  0
   55.4450   29.3860   52.3630 N   0  0  0  0  0  0  0  0  0  0  0  0
   56.7020   30.0360   52.1150 C   0  0  0  0  0  0  0  0  0  0  0  0
   57.5310   29.5640   51.2910 O   0  0  0  0  0  0  0  0  0  0  0  0
   57.0110   31.2310   52.8340 N   0  0  0  0  0  0  0  0  0  0  0  0
   58.2350   31.4120   53.6140 C   0  0  1  0  0  0  0  0  0  0  0  0
   58.5643   30.4335   53.9936 H   0  0  0  0  0  0  0  0  0  0  0  0
   59.3460   31.9610   52.7440 C   0  0  0  0  0  0  0  0  0  0  0  0
   60.4410   31.3420   52.6740 O   0  0  0  0  0  0  0  0  0  0  0  0
   59.1760   33.1430   51.9530 N   0  0  0  0  0  0  0  0  0  0  0  0
   60.1650   33.6690   51.0190 C   0  0  0  0  0  0  0  0  0  0  0  0
   60.3239   34.7394   51.2162 H   0  0  0  0  0  0  0  0  0  0  0  0
   61.1154   33.1300   51.1462 H   0  0  0  0  0  0  0  0  0  0  0  0
   59.6690   33.4870   49.6200 C   0  0  0  0  0  0  0  0  0  0  0  0
   60.1220   34.3090   48.6340 N   0  0  0  0  0  0  0  0  0  0  0  0
   59.6750   34.2100   47.3540 C   0  0  0  0  0  0  0  0  0  0  0  0
   60.0696   34.8860   46.5811 H   0  0  0  0  0  0  0  0  0  0  0  0
   58.7130   33.2490   47.0170 C   0  0  0  0  0  0  0  0  0  0  0  0
   58.1040   33.1250   45.3680 S   0  0  0  0  0  0  0  0  0  0  0  0
   58.8630   34.0780   44.4870 O   0  0  0  0  0  0  0  0  0  0  0  0
   56.6510   33.5140   45.3400 O   0  0  0  0  0  0  0  0  0  0  0  0
   58.2810   31.4560   44.7310 C   0  0  0  0  0  0  0  0  0  0  0  0
   59.2785   31.3833   44.2732 H   0  0  0  0  0  0  0  0  0  0  0  0
   58.1950   30.4190   45.8590 C   0  0  0  0  0  0  0  0  0  0  0  0
   58.9724   30.6370   46.6061 H   0  0  0  0  0  0  0  0  0  0  0  0
   57.1936   30.4792   46.3101 H   0  0  0  0  0  0  0  0  0  0  0  0
   58.4020   28.9850   45.3210 C   0  0  0  0  0  0  0  0  0  0  0  0
   59.4206   28.6569   45.5754 H   0  0  0  0  0  0  0  0  0  0  0  0
   57.6405   28.3415   45.7859 H   0  0  0  0  0  0  0  0  0  0  0  0
   58.2280   28.8970   43.8520 N   0  0  0  0  0  0  0  0  0  0  0  0
   58.1290   27.4900   43.4350 C   0  0  0  0  0  0  0  0  0  0  0  0
   58.0837   26.8459   44.3256 H   0  0  0  0  0  0  0  0  0  0  0  0
   57.2187   27.3489   42.8338 H   0  0  0  0  0  0  0  0  0  0  0  0
   59.0106   27.2229   42.8338 H   0  0  0  0  0  0  0  0  0  0  0  0
   57.0340   29.6470   43.4170 C   0  0  0  0  0  0  0  0  0  0  0  0
   56.8599   29.4600   42.3471 H   0  0  0  0  0  0  0  0  0  0  0  0
   56.1697   29.3106   44.0084 H   0  0  0  0  0  0  0  0  0  0  0  0
   57.2300   31.1580   43.6410 C   0  0  0  0  0  0  0  0  0  0  0  0
   57.5598   31.6159   42.6968 H   0  0  0  0  0  0  0  0  0  0  0  0
   56.2694   31.5764   43.9758 H   0  0  0  0  0  0  0  0  0  0  0  0
   58.2260   32.4000   48.0180 C   0  0  0  0  0  0  0  0  0  0  0  0
   57.4710   31.6382   47.7737 H   0  0  0  0  0  0  0  0  0  0  0  0
   58.6980   32.5200   49.3250 C   0  0  0  0  0  0  0  0  0  0  0  0
   58.3118   31.8617   50.1171 H   0  0  0  0  0  0  0  0  0  0  0  0
   57.9620   32.3270   54.8230 C   0  0  0  0  0  0  0  0  0  0  0  0
   57.0295   32.8808   54.6393 H   0  0  0  0  0  0  0  0  0  0  0  0
   57.8906   31.6830   55.7119 H   0  0  0  0  0  0  0  0  0  0  0  0
   59.0700   33.3220   55.0760 C   0  0  0  0  0  0  0  0  0  0  0  0
   58.8990   34.6770   54.7410 C   0  0  0  0  0  0  0  0  0  0  0  0
   57.9596   35.0125   54.2773 H   0  0  0  0  0  0  0  0  0  0  0  0
   59.9180   35.5990   54.9950 C   0  0  0  0  0  0  0  0  0  0  0  0
   59.7791   36.6576   54.7304 H   0  0  0  0  0  0  0  0  0  0  0  0
   61.1140   35.1780   55.5850 C   0  0  0  0  0  0  0  0  0  0  0  0
   61.9154   35.9051   55.7830 H   0  0  0  0  0  0  0  0  0  0  0  0
   61.2910   33.8340   55.9230 C   0  0  0  0  0  0  0  0  0  0  0  0
   62.2316   33.5038   56.3880 H   0  0  0  0  0  0  0  0  0  0  0  0
   60.2740   32.9080   55.6710 C   0  0  0  0  0  0  0  0  0  0  0  0
   60.4170   31.8509   55.9396 H   0  0  0  0  0  0  0  0  0  0  0  0
   53.1880   29.3950   52.8860 N   0  0  0  0  0  0  0  0  0  0  0  0
   52.0390   30.0620   52.5870 C   0  0  0  0  0  0  0  0  0  0  0  0
   50.7430   29.6830   53.2310 C   0  0  0  0  0  0  0  0  0  0  0  0
   50.8539   29.7154   54.3249 H   0  0  0  0  0  0  0  0  0  0  0  0
   49.9590   30.3895   52.9208 H   0  0  0  0  0  0  0  0  0  0  0  0
   50.4632   28.6654   52.9208 H   0  0  0  0  0  0  0  0  0  0  0  0
  1  2  1  0
  2  3  1  0
  3  4  2  0
  3  5  1  0
  5  6  1  0
  6  7  1  0
  7  8  2  0
  8  9  1  0
  9 10  2  0
  9 11  1  0
 11 12  1  0
 12 13  1  1
 12 14  1  0
 14 15  2  0
 14 16  1  0
 16 17  1  0
 17 18  1  0
 17 19  1  0
 17 20  1  0
 20 21  2  0
 21 22  1  0
 22 23  1  0
 22 24  2  0
 24 25  1  0
 25 26  2  0
 25 27  2  0
 25 28  1  0
 28 29  1  0
 28 30  1  0
 30 31  1  0
 30 32  1  0
 30 33  1  0
 33 34  1  0
 33 35  1  0
 33 36  1  0
 36 37  1  0
 37 38  1  0
 37 39  1  0
 37 40  1  0
 36 41  1  0
 41 42  1  0
 41 43  1  0
 41 44  1  0
 44 45  1  0
 44 46  1  0
 24 47  1  0
 47 48  1  0
 47 49  2  0
 49 50  1  0
 12 51  1  0
 51 52  1  0
 51 53  1  0
 51 54  1  0
 54 55  2  0
 55 56  1  0
 55 57  1  0
 57 58  1  0
 57 59  2  0
 59 60  1  0
 59 61  1  0
 61 62  1  0
 61 63  2  0
 63 64  1  0
  7 65  1  0
 65 66  1  0
 66 67  1  0
 67 68  1  0
 67 69  1  0
 67 70  1  0
 66  5  2  0
 49 20  1  0
 63 54  1  0
 44 28  1  0
M  CHG  4   2  -1  11  -1  16  -1  65  -1
M  END
>  <UniqueID>  (44) 
38

>  <SMILES>  (44) 
Cc1[n-]/c(=N/C(=O)[N-][C@H](Cc2ccccc2)C(=O)[N-]Cc2ccc(S(=O)(=O)C3CCN(C)CC3)cn2)sc1C([NH-])=O

>  <Energy>  (44) 
100.66947835128049

>  <Genealogy>  (44) 
Cc1[n-]c(=NC(=O)[N-]C(Cc2ccccc2)C(=O)[N-]Cc2ccc(S(=O)(=O)C3CCN(C)CC3)cn2)sc1C([NH-])=O (protonated)
Cc1[n-]c(=NC(=O)[N-][C@H](Cc2ccccc2)C(=O)[N-]Cc2ccc(S(=O)(=O)C3CCN(C)CC3)cn2)sc1C([NH-])=O (chirality)
Cc1[n-]/c(=N/C(=O)[N-][C@H](Cc2ccccc2)C(=O)[N-]Cc2ccc(S(=O)(=O)C3CCN(C)CC3)cn2)sc1C([NH-])=O (cis-trans isomerization)
Cc1[n-]/c(=N/C(=O)[N-][C@H](Cc2ccccc2)C(=O)[N-]Cc2ccc(S(=O)(=O)C3CCN(C)CC3)cn2)sc1C([NH-])=O (3D coordinates assigned)
Cc1[n-]/c(=N/C(=O)[N-][C@H](Cc2ccccc2)C(=O)[N-]Cc2ccc(S(=O)(=O)C3CCN(C)CC3)cn2)sc1C([NH-])=O (nonaromatic ring conformer: 100.66947835128049 kcal/mol)

>  <smiles>  (44) 
Cc1[nH]c(=NC(=O)NC(Cc2ccccc2)C(=O)NCc2ccc(S(=O)(=O)C3CCN(C)CC3)cn2)sc1C(N)=O

>  <score_type>  (44) 
oracle

>  <origin>  (44) 
adg

>  <m_score__min__energy>  (44) 
-15.48

>  <m_primary>  (44) 
energy

$$$$
44:0
     RDKit          3D

 65 67  0  0  1  0  0  0  0  0999 V2000
   59.1870   31.1320   49.1440 C   0  0  0  0  0  0  0  0  0  0  0  0
   60.0360   30.2740   48.6430 C   0  0  0  0  0  0  0  0  0  0  0  0
   59.6990   29.7510   47.3000 C   0  0  0  0  0  0  0  0  0  0  0  0
   60.6310   29.9620   46.4440 O   0  0  0  0  0  0  0  0  0  0  0  0
   58.4970   29.0990   46.9880 N   0  0  0  0  0  0  0  0  0  0  0  0
   58.2320   28.6260   45.6450 C   0  0  0  0  0  0  0  0  0  0  0  0
   57.4100   29.3910   44.7920 C   0  0  0  0  0  0  0  0  0  0  0  0
   56.8190   30.5540   45.1680 O   0  0  0  0  0  0  0  0  0  0  0  0
   56.7110   31.7640   44.5170 C   0  0  0  0  0  0  0  0  0  0  0  0
   57.8050   32.6810   44.9130 C   0  0  0  0  0  0  0  0  0  0  0  0
   57.6930   34.0090   44.5840 C   0  0  0  0  0  0  0  0  0  0  0  0
   58.6450   34.9360   44.9300 C   0  0  0  0  0  0  0  0  0  0  0  0
   59.7580   34.4980   45.6380 C   0  0  0  0  0  0  0  0  0  0  0  0
   59.9140   33.1710   45.9910 C   0  0  0  0  0  0  0  0  0  0  0  0
   61.0760   32.7330   46.7180 N   0  0  0  0  0  0  0  0  0  0  0  0
   61.4150   33.5120   47.8480 C   0  0  0  0  0  0  0  0  0  0  0  0
   60.6470   34.5010   48.0810 O   0  0  0  0  0  0  0  0  0  0  0  0
   62.5430   33.2590   48.7260 C   0  0  0  0  0  0  0  0  0  0  0  0
   63.4610   32.2500   48.5320 C   0  0  0  0  0  0  0  0  0  0  0  0
   64.5250   32.0290   49.4050 C   0  0  0  0  0  0  0  0  0  0  0  0
   64.6860   32.8430   50.5170 C   0  0  0  0  0  0  0  0  0  0  0  0
   65.7210   32.6380   51.3840 O   0  0  0  0  0  0  0  0  0  0  0  0
   67.0470   32.3660   51.0650 C   0  0  0  0  0  0  0  0  0  0  0  0
   67.5060   33.2090   50.0960 F   0  0  0  0  0  0  0  0  0  0  0  0
   67.8000   32.5460   52.2190 F   0  0  0  0  0  0  0  0  0  0  0  0
   67.1780   31.0540   50.6300 F   0  0  0  0  0  0  0  0  0  0  0  0
   63.7580   33.8490   50.6950 C   0  0  0  0  0  0  0  0  0  0  0  0
   62.7070   34.0660   49.8300 C   0  0  0  0  0  0  0  0  0  0  0  0
   58.9210   32.2730   45.6170 C   0  0  0  0  0  0  0  0  0  0  0  0
   57.2080   28.9230   43.5360 N   0  0  0  0  0  0  0  0  0  0  0  0
   57.7680   27.7770   43.1250 C   0  0  0  0  0  0  0  0  0  0  0  0
   58.5510   27.0210   43.9040 N   0  0  0  0  0  0  0  0  0  0  0  0
   58.7970   27.4370   45.1870 C   0  0  0  0  0  0  0  0  0  0  0  0
   59.5370   26.7100   45.9710 N   0  0  0  0  0  0  0  0  0  0  0  0
   58.9710   25.6890   46.8520 C   0  0  0  0  0  0  0  0  0  0  0  0
   57.7680   25.1170   46.2050 C   0  0  0  0  0  0  0  0  0  0  0  0
   56.4430   25.4180   46.7620 C   0  0  0  0  0  0  0  0  0  0  0  0
   55.3920   25.6140   45.9970 O   0  0  0  0  0  0  0  0  0  0  0  0
   54.5500   24.6810   45.5270 C   0  0  0  0  0  0  0  0  0  0  0  0
   59.3665   31.5668   50.1383 H   0  0  0  0  0  0  0  0  0  0  0  0
   58.2929   31.4194   48.5713 H   0  0  0  0  0  0  0  0  0  0  0  0
   60.9414   29.9611   49.1838 H   0  0  0  0  0  0  0  0  0  0  0  0
   57.7920   28.9580   47.7360 H   0  0  0  0  0  0  0  0  0  0  0  0
   56.7600   31.5937   43.4314 H   0  0  0  0  0  0  0  0  0  0  0  0
   55.7511   32.2251   44.7926 H   0  0  0  0  0  0  0  0  0  0  0  0
   56.8080   34.3428   44.0225 H   0  0  0  0  0  0  0  0  0  0  0  0
   58.5301   35.9948   44.6548 H   0  0  0  0  0  0  0  0  0  0  0  0
   60.5328   35.2246   45.9240 H   0  0  0  0  0  0  0  0  0  0  0  0
   61.6460   31.9110   46.4590 H   0  0  0  0  0  0  0  0  0  0  0  0
   63.3501   31.5945   47.6556 H   0  0  0  0  0  0  0  0  0  0  0  0
   65.2352   31.2113   49.2128 H   0  0  0  0  0  0  0  0  0  0  0  0
   63.8621   34.5090   51.5688 H   0  0  0  0  0  0  0  0  0  0  0  0
   61.9981   34.8850   50.0217 H   0  0  0  0  0  0  0  0  0  0  0  0
   59.0266   31.2122   45.8882 H   0  0  0  0  0  0  0  0  0  0  0  0
   57.5744   27.4407   42.0957 H   0  0  0  0  0  0  0  0  0  0  0  0
   58.9330   26.1640   43.5010 H   0  0  0  0  0  0  0  0  0  0  0  0
   59.7127   24.8947   47.0223 H   0  0  0  0  0  0  0  0  0  0  0  0
   58.6989   26.1375   47.8189 H   0  0  0  0  0  0  0  0  0  0  0  0
   57.7658   25.4687   45.1627 H   0  0  0  0  0  0  0  0  0  0  0  0
   57.8773   24.0336   46.3612 H   0  0  0  0  0  0  0  0  0  0  0  0
   56.1892   24.5766   47.4235 H   0  0  0  0  0  0  0  0  0  0  0  0
   56.5984   26.4153   47.1992 H   0  0  0  0  0  0  0  0  0  0  0  0
   54.0765   24.1564   46.3699 H   0  0  0  0  0  0  0  0  0  0  0  0
   53.7748   25.1626   44.9129 H   0  0  0  0  0  0  0  0  0  0  0  0
   55.1084   23.9591   44.9129 H   0  0  0  0  0  0  0  0  0  0  0  0
  1  2  2  0
  2  3  1  0
  3  4  2  0
  3  5  1  0
  5  6  1  0
  6  7  2  0
  7  8  1  0
  8  9  1  0
  9 10  1  0
 10 11  2  0
 11 12  1  0
 12 13  2  0
 13 14  1  0
 14 15  1  0
 15 16  1  0
 16 17  2  0
 16 18  1  0
 18 19  2  0
 19 20  1  0
 20 21  2  0
 21 22  1  0
 22 23  1  0
 23 24  1  0
 23 25  1  0
 23 26  1  0
 21 27  1  0
 27 28  2  0
 14 29  2  0
  7 30  1  0
 30 31  2  0
 31 32  1  0
 32 33  1  0
 33 34  2  0
 34 35  1  0
 35 36  1  0
 36 37  1  0
 37 38  1  0
 38 39  1  0
 33  6  1  0
 29 10  1  0
 28 18  1  0
  1 40  1  0
  1 41  1  0
  2 42  1  0
  5 43  1  0
  9 44  1  0
  9 45  1  0
 11 46  1  0
 12 47  1  0
 13 48  1  0
 15 49  1  0
 19 50  1  0
 20 51  1  0
 27 52  1  0
 28 53  1  0
 29 54  1  0
 31 55  1  0
 32 56  1  0
 35 57  1  0
 35 58  1  0
 36 59  1  0
 36 60  1  0
 37 61  1  0
 37 62  1  0
 39 63  1  0
 39 64  1  0
 39 65  1  0
M  END
>  <smiles>  (45) 
C=CC(=O)Nc1c(OCc2cccc(NC(=O)c3ccc(OC(F)(F)F)cc3)c2)nc[nH]c1=NCCCOC

>  <score_type>  (45) 
oracle

>  <origin>  (45) 
adg

>  <m_score__min__energy>  (45) 
-8.5800000000000001

>  <m_primary>  (45) 
energy

$$$$
45:0
     RDKit          3D

 72 76  0  0  0  0  0  0  0  0999 V2000
   56.8060   33.8250   45.4660 O   0  0  0  0  0  0  0  0  0  0  0  0
   58.0560   33.8570   45.3110 C   0  0  0  0  0  0  0  0  0  0  0  0
   58.8770   34.9660   45.9090 C   0  0  0  0  0  0  0  0  0  0  0  0
   59.9040   34.4630   46.8770 C   0  0  0  0  0  0  0  0  0  0  0  0
   59.7830   34.4830   48.2610 C   0  0  0  0  0  0  0  0  0  0  0  0
   60.8860   33.9270   48.9190 C   0  0  0  0  0  0  0  0  0  0  0  0
   61.8650   33.4670   48.0470 C   0  0  0  0  0  0  0  0  0  0  0  0
   63.3630   32.6830   48.5280 S   0  0  0  0  0  0  0  0  0  0  0  0
   63.3840   31.3060   47.9300 O   0  0  0  0  0  0  0  0  0  0  0  0
   64.5240   33.4500   47.9600 O   0  0  0  0  0  0  0  0  0  0  0  0
   63.5380   32.5490   50.2670 N   0  0  0  0  0  0  0  0  0  0  0  0
   64.3930   31.4160   50.6670 C   0  0  0  0  0  0  0  0  0  0  0  0
   65.9040   31.7350   50.5610 C   0  0  0  0  0  0  0  0  0  0  0  0
   66.1750   33.1070   50.3430 O   0  0  0  0  0  0  0  0  0  0  0  0
   65.4270   33.8890   51.2450 C   0  0  0  0  0  0  0  0  0  0  0  0
   63.9280   33.8280   50.9020 C   0  0  0  0  0  0  0  0  0  0  0  0
   61.3650   33.7320   46.4610 S   0  0  0  0  0  0  0  0  0  0  0  0
   58.6990   32.8670   44.5000 N   0  0  0  0  0  0  0  0  0  0  0  0
   58.0610   31.6410   44.1180 C   0  0  0  0  0  0  0  0  0  0  0  0
   57.2510   31.6280   42.9710 C   0  0  0  0  0  0  0  0  0  0  0  0
   56.5830   30.4620   42.5900 C   0  0  0  0  0  0  0  0  0  0  0  0
   56.7290   29.2950   43.3400 C   0  0  0  0  0  0  0  0  0  0  0  0
   57.5580   29.2850   44.4660 C   0  0  0  0  0  0  0  0  0  0  0  0
   58.2330   30.4510   44.8640 C   0  0  0  0  0  0  0  0  0  0  0  0
   59.1250   30.3970   45.9920 N   0  0  0  0  0  0  0  0  0  0  0  0
   60.2070   29.4040   46.0230 C   0  0  0  0  0  0  0  0  0  0  0  0
   60.8920   29.4020   47.3910 C   0  0  0  0  0  0  0  0  0  0  0  0
   59.8790   29.2860   48.4550 N   0  0  0  0  0  0  0  0  0  0  0  0
   60.6340   29.1270   50.0260 S   0  0  0  0  0  0  0  0  0  0  0  0
   61.1200   27.7140   50.2030 O   0  0  0  0  0  0  0  0  0  0  0  0
   61.8250   30.0460   50.0790 O   0  0  0  0  0  0  0  0  0  0  0  0
   59.5500   29.5640   51.3920 C   0  0  0  0  0  0  0  0  0  0  0  0
   59.4790   31.0530   51.6040 C   0  0  0  0  0  0  0  0  0  0  0  0
   58.2540   31.7300   51.4590 C   0  0  0  0  0  0  0  0  0  0  0  0
   58.1800   33.1110   51.6750 C   0  0  0  0  0  0  0  0  0  0  0  0
   59.3280   33.8240   52.0350 C   0  0  0  0  0  0  0  0  0  0  0  0
   60.5510   33.1590   52.1710 C   0  0  0  0  0  0  0  0  0  0  0  0
   60.6270   31.7790   51.9590 C   0  0  0  0  0  0  0  0  0  0  0  0
   58.8320   30.3390   48.4370 C   0  0  0  0  0  0  0  0  0  0  0  0
   58.8670   31.2210   47.1770 C   0  0  0  0  0  0  0  0  0  0  0  0
   59.3904   35.5019   45.0970 H   0  0  0  0  0  0  0  0  0  0  0  0
   58.1931   35.6271   46.4614 H   0  0  0  0  0  0  0  0  0  0  0  0
   58.9085   34.8943   48.7865 H   0  0  0  0  0  0  0  0  0  0  0  0
   60.9693   33.8610   50.0139 H   0  0  0  0  0  0  0  0  0  0  0  0
   64.1621   31.1530   51.7098 H   0  0  0  0  0  0  0  0  0  0  0  0
   64.1821   30.5842   49.9788 H   0  0  0  0  0  0  0  0  0  0  0  0
   66.3918   31.4278   51.4979 H   0  0  0  0  0  0  0  0  0  0  0  0
   66.2916   31.1852   49.6907 H   0  0  0  0  0  0  0  0  0  0  0  0
   65.5799   33.5088   52.2658 H   0  0  0  0  0  0  0  0  0  0  0  0
   65.7647   34.9334   51.1730 H   0  0  0  0  0  0  0  0  0  0  0  0
   63.3496   33.9509   51.8296 H   0  0  0  0  0  0  0  0  0  0  0  0
   63.7192   34.6331   50.1822 H   0  0  0  0  0  0  0  0  0  0  0  0
   59.6250   33.0960   44.0760 H   0  0  0  0  0  0  0  0  0  0  0  0
   57.1419   32.5420   42.3687 H   0  0  0  0  0  0  0  0  0  0  0  0
   55.9407   30.4640   41.6970 H   0  0  0  0  0  0  0  0  0  0  0  0
   56.1914   28.3817   43.0454 H   0  0  0  0  0  0  0  0  0  0  0  0
   57.6825   28.3576   45.0443 H   0  0  0  0  0  0  0  0  0  0  0  0
   59.7884   28.4060   45.8261 H   0  0  0  0  0  0  0  0  0  0  0  0
   60.9493   29.6619   45.2533 H   0  0  0  0  0  0  0  0  0  0  0  0
   61.5847   28.5497   47.4515 H   0  0  0  0  0  0  0  0  0  0  0  0
   61.4492   30.3416   47.5201 H   0  0  0  0  0  0  0  0  0  0  0  0
   58.5390   29.1876   51.1771 H   0  0  0  0  0  0  0  0  0  0  0  0
   59.9582   29.1104   52.3072 H   0  0  0  0  0  0  0  0  0  0  0  0
   57.3502   31.1713   51.1745 H   0  0  0  0  0  0  0  0  0  0  0  0
   57.2195   33.6351   51.5617 H   0  0  0  0  0  0  0  0  0  0  0  0
   59.2691   34.9082   52.2113 H   0  0  0  0  0  0  0  0  0  0  0  0
   61.4548   33.7228   52.4453 H   0  0  0  0  0  0  0  0  0  0  0  0
   61.5904   31.2600   52.0708 H   0  0  0  0  0  0  0  0  0  0  0  0
   57.8475   29.8515   48.4930 H   0  0  0  0  0  0  0  0  0  0  0  0
   59.0222   30.9977   49.2972 H   0  0  0  0  0  0  0  0  0  0  0  0
   57.8987   31.7301   47.0623 H   0  0  0  0  0  0  0  0  0  0  0  0
   59.6710   31.9646   47.2803 H   0  0  0  0  0  0  0  0  0  0  0  0
  1  2  2  0
  2  3  1  0
  3  4  1  0
  4  5  2  0
  5  6  1  0
  6  7  2  0
  7  8  1  0
  8  9  2  0
  8 10  2  0
  8 11  1  0
 11 12  1  0
 12 13  1  0
 13 14  1  0
 14 15  1  0
 15 16  1  0
  7 17  1  0
  2 18  1  0
 18 19  1  0
 19 20  2  0
 20 21  1  0
 21 22  2  0
 22 23  1  0
 23 24  2  0
 24 25  1  0
 25 26  1  0
 26 27  1  0
 27 28  1  0
 28 29  1  0
 29 30  2  0
 29 31  2  0
 29 32  1  0
 32 33  1  0
 33 34  2  0
 34 35  1  0
 35 36  2  0
 36 37  1  0
 37 38  2  0
 28 39  1  0
 39 40  1  0
 17  4  1  0
 24 19  1  0
 40 25  1  0
 16 11  1  0
 38 33  1  0
  3 41  1  0
  3 42  1  0
  5 43  1  0
  6 44  1  0
 12 45  1  0
 12 46  1  0
 13 47  1  0
 13 48  1  0
 15 49  1  0
 15 50  1  0
 16 51  1  0
 16 52  1  0
 18 53  1  0
 20 54  1  0
 21 55  1  0
 22 56  1  0
 23 57  1  0
 26 58  1  0
 26 59  1  0
 27 60  1  0
 27 61  1  0
 32 62  1  0
 32 63  1  0
 34 64  1  0
 35 65  1  0
 36 66  1  0
 37 67  1  0
 38 68  1  0
 39 69  1  0
 39 70  1  0
 40 71  1  0
 40 72  1  0
M  END
>  <UniqueID>  (46) 
39

>  <SMILES>  (46) 
O=C(Cc1ccc(S(=O)(=O)N2CCOCC2)s1)Nc1ccccc1N1CCN(S(=O)(=O)Cc2ccccc2)CC1

>  <Energy>  (46) 
117.58358853939006

>  <Genealogy>  (46) 
O=C(Cc1ccc(S(=O)(=O)N2CCOCC2)s1)Nc1ccccc1N1CCN(S(=O)(=O)Cc2ccccc2)CC1 (3D coordinates assigned)
O=C(Cc1ccc(S(=O)(=O)N2CCOCC2)s1)Nc1ccccc1N1CCN(S(=O)(=O)Cc2ccccc2)CC1 (nonaromatic ring conformer: 117.58358853939006 kcal/mol)

>  <smiles>  (46) 
O=C(Cc1ccc(S(=O)(=O)N2CCOCC2)s1)Nc1ccccc1N1CCN(S(=O)(=O)Cc2ccccc2)CC1

>  <score_type>  (46) 
oracle

>  <origin>  (46) 
adg

>  <m_score__min__energy>  (46) 
-11.65

>  <m_primary>  (46) 
energy

$$$$
46:0
     RDKit          3D

 65 68  0  0  1  0  0  0  0  0999 V2000
   58.9270   34.7190   46.4850 C   0  0  0  0  0  0  0  0  0  0  0  0
   57.7960   33.4100   46.1080 S   0  0  0  0  0  0  0  0  0  0  0  0
   56.8220   33.8310   45.0450 O   0  0  0  0  0  0  0  0  0  0  0  0
   57.0420   33.0440   47.3540 O   0  0  0  0  0  0  0  0  0  0  0  0
   58.6440   32.0390   45.5630 O   0  0  0  0  0  0  0  0  0  0  0  0
   59.2570   31.2470   46.5330 C   0  0  0  0  0  0  0  0  0  0  0  0
   60.3980   31.6160   47.1220 N   0  0  0  0  0  0  0  0  0  0  0  0
   61.0490   30.9100   48.0620 C   0  0  0  0  0  0  0  0  0  0  0  0
   62.2870   31.4500   48.6080 C   0  0  0  0  0  0  0  0  0  0  0  0
   62.7830   31.0090   49.8340 C   0  0  0  0  0  0  0  0  0  0  0  0
   63.9430   31.5080   50.3570 C   0  0  0  0  0  0  0  0  0  0  0  0
   64.6810   32.4690   49.7030 C   0  0  0  0  0  0  0  0  0  0  0  0
   66.1730   33.1200   50.3590 Cl  0  0  0  0  0  0  0  0  0  0  0  0
   64.2070   32.9170   48.4920 C   0  0  0  0  0  0  0  0  0  0  0  0
   63.0370   32.4110   47.9680 C   0  0  0  0  0  0  0  0  0  0  0  0
   60.5150   29.7380   48.4490 N   0  0  0  0  0  0  0  0  0  0  0  0
   59.3690   29.2890   47.9110 C   0  0  0  0  0  0  0  0  0  0  0  0
   58.8570   28.1800   48.2720 N   0  0  0  0  0  0  0  0  0  0  0  0
   59.5600   26.9100   48.1270 C   0  0  0  0  0  0  0  0  0  0  0  0
   58.9160   26.2070   46.9610 C   0  0  0  0  0  0  0  0  0  0  0  0
   57.8760   25.1990   47.3350 C   0  0  0  0  0  0  0  0  0  0  0  0
   56.6830   25.2370   46.4710 C   0  0  0  0  0  0  0  0  0  0  0  0
   55.8910   26.2030   46.3710 O   0  0  0  0  0  0  0  0  0  0  0  0
   56.3990   24.0870   45.6850 N   0  0  0  0  0  0  0  0  0  0  0  0
   55.2340   24.0870   44.8220 C   0  0  0  0  0  0  0  0  0  0  0  0
   55.5530   23.4090   43.4890 C   0  0  0  0  0  0  0  0  0  0  0  0
   56.2630   22.2100   43.6800 O   0  0  0  0  0  0  0  0  0  0  0  0
   57.4880   22.4950   44.2540 C   0  0  0  0  0  0  0  0  0  0  0  0
   57.2220   22.8980   45.6980 C   0  0  0  0  0  0  0  0  0  0  0  0
   58.7110   30.0340   46.9380 C   0  0  0  0  0  0  0  0  0  0  0  0
   57.5340   29.6310   46.3470 O   0  0  0  0  0  0  0  0  0  0  0  0
   57.3920   29.2370   45.0420 C   0  0  0  0  0  0  0  0  0  0  0  0
   57.9650   28.0720   44.5440 C   0  0  0  0  0  0  0  0  0  0  0  0
   57.7640   27.7560   43.2020 C   0  0  0  0  0  0  0  0  0  0  0  0
   57.0180   28.5820   42.4010 C   0  0  0  0  0  0  0  0  0  0  0  0
   56.4440   29.7390   42.8780 C   0  0  0  0  0  0  0  0  0  0  0  0
   56.6410   30.0530   44.2070 C   0  0  0  0  0  0  0  0  0  0  0  0
   56.0690   31.2280   44.7250 O   0  0  0  0  0  0  0  0  0  0  0  0
   59.0168   34.8230   47.5764 H   0  0  0  0  0  0  0  0  0  0  0  0
   59.9130   34.4864   46.0564 H   0  0  0  0  0  0  0  0  0  0  0  0
   58.5538   35.6608   46.0564 H   0  0  0  0  0  0  0  0  0  0  0  0
   62.2279   30.2416   50.3934 H   0  0  0  0  0  0  0  0  0  0  0  0
   64.2970   31.1312   51.3279 H   0  0  0  0  0  0  0  0  0  0  0  0
   64.7661   33.6851   47.9375 H   0  0  0  0  0  0  0  0  0  0  0  0
   62.6874   32.7912   46.9968 H   0  0  0  0  0  0  0  0  0  0  0  0
   60.9770   29.1690   49.1620 H   0  0  0  0  0  0  0  0  0  0  0  0
   60.6271   27.0852   47.9252 H   0  0  0  0  0  0  0  0  0  0  0  0
   59.4952   26.3076   49.0451 H   0  0  0  0  0  0  0  0  0  0  0  0
   58.4424   26.9669   46.3220 H   0  0  0  0  0  0  0  0  0  0  0  0
   59.7176   25.6517   46.4521 H   0  0  0  0  0  0  0  0  0  0  0  0
   58.3229   24.1962   47.2675 H   0  0  0  0  0  0  0  0  0  0  0  0
   57.5441   25.4400   48.3557 H   0  0  0  0  0  0  0  0  0  0  0  0
   54.4165   23.5432   45.3179 H   0  0  0  0  0  0  0  0  0  0  0  0
   54.9355   25.1279   44.6285 H   0  0  0  0  0  0  0  0  0  0  0  0
   54.6111   23.1877   42.9656 H   0  0  0  0  0  0  0  0  0  0  0  0
   56.1789   24.0910   42.8948 H   0  0  0  0  0  0  0  0  0  0  0  0
   58.1352   21.6061   44.2233 H   0  0  0  0  0  0  0  0  0  0  0  0
   57.9975   23.3034   43.7091 H   0  0  0  0  0  0  0  0  0  0  0  0
   56.6965   22.0858   46.2216 H   0  0  0  0  0  0  0  0  0  0  0  0
   58.1696   23.0945   46.2210 H   0  0  0  0  0  0  0  0  0  0  0  0
   58.5625   27.4158   45.1938 H   0  0  0  0  0  0  0  0  0  0  0  0
   58.2057   26.8398   42.7831 H   0  0  0  0  0  0  0  0  0  0  0  0
   56.8737   28.3118   41.3445 H   0  0  0  0  0  0  0  0  0  0  0  0
   55.8486   30.3909   42.2218 H   0  0  0  0  0  0  0  0  0  0  0  0
   56.4850   31.6730   45.5190 H   0  0  0  0  0  0  0  0  0  0  0  0
  1  2  1  0
  2  3  2  0
  2  4  2  0
  2  5  1  0
  5  6  1  0
  6  7  1  0
  7  8  2  0
  8  9  1  0
  9 10  2  0
 10 11  1  0
 11 12  2  0
 12 13  1  0
 12 14  1  0
 14 15  2  0
  8 16  1  0
 16 17  1  0
 17 18  2  0
 18 19  1  0
 19 20  1  0
 20 21  1  0
 21 22  1  0
 22 23  2  0
 22 24  1  0
 24 25  1  0
 25 26  1  0
 26 27  1  0
 27 28  1  0
 28 29  1  0
 17 30  1  0
 30 31  1  0
 31 32  1  0
 32 33  2  0
 33 34  1  0
 34 35  2  0
 35 36  1  0
 36 37  2  0
 37 38  1  0
 30  6  2  0
 37 32  1  0
 15  9  1  0
 29 24  1  0
  1 39  1  0
  1 40  1  0
  1 41  1  0
 10 42  1  0
 11 43  1  0
 14 44  1  0
 15 45  1  0
 16 46  1  0
 19 47  1  0
 19 48  1  0
 20 49  1  0
 20 50  1  0
 21 51  1  0
 21 52  1  0
 25 53  1  0
 25 54  1  0
 26 55  1  0
 26 56  1  0
 28 57  1  0
 28 58  1  0
 29 59  1  0
 29 60  1  0
 33 61  1  0
 34 62  1  0
 35 63  1  0
 36 64  1  0
 38 65  1  0
M  END
>  <smiles>  (47) 
CS(=O)(=O)Oc1nc(-c2ccc(Cl)cc2)[nH]c(=NCCCC(=O)N2CCOCC2)c1Oc1ccccc1O

>  <score_type>  (47) 
oracle

>  <origin>  (47) 
adg

>  <m_score__min__energy>  (47) 
-10.52

>  <m_primary>  (47) 
energy

$$$$
47:0
     RDKit          3D

 45 47  0  0  0  0  0  0  0  0999 V2000
   63.3780   34.0700   46.3860 C   0  0  0  0  0  0  0  0  0  0  0  0
   62.3520   33.2810   47.0600 N   0  0  0  0  0  0  0  0  0  0  0  0
   62.6900   32.2890   48.0420 C   0  0  0  0  0  0  0  0  0  0  0  0
   63.9010   32.0880   48.3340 O   0  0  0  0  0  0  0  0  0  0  0  0
   61.6310   31.5020   48.7120 C   0  0  0  0  0  0  0  0  0  0  0  0
   61.0850   30.3570   48.1040 C   0  0  0  0  0  0  0  0  0  0  0  0
   60.0890   29.6270   48.7690 C   0  0  0  0  0  0  0  0  0  0  0  0
   59.4590   28.4310   48.1190 C   0  0  0  0  0  0  0  0  0  0  0  0
   58.1510   28.7830   47.6790 O   0  0  0  0  0  0  0  0  0  0  0  0
   57.8820   29.1760   46.3640 C   0  0  0  0  0  0  0  0  0  0  0  0
   58.0470   30.5200   45.9710 C   0  0  0  0  0  0  0  0  0  0  0  0
   58.4380   31.4890   46.9560 N   0  0  0  0  0  0  0  0  0  0  0  0
   58.9400   33.1200   46.6450 S   0  0  0  0  0  0  0  0  0  0  0  0
   57.5470   34.0990   46.1230 C   0  0  0  0  0  0  0  0  0  0  0  0
   60.0180   33.1370   45.5980 O   0  0  0  0  0  0  0  0  0  0  0  0
   59.4900   33.7040   47.9150 O   0  0  0  0  0  0  0  0  0  0  0  0
   57.7940   30.8840   44.6380 C   0  0  0  0  0  0  0  0  0  0  0  0
   57.3620   29.9310   43.7170 C   0  0  0  0  0  0  0  0  0  0  0  0
   57.1770   28.6060   44.1100 C   0  0  0  0  0  0  0  0  0  0  0  0
   57.4360   28.2120   45.4320 C   0  0  0  0  0  0  0  0  0  0  0  0
   57.2450   26.7980   45.8430 C   0  0  0  0  0  0  0  0  0  0  0  0
   58.2500   25.9130   45.9820 N   0  0  0  0  0  0  0  0  0  0  0  0
   57.6260   24.7730   46.3430 C   0  0  0  0  0  0  0  0  0  0  0  0
   58.2470   23.7010   46.5670 O   0  0  0  0  0  0  0  0  0  0  0  0
   56.2840   24.8700   46.4400 N   0  0  0  0  0  0  0  0  0  0  0  0
   56.0560   26.1530   46.1190 C   0  0  0  0  0  0  0  0  0  0  0  0
   54.7850   26.7090   46.0510 O   0  0  0  0  0  0  0  0  0  0  0  0
   59.6310   30.0700   50.0180 C   0  0  0  0  0  0  0  0  0  0  0  0
   60.1950   31.2110   50.5900 C   0  0  0  0  0  0  0  0  0  0  0  0
   61.1690   31.8920   49.9330 N   0  0  0  0  0  0  0  0  0  0  0  0
   64.0155   34.5603   47.1365 H   0  0  0  0  0  0  0  0  0  0  0  0
   63.9935   33.4103   45.7567 H   0  0  0  0  0  0  0  0  0  0  0  0
   62.8984   34.8342   45.7567 H   0  0  0  0  0  0  0  0  0  0  0  0
   61.3530   33.4550   46.8140 H   0  0  0  0  0  0  0  0  0  0  0  0
   61.4372   30.0360   47.1126 H   0  0  0  0  0  0  0  0  0  0  0  0
   60.0663   28.1156   47.2578 H   0  0  0  0  0  0  0  0  0  0  0  0
   59.4002   27.6019   48.8395 H   0  0  0  0  0  0  0  0  0  0  0  0
   57.0115   34.4754   47.0071 H   0  0  0  0  0  0  0  0  0  0  0  0
   57.9010   34.9480   45.5198 H   0  0  0  0  0  0  0  0  0  0  0  0
   56.8681   33.4784   45.5198 H   0  0  0  0  0  0  0  0  0  0  0  0
   57.9376   31.9269   44.3192 H   0  0  0  0  0  0  0  0  0  0  0  0
   57.1661   30.2256   42.6754 H   0  0  0  0  0  0  0  0  0  0  0  0
   56.8253   27.8638   43.3783 H   0  0  0  0  0  0  0  0  0  0  0  0
   58.8339   29.5227   50.5425 H   0  0  0  0  0  0  0  0  0  0  0  0
   59.8501   31.5594   51.5747 H   0  0  0  0  0  0  0  0  0  0  0  0
  1  2  1  0
  2  3  1  0
  3  4  2  0
  3  5  1  0
  5  6  2  0
  6  7  1  0
  7  8  1  0
  8  9  1  0
  9 10  1  0
 10 11  2  0
 11 12  1  0
 12 13  1  0
 13 14  1  0
 13 15  2  0
 13 16  2  0
 11 17  1  0
 17 18  2  0
 18 19  1  0
 19 20  2  0
 20 21  1  0
 21 22  1  0
 22 23  1  0
 23 24  2  0
 23 25  1  0
 25 26  1  0
 26 27  1  0
  7 28  2  0
 28 29  1  0
 29 30  2  0
 30  5  1  0
 20 10  1  0
 26 21  2  0
  1 31  1  0
  1 32  1  0
  1 33  1  0
  2 34  1  0
  6 35  1  0
  8 36  1  0
  8 37  1  0
 14 38  1  0
 14 39  1  0
 14 40  1  0
 17 41  1  0
 18 42  1  0
 19 43  1  0
 28 44  1  0
 29 45  1  0
M  CHG  4  12  -1  22  -1  25  -1  27  -1
M  END
>  <UniqueID>  (48) 
40

>  <SMILES>  (48) 
CNC(=O)c1cc(COc2c([N-]S(C)(=O)=O)cccc2-c2[n-]c(=O)[n-]c2[O-])ccn1

>  <Energy>  (48) 
82.3220057975172

>  <Genealogy>  (48) 
CNC(=O)c1cc(COc2c([N-]S(C)(=O)=O)cccc2-c2[n-]c(=O)[n-]c2[O-])ccn1 (protonated)
CNC(=O)c1cc(COc2c([N-]S(C)(=O)=O)cccc2-c2[n-]c(=O)[n-]c2[O-])ccn1 (3D coordinates assigned)
CNC(=O)c1cc(COc2c([N-]S(C)(=O)=O)cccc2-c2[n-]c(=O)[n-]c2[O-])ccn1 (optimized conformer: 82.3220057975172 kcal/mol)

>  <smiles>  (48) 
CNC(=O)c1cc(COc2c(NS(C)(=O)=O)cccc2-c2[nH]c(=O)[nH]c2O)ccn1

>  <score_type>  (48) 
oracle

>  <origin>  (48) 
adg

>  <m_score__min__energy>  (48) 
-15.119999999999999

>  <m_primary>  (48) 
energy

$$$$
48:0
     RDKit          3D

 30 31  0  0  0  0  0  0  0  0999 V2000
   57.3600   31.6740   42.0660 N   0  0  0  0  0  0  0  0  0  0  0  0
   57.2630   31.2390   43.1340 C   0  0  0  0  0  0  0  0  0  0  0  0
   57.1380   30.6980   44.4680 C   0  0  0  0  0  0  0  0  0  0  0  0
   57.7590   31.2620   45.5210 C   0  0  0  0  0  0  0  0  0  0  0  0
   58.2070   32.6700   45.5990 C   0  0  0  0  0  0  0  0  0  0  0  0
   58.6430   33.3490   46.7270 C   0  0  0  0  0  0  0  0  0  0  0  0
   59.0440   34.5980   46.2960 C   0  0  0  0  0  0  0  0  0  0  0  0
   58.8530   34.6250   44.9300 C   0  0  0  0  0  0  0  0  0  0  0  0
   58.3550   33.4480   44.5110 N   0  0  0  0  0  0  0  0  0  0  0  0
   56.3910   29.4280   44.6280 C   0  0  0  0  0  0  0  0  0  0  0  0
   55.1470   29.4680   44.8240 O   0  0  0  0  0  0  0  0  0  0  0  0
   57.0350   28.1460   44.5650 N   0  0  0  0  0  0  0  0  0  0  0  0
   57.9480   27.6120   45.5350 C   0  0  0  0  0  0  0  0  0  0  0  0
   59.2610   28.1030   45.5440 C   0  0  0  0  0  0  0  0  0  0  0  0
   60.1640   27.6950   46.5260 C   0  0  0  0  0  0  0  0  0  0  0  0
   59.7670   26.7850   47.5060 C   0  0  0  0  0  0  0  0  0  0  0  0
   58.4740   26.2600   47.4900 C   0  0  0  0  0  0  0  0  0  0  0  0
   57.5570   26.6410   46.4950 C   0  0  0  0  0  0  0  0  0  0  0  0
   56.2720   26.0020   46.4440 N   0  0  0  0  0  0  0  0  0  0  0  0
   56.1040   24.8790   46.9640 O   0  0  0  0  0  0  0  0  0  0  0  0
   55.1730   26.6970   45.9950 O   0  0  0  0  0  0  0  0  0  0  0  0
   57.9491   30.6230   46.3960 H   0  0  0  0  0  0  0  0  0  0  0  0
   58.6650   32.9685   47.7589 H   0  0  0  0  0  0  0  0  0  0  0  0
   59.4389   35.4130   46.9204 H   0  0  0  0  0  0  0  0  0  0  0  0
   59.0754   35.4833   44.2790 H   0  0  0  0  0  0  0  0  0  0  0  0
   58.1340   33.1890   43.5230 H   0  0  0  0  0  0  0  0  0  0  0  0
   59.5820   28.8160   44.7703 H   0  0  0  0  0  0  0  0  0  0  0  0
   61.1901   28.0913   46.5276 H   0  0  0  0  0  0  0  0  0  0  0  0
   60.4738   26.4809   48.2921 H   0  0  0  0  0  0  0  0  0  0  0  0
   58.1692   25.5405   48.2642 H   0  0  0  0  0  0  0  0  0  0  0  0
  1  2  3  0
  2  3  1  0
  3  4  2  3
  4  5  1  0
  5  6  2  0
  6  7  1  0
  7  8  2  0
  8  9  1  0
  3 10  1  0
 10 11  2  0
 10 12  1  0
 12 13  1  0
 13 14  2  0
 14 15  1  0
 15 16  2  0
 16 17  1  0
 17 18  2  0
 18 19  1  0
 19 20  2  0
 19 21  1  0
  9  5  1  0
 18 13  1  0
  4 22  1  0
  6 23  1  0
  7 24  1  0
  8 25  1  0
  9 26  1  0
 14 27  1  0
 15 28  1  0
 16 29  1  0
 17 30  1  0
M  CHG  3  12  -1  19   1  21  -1
M  END
>  <UniqueID>  (49) 
41

>  <SMILES>  (49) 
N#CC(=Cc1ccc[nH]1)C(=O)[N-]c1ccccc1[N+](=O)[O-]

>  <Energy>  (49) 
71.22429466082902

>  <Genealogy>  (49) 
N#CC(=Cc1ccc[nH]1)C(=O)[N-]c1ccccc1[N+](=O)[O-] (protonated)
N#CC(=Cc1ccc[nH]1)C(=O)[N-]c1ccccc1[N+](=O)[O-] (3D coordinates assigned)
N#CC(=Cc1ccc[nH]1)C(=O)[N-]c1ccccc1[N+](=O)[O-] (optimized conformer: 71.22429466082902 kcal/mol)

>  <smiles>  (49) 
N#CC(=Cc1ccc[nH]1)C(=O)Nc1ccccc1[N+](=O)[O-]

>  <score_type>  (49) 
oracle

>  <origin>  (49) 
adg

>  <m_score__min__energy>  (49) 
-10.08

>  <m_primary>  (49) 
energy

$$$$
49:0
     RDKit          3D

 47 49  0  0  0  0  0  0  0  0999 V2000
   56.2770   29.7430   42.6290 C   0  0  0  0  0  0  0  0  0  0  0  0
   56.9160   30.9240   43.2160 N   0  0  0  0  0  0  0  0  0  0  0  0
   57.6590   31.8620   42.3690 C   0  0  0  0  0  0  0  0  0  0  0  0
   56.9230   31.0770   44.6480 C   0  0  0  0  0  0  0  0  0  0  0  0
   56.9190   30.0570   45.3870 O   0  0  0  0  0  0  0  0  0  0  0  0
   56.9820   32.3710   45.2620 N   0  0  0  0  0  0  0  0  0  0  0  0
   58.0410   32.8420   46.1050 C   0  0  0  0  0  0  0  0  0  0  0  0
   58.1830   34.2150   46.3110 C   0  0  0  0  0  0  0  0  0  0  0  0
   59.2070   34.7010   47.1220 C   0  0  0  0  0  0  0  0  0  0  0  0
   60.1090   33.8220   47.7280 C   0  0  0  0  0  0  0  0  0  0  0  0
   60.0050   32.4310   47.5170 C   0  0  0  0  0  0  0  0  0  0  0  0
   58.9670   31.9580   46.6840 C   0  0  0  0  0  0  0  0  0  0  0  0
   60.9870   31.4500   48.1790 C   0  0  0  0  0  0  0  0  0  0  0  0
   60.1810   30.4740   49.0680 C   0  0  0  0  0  0  0  0  0  0  0  0
   61.7240   30.6660   47.0680 C   0  0  0  0  0  0  0  0  0  0  0  0
   62.0350   32.1580   49.0540 C   0  0  0  0  0  0  0  0  0  0  0  0
   63.0180   31.4180   49.7440 C   0  0  0  0  0  0  0  0  0  0  0  0
   63.9690   32.0720   50.5330 C   0  0  0  0  0  0  0  0  0  0  0  0
   65.1800   31.1330   51.4020 S   0  0  0  0  0  0  0  0  0  0  0  0
   64.4610   29.5980   51.9390 C   0  0  0  0  0  0  0  0  0  0  0  0
   65.6630   31.9040   52.5980 O   0  0  0  0  0  0  0  0  0  0  0  0
   66.3490   30.8570   50.4990 O   0  0  0  0  0  0  0  0  0  0  0  0
   63.9400   33.4280   50.6470 N   0  0  0  0  0  0  0  0  0  0  0  0
   63.0090   34.1730   49.9950 C   0  0  0  0  0  0  0  0  0  0  0  0
   63.0130   35.5230   50.1310 F   0  0  0  0  0  0  0  0  0  0  0  0
   62.0450   33.5570   49.1910 C   0  0  0  0  0  0  0  0  0  0  0  0
   61.1060   34.3510   48.5410 O   0  0  0  0  0  0  0  0  0  0  0  0
   55.9194   29.0822   43.4324 H   0  0  0  0  0  0  0  0  0  0  0  0
   55.4260   30.0576   42.0070 H   0  0  0  0  0  0  0  0  0  0  0  0
   57.0059   29.2028   42.0070 H   0  0  0  0  0  0  0  0  0  0  0  0
   58.2169   32.5663   43.0037 H   0  0  0  0  0  0  0  0  0  0  0  0
   58.3628   31.3041   41.7339 H   0  0  0  0  0  0  0  0  0  0  0  0
   56.9548   32.4194   41.7339 H   0  0  0  0  0  0  0  0  0  0  0  0
   57.4841   34.9162   45.8315 H   0  0  0  0  0  0  0  0  0  0  0  0
   59.3060   35.7841   47.2863 H   0  0  0  0  0  0  0  0  0  0  0  0
   58.8822   30.8794   46.4852 H   0  0  0  0  0  0  0  0  0  0  0  0
   60.3695   30.7022   50.1274 H   0  0  0  0  0  0  0  0  0  0  0  0
   59.1076   30.5847   48.8544 H   0  0  0  0  0  0  0  0  0  0  0  0
   60.4927   29.4409   48.8544 H   0  0  0  0  0  0  0  0  0  0  0  0
   62.4090   29.9373   47.5261 H   0  0  0  0  0  0  0  0  0  0  0  0
   60.9892   30.1364   46.4439 H   0  0  0  0  0  0  0  0  0  0  0  0
   62.2980   31.3667   46.4439 H   0  0  0  0  0  0  0  0  0  0  0  0
   63.0364   30.3213   49.6609 H   0  0  0  0  0  0  0  0  0  0  0  0
   64.4456   29.5651   53.0384 H   0  0  0  0  0  0  0  0  0  0  0  0
   63.4330   29.5206   51.5554 H   0  0  0  0  0  0  0  0  0  0  0  0
   65.0596   28.7587   51.5554 H   0  0  0  0  0  0  0  0  0  0  0  0
   64.6420   33.9160   51.2470 H   0  0  0  0  0  0  0  0  0  0  0  0
  1  2  1  0
  2  3  1  0
  2  4  1  0
  4  5  2  0
  4  6  1  0
  6  7  1  0
  7  8  2  0
  8  9  1  0
  9 10  2  0
 10 11  1  0
 11 12  2  0
 11 13  1  0
 13 14  1  0
 13 15  1  0
 13 16  1  0
 16 17  2  0
 17 18  1  0
 18 19  1  0
 19 20  1  0
 19 21  2  0
 19 22  2  0
 18 23  2  0
 23 24  1  0
 24 25  1  0
 24 26  2  0
 26 27  1  0
 12  7  1  0
 26 16  1  0
 27 10  1  0
  1 28  1  0
  1 29  1  0
  1 30  1  0
  3 31  1  0
  3 32  1  0
  3 33  1  0
  8 34  1  0
  9 35  1  0
 12 36  1  0
 14 37  1  0
 14 38  1  0
 14 39  1  0
 15 40  1  0
 15 41  1  0
 15 42  1  0
 17 43  1  0
 20 44  1  0
 20 45  1  0
 20 46  1  0
 23 47  1  0
M  CHG  2   6  -1  23   1
M  END
>  <UniqueID>  (50) 
42

>  <SMILES>  (50) 
CN(C)C(=O)[N-]c1ccc2c(c1)C(C)(C)c1cc(S(C)(=O)=O)[nH+]c(F)c1O2

>  <Energy>  (50) 
53.350357041151845

>  <Genealogy>  (50) 
CN(C)C(=O)[N-]c1ccc2c(c1)C(C)(C)c1cc(S(C)(=O)=O)[nH+]c(F)c1O2 (protonated)
CN(C)C(=O)[N-]c1ccc2c(c1)C(C)(C)c1cc(S(C)(=O)=O)[nH+]c(F)c1O2 (3D coordinates assigned)
CN(C)C(=O)[N-]c1ccc2c(c1)C(C)(C)c1cc(S(C)(=O)=O)[nH+]c(F)c1O2 (nonaromatic ring conformer: 53.350357041151845 kcal/mol)

>  <smiles>  (50) 
CN(C)C(=O)Nc1ccc2c(c1)C(C)(C)c1cc(S(C)(=O)=O)nc(F)c1O2

>  <score_type>  (50) 
oracle

>  <origin>  (50) 
adg

>  <m_score__min__energy>  (50) 
-7.8600000000000003

>  <m_primary>  (50) 
energy

$$$$
50:0
     RDKit          3D

 51 53  0  0  0  0  0  0  0  0999 V2000
   58.3420   30.9980   46.7590 H   0  0  0  0  0  0  0  0  0  0  0  0
   57.4400   31.0330   46.2980 O   0  0  0  0  0  0  0  0  0  0  0  0
   57.3090   31.1450   44.9110 C   0  0  0  0  0  0  0  0  0  0  0  0
   56.6010   30.1770   44.1750 C   0  0  0  0  0  0  0  0  0  0  0  0
   56.0060   29.0580   44.8420 N   0  0  0  0  0  0  0  0  0  0  0  0
   56.7370   27.9440   45.3740 C   0  0  0  0  0  0  0  0  0  0  0  0
   56.1190   27.0770   46.0470 O   0  0  0  0  0  0  0  0  0  0  0  0
   58.1820   27.7070   45.0120 C   0  0  0  0  0  0  0  0  0  0  0  0
   58.3736   26.6238   45.0051 H   0  0  0  0  0  0  0  0  0  0  0  0
   58.3614   28.1483   44.0205 H   0  0  0  0  0  0  0  0  0  0  0  0
   59.2980   28.4840   46.1740 S   0  0  0  0  0  0  0  0  0  0  0  0
   60.5150   27.6190   46.3510 O   0  0  0  0  0  0  0  0  0  0  0  0
   59.7450   29.8110   45.6240 O   0  0  0  0  0  0  0  0  0  0  0  0
   58.5310   28.6810   47.7520 C   0  0  0  0  0  0  0  0  0  0  0  0
   57.4402   28.5486   47.8036 H   0  0  0  0  0  0  0  0  0  0  0  0
   59.1700   28.9790   48.8930 C   0  0  0  0  0  0  0  0  0  0  0  0
   59.4527   28.1431   49.5498 H   0  0  0  0  0  0  0  0  0  0  0  0
   59.5230   30.3420   49.3350 C   0  0  0  0  0  0  0  0  0  0  0  0
   58.5750   31.3810   49.2950 C   0  0  0  0  0  0  0  0  0  0  0  0
   57.5665   31.1875   48.9007 H   0  0  0  0  0  0  0  0  0  0  0  0
   58.9100   32.6600   49.7550 C   0  0  0  0  0  0  0  0  0  0  0  0
   58.1710   33.4733   49.7054 H   0  0  0  0  0  0  0  0  0  0  0  0
   60.1850   32.9040   50.2780 C   0  0  0  0  0  0  0  0  0  0  0  0
   60.4483   33.9097   50.6374 H   0  0  0  0  0  0  0  0  0  0  0  0
   61.1240   31.8710   50.3440 C   0  0  0  0  0  0  0  0  0  0  0  0
   62.1231   32.0632   50.7623 H   0  0  0  0  0  0  0  0  0  0  0  0
   60.7950   30.5900   49.8780 C   0  0  0  0  0  0  0  0  0  0  0  0
   61.7200   29.5950   49.9470 F   0  0  0  0  0  0  0  0  0  0  0  0
   56.5040   30.2950   42.7800 C   0  0  0  0  0  0  0  0  0  0  0  0
   55.9654   29.5294   42.2023 H   0  0  0  0  0  0  0  0  0  0  0  0
   57.0870   31.3780   42.1220 C   0  0  0  0  0  0  0  0  0  0  0  0
   57.0140   31.4605   41.0275 H   0  0  0  0  0  0  0  0  0  0  0  0
   57.7630   32.3570   42.8520 C   0  0  0  0  0  0  0  0  0  0  0  0
   58.2093   33.2173   42.3316 H   0  0  0  0  0  0  0  0  0  0  0  0
   57.8760   32.2490   44.2470 C   0  0  0  0  0  0  0  0  0  0  0  0
   58.6560   33.5390   45.1700 S   0  0  0  0  0  0  0  0  0  0  0  0
   57.6580   34.5840   45.5850 O   0  0  0  0  0  0  0  0  0  0  0  0
   59.7100   34.1840   44.3110 O   0  0  0  0  0  0  0  0  0  0  0  0
   59.4020   32.8740   46.5900 N   0  0  0  0  0  0  0  0  0  0  0  0
   60.6870   32.8320   46.7910 C   0  0  0  0  0  0  0  0  0  0  0  0
   61.4300   31.6420   46.9830 N   0  0  0  0  0  0  0  0  0  0  0  0
   61.0350   30.6820   47.1040 H   0  0  0  0  0  0  0  0  0  0  0  0
   62.8350   31.9560   47.1450 C   0  0  0  0  0  0  0  0  0  0  0  0
   63.4357   31.4137   46.4000 H   0  0  0  0  0  0  0  0  0  0  0  0
   63.2009   31.6596   48.1391 H   0  0  0  0  0  0  0  0  0  0  0  0
   62.9610   33.4780   46.9290 C   0  0  0  0  0  0  0  0  0  0  0  0
   63.5290   33.6820   46.0093 H   0  0  0  0  0  0  0  0  0  0  0  0
   63.4928   33.9480   47.7694 H   0  0  0  0  0  0  0  0  0  0  0  0
   61.5340   34.0420   46.8030 C   0  0  0  0  0  0  0  0  0  0  0  0
   61.4175   34.6132   45.8701 H   0  0  0  0  0  0  0  0  0  0  0  0
   61.2749   34.7393   47.6133 H   0  0  0  0  0  0  0  0  0  0  0  0
  1  2  1  0
  2  3  1  0
  3  4  2  0
  4  5  1  0
  5  6  1  0
  6  7  2  0
  6  8  1  0
  8  9  1  0
  8 10  1  0
  8 11  1  0
 11 12  2  0
 11 13  2  0
 11 14  1  0
 14 15  1  0
 14 16  2  3
 16 17  1  0
 16 18  1  0
 18 19  2  0
 19 20  1  0
 19 21  1  0
 21 22  1  0
 21 23  2  0
 23 24  1  0
 23 25  1  0
 25 26  1  0
 25 27  2  0
 27 28  1  0
  4 29  1  0
 29 30  1  0
 29 31  2  0
 31 32  1  0
 31 33  1  0
 33 34  1  0
 33 35  2  0
 35 36  1  0
 36 37  2  0
 36 38  2  0
 36 39  1  0
 39 40  2  0
 40 41  1  0
 41 42  1  0
 41 43  1  0
 43 44  1  0
 43 45  1  0
 43 46  1  0
 46 47  1  0
 46 48  1  0
 46 49  1  0
 49 50  1  0
 49 51  1  0
 35  3  1  0
 49 40  1  0
 27 18  1  0
M  CHG  1   5  -1
M  END
>  <UniqueID>  (51) 
43

>  <SMILES>  (51) 
O=C(CS(=O)(=O)C=Cc1ccccc1F)[N-]c1cccc(S(=O)(=O)/N=C2/CCCN2)c1O

>  <Energy>  (51) 
70.05636986701064

>  <Genealogy>  (51) 
O=C(CS(=O)(=O)C=Cc1ccccc1F)[N-]c1cccc(S(=O)(=O)N=C2CCCN2)c1O (protonated)
O=C(CS(=O)(=O)C=Cc1ccccc1F)[N-]c1cccc(S(=O)(=O)/N=C2/CCCN2)c1O (cis-trans isomerization)
O=C(CS(=O)(=O)C=Cc1ccccc1F)[N-]c1cccc(S(=O)(=O)/N=C2/CCCN2)c1O (3D coordinates assigned)
O=C(CS(=O)(=O)C=Cc1ccccc1F)[N-]c1cccc(S(=O)(=O)/N=C2/CCCN2)c1O (nonaromatic ring conformer: 70.05636986701064 kcal/mol)

>  <smiles>  (51) 
O=C(CS(=O)(=O)C=Cc1ccccc1F)Nc1cccc(S(=O)(=O)N=C2CCCN2)c1O

>  <score_type>  (51) 
oracle

>  <origin>  (51) 
adg

>  <m_score__min__energy>  (51) 
-13.630000000000001

>  <m_primary>  (51) 
energy

$$$$
51:0
     RDKit          3D

 47 49  0  0  1  0  0  0  0  0999 V2000
   53.9990   25.9460   45.6220 O   0  0  0  0  0  0  0  0  0  0  0  0
   54.5040   24.6790   45.2750 C   0  0  0  0  0  0  0  0  0  0  0  0
   55.9730   24.6590   45.6300 C   0  0  0  0  0  0  0  0  0  0  0  0
   59.8800   28.3650   46.6620 N   0  0  0  0  0  0  0  0  0  0  0  0
   58.6620   28.1550   46.3230 C   0  0  0  0  0  0  0  0  0  0  0  0
   56.1260   27.7120   45.6210 N   0  0  0  0  0  0  0  0  0  0  0  0
   56.7290   28.8720   45.3000 C   0  0  0  0  0  0  0  0  0  0  0  0
   56.0140   29.8520   44.5900 O   0  0  0  0  0  0  0  0  0  0  0  0
   56.7330   30.8380   43.9240 C   0  0  0  0  0  0  0  0  0  0  0  0
   57.4420   31.8160   44.5840 C   0  0  0  0  0  0  0  0  0  0  0  0
   58.1140   32.7350   43.8090 C   0  0  0  0  0  0  0  0  0  0  0  0
   58.1090   32.7190   42.4300 C   0  0  0  0  0  0  0  0  0  0  0  0
   57.3940   31.7300   41.7820 C   0  0  0  0  0  0  0  0  0  0  0  0
   56.7180   30.8050   42.5290 C   0  0  0  0  0  0  0  0  0  0  0  0
   58.0160   29.0990   45.6540 N   0  0  0  0  0  0  0  0  0  0  0  0
   56.7960   26.7660   46.2990 C   0  0  0  0  0  0  0  0  0  0  0  0
   56.2980   25.6320   46.6460 N   0  0  0  0  0  0  0  0  0  0  0  0
   60.3120   29.4130   47.5390 C   0  0  0  0  0  0  0  0  0  0  0  0
   60.8310   30.5560   46.7050 C   0  0  0  0  0  0  0  0  0  0  0  0
   60.0700   31.8110   46.8730 C   0  0  0  0  0  0  0  0  0  0  0  0
   58.8180   31.8680   47.4700 C   0  0  0  0  0  0  0  0  0  0  0  0
   58.1260   33.0650   47.6150 C   0  0  0  0  0  0  0  0  0  0  0  0
   58.6940   34.2320   47.1550 C   0  0  0  0  0  0  0  0  0  0  0  0
   59.9300   34.2140   46.5610 C   0  0  0  0  0  0  0  0  0  0  0  0
   60.5950   33.0130   46.4300 C   0  0  0  0  0  0  0  0  0  0  0  0
   58.0880   26.9880   46.6580 N   0  0  0  0  0  0  0  0  0  0  0  0
   54.4070   26.2240   46.4590 H   0  0  0  0  0  0  0  0  0  0  0  0
   53.9719   23.8967   45.8362 H   0  0  0  0  0  0  0  0  0  0  0  0
   54.3638   24.4885   44.2007 H   0  0  0  0  0  0  0  0  0  0  0  0
   56.2349   23.6572   46.0012 H   0  0  0  0  0  0  0  0  0  0  0  0
   56.5445   24.9102   44.7243 H   0  0  0  0  0  0  0  0  0  0  0  0
   55.1350   27.5370   45.3470 H   0  0  0  0  0  0  0  0  0  0  0  0
   57.4706   31.8616   45.6827 H   0  0  0  0  0  0  0  0  0  0  0  0
   58.6860   33.5250   44.3177 H   0  0  0  0  0  0  0  0  0  0  0  0
   58.6628   33.4779   41.8578 H   0  0  0  0  0  0  0  0  0  0  0  0
   57.3689   31.6873   40.6831 H   0  0  0  0  0  0  0  0  0  0  0  0
   56.1482   30.0153   42.0174 H   0  0  0  0  0  0  0  0  0  0  0  0
   59.4651   29.7561   48.1515 H   0  0  0  0  0  0  0  0  0  0  0  0
   61.1062   29.0426   48.2038 H   0  0  0  0  0  0  0  0  0  0  0  0
   61.8772   30.7444   46.9878 H   0  0  0  0  0  0  0  0  0  0  0  0
   60.7266   30.2569   45.6516 H   0  0  0  0  0  0  0  0  0  0  0  0
   58.3599   30.9386   47.8392 H   0  0  0  0  0  0  0  0  0  0  0  0
   57.1350   33.0797   48.0922 H   0  0  0  0  0  0  0  0  0  0  0  0
   58.1535   35.1838   47.2645 H   0  0  0  0  0  0  0  0  0  0  0  0
   60.3851   35.1457   46.1937 H   0  0  0  0  0  0  0  0  0  0  0  0
   61.5860   33.0099   45.9526 H   0  0  0  0  0  0  0  0  0  0  0  0
   58.6180   26.2610   47.1850 H   0  0  0  0  0  0  0  0  0  0  0  0
  1  2  1  0
  2  3  1  0
  3  4  1  0
  4  5  2  0
  5  6  1  0
  6  7  1  0
  7  8  1  0
  8  9  1  0
  9 10  2  0
 10 11  1  0
 11 12  2  0
 12 13  1  0
 13 14  2  0
  7 15  2  0
 15 16  1  0
 16 17  2  0
 17 18  1  0
 18 19  1  0
 19 20  1  0
 20 21  2  0
 21 22  1  0
 22 23  2  0
 23 24  1  0
 24 25  2  0
 16 26  1  0
 26  5  1  0
 14  9  1  0
 25 20  1  0
  1 27  1  0
  2 28  1  0
  2 29  1  0
  3 30  1  0
  3 31  1  0
  6 32  1  0
 10 33  1  0
 11 34  1  0
 12 35  1  0
 13 36  1  0
 14 37  1  0
 18 38  1  0
 18 39  1  0
 19 40  1  0
 19 41  1  0
 21 42  1  0
 22 43  1  0
 23 44  1  0
 24 45  1  0
 25 46  1  0
 26 47  1  0
M  END
>  <smiles>  (52) 
OCCN=c1[nH]c(Oc2ccccc2)nc(=NCCc2ccccc2)[nH]1

>  <score_type>  (52) 
oracle

>  <origin>  (52) 
adg

>  <m_score__min__energy>  (52) 
-8.7899999999999991

>  <m_primary>  (52) 
energy

$$$$
52:0
     RDKit          3D

 44 46  0  0  0  0  0  0  0  0999 V2000
   60.3010   33.1950   48.8840 H   0  0  0  0  0  0  0  0  0  0  0  0
   59.3850   33.5810   48.6880 O   0  0  0  0  0  0  0  0  0  0  0  0
   58.8950   33.6760   47.3850 C   0  0  0  0  0  0  0  0  0  0  0  0
   57.5340   33.4520   47.1300 C   0  0  0  0  0  0  0  0  0  0  0  0
   56.8490   33.2346   47.9628 H   0  0  0  0  0  0  0  0  0  0  0  0
   57.0450   33.5040   45.8220 C   0  0  0  0  0  0  0  0  0  0  0  0
   55.9758   33.3335   45.6278 H   0  0  0  0  0  0  0  0  0  0  0  0
   57.9120   33.7720   44.7620 C   0  0  0  0  0  0  0  0  0  0  0  0
   57.5261   33.8046   43.7324 H   0  0  0  0  0  0  0  0  0  0  0  0
   59.2690   33.9990   45.0050 C   0  0  0  0  0  0  0  0  0  0  0  0
   59.9512   34.1933   44.1643 H   0  0  0  0  0  0  0  0  0  0  0  0
   59.7650   33.9800   46.3180 C   0  0  0  0  0  0  0  0  0  0  0  0
   61.2100   34.2000   46.5400 C   0  0  0  0  0  0  0  0  0  0  0  0
   61.7857   34.6956   45.7444 H   0  0  0  0  0  0  0  0  0  0  0  0
   61.8430   33.8420   47.6220 N   0  0  0  0  0  0  0  0  0  0  0  0
   62.4080   32.5540   47.9130 C   0  0  0  0  0  0  0  0  0  0  0  0
   63.6010   32.2900   47.6060 O   0  0  0  0  0  0  0  0  0  0  0  0
   61.5880   31.5110   48.4540 N   0  0  0  0  0  0  0  0  0  0  0  0
   60.5860   30.7750   47.7380 C   0  0  0  0  0  0  0  0  0  0  0  0
   60.7440   30.5810   46.3600 C   0  0  0  0  0  0  0  0  0  0  0  0
   61.6148   31.0117   45.8441 H   0  0  0  0  0  0  0  0  0  0  0  0
   59.8030   29.8440   45.6360 C   0  0  0  0  0  0  0  0  0  0  0  0
   59.9293   29.7071   44.5519 H   0  0  0  0  0  0  0  0  0  0  0  0
   58.6990   29.2790   46.2880 C   0  0  0  0  0  0  0  0  0  0  0  0
   57.5250   28.3180   45.3930 S   0  0  0  0  0  0  0  0  0  0  0  0
   58.0460   27.9790   44.0250 O   0  0  0  0  0  0  0  0  0  0  0  0
   56.2580   29.1130   45.2360 O   0  0  0  0  0  0  0  0  0  0  0  0
   57.1770   26.8580   46.2640 N   0  0  0  0  0  0  0  0  0  0  0  0
   56.2720   26.0000   45.9020 C   0  0  0  0  0  0  0  0  0  0  0  0
   56.6170   24.7760   45.4190 N   0  0  0  0  0  0  0  0  0  0  0  0
   55.6640   23.8850   45.0450 C   0  0  0  0  0  0  0  0  0  0  0  0
   55.9499   22.8961   44.6572 H   0  0  0  0  0  0  0  0  0  0  0  0
   54.3200   24.2350   45.1570 C   0  0  0  0  0  0  0  0  0  0  0  0
   53.3270   23.3290   44.7740 O   0  0  0  0  0  0  0  0  0  0  0  0
   51.9660   23.7100   44.5980 C   0  0  0  0  0  0  0  0  0  0  0  0
   51.4922   23.8426   45.5818 H   0  0  0  0  0  0  0  0  0  0  0  0
   51.9194   24.6557   44.0381 H   0  0  0  0  0  0  0  0  0  0  0  0
   51.4352   22.9259   44.0381 H   0  0  0  0  0  0  0  0  0  0  0  0
   54.0060   25.4660   45.6420 N   0  0  0  0  0  0  0  0  0  0  0  0
   54.9580   26.3270   46.0060 N   0  0  0  0  0  0  0  0  0  0  0  0
   58.5530   29.4440   47.6700 C   0  0  0  0  0  0  0  0  0  0  0  0
   57.6964   28.9886   48.1885 H   0  0  0  0  0  0  0  0  0  0  0  0
   59.4910   30.1850   48.3940 C   0  0  0  0  0  0  0  0  0  0  0  0
   59.3723   30.3071   49.4807 H   0  0  0  0  0  0  0  0  0  0  0  0
  1  2  1  0
  2  3  1  0
  3  4  2  0
  4  5  1  0
  4  6  1  0
  6  7  1  0
  6  8  2  0
  8  9  1  0
  8 10  1  0
 10 11  1  0
 10 12  2  0
 12 13  1  0
 13 14  1  0
 13 15  2  3
 15 16  1  0
 16 17  2  0
 16 18  1  0
 18 19  1  0
 19 20  2  0
 20 21  1  0
 20 22  1  0
 22 23  1  0
 22 24  2  0
 24 25  1  0
 25 26  2  0
 25 27  2  0
 25 28  1  0
 28 29  2  0
 29 30  1  0
 30 31  2  0
 31 32  1  0
 31 33  1  0
 33 34  1  0
 34 35  1  0
 35 36  1  0
 35 37  1  0
 35 38  1  0
 33 39  2  0
 39 40  1  0
 24 41  1  0
 41 42  1  0
 41 43  2  0
 43 44  1  0
 12  3  1  0
 43 19  1  0
 40 29  1  0
M  CHG  2  18  -1  40  -1
M  END
>  <UniqueID>  (53) 
44

>  <SMILES>  (53) 
COc1cn/c(=N\S(=O)(=O)c2ccc([N-]C(=O)N=Cc3ccccc3O)cc2)[n-]n1

>  <Energy>  (53) 
62.651626481255846

>  <Genealogy>  (53) 
COc1cnc(=NS(=O)(=O)c2ccc([N-]C(=O)N=Cc3ccccc3O)cc2)[n-]n1 (protonated)
COc1cn/c(=N\S(=O)(=O)c2ccc([N-]C(=O)N=Cc3ccccc3O)cc2)[n-]n1 (cis-trans isomerization)
COc1cn/c(=N\S(=O)(=O)c2ccc([N-]C(=O)N=Cc3ccccc3O)cc2)[n-]n1 (3D coordinates assigned)
COc1cn/c(=N\S(=O)(=O)c2ccc([N-]C(=O)N=Cc3ccccc3O)cc2)[n-]n1 (optimized conformer: 62.651626481255846 kcal/mol)

>  <smiles>  (53) 
COc1cnc(=NS(=O)(=O)c2ccc(NC(=O)N=Cc3ccccc3O)cc2)[nH]n1

>  <score_type>  (53) 
oracle

>  <origin>  (53) 
adg

>  <m_score__min__energy>  (53) 
-12.16

>  <m_primary>  (53) 
energy

$$$$
53:0
     RDKit          3D

 61 64  0  0  0  0  0  0  0  0999 V2000
   58.8260   31.9430   51.5360 H   0  0  0  0  0  0  0  0  0  0  0  0
   59.6310   32.5530   51.6070 O   0  0  0  0  0  0  0  0  0  0  0  0
   60.7520   32.3820   50.7970 C   0  0  0  0  0  0  0  0  0  0  0  0
   61.2360   33.4510   50.0270 C   0  0  0  0  0  0  0  0  0  0  0  0
   60.7346   34.4292   50.0700 H   0  0  0  0  0  0  0  0  0  0  0  0
   62.3530   33.2760   49.2060 C   0  0  0  0  0  0  0  0  0  0  0  0
   62.7308   34.1170   48.6060 H   0  0  0  0  0  0  0  0  0  0  0  0
   62.9910   32.0340   49.1460 C   0  0  0  0  0  0  0  0  0  0  0  0
   63.8685   31.8973   48.4969 H   0  0  0  0  0  0  0  0  0  0  0  0
   62.5140   30.9650   49.9110 C   0  0  0  0  0  0  0  0  0  0  0  0
   63.0140   29.9866   49.8584 H   0  0  0  0  0  0  0  0  0  0  0  0
   61.4000   31.1370   50.7450 C   0  0  0  0  0  0  0  0  0  0  0  0
   60.8080   29.7530   51.7270 S   0  0  0  0  0  0  0  0  0  0  0  0
   60.1760   28.8670   50.2930 C   0  0  0  0  0  0  0  0  0  0  0  0
   60.9210   27.7870   49.8060 C   0  0  0  0  0  0  0  0  0  0  0  0
   61.8320   27.4712   50.3355 H   0  0  0  0  0  0  0  0  0  0  0  0
   60.5200   27.1070   48.6560 C   0  0  0  0  0  0  0  0  0  0  0  0
   61.1252   26.2709   48.2756 H   0  0  0  0  0  0  0  0  0  0  0  0
   59.3520   27.4830   47.9840 C   0  0  0  0  0  0  0  0  0  0  0  0
   58.9760   26.7740   46.7410 C   0  0  0  0  0  0  0  0  0  0  0  0
   59.6584   26.8601   45.8826 H   0  0  0  0  0  0  0  0  0  0  0  0
   57.8680   26.0340   46.5780 C   0  0  0  0  0  0  0  0  0  0  0  0
   57.9412   24.9514   46.7587 H   0  0  0  0  0  0  0  0  0  0  0  0
   56.5580   26.5790   46.1720 C   0  0  0  0  0  0  0  0  0  0  0  0
   55.5280   25.8660   46.3100 O   0  0  0  0  0  0  0  0  0  0  0  0
   56.4120   27.8700   45.5640 N   0  0  0  0  0  0  0  0  0  0  0  0
   57.3490   28.6150   44.7170 C   0  0  0  0  0  0  0  0  0  0  0  0
   58.0124   27.8818   44.2351 H   0  0  0  0  0  0  0  0  0  0  0  0
   58.3090   29.5070   45.5340 C   0  0  0  0  0  0  0  0  0  0  0  0
   57.9509   29.5536   46.5730 H   0  0  0  0  0  0  0  0  0  0  0  0
   59.3137   29.0629   45.4757 H   0  0  0  0  0  0  0  0  0  0  0  0
   58.3920   30.9260   44.9790 C   0  0  0  0  0  0  0  0  0  0  0  0
   58.9826   31.5552   45.6611 H   0  0  0  0  0  0  0  0  0  0  0  0
   58.8766   30.9119   43.9916 H   0  0  0  0  0  0  0  0  0  0  0  0
   57.0300   31.4720   44.8580 N   0  0  0  0  0  0  0  0  0  0  0  0
   57.0490   32.9360   44.6650 C   0  0  0  0  0  0  0  0  0  0  0  0
   57.3366   33.1603   43.6272 H   0  0  0  0  0  0  0  0  0  0  0  0
   56.0458   33.3349   44.8761 H   0  0  0  0  0  0  0  0  0  0  0  0
   58.0360   33.5810   45.6030 C   0  0  0  0  0  0  0  0  0  0  0  0
   58.9990   34.4720   45.1040 C   0  0  0  0  0  0  0  0  0  0  0  0
   59.0423   34.6844   44.0256 H   0  0  0  0  0  0  0  0  0  0  0  0
   59.9040   35.0910   45.9730 C   0  0  0  0  0  0  0  0  0  0  0  0
   60.6562   35.7892   45.5772 H   0  0  0  0  0  0  0  0  0  0  0  0
   59.8530   34.8230   47.3430 C   0  0  0  0  0  0  0  0  0  0  0  0
   60.5662   35.3092   48.0249 H   0  0  0  0  0  0  0  0  0  0  0  0
   58.8970   33.9380   47.8480 C   0  0  0  0  0  0  0  0  0  0  0  0
   58.8573   33.7292   48.9273 H   0  0  0  0  0  0  0  0  0  0  0  0
   57.9900   33.3170   46.9820 C   0  0  0  0  0  0  0  0  0  0  0  0
   57.2389   32.6201   47.3822 H   0  0  0  0  0  0  0  0  0  0  0  0
   56.2650   30.8110   43.7740 C   0  0  0  0  0  0  0  0  0  0  0  0
   55.1956   30.8637   44.0263 H   0  0  0  0  0  0  0  0  0  0  0  0
   56.5136   31.3443   42.8446 H   0  0  0  0  0  0  0  0  0  0  0  0
   56.6350   29.3260   43.5430 C   0  0  0  0  0  0  0  0  0  0  0  0
   55.7058   28.7765   43.3317 H   0  0  0  0  0  0  0  0  0  0  0  0
   57.3566   29.3256   42.7128 H   0  0  0  0  0  0  0  0  0  0  0  0
   58.6070   28.5770   48.4580 C   0  0  0  0  0  0  0  0  0  0  0  0
   57.7111   28.9023   47.9088 H   0  0  0  0  0  0  0  0  0  0  0  0
   58.9920   29.2610   49.6250 C   0  0  0  0  0  0  0  0  0  0  0  0
   58.1800   30.3470   50.1070 N   0  0  0  0  0  0  0  0  0  0  0  0
   57.5440   30.2270   51.1740 O   0  0  0  0  0  0  0  0  0  0  0  0
   58.2260   31.5800   49.4990 O   0  0  0  0  0  0  0  0  0  0  0  0
  1  2  1  0
  2  3  1  0
  3  4  2  0
  4  5  1  0
  4  6  1  0
  6  7  1  0
  6  8  2  0
  8  9  1  0
  8 10  1  0
 10 11  1  0
 10 12  2  0
 12 13  1  0
 13 14  1  0
 14 15  2  0
 15 16  1  0
 15 17  1  0
 17 18  1  0
 17 19  2  0
 19 20  1  0
 20 21  1  0
 20 22  2  0
 22 23  1  0
 22 24  1  0
 24 25  2  0
 24 26  1  0
 26 27  1  0
 27 28  1  0
 27 29  1  0
 29 30  1  0
 29 31  1  0
 29 32  1  0
 32 33  1  0
 32 34  1  0
 32 35  1  0
 35 36  1  0
 36 37  1  0
 36 38  1  0
 36 39  1  0
 39 40  2  0
 40 41  1  0
 40 42  1  0
 42 43  1  0
 42 44  2  0
 44 45  1  0
 44 46  1  0
 46 47  1  0
 46 48  2  0
 48 49  1  0
 35 50  1  0
 50 51  1  0
 50 52  1  0
 50 53  1  0
 53 54  1  0
 53 55  1  0
 19 56  1  0
 56 57  1  0
 56 58  2  0
 58 59  1  0
 59 60  2  0
 59 61  1  0
 12  3  1  0
 58 14  1  0
 53 27  1  0
 48 39  1  0
M  CHG  3  26  -1  59   1  61  -1
M  END
>  <UniqueID>  (54) 
45

>  <SMILES>  (54) 
O=C(/C=C\c1ccc(Sc2ccccc2O)c([N+](=O)[O-])c1)[N-]C1CCN(Cc2ccccc2)CC1

>  <Energy>  (54) 
83.04405098037745

>  <Genealogy>  (54) 
O=C(C=Cc1ccc(Sc2ccccc2O)c([N+](=O)[O-])c1)[N-]C1CCN(Cc2ccccc2)CC1 (protonated)
O=C(/C=C\c1ccc(Sc2ccccc2O)c([N+](=O)[O-])c1)[N-]C1CCN(Cc2ccccc2)CC1 (cis-trans isomerization)
O=C(/C=C\c1ccc(Sc2ccccc2O)c([N+](=O)[O-])c1)[N-]C1CCN(Cc2ccccc2)CC1 (3D coordinates assigned)
O=C(/C=C\c1ccc(Sc2ccccc2O)c([N+](=O)[O-])c1)[N-]C1CCN(Cc2ccccc2)CC1 (nonaromatic ring conformer: 83.04405098037745 kcal/mol)

>  <smiles>  (54) 
O=C(C=Cc1ccc(Sc2ccccc2O)c([N+](=O)[O-])c1)NC1CCN(Cc2ccccc2)CC1

>  <score_type>  (54) 
oracle

>  <origin>  (54) 
adg

>  <m_score__min__energy>  (54) 
-13

>  <m_primary>  (54) 
energy

$$$$
54:0
     RDKit          3D

 43 45  0  0  0  0  0  0  0  0999 V2000
   59.5807   31.8499   48.0368 H   0  0  0  0  0  0  0  0  0  0  0  0
   59.0690   32.3830   47.2220 C   0  0  0  0  0  0  0  0  0  0  0  0
   58.1000   31.7560   46.5060 N   0  0  0  0  0  0  0  0  0  0  0  0
   57.4200   32.3690   45.4980 C   0  0  0  0  0  0  0  0  0  0  0  0
   56.5160   31.6810   44.8580 N   0  0  0  0  0  0  0  0  0  0  0  0
   56.7000   30.5710   43.9670 C   0  0  0  0  0  0  0  0  0  0  0  0
   55.8910   30.4240   43.0110 O   0  0  0  0  0  0  0  0  0  0  0  0
   57.8450   29.7110   44.0960 N   0  0  0  0  0  0  0  0  0  0  0  0
   57.8830   28.5710   44.7180 C   0  0  0  0  0  0  0  0  0  0  0  0
   56.7910   27.8850   45.1230 N   0  0  0  0  0  0  0  0  0  0  0  0
   57.1360   26.7270   45.7490 C   0  0  0  0  0  0  0  0  0  0  0  0
   56.1080   25.8100   46.3320 C   0  0  0  0  0  0  0  0  0  0  0  0
   56.2484   24.7982   45.9238 H   0  0  0  0  0  0  0  0  0  0  0  0
   56.2206   25.7886   47.4260 H   0  0  0  0  0  0  0  0  0  0  0  0
   54.7700   26.2860   45.9960 N   0  0  0  0  0  0  0  0  0  0  0  0
   54.8720   27.0430   45.2830 H   0  0  0  0  0  0  0  0  0  0  0  0
   54.3600   26.7330   46.8480 H   0  0  0  0  0  0  0  0  0  0  0  0
   58.5080   26.4990   45.8590 C   0  0  0  0  0  0  0  0  0  0  0  0
   58.9829   25.6306   46.3389 H   0  0  0  0  0  0  0  0  0  0  0  0
   59.3090   27.7870   45.1280 S   0  0  0  0  0  0  0  0  0  0  0  0
   57.7480   33.7020   45.1710 C   0  0  0  0  0  0  0  0  0  0  0  0
   57.2280   34.2147   44.3484 H   0  0  0  0  0  0  0  0  0  0  0  0
   58.7370   34.3650   45.8990 C   0  0  0  0  0  0  0  0  0  0  0  0
   58.9806   35.4113   45.6627 H   0  0  0  0  0  0  0  0  0  0  0  0
   59.4190   33.7090   46.9250 C   0  0  0  0  0  0  0  0  0  0  0  0
   60.3960   34.4070   47.6480 O   0  0  0  0  0  0  0  0  0  0  0  0
   61.7170   33.9790   47.8530 C   0  0  0  0  0  0  0  0  0  0  0  0
   62.4540   33.5290   46.7570 C   0  0  0  0  0  0  0  0  0  0  0  0
   62.0046   33.5228   45.7530 H   0  0  0  0  0  0  0  0  0  0  0  0
   63.7640   33.0870   46.9420 C   0  0  0  0  0  0  0  0  0  0  0  0
   64.3511   32.7404   46.0788 H   0  0  0  0  0  0  0  0  0  0  0  0
   64.3200   33.0820   48.1840 N   0  0  0  0  0  0  0  0  0  0  0  0
   65.3040   32.7430   48.2770 H   0  0  0  0  0  0  0  0  0  0  0  0
   63.6220   33.4960   49.2850 C   0  0  0  0  0  0  0  0  0  0  0  0
   64.2500   33.4640   50.6260 C   0  0  0  0  0  0  0  0  0  0  0  0
   63.7430   34.1170   51.5800 O   0  0  0  0  0  0  0  0  0  0  0  0
   65.4360   32.6950   50.8460 N   0  0  0  0  0  0  0  0  0  0  0  0
   66.7250   33.0490   50.2710 C   0  0  0  0  0  0  0  0  0  0  0  0
   67.4450   33.2467   51.0788 H   0  0  0  0  0  0  0  0  0  0  0  0
   67.0901   32.2179   49.6498 H   0  0  0  0  0  0  0  0  0  0  0  0
   66.6144   33.9500   49.6498 H   0  0  0  0  0  0  0  0  0  0  0  0
   62.2990   33.9460   49.1300 C   0  0  0  0  0  0  0  0  0  0  0  0
   61.7212   34.2715   50.0076 H   0  0  0  0  0  0  0  0  0  0  0  0
  1  2  1  0
  2  3  1  0
  3  4  1  0
  4  5  2  0
  5  6  1  0
  6  7  2  0
  6  8  1  0
  8  9  2  3
  9 10  1  0
 10 11  1  0
 11 12  1  0
 12 13  1  0
 12 14  1  0
 12 15  1  0
 15 16  1  0
 15 17  1  0
 11 18  2  0
 18 19  1  0
 18 20  1  0
  4 21  1  0
 21 22  1  0
 21 23  2  0
 23 24  1  0
 23 25  1  0
 25 26  1  0
 26 27  1  0
 27 28  2  0
 28 29  1  0
 28 30  1  0
 30 31  1  0
 30 32  2  0
 32 33  1  0
 32 34  1  0
 34 35  1  0
 35 36  2  0
 35 37  1  0
 37 38  1  0
 38 39  1  0
 38 40  1  0
 38 41  1  0
 34 42  2  0
 42 43  1  0
 25  2  2  0
 42 27  1  0
 20  9  1  0
M  CHG  4   3  -1  10  -1  32   1  37  -1
M  END
>  <UniqueID>  (55) 
46

>  <SMILES>  (55) 
C[N-]C(=O)c1cc(Oc2cc/c(=N\C(=O)N=c3[n-]c(CN)cs3)[n-]c2)cc[nH+]1

>  <Energy>  (55) 
87.48899624177567

>  <Genealogy>  (55) 
C[N-]C(=O)c1cc(Oc2ccc(=NC(=O)N=c3[n-]c(CN)cs3)[n-]c2)cc[nH+]1 (protonated)
C[N-]C(=O)c1cc(Oc2cc/c(=N\C(=O)N=c3[n-]c(CN)cs3)[n-]c2)cc[nH+]1 (cis-trans isomerization)
C[N-]C(=O)c1cc(Oc2cc/c(=N\C(=O)N=c3[n-]c(CN)cs3)[n-]c2)cc[nH+]1 (3D coordinates assigned)
C[N-]C(=O)c1cc(Oc2cc/c(=N\C(=O)N=c3[n-]c(CN)cs3)[n-]c2)cc[nH+]1 (optimized conformer: 87.48899624177567 kcal/mol)

>  <smiles>  (55) 
CNC(=O)c1cc(Oc2ccc(=NC(=O)N=c3[nH]c(CN)cs3)[nH]c2)ccn1

>  <score_type>  (55) 
oracle

>  <origin>  (55) 
adg

>  <m_score__min__energy>  (55) 
-10.960000000000001

>  <m_primary>  (55) 
energy

$$$$
55:0
     RDKit          3D

 71 75  0  0  0  0  0  0  0  0999 V2000
   56.4510   24.5370   47.3180 C   0  0  0  0  0  0  0  0  0  0  0  0
   56.3760   25.8410   46.7480 O   0  0  0  0  0  0  0  0  0  0  0  0
   57.0750   26.2540   45.6030 C   0  0  0  0  0  0  0  0  0  0  0  0
   57.0820   25.4850   44.4220 C   0  0  0  0  0  0  0  0  0  0  0  0
   57.7780   25.9270   43.2950 C   0  0  0  0  0  0  0  0  0  0  0  0
   58.4730   27.1340   43.3290 C   0  0  0  0  0  0  0  0  0  0  0  0
   58.4790   27.9030   44.4940 C   0  0  0  0  0  0  0  0  0  0  0  0
   57.7850   27.4740   45.6390 C   0  0  0  0  0  0  0  0  0  0  0  0
   57.8060   28.3270   46.8890 C   0  0  0  0  0  0  0  0  0  0  0  0
   58.6840   29.5040   46.7150 N   0  0  0  0  0  0  0  0  0  0  0  0
   59.9050   29.5340   47.3510 C   0  0  0  0  0  0  0  0  0  0  0  0
   60.3010   28.5690   48.0620 O   0  0  0  0  0  0  0  0  0  0  0  0
   60.7070   30.6490   47.1850 C   0  0  0  0  0  0  0  0  0  0  0  0
   61.9420   30.8740   47.6580 N   0  0  0  0  0  0  0  0  0  0  0  0
   62.2260   32.0990   47.1420 C   0  0  0  0  0  0  0  0  0  0  0  0
   63.5480   32.7700   47.3420 C   0  0  0  0  0  0  0  0  0  0  0  0
   63.8140   32.9620   48.8090 C   0  0  0  0  0  0  0  0  0  0  0  0
   63.3860   34.1280   49.4640 C   0  0  0  0  0  0  0  0  0  0  0  0
   63.6570   34.3150   50.8220 C   0  0  0  0  0  0  0  0  0  0  0  0
   64.3920   33.3580   51.5360 C   0  0  0  0  0  0  0  0  0  0  0  0
   64.6700   33.5610   52.9960 C   0  0  0  0  0  0  0  0  0  0  0  0
   64.8120   32.1870   50.8860 C   0  0  0  0  0  0  0  0  0  0  0  0
   64.5290   31.9930   49.5300 C   0  0  0  0  0  0  0  0  0  0  0  0
   61.2440   32.6290   46.3670 N   0  0  0  0  0  0  0  0  0  0  0  0
   60.2960   31.6810   46.4250 C   0  0  0  0  0  0  0  0  0  0  0  0
   59.0980   31.6810   45.7810 N   0  0  0  0  0  0  0  0  0  0  0  0
   58.7120   32.8150   44.9230 C   0  0  0  0  0  0  0  0  0  0  0  0
   57.6690   33.6660   45.5850 C   0  0  0  0  0  0  0  0  0  0  0  0
   56.9160   34.3750   44.8640 O   0  0  0  0  0  0  0  0  0  0  0  0
   57.5880   33.7320   47.0180 N   0  0  0  0  0  0  0  0  0  0  0  0
   58.5520   34.0110   47.8470 C   0  0  0  0  0  0  0  0  0  0  0  0
   59.1020   33.0580   48.8350 C   0  0  0  0  0  0  0  0  0  0  0  0
   58.4410   31.8560   49.1310 C   0  0  0  0  0  0  0  0  0  0  0  0
   58.9910   30.9530   50.0450 C   0  0  0  0  0  0  0  0  0  0  0  0
   60.2260   31.2230   50.6560 C   0  0  0  0  0  0  0  0  0  0  0  0
   60.8160   30.2540   51.6120 C   0  0  0  0  0  0  0  0  0  0  0  0
   61.0740   28.9070   51.1950 N   0  0  0  0  0  0  0  0  0  0  0  0
   61.1060   30.6140   52.8270 N   0  0  0  0  0  0  0  0  0  0  0  0
   60.9010   32.4140   50.3330 C   0  0  0  0  0  0  0  0  0  0  0  0
   60.3450   33.3200   49.4240 C   0  0  0  0  0  0  0  0  0  0  0  0
   58.2980   30.5640   45.9080 C   0  0  0  0  0  0  0  0  0  0  0  0
   57.2070   30.5090   45.2750 O   0  0  0  0  0  0  0  0  0  0  0  0
   56.4465   24.6156   48.4152 H   0  0  0  0  0  0  0  0  0  0  0  0
   55.5855   23.9429   46.9894 H   0  0  0  0  0  0  0  0  0  0  0  0
   57.3789   24.0460   46.9894 H   0  0  0  0  0  0  0  0  0  0  0  0
   56.5359   24.5308   44.3878 H   0  0  0  0  0  0  0  0  0  0  0  0
   57.7775   25.3203   42.3775 H   0  0  0  0  0  0  0  0  0  0  0  0
   59.0169   27.4809   42.4380 H   0  0  0  0  0  0  0  0  0  0  0  0
   59.0320   28.8536   44.5164 H   0  0  0  0  0  0  0  0  0  0  0  0
   56.7839   28.6702   47.1071 H   0  0  0  0  0  0  0  0  0  0  0  0
   58.1953   27.7202   47.7198 H   0  0  0  0  0  0  0  0  0  0  0  0
   64.3423   32.1456   46.9070 H   0  0  0  0  0  0  0  0  0  0  0  0
   63.5311   33.7526   46.8479 H   0  0  0  0  0  0  0  0  0  0  0  0
   62.8344   34.8983   48.9051 H   0  0  0  0  0  0  0  0  0  0  0  0
   63.2918   35.2177   51.3335 H   0  0  0  0  0  0  0  0  0  0  0  0
   63.9227   33.0153   53.5909 H   0  0  0  0  0  0  0  0  0  0  0  0
   65.6752   33.1829   53.2339 H   0  0  0  0  0  0  0  0  0  0  0  0
   64.6159   34.6336   53.2339 H   0  0  0  0  0  0  0  0  0  0  0  0
   65.3660   31.4187   51.4453 H   0  0  0  0  0  0  0  0  0  0  0  0
   64.8686   31.0761   49.0260 H   0  0  0  0  0  0  0  0  0  0  0  0
   59.6010   33.4301   44.7200 H   0  0  0  0  0  0  0  0  0  0  0  0
   58.2937   32.4168   43.9868 H   0  0  0  0  0  0  0  0  0  0  0  0
   58.9857   35.0212   47.8103 H   0  0  0  0  0  0  0  0  0  0  0  0
   57.4842   31.6231   48.6407 H   0  0  0  0  0  0  0  0  0  0  0  0
   58.4528   30.0247   50.2873 H   0  0  0  0  0  0  0  0  0  0  0  0
   61.4390   28.1980   51.8670 H   0  0  0  0  0  0  0  0  0  0  0  0
   60.9480   28.6170   50.1990 H   0  0  0  0  0  0  0  0  0  0  0  0
   62.0220   31.0540   53.0650 H   0  0  0  0  0  0  0  0  0  0  0  0
   60.4110   30.4970   53.6000 H   0  0  0  0  0  0  0  0  0  0  0  0
   61.8729   32.6344   50.7986 H   0  0  0  0  0  0  0  0  0  0  0  0
   60.8870   34.2431   49.1705 H   0  0  0  0  0  0  0  0  0  0  0  0
  1  2  1  0
  2  3  1  0
  3  4  2  0
  4  5  1  0
  5  6  2  0
  6  7  1  0
  7  8  2  0
  8  9  1  0
  9 10  1  0
 10 11  1  0
 11 12  2  0
 11 13  1  0
 13 14  1  0
 14 15  2  0
 15 16  1  0
 16 17  1  0
 17 18  2  0
 18 19  1  0
 19 20  2  0
 20 21  1  0
 20 22  1  0
 22 23  2  0
 15 24  1  0
 24 25  1  0
 25 26  1  0
 26 27  1  0
 27 28  1  0
 28 29  2  0
 28 30  1  0
 30 31  2  3
 31 32  1  0
 32 33  2  0
 33 34  1  0
 34 35  2  0
 35 36  1  0
 36 37  1  0
 36 38  2  0
 35 39  1  0
 39 40  2  0
 26 41  1  0
 41 42  2  0
  8  3  1  0
 41 10  1  0
 25 13  2  0
 40 32  1  0
 23 17  1  0
  1 43  1  0
  1 44  1  0
  1 45  1  0
  4 46  1  0
  5 47  1  0
  6 48  1  0
  7 49  1  0
  9 50  1  0
  9 51  1  0
 16 52  1  0
 16 53  1  0
 18 54  1  0
 19 55  1  0
 21 56  1  0
 21 57  1  0
 21 58  1  0
 22 59  1  0
 23 60  1  0
 27 61  1  0
 27 62  1  0
 31 63  1  0
 33 64  1  0
 34 65  1  0
 37 66  1  0
 37 67  1  0
 38 68  1  0
 38 69  1  0
 39 70  1  0
 40 71  1  0
M  CHG  2  24  -1  38   1
M  END
>  <UniqueID>  (56) 
47

>  <SMILES>  (56) 
COc1ccccc1Cn1c(=O)c2nc(Cc3ccc(C)cc3)[n-]c2n(CC(=O)N=Cc2ccc(C(N)=[NH2+])cc2)c1=O

>  <Energy>  (56) 
123.36879494073847

>  <Genealogy>  (56) 
COc1ccccc1Cn1c(=O)c2nc(Cc3ccc(C)cc3)[n-]c2n(CC(=O)N=Cc2ccc(C(N)=[NH2+])cc2)c1=O (protonated)
COc1ccccc1Cn1c(=O)c2nc(Cc3ccc(C)cc3)[n-]c2n(CC(=O)N=Cc2ccc(C(N)=[NH2+])cc2)c1=O (3D coordinates assigned)
COc1ccccc1Cn1c(=O)c2nc(Cc3ccc(C)cc3)[n-]c2n(CC(=O)N=Cc2ccc(C(N)=[NH2+])cc2)c1=O (optimized conformer: 123.36879494073847 kcal/mol)

>  <smiles>  (56) 
COc1ccccc1Cn1c(=O)c2nc(Cc3ccc(C)cc3)[nH]c2n(CC(=O)N=Cc2ccc(C(=N)N)cc2)c1=O

>  <score_type>  (56) 
oracle

>  <origin>  (56) 
adg

>  <m_score__min__energy>  (56) 
-11.630000000000001

>  <m_primary>  (56) 
energy

$$$$
56:0
     RDKit          3D

 79 84  0  0  0  0  0  0  0  0999 V2000
   56.4440   34.3480   44.9760 O   0  0  0  0  0  0  0  0  0  0  0  0
   57.3890   33.5190   44.8810 C   0  0  0  0  0  0  0  0  0  0  0  0
   57.3860   32.5490   43.8300 N   0  0  0  0  0  0  0  0  0  0  0  0
   56.9220   30.8980   44.0660 S   0  0  0  0  0  0  0  0  0  0  0  0
   55.4850   30.8360   44.5110 O   0  0  0  0  0  0  0  0  0  0  0  0
   57.0490   30.1860   42.7480 O   0  0  0  0  0  0  0  0  0  0  0  0
   57.9550   30.0900   45.2410 C   0  0  0  0  0  0  0  0  0  0  0  0
   59.2610   30.5550   45.4410 C   0  0  0  0  0  0  0  0  0  0  0  0
   60.0710   29.9860   46.4270 C   0  0  0  0  0  0  0  0  0  0  0  0
   59.5760   28.9450   47.2370 C   0  0  0  0  0  0  0  0  0  0  0  0
   60.3280   28.3810   48.2780 O   0  0  0  0  0  0  0  0  0  0  0  0
   61.0990   29.1320   49.2140 C   0  0  0  0  0  0  0  0  0  0  0  0
   60.1910   30.0450   49.9880 C   0  0  0  0  0  0  0  0  0  0  0  0
   60.6980   31.2060   50.5930 C   0  0  0  0  0  0  0  0  0  0  0  0
   59.8550   32.0280   51.3470 C   0  0  0  0  0  0  0  0  0  0  0  0
   58.5070   31.6930   51.5060 C   0  0  0  0  0  0  0  0  0  0  0  0
   58.0000   30.5320   50.9160 C   0  0  0  0  0  0  0  0  0  0  0  0
   58.8390   29.7080   50.1600 C   0  0  0  0  0  0  0  0  0  0  0  0
   58.2750   28.4660   47.0180 C   0  0  0  0  0  0  0  0  0  0  0  0
   57.4660   29.0350   46.0250 C   0  0  0  0  0  0  0  0  0  0  0  0
   58.5130   33.5640   45.8470 C   0  0  0  0  0  0  0  0  0  0  0  0
   59.7870   34.0190   45.4540 C   0  0  0  0  0  0  0  0  0  0  0  0
   60.8580   34.0070   46.3550 C   0  0  0  0  0  0  0  0  0  0  0  0
   60.6850   33.5250   47.6600 C   0  0  0  0  0  0  0  0  0  0  0  0
   61.7990   33.5020   48.5730 N   0  0  0  0  0  0  0  0  0  0  0  0
   61.6840   34.2190   49.8440 C   0  0  0  0  0  0  0  0  0  0  0  0
   63.0700   34.5970   50.3920 C   0  0  0  0  0  0  0  0  0  0  0  0
   64.0370   33.4800   50.3470 N   0  0  0  0  0  0  0  0  0  0  0  0
   63.7910   32.4500   51.3830 C   0  0  0  0  0  0  0  0  0  0  0  0
   64.9230   31.4460   51.4180 C   0  0  0  0  0  0  0  0  0  0  0  0
   66.1960   31.8350   50.9600 C   0  0  0  0  0  0  0  0  0  0  0  0
   67.2640   30.9380   50.9780 C   0  0  0  0  0  0  0  0  0  0  0  0
   67.0820   29.6400   51.4540 C   0  0  0  0  0  0  0  0  0  0  0  0
   65.8240   29.2300   51.9050 C   0  0  0  0  0  0  0  0  0  0  0  0
   64.7390   30.1240   51.9020 C   0  0  0  0  0  0  0  0  0  0  0  0
   63.4230   29.6380   52.3720 C   0  0  0  0  0  0  0  0  0  0  0  0
   62.6870   30.3620   53.3210 C   0  0  0  0  0  0  0  0  0  0  0  0
   61.4270   29.9130   53.7270 C   0  0  0  0  0  0  0  0  0  0  0  0
   60.8960   28.7320   53.1940 C   0  0  0  0  0  0  0  0  0  0  0  0
   59.3070   28.1780   53.6930 Cl  0  0  0  0  0  0  0  0  0  0  0  0
   61.6340   27.9910   52.2660 C   0  0  0  0  0  0  0  0  0  0  0  0
   62.8920   28.4420   51.8570 C   0  0  0  0  0  0  0  0  0  0  0  0
   64.1490   32.9130   48.9890 C   0  0  0  0  0  0  0  0  0  0  0  0
   62.7970   32.4310   48.4610 C   0  0  0  0  0  0  0  0  0  0  0  0
   59.4130   33.0880   48.0630 C   0  0  0  0  0  0  0  0  0  0  0  0
   58.3370   33.1100   47.1670 C   0  0  0  0  0  0  0  0  0  0  0  0
   59.6513   31.3732   44.8180 H   0  0  0  0  0  0  0  0  0  0  0  0
   61.0983   30.3519   46.5713 H   0  0  0  0  0  0  0  0  0  0  0  0
   61.6064   28.4448   49.9071 H   0  0  0  0  0  0  0  0  0  0  0  0
   61.8503   29.7293   48.6766 H   0  0  0  0  0  0  0  0  0  0  0  0
   61.7594   31.4692   50.4737 H   0  0  0  0  0  0  0  0  0  0  0  0
   60.2531   32.9399   51.8160 H   0  0  0  0  0  0  0  0  0  0  0  0
   57.8449   32.3438   52.0960 H   0  0  0  0  0  0  0  0  0  0  0  0
   56.9405   30.2665   51.0465 H   0  0  0  0  0  0  0  0  0  0  0  0
   58.4388   28.7931   49.6987 H   0  0  0  0  0  0  0  0  0  0  0  0
   57.8876   27.6382   47.6301 H   0  0  0  0  0  0  0  0  0  0  0  0
   56.4473   28.6540   45.8605 H   0  0  0  0  0  0  0  0  0  0  0  0
   59.9416   34.3873   44.4291 H   0  0  0  0  0  0  0  0  0  0  0  0
   61.8431   34.3787   46.0366 H   0  0  0  0  0  0  0  0  0  0  0  0
   61.0969   35.1360   49.6877 H   0  0  0  0  0  0  0  0  0  0  0  0
   61.1868   33.5620   50.5728 H   0  0  0  0  0  0  0  0  0  0  0  0
   63.4683   35.4289   49.7925 H   0  0  0  0  0  0  0  0  0  0  0  0
   62.9398   34.8750   51.4483 H   0  0  0  0  0  0  0  0  0  0  0  0
   63.7106   32.9380   52.3655 H   0  0  0  0  0  0  0  0  0  0  0  0
   62.8568   31.9217   51.1419 H   0  0  0  0  0  0  0  0  0  0  0  0
   66.3501   32.8572   50.5839 H   0  0  0  0  0  0  0  0  0  0  0  0
   68.2529   31.2555   50.6156 H   0  0  0  0  0  0  0  0  0  0  0  0
   67.9289   28.9383   51.4746 H   0  0  0  0  0  0  0  0  0  0  0  0
   65.6820   28.2003   52.2649 H   0  0  0  0  0  0  0  0  0  0  0  0
   63.1028   31.2868   53.7476 H   0  0  0  0  0  0  0  0  0  0  0  0
   60.8514   30.4887   54.4668 H   0  0  0  0  0  0  0  0  0  0  0  0
   61.2252   27.0546   51.8585 H   0  0  0  0  0  0  0  0  0  0  0  0
   63.4709   27.8572   51.1270 H   0  0  0  0  0  0  0  0  0  0  0  0
   64.5406   33.6862   48.3116 H   0  0  0  0  0  0  0  0  0  0  0  0
   64.8262   32.0474   49.0349 H   0  0  0  0  0  0  0  0  0  0  0  0
   62.9016   32.1406   47.4052 H   0  0  0  0  0  0  0  0  0  0  0  0
   62.4658   31.5675   49.0565 H   0  0  0  0  0  0  0  0  0  0  0  0
   59.2605   32.7256   49.0903 H   0  0  0  0  0  0  0  0  0  0  0  0
   57.3450   32.7692   47.4983 H   0  0  0  0  0  0  0  0  0  0  0  0
  1  2  2  0
  2  3  1  0
  3  4  1  0
  4  5  2  0
  4  6  2  0
  4  7  1  0
  7  8  2  0
  8  9  1  0
  9 10  2  0
 10 11  1  0
 11 12  1  0
 12 13  1  0
 13 14  2  0
 14 15  1  0
 15 16  2  0
 16 17  1  0
 17 18  2  0
 10 19  1  0
 19 20  2  0
  2 21  1  0
 21 22  2  0
 22 23  1  0
 23 24  2  0
 24 25  1  0
 25 26  1  0
 26 27  1  0
 27 28  1  0
 28 29  1  0
 29 30  1  0
 30 31  2  0
 31 32  1  0
 32 33  2  0
 33 34  1  0
 34 35  2  0
 35 36  1  0
 36 37  2  0
 37 38  1  0
 38 39  2  0
 39 40  1  0
 39 41  1  0
 41 42  2  0
 28 43  1  0
 43 44  1  0
 24 45  1  0
 45 46  2  0
 20  7  1  0
 46 21  1  0
 18 13  1  0
 44 25  1  0
 35 30  1  0
 42 36  1  0
  8 47  1  0
  9 48  1  0
 12 49  1  0
 12 50  1  0
 14 51  1  0
 15 52  1  0
 16 53  1  0
 17 54  1  0
 18 55  1  0
 19 56  1  0
 20 57  1  0
 22 58  1  0
 23 59  1  0
 26 60  1  0
 26 61  1  0
 27 62  1  0
 27 63  1  0
 29 64  1  0
 29 65  1  0
 31 66  1  0
 32 67  1  0
 33 68  1  0
 34 69  1  0
 37 70  1  0
 38 71  1  0
 41 72  1  0
 42 73  1  0
 43 74  1  0
 43 75  1  0
 44 76  1  0
 44 77  1  0
 45 78  1  0
 46 79  1  0
M  CHG  1   3  -1
M  END
>  <UniqueID>  (57) 
48

>  <SMILES>  (57) 
O=C([N-]S(=O)(=O)c1ccc(OCc2ccccc2)cc1)c1ccc(N2CCN(Cc3ccccc3-c3ccc(Cl)cc3)CC2)cc1

>  <Energy>  (57) 
104.66252608123764

>  <Genealogy>  (57) 
O=C([N-]S(=O)(=O)c1ccc(OCc2ccccc2)cc1)c1ccc(N2CCN(Cc3ccccc3-c3ccc(Cl)cc3)CC2)cc1 (protonated)
O=C([N-]S(=O)(=O)c1ccc(OCc2ccccc2)cc1)c1ccc(N2CCN(Cc3ccccc3-c3ccc(Cl)cc3)CC2)cc1 (3D coordinates assigned)
O=C([N-]S(=O)(=O)c1ccc(OCc2ccccc2)cc1)c1ccc(N2CCN(Cc3ccccc3-c3ccc(Cl)cc3)CC2)cc1 (nonaromatic ring conformer: 104.66252608123764 kcal/mol)

>  <smiles>  (57) 
O=C(NS(=O)(=O)c1ccc(OCc2ccccc2)cc1)c1ccc(N2CCN(Cc3ccccc3-c3ccc(Cl)cc3)CC2)cc1

>  <score_type>  (57) 
oracle

>  <origin>  (57) 
adg

>  <m_score__min__energy>  (57) 
-11.73

>  <m_primary>  (57) 
energy

$$$$
57:0
     RDKit          3D

 48 53  0  0  0  0  0  0  0  0999 V2000
   58.5880   27.3673   44.9752 H   0  0  0  0  0  0  0  0  0  0  0  0
   58.2870   27.0420   45.9820 C   0  0  0  0  0  0  0  0  0  0  0  0
   56.9970   26.3350   46.1040 C   0  0  0  0  0  0  0  0  0  0  0  0
   56.8400   25.0530   46.4780 N   0  0  0  0  0  0  0  0  0  0  0  0
   55.5120   24.8400   46.3440 C   0  0  0  0  0  0  0  0  0  0  0  0
   54.8080   23.4100   46.6950 S   0  0  0  0  0  0  0  0  0  0  0  0
   54.8190   25.9030   45.8830 N   0  0  0  0  0  0  0  0  0  0  0  0
   55.7740   26.8340   45.7270 C   0  0  0  0  0  0  0  0  0  0  0  0
   55.5320   28.1150   45.2470 O   0  0  0  0  0  0  0  0  0  0  0  0
   59.1260   27.3230   46.9940 C   0  0  0  0  0  0  0  0  0  0  0  0
   60.0850   26.4490   47.5090 C   0  0  0  0  0  0  0  0  0  0  0  0
   60.2545   25.4215   47.1546 H   0  0  0  0  0  0  0  0  0  0  0  0
   60.7770   27.0480   48.5080 N   0  0  0  0  0  0  0  0  0  0  0  0
   60.2880   28.2710   48.6260 N   0  0  0  0  0  0  0  0  0  0  0  0
   60.6900   29.2460   49.4760 C   0  0  0  0  0  0  0  0  0  0  0  0
   61.6250   29.0230   50.3510 N   0  0  0  0  0  0  0  0  0  0  0  0
   61.3470   28.6770   51.7420 C   0  0  0  0  0  0  0  0  0  0  0  0
   62.1951   29.2095   52.1972 H   0  0  0  0  0  0  0  0  0  0  0  0
   60.7240   27.3040   51.9020 C   0  0  0  0  0  0  0  0  0  0  0  0
   60.5968   26.6522   51.0251 H   0  0  0  0  0  0  0  0  0  0  0  0
   60.9332   26.4230   52.5265 H   0  0  0  0  0  0  0  0  0  0  0  0
   59.8650   28.5520   52.0540 C   0  0  0  0  0  0  0  0  0  0  0  0
   59.1177   28.8029   51.2868 H   0  0  0  0  0  0  0  0  0  0  0  0
   59.1968   28.9477   52.8330 H   0  0  0  0  0  0  0  0  0  0  0  0
   60.0750   30.4590   49.3950 N   0  0  0  0  0  0  0  0  0  0  0  0
   59.0740   30.6760   48.4880 C   0  0  0  0  0  0  0  0  0  0  0  0
   58.4340   31.9180   48.4200 O   0  0  0  0  0  0  0  0  0  0  0  0
   58.7430   32.8870   47.4570 C   0  0  0  0  0  0  0  0  0  0  0  0
   59.3050   34.0930   47.8910 C   0  0  0  0  0  0  0  0  0  0  0  0
   59.5443   34.2301   48.9559 H   0  0  0  0  0  0  0  0  0  0  0  0
   59.5650   35.1240   46.9860 C   0  0  0  0  0  0  0  0  0  0  0  0
   59.9974   36.0704   47.3429 H   0  0  0  0  0  0  0  0  0  0  0  0
   59.2780   34.9580   45.6290 C   0  0  0  0  0  0  0  0  0  0  0  0
   59.5270   36.0010   44.7420 O   0  0  0  0  0  0  0  0  0  0  0  0
   58.7500   33.7470   45.1670 C   0  0  0  0  0  0  0  0  0  0  0  0
   58.4870   33.5820   43.8420 N   0  0  0  0  0  0  0  0  0  0  0  0
   57.9970   32.4160   43.3420 C   0  0  0  0  0  0  0  0  0  0  0  0
   57.7270   32.2890   41.8770 C   0  0  0  0  0  0  0  0  0  0  0  0
   56.7412   31.8253   41.7247 H   0  0  0  0  0  0  0  0  0  0  0  0
   57.7383   33.2869   41.4142 H   0  0  0  0  0  0  0  0  0  0  0  0
   58.5029   31.6614   41.4142 H   0  0  0  0  0  0  0  0  0  0  0  0
   57.7820   31.3290   44.1960 C   0  0  0  0  0  0  0  0  0  0  0  0
   57.4112   30.3743   43.7946 H   0  0  0  0  0  0  0  0  0  0  0  0
   58.0410   31.4640   45.5600 C   0  0  0  0  0  0  0  0  0  0  0  0
   57.8842   30.6095   46.2347 H   0  0  0  0  0  0  0  0  0  0  0  0
   58.5020   32.6890   46.0760 C   0  0  0  0  0  0  0  0  0  0  0  0
   58.6920   29.6770   47.6430 N   0  0  0  0  0  0  0  0  0  0  0  0
   59.3080   28.4750   47.7410 C   0  0  0  0  0  0  0  0  0  0  0  0
  1  2  1  0
  2  3  1  0
  3  4  1  0
  4  5  1  0
  5  6  2  0
  5  7  1  0
  7  8  1  0
  8  9  1  0
  2 10  2  3
 10 11  1  0
 11 12  1  0
 11 13  2  0
 13 14  1  0
 14 15  1  0
 15 16  2  0
 16 17  1  0
 17 18  1  0
 17 19  1  0
 19 20  1  0
 19 21  1  0
 19 22  1  0
 22 23  1  0
 22 24  1  0
 15 25  1  0
 25 26  2  0
 26 27  1  0
 27 28  1  0
 28 29  2  0
 29 30  1  0
 29 31  1  0
 31 32  1  0
 31 33  2  0
 33 34  1  0
 33 35  1  0
 35 36  2  0
 36 37  1  0
 37 38  1  0
 38 39  1  0
 38 40  1  0
 38 41  1  0
 37 42  2  0
 42 43  1  0
 42 44  1  0
 44 45  1  0
 44 46  2  0
 26 47  1  0
 47 48  2  0
  8  3  2  0
 48 10  1  0
 48 14  1  0
 22 17  1  0
 46 28  1  0
 46 35  1  0
M  CHG  4   4  -1   7  -1   9  -1  34  -1
M  END
>  <UniqueID>  (58) 
49

>  <SMILES>  (58) 
Cc1ccc2c(Oc3n/c(=N\C4CC4)n4ncc(=Cc5[n-]c(=S)[n-]c5[O-])c4n3)ccc([O-])c2n1

>  <Energy>  (58) 
400.4789219742057

>  <Genealogy>  (58) 
Cc1ccc2c(Oc3nc(=NC4CC4)n4ncc(=Cc5[n-]c(=S)[n-]c5[O-])c4n3)ccc([O-])c2n1 (protonated)
Cc1ccc2c(Oc3n/c(=N\C4CC4)n4ncc(=Cc5[n-]c(=S)[n-]c5[O-])c4n3)ccc([O-])c2n1 (cis-trans isomerization)
Cc1ccc2c(Oc3n/c(=N\C4CC4)n4ncc(=Cc5[n-]c(=S)[n-]c5[O-])c4n3)ccc([O-])c2n1 (3D coordinates assigned)
Cc1ccc2c(Oc3n/c(=N\C4CC4)n4ncc(=Cc5[n-]c(=S)[n-]c5[O-])c4n3)ccc([O-])c2n1 (nonaromatic ring conformer: 400.4789219742057 kcal/mol)

>  <smiles>  (58) 
Cc1ccc2c(Oc3nc(=NC4CC4)n4ncc(=Cc5[nH]c(=S)[nH]c5O)c4n3)ccc(O)c2n1

>  <score_type>  (58) 
oracle

>  <origin>  (58) 
adg

>  <m_score__min__energy>  (58) 
-17.75

>  <m_primary>  (58) 
energy

$$$$
58:0
     RDKit          3D

 33 34  0  0  0  0  0  0  0  0999 V2000
   59.9610   30.9240   51.5530 H   0  0  0  0  0  0  0  0  0  0  0  0
   59.7880   30.6060   50.6060 O   0  0  0  0  0  0  0  0  0  0  0  0
   60.1170   29.3150   50.1990 C   0  0  0  0  0  0  0  0  0  0  0  0
   60.7450   28.4270   51.0820 C   0  0  0  0  0  0  0  0  0  0  0  0
   60.9823   28.7471   52.1073 H   0  0  0  0  0  0  0  0  0  0  0  0
   61.0700   27.1350   50.6610 C   0  0  0  0  0  0  0  0  0  0  0  0
   61.6970   26.2580   51.5380 O   0  0  0  0  0  0  0  0  0  0  0  0
   60.7670   26.7230   49.3590 C   0  0  0  0  0  0  0  0  0  0  0  0
   61.0254   25.7046   49.0334 H   0  0  0  0  0  0  0  0  0  0  0  0
   60.1330   27.6050   48.4630 C   0  0  0  0  0  0  0  0  0  0  0  0
   59.8120   27.1830   47.0720 C   0  0  0  0  0  0  0  0  0  0  0  0
   60.6250   26.3350   46.4260 C   0  0  0  0  0  0  0  0  0  0  0  0
   60.3891   26.0223   45.3981 H   0  0  0  0  0  0  0  0  0  0  0  0
   61.5280   25.9519   46.9239 H   0  0  0  0  0  0  0  0  0  0  0  0
   58.6030   27.7330   46.4060 C   0  0  0  0  0  0  0  0  0  0  0  0
   57.4410   27.0300   46.4670 N   0  0  0  0  0  0  0  0  0  0  0  0
   56.2990   27.4640   45.8760 C   0  0  0  0  0  0  0  0  0  0  0  0
   55.1420   26.7010   45.9820 O   0  0  0  0  0  0  0  0  0  0  0  0
   56.2820   28.6720   45.1700 C   0  0  0  0  0  0  0  0  0  0  0  0
   55.0840   29.0850   44.6000 O   0  0  0  0  0  0  0  0  0  0  0  0
   57.4780   29.4290   45.0650 C   0  0  0  0  0  0  0  0  0  0  0  0
   57.5800   30.5590   44.4170 N   0  0  0  0  0  0  0  0  0  0  0  0
   57.0390   30.9470   43.1140 C   0  0  0  0  0  0  0  0  0  0  0  0
   57.0846   30.0842   42.4332 H   0  0  0  0  0  0  0  0  0  0  0  0
   55.9975   31.2745   43.2482 H   0  0  0  0  0  0  0  0  0  0  0  0
   57.8410   32.1000   42.5150 C   0  0  0  0  0  0  0  0  0  0  0  0
   58.2659   32.7109   43.3251 H   0  0  0  0  0  0  0  0  0  0  0  0
   58.6547   31.6970   41.8942 H   0  0  0  0  0  0  0  0  0  0  0  0
   57.1801   32.7227   41.8942 H   0  0  0  0  0  0  0  0  0  0  0  0
   58.6320   28.9450   45.6960 C   0  0  0  0  0  0  0  0  0  0  0  0
   59.5684   29.5189   45.6349 H   0  0  0  0  0  0  0  0  0  0  0  0
   59.8150   28.9050   48.8970 C   0  0  0  0  0  0  0  0  0  0  0  0
   59.3241   29.6054   48.2053 H   0  0  0  0  0  0  0  0  0  0  0  0
  1  2  1  0
  2  3  1  0
  3  4  2  0
  4  5  1  0
  4  6  1  0
  6  7  1  0
  6  8  2  0
  8  9  1  0
  8 10  1  0
 10 11  1  0
 11 12  2  0
 12 13  1  0
 12 14  1  0
 11 15  1  0
 15 16  1  0
 16 17  1  0
 17 18  1  0
 17 19  2  0
 19 20  1  0
 19 21  1  0
 21 22  2  0
 22 23  1  0
 23 24  1  0
 23 25  1  0
 23 26  1  0
 26 27  1  0
 26 28  1  0
 26 29  1  0
 21 30  1  0
 30 31  1  0
 10 32  2  0
 32 33  1  0
 32  3  1  0
 30 15  2  0
M  CHG  4   7  -1  16  -1  18  -1  20  -1
M  END
>  <UniqueID>  (59) 
50

>  <SMILES>  (59) 
C=C(c1cc([O-])cc(O)c1)c1c/c(=N/CC)c([O-])c([O-])[n-]1

>  <Energy>  (59) 
45.717648175460575

>  <Genealogy>  (59) 
C=C(c1cc([O-])cc(O)c1)c1cc(=NCC)c([O-])c([O-])[n-]1 (protonated)
C=C(c1cc([O-])cc(O)c1)c1c/c(=N/CC)c([O-])c([O-])[n-]1 (cis-trans isomerization)
C=C(c1cc([O-])cc(O)c1)c1c/c(=N/CC)c([O-])c([O-])[n-]1 (3D coordinates assigned)
C=C(c1cc([O-])cc(O)c1)c1c/c(=N/CC)c([O-])c([O-])[n-]1 (optimized conformer: 45.717648175460575 kcal/mol)

>  <smiles>  (59) 
C=C(c1cc(O)cc(O)c1)c1cc(=NCC)c(O)c(O)[nH]1

>  <score_type>  (59) 
oracle

>  <origin>  (59) 
adg

>  <m_score__min__energy>  (59) 
-14.66

>  <m_primary>  (59) 
energy

$$$$
59:0
     RDKit          3D

 54 57  0  0  0  0  0  0  0  0999 V2000
   66.8290   33.4740   50.8820 C   0  0  0  0  0  0  0  0  0  0  0  0
   65.5460   33.7840   51.0780 C   0  0  0  0  0  0  0  0  0  0  0  0
   64.4130   33.1660   50.3430 C   0  0  0  0  0  0  0  0  0  0  0  0
   64.5830   32.1510   49.3860 C   0  0  0  0  0  0  0  0  0  0  0  0
   63.5060   31.6190   48.7470 N   0  0  0  0  0  0  0  0  0  0  0  0
   62.2370   32.0580   48.9810 C   0  0  0  0  0  0  0  0  0  0  0  0
   61.1450   31.4680   48.2590 N   0  0  0  0  0  0  0  0  0  0  0  0
   61.0410   31.6640   46.8100 C   0  0  0  0  0  0  0  0  0  0  0  0
   60.2410   30.5260   46.1690 C   0  0  0  0  0  0  0  0  0  0  0  0
   58.9150   30.3690   46.8110 N   0  0  0  0  0  0  0  0  0  0  0  0
   58.1890   29.1740   46.3240 C   0  0  0  0  0  0  0  0  0  0  0  0
   57.2800   29.4700   45.1600 C   0  0  0  0  0  0  0  0  0  0  0  0
   57.7280   29.9150   43.9680 N   0  0  0  0  0  0  0  0  0  0  0  0
   56.6090   30.0730   43.2410 C   0  0  0  0  0  0  0  0  0  0  0  0
   55.5190   29.7230   44.0030 C   0  0  0  0  0  0  0  0  0  0  0  0
   55.9370   29.3400   45.2210 N   0  0  0  0  0  0  0  0  0  0  0  0
   58.8910   30.5190   48.2900 C   0  0  0  0  0  0  0  0  0  0  0  0
   60.2870   30.4840   48.9230 C   0  0  0  0  0  0  0  0  0  0  0  0
   62.0170   33.0940   49.9100 C   0  0  0  0  0  0  0  0  0  0  0  0
   60.6520   33.5640   50.2280 C   0  0  0  0  0  0  0  0  0  0  0  0
   60.3500   33.8020   51.4270 O   0  0  0  0  0  0  0  0  0  0  0  0
   59.6490   33.7440   49.2170 N   0  0  0  0  0  0  0  0  0  0  0  0
   59.7230   34.6670   48.0850 C   0  0  0  0  0  0  0  0  0  0  0  0
   58.9510   34.1350   46.9070 C   0  0  0  0  0  0  0  0  0  0  0  0
   59.4060   34.3390   45.5960 C   0  0  0  0  0  0  0  0  0  0  0  0
   58.6710   33.8440   44.5170 C   0  0  0  0  0  0  0  0  0  0  0  0
   57.4830   33.1500   44.7590 C   0  0  0  0  0  0  0  0  0  0  0  0
   57.0550   32.9580   46.0350 N   0  0  0  0  0  0  0  0  0  0  0  0
   57.7540   33.4300   47.1030 C   0  0  0  0  0  0  0  0  0  0  0  0
   63.1150   33.6270   50.5990 C   0  0  0  0  0  0  0  0  0  0  0  0
   67.6122   33.9775   51.4678 H   0  0  0  0  0  0  0  0  0  0  0  0
   67.1035   32.7150   50.1347 H   0  0  0  0  0  0  0  0  0  0  0  0
   65.3120   34.5479   51.8341 H   0  0  0  0  0  0  0  0  0  0  0  0
   65.5933   31.7843   49.1520 H   0  0  0  0  0  0  0  0  0  0  0  0
   63.6660   30.8660   48.0410 H   0  0  0  0  0  0  0  0  0  0  0  0
   60.5344   32.6197   46.6097 H   0  0  0  0  0  0  0  0  0  0  0  0
   62.0532   31.6728   46.3794 H   0  0  0  0  0  0  0  0  0  0  0  0
   60.0976   30.7467   45.1009 H   0  0  0  0  0  0  0  0  0  0  0  0
   60.8031   29.5899   46.3021 H   0  0  0  0  0  0  0  0  0  0  0  0
   58.9260   28.4201   46.0101 H   0  0  0  0  0  0  0  0  0  0  0  0
   57.5583   28.8135   47.1500 H   0  0  0  0  0  0  0  0  0  0  0  0
   56.5708   30.4267   42.2001 H   0  0  0  0  0  0  0  0  0  0  0  0
   54.4715   29.7520   43.6684 H   0  0  0  0  0  0  0  0  0  0  0  0
   58.4195   31.4818   48.5362 H   0  0  0  0  0  0  0  0  0  0  0  0
   58.3263   29.6668   48.6960 H   0  0  0  0  0  0  0  0  0  0  0  0
   60.2111   30.7257   49.9934 H   0  0  0  0  0  0  0  0  0  0  0  0
   60.7195   29.4794   48.8055 H   0  0  0  0  0  0  0  0  0  0  0  0
   59.3007   35.6378   48.3836 H   0  0  0  0  0  0  0  0  0  0  0  0
   60.7772   34.7804   47.7922 H   0  0  0  0  0  0  0  0  0  0  0  0
   60.3419   34.8890   45.4179 H   0  0  0  0  0  0  0  0  0  0  0  0
   59.0239   33.9989   43.4867 H   0  0  0  0  0  0  0  0  0  0  0  0
   56.8936   32.7587   43.9167 H   0  0  0  0  0  0  0  0  0  0  0  0
   57.3794   33.2583   48.1229 H   0  0  0  0  0  0  0  0  0  0  0  0
   62.9559   34.4159   51.3489 H   0  0  0  0  0  0  0  0  0  0  0  0
  1  2  2  0
  2  3  1  0
  3  4  2  0
  4  5  1  0
  5  6  2  0
  6  7  1  0
  7  8  1  0
  8  9  1  0
  9 10  1  0
 10 11  1  0
 11 12  1  0
 12 13  2  0
 13 14  1  0
 14 15  2  0
 15 16  1  0
 10 17  1  0
 17 18  1  0
  6 19  1  0
 19 20  1  0
 20 21  2  0
 20 22  1  0
 22 23  1  0
 23 24  1  0
 24 25  2  0
 25 26  1  0
 26 27  2  0
 27 28  1  0
 28 29  2  0
 19 30  2  0
 30  3  1  0
 18  7  1  0
 29 24  1  0
 16 12  1  0
  1 31  1  0
  1 32  1  0
  2 33  1  0
  4 34  1  0
  5 35  1  0
  8 36  1  0
  8 37  1  0
  9 38  1  0
  9 39  1  0
 11 40  1  0
 11 41  1  0
 14 42  1  0
 15 43  1  0
 17 44  1  0
 17 45  1  0
 18 46  1  0
 18 47  1  0
 23 48  1  0
 23 49  1  0
 25 50  1  0
 26 51  1  0
 27 52  1  0
 29 53  1  0
 30 54  1  0
M  CHG  3   5   1  16  -1  22  -1
M  END
>  <UniqueID>  (60) 
51

>  <SMILES>  (60) 
C=Cc1c[nH+]c(N2CCN(Cc3ncc[n-]3)CC2)c(C(=O)[N-]Cc2cccnc2)c1

>  <Energy>  (60) 
99.66616075374736

>  <Genealogy>  (60) 
C=Cc1c[nH+]c(N2CCN(Cc3ncc[n-]3)CC2)c(C(=O)[N-]Cc2cccnc2)c1 (protonated)
C=Cc1c[nH+]c(N2CCN(Cc3ncc[n-]3)CC2)c(C(=O)[N-]Cc2cccnc2)c1 (3D coordinates assigned)
C=Cc1c[nH+]c(N2CCN(Cc3ncc[n-]3)CC2)c(C(=O)[N-]Cc2cccnc2)c1 (nonaromatic ring conformer: 99.66616075374736 kcal/mol)

>  <smiles>  (60) 
C=Cc1cnc(N2CCN(Cc3ncc[nH]3)CC2)c(C(=O)NCc2cccnc2)c1

>  <score_type>  (60) 
oracle

>  <origin>  (60) 
adg

>  <m_score__min__energy>  (60) 
-9.2100000000000009

>  <m_primary>  (60) 
energy

$$$$
60:0
     RDKit          3D

 34 35  0  0  0  0  0  0  0  0999 V2000
   57.7020   20.0510   47.1250 C   0  0  0  0  0  0  0  0  0  0  0  0
   57.1710   21.1120   46.2760 N   0  0  0  0  0  0  0  0  0  0  0  0
   57.0520   21.0270   44.9580 N   0  0  0  0  0  0  0  0  0  0  0  0
   56.6430   22.2220   44.4780 C   0  0  0  0  0  0  0  0  0  0  0  0
   56.4800   22.5420   43.0220 C   0  0  0  0  0  0  0  0  0  0  0  0
   57.0460   21.5490   42.2440 F   0  0  0  0  0  0  0  0  0  0  0  0
   55.1360   22.6400   42.7100 F   0  0  0  0  0  0  0  0  0  0  0  0
   57.1030   23.7440   42.7440 F   0  0  0  0  0  0  0  0  0  0  0  0
   56.5040   23.1040   45.5410 C   0  0  0  0  0  0  0  0  0  0  0  0
   56.2290   24.5100   45.4560 N   0  0  0  0  0  0  0  0  0  0  0  0
   57.1510   25.5280   45.8690 C   0  0  0  0  0  0  0  0  0  0  0  0
   58.1710   25.2240   46.5450 O   0  0  0  0  0  0  0  0  0  0  0  0
   56.8880   26.8990   45.5300 N   0  0  0  0  0  0  0  0  0  0  0  0
   57.6840   28.0040   45.9920 C   0  0  0  0  0  0  0  0  0  0  0  0
   58.4890   27.8470   46.9510 O   0  0  0  0  0  0  0  0  0  0  0  0
   57.5320   29.3500   45.3920 C   0  0  0  0  0  0  0  0  0  0  0  0
   58.6500   30.2010   45.3140 C   0  0  0  0  0  0  0  0  0  0  0  0
   58.5320   31.4780   44.7600 C   0  0  0  0  0  0  0  0  0  0  0  0
   57.3020   31.9180   44.2690 C   0  0  0  0  0  0  0  0  0  0  0  0
   56.1870   31.0770   44.3230 C   0  0  0  0  0  0  0  0  0  0  0  0
   56.2970   29.7940   44.8710 C   0  0  0  0  0  0  0  0  0  0  0  0
   55.1810   28.9640   44.8650 O   0  0  0  0  0  0  0  0  0  0  0  0
   56.8720   22.3700   46.6540 C   0  0  0  0  0  0  0  0  0  0  0  0
   56.9860   22.8020   47.8320 O   0  0  0  0  0  0  0  0  0  0  0  0
   57.5653   20.3240   48.1818 H   0  0  0  0  0  0  0  0  0  0  0  0
   57.1673   19.1125   46.9167 H   0  0  0  0  0  0  0  0  0  0  0  0
   58.7737   19.9165   46.9167 H   0  0  0  0  0  0  0  0  0  0  0  0
   57.2820   20.1770   44.3960 H   0  0  0  0  0  0  0  0  0  0  0  0
   55.2800   24.8090   45.1410 H   0  0  0  0  0  0  0  0  0  0  0  0
   56.0500   27.1010   44.9400 H   0  0  0  0  0  0  0  0  0  0  0  0
   59.6244   29.8581   45.6922 H   0  0  0  0  0  0  0  0  0  0  0  0
   59.4105   32.1381   44.7107 H   0  0  0  0  0  0  0  0  0  0  0  0
   57.2101   32.9265   43.8396 H   0  0  0  0  0  0  0  0  0  0  0  0
   55.2190   31.4250   43.9332 H   0  0  0  0  0  0  0  0  0  0  0  0
  1  2  1  0
  2  3  1  0
  3  4  1  0
  4  5  1  0
  5  6  1  0
  5  7  1  0
  5  8  1  0
  4  9  2  0
  9 10  1  0
 10 11  1  0
 11 12  2  0
 11 13  1  0
 13 14  1  0
 14 15  2  0
 14 16  1  0
 16 17  2  0
 17 18  1  0
 18 19  2  0
 19 20  1  0
 20 21  2  0
 21 22  1  0
  9 23  1  0
 23 24  2  0
 23  2  1  0
 21 16  1  0
  1 25  1  0
  1 26  1  0
  1 27  1  0
  3 28  1  0
 10 29  1  0
 13 30  1  0
 17 31  1  0
 18 32  1  0
 19 33  1  0
 20 34  1  0
M  CHG  1  22  -1
M  END
>  <UniqueID>  (61) 
52

>  <SMILES>  (61) 
Cn1[nH]c(C(F)(F)F)c(NC(=O)NC(=O)c2ccccc2[O-])c1=O

>  <Energy>  (61) 
74.59169574402954

>  <Genealogy>  (61) 
Cn1[nH]c(C(F)(F)F)c(NC(=O)NC(=O)c2ccccc2[O-])c1=O (protonated)
Cn1[nH]c(C(F)(F)F)c(NC(=O)NC(=O)c2ccccc2[O-])c1=O (3D coordinates assigned)
Cn1[nH]c(C(F)(F)F)c(NC(=O)NC(=O)c2ccccc2[O-])c1=O (optimized conformer: 74.59169574402954 kcal/mol)

>  <smiles>  (61) 
Cn1[nH]c(C(F)(F)F)c(NC(=O)NC(=O)c2ccccc2O)c1=O

>  <score_type>  (61) 
oracle

>  <origin>  (61) 
adg

>  <m_score__min__energy>  (61) 
-10.210000000000001

>  <m_primary>  (61) 
energy

$$$$
61:0
     RDKit          3D

 41 44  0  0  0  0  0  0  0  0999 V2000
   57.8791   21.3368   45.0440 H   0  0  0  0  0  0  0  0  0  0  0  0
   57.7340   22.4270   45.0220 C   0  0  0  0  0  0  0  0  0  0  0  0
   57.7870   23.1420   46.1750 N   0  0  0  0  0  0  0  0  0  0  0  0
   57.6010   24.4880   46.1720 C   0  0  0  0  0  0  0  0  0  0  0  0
   57.6558   25.0519   47.1149 H   0  0  0  0  0  0  0  0  0  0  0  0
   57.3400   25.1580   44.9720 C   0  0  0  0  0  0  0  0  0  0  0  0
   57.1650   26.5860   44.9680 N   0  0  0  0  0  0  0  0  0  0  0  0
   56.3100   26.9790   44.5130 H   0  0  0  0  0  0  0  0  0  0  0  0
   58.1300   27.5120   45.4960 C   0  0  0  0  0  0  0  0  0  0  0  0
   59.3590   27.0350   45.9650 C   0  0  0  0  0  0  0  0  0  0  0  0
   59.5489   25.9519   45.9937 H   0  0  0  0  0  0  0  0  0  0  0  0
   60.3420   27.9190   46.3950 C   0  0  0  0  0  0  0  0  0  0  0  0
   61.3016   27.5359   46.7724 H   0  0  0  0  0  0  0  0  0  0  0  0
   60.1060   29.3040   46.3460 C   0  0  0  0  0  0  0  0  0  0  0  0
   61.1260   30.3400   46.7930 C   0  0  0  0  0  0  0  0  0  0  0  0
   61.7453   30.2029   45.8943 H   0  0  0  0  0  0  0  0  0  0  0  0
   60.6120   31.5430   47.5730 C   0  0  0  0  0  0  0  0  0  0  0  0
   61.0614   32.5344   47.4143 H   0  0  0  0  0  0  0  0  0  0  0  0
   59.6281   32.0126   47.7196 H   0  0  0  0  0  0  0  0  0  0  0  0
   61.4030   30.4530   48.2860 C   0  0  0  0  0  0  0  0  0  0  0  0
   62.4235   30.6575   48.6421 H   0  0  0  0  0  0  0  0  0  0  0  0
   61.2267   29.8097   49.1607 H   0  0  0  0  0  0  0  0  0  0  0  0
   58.9030   29.7520   45.8780 N   0  0  0  0  0  0  0  0  0  0  0  0
   58.7330   30.7840   45.8600 H   0  0  0  0  0  0  0  0  0  0  0  0
   57.9120   28.9080   45.4580 C   0  0  0  0  0  0  0  0  0  0  0  0
   56.6200   29.4870   45.0090 C   0  0  0  0  0  0  0  0  0  0  0  0
   55.5690   28.7900   45.0320 O   0  0  0  0  0  0  0  0  0  0  0  0
   56.5920   30.8310   44.4980 N   0  0  0  0  0  0  0  0  0  0  0  0
   57.3080   31.8630   44.8500 C   0  0  0  0  0  0  0  0  0  0  0  0
   57.4350   32.1300   46.1790 N   0  0  0  0  0  0  0  0  0  0  0  0
   58.1520   33.1860   46.6470 C   0  0  0  0  0  0  0  0  0  0  0  0
   58.2314   33.3599   47.7303 H   0  0  0  0  0  0  0  0  0  0  0  0
   58.7870   34.0490   45.7540 C   0  0  0  0  0  0  0  0  0  0  0  0
   59.7140   35.4160   46.3460 Cl  0  0  0  0  0  0  0  0  0  0  0  0
   58.6660   33.8180   44.3840 C   0  0  0  0  0  0  0  0  0  0  0  0
   59.1568   34.4934   43.6678 H   0  0  0  0  0  0  0  0  0  0  0  0
   57.9230   32.7310   43.9200 C   0  0  0  0  0  0  0  0  0  0  0  0
   57.8173   32.5518   42.8399 H   0  0  0  0  0  0  0  0  0  0  0  0
   57.3090   24.4000   43.7920 C   0  0  0  0  0  0  0  0  0  0  0  0
   57.1283   24.8939   42.8259 H   0  0  0  0  0  0  0  0  0  0  0  0
   57.5020   23.0570   43.8420 N   0  0  0  0  0  0  0  0  0  0  0  0
  1  2  1  0
  2  3  2  0
  3  4  1  0
  4  5  1  0
  4  6  2  0
  6  7  1  0
  7  8  1  0
  7  9  1  0
  9 10  2  0
 10 11  1  0
 10 12  1  0
 12 13  1  0
 12 14  2  0
 14 15  1  0
 15 16  1  0
 15 17  1  0
 17 18  1  0
 17 19  1  0
 17 20  1  0
 20 21  1  0
 20 22  1  0
 14 23  1  0
 23 24  1  0
 23 25  2  0
 25 26  1  0
 26 27  2  0
 26 28  1  0
 28 29  2  0
 29 30  1  0
 30 31  1  0
 31 32  1  0
 31 33  2  0
 33 34  1  0
 33 35  1  0
 35 36  1  0
 35 37  2  0
 37 38  1  0
  6 39  1  0
 39 40  1  0
 39 41  2  0
 41  2  1  0
 25  9  1  0
 37 29  1  0
 20 15  1  0
M  CHG  2  23   1  30  -1
M  END
>  <UniqueID>  (62) 
53

>  <SMILES>  (62) 
O=C(/N=c1\ccc(Cl)c[n-]1)c1[nH+]c(C2CC2)ccc1Nc1cncnc1

>  <Energy>  (62) 
331.86118765181794

>  <Genealogy>  (62) 
O=C(N=c1ccc(Cl)c[n-]1)c1[nH+]c(C2CC2)ccc1Nc1cncnc1 (protonated)
O=C(/N=c1\ccc(Cl)c[n-]1)c1[nH+]c(C2CC2)ccc1Nc1cncnc1 (cis-trans isomerization)
O=C(/N=c1\ccc(Cl)c[n-]1)c1[nH+]c(C2CC2)ccc1Nc1cncnc1 (3D coordinates assigned)
O=C(/N=c1\ccc(Cl)c[n-]1)c1[nH+]c(C2CC2)ccc1Nc1cncnc1 (nonaromatic ring conformer: 331.86118765181794 kcal/mol)

>  <smiles>  (62) 
O=C(N=c1ccc(Cl)c[nH]1)c1nc(C2CC2)ccc1Nc1cncnc1

>  <score_type>  (62) 
oracle

>  <origin>  (62) 
adg

>  <m_score__min__energy>  (62) 
-7.7800000000000002

>  <m_primary>  (62) 
energy

$$$$
62:0
     RDKit          3D

 55 57  0  0  0  0  0  0  0  0999 V2000
   59.6810   34.2160   49.5080 C   0  0  0  0  0  0  0  0  0  0  0  0
   59.8590   34.8330   48.2510 O   0  0  0  0  0  0  0  0  0  0  0  0
   58.7230   34.6170   47.4350 C   0  0  0  0  0  0  0  0  0  0  0  0
   58.9020   33.3830   46.5820 C   0  0  0  0  0  0  0  0  0  0  0  0
   59.8020   32.3900   46.9940 C   0  0  0  0  0  0  0  0  0  0  0  0
   59.9740   31.2400   46.2180 C   0  0  0  0  0  0  0  0  0  0  0  0
   60.9420   30.1800   46.6420 C   0  0  0  0  0  0  0  0  0  0  0  0
   59.2770   31.0960   45.0610 N   0  0  0  0  0  0  0  0  0  0  0  0
   58.4100   32.0430   44.6150 C   0  0  0  0  0  0  0  0  0  0  0  0
   57.5510   31.7510   43.0610 S   0  0  0  0  0  0  0  0  0  0  0  0
   57.1470   30.0090   43.4370 C   0  0  0  0  0  0  0  0  0  0  0  0
   56.0140   29.9000   44.4210 C   0  0  0  0  0  0  0  0  0  0  0  0
   55.4900   30.9600   44.8560 O   0  0  0  0  0  0  0  0  0  0  0  0
   55.5490   28.6440   44.9440 N   0  0  0  0  0  0  0  0  0  0  0  0
   56.3130   27.6350   45.6210 C   0  0  0  0  0  0  0  0  0  0  0  0
   57.7100   27.7270   45.7430 C   0  0  0  0  0  0  0  0  0  0  0  0
   58.4290   26.7360   46.4270 C   0  0  0  0  0  0  0  0  0  0  0  0
   60.1650   26.9150   46.6900 S   0  0  0  0  0  0  0  0  0  0  0  0
   60.7640   27.7030   45.5580 O   0  0  0  0  0  0  0  0  0  0  0  0
   60.8060   25.5560   46.6980 O   0  0  0  0  0  0  0  0  0  0  0  0
   60.5040   27.7190   48.2040 N   0  0  0  0  0  0  0  0  0  0  0  0
   59.3680   28.5690   48.5990 C   0  0  0  0  0  0  0  0  0  0  0  0
   59.5860   29.1450   50.0140 C   0  0  0  0  0  0  0  0  0  0  0  0
   60.8850   28.8530   50.4950 O   0  0  0  0  0  0  0  0  0  0  0  0
   61.0510   27.4480   50.5990 C   0  0  0  0  0  0  0  0  0  0  0  0
   60.7880   26.7340   49.2560 C   0  0  0  0  0  0  0  0  0  0  0  0
   57.7570   25.6150   46.9310 C   0  0  0  0  0  0  0  0  0  0  0  0
   56.3780   25.4850   46.7520 C   0  0  0  0  0  0  0  0  0  0  0  0
   55.6580   26.4880   46.0950 C   0  0  0  0  0  0  0  0  0  0  0  0
   54.2870   26.3400   45.9170 O   0  0  0  0  0  0  0  0  0  0  0  0
   58.2000   33.2140   45.3680 C   0  0  0  0  0  0  0  0  0  0  0  0
   57.2560   34.2100   44.9180 C   0  0  0  0  0  0  0  0  0  0  0  0
   56.4990   35.0050   44.5520 N   0  0  0  0  0  0  0  0  0  0  0  0
   59.8908   34.9431   50.3063 H   0  0  0  0  0  0  0  0  0  0  0  0
   58.6438   33.8610   49.5986 H   0  0  0  0  0  0  0  0  0  0  0  0
   60.3697   33.3631   49.5986 H   0  0  0  0  0  0  0  0  0  0  0  0
   57.8382   34.4874   48.0756 H   0  0  0  0  0  0  0  0  0  0  0  0
   58.5931   35.4867   46.7741 H   0  0  0  0  0  0  0  0  0  0  0  0
   60.3719   32.5156   47.9264 H   0  0  0  0  0  0  0  0  0  0  0  0
   60.9810   30.1373   47.7405 H   0  0  0  0  0  0  0  0  0  0  0  0
   60.6150   29.2062   46.2486 H   0  0  0  0  0  0  0  0  0  0  0  0
   61.9414   30.4175   46.2486 H   0  0  0  0  0  0  0  0  0  0  0  0
   56.8596   29.5006   42.5048 H   0  0  0  0  0  0  0  0  0  0  0  0
   58.0357   29.5399   43.8843 H   0  0  0  0  0  0  0  0  0  0  0  0
   58.2426   28.5812   45.2995 H   0  0  0  0  0  0  0  0  0  0  0  0
   59.2705   29.3979   47.8825 H   0  0  0  0  0  0  0  0  0  0  0  0
   58.4529   27.9586   48.6020 H   0  0  0  0  0  0  0  0  0  0  0  0
   59.4535   30.2365   49.9806 H   0  0  0  0  0  0  0  0  0  0  0  0
   58.8533   28.6839   50.6926 H   0  0  0  0  0  0  0  0  0  0  0  0
   62.0817   27.2348   50.9187 H   0  0  0  0  0  0  0  0  0  0  0  0
   60.3216   27.0729   51.3319 H   0  0  0  0  0  0  0  0  0  0  0  0
   61.6764   26.1490   48.9756 H   0  0  0  0  0  0  0  0  0  0  0  0
   59.9194   26.0683   49.3679 H   0  0  0  0  0  0  0  0  0  0  0  0
   58.3166   24.8355   47.4689 H   0  0  0  0  0  0  0  0  0  0  0  0
   55.8573   24.5922   47.1284 H   0  0  0  0  0  0  0  0  0  0  0  0
  1  2  1  0
  2  3  1  0
  3  4  1  0
  4  5  2  0
  5  6  1  0
  6  7  1  0
  6  8  2  0
  8  9  1  0
  9 10  1  0
 10 11  1  0
 11 12  1  0
 12 13  2  0
 12 14  1  0
 14 15  1  0
 15 16  2  0
 16 17  1  0
 17 18  1  0
 18 19  2  0
 18 20  2  0
 18 21  1  0
 21 22  1  0
 22 23  1  0
 23 24  1  0
 24 25  1  0
 25 26  1  0
 17 27  2  0
 27 28  1  0
 28 29  2  0
 29 30  1  0
  9 31  2  0
 31 32  1  0
 32 33  3  0
 31  4  1  0
 29 15  1  0
 26 21  1  0
  1 34  1  0
  1 35  1  0
  1 36  1  0
  3 37  1  0
  3 38  1  0
  5 39  1  0
  7 40  1  0
  7 41  1  0
  7 42  1  0
 11 43  1  0
 11 44  1  0
 16 45  1  0
 22 46  1  0
 22 47  1  0
 23 48  1  0
 23 49  1  0
 25 50  1  0
 25 51  1  0
 26 52  1  0
 26 53  1  0
 27 54  1  0
 28 55  1  0
M  CHG  2  14  -1  30  -1
M  END
>  <UniqueID>  (63) 
54

>  <SMILES>  (63) 
COCc1cc(C)nc(SCC(=O)[N-]c2cc(S(=O)(=O)N3CCOCC3)ccc2[O-])c1C#N

>  <Energy>  (63) 
65.5125560283869

>  <Genealogy>  (63) 
COCc1cc(C)nc(SCC(=O)[N-]c2cc(S(=O)(=O)N3CCOCC3)ccc2[O-])c1C#N (protonated)
COCc1cc(C)nc(SCC(=O)[N-]c2cc(S(=O)(=O)N3CCOCC3)ccc2[O-])c1C#N (3D coordinates assigned)
COCc1cc(C)nc(SCC(=O)[N-]c2cc(S(=O)(=O)N3CCOCC3)ccc2[O-])c1C#N (nonaromatic ring conformer: 65.5125560283869 kcal/mol)

>  <smiles>  (63) 
COCc1cc(C)nc(SCC(=O)Nc2cc(S(=O)(=O)N3CCOCC3)ccc2O)c1C#N

>  <score_type>  (63) 
oracle

>  <origin>  (63) 
adg

>  <m_score__min__energy>  (63) 
-14.119999999999999

>  <m_primary>  (63) 
energy

$$$$
63:0
     RDKit          3D

 45 48  0  0  0  0  0  0  0  0999 V2000
   61.1220   26.3590   47.7890 O   0  0  0  0  0  0  0  0  0  0  0  0
   60.4940   27.4040   48.1360 C   0  0  0  0  0  0  0  0  0  0  0  0
   60.7780   27.9910   49.4090 N   0  0  0  0  0  0  0  0  0  0  0  0
   60.5680   29.2440   49.6780 C   0  0  0  0  0  0  0  0  0  0  0  0
   61.4290   30.2510   49.3630 N   0  0  0  0  0  0  0  0  0  0  0  0
   60.9240   31.4560   49.7260 C   0  0  0  0  0  0  0  0  0  0  0  0
   61.5610   32.6800   49.5180 C   0  0  0  0  0  0  0  0  0  0  0  0
   60.9120   33.8560   49.9320 C   0  0  0  0  0  0  0  0  0  0  0  0
   59.6450   33.7940   50.5460 C   0  0  0  0  0  0  0  0  0  0  0  0
   59.0120   32.5570   50.7480 C   0  0  0  0  0  0  0  0  0  0  0  0
   59.6730   31.4070   50.3290 C   0  0  0  0  0  0  0  0  0  0  0  0
   59.1570   29.8090   50.4200 S   0  0  0  0  0  0  0  0  0  0  0  0
   59.4920   28.0160   47.2290 C   0  0  0  0  0  0  0  0  0  0  0  0
   59.7370   29.2630   46.6280 C   0  0  0  0  0  0  0  0  0  0  0  0
   58.8020   29.8250   45.7540 C   0  0  0  0  0  0  0  0  0  0  0  0
   57.6170   29.1450   45.4560 C   0  0  0  0  0  0  0  0  0  0  0  0
   56.4780   29.8390   44.3040 S   0  0  0  0  0  0  0  0  0  0  0  0
   56.9420   29.5920   42.8950 O   0  0  0  0  0  0  0  0  0  0  0  0
   55.1430   29.1760   44.4920 O   0  0  0  0  0  0  0  0  0  0  0  0
   56.3040   31.5520   44.5620 N   0  0  0  0  0  0  0  0  0  0  0  0
   57.4390   32.2940   44.0100 C   0  0  0  0  0  0  0  0  0  0  0  0
   58.0900   33.1410   45.0730 C   0  0  0  0  0  0  0  0  0  0  0  0
   57.8140   32.9060   46.4310 C   0  0  0  0  0  0  0  0  0  0  0  0
   58.4420   33.6670   47.4210 C   0  0  0  0  0  0  0  0  0  0  0  0
   59.3360   34.6780   47.0640 C   0  0  0  0  0  0  0  0  0  0  0  0
   59.5990   34.9350   45.7150 C   0  0  0  0  0  0  0  0  0  0  0  0
   58.9780   34.1710   44.7230 C   0  0  0  0  0  0  0  0  0  0  0  0
   57.3620   27.9050   46.0560 C   0  0  0  0  0  0  0  0  0  0  0  0
   58.2900   27.3460   46.9370 C   0  0  0  0  0  0  0  0  0  0  0  0
   62.3550   30.1270   48.8910 H   0  0  0  0  0  0  0  0  0  0  0  0
   62.5507   32.7236   49.0399 H   0  0  0  0  0  0  0  0  0  0  0  0
   61.3962   34.8312   49.7757 H   0  0  0  0  0  0  0  0  0  0  0  0
   59.1486   34.7209   50.8692 H   0  0  0  0  0  0  0  0  0  0  0  0
   58.0220   32.4990   51.2239 H   0  0  0  0  0  0  0  0  0  0  0  0
   60.6714   29.8005   46.8471 H   0  0  0  0  0  0  0  0  0  0  0  0
   58.9993   30.8067   45.2986 H   0  0  0  0  0  0  0  0  0  0  0  0
   58.1775   31.5817   43.6135 H   0  0  0  0  0  0  0  0  0  0  0  0
   57.0744   32.9523   43.2077 H   0  0  0  0  0  0  0  0  0  0  0  0
   57.1001   32.1192   46.7161 H   0  0  0  0  0  0  0  0  0  0  0  0
   58.2316   33.4691   48.4824 H   0  0  0  0  0  0  0  0  0  0  0  0
   59.8337   35.2726   47.8442 H   0  0  0  0  0  0  0  0  0  0  0  0
   60.2952   35.7391   45.4343 H   0  0  0  0  0  0  0  0  0  0  0  0
   59.1859   34.3776   43.6628 H   0  0  0  0  0  0  0  0  0  0  0  0
   56.4274   27.3698   45.8323 H   0  0  0  0  0  0  0  0  0  0  0  0
   58.0794   26.3738   47.4065 H   0  0  0  0  0  0  0  0  0  0  0  0
  1  2  2  0
  2  3  1  0
  3  4  2  3
  4  5  1  0
  5  6  1  0
  6  7  2  0
  7  8  1  0
  8  9  2  0
  9 10  1  0
 10 11  2  0
 11 12  1  0
  2 13  1  0
 13 14  2  0
 14 15  1  0
 15 16  2  0
 16 17  1  0
 17 18  2  0
 17 19  2  0
 17 20  1  0
 20 21  1  0
 21 22  1  0
 22 23  2  0
 23 24  1  0
 24 25  2  0
 25 26  1  0
 26 27  2  0
 16 28  1  0
 28 29  2  0
 12  4  1  0
 29 13  1  0
 11  6  1  0
 27 22  1  0
  5 30  1  0
  7 31  1  0
  8 32  1  0
  9 33  1  0
 10 34  1  0
 14 35  1  0
 15 36  1  0
 21 37  1  0
 21 38  1  0
 23 39  1  0
 24 40  1  0
 25 41  1  0
 26 42  1  0
 27 43  1  0
 28 44  1  0
 29 45  1  0
M  CHG  1  20  -1
M  END
>  <UniqueID>  (64) 
55

>  <SMILES>  (64) 
O=C(N=c1[nH]c2ccccc2s1)c1ccc(S(=O)(=O)[N-]Cc2ccccc2)cc1

>  <Energy>  (64) 
87.84363384443697

>  <Genealogy>  (64) 
O=C(N=c1[nH]c2ccccc2s1)c1ccc(S(=O)(=O)[N-]Cc2ccccc2)cc1 (protonated)
O=C(N=c1[nH]c2ccccc2s1)c1ccc(S(=O)(=O)[N-]Cc2ccccc2)cc1 (3D coordinates assigned)
O=C(N=c1[nH]c2ccccc2s1)c1ccc(S(=O)(=O)[N-]Cc2ccccc2)cc1 (optimized conformer: 87.84363384443697 kcal/mol)

>  <smiles>  (64) 
O=C(N=c1[nH]c2ccccc2s1)c1ccc(S(=O)(=O)NCc2ccccc2)cc1

>  <score_type>  (64) 
oracle

>  <origin>  (64) 
adg

>  <m_score__min__energy>  (64) 
-10.859999999999999

>  <m_primary>  (64) 
energy

$$$$
64:0
     RDKit          3D

 37 40  0  0  0  0  0  0  0  0999 V2000
   56.1730   28.6460   44.4210 H   0  0  0  0  0  0  0  0  0  0  0  0
   55.6820   28.2880   45.2300 O   0  0  0  0  0  0  0  0  0  0  0  0
   56.0420   27.0800   45.8250 C   0  0  0  0  0  0  0  0  0  0  0  0
   55.1790   26.0690   46.0190 N   0  0  0  0  0  0  0  0  0  0  0  0
   55.9310   25.1540   46.6670 C   0  0  0  0  0  0  0  0  0  0  0  0
   55.4740   24.0420   47.0380 O   0  0  0  0  0  0  0  0  0  0  0  0
   57.2090   25.5280   46.8930 N   0  0  0  0  0  0  0  0  0  0  0  0
   57.2810   26.7480   46.3320 C   0  0  0  0  0  0  0  0  0  0  0  0
   58.4860   27.5910   46.3830 C   0  0  0  0  0  0  0  0  0  0  0  0
   59.4469   27.1372   46.0986 H   0  0  0  0  0  0  0  0  0  0  0  0
   58.4830   28.8780   46.7550 C   0  0  0  0  0  0  0  0  0  0  0  0
   58.8900   29.3760   47.9920 C   0  0  0  0  0  0  0  0  0  0  0  0
   59.2488   28.7624   48.8315 H   0  0  0  0  0  0  0  0  0  0  0  0
   58.7790   30.7270   48.0090 N   0  0  0  0  0  0  0  0  0  0  0  0
   58.3230   31.0860   46.8190 N   0  0  0  0  0  0  0  0  0  0  0  0
   58.0890   32.3410   46.3660 C   0  0  0  0  0  0  0  0  0  0  0  0
   58.2940   33.3660   47.1510 N   0  0  0  0  0  0  0  0  0  0  0  0
   59.2920   34.4520   47.1390 C   0  0  0  0  0  0  0  0  0  0  0  0
   58.9514   34.8649   48.1000 H   0  0  0  0  0  0  0  0  0  0  0  0
   59.6550   35.0400   45.7860 C   0  0  0  0  0  0  0  0  0  0  0  0
   59.1576   34.6745   44.8755 H   0  0  0  0  0  0  0  0  0  0  0  0
   59.6872   36.0538   45.3604 H   0  0  0  0  0  0  0  0  0  0  0  0
   60.6490   34.1440   46.5280 C   0  0  0  0  0  0  0  0  0  0  0  0
   60.8669   33.1336   46.1516 H   0  0  0  0  0  0  0  0  0  0  0  0
   61.6934   34.2452   46.8582 H   0  0  0  0  0  0  0  0  0  0  0  0
   57.6540   32.4770   45.0800 N   0  0  0  0  0  0  0  0  0  0  0  0
   57.4780   31.3810   44.2760 C   0  0  0  0  0  0  0  0  0  0  0  0
   57.0820   31.5130   43.0450 N   0  0  0  0  0  0  0  0  0  0  0  0
   57.9110   32.0040   41.9450 C   0  0  0  0  0  0  0  0  0  0  0  0
   58.6232   31.2192   41.6503 H   0  0  0  0  0  0  0  0  0  0  0  0
   58.4522   32.9010   42.2806 H   0  0  0  0  0  0  0  0  0  0  0  0
   57.0450   32.3710   40.7460 C   0  0  0  0  0  0  0  0  0  0  0  0
   56.0853   32.7777   41.0976 H   0  0  0  0  0  0  0  0  0  0  0  0
   57.5627   33.1271   40.1375 H   0  0  0  0  0  0  0  0  0  0  0  0
   56.8618   31.4732   40.1375 H   0  0  0  0  0  0  0  0  0  0  0  0
   57.7330   30.1330   44.7610 N   0  0  0  0  0  0  0  0  0  0  0  0
   58.1410   30.0140   46.0470 C   0  0  0  0  0  0  0  0  0  0  0  0
  1  2  1  0
  2  3  1  0
  3  4  1  0
  4  5  1  0
  5  6  2  0
  5  7  1  0
  7  8  1  0
  8  9  1  0
  9 10  1  0
  9 11  2  3
 11 12  1  0
 12 13  1  0
 12 14  2  0
 14 15  1  0
 15 16  1  0
 16 17  2  0
 17 18  1  0
 18 19  1  0
 18 20  1  0
 20 21  1  0
 20 22  1  0
 20 23  1  0
 23 24  1  0
 23 25  1  0
 16 26  1  0
 26 27  1  0
 27 28  2  0
 28 29  1  0
 29 30  1  0
 29 31  1  0
 29 32  1  0
 32 33  1  0
 32 34  1  0
 32 35  1  0
 27 36  1  0
 36 37  2  0
  8  3  2  0
 37 11  1  0
 37 15  1  0
 23 18  1  0
M  CHG  3   4  -1   7  -1  26  -1
M  END
>  <UniqueID>  (65) 
56

>  <SMILES>  (65) 
CC/N=c1/nc2c(=Cc3[n-]c(=O)[n-]c3O)cnn2/c(=N/C2CC2)[n-]1

>  <Energy>  (65) 
385.4704238826843

>  <Genealogy>  (65) 
CCN=c1nc2c(=Cc3[n-]c(=O)[n-]c3O)cnn2c(=NC2CC2)[n-]1 (protonated)
CC/N=c1/nc2c(=Cc3[n-]c(=O)[n-]c3O)cnn2/c(=N/C2CC2)[n-]1 (cis-trans isomerization)
CC/N=c1/nc2c(=Cc3[n-]c(=O)[n-]c3O)cnn2/c(=N/C2CC2)[n-]1 (3D coordinates assigned)
CC/N=c1/nc2c(=Cc3[n-]c(=O)[n-]c3O)cnn2/c(=N/C2CC2)[n-]1 (nonaromatic ring conformer: 385.4704238826843 kcal/mol)

>  <smiles>  (65) 
CCN=c1nc2c(=Cc3[nH]c(=O)[nH]c3O)cnn2c(=NC2CC2)[nH]1

>  <score_type>  (65) 
oracle

>  <origin>  (65) 
adg

>  <m_score__min__energy>  (65) 
-13.039999999999999

>  <m_primary>  (65) 
energy

$$$$
65:0
     RDKit          3D

 57 60  0  0  0  0  0  0  0  0999 V2000
   58.7820   34.7710   44.5370 O   0  0  0  0  0  0  0  0  0  0  0  0
   58.5980   33.5980   44.9670 C   0  0  0  0  0  0  0  0  0  0  0  0
   58.0680   32.5720   44.0520 C   0  0  0  0  0  0  0  0  0  0  0  0
   57.8990   32.7020   42.6850 C   0  0  0  0  0  0  0  0  0  0  0  0
   57.3610   31.5050   42.2580 C   0  0  0  0  0  0  0  0  0  0  0  0
   57.2440   30.7220   43.3920 C   0  0  0  0  0  0  0  0  0  0  0  0
   56.6800   29.3410   43.4580 C   0  0  0  0  0  0  0  0  0  0  0  0
   57.0220   28.6170   45.0540 S   0  0  0  0  0  0  0  0  0  0  0  0
   55.9200   27.6540   45.4030 O   0  0  0  0  0  0  0  0  0  0  0  0
   57.0490   29.7230   46.0730 O   0  0  0  0  0  0  0  0  0  0  0  0
   58.5710   27.7960   45.0450 N   0  0  0  0  0  0  0  0  0  0  0  0
   58.9990   27.4690   46.4100 C   0  0  0  0  0  0  0  0  0  0  0  0
   59.9060   28.5850   46.9060 C   0  0  0  0  0  0  0  0  0  0  0  0
   60.2790   29.3870   45.6740 C   0  0  0  0  0  0  0  0  0  0  0  0
   59.6150   28.6720   44.5070 C   0  0  0  0  0  0  0  0  0  0  0  0
   57.6720   31.3820   44.4410 O   0  0  0  0  0  0  0  0  0  0  0  0
   58.9610   33.2480   46.3240 N   0  0  0  0  0  0  0  0  0  0  0  0
   60.0110   34.1660   46.8230 C   0  0  0  0  0  0  0  0  0  0  0  0
   60.0260   34.2840   48.3660 C   0  0  0  0  0  0  0  0  0  0  0  0
   59.5280   33.0650   49.0370 N   0  0  0  0  0  0  0  0  0  0  0  0
   60.4900   31.9420   48.9780 C   0  0  0  0  0  0  0  0  0  0  0  0
   61.8860   32.4520   48.7370 C   0  0  0  0  0  0  0  0  0  0  0  0
   62.4700   32.3270   47.4660 C   0  0  0  0  0  0  0  0  0  0  0  0
   63.7710   32.7870   47.2410 C   0  0  0  0  0  0  0  0  0  0  0  0
   64.4980   33.3720   48.2820 C   0  0  0  0  0  0  0  0  0  0  0  0
   63.9250   33.4940   49.5510 C   0  0  0  0  0  0  0  0  0  0  0  0
   62.6250   33.0360   49.7800 C   0  0  0  0  0  0  0  0  0  0  0  0
   58.1560   32.6920   48.6000 C   0  0  0  0  0  0  0  0  0  0  0  0
   57.7820   33.2410   47.2080 C   0  0  0  0  0  0  0  0  0  0  0  0
   58.1430   33.5782   42.0664 H   0  0  0  0  0  0  0  0  0  0  0  0
   57.0831   31.2307   41.2296 H   0  0  0  0  0  0  0  0  0  0  0  0
   55.5918   29.3842   43.3033 H   0  0  0  0  0  0  0  0  0  0  0  0
   57.1441   28.7237   42.6747 H   0  0  0  0  0  0  0  0  0  0  0  0
   58.1197   27.3852   47.0656 H   0  0  0  0  0  0  0  0  0  0  0  0
   59.5380   26.5101   46.4189 H   0  0  0  0  0  0  0  0  0  0  0  0
   59.3734   29.2192   47.6300 H   0  0  0  0  0  0  0  0  0  0  0  0
   60.7954   28.1888   47.4178 H   0  0  0  0  0  0  0  0  0  0  0  0
   59.9030   30.4174   45.7577 H   0  0  0  0  0  0  0  0  0  0  0  0
   61.3694   29.4532   45.5449 H   0  0  0  0  0  0  0  0  0  0  0  0
   59.1679   29.4090   43.8237 H   0  0  0  0  0  0  0  0  0  0  0  0
   60.3572   28.0824   43.9489 H   0  0  0  0  0  0  0  0  0  0  0  0
   59.3410   32.2720   46.3120 H   0  0  0  0  0  0  0  0  0  0  0  0
   60.9906   33.7923   46.4903 H   0  0  0  0  0  0  0  0  0  0  0  0
   59.7944   35.1656   46.4182 H   0  0  0  0  0  0  0  0  0  0  0  0
   61.0593   34.4692   48.6946 H   0  0  0  0  0  0  0  0  0  0  0  0
   59.3563   35.1119   48.6420 H   0  0  0  0  0  0  0  0  0  0  0  0
   60.4649   31.3941   49.9315 H   0  0  0  0  0  0  0  0  0  0  0  0
   60.2076   31.2764   48.1490 H   0  0  0  0  0  0  0  0  0  0  0  0
   61.9020   31.8656   46.6447 H   0  0  0  0  0  0  0  0  0  0  0  0
   64.2233   32.6884   46.2432 H   0  0  0  0  0  0  0  0  0  0  0  0
   65.5204   33.7361   48.1025 H   0  0  0  0  0  0  0  0  0  0  0  0
   64.4984   33.9513   50.3708 H   0  0  0  0  0  0  0  0  0  0  0  0
   62.1782   33.1329   50.7805 H   0  0  0  0  0  0  0  0  0  0  0  0
   58.0862   31.5946   48.5715 H   0  0  0  0  0  0  0  0  0  0  0  0
   57.4550   33.1366   49.3217 H   0  0  0  0  0  0  0  0  0  0  0  0
   57.0012   32.6050   46.7655 H   0  0  0  0  0  0  0  0  0  0  0  0
   57.4131   34.2714   47.3185 H   0  0  0  0  0  0  0  0  0  0  0  0
  1  2  2  0
  2  3  1  0
  3  4  2  0
  4  5  1  0
  5  6  2  0
  6  7  1  0
  7  8  1  0
  8  9  2  0
  8 10  2  0
  8 11  1  0
 11 12  1  0
 12 13  1  0
 13 14  1  0
 14 15  1  0
  6 16  1  0
  2 17  1  0
 17 18  1  0
 18 19  1  0
 19 20  1  0
 20 21  1  0
 21 22  1  0
 22 23  2  0
 23 24  1  0
 24 25  2  0
 25 26  1  0
 26 27  2  0
 20 28  1  0
 28 29  1  0
 16  3  1  0
 29 17  1  0
 15 11  1  0
 27 22  1  0
  4 30  1  0
  5 31  1  0
  7 32  1  0
  7 33  1  0
 12 34  1  0
 12 35  1  0
 13 36  1  0
 13 37  1  0
 14 38  1  0
 14 39  1  0
 15 40  1  0
 15 41  1  0
 17 42  1  0
 18 43  1  0
 18 44  1  0
 19 45  1  0
 19 46  1  0
 21 47  1  0
 21 48  1  0
 23 49  1  0
 24 50  1  0
 25 51  1  0
 26 52  1  0
 27 53  1  0
 28 54  1  0
 28 55  1  0
 29 56  1  0
 29 57  1  0
M  CHG  1  17   1
M  END
>  <UniqueID>  (66) 
57

>  <SMILES>  (66) 
O=C(c1ccc(CS(=O)(=O)N2CCCC2)o1)[NH+]1CCN(Cc2ccccc2)CC1

>  <Energy>  (66) 
91.55504454899166

>  <Genealogy>  (66) 
O=C(c1ccc(CS(=O)(=O)N2CCCC2)o1)[NH+]1CCN(Cc2ccccc2)CC1 (protonated)
O=C(c1ccc(CS(=O)(=O)N2CCCC2)o1)[NH+]1CCN(Cc2ccccc2)CC1 (3D coordinates assigned)
O=C(c1ccc(CS(=O)(=O)N2CCCC2)o1)[NH+]1CCN(Cc2ccccc2)CC1 (nonaromatic ring conformer: 91.55504454899166 kcal/mol)

>  <smiles>  (66) 
O=C(c1ccc(CS(=O)(=O)N2CCCC2)o1)N1CCN(Cc2ccccc2)CC1

>  <score_type>  (66) 
oracle

>  <origin>  (66) 
adg

>  <m_score__min__energy>  (66) 
-8.1899999999999995

>  <m_primary>  (66) 
energy

$$$$
66:0
     RDKit          3D

 40 42  0  0  0  0  0  0  0  0999 V2000
   60.6640   35.7969   46.7122 H   0  0  0  0  0  0  0  0  0  0  0  0
   59.8430   35.0810   46.5590 C   0  0  0  0  0  0  0  0  0  0  0  0
   59.2100   34.9350   45.3640 N   0  0  0  0  0  0  0  0  0  0  0  0
   57.2770   23.7680   44.7110 C   0  0  0  0  0  0  0  0  0  0  0  0
   57.7360   24.9880   44.7770 N   0  0  0  0  0  0  0  0  0  0  0  0
   57.6650   32.5180   43.5720 C   0  0  0  0  0  0  0  0  0  0  0  0
   57.7300   32.6680   42.3210 O   0  0  0  0  0  0  0  0  0  0  0  0
   57.7850   31.1610   44.1560 C   0  0  0  0  0  0  0  0  0  0  0  0
   58.9030   30.8160   44.9380 C   0  0  0  0  0  0  0  0  0  0  0  0
   59.6929   31.5600   45.1186 H   0  0  0  0  0  0  0  0  0  0  0  0
   59.0180   29.5360   45.4870 C   0  0  0  0  0  0  0  0  0  0  0  0
   59.8967   29.2805   46.0974 H   0  0  0  0  0  0  0  0  0  0  0  0
   58.0200   28.5740   45.2650 C   0  0  0  0  0  0  0  0  0  0  0  0
   58.1550   27.1900   45.8540 C   0  0  0  0  0  0  0  0  0  0  0  0
   59.1585   26.8029   45.6236 H   0  0  0  0  0  0  0  0  0  0  0  0
   57.9963   27.2672   46.9397 H   0  0  0  0  0  0  0  0  0  0  0  0
   57.1000   26.2100   45.2870 C   0  0  2  0  0  0  0  0  0  0  0  0
   56.6276   26.7474   44.4515 H   0  0  0  0  0  0  0  0  0  0  0  0
   57.4770   33.6530   44.4350 N   0  0  0  0  0  0  0  0  0  0  0  0
   58.2390   33.9950   45.4310 C   0  0  0  0  0  0  0  0  0  0  0  0
   56.9970   23.2320   43.4460 C   0  0  0  0  0  0  0  0  0  0  0  0
   57.1627   23.8364   42.5420 H   0  0  0  0  0  0  0  0  0  0  0  0
   56.5080   21.9310   43.3370 C   0  0  0  0  0  0  0  0  0  0  0  0
   56.2886   21.5059   42.3465 H   0  0  0  0  0  0  0  0  0  0  0  0
   56.2980   21.1710   44.4840 C   0  0  0  0  0  0  0  0  0  0  0  0
   55.9134   20.1432   44.4077 H   0  0  0  0  0  0  0  0  0  0  0  0
   56.5810   21.7280   45.7320 C   0  0  0  0  0  0  0  0  0  0  0  0
   56.4180   21.1358   46.6445 H   0  0  0  0  0  0  0  0  0  0  0  0
   57.0580   23.0010   45.8270 N   0  0  0  0  0  0  0  0  0  0  0  0
   57.2380   23.3620   46.7840 H   0  0  0  0  0  0  0  0  0  0  0  0
   55.9680   25.8850   46.2290 C   0  0  0  0  0  0  0  0  0  0  0  0
   56.1940   25.1910   47.2550 O   0  0  0  0  0  0  0  0  0  0  0  0
   54.6750   26.3380   45.9890 O   0  0  0  0  0  0  0  0  0  0  0  0
   56.9010   28.9160   44.4910 C   0  0  0  0  0  0  0  0  0  0  0  0
   56.1096   28.1723   44.3164 H   0  0  0  0  0  0  0  0  0  0  0  0
   56.7850   30.1960   43.9400 C   0  0  0  0  0  0  0  0  0  0  0  0
   55.9040   30.4503   43.3324 H   0  0  0  0  0  0  0  0  0  0  0  0
   58.1220   33.3080   46.9610 S   0  0  0  0  0  0  0  0  0  0  0  0
   59.3710   34.2550   47.5700 C   0  0  0  0  0  0  0  0  0  0  0  0
   60.0230   34.1950   49.3610 Br  0  0  0  0  0  0  0  0  0  0  0  0
  1  2  1  0
  2  3  1  0
  3  4  1  0
  4  5  2  0
  5  6  1  0
  6  7  2  0
  6  8  1  0
  8  9  2  0
  9 10  1  0
  9 11  1  0
 11 12  1  0
 11 13  2  0
 13 14  1  0
 14 15  1  0
 14 16  1  0
 14 17  1  0
 17 18  1  1
 17 19  1  0
 19 20  2  0
 20 21  1  0
 21 22  1  0
 21 23  2  0
 23 24  1  0
 23 25  1  0
 25 26  1  0
 25 27  2  0
 27 28  1  0
 27 29  1  0
 29 30  1  0
 17 31  1  0
 31 32  2  0
 31 33  1  0
 13 34  1  0
 34 35  1  0
 34 36  2  0
 36 37  1  0
  4 38  1  0
 38 39  1  0
 39 40  1  0
 39  2  2  0
 36  8  1  0
 29 20  1  0
M  CHG  2   3  -1  33  -1
M  END
>  <UniqueID>  (67) 
58

>  <SMILES>  (67) 
O=C(/N=c1\[n-]cc(Br)s1)c1ccc(C[C@@H](/N=c2/cccc[nH]2)C(=O)[O-])cc1

>  <Energy>  (67) 
80.39675316832277

>  <Genealogy>  (67) 
O=C(N=c1[n-]cc(Br)s1)c1ccc(CC(N=c2cccc[nH]2)C(=O)[O-])cc1 (protonated)
O=C(N=c1[n-]cc(Br)s1)c1ccc(C[C@@H](N=c2cccc[nH]2)C(=O)[O-])cc1 (chirality)
O=C(/N=c1\[n-]cc(Br)s1)c1ccc(C[C@@H](/N=c2/cccc[nH]2)C(=O)[O-])cc1 (cis-trans isomerization)
O=C(/N=c1\[n-]cc(Br)s1)c1ccc(C[C@@H](/N=c2/cccc[nH]2)C(=O)[O-])cc1 (3D coordinates assigned)
O=C(/N=c1\[n-]cc(Br)s1)c1ccc(C[C@@H](/N=c2/cccc[nH]2)C(=O)[O-])cc1 (optimized conformer: 80.39675316832277 kcal/mol)

>  <smiles>  (67) 
O=C(N=c1[nH]cc(Br)s1)c1ccc(CC(N=c2cccc[nH]2)C(=O)O)cc1

>  <score_type>  (67) 
oracle

>  <origin>  (67) 
adg

>  <m_score__min__energy>  (67) 
-12.779999999999999

>  <m_primary>  (67) 
energy

$$$$
67:0
     RDKit          3D

 53 56  0  0  0  0  0  0  0  0999 V2000
   59.4570   27.7360   47.0530 C   0  0  0  0  0  0  0  0  0  0  0  0
   57.9950   28.1420   46.8740 C   0  0  0  0  0  0  0  0  0  0  0  0
   57.4410   27.6410   45.6020 N   0  0  0  0  0  0  0  0  0  0  0  0
   57.4910   28.4620   44.3800 C   0  0  0  0  0  0  0  0  0  0  0  0
   57.4210   29.9360   44.6710 C   0  0  0  0  0  0  0  0  0  0  0  0
   56.2900   30.4720   44.8170 O   0  0  0  0  0  0  0  0  0  0  0  0
   58.6190   30.7020   44.8720 N   0  0  0  0  0  0  0  0  0  0  0  0
   58.6180   32.0060   45.4750 C   0  0  0  0  0  0  0  0  0  0  0  0
   57.7170   32.9630   44.9840 C   0  0  0  0  0  0  0  0  0  0  0  0
   57.6790   34.2490   45.5230 C   0  0  0  0  0  0  0  0  0  0  0  0
   58.5280   34.5890   46.5750 C   0  0  0  0  0  0  0  0  0  0  0  0
   59.4130   33.6420   47.0950 C   0  0  0  0  0  0  0  0  0  0  0  0
   59.4770   32.3440   46.5540 C   0  0  0  0  0  0  0  0  0  0  0  0
   60.3740   31.3460   47.1850 C   0  0  0  0  0  0  0  0  0  0  0  0
   60.8890   30.4450   46.4730 O   0  0  0  0  0  0  0  0  0  0  0  0
   60.6040   31.3070   48.6010 N   0  0  0  0  0  0  0  0  0  0  0  0
   59.6380   31.4660   49.6510 C   0  0  0  0  0  0  0  0  0  0  0  0
   59.4880   32.7430   50.2420 C   0  0  0  0  0  0  0  0  0  0  0  0
   58.5390   32.9560   51.2580 C   0  0  0  0  0  0  0  0  0  0  0  0
   57.7490   31.8790   51.6460 C   0  0  0  0  0  0  0  0  0  0  0  0
   57.8740   30.6560   51.0740 C   0  0  0  0  0  0  0  0  0  0  0  0
   58.8000   30.4030   50.0660 C   0  0  0  0  0  0  0  0  0  0  0  0
   56.9640   29.7860   51.6430 O   0  0  0  0  0  0  0  0  0  0  0  0
   56.2230   30.5080   52.6360 C   0  0  0  0  0  0  0  0  0  0  0  0
   56.7560   31.8390   52.6060 O   0  0  0  0  0  0  0  0  0  0  0  0
   57.0990   26.2450   45.4840 C   0  0  0  0  0  0  0  0  0  0  0  0
   58.0880   25.3000   45.1570 C   0  0  0  0  0  0  0  0  0  0  0  0
   57.7600   23.9470   45.0300 C   0  0  0  0  0  0  0  0  0  0  0  0
   56.4450   23.5240   45.2300 C   0  0  0  0  0  0  0  0  0  0  0  0
   55.4550   24.4530   45.5600 C   0  0  0  0  0  0  0  0  0  0  0  0
   55.7760   25.8080   45.6910 C   0  0  0  0  0  0  0  0  0  0  0  0
   54.7780   26.7110   46.0370 O   0  0  0  0  0  0  0  0  0  0  0  0
   59.6908   27.6711   48.1259 H   0  0  0  0  0  0  0  0  0  0  0  0
   59.6261   26.7569   46.5810 H   0  0  0  0  0  0  0  0  0  0  0  0
   60.1067   28.4877   46.5810 H   0  0  0  0  0  0  0  0  0  0  0  0
   57.4060   27.7293   47.7064 H   0  0  0  0  0  0  0  0  0  0  0  0
   57.9436   29.2407   46.8611 H   0  0  0  0  0  0  0  0  0  0  0  0
   58.4328   28.2513   43.8522 H   0  0  0  0  0  0  0  0  0  0  0  0
   56.6157   28.2012   43.7670 H   0  0  0  0  0  0  0  0  0  0  0  0
   59.5330   30.2010   44.8180 H   0  0  0  0  0  0  0  0  0  0  0  0
   57.0330   32.6962   44.1649 H   0  0  0  0  0  0  0  0  0  0  0  0
   56.9791   34.9947   45.1179 H   0  0  0  0  0  0  0  0  0  0  0  0
   58.5009   35.6048   46.9962 H   0  0  0  0  0  0  0  0  0  0  0  0
   60.0673   33.9134   47.9366 H   0  0  0  0  0  0  0  0  0  0  0  0
   60.1199   33.5773   49.9034 H   0  0  0  0  0  0  0  0  0  0  0  0
   58.4252   33.9428   51.7306 H   0  0  0  0  0  0  0  0  0  0  0  0
   58.8783   29.4070   49.6057 H   0  0  0  0  0  0  0  0  0  0  0  0
   55.1513   30.5156   52.3883 H   0  0  0  0  0  0  0  0  0  0  0  0
   56.3142   30.0500   53.6320 H   0  0  0  0  0  0  0  0  0  0  0  0
   59.1263   25.6276   45.0002 H   0  0  0  0  0  0  0  0  0  0  0  0
   58.5393   23.2148   44.7721 H   0  0  0  0  0  0  0  0  0  0  0  0
   56.1881   22.4593   45.1278 H   0  0  0  0  0  0  0  0  0  0  0  0
   54.4193   24.1175   45.7174 H   0  0  0  0  0  0  0  0  0  0  0  0
  1  2  1  0
  2  3  1  0
  3  4  1  0
  4  5  1  0
  5  6  2  0
  5  7  1  0
  7  8  1  0
  8  9  2  0
  9 10  1  0
 10 11  2  0
 11 12  1  0
 12 13  2  0
 13 14  1  0
 14 15  2  0
 14 16  1  0
 16 17  1  0
 17 18  2  0
 18 19  1  0
 19 20  2  0
 20 21  1  0
 21 22  2  0
 21 23  1  0
 23 24  1  0
 24 25  1  0
  3 26  1  0
 26 27  2  0
 27 28  1  0
 28 29  2  0
 29 30  1  0
 30 31  2  0
 31 32  1  0
 13  8  1  0
 22 17  1  0
 31 26  1  0
 25 20  1  0
  1 33  1  0
  1 34  1  0
  1 35  1  0
  2 36  1  0
  2 37  1  0
  4 38  1  0
  4 39  1  0
  7 40  1  0
  9 41  1  0
 10 42  1  0
 11 43  1  0
 12 44  1  0
 18 45  1  0
 19 46  1  0
 22 47  1  0
 24 48  1  0
 24 49  1  0
 27 50  1  0
 28 51  1  0
 29 52  1  0
 30 53  1  0
M  CHG  2  16  -1  32  -1
M  END
>  <UniqueID>  (68) 
59

>  <SMILES>  (68) 
CCN(CC(=O)Nc1ccccc1C(=O)[N-]c1ccc2c(c1)OCO2)c1ccccc1[O-]

>  <Energy>  (68) 
101.07597516474617

>  <Genealogy>  (68) 
CCN(CC(=O)Nc1ccccc1C(=O)[N-]c1ccc2c(c1)OCO2)c1ccccc1[O-] (protonated)
CCN(CC(=O)Nc1ccccc1C(=O)[N-]c1ccc2c(c1)OCO2)c1ccccc1[O-] (3D coordinates assigned)
CCN(CC(=O)Nc1ccccc1C(=O)[N-]c1ccc2c(c1)OCO2)c1ccccc1[O-] (nonaromatic ring conformer: 101.07597516474617 kcal/mol)

>  <smiles>  (68) 
CCN(CC(=O)Nc1ccccc1C(=O)Nc1ccc2c(c1)OCO2)c1ccccc1O

>  <score_type>  (68) 
oracle

>  <origin>  (68) 
adg

>  <m_score__min__energy>  (68) 
-13.76

>  <m_primary>  (68) 
energy

$$$$
68:0
     RDKit          3D

 34 35  0  0  0  0  0  0  0  0999 V2000
   63.4220   31.9630   48.7130 C   0  0  0  0  0  0  0  0  0  0  0  0
   63.1560   32.3820   47.4730 C   0  0  0  0  0  0  0  0  0  0  0  0
   63.1500   33.8400   47.1240 C   0  0  0  0  0  0  0  0  0  0  0  0
   61.8830   34.1900   46.4910 N   0  0  0  0  0  0  0  0  0  0  0  0
   60.5950   33.9950   47.0880 C   0  0  0  0  0  0  0  0  0  0  0  0
   60.3900   34.4380   48.2490 O   0  0  0  0  0  0  0  0  0  0  0  0
   59.5200   33.2550   46.4010 C   0  0  0  0  0  0  0  0  0  0  0  0
   59.3260   31.8910   46.6700 C   0  0  0  0  0  0  0  0  0  0  0  0
   58.3270   31.1780   46.0030 C   0  0  0  0  0  0  0  0  0  0  0  0
   57.5140   31.8150   45.0590 C   0  0  0  0  0  0  0  0  0  0  0  0
   56.5270   31.0510   44.3570 N   0  0  0  0  0  0  0  0  0  0  0  0
   56.2080   29.6720   44.5930 C   0  0  0  0  0  0  0  0  0  0  0  0
   55.1180   29.3920   45.1570 O   0  0  0  0  0  0  0  0  0  0  0  0
   57.1440   28.5470   44.2260 C   0  0  0  0  0  0  0  0  0  0  0  0
   57.4120   27.6360   45.3900 C   0  0  0  0  0  0  0  0  0  0  0  0
   58.8930   27.4690   46.1810 S   0  0  0  0  0  0  0  0  0  0  0  0
   58.2780   26.3450   47.2690 C   0  0  0  0  0  0  0  0  0  0  0  0
   58.9530   25.7960   48.1790 O   0  0  0  0  0  0  0  0  0  0  0  0
   56.9690   26.0870   47.0680 N   0  0  0  0  0  0  0  0  0  0  0  0
   56.4850   26.8110   46.0260 C   0  0  0  0  0  0  0  0  0  0  0  0
   55.1540   26.7230   45.6360 O   0  0  0  0  0  0  0  0  0  0  0  0
   57.6600   33.1930   44.8400 C   0  0  0  0  0  0  0  0  0  0  0  0
   58.6600   33.9080   45.5040 C   0  0  0  0  0  0  0  0  0  0  0  0
   63.4199   30.8872   48.9423 H   0  0  0  0  0  0  0  0  0  0  0  0
   63.6432   32.6937   49.5049 H   0  0  0  0  0  0  0  0  0  0  0  0
   62.9364   31.6408   46.6904 H   0  0  0  0  0  0  0  0  0  0  0  0
   63.2777   34.4355   48.0400 H   0  0  0  0  0  0  0  0  0  0  0  0
   63.9750   34.0508   46.4277 H   0  0  0  0  0  0  0  0  0  0  0  0
   59.9628   31.3819   47.4085 H   0  0  0  0  0  0  0  0  0  0  0  0
   58.1787   30.1101   46.2210 H   0  0  0  0  0  0  0  0  0  0  0  0
   56.6924   27.9603   43.4124 H   0  0  0  0  0  0  0  0  0  0  0  0
   58.1013   28.9896   43.9133 H   0  0  0  0  0  0  0  0  0  0  0  0
   56.9852   33.7121   44.1435 H   0  0  0  0  0  0  0  0  0  0  0  0
   58.7739   34.9870   45.3231 H   0  0  0  0  0  0  0  0  0  0  0  0
  1  2  2  0
  2  3  1  0
  3  4  1  0
  4  5  1  0
  5  6  2  0
  5  7  1  0
  7  8  2  0
  8  9  1  0
  9 10  2  0
 10 11  1  0
 11 12  1  0
 12 13  2  0
 12 14  1  0
 14 15  1  0
 15 16  1  0
 16 17  1  0
 17 18  2  0
 17 19  1  0
 19 20  1  0
 20 21  1  0
 10 22  1  0
 22 23  2  0
 23  7  1  0
 20 15  2  0
  1 24  1  0
  1 25  1  0
  2 26  1  0
  3 27  1  0
  3 28  1  0
  8 29  1  0
  9 30  1  0
 14 31  1  0
 14 32  1  0
 22 33  1  0
 23 34  1  0
M  CHG  4   4  -1  11  -1  19  -1  21  -1
M  END
>  <UniqueID>  (69) 
60

>  <SMILES>  (69) 
C=CC[N-]C(=O)c1ccc([N-]C(=O)Cc2sc(=O)[n-]c2[O-])cc1

>  <Energy>  (69) 
67.91492027171962

>  <Genealogy>  (69) 
C=CC[N-]C(=O)c1ccc([N-]C(=O)Cc2sc(=O)[n-]c2[O-])cc1 (protonated)
C=CC[N-]C(=O)c1ccc([N-]C(=O)Cc2sc(=O)[n-]c2[O-])cc1 (3D coordinates assigned)
C=CC[N-]C(=O)c1ccc([N-]C(=O)Cc2sc(=O)[n-]c2[O-])cc1 (optimized conformer: 67.91492027171962 kcal/mol)

>  <smiles>  (69) 
C=CCNC(=O)c1ccc(NC(=O)Cc2sc(=O)[nH]c2O)cc1

>  <score_type>  (69) 
oracle

>  <origin>  (69) 
adg

>  <m_score__min__energy>  (69) 
-15.539999999999999

>  <m_primary>  (69) 
energy

$$$$
69:0
     RDKit          3D

 54 57  0  0  0  0  0  0  0  0999 V2000
   57.2960   25.2930   45.1030 C   0  0  0  0  0  0  0  0  0  0  0  0
   56.3490   25.9400   46.0990 C   0  0  0  0  0  0  0  0  0  0  0  0
   56.4130   27.3550   45.9650 O   0  0  0  0  0  0  0  0  0  0  0  0
   57.6070   28.0760   46.0720 C   0  0  0  0  0  0  0  0  0  0  0  0
   58.1700   28.2940   47.2950 N   0  0  0  0  0  0  0  0  0  0  0  0
   59.3370   28.9740   47.4390 C   0  0  0  0  0  0  0  0  0  0  0  0
   59.9960   29.4760   46.3170 C   0  0  0  0  0  0  0  0  0  0  0  0
   59.4470   29.2690   45.0510 C   0  0  0  0  0  0  0  0  0  0  0  0
   58.2450   28.5590   44.9110 C   0  0  0  0  0  0  0  0  0  0  0  0
   57.6740   28.2940   43.5360 C   0  0  0  0  0  0  0  0  0  0  0  0
   57.0140   29.4900   43.0220 N   0  0  0  0  0  0  0  0  0  0  0  0
   56.5440   30.5310   43.8780 C   0  0  0  0  0  0  0  0  0  0  0  0
   55.7780   30.2640   44.8430 O   0  0  0  0  0  0  0  0  0  0  0  0
   57.0210   31.8640   43.6860 N   0  0  0  0  0  0  0  0  0  0  0  0
   57.8110   32.5540   44.6750 C   0  0  0  0  0  0  0  0  0  0  0  0
   57.7440   32.2200   46.0430 C   0  0  0  0  0  0  0  0  0  0  0  0
   58.5740   32.8530   46.9680 C   0  0  0  0  0  0  0  0  0  0  0  0
   59.5100   33.8100   46.5430 C   0  0  0  0  0  0  0  0  0  0  0  0
   60.4070   34.4390   47.4680 N   0  0  0  0  0  0  0  0  0  0  0  0
   60.9260   33.8210   48.6520 C   0  0  0  0  0  0  0  0  0  0  0  0
   62.1290   34.0150   48.9660 O   0  0  0  0  0  0  0  0  0  0  0  0
   60.1050   32.9720   49.4680 N   0  0  0  0  0  0  0  0  0  0  0  0
   59.1630   33.4620   50.4780 C   0  0  0  0  0  0  0  0  0  0  0  0
   58.5320   32.2170   50.9760 C   0  0  0  0  0  0  0  0  0  0  0  0
   57.5880   32.0780   51.9910 C   0  0  0  0  0  0  0  0  0  0  0  0
   57.1560   30.7810   52.3070 C   0  0  0  0  0  0  0  0  0  0  0  0
   57.6540   29.7030   51.6280 N   0  0  0  0  0  0  0  0  0  0  0  0
   58.5740   29.8430   50.6310 C   0  0  0  0  0  0  0  0  0  0  0  0
   59.0190   31.1230   50.3040 C   0  0  0  0  0  0  0  0  0  0  0  0
   60.0200   31.5220   49.2870 C   0  0  0  0  0  0  0  0  0  0  0  0
   59.5570   34.1690   45.1910 C   0  0  0  0  0  0  0  0  0  0  0  0
   58.7190   33.5410   44.2630 C   0  0  0  0  0  0  0  0  0  0  0  0
   58.0861   24.7532   45.6456 H   0  0  0  0  0  0  0  0  0  0  0  0
   56.7372   24.5870   44.4711 H   0  0  0  0  0  0  0  0  0  0  0  0
   57.7505   26.0702   44.4711 H   0  0  0  0  0  0  0  0  0  0  0  0
   55.3217   25.5993   45.9026 H   0  0  0  0  0  0  0  0  0  0  0  0
   56.6411   25.6552   47.1205 H   0  0  0  0  0  0  0  0  0  0  0  0
   59.7627   29.1289   48.4414 H   0  0  0  0  0  0  0  0  0  0  0  0
   60.9397   30.0299   46.4291 H   0  0  0  0  0  0  0  0  0  0  0  0
   59.9580   29.6635   44.1603 H   0  0  0  0  0  0  0  0  0  0  0  0
   58.4882   28.0075   42.8541 H   0  0  0  0  0  0  0  0  0  0  0  0
   56.9367   27.4806   43.6056 H   0  0  0  0  0  0  0  0  0  0  0  0
   57.0140   32.2350   42.7100 H   0  0  0  0  0  0  0  0  0  0  0  0
   57.0316   31.4542   46.3835 H   0  0  0  0  0  0  0  0  0  0  0  0
   58.4951   32.6014   48.0359 H   0  0  0  0  0  0  0  0  0  0  0  0
   59.6895   33.9895   51.2870 H   0  0  0  0  0  0  0  0  0  0  0  0
   58.4376   34.1866   50.0794 H   0  0  0  0  0  0  0  0  0  0  0  0
   57.1948   32.9549   52.5263 H   0  0  0  0  0  0  0  0  0  0  0  0
   56.4134   30.6304   53.1044 H   0  0  0  0  0  0  0  0  0  0  0  0
   58.9577   28.9624   50.0949 H   0  0  0  0  0  0  0  0  0  0  0  0
   60.9910   31.0413   49.4767 H   0  0  0  0  0  0  0  0  0  0  0  0
   59.7439   31.2260   48.2642 H   0  0  0  0  0  0  0  0  0  0  0  0
   60.2565   34.9491   44.8562 H   0  0  0  0  0  0  0  0  0  0  0  0
   58.7726   33.8236   43.2013 H   0  0  0  0  0  0  0  0  0  0  0  0
  1  2  1  0
  2  3  1  0
  3  4  1  0
  4  5  2  0
  5  6  1  0
  6  7  2  0
  7  8  1  0
  8  9  2  0
  9 10  1  0
 10 11  1  0
 11 12  1  0
 12 13  2  0
 12 14  1  0
 14 15  1  0
 15 16  2  0
 16 17  1  0
 17 18  2  0
 18 19  1  0
 19 20  1  0
 20 21  2  0
 20 22  1  0
 22 23  1  0
 23 24  1  0
 24 25  2  0
 25 26  1  0
 26 27  2  0
 27 28  1  0
 28 29  2  0
 29 30  1  0
 18 31  1  0
 31 32  2  0
  9  4  1  0
 32 15  1  0
 30 22  1  0
 29 24  1  0
  1 33  1  0
  1 34  1  0
  1 35  1  0
  2 36  1  0
  2 37  1  0
  6 38  1  0
  7 39  1  0
  8 40  1  0
 10 41  1  0
 10 42  1  0
 14 43  1  0
 16 44  1  0
 17 45  1  0
 23 46  1  0
 23 47  1  0
 25 48  1  0
 26 49  1  0
 28 50  1  0
 30 51  1  0
 30 52  1  0
 31 53  1  0
 32 54  1  0
M  CHG  2  11  -1  19  -1
M  END
>  <UniqueID>  (70) 
61

>  <SMILES>  (70) 
CCOc1ncccc1C[N-]C(=O)Nc1ccc([N-]C(=O)N2Cc3ccncc3C2)cc1

>  <Energy>  (70) 
71.17426926689976

>  <Genealogy>  (70) 
CCOc1ncccc1C[N-]C(=O)Nc1ccc([N-]C(=O)N2Cc3ccncc3C2)cc1 (protonated)
CCOc1ncccc1C[N-]C(=O)Nc1ccc([N-]C(=O)N2Cc3ccncc3C2)cc1 (3D coordinates assigned)
CCOc1ncccc1C[N-]C(=O)Nc1ccc([N-]C(=O)N2Cc3ccncc3C2)cc1 (nonaromatic ring conformer: 71.17426926689976 kcal/mol)

>  <smiles>  (70) 
CCOc1ncccc1CNC(=O)Nc1ccc(NC(=O)N2Cc3ccncc3C2)cc1

>  <score_type>  (70) 
oracle

>  <origin>  (70) 
adg

>  <m_score__min__energy>  (70) 
-11.539999999999999

>  <m_primary>  (70) 
energy

$$$$
70:0
     RDKit          3D

 63 66  0  0  0  0  0  0  0  0999 V2000
   59.6700   33.9310   50.1660 C   0  0  0  0  0  0  0  0  0  0  0  0
   60.1250   32.7420   49.3700 C   0  0  0  0  0  0  0  0  0  0  0  0
   60.1240   31.5370   50.0030 N   0  0  0  0  0  0  0  0  0  0  0  0
   60.5010   30.3810   49.3950 C   0  0  0  0  0  0  0  0  0  0  0  0
   60.4070   29.1550   50.0620 O   0  0  0  0  0  0  0  0  0  0  0  0
   59.8600   29.0080   51.3420 C   0  0  0  0  0  0  0  0  0  0  0  0
   60.6130   28.4680   52.3970 C   0  0  0  0  0  0  0  0  0  0  0  0
   60.0540   28.3490   53.6700 C   0  0  0  0  0  0  0  0  0  0  0  0
   58.7430   28.7720   53.9020 C   0  0  0  0  0  0  0  0  0  0  0  0
   57.9750   29.3100   52.8570 C   0  0  0  0  0  0  0  0  0  0  0  0
   56.6450   29.7960   53.1200 N   0  0  0  0  0  0  0  0  0  0  0  0
   55.6200   28.8750   53.6140 C   0  0  0  0  0  0  0  0  0  0  0  0
   56.2900   31.1860   52.8240 C   0  0  0  0  0  0  0  0  0  0  0  0
   58.5340   29.4060   51.5680 C   0  0  0  0  0  0  0  0  0  0  0  0
   57.7840   29.9090   50.5110 O   0  0  0  0  0  0  0  0  0  0  0  0
   60.9330   30.4120   48.0730 C   0  0  0  0  0  0  0  0  0  0  0  0
   60.9400   31.6240   47.3850 C   0  0  0  0  0  0  0  0  0  0  0  0
   60.5030   32.8080   48.0040 C   0  0  0  0  0  0  0  0  0  0  0  0
   60.5070   34.0910   47.1860 C   0  0  0  0  0  0  0  0  0  0  0  0
   59.1760   34.4980   46.6740 N   0  0  0  0  0  0  0  0  0  0  0  0
   59.1090   34.9120   45.2600 C   0  0  0  0  0  0  0  0  0  0  0  0
   58.8100   33.7370   44.2980 C   0  0  0  0  0  0  0  0  0  0  0  0
   58.3590   32.5210   45.0050 N   0  0  0  0  0  0  0  0  0  0  0  0
   57.8040   31.5420   44.0430 C   0  0  0  0  0  0  0  0  0  0  0  0
   57.8490   30.1510   44.6190 C   0  0  0  0  0  0  0  0  0  0  0  0
   59.0780   29.5840   44.9960 C   0  0  0  0  0  0  0  0  0  0  0  0
   59.1220   28.3200   45.5900 C   0  0  0  0  0  0  0  0  0  0  0  0
   57.9400   27.6060   45.8030 C   0  0  0  0  0  0  0  0  0  0  0  0
   56.7140   28.1530   45.4160 C   0  0  0  0  0  0  0  0  0  0  0  0
   55.5390   27.4390   45.6250 O   0  0  0  0  0  0  0  0  0  0  0  0
   56.6660   29.4190   44.8210 C   0  0  0  0  0  0  0  0  0  0  0  0
   57.3640   32.8780   46.0310 C   0  0  0  0  0  0  0  0  0  0  0  0
   58.0200   33.7100   47.1450 C   0  0  0  0  0  0  0  0  0  0  0  0
   59.7554   33.7079   51.2397 H   0  0  0  0  0  0  0  0  0  0  0  0
   60.2995   34.7991   49.9207 H   0  0  0  0  0  0  0  0  0  0  0  0
   58.6218   34.1571   49.9207 H   0  0  0  0  0  0  0  0  0  0  0  0
   61.6471   28.1376   52.2194 H   0  0  0  0  0  0  0  0  0  0  0  0
   60.6466   27.9214   54.4922 H   0  0  0  0  0  0  0  0  0  0  0  0
   58.3099   28.6831   54.9092 H   0  0  0  0  0  0  0  0  0  0  0  0
   55.6236   28.8782   54.7140 H   0  0  0  0  0  0  0  0  0  0  0  0
   54.6328   29.1954   53.2496 H   0  0  0  0  0  0  0  0  0  0  0  0
   55.8334   27.8593   53.2496 H   0  0  0  0  0  0  0  0  0  0  0  0
   56.1493   31.7370   53.7656 H   0  0  0  0  0  0  0  0  0  0  0  0
   57.0973   31.6547   52.2421 H   0  0  0  0  0  0  0  0  0  0  0  0
   55.3569   31.2102   52.2421 H   0  0  0  0  0  0  0  0  0  0  0  0
   61.2658   29.4890   47.5756 H   0  0  0  0  0  0  0  0  0  0  0  0
   61.2923   31.6545   46.3434 H   0  0  0  0  0  0  0  0  0  0  0  0
   60.8936   34.9019   47.8207 H   0  0  0  0  0  0  0  0  0  0  0  0
   61.1357   33.8979   46.3043 H   0  0  0  0  0  0  0  0  0  0  0  0
   58.3133   35.6639   45.1525 H   0  0  0  0  0  0  0  0  0  0  0  0
   60.0957   35.3156   44.9888 H   0  0  0  0  0  0  0  0  0  0  0  0
   58.0222   34.0486   43.5964 H   0  0  0  0  0  0  0  0  0  0  0  0
   59.7458   33.4894   43.7756 H   0  0  0  0  0  0  0  0  0  0  0  0
   56.7603   31.8071   43.8186 H   0  0  0  0  0  0  0  0  0  0  0  0
   58.4078   31.5656   43.1239 H   0  0  0  0  0  0  0  0  0  0  0  0
   60.0118   30.1389   44.8224 H   0  0  0  0  0  0  0  0  0  0  0  0
   60.0876   27.8869   45.8901 H   0  0  0  0  0  0  0  0  0  0  0  0
   57.9747   26.6132   46.2754 H   0  0  0  0  0  0  0  0  0  0  0  0
   55.6995   29.8425   44.5105 H   0  0  0  0  0  0  0  0  0  0  0  0
   56.5584   33.4653   45.5662 H   0  0  0  0  0  0  0  0  0  0  0  0
   56.9543   31.9554   46.4680 H   0  0  0  0  0  0  0  0  0  0  0  0
   57.2686   34.4011   47.5546 H   0  0  0  0  0  0  0  0  0  0  0  0
   58.3901   33.0066   47.9055 H   0  0  0  0  0  0  0  0  0  0  0  0
  1  2  1  0
  2  3  2  0
  3  4  1  0
  4  5  1  0
  5  6  1  0
  6  7  2  0
  7  8  1  0
  8  9  2  0
  9 10  1  0
 10 11  1  0
 11 12  1  0
 11 13  1  0
 10 14  2  0
 14 15  1  0
  4 16  2  0
 16 17  1  0
 17 18  2  0
 18 19  1  0
 19 20  1  0
 20 21  1  0
 21 22  1  0
 22 23  1  0
 23 24  1  0
 24 25  1  0
 25 26  2  0
 26 27  1  0
 27 28  2  0
 28 29  1  0
 29 30  1  0
 29 31  2  0
 23 32  1  0
 32 33  1  0
 18  2  1  0
 33 20  1  0
 14  6  1  0
 31 25  1  0
  1 34  1  0
  1 35  1  0
  1 36  1  0
  7 37  1  0
  8 38  1  0
  9 39  1  0
 12 40  1  0
 12 41  1  0
 12 42  1  0
 13 43  1  0
 13 44  1  0
 13 45  1  0
 16 46  1  0
 17 47  1  0
 19 48  1  0
 19 49  1  0
 21 50  1  0
 21 51  1  0
 22 52  1  0
 22 53  1  0
 24 54  1  0
 24 55  1  0
 26 56  1  0
 27 57  1  0
 28 58  1  0
 31 59  1  0
 32 60  1  0
 32 61  1  0
 33 62  1  0
 33 63  1  0
M  CHG  2  15  -1  30  -1
M  END
>  <UniqueID>  (71) 
62

>  <SMILES>  (71) 
Cc1nc(Oc2cccc(N(C)C)c2[O-])ccc1CN1CCN(Cc2cccc([O-])c2)CC1

>  <Energy>  (71) 
87.44355969474009

>  <Genealogy>  (71) 
Cc1nc(Oc2cccc(N(C)C)c2[O-])ccc1CN1CCN(Cc2cccc([O-])c2)CC1 (protonated)
Cc1nc(Oc2cccc(N(C)C)c2[O-])ccc1CN1CCN(Cc2cccc([O-])c2)CC1 (3D coordinates assigned)
Cc1nc(Oc2cccc(N(C)C)c2[O-])ccc1CN1CCN(Cc2cccc([O-])c2)CC1 (nonaromatic ring conformer: 87.44355969474009 kcal/mol)

>  <smiles>  (71) 
Cc1nc(Oc2cccc(N(C)C)c2O)ccc1CN1CCN(Cc2cccc(O)c2)CC1

>  <score_type>  (71) 
oracle

>  <origin>  (71) 
adg

>  <m_score__min__energy>  (71) 
-16.02

>  <m_primary>  (71) 
energy

$$$$
71:0
     RDKit          3D

 29 30  0  0  0  0  0  0  0  0999 V2000
   52.6190   22.4720   45.3010 N   0  0  0  0  0  0  0  0  0  0  0  0
   53.2200   23.7590   45.4220 C   0  0  0  0  0  0  0  0  0  0  0  0
   52.5390   24.7890   45.1700 O   0  0  0  0  0  0  0  0  0  0  0  0
   54.6230   23.8910   45.8430 C   0  0  0  0  0  0  0  0  0  0  0  0
   55.5170   22.8530   46.0520 C   0  0  0  0  0  0  0  0  0  0  0  0
   56.7090   23.4500   46.4130 C   0  0  0  0  0  0  0  0  0  0  0  0
   57.8780   22.7620   46.7190 O   0  0  0  0  0  0  0  0  0  0  0  0
   56.5970   24.7940   46.4270 N   0  0  0  0  0  0  0  0  0  0  0  0
   57.6480   25.7630   46.7460 C   0  0  0  0  0  0  0  0  0  0  0  0
   57.6760   26.8840   45.7380 C   0  0  0  0  0  0  0  0  0  0  0  0
   57.7160   26.6030   44.5120 O   0  0  0  0  0  0  0  0  0  0  0  0
   57.6230   28.2620   46.1300 N   0  0  0  0  0  0  0  0  0  0  0  0
   57.5320   29.3660   45.2230 C   0  0  0  0  0  0  0  0  0  0  0  0
   58.6680   30.1480   44.9810 C   0  0  0  0  0  0  0  0  0  0  0  0
   58.6100   31.2130   44.0770 C   0  0  0  0  0  0  0  0  0  0  0  0
   57.4080   31.5150   43.4290 C   0  0  0  0  0  0  0  0  0  0  0  0
   56.2620   30.7600   43.6920 C   0  0  0  0  0  0  0  0  0  0  0  0
   56.3160   29.6900   44.5930 C   0  0  0  0  0  0  0  0  0  0  0  0
   55.1610   28.9680   44.8690 O   0  0  0  0  0  0  0  0  0  0  0  0
   55.3190   25.0620   46.0930 C   0  0  0  0  0  0  0  0  0  0  0  0
   54.7890   26.3460   46.0170 O   0  0  0  0  0  0  0  0  0  0  0  0
   53.0740   21.6270   45.7110 H   0  0  0  0  0  0  0  0  0  0  0  0
   55.3183   21.7758   45.9512 H   0  0  0  0  0  0  0  0  0  0  0  0
   57.4587   26.1827   47.7450 H   0  0  0  0  0  0  0  0  0  0  0  0
   58.6189   25.2465   46.7216 H   0  0  0  0  0  0  0  0  0  0  0  0
   59.6094   29.9237   45.5040 H   0  0  0  0  0  0  0  0  0  0  0  0
   59.5095   31.8132   43.8755 H   0  0  0  0  0  0  0  0  0  0  0  0
   57.3647   32.3477   42.7116 H   0  0  0  0  0  0  0  0  0  0  0  0
   55.3150   31.0071   43.1898 H   0  0  0  0  0  0  0  0  0  0  0  0
  1  2  1  0
  2  3  2  0
  2  4  1  0
  4  5  1  0
  5  6  2  0
  6  7  1  0
  6  8  1  0
  8  9  1  0
  9 10  1  0
 10 11  2  0
 10 12  1  0
 12 13  1  0
 13 14  2  0
 14 15  1  0
 15 16  2  0
 16 17  1  0
 17 18  2  0
 18 19  1  0
  8 20  1  0
 20 21  1  0
 20  4  2  0
 18 13  1  0
  1 22  1  0
  5 23  1  0
  9 24  1  0
  9 25  1  0
 14 26  1  0
 15 27  1  0
 16 28  1  0
 17 29  1  0
M  CHG  5   1  -1   7  -1  12  -1  19  -1  21  -1
M  END
>  <UniqueID>  (72) 
63

>  <SMILES>  (72) 
[NH-]C(=O)c1cc([O-])n(CC(=O)[N-]c2ccccc2[O-])c1[O-]

>  <Energy>  (72) 
61.01767806261339

>  <Genealogy>  (72) 
[NH-]C(=O)c1cc([O-])n(CC(=O)[N-]c2ccccc2[O-])c1[O-] (protonated)
[NH-]C(=O)c1cc([O-])n(CC(=O)[N-]c2ccccc2[O-])c1[O-] (3D coordinates assigned)
[NH-]C(=O)c1cc([O-])n(CC(=O)[N-]c2ccccc2[O-])c1[O-] (optimized conformer: 61.01767806261339 kcal/mol)

>  <smiles>  (72) 
NC(=O)c1cc(O)n(CC(=O)Nc2ccccc2O)c1O

>  <score_type>  (72) 
oracle

>  <origin>  (72) 
adg

>  <m_score__min__energy>  (72) 
-18.010000000000002

>  <m_primary>  (72) 
energy

$$$$
72:0
     RDKit          3D

 43 45  0  0  0  0  0  0  0  0999 V2000
   54.8860   26.3070   45.9900 N   0  0  0  0  0  0  0  0  0  0  0  0
   56.5070   25.7450   46.1970 S   0  0  0  0  0  0  0  0  0  0  0  0
   56.7590   24.6360   45.2140 O   0  0  0  0  0  0  0  0  0  0  0  0
   56.6890   25.2270   47.5950 O   0  0  0  0  0  0  0  0  0  0  0  0
   57.6340   27.0670   45.9100 C   0  0  0  0  0  0  0  0  0  0  0  0
   58.7820   27.1970   46.7000 C   0  0  0  0  0  0  0  0  0  0  0  0
   59.6510   28.2730   46.5060 C   0  0  0  0  0  0  0  0  0  0  0  0
   59.3730   29.2300   45.5250 C   0  0  0  0  0  0  0  0  0  0  0  0
   58.2400   29.1020   44.7090 C   0  0  0  0  0  0  0  0  0  0  0  0
   57.9310   30.1390   43.7620 N   0  0  0  0  0  0  0  0  0  0  0  0
   57.1900   31.3150   44.1050 C   0  0  0  0  0  0  0  0  0  0  0  0
   56.0730   31.2110   44.6800 O   0  0  0  0  0  0  0  0  0  0  0  0
   57.7890   32.6680   43.8760 C   0  0  0  0  0  0  0  0  0  0  0  0
   58.4520   33.1360   45.1450 C   0  0  0  0  0  0  0  0  0  0  0  0
   59.0030   34.4240   45.2270 C   0  0  0  0  0  0  0  0  0  0  0  0
   59.5360   34.8850   46.4320 C   0  0  0  0  0  0  0  0  0  0  0  0
   59.5060   34.0760   47.5700 C   0  0  0  0  0  0  0  0  0  0  0  0
   58.9490   32.7850   47.5130 C   0  0  0  0  0  0  0  0  0  0  0  0
   58.8660   31.9440   48.7360 C   0  0  0  0  0  0  0  0  0  0  0  0
   58.6050   32.5280   49.9910 C   0  0  0  0  0  0  0  0  0  0  0  0
   58.5070   31.7310   51.1360 C   0  0  0  0  0  0  0  0  0  0  0  0
   58.6660   30.3460   51.0440 C   0  0  0  0  0  0  0  0  0  0  0  0
   58.5370   29.3490   52.4810 Cl  0  0  0  0  0  0  0  0  0  0  0  0
   58.9290   29.7560   49.8040 C   0  0  0  0  0  0  0  0  0  0  0  0
   59.0310   30.5480   48.6580 C   0  0  0  0  0  0  0  0  0  0  0  0
   58.4370   32.3190   46.2880 C   0  0  0  0  0  0  0  0  0  0  0  0
   57.3750   28.0070   44.9040 C   0  0  0  0  0  0  0  0  0  0  0  0
   54.7430   27.0860   46.6690 H   0  0  0  0  0  0  0  0  0  0  0  0
   59.0006   26.4491   47.4764 H   0  0  0  0  0  0  0  0  0  0  0  0
   60.5550   28.3678   47.1255 H   0  0  0  0  0  0  0  0  0  0  0  0
   60.0475   30.0888   45.3926 H   0  0  0  0  0  0  0  0  0  0  0  0
   58.3800   30.1050   42.8180 H   0  0  0  0  0  0  0  0  0  0  0  0
   58.5360   32.6084   43.0707 H   0  0  0  0  0  0  0  0  0  0  0  0
   57.0000   33.3780   43.5871 H   0  0  0  0  0  0  0  0  0  0  0  0
   59.0149   35.0726   44.3386 H   0  0  0  0  0  0  0  0  0  0  0  0
   59.9814   35.8894   46.4854 H   0  0  0  0  0  0  0  0  0  0  0  0
   59.9207   34.4506   48.5175 H   0  0  0  0  0  0  0  0  0  0  0  0
   58.4775   33.6177   50.0709 H   0  0  0  0  0  0  0  0  0  0  0  0
   58.3041   32.1960   52.1120 H   0  0  0  0  0  0  0  0  0  0  0  0
   59.0559   28.6658   49.7308 H   0  0  0  0  0  0  0  0  0  0  0  0
   59.2420   30.0771   47.6865 H   0  0  0  0  0  0  0  0  0  0  0  0
   58.0201   31.3031   46.2244 H   0  0  0  0  0  0  0  0  0  0  0  0
   56.4898   27.8893   44.2616 H   0  0  0  0  0  0  0  0  0  0  0  0
  1  2  1  0
  2  3  2  0
  2  4  2  0
  2  5  1  0
  5  6  2  0
  6  7  1  0
  7  8  2  0
  8  9  1  0
  9 10  1  0
 10 11  1  0
 11 12  2  0
 11 13  1  0
 13 14  1  0
 14 15  2  0
 15 16  1  0
 16 17  2  0
 17 18  1  0
 18 19  1  0
 19 20  2  0
 20 21  1  0
 21 22  2  0
 22 23  1  0
 22 24  1  0
 24 25  2  0
 18 26  2  0
  9 27  2  0
 27  5  1  0
 26 14  1  0
 25 19  1  0
  1 28  1  0
  6 29  1  0
  7 30  1  0
  8 31  1  0
 10 32  1  0
 13 33  1  0
 13 34  1  0
 15 35  1  0
 16 36  1  0
 17 37  1  0
 20 38  1  0
 21 39  1  0
 24 40  1  0
 25 41  1  0
 26 42  1  0
 27 43  1  0
M  CHG  1   1  -1
M  END
>  <UniqueID>  (73) 
64

>  <SMILES>  (73) 
[NH-]S(=O)(=O)c1cccc(NC(=O)Cc2cccc(-c3ccc(Cl)cc3)c2)c1

>  <Energy>  (73) 
50.799980265457684

>  <Genealogy>  (73) 
[NH-]S(=O)(=O)c1cccc(NC(=O)Cc2cccc(-c3ccc(Cl)cc3)c2)c1 (protonated)
[NH-]S(=O)(=O)c1cccc(NC(=O)Cc2cccc(-c3ccc(Cl)cc3)c2)c1 (3D coordinates assigned)
[NH-]S(=O)(=O)c1cccc(NC(=O)Cc2cccc(-c3ccc(Cl)cc3)c2)c1 (optimized conformer: 50.799980265457684 kcal/mol)

>  <smiles>  (73) 
NS(=O)(=O)c1cccc(NC(=O)Cc2cccc(-c3ccc(Cl)cc3)c2)c1

>  <score_type>  (73) 
oracle

>  <origin>  (73) 
adg

>  <m_score__min__energy>  (73) 
-13.300000000000001

>  <m_primary>  (73) 
energy

$$$$
73:0
     RDKit          3D

 50 53  0  0  0  0  0  0  0  0999 V2000
   57.0849   29.3585   43.0643 H   0  0  0  0  0  0  0  0  0  0  0  0
   56.9920   29.5230   44.1480 C   0  0  0  0  0  0  0  0  0  0  0  0
   56.3820   28.6410   44.8820 N   0  0  0  0  0  0  0  0  0  0  0  0
   56.9920   27.5770   45.6340 C   0  0  0  0  0  0  0  0  0  0  0  0
   58.3880   27.4680   45.7980 C   0  0  0  0  0  0  0  0  0  0  0  0
   59.0526   28.2183   45.3449 H   0  0  0  0  0  0  0  0  0  0  0  0
   58.9310   26.4120   46.5330 C   0  0  0  0  0  0  0  0  0  0  0  0
   60.3090   26.3020   46.6750 O   0  0  0  0  0  0  0  0  0  0  0  0
   58.0930   25.4710   47.1330 C   0  0  0  0  0  0  0  0  0  0  0  0
   58.5279   24.6314   47.6951 H   0  0  0  0  0  0  0  0  0  0  0  0
   56.7030   25.5890   47.0240 C   0  0  0  0  0  0  0  0  0  0  0  0
   55.8790   24.6090   47.6710 N   0  0  0  0  0  0  0  0  0  0  0  0
   55.0580   23.6320   47.0170 C   0  0  0  0  0  0  0  0  0  0  0  0
   54.1970   23.0150   47.6960 O   0  0  0  0  0  0  0  0  0  0  0  0
   55.1550   23.3850   45.5630 C   0  0  0  0  0  0  0  0  0  0  0  0
   54.2360   23.7730   44.5880 C   0  0  0  0  0  0  0  0  0  0  0  0
   53.3151   24.3411   44.7861 H   0  0  0  0  0  0  0  0  0  0  0  0
   54.6340   23.3540   43.3660 N   0  0  0  0  0  0  0  0  0  0  0  0
   54.1360   23.5050   42.4610 H   0  0  0  0  0  0  0  0  0  0  0  0
   55.7920   22.7000   43.5560 C   0  0  0  0  0  0  0  0  0  0  0  0
   56.5840   22.0920   42.5830 C   0  0  0  0  0  0  0  0  0  0  0  0
   56.2892   22.1030   41.5233 H   0  0  0  0  0  0  0  0  0  0  0  0
   57.7720   21.4640   42.9990 C   0  0  0  0  0  0  0  0  0  0  0  0
   58.4195   20.9731   42.2576 H   0  0  0  0  0  0  0  0  0  0  0  0
   58.1380   21.4600   44.3620 C   0  0  0  0  0  0  0  0  0  0  0  0
   59.0703   20.9674   44.6752 H   0  0  0  0  0  0  0  0  0  0  0  0
   57.3200   22.0810   45.3230 C   0  0  0  0  0  0  0  0  0  0  0  0
   57.5981   22.0855   46.3873 H   0  0  0  0  0  0  0  0  0  0  0  0
   56.1430   22.6920   44.8830 C   0  0  0  0  0  0  0  0  0  0  0  0
   56.1540   26.6300   46.2460 C   0  0  0  0  0  0  0  0  0  0  0  0
   54.7790   26.7130   46.0520 O   0  0  0  0  0  0  0  0  0  0  0  0
   57.5620   30.7440   44.7530 C   0  0  0  0  0  0  0  0  0  0  0  0
   57.5020   31.9550   44.0500 C   0  0  0  0  0  0  0  0  0  0  0  0
   57.0317   31.9854   43.0561 H   0  0  0  0  0  0  0  0  0  0  0  0
   58.0340   33.1240   44.6000 C   0  0  0  0  0  0  0  0  0  0  0  0
   57.9771   34.0654   44.0339 H   0  0  0  0  0  0  0  0  0  0  0  0
   58.6430   33.1120   45.8720 C   0  0  0  0  0  0  0  0  0  0  0  0
   59.1960   34.3260   46.4450 N   0  0  0  0  0  0  0  0  0  0  0  0
   59.6180   35.4360   45.5810 C   0  0  0  0  0  0  0  0  0  0  0  0
   59.9402   36.2835   46.2039 H   0  0  0  0  0  0  0  0  0  0  0  0
   60.4545   35.1088   44.9460 H   0  0  0  0  0  0  0  0  0  0  0  0
   58.7754   35.7472   44.9460 H   0  0  0  0  0  0  0  0  0  0  0  0
   59.3450   34.4640   47.9000 C   0  0  0  0  0  0  0  0  0  0  0  0
   58.6286   33.8005   48.4065 H   0  0  0  0  0  0  0  0  0  0  0  0
   60.3693   34.1885   48.1915 H   0  0  0  0  0  0  0  0  0  0  0  0
   59.1487   35.5064   48.1915 H   0  0  0  0  0  0  0  0  0  0  0  0
   58.7000   31.8900   46.5720 C   0  0  0  0  0  0  0  0  0  0  0  0
   59.1703   31.8549   47.5658 H   0  0  0  0  0  0  0  0  0  0  0  0
   58.1660   30.7210   46.0190 C   0  0  0  0  0  0  0  0  0  0  0  0
   58.2202   29.7770   46.5810 H   0  0  0  0  0  0  0  0  0  0  0  0
  1  2  1  0
  2  3  2  0
  3  4  1  0
  4  5  2  0
  5  6  1  0
  5  7  1  0
  7  8  1  0
  7  9  2  0
  9 10  1  0
  9 11  1  0
 11 12  1  0
 12 13  1  0
 13 14  2  0
 13 15  1  0
 15 16  2  0
 16 17  1  0
 16 18  1  0
 18 19  1  0
 18 20  1  0
 20 21  2  0
 21 22  1  0
 21 23  1  0
 23 24  1  0
 23 25  2  0
 25 26  1  0
 25 27  1  0
 27 28  1  0
 27 29  2  0
 11 30  2  0
 30 31  1  0
  2 32  1  0
 32 33  2  0
 33 34  1  0
 33 35  1  0
 35 36  1  0
 35 37  2  0
 37 38  1  0
 38 39  1  0
 39 40  1  0
 39 41  1  0
 39 42  1  0
 38 43  1  0
 43 44  1  0
 43 45  1  0
 43 46  1  0
 37 47  1  0
 47 48  1  0
 47 49  2  0
 49 50  1  0
 30  4  1  0
 49 32  1  0
 29 15  1  0
 29 20  1  0
M  CHG  3   8  -1  12  -1  31  -1
M  END
>  <UniqueID>  (74) 
65

>  <SMILES>  (74) 
CN(C)c1ccc(/C=N/c2cc([O-])cc([N-]C(=O)c3c[nH]c4ccccc34)c2[O-])cc1

>  <Energy>  (74) 
99.89980182737962

>  <Genealogy>  (74) 
CN(C)c1ccc(C=Nc2cc([O-])cc([N-]C(=O)c3c[nH]c4ccccc34)c2[O-])cc1 (protonated)
CN(C)c1ccc(/C=N/c2cc([O-])cc([N-]C(=O)c3c[nH]c4ccccc34)c2[O-])cc1 (cis-trans isomerization)
CN(C)c1ccc(/C=N/c2cc([O-])cc([N-]C(=O)c3c[nH]c4ccccc34)c2[O-])cc1 (3D coordinates assigned)
CN(C)c1ccc(/C=N/c2cc([O-])cc([N-]C(=O)c3c[nH]c4ccccc34)c2[O-])cc1 (optimized conformer: 99.89980182737962 kcal/mol)

>  <smiles>  (74) 
CN(C)c1ccc(C=Nc2cc(O)cc(NC(=O)c3c[nH]c4ccccc34)c2O)cc1

>  <score_type>  (74) 
oracle

>  <origin>  (74) 
adg

>  <m_score__min__energy>  (74) 
-16

>  <m_primary>  (74) 
energy

$$$$
74:0
     RDKit          3D

 44 47  0  0  0  0  0  0  0  0999 V2000
   59.9590   25.8130   46.0790 O   0  0  0  0  0  0  0  0  0  0  0  0
   59.5890   27.0060   46.2510 C   0  0  0  0  0  0  0  0  0  0  0  0
   60.1660   27.8100   47.3690 C   0  0  0  0  0  0  0  0  0  0  0  0
   58.8800   28.4130   48.5230 S   0  0  0  0  0  0  0  0  0  0  0  0
   58.7260   30.0710   47.8090 C   0  0  0  0  0  0  0  0  0  0  0  0
   58.4380   30.1640   46.4820 N   0  0  0  0  0  0  0  0  0  0  0  0
   58.2560   31.3650   45.8760 C   0  0  0  0  0  0  0  0  0  0  0  0
   57.9410   31.4350   44.5100 C   0  0  0  0  0  0  0  0  0  0  0  0
   57.7650   32.6760   43.8920 C   0  0  0  0  0  0  0  0  0  0  0  0
   57.9010   33.8540   44.6300 C   0  0  0  0  0  0  0  0  0  0  0  0
   58.2040   33.7950   45.9930 C   0  0  0  0  0  0  0  0  0  0  0  0
   58.3860   32.5500   46.6240 C   0  0  0  0  0  0  0  0  0  0  0  0
   58.7200   32.4440   47.9830 C   0  0  0  0  0  0  0  0  0  0  0  0
   58.8650   33.4950   48.6700 O   0  0  0  0  0  0  0  0  0  0  0  0
   58.9030   31.2120   48.5630 N   0  0  0  0  0  0  0  0  0  0  0  0
   59.3570   31.1510   49.9700 C   0  0  0  0  0  0  0  0  0  0  0  0
   58.2050   31.2060   50.9290 C   0  0  0  0  0  0  0  0  0  0  0  0
   57.7870   32.3350   51.6050 C   0  0  0  0  0  0  0  0  0  0  0  0
   56.6910   31.9430   52.3410 C   0  0  0  0  0  0  0  0  0  0  0  0
   56.5090   30.6010   52.0720 C   0  0  0  0  0  0  0  0  0  0  0  0
   57.4280   30.1900   51.2280 O   0  0  0  0  0  0  0  0  0  0  0  0
   58.6070   27.6020   45.3950 N   0  0  0  0  0  0  0  0  0  0  0  0
   57.1960   27.3880   45.4890 C   0  0  0  0  0  0  0  0  0  0  0  0
   56.4050   28.3610   45.6210 O   0  0  0  0  0  0  0  0  0  0  0  0
   56.6710   26.0200   45.4480 C   0  0  0  0  0  0  0  0  0  0  0  0
   57.2800   24.9370   44.8410 C   0  0  0  0  0  0  0  0  0  0  0  0
   56.4340   23.8690   45.0470 C   0  0  0  0  0  0  0  0  0  0  0  0
   55.3660   24.3700   45.7620 C   0  0  0  0  0  0  0  0  0  0  0  0
   53.8490   23.3660   46.3300 Br  0  0  0  0  0  0  0  0  0  0  0  0
   55.5330   25.6520   45.9910 O   0  0  0  0  0  0  0  0  0  0  0  0
   60.8763   27.1821   47.9269 H   0  0  0  0  0  0  0  0  0  0  0  0
   60.6649   28.6873   46.9314 H   0  0  0  0  0  0  0  0  0  0  0  0
   58.3420   29.2850   45.9220 H   0  0  0  0  0  0  0  0  0  0  0  0
   57.8324   30.5103   43.9242 H   0  0  0  0  0  0  0  0  0  0  0  0
   57.5186   32.7252   42.8211 H   0  0  0  0  0  0  0  0  0  0  0  0
   57.7695   34.8290   44.1380 H   0  0  0  0  0  0  0  0  0  0  0  0
   58.3005   34.7239   46.5742 H   0  0  0  0  0  0  0  0  0  0  0  0
   59.9063   30.2109   50.1266 H   0  0  0  0  0  0  0  0  0  0  0  0
   60.0021   32.0216   50.1596 H   0  0  0  0  0  0  0  0  0  0  0  0
   58.2358   33.3384   51.5642 H   0  0  0  0  0  0  0  0  0  0  0  0
   56.0834   32.5719   53.0083 H   0  0  0  0  0  0  0  0  0  0  0  0
   55.7148   29.9714   52.4996 H   0  0  0  0  0  0  0  0  0  0  0  0
   58.2405   24.9296   44.3049 H   0  0  0  0  0  0  0  0  0  0  0  0
   56.5800   22.8318   44.7109 H   0  0  0  0  0  0  0  0  0  0  0  0
  1  2  2  0
  2  3  1  0
  3  4  1  0
  4  5  1  0
  5  6  2  0
  6  7  1  0
  7  8  2  0
  8  9  1  0
  9 10  2  0
 10 11  1  0
 11 12  2  0
 12 13  1  0
 13 14  2  0
 13 15  1  0
 15 16  1  0
 16 17  1  0
 17 18  2  0
 18 19  1  0
 19 20  2  0
 20 21  1  0
  2 22  1  0
 22 23  1  0
 23 24  2  0
 23 25  1  0
 25 26  2  0
 26 27  1  0
 27 28  2  0
 28 29  1  0
 28 30  1  0
 15  5  1  0
 21 17  1  0
 30 25  1  0
 12  7  1  0
  3 31  1  0
  3 32  1  0
  6 33  1  0
  8 34  1  0
  9 35  1  0
 10 36  1  0
 11 37  1  0
 16 38  1  0
 16 39  1  0
 18 40  1  0
 19 41  1  0
 20 42  1  0
 26 43  1  0
 27 44  1  0
M  CHG  2   6   1  22  -1
M  END
>  <UniqueID>  (75) 
66

>  <SMILES>  (75) 
O=C(CSc1[nH+]c2ccccc2c(=O)n1Cc1ccco1)[N-]C(=O)c1ccc(Br)o1

>  <Energy>  (75) 
100.54282243151603

>  <Genealogy>  (75) 
O=C(CSc1[nH+]c2ccccc2c(=O)n1Cc1ccco1)[N-]C(=O)c1ccc(Br)o1 (protonated)
O=C(CSc1[nH+]c2ccccc2c(=O)n1Cc1ccco1)[N-]C(=O)c1ccc(Br)o1 (3D coordinates assigned)
O=C(CSc1[nH+]c2ccccc2c(=O)n1Cc1ccco1)[N-]C(=O)c1ccc(Br)o1 (optimized conformer: 100.54282243151603 kcal/mol)

>  <smiles>  (75) 
O=C(CSc1nc2ccccc2c(=O)n1Cc1ccco1)NC(=O)c1ccc(Br)o1

>  <score_type>  (75) 
oracle

>  <origin>  (75) 
adg

>  <m_score__min__energy>  (75) 
-8.2300000000000004

>  <m_primary>  (75) 
energy

$$$$
75:0
     RDKit          3D

 42 44  0  0  0  0  0  0  0  0999 V2000
   59.1570   30.5510   48.1930 C   0  0  0  0  0  0  0  0  0  0  0  0
   58.3540   31.3390   47.3220 O   0  0  0  0  0  0  0  0  0  0  0  0
   58.7910   32.5010   46.6660 C   0  0  0  0  0  0  0  0  0  0  0  0
   59.9850   33.1520   47.0340 C   0  0  0  0  0  0  0  0  0  0  0  0
   60.4000   34.3020   46.3620 C   0  0  0  0  0  0  0  0  0  0  0  0
   59.6310   34.8190   45.3210 C   0  0  0  0  0  0  0  0  0  0  0  0
   58.4440   34.1880   44.9470 C   0  0  0  0  0  0  0  0  0  0  0  0
   58.0140   33.0210   45.6090 C   0  0  0  0  0  0  0  0  0  0  0  0
   56.7940   32.3570   45.2250 N   0  0  0  0  0  0  0  0  0  0  0  0
   56.7430   30.9450   44.2170 S   0  0  0  0  0  0  0  0  0  0  0  0
   57.1140   31.3310   42.8130 O   0  0  0  0  0  0  0  0  0  0  0  0
   55.3480   30.3850   44.2200 O   0  0  0  0  0  0  0  0  0  0  0  0
   57.8440   29.7180   44.8360 C   0  0  0  0  0  0  0  0  0  0  0  0
   59.2230   29.8360   44.6270 C   0  0  0  0  0  0  0  0  0  0  0  0
   60.0950   28.8720   45.1380 C   0  0  0  0  0  0  0  0  0  0  0  0
   59.5940   27.7830   45.8570 C   0  0  0  0  0  0  0  0  0  0  0  0
   58.2100   27.6400   46.0550 C   0  0  0  0  0  0  0  0  0  0  0  0
   57.6700   26.4980   46.8330 C   0  0  0  0  0  0  0  0  0  0  0  0
   58.4530   25.8140   47.5450 O   0  0  0  0  0  0  0  0  0  0  0  0
   56.2920   26.1000   46.7550 N   0  0  0  0  0  0  0  0  0  0  0  0
   55.7870   25.2600   45.8990 C   0  0  0  0  0  0  0  0  0  0  0  0
   54.4550   24.9730   45.8940 N   0  0  0  0  0  0  0  0  0  0  0  0
   53.9330   24.0830   45.0120 C   0  0  0  0  0  0  0  0  0  0  0  0
   54.7660   23.4400   44.0970 C   0  0  0  0  0  0  0  0  0  0  0  0
   56.1280   23.7370   44.1200 C   0  0  0  0  0  0  0  0  0  0  0  0
   56.6120   24.6330   45.0190 N   0  0  0  0  0  0  0  0  0  0  0  0
   57.3400   28.6190   45.5460 C   0  0  0  0  0  0  0  0  0  0  0  0
   58.9108   30.7926   49.2375 H   0  0  0  0  0  0  0  0  0  0  0  0
   58.9614   29.4845   48.0074 H   0  0  0  0  0  0  0  0  0  0  0  0
   60.2196   30.7666   48.0074 H   0  0  0  0  0  0  0  0  0  0  0  0
   60.5944   32.7507   47.8571 H   0  0  0  0  0  0  0  0  0  0  0  0
   61.3355   34.8014   46.6542 H   0  0  0  0  0  0  0  0  0  0  0  0
   59.9604   35.7262   44.7932 H   0  0  0  0  0  0  0  0  0  0  0  0
   57.8390   34.6051   44.1285 H   0  0  0  0  0  0  0  0  0  0  0  0
   55.8870   32.6620   45.6450 H   0  0  0  0  0  0  0  0  0  0  0  0
   59.6209   30.6899   44.0590 H   0  0  0  0  0  0  0  0  0  0  0  0
   61.1783   28.9700   44.9743 H   0  0  0  0  0  0  0  0  0  0  0  0
   60.2863   27.0344   46.2698 H   0  0  0  0  0  0  0  0  0  0  0  0
   52.8540   23.8692   45.0190 H   0  0  0  0  0  0  0  0  0  0  0  0
   54.3587   22.7167   43.3752 H   0  0  0  0  0  0  0  0  0  0  0  0
   56.8103   23.2460   43.4105 H   0  0  0  0  0  0  0  0  0  0  0  0
   56.2559   28.5225   45.7057 H   0  0  0  0  0  0  0  0  0  0  0  0
  1  2  1  0
  2  3  1  0
  3  4  2  0
  4  5  1  0
  5  6  2  0
  6  7  1  0
  7  8  2  0
  8  9  1  0
  9 10  1  0
 10 11  2  0
 10 12  2  0
 10 13  1  0
 13 14  2  0
 14 15  1  0
 15 16  2  0
 16 17  1  0
 17 18  1  0
 18 19  2  0
 18 20  1  0
 20 21  2  3
 21 22  1  0
 22 23  2  0
 23 24  1  0
 24 25  2  0
 25 26  1  0
 17 27  2  0
  8  3  1  0
 27 13  1  0
 26 21  1  0
  1 28  1  0
  1 29  1  0
  1 30  1  0
  4 31  1  0
  5 32  1  0
  6 33  1  0
  7 34  1  0
  9 35  1  0
 14 36  1  0
 15 37  1  0
 16 38  1  0
 23 39  1  0
 24 40  1  0
 25 41  1  0
 27 42  1  0
M  CHG  1  26  -1
M  END
>  <UniqueID>  (76) 
67

>  <SMILES>  (76) 
COc1ccccc1NS(=O)(=O)c1cccc(C(=O)N=c2nccc[n-]2)c1

>  <Energy>  (76) 
56.30872590747773

>  <Genealogy>  (76) 
COc1ccccc1NS(=O)(=O)c1cccc(C(=O)N=c2nccc[n-]2)c1 (protonated)
COc1ccccc1NS(=O)(=O)c1cccc(C(=O)N=c2nccc[n-]2)c1 (3D coordinates assigned)
COc1ccccc1NS(=O)(=O)c1cccc(C(=O)N=c2nccc[n-]2)c1 (optimized conformer: 56.30872590747773 kcal/mol)

>  <smiles>  (76) 
COc1ccccc1NS(=O)(=O)c1cccc(C(=O)N=c2nccc[nH]2)c1

>  <score_type>  (76) 
oracle

>  <origin>  (76) 
adg

>  <m_score__min__energy>  (76) 
-10.119999999999999

>  <m_primary>  (76) 
energy

$$$$
76:0
     RDKit          3D

 44 46  0  0  0  0  0  0  0  0999 V2000
   59.3620   35.0530   44.9320 C   0  0  0  0  0  0  0  0  0  0  0  0
   59.6880   35.2810   46.4040 C   0  0  0  0  0  0  0  0  0  0  0  0
   59.6240   34.0180   47.1360 N   0  0  0  0  0  0  0  0  0  0  0  0
   58.5080   33.5380   47.6630 N   0  0  0  0  0  0  0  0  0  0  0  0
   58.8250   32.4290   48.3620 C   0  0  0  0  0  0  0  0  0  0  0  0
   60.1870   32.2100   48.2770 C   0  0  0  0  0  0  0  0  0  0  0  0
   60.9830   31.1890   49.0430 C   0  0  0  0  0  0  0  0  0  0  0  0
   61.3980   30.0660   48.1860 N   0  0  0  0  0  0  0  0  0  0  0  0
   60.2760   29.5120   47.4640 C   0  0  0  0  0  0  0  0  0  0  0  0
   60.1820   29.6650   46.0700 C   0  0  0  0  0  0  0  0  0  0  0  0
   59.1310   29.0760   45.3630 C   0  0  0  0  0  0  0  0  0  0  0  0
   58.1610   28.3180   46.0360 C   0  0  0  0  0  0  0  0  0  0  0  0
   57.0270   27.6960   45.2690 C   0  0  0  0  0  0  0  0  0  0  0  0
   55.8840   28.6010   45.2330 N   0  0  0  0  0  0  0  0  0  0  0  0
   55.7110   29.6190   44.2410 C   0  0  0  0  0  0  0  0  0  0  0  0
   54.7400   29.5690   43.4390 O   0  0  0  0  0  0  0  0  0  0  0  0
   56.6680   30.7270   44.1500 C   0  0  0  0  0  0  0  0  0  0  0  0
   57.2470   31.2090   42.9920 C   0  0  0  0  0  0  0  0  0  0  0  0
   58.0690   32.2410   43.3910 C   0  0  0  0  0  0  0  0  0  0  0  0
   57.9410   32.3250   44.7630 C   0  0  0  0  0  0  0  0  0  0  0  0
   57.1010   31.4090   45.1860 O   0  0  0  0  0  0  0  0  0  0  0  0
   58.2470   28.1700   47.4290 C   0  0  0  0  0  0  0  0  0  0  0  0
   59.2960   28.7620   48.1360 C   0  0  0  0  0  0  0  0  0  0  0  0
   60.6660   33.2440   47.4980 C   0  0  0  0  0  0  0  0  0  0  0  0
   62.3510   33.5660   47.1070 Cl  0  0  0  0  0  0  0  0  0  0  0  0
   58.4632   34.4244   44.8486 H   0  0  0  0  0  0  0  0  0  0  0  0
   59.1791   36.0211   44.4427 H   0  0  0  0  0  0  0  0  0  0  0  0
   60.2086   34.5491   44.4427 H   0  0  0  0  0  0  0  0  0  0  0  0
   60.7011   35.7006   46.4911 H   0  0  0  0  0  0  0  0  0  0  0  0
   58.9540   35.9807   46.8302 H   0  0  0  0  0  0  0  0  0  0  0  0
   58.1119   31.7982   48.9130 H   0  0  0  0  0  0  0  0  0  0  0  0
   61.8805   31.6731   49.4554 H   0  0  0  0  0  0  0  0  0  0  0  0
   60.3457   30.7899   49.8459 H   0  0  0  0  0  0  0  0  0  0  0  0
   61.8190   29.3220   48.7890 H   0  0  0  0  0  0  0  0  0  0  0  0
   62.1420   30.3830   47.5220 H   0  0  0  0  0  0  0  0  0  0  0  0
   60.9409   30.2523   45.5323 H   0  0  0  0  0  0  0  0  0  0  0  0
   59.0636   29.2072   44.2729 H   0  0  0  0  0  0  0  0  0  0  0  0
   57.3564   27.4863   44.2406 H   0  0  0  0  0  0  0  0  0  0  0  0
   56.7282   26.7617   45.7668 H   0  0  0  0  0  0  0  0  0  0  0  0
   57.0858   30.8454   41.9664 H   0  0  0  0  0  0  0  0  0  0  0  0
   58.6998   32.8706   42.7463 H   0  0  0  0  0  0  0  0  0  0  0  0
   58.4637   33.0497   45.4046 H   0  0  0  0  0  0  0  0  0  0  0  0
   57.4854   27.5856   47.9660 H   0  0  0  0  0  0  0  0  0  0  0  0
   59.3555   28.6402   49.2276 H   0  0  0  0  0  0  0  0  0  0  0  0
  1  2  1  0
  2  3  1  0
  3  4  1  0
  4  5  2  0
  5  6  1  0
  6  7  1  0
  7  8  1  0
  8  9  1  0
  9 10  2  0
 10 11  1  0
 11 12  2  0
 12 13  1  0
 13 14  1  0
 14 15  1  0
 15 16  2  0
 15 17  1  0
 17 18  2  0
 18 19  1  0
 19 20  2  0
 20 21  1  0
 12 22  1  0
 22 23  2  0
  6 24  2  0
 24 25  1  0
 24  3  1  0
 23  9  1  0
 21 17  1  0
  1 26  1  0
  1 27  1  0
  1 28  1  0
  2 29  1  0
  2 30  1  0
  5 31  1  0
  7 32  1  0
  7 33  1  0
  8 34  1  0
  8 35  1  0
 10 36  1  0
 11 37  1  0
 13 38  1  0
 13 39  1  0
 18 40  1  0
 19 41  1  0
 20 42  1  0
 22 43  1  0
 23 44  1  0
M  CHG  2   8   1  14  -1
M  END
>  <UniqueID>  (77) 
68

>  <SMILES>  (77) 
CCn1ncc(C[NH2+]c2ccc(C[N-]C(=O)c3ccco3)cc2)c1Cl

>  <Energy>  (77) 
93.46455381519594

>  <Genealogy>  (77) 
CCn1ncc(C[NH2+]c2ccc(C[N-]C(=O)c3ccco3)cc2)c1Cl (protonated)
CCn1ncc(C[NH2+]c2ccc(C[N-]C(=O)c3ccco3)cc2)c1Cl (3D coordinates assigned)
CCn1ncc(C[NH2+]c2ccc(C[N-]C(=O)c3ccco3)cc2)c1Cl (optimized conformer: 93.46455381519594 kcal/mol)

>  <smiles>  (77) 
CCn1ncc(CNc2ccc(CNC(=O)c3ccco3)cc2)c1Cl

>  <score_type>  (77) 
oracle

>  <origin>  (77) 
adg

>  <m_score__min__energy>  (77) 
-8.1099999999999994

>  <m_primary>  (77) 
energy

$$$$
77:0
     RDKit          3D

 59 61  0  0  0  0  0  0  0  0999 V2000
   57.2310   24.1780   43.9680 C   0  0  0  0  0  0  0  0  0  0  0  0
   58.0570   24.0470   45.2450 C   0  0  0  0  0  0  0  0  0  0  0  0
   57.4980   24.9380   46.3590 C   0  0  0  0  0  0  0  0  0  0  0  0
   57.3330   26.3570   45.8700 C   0  0  0  0  0  0  0  0  0  0  0  0
   56.0480   26.8770   45.6580 C   0  0  0  0  0  0  0  0  0  0  0  0
   55.8850   28.1610   45.2480 N   0  0  0  0  0  0  0  0  0  0  0  0
   56.9390   28.9930   45.0340 C   0  0  0  0  0  0  0  0  0  0  0  0
   56.6670   30.4000   44.5730 C   0  0  0  0  0  0  0  0  0  0  0  0
   57.4590   31.3690   45.3430 N   0  0  0  0  0  0  0  0  0  0  0  0
   56.9880   32.7680   45.2180 C   0  0  0  0  0  0  0  0  0  0  0  0
   57.0130   33.4420   46.6140 C   0  0  0  0  0  0  0  0  0  0  0  0
   58.2220   34.3680   46.8440 C   0  0  0  0  0  0  0  0  0  0  0  0
   59.3880   33.9170   46.0720 N   0  0  0  0  0  0  0  0  0  0  0  0
   60.6950   33.8430   46.6740 C   0  0  0  0  0  0  0  0  0  0  0  0
   61.7070   34.1750   45.9990 O   0  0  0  0  0  0  0  0  0  0  0  0
   60.8800   33.3280   48.0560 C   0  0  0  0  0  0  0  0  0  0  0  0
   61.3640   34.2020   49.0470 C   0  0  0  0  0  0  0  0  0  0  0  0
   61.5090   33.7710   50.3660 C   0  0  0  0  0  0  0  0  0  0  0  0
   61.1730   32.4640   50.7160 C   0  0  0  0  0  0  0  0  0  0  0  0
   60.6910   31.5830   49.7470 C   0  0  0  0  0  0  0  0  0  0  0  0
   60.5300   32.0020   48.4160 C   0  0  0  0  0  0  0  0  0  0  0  0
   60.0630   31.0210   47.4150 C   0  0  0  0  0  0  0  0  0  0  0  0
   60.6910   30.9030   46.3300 O   0  0  0  0  0  0  0  0  0  0  0  0
   58.9050   30.2090   47.6380 N   0  0  0  0  0  0  0  0  0  0  0  0
   58.8680   29.0690   48.5460 C   0  0  0  0  0  0  0  0  0  0  0  0
   59.2660   33.7630   44.6160 C   0  0  0  0  0  0  0  0  0  0  0  0
   57.8000   33.5910   44.1890 C   0  0  0  0  0  0  0  0  0  0  0  0
   58.2500   28.5210   45.2340 C   0  0  0  0  0  0  0  0  0  0  0  0
   59.3390   29.3640   45.0050 O   0  0  0  0  0  0  0  0  0  0  0  0
   58.4430   27.1970   45.6630 C   0  0  0  0  0  0  0  0  0  0  0  0
   59.6120   26.7630   45.8600 O   0  0  0  0  0  0  0  0  0  0  0  0
   56.1757   24.3454   44.2295 H   0  0  0  0  0  0  0  0  0  0  0  0
   57.6017   25.0286   43.3772 H   0  0  0  0  0  0  0  0  0  0  0  0
   57.3203   23.2545   43.3772 H   0  0  0  0  0  0  0  0  0  0  0  0
   58.0373   22.9992   45.5794 H   0  0  0  0  0  0  0  0  0  0  0  0
   59.0874   24.3650   45.0280 H   0  0  0  0  0  0  0  0  0  0  0  0
   56.5195   24.5488   46.6769 H   0  0  0  0  0  0  0  0  0  0  0  0
   58.2015   24.9331   47.2046 H   0  0  0  0  0  0  0  0  0  0  0  0
   55.1665   26.2405   45.8250 H   0  0  0  0  0  0  0  0  0  0  0  0
   56.9290   30.4866   43.5082 H   0  0  0  0  0  0  0  0  0  0  0  0
   55.6000   30.6189   44.7265 H   0  0  0  0  0  0  0  0  0  0  0  0
   58.4590   31.2930   45.0520 H   0  0  0  0  0  0  0  0  0  0  0  0
   55.9575   32.7415   44.8340 H   0  0  0  0  0  0  0  0  0  0  0  0
   56.0952   34.0379   46.7263 H   0  0  0  0  0  0  0  0  0  0  0  0
   57.0878   32.6329   47.3554 H   0  0  0  0  0  0  0  0  0  0  0  0
   57.9572   35.3889   46.5315 H   0  0  0  0  0  0  0  0  0  0  0  0
   58.4808   34.3458   47.9129 H   0  0  0  0  0  0  0  0  0  0  0  0
   61.6306   35.2350   48.7791 H   0  0  0  0  0  0  0  0  0  0  0  0
   61.8892   34.4637   51.1312 H   0  0  0  0  0  0  0  0  0  0  0  0
   61.2879   32.1269   51.7568 H   0  0  0  0  0  0  0  0  0  0  0  0
   60.4348   30.5509   50.0281 H   0  0  0  0  0  0  0  0  0  0  0  0
   58.8796   29.4279   49.5858 H   0  0  0  0  0  0  0  0  0  0  0  0
   57.9505   28.4886   48.3687 H   0  0  0  0  0  0  0  0  0  0  0  0
   59.7459   28.4304   48.3687 H   0  0  0  0  0  0  0  0  0  0  0  0
   59.6784   34.6574   44.1261 H   0  0  0  0  0  0  0  0  0  0  0  0
   59.8208   32.8616   44.3165 H   0  0  0  0  0  0  0  0  0  0  0  0
   57.3407   34.5854   44.0880 H   0  0  0  0  0  0  0  0  0  0  0  0
   57.7866   33.0470   43.2330 H   0  0  0  0  0  0  0  0  0  0  0  0
   59.4500   30.2480   45.4860 H   0  0  0  0  0  0  0  0  0  0  0  0
  1  2  1  0
  2  3  1  0
  3  4  1  0
  4  5  2  0
  5  6  1  0
  6  7  1  0
  7  8  1  0
  8  9  1  0
  9 10  1  0
 10 11  1  0
 11 12  1  0
 12 13  1  0
 13 14  1  0
 14 15  2  0
 14 16  1  0
 16 17  2  0
 17 18  1  0
 18 19  2  0
 19 20  1  0
 20 21  2  0
 21 22  1  0
 22 23  2  0
 22 24  1  0
 24 25  1  0
 13 26  1  0
 26 27  1  0
  7 28  2  0
 28 29  1  0
 28 30  1  0
 30 31  2  0
 30  4  1  0
 27 10  1  0
 21 16  1  0
  1 32  1  0
  1 33  1  0
  1 34  1  0
  2 35  1  0
  2 36  1  0
  3 37  1  0
  3 38  1  0
  5 39  1  0
  8 40  1  0
  8 41  1  0
  9 42  1  0
 10 43  1  0
 11 44  1  0
 11 45  1  0
 12 46  1  0
 12 47  1  0
 17 48  1  0
 18 49  1  0
 19 50  1  0
 20 51  1  0
 25 52  1  0
 25 53  1  0
 25 54  1  0
 26 55  1  0
 26 56  1  0
 27 57  1  0
 27 58  1  0
 29 59  1  0
M  CHG  2   6  -1  24  -1
M  END
>  <UniqueID>  (78) 
69

>  <SMILES>  (78) 
CCCc1c[n-]c(CNC2CCN(C(=O)c3ccccc3C(=O)[N-]C)CC2)c(O)c1=O

>  <Energy>  (78) 
71.82242110500388

>  <Genealogy>  (78) 
CCCc1c[n-]c(CNC2CCN(C(=O)c3ccccc3C(=O)[N-]C)CC2)c(O)c1=O (protonated)
CCCc1c[n-]c(CNC2CCN(C(=O)c3ccccc3C(=O)[N-]C)CC2)c(O)c1=O (3D coordinates assigned)
CCCc1c[n-]c(CNC2CCN(C(=O)c3ccccc3C(=O)[N-]C)CC2)c(O)c1=O (nonaromatic ring conformer: 71.82242110500388 kcal/mol)

>  <smiles>  (78) 
CCCc1c[nH]c(CNC2CCN(C(=O)c3ccccc3C(=O)NC)CC2)c(O)c1=O

>  <score_type>  (78) 
oracle

>  <origin>  (78) 
adg

>  <m_score__min__energy>  (78) 
-10.720000000000001

>  <m_primary>  (78) 
energy

$$$$
78:0
     RDKit          3D

 48 51  0  0  0  0  0  0  0  0999 V2000
   57.3426   32.8251   43.3206 H   0  0  0  0  0  0  0  0  0  0  0  0
   57.4190   31.7540   43.5590 C   0  0  0  0  0  0  0  0  0  0  0  0
   56.8310   30.8350   42.7490 N   0  0  0  0  0  0  0  0  0  0  0  0
   56.9020   29.5040   43.0120 C   0  0  0  0  0  0  0  0  0  0  0  0
   56.4129   28.7846   42.3387 H   0  0  0  0  0  0  0  0  0  0  0  0
   57.5950   29.0470   44.1360 C   0  0  0  0  0  0  0  0  0  0  0  0
   57.6445   27.9703   44.3559 H   0  0  0  0  0  0  0  0  0  0  0  0
   58.2270   29.9700   44.9820 C   0  0  0  0  0  0  0  0  0  0  0  0
   58.9510   29.4990   46.1830 C   0  0  0  0  0  0  0  0  0  0  0  0
   60.0530   30.4420   47.0420 S   0  0  0  0  0  0  0  0  0  0  0  0
   60.4890   29.1840   48.0750 C   0  0  0  0  0  0  0  0  0  0  0  0
   61.3620   29.2370   49.0400 N   0  0  0  0  0  0  0  0  0  0  0  0
   61.1970   29.8160   50.3460 C   0  0  0  0  0  0  0  0  0  0  0  0
   60.1820   29.5520   51.0450 O   0  0  0  0  0  0  0  0  0  0  0  0
   62.2580   30.6980   50.8890 C   0  0  0  0  0  0  0  0  0  0  0  0
   62.5510   30.6340   52.2650 C   0  0  0  0  0  0  0  0  0  0  0  0
   62.0311   29.8999   52.8981 H   0  0  0  0  0  0  0  0  0  0  0  0
   63.4930   31.4910   52.8340 C   0  0  0  0  0  0  0  0  0  0  0  0
   63.7098   31.4322   53.9108 H   0  0  0  0  0  0  0  0  0  0  0  0
   64.1600   32.4220   52.0390 C   0  0  0  0  0  0  0  0  0  0  0  0
   64.8957   33.1033   52.4913 H   0  0  0  0  0  0  0  0  0  0  0  0
   63.8960   32.4910   50.6710 C   0  0  0  0  0  0  0  0  0  0  0  0
   64.4318   33.2232   50.0491 H   0  0  0  0  0  0  0  0  0  0  0  0
   62.9510   31.6330   50.0790 C   0  0  0  0  0  0  0  0  0  0  0  0
   62.7630   31.6610   48.6540 N   0  0  0  0  0  0  0  0  0  0  0  0
   62.4670   30.7940   48.1540 H   0  0  0  0  0  0  0  0  0  0  0  0
   62.8880   33.1180   47.7230 S   0  0  0  0  0  0  0  0  0  0  0  0
   63.2400   34.2710   48.6210 O   0  0  0  0  0  0  0  0  0  0  0  0
   63.9680   32.9490   46.6930 O   0  0  0  0  0  0  0  0  0  0  0  0
   61.3530   33.4430   46.8830 C   0  0  0  0  0  0  0  0  0  0  0  0
   60.5579   33.6113   47.6243 H   0  0  0  0  0  0  0  0  0  0  0  0
   61.4622   34.3379   46.2528 H   0  0  0  0  0  0  0  0  0  0  0  0
   61.0902   32.5806   46.2528 H   0  0  0  0  0  0  0  0  0  0  0  0
   59.8110   28.0530   47.7910 N   0  0  0  0  0  0  0  0  0  0  0  0
   58.9480   28.2120   46.7490 C   0  0  0  0  0  0  0  0  0  0  0  0
   58.0630   27.1020   46.3340 C   0  0  0  0  0  0  0  0  0  0  0  0
   58.6190   25.8640   45.9740 C   0  0  0  0  0  0  0  0  0  0  0  0
   59.7105   25.7288   45.9902 H   0  0  0  0  0  0  0  0  0  0  0  0
   57.7920   24.8020   45.5950 C   0  0  0  0  0  0  0  0  0  0  0  0
   58.2352   23.8382   45.3040 H   0  0  0  0  0  0  0  0  0  0  0  0
   56.4050   24.9620   45.5850 C   0  0  0  0  0  0  0  0  0  0  0  0
   55.7570   24.1274   45.2792 H   0  0  0  0  0  0  0  0  0  0  0  0
   55.8400   26.1840   45.9640 C   0  0  0  0  0  0  0  0  0  0  0  0
   54.4600   26.3390   45.9660 O   0  0  0  0  0  0  0  0  0  0  0  0
   56.6640   27.2480   46.3450 C   0  0  0  0  0  0  0  0  0  0  0  0
   56.2159   28.2036   46.6548 H   0  0  0  0  0  0  0  0  0  0  0  0
   58.1210   31.3400   44.6950 C   0  0  0  0  0  0  0  0  0  0  0  0
   58.5870   32.0827   45.3593 H   0  0  0  0  0  0  0  0  0  0  0  0
  1  2  1  0
  2  3  2  0
  3  4  1  0
  4  5  1  0
  4  6  2  0
  6  7  1  0
  6  8  1  0
  8  9  1  0
  9 10  1  0
 10 11  1  0
 11 12  2  0
 12 13  1  0
 13 14  2  0
 13 15  1  0
 15 16  2  0
 16 17  1  0
 16 18  1  0
 18 19  1  0
 18 20  2  0
 20 21  1  0
 20 22  1  0
 22 23  1  0
 22 24  2  0
 24 25  1  0
 25 26  1  0
 25 27  1  0
 27 28  2  0
 27 29  2  0
 27 30  1  0
 30 31  1  0
 30 32  1  0
 30 33  1  0
 11 34  1  0
 34 35  1  0
 35 36  1  0
 36 37  2  0
 37 38  1  0
 37 39  1  0
 39 40  1  0
 39 41  2  0
 41 42  1  0
 41 43  1  0
 43 44  1  0
 43 45  2  0
 45 46  1  0
  8 47  2  0
 47 48  1  0
 47  2  1  0
 35  9  2  0
 45 36  1  0
 24 15  1  0
M  CHG  2  34  -1  44  -1
M  END
>  <UniqueID>  (79) 
70

>  <SMILES>  (79) 
CS(=O)(=O)Nc1ccccc1C(=O)/N=c1/[n-]c(-c2cccc([O-])c2)c(-c2ccncc2)s1

>  <Energy>  (79) 
100.43656988752356

>  <Genealogy>  (79) 
CS(=O)(=O)Nc1ccccc1C(=O)N=c1[n-]c(-c2cccc([O-])c2)c(-c2ccncc2)s1 (protonated)
CS(=O)(=O)Nc1ccccc1C(=O)/N=c1/[n-]c(-c2cccc([O-])c2)c(-c2ccncc2)s1 (cis-trans isomerization)
CS(=O)(=O)Nc1ccccc1C(=O)/N=c1/[n-]c(-c2cccc([O-])c2)c(-c2ccncc2)s1 (3D coordinates assigned)
CS(=O)(=O)Nc1ccccc1C(=O)/N=c1/[n-]c(-c2cccc([O-])c2)c(-c2ccncc2)s1 (optimized conformer: 100.43656988752356 kcal/mol)

>  <smiles>  (79) 
CS(=O)(=O)Nc1ccccc1C(=O)N=c1[nH]c(-c2cccc(O)c2)c(-c2ccncc2)s1

>  <score_type>  (79) 
oracle

>  <origin>  (79) 
adg

>  <m_score__min__energy>  (79) 
-13.6

>  <m_primary>  (79) 
energy

$$$$
79:0
     RDKit          3D

 43 45  0  0  0  0  0  0  0  0999 V2000
   60.4840   30.2300   48.0540 C   0  0  0  0  0  0  0  0  0  0  0  0
   59.5910   31.3690   47.6480 C   0  0  0  0  0  0  0  0  0  0  0  0
   58.7670   31.2430   46.5170 C   0  0  0  0  0  0  0  0  0  0  0  0
   57.8900   32.2730   46.1470 C   0  0  0  0  0  0  0  0  0  0  0  0
   57.0240   32.0860   45.0150 N   0  0  0  0  0  0  0  0  0  0  0  0
   57.2720   30.8640   43.8060 S   0  0  0  0  0  0  0  0  0  0  0  0
   56.0700   30.8340   42.9020 O   0  0  0  0  0  0  0  0  0  0  0  0
   58.4880   31.2130   42.9950 O   0  0  0  0  0  0  0  0  0  0  0  0
   57.5300   29.2890   44.5650 C   0  0  0  0  0  0  0  0  0  0  0  0
   58.8320   28.7760   44.6690 C   0  0  0  0  0  0  0  0  0  0  0  0
   59.0580   27.5400   45.2810 C   0  0  0  0  0  0  0  0  0  0  0  0
   57.9850   26.8010   45.7830 C   0  0  0  0  0  0  0  0  0  0  0  0
   56.6830   27.2970   45.6720 C   0  0  0  0  0  0  0  0  0  0  0  0
   56.4500   28.5350   45.0620 C   0  0  0  0  0  0  0  0  0  0  0  0
   55.1440   28.9990   44.9510 O   0  0  0  0  0  0  0  0  0  0  0  0
   57.8720   33.4550   46.9040 C   0  0  0  0  0  0  0  0  0  0  0  0
   58.6740   33.5820   48.0380 C   0  0  0  0  0  0  0  0  0  0  0  0
   59.5200   32.5310   48.4380 C   0  0  0  0  0  0  0  0  0  0  0  0
   60.2930   32.6040   49.6110 O   0  0  0  0  0  0  0  0  0  0  0  0
   59.9030   32.0950   50.8860 C   0  0  0  0  0  0  0  0  0  0  0  0
   58.7120   32.8430   51.4000 C   0  0  0  0  0  0  0  0  0  0  0  0
   58.8890   33.9050   52.0550 O   0  0  0  0  0  0  0  0  0  0  0  0
   57.3940   32.3390   51.1360 N   0  0  0  0  0  0  0  0  0  0  0  0
   56.8390   31.2720   51.6360 C   0  0  0  0  0  0  0  0  0  0  0  0
   55.6740   31.1960   52.3800 C   0  0  0  0  0  0  0  0  0  0  0  0
   55.5750   29.8540   52.6750 C   0  0  0  0  0  0  0  0  0  0  0  0
   56.6010   29.2270   52.1440 O   0  0  0  0  0  0  0  0  0  0  0  0
   57.3860   30.0520   51.5130 N   0  0  0  0  0  0  0  0  0  0  0  0
   60.5290   30.1726   49.1516 H   0  0  0  0  0  0  0  0  0  0  0  0
   60.0814   29.2878   47.6538 H   0  0  0  0  0  0  0  0  0  0  0  0
   61.4950   30.3961   47.6538 H   0  0  0  0  0  0  0  0  0  0  0  0
   58.8103   30.3242   45.9137 H   0  0  0  0  0  0  0  0  0  0  0  0
   56.2650   32.7820   44.8350 H   0  0  0  0  0  0  0  0  0  0  0  0
   59.6797   29.3500   44.2665 H   0  0  0  0  0  0  0  0  0  0  0  0
   60.0825   27.1489   45.3673 H   0  0  0  0  0  0  0  0  0  0  0  0
   58.1643   25.8289   46.2656 H   0  0  0  0  0  0  0  0  0  0  0  0
   55.8384   26.7123   46.0655 H   0  0  0  0  0  0  0  0  0  0  0  0
   57.2203   34.2876   46.6005 H   0  0  0  0  0  0  0  0  0  0  0  0
   58.6450   34.5119   48.6249 H   0  0  0  0  0  0  0  0  0  0  0  0
   59.6485   31.0292   50.7892 H   0  0  0  0  0  0  0  0  0  0  0  0
   60.7370   32.2198   51.5923 H   0  0  0  0  0  0  0  0  0  0  0  0
   54.9922   32.0103   52.6664 H   0  0  0  0  0  0  0  0  0  0  0  0
   54.7697   29.3843   53.2589 H   0  0  0  0  0  0  0  0  0  0  0  0
  1  2  1  0
  2  3  2  0
  3  4  1  0
  4  5  1  0
  5  6  1  0
  6  7  2  0
  6  8  2  0
  6  9  1  0
  9 10  2  0
 10 11  1  0
 11 12  2  0
 12 13  1  0
 13 14  2  0
 14 15  1  0
  4 16  2  0
 16 17  1  0
 17 18  2  0
 18 19  1  0
 19 20  1  0
 20 21  1  0
 21 22  2  0
 21 23  1  0
 23 24  2  3
 24 25  1  0
 25 26  2  0
 26 27  1  0
 27 28  1  0
 18  2  1  0
 28 24  1  0
 14  9  1  0
  1 29  1  0
  1 30  1  0
  1 31  1  0
  3 32  1  0
  5 33  1  0
 10 34  1  0
 11 35  1  0
 12 36  1  0
 13 37  1  0
 16 38  1  0
 17 39  1  0
 20 40  1  0
 20 41  1  0
 25 42  1  0
 26 43  1  0
M  CHG  2  15  -1  28  -1
M  END
>  <UniqueID>  (80) 
71

>  <SMILES>  (80) 
Cc1cc(NS(=O)(=O)c2ccccc2[O-])ccc1OCC(=O)N=c1cco[n-]1

>  <Energy>  (80) 
81.17875522617747

>  <Genealogy>  (80) 
Cc1cc(NS(=O)(=O)c2ccccc2[O-])ccc1OCC(=O)N=c1cco[n-]1 (protonated)
Cc1cc(NS(=O)(=O)c2ccccc2[O-])ccc1OCC(=O)N=c1cco[n-]1 (3D coordinates assigned)
Cc1cc(NS(=O)(=O)c2ccccc2[O-])ccc1OCC(=O)N=c1cco[n-]1 (optimized conformer: 81.17875522617747 kcal/mol)

>  <smiles>  (80) 
Cc1cc(NS(=O)(=O)c2ccccc2O)ccc1OCC(=O)N=c1cco[nH]1

>  <score_type>  (80) 
oracle

>  <origin>  (80) 
adg

>  <m_score__min__energy>  (80) 
-12.970000000000001

>  <m_primary>  (80) 
energy

$$$$
80:0
     RDKit          3D

 29 30  0  0  0  0  0  0  0  0999 V2000
   57.6591   31.2421   47.2347 H   0  0  0  0  0  0  0  0  0  0  0  0
   57.8860   31.9830   46.4540 C   0  0  0  0  0  0  0  0  0  0  0  0
   58.5930   33.1440   46.7800 C   0  0  0  0  0  0  0  0  0  0  0  0
   58.8942   33.3278   47.8219 H   0  0  0  0  0  0  0  0  0  0  0  0
   58.9200   34.0760   45.7830 C   0  0  0  0  0  0  0  0  0  0  0  0
   59.6450   35.3400   46.1390 C   0  0  0  0  0  0  0  0  0  0  0  0
   59.6998   35.4355   47.2335 H   0  0  0  0  0  0  0  0  0  0  0  0
   60.6625   35.3089   45.7223 H   0  0  0  0  0  0  0  0  0  0  0  0
   59.1044   36.2026   45.7223 H   0  0  0  0  0  0  0  0  0  0  0  0
   58.5140   33.8420   44.4610 C   0  0  0  0  0  0  0  0  0  0  0  0
   58.7533   34.5751   43.6766 H   0  0  0  0  0  0  0  0  0  0  0  0
   57.8060   32.6800   44.1360 C   0  0  0  0  0  0  0  0  0  0  0  0
   57.5167   32.4895   43.0920 H   0  0  0  0  0  0  0  0  0  0  0  0
   57.4640   31.7590   45.1320 C   0  0  0  0  0  0  0  0  0  0  0  0
   56.7890   30.5470   44.7630 N   0  0  0  0  0  0  0  0  0  0  0  0
   57.0970   29.3280   45.1210 C   0  0  0  0  0  0  0  0  0  0  0  0
   58.4520   28.9660   45.2200 C   0  0  0  0  0  0  0  0  0  0  0  0
   59.3490   29.8200   44.9740 O   0  0  0  0  0  0  0  0  0  0  0  0
   58.7940   27.6920   45.5910 N   0  0  0  0  0  0  0  0  0  0  0  0
   60.2080   27.3100   45.7020 C   0  0  0  0  0  0  0  0  0  0  0  0
   60.4853   27.2351   46.7638 H   0  0  0  0  0  0  0  0  0  0  0  0
   60.3646   26.3374   45.2126 H   0  0  0  0  0  0  0  0  0  0  0  0
   60.8330   28.0715   45.2126 H   0  0  0  0  0  0  0  0  0  0  0  0
   57.8210   26.7690   45.8480 C   0  0  0  0  0  0  0  0  0  0  0  0
   58.0980   25.7480   46.1493 H   0  0  0  0  0  0  0  0  0  0  0  0
   56.4790   27.1190   45.7290 C   0  0  0  0  0  0  0  0  0  0  0  0
   55.5130   26.1950   45.9620 F   0  0  0  0  0  0  0  0  0  0  0  0
   56.1390   28.3820   45.3630 N   0  0  0  0  0  0  0  0  0  0  0  0
   55.1240   28.5880   45.2390 H   0  0  0  0  0  0  0  0  0  0  0  0
  1  2  1  0
  2  3  2  0
  3  4  1  0
  3  5  1  0
  5  6  1  0
  6  7  1  0
  6  8  1  0
  6  9  1  0
  5 10  2  0
 10 11  1  0
 10 12  1  0
 12 13  1  0
 12 14  2  0
 14 15  1  0
 15 16  2  0
 16 17  1  0
 17 18  2  0
 17 19  1  0
 19 20  1  0
 20 21  1  0
 20 22  1  0
 20 23  1  0
 19 24  1  0
 24 25  1  0
 24 26  2  0
 26 27  1  0
 26 28  1  0
 28 29  1  0
 14  2  1  0
 28 16  1  0
M  END
>  <UniqueID>  (81) 
72

>  <SMILES>  (81) 
Cc1ccc(/N=c2\[nH]c(F)cn(C)c2=O)cc1

>  <Energy>  (81) 
40.862314212452006

>  <Genealogy>  (81) 
Cc1ccc(/N=c2\[nH]c(F)cn(C)c2=O)cc1 (cis-trans isomerization)
Cc1ccc(/N=c2\[nH]c(F)cn(C)c2=O)cc1 (3D coordinates assigned)
Cc1ccc(/N=c2\[nH]c(F)cn(C)c2=O)cc1 (optimized conformer: 40.862314212452006 kcal/mol)

>  <smiles>  (81) 
Cc1ccc(N=c2[nH]c(F)cn(C)c2=O)cc1

>  <score_type>  (81) 
oracle

>  <origin>  (81) 
adg

>  <m_score__min__energy>  (81) 
-6.29

>  <m_primary>  (81) 
energy

$$$$
81:0
     RDKit          3D

 54 56  0  0  0  0  0  0  0  0999 V2000
   59.6790   35.3840   46.3430 C   0  0  0  0  0  0  0  0  0  0  0  0
   60.3970   34.4210   47.1170 O   0  0  0  0  0  0  0  0  0  0  0  0
   60.0930   33.0510   47.1510 C   0  0  0  0  0  0  0  0  0  0  0  0
   58.7800   32.5770   47.3560 C   0  0  0  0  0  0  0  0  0  0  0  0
   58.5260   31.2090   47.4200 C   0  0  0  0  0  0  0  0  0  0  0  0
   59.5610   30.2870   47.2260 C   0  0  0  0  0  0  0  0  0  0  0  0
   59.2400   28.5540   47.2890 S   0  0  0  0  0  0  0  0  0  0  0  0
   58.3680   28.2610   48.4710 O   0  0  0  0  0  0  0  0  0  0  0  0
   60.5470   27.8360   47.4740 O   0  0  0  0  0  0  0  0  0  0  0  0
   58.4650   27.9790   45.8360 N   0  0  0  0  0  0  0  0  0  0  0  0
   58.9530   26.7460   45.2000 C   0  0  0  0  0  0  0  0  0  0  0  0
   57.8810   26.0710   44.3750 C   0  0  0  0  0  0  0  0  0  0  0  0
   58.0710   25.9420   43.1730 O   0  0  0  0  0  0  0  0  0  0  0  0
   56.6790   25.5130   44.9700 N   0  0  0  0  0  0  0  0  0  0  0  0
   56.1090   24.4570   44.1150 C   0  0  0  0  0  0  0  0  0  0  0  0
   54.8200   23.8730   44.7420 C   0  0  0  0  0  0  0  0  0  0  0  0
   54.5590   24.4040   46.0290 O   0  0  0  0  0  0  0  0  0  0  0  0
   55.6870   24.2270   46.8620 C   0  0  0  0  0  0  0  0  0  0  0  0
   56.9120   25.0090   46.3360 C   0  0  0  0  0  0  0  0  0  0  0  0
   57.7110   28.9420   45.0800 C   0  0  0  0  0  0  0  0  0  0  0  0
   58.3670   29.9980   44.4270 C   0  0  0  0  0  0  0  0  0  0  0  0
   57.6360   30.9430   43.6980 C   0  0  0  0  0  0  0  0  0  0  0  0
   56.2430   30.8480   43.6290 C   0  0  0  0  0  0  0  0  0  0  0  0
   55.5850   29.7960   44.2710 C   0  0  0  0  0  0  0  0  0  0  0  0
   56.3090   28.8410   44.9930 C   0  0  0  0  0  0  0  0  0  0  0  0
   55.6320   27.7940   45.6020 O   0  0  0  0  0  0  0  0  0  0  0  0
   60.8630   30.7490   46.9920 C   0  0  0  0  0  0  0  0  0  0  0  0
   61.1390   32.1310   46.9830 C   0  0  0  0  0  0  0  0  0  0  0  0
   62.4410   32.6240   46.8000 O   0  0  0  0  0  0  0  0  0  0  0  0
   63.2360   33.1970   47.8350 C   0  0  0  0  0  0  0  0  0  0  0  0
   59.1590   36.0814   47.0162 H   0  0  0  0  0  0  0  0  0  0  0  0
   60.3827   35.9428   45.7085 H   0  0  0  0  0  0  0  0  0  0  0  0
   58.9426   34.8691   45.7085 H   0  0  0  0  0  0  0  0  0  0  0  0
   57.9517   33.2924   47.4660 H   0  0  0  0  0  0  0  0  0  0  0  0
   57.5061   30.8512   47.6242 H   0  0  0  0  0  0  0  0  0  0  0  0
   59.8005   26.9959   44.5448 H   0  0  0  0  0  0  0  0  0  0  0  0
   59.2568   26.0506   45.9963 H   0  0  0  0  0  0  0  0  0  0  0  0
   55.9740   26.2860   45.0380 H   0  0  0  0  0  0  0  0  0  0  0  0
   55.8691   24.8823   43.1293 H   0  0  0  0  0  0  0  0  0  0  0  0
   56.8484   23.6486   44.0156 H   0  0  0  0  0  0  0  0  0  0  0  0
   53.9698   24.1062   44.0842 H   0  0  0  0  0  0  0  0  0  0  0  0
   54.9601   22.7872   44.8484 H   0  0  0  0  0  0  0  0  0  0  0  0
   55.4432   24.5840   47.8735 H   0  0  0  0  0  0  0  0  0  0  0  0
   55.9414   23.1569   46.8734 H   0  0  0  0  0  0  0  0  0  0  0  0
   57.1072   25.8609   47.0039 H   0  0  0  0  0  0  0  0  0  0  0  0
   57.7752   24.3276   46.3124 H   0  0  0  0  0  0  0  0  0  0  0  0
   59.4620   30.0830   44.4888 H   0  0  0  0  0  0  0  0  0  0  0  0
   58.1577   31.7607   43.1792 H   0  0  0  0  0  0  0  0  0  0  0  0
   55.6662   31.5999   43.0704 H   0  0  0  0  0  0  0  0  0  0  0  0
   54.4896   29.7180   44.2084 H   0  0  0  0  0  0  0  0  0  0  0  0
   61.6749   30.0284   46.8142 H   0  0  0  0  0  0  0  0  0  0  0  0
   62.8296   32.9041   48.8143 H   0  0  0  0  0  0  0  0  0  0  0  0
   64.2711   32.8360   47.7447 H   0  0  0  0  0  0  0  0  0  0  0  0
   63.2208   34.2932   47.7447 H   0  0  0  0  0  0  0  0  0  0  0  0
  1  2  1  0
  2  3  1  0
  3  4  2  0
  4  5  1  0
  5  6  2  0
  6  7  1  0
  7  8  2  0
  7  9  2  0
  7 10  1  0
 10 11  1  0
 11 12  1  0
 12 13  2  0
 12 14  1  0
 14 15  1  0
 15 16  1  0
 16 17  1  0
 17 18  1  0
 18 19  1  0
 10 20  1  0
 20 21  2  0
 21 22  1  0
 22 23  2  0
 23 24  1  0
 24 25  2  0
 25 26  1  0
  6 27  1  0
 27 28  2  0
 28 29  1  0
 29 30  1  0
 28  3  1  0
 19 14  1  0
 25 20  1  0
  1 31  1  0
  1 32  1  0
  1 33  1  0
  4 34  1  0
  5 35  1  0
 11 36  1  0
 11 37  1  0
 14 38  1  0
 15 39  1  0
 15 40  1  0
 16 41  1  0
 16 42  1  0
 18 43  1  0
 18 44  1  0
 19 45  1  0
 19 46  1  0
 21 47  1  0
 22 48  1  0
 23 49  1  0
 24 50  1  0
 27 51  1  0
 30 52  1  0
 30 53  1  0
 30 54  1  0
M  CHG  2  14   1  26  -1
M  END
>  <UniqueID>  (82) 
73

>  <SMILES>  (82) 
COc1ccc(S(=O)(=O)N(CC(=O)[NH+]2CCOCC2)c2ccccc2[O-])cc1OC

>  <Energy>  (82) 
73.71175165162867

>  <Genealogy>  (82) 
COc1ccc(S(=O)(=O)N(CC(=O)[NH+]2CCOCC2)c2ccccc2[O-])cc1OC (protonated)
COc1ccc(S(=O)(=O)N(CC(=O)[NH+]2CCOCC2)c2ccccc2[O-])cc1OC (3D coordinates assigned)
COc1ccc(S(=O)(=O)N(CC(=O)[NH+]2CCOCC2)c2ccccc2[O-])cc1OC (nonaromatic ring conformer: 73.71175165162867 kcal/mol)

>  <smiles>  (82) 
COc1ccc(S(=O)(=O)N(CC(=O)N2CCOCC2)c2ccccc2O)cc1OC

>  <score_type>  (82) 
oracle

>  <origin>  (82) 
adg

>  <m_score__min__energy>  (82) 
-8.9700000000000006

>  <m_primary>  (82) 
energy

$$$$
82:0
     RDKit          3D

 47 49  0  0  0  0  0  0  0  0999 V2000
   62.2650   33.6370   51.8450 C   0  0  0  0  0  0  0  0  0  0  0  0
   62.3470   34.2090   50.5440 O   0  0  0  0  0  0  0  0  0  0  0  0
   62.6510   33.4930   49.3740 C   0  0  0  0  0  0  0  0  0  0  0  0
   63.7660   33.8250   48.5750 C   0  0  0  0  0  0  0  0  0  0  0  0
   64.0840   33.0590   47.4500 C   0  0  0  0  0  0  0  0  0  0  0  0
   63.3050   31.9520   47.1160 C   0  0  0  0  0  0  0  0  0  0  0  0
   62.1960   31.6180   47.8940 C   0  0  0  0  0  0  0  0  0  0  0  0
   61.8440   32.3960   49.0030 C   0  0  0  0  0  0  0  0  0  0  0  0
   60.6800   32.0180   49.7490 N   0  0  0  0  0  0  0  0  0  0  0  0
   59.1270   32.7800   49.6190 S   0  0  0  0  0  0  0  0  0  0  0  0
   58.0530   31.7330   49.7050 O   0  0  0  0  0  0  0  0  0  0  0  0
   58.9500   33.7840   50.7250 O   0  0  0  0  0  0  0  0  0  0  0  0
   59.0260   33.6360   48.0860 C   0  0  0  0  0  0  0  0  0  0  0  0
   59.8300   34.7590   47.8500 C   0  0  0  0  0  0  0  0  0  0  0  0
   59.8050   35.3880   46.6010 C   0  0  0  0  0  0  0  0  0  0  0  0
   59.0040   34.8780   45.5750 C   0  0  0  0  0  0  0  0  0  0  0  0
   58.2190   33.7390   45.7890 C   0  0  0  0  0  0  0  0  0  0  0  0
   57.4400   33.2140   44.7010 N   0  0  0  0  0  0  0  0  0  0  0  0
   57.7920   32.1150   43.8460 C   0  0  0  0  0  0  0  0  0  0  0  0
   58.3420   32.3640   42.7400 O   0  0  0  0  0  0  0  0  0  0  0  0
   57.5550   30.7040   44.2310 C   0  0  0  0  0  0  0  0  0  0  0  0
   56.2470   30.2500   44.4660 C   0  0  0  0  0  0  0  0  0  0  0  0
   56.0220   28.9480   44.9210 C   0  0  0  0  0  0  0  0  0  0  0  0
   57.1010   28.0800   45.1420 C   0  0  0  0  0  0  0  0  0  0  0  0
   56.8420   26.4640   45.7860 S   0  0  0  0  0  0  0  0  0  0  0  0
   55.1520   26.2110   46.0380 N   0  0  0  0  0  0  0  0  0  0  0  0
   57.3530   25.4290   44.8230 O   0  0  0  0  0  0  0  0  0  0  0  0
   57.5760   26.3210   47.0890 O   0  0  0  0  0  0  0  0  0  0  0  0
   58.4040   28.5170   44.8690 C   0  0  0  0  0  0  0  0  0  0  0  0
   58.6290   29.8150   44.4070 C   0  0  0  0  0  0  0  0  0  0  0  0
   58.1990   33.1500   47.0660 C   0  0  0  0  0  0  0  0  0  0  0  0
   62.3784   34.4279   52.6011 H   0  0  0  0  0  0  0  0  0  0  0  0
   61.2876   33.1480   51.9696 H   0  0  0  0  0  0  0  0  0  0  0  0
   63.0657   32.8931   51.9696 H   0  0  0  0  0  0  0  0  0  0  0  0
   64.3888   34.6923   48.8394 H   0  0  0  0  0  0  0  0  0  0  0  0
   64.9496   33.3298   46.8276 H   0  0  0  0  0  0  0  0  0  0  0  0
   63.5649   31.3416   46.2386 H   0  0  0  0  0  0  0  0  0  0  0  0
   61.5931   30.7356   47.6335 H   0  0  0  0  0  0  0  0  0  0  0  0
   60.4812   35.1462   48.6475 H   0  0  0  0  0  0  0  0  0  0  0  0
   60.4166   36.2854   46.4257 H   0  0  0  0  0  0  0  0  0  0  0  0
   58.9905   35.3748   44.5937 H   0  0  0  0  0  0  0  0  0  0  0  0
   55.3948   30.9231   44.2909 H   0  0  0  0  0  0  0  0  0  0  0  0
   54.9943   28.6026   45.1066 H   0  0  0  0  0  0  0  0  0  0  0  0
   54.7690   27.0890   46.4550 H   0  0  0  0  0  0  0  0  0  0  0  0
   59.2533   27.8343   45.0194 H   0  0  0  0  0  0  0  0  0  0  0  0
   59.6536   30.1440   44.1793 H   0  0  0  0  0  0  0  0  0  0  0  0
   57.5285   32.3010   47.2650 H   0  0  0  0  0  0  0  0  0  0  0  0
  1  2  1  0
  2  3  1  0
  3  4  2  0
  4  5  1  0
  5  6  2  0
  6  7  1  0
  7  8  2  0
  8  9  1  0
  9 10  1  0
 10 11  2  0
 10 12  2  0
 10 13  1  0
 13 14  2  0
 14 15  1  0
 15 16  2  0
 16 17  1  0
 17 18  1  0
 18 19  1  0
 19 20  2  0
 19 21  1  0
 21 22  2  0
 22 23  1  0
 23 24  2  0
 24 25  1  0
 25 26  1  0
 25 27  2  0
 25 28  2  0
 24 29  1  0
 29 30  2  0
 17 31  2  0
  8  3  1  0
 31 13  1  0
 30 21  1  0
  1 32  1  0
  1 33  1  0
  1 34  1  0
  4 35  1  0
  5 36  1  0
  6 37  1  0
  7 38  1  0
 14 39  1  0
 15 40  1  0
 16 41  1  0
 22 42  1  0
 23 43  1  0
 26 44  1  0
 29 45  1  0
 30 46  1  0
 31 47  1  0
M  CHG  3   9  -1  18  -1  26  -1
M  END
>  <UniqueID>  (83) 
74

>  <SMILES>  (83) 
COc1ccccc1[N-]S(=O)(=O)c1cccc([N-]C(=O)c2ccc(S([NH-])(=O)=O)cc2)c1

>  <Energy>  (83) 
59.145695858500346

>  <Genealogy>  (83) 
COc1ccccc1[N-]S(=O)(=O)c1cccc([N-]C(=O)c2ccc(S([NH-])(=O)=O)cc2)c1 (protonated)
COc1ccccc1[N-]S(=O)(=O)c1cccc([N-]C(=O)c2ccc(S([NH-])(=O)=O)cc2)c1 (3D coordinates assigned)
COc1ccccc1[N-]S(=O)(=O)c1cccc([N-]C(=O)c2ccc(S([NH-])(=O)=O)cc2)c1 (optimized conformer: 59.145695858500346 kcal/mol)

>  <smiles>  (83) 
COc1ccccc1NS(=O)(=O)c1cccc(NC(=O)c2ccc(S(N)(=O)=O)cc2)c1

>  <score_type>  (83) 
oracle

>  <origin>  (83) 
adg

>  <m_score__min__energy>  (83) 
-13.92

>  <m_primary>  (83) 
energy

$$$$
83:0
     RDKit          3D

 53 55  0  0  0  0  0  0  0  0999 V2000
   60.3920   34.5870   46.3970 C   0  0  0  0  0  0  0  0  0  0  0  0
   61.4000   33.5430   46.8060 C   0  0  0  0  0  0  0  0  0  0  0  0
   62.7680   33.8590   46.7230 C   0  0  0  0  0  0  0  0  0  0  0  0
   63.7400   32.9210   47.0740 C   0  0  0  0  0  0  0  0  0  0  0  0
   63.3610   31.6470   47.5000 C   0  0  0  0  0  0  0  0  0  0  0  0
   62.0100   31.3040   47.5680 C   0  0  0  0  0  0  0  0  0  0  0  0
   61.0130   32.2380   47.2220 C   0  0  0  0  0  0  0  0  0  0  0  0
   59.5660   31.7950   47.2800 C   0  0  0  0  0  0  0  0  0  0  0  0
   58.9670   31.5540   45.8880 C   0  0  0  0  0  0  0  0  0  0  0  0
   57.7340   32.3870   45.6490 C   0  0  0  0  0  0  0  0  0  0  0  0
   57.6720   33.5390   46.1500 O   0  0  0  0  0  0  0  0  0  0  0  0
   56.6230   31.9110   44.8790 N   0  0  0  0  0  0  0  0  0  0  0  0
   56.6310   30.7150   44.0420 C   0  0  0  0  0  0  0  0  0  0  0  0
   55.4670   29.8010   44.4150 C   0  0  0  0  0  0  0  0  0  0  0  0
   55.9520   28.6370   45.1450 N   0  0  0  0  0  0  0  0  0  0  0  0
   57.2250   28.0380   44.8880 C   0  0  0  0  0  0  0  0  0  0  0  0
   57.6110   27.8970   43.6970 O   0  0  0  0  0  0  0  0  0  0  0  0
   58.0940   27.5850   46.0040 C   0  0  0  0  0  0  0  0  0  0  0  0
   59.3450   28.1940   46.2030 C   0  0  0  0  0  0  0  0  0  0  0  0
   60.1820   27.7700   47.2350 C   0  0  0  0  0  0  0  0  0  0  0  0
   59.7650   26.7350   48.0690 C   0  0  0  0  0  0  0  0  0  0  0  0
   58.5600   26.1490   47.8720 N   0  0  0  0  0  0  0  0  0  0  0  0
   57.7150   26.5350   46.8740 C   0  0  0  0  0  0  0  0  0  0  0  0
   56.5080   25.8550   46.6700 O   0  0  0  0  0  0  0  0  0  0  0  0
   56.1970   25.0390   45.5720 C   0  0  0  0  0  0  0  0  0  0  0  0
   54.8960   24.5290   45.4710 C   0  0  0  0  0  0  0  0  0  0  0  0
   54.5440   23.6920   44.4080 C   0  0  0  0  0  0  0  0  0  0  0  0
   55.4930   23.3480   43.4440 C   0  0  0  0  0  0  0  0  0  0  0  0
   56.7980   23.8410   43.5430 C   0  0  0  0  0  0  0  0  0  0  0  0
   57.1530   24.6800   44.6030 C   0  0  0  0  0  0  0  0  0  0  0  0
   59.9515   35.0433   47.2957 H   0  0  0  0  0  0  0  0  0  0  0  0
   60.8907   35.3635   45.7984 H   0  0  0  0  0  0  0  0  0  0  0  0
   59.5984   34.1159   45.7984 H   0  0  0  0  0  0  0  0  0  0  0  0
   63.0754   34.8570   46.3774 H   0  0  0  0  0  0  0  0  0  0  0  0
   64.8060   33.1860   47.0149 H   0  0  0  0  0  0  0  0  0  0  0  0
   64.1288   30.9118   47.7827 H   0  0  0  0  0  0  0  0  0  0  0  0
   61.7204   30.2944   47.8950 H   0  0  0  0  0  0  0  0  0  0  0  0
   59.5066   30.8597   47.8560 H   0  0  0  0  0  0  0  0  0  0  0  0
   58.9892   32.6016   47.7561 H   0  0  0  0  0  0  0  0  0  0  0  0
   59.7205   31.8098   45.1285 H   0  0  0  0  0  0  0  0  0  0  0  0
   58.6778   30.4947   45.8226 H   0  0  0  0  0  0  0  0  0  0  0  0
   56.5372   31.0099   42.9864 H   0  0  0  0  0  0  0  0  0  0  0  0
   57.5759   30.1741   44.1991 H   0  0  0  0  0  0  0  0  0  0  0  0
   54.7578   30.3560   45.0467 H   0  0  0  0  0  0  0  0  0  0  0  0
   54.9677   29.4637   43.4947 H   0  0  0  0  0  0  0  0  0  0  0  0
   59.6663   29.0109   45.5401 H   0  0  0  0  0  0  0  0  0  0  0  0
   61.1609   28.2477   47.3887 H   0  0  0  0  0  0  0  0  0  0  0  0
   60.4149   26.3935   48.8881 H   0  0  0  0  0  0  0  0  0  0  0  0
   54.1466   24.7889   46.2331 H   0  0  0  0  0  0  0  0  0  0  0  0
   53.5176   23.3039   44.3312 H   0  0  0  0  0  0  0  0  0  0  0  0
   55.2148   22.6900   42.6075 H   0  0  0  0  0  0  0  0  0  0  0  0
   57.5468   23.5678   42.7849 H   0  0  0  0  0  0  0  0  0  0  0  0
   58.1821   25.0608   44.6803 H   0  0  0  0  0  0  0  0  0  0  0  0
  1  2  1  0
  2  3  2  0
  3  4  1  0
  4  5  2  0
  5  6  1  0
  6  7  2  0
  7  8  1  0
  8  9  1  0
  9 10  1  0
 10 11  2  0
 10 12  1  0
 12 13  1  0
 13 14  1  0
 14 15  1  0
 15 16  1  0
 16 17  2  0
 16 18  1  0
 18 19  2  0
 19 20  1  0
 20 21  2  0
 21 22  1  0
 22 23  2  0
 23 24  1  0
 24 25  1  0
 25 26  2  0
 26 27  1  0
 27 28  2  0
 28 29  1  0
 29 30  2  0
  7  2  1  0
 23 18  1  0
 30 25  1  0
  1 31  1  0
  1 32  1  0
  1 33  1  0
  3 34  1  0
  4 35  1  0
  5 36  1  0
  6 37  1  0
  8 38  1  0
  8 39  1  0
  9 40  1  0
  9 41  1  0
 13 42  1  0
 13 43  1  0
 14 44  1  0
 14 45  1  0
 19 46  1  0
 20 47  1  0
 21 48  1  0
 26 49  1  0
 27 50  1  0
 28 51  1  0
 29 52  1  0
 30 53  1  0
M  CHG  2  12  -1  15  -1
M  END
>  <UniqueID>  (84) 
75

>  <SMILES>  (84) 
Cc1ccccc1CCC(=O)[N-]CC[N-]C(=O)c1cccnc1Oc1ccccc1

>  <Energy>  (84) 
49.963829261166545

>  <Genealogy>  (84) 
Cc1ccccc1CCC(=O)[N-]CC[N-]C(=O)c1cccnc1Oc1ccccc1 (protonated)
Cc1ccccc1CCC(=O)[N-]CC[N-]C(=O)c1cccnc1Oc1ccccc1 (3D coordinates assigned)
Cc1ccccc1CCC(=O)[N-]CC[N-]C(=O)c1cccnc1Oc1ccccc1 (optimized conformer: 49.963829261166545 kcal/mol)

>  <smiles>  (84) 
Cc1ccccc1CCC(=O)NCCNC(=O)c1cccnc1Oc1ccccc1

>  <score_type>  (84) 
oracle

>  <origin>  (84) 
adg

>  <m_score__min__energy>  (84) 
-12.92

>  <m_primary>  (84) 
energy

$$$$
84:0
     RDKit          3D

 47 49  0  0  0  0  0  0  0  0999 V2000
   57.2730   28.5530   43.3220 O   0  0  0  0  0  0  0  0  0  0  0  0
   56.6630   29.1350   44.2580 C   0  0  0  0  0  0  0  0  0  0  0  0
   56.6080   30.6330   44.2680 C   0  0  0  0  0  0  0  0  0  0  0  0
   57.0540   31.1150   45.5320 O   0  0  0  0  0  0  0  0  0  0  0  0
   57.8000   32.2890   45.7150 C   0  0  0  0  0  0  0  0  0  0  0  0
   58.0880   32.6970   47.0230 C   0  0  0  0  0  0  0  0  0  0  0  0
   58.8240   33.8640   47.2570 C   0  0  0  0  0  0  0  0  0  0  0  0
   59.2800   34.6300   46.1820 C   0  0  0  0  0  0  0  0  0  0  0  0
   58.9990   34.2310   44.8710 C   0  0  0  0  0  0  0  0  0  0  0  0
   58.2630   33.0660   44.6340 C   0  0  0  0  0  0  0  0  0  0  0  0
   55.9990   28.3420   45.2520 N   0  0  0  0  0  0  0  0  0  0  0  0
   56.5140   27.1580   45.8770 C   0  0  0  0  0  0  0  0  0  0  0  0
   55.8450   25.9280   45.7440 C   0  0  0  0  0  0  0  0  0  0  0  0
   56.3360   24.7830   46.3720 C   0  0  0  0  0  0  0  0  0  0  0  0
   57.4880   24.8550   47.1510 C   0  0  0  0  0  0  0  0  0  0  0  0
   58.1480   26.0760   47.3160 C   0  0  0  0  0  0  0  0  0  0  0  0
   57.6540   27.2440   46.7030 C   0  0  0  0  0  0  0  0  0  0  0  0
   58.3410   28.5020   46.8500 N   0  0  0  0  0  0  0  0  0  0  0  0
   59.4790   28.7030   47.7040 C   0  0  0  0  0  0  0  0  0  0  0  0
   59.7440   27.8800   48.6210 O   0  0  0  0  0  0  0  0  0  0  0  0
   60.3220   29.9340   47.5610 C   0  0  0  0  0  0  0  0  0  0  0  0
   60.2570   30.9770   49.0620 S   0  0  0  0  0  0  0  0  0  0  0  0
   61.5900   32.0710   48.5600 C   0  0  0  0  0  0  0  0  0  0  0  0
   61.7760   33.3000   49.2050 C   0  0  0  0  0  0  0  0  0  0  0  0
   62.8190   34.1440   48.8130 C   0  0  0  0  0  0  0  0  0  0  0  0
   63.6760   33.7640   47.7750 C   0  0  0  0  0  0  0  0  0  0  0  0
   63.4860   32.5420   47.1230 C   0  0  0  0  0  0  0  0  0  0  0  0
   62.4400   31.6990   47.5110 C   0  0  0  0  0  0  0  0  0  0  0  0
   57.2581   31.0293   43.4741 H   0  0  0  0  0  0  0  0  0  0  0  0
   55.5735   30.9636   44.0932 H   0  0  0  0  0  0  0  0  0  0  0  0
   57.7331   32.0958   47.8730 H   0  0  0  0  0  0  0  0  0  0  0  0
   59.0435   34.1781   48.2881 H   0  0  0  0  0  0  0  0  0  0  0  0
   59.8598   35.5465   46.3660 H   0  0  0  0  0  0  0  0  0  0  0  0
   59.3579   34.8351   44.0247 H   0  0  0  0  0  0  0  0  0  0  0  0
   58.0448   32.7552   43.6016 H   0  0  0  0  0  0  0  0  0  0  0  0
   54.9275   25.8683   45.1401 H   0  0  0  0  0  0  0  0  0  0  0  0
   55.8128   23.8229   46.2517 H   0  0  0  0  0  0  0  0  0  0  0  0
   57.8793   23.9493   47.6374 H   0  0  0  0  0  0  0  0  0  0  0  0
   59.0600   26.1251   47.9291 H   0  0  0  0  0  0  0  0  0  0  0  0
   57.9830   29.3310   46.3250 H   0  0  0  0  0  0  0  0  0  0  0  0
   61.3646   29.6331   47.3810 H   0  0  0  0  0  0  0  0  0  0  0  0
   59.9300   30.5218   46.7179 H   0  0  0  0  0  0  0  0  0  0  0  0
   61.1014   33.6011   50.0200 H   0  0  0  0  0  0  0  0  0  0  0  0
   62.9660   35.1083   49.3215 H   0  0  0  0  0  0  0  0  0  0  0  0
   64.4997   34.4268   47.4716 H   0  0  0  0  0  0  0  0  0  0  0  0
   64.1588   32.2439   46.3054 H   0  0  0  0  0  0  0  0  0  0  0  0
   62.2845   30.7420   46.9914 H   0  0  0  0  0  0  0  0  0  0  0  0
  1  2  2  0
  2  3  1  0
  3  4  1  0
  4  5  1  0
  5  6  2  0
  6  7  1  0
  7  8  2  0
  8  9  1  0
  9 10  2  0
  2 11  1  0
 11 12  1  0
 12 13  2  0
 13 14  1  0
 14 15  2  0
 15 16  1  0
 16 17  2  0
 17 18  1  0
 18 19  1  0
 19 20  2  0
 19 21  1  0
 21 22  1  0
 22 23  1  0
 23 24  2  0
 24 25  1  0
 25 26  2  0
 26 27  1  0
 27 28  2  0
 10  5  1  0
 17 12  1  0
 28 23  1  0
  3 29  1  0
  3 30  1  0
  6 31  1  0
  7 32  1  0
  8 33  1  0
  9 34  1  0
 10 35  1  0
 13 36  1  0
 14 37  1  0
 15 38  1  0
 16 39  1  0
 18 40  1  0
 21 41  1  0
 21 42  1  0
 24 43  1  0
 25 44  1  0
 26 45  1  0
 27 46  1  0
 28 47  1  0
M  CHG  1  11  -1
M  END
>  <UniqueID>  (85) 
76

>  <SMILES>  (85) 
O=C(COc1ccccc1)[N-]c1ccccc1NC(=O)CSc1ccccc1

>  <Energy>  (85) 
50.72274577460655

>  <Genealogy>  (85) 
O=C(COc1ccccc1)[N-]c1ccccc1NC(=O)CSc1ccccc1 (protonated)
O=C(COc1ccccc1)[N-]c1ccccc1NC(=O)CSc1ccccc1 (3D coordinates assigned)
O=C(COc1ccccc1)[N-]c1ccccc1NC(=O)CSc1ccccc1 (optimized conformer: 50.72274577460655 kcal/mol)

>  <smiles>  (85) 
O=C(COc1ccccc1)Nc1ccccc1NC(=O)CSc1ccccc1

>  <score_type>  (85) 
oracle

>  <origin>  (85) 
adg

>  <m_score__min__energy>  (85) 
-10.140000000000001

>  <m_primary>  (85) 
energy

$$$$
85:0
     RDKit          3D

 38 40  0  0  0  0  0  0  0  0999 V2000
   55.8876   22.8292   45.2557 H   0  0  0  0  0  0  0  0  0  0  0  0
   55.8250   23.9110   45.4450 C   0  0  0  0  0  0  0  0  0  0  0  0
   57.1240   24.9770   45.5370 S   0  0  0  0  0  0  0  0  0  0  0  0
   56.1420   26.3080   45.8220 C   0  0  0  0  0  0  0  0  0  0  0  0
   56.5970   27.5140   45.9890 N   0  0  0  0  0  0  0  0  0  0  0  0
   56.5280   28.5840   45.0330 C   0  0  0  0  0  0  0  0  0  0  0  0
   55.5280   29.3510   44.9820 O   0  0  0  0  0  0  0  0  0  0  0  0
   57.6830   28.8210   44.1190 C   0  0  0  0  0  0  0  0  0  0  0  0
   57.6370   28.1135   43.2780 H   0  0  0  0  0  0  0  0  0  0  0  0
   57.6417   29.8502   43.7330 H   0  0  0  0  0  0  0  0  0  0  0  0
   59.2370   28.5760   45.0350 S   0  0  0  0  0  0  0  0  0  0  0  0
   59.2510   30.2470   45.6810 C   0  0  0  0  0  0  0  0  0  0  0  0
   60.3790   30.7350   46.2530 N   0  0  0  0  0  0  0  0  0  0  0  0
   60.4350   31.9930   46.7650 C   0  0  0  0  0  0  0  0  0  0  0  0
   61.7050   32.4430   47.3810 C   0  0  0  0  0  0  0  0  0  0  0  0
   62.0810   31.9490   48.6430 C   0  0  0  0  0  0  0  0  0  0  0  0
   61.4415   31.2164   49.1570 H   0  0  0  0  0  0  0  0  0  0  0  0
   63.2640   32.3850   49.2470 C   0  0  0  0  0  0  0  0  0  0  0  0
   63.5576   31.9868   50.2295 H   0  0  0  0  0  0  0  0  0  0  0  0
   64.0740   33.3250   48.6060 C   0  0  0  0  0  0  0  0  0  0  0  0
   65.0077   33.6614   49.0804 H   0  0  0  0  0  0  0  0  0  0  0  0
   63.6980   33.8380   47.3620 C   0  0  0  0  0  0  0  0  0  0  0  0
   64.3332   34.5832   46.8608 H   0  0  0  0  0  0  0  0  0  0  0  0
   62.5160   33.4060   46.7530 C   0  0  0  0  0  0  0  0  0  0  0  0
   62.2188   33.8208   45.7785 H   0  0  0  0  0  0  0  0  0  0  0  0
   59.2950   32.8220   46.6740 C   0  0  0  0  0  0  0  0  0  0  0  0
   59.3170   34.1990   47.1160 C   0  0  0  0  0  0  0  0  0  0  0  0
   59.3340   35.3010   47.4700 N   0  0  0  0  0  0  0  0  0  0  0  0
   58.1380   32.2960   46.0780 C   0  0  0  0  0  0  0  0  0  0  0  0
   57.0950   32.9990   45.9750 O   0  0  0  0  0  0  0  0  0  0  0  0
   58.1370   31.0230   45.6000 N   0  0  0  0  0  0  0  0  0  0  0  0
   57.2720   30.6360   45.1580 H   0  0  0  0  0  0  0  0  0  0  0  0
   54.8320   25.9750   45.8510 N   0  0  0  0  0  0  0  0  0  0  0  0
   54.6560   24.6410   45.6510 C   0  0  0  0  0  0  0  0  0  0  0  0
   53.2960   24.0260   45.5950 C   0  0  0  0  0  0  0  0  0  0  0  0
   52.9267   23.8590   46.6176 H   0  0  0  0  0  0  0  0  0  0  0  0
   52.6098   24.7014   45.0631 H   0  0  0  0  0  0  0  0  0  0  0  0
   53.3499   23.0647   45.0631 H   0  0  0  0  0  0  0  0  0  0  0  0
  1  2  1  0
  2  3  1  0
  3  4  1  0
  4  5  2  0
  5  6  1  0
  6  7  2  0
  6  8  1  0
  8  9  1  0
  8 10  1  0
  8 11  1  0
 11 12  1  0
 12 13  2  0
 13 14  1  0
 14 15  1  0
 15 16  2  0
 16 17  1  0
 16 18  1  0
 18 19  1  0
 18 20  2  0
 20 21  1  0
 20 22  1  0
 22 23  1  0
 22 24  2  0
 24 25  1  0
 14 26  2  0
 26 27  1  0
 27 28  3  0
 26 29  1  0
 29 30  2  0
 29 31  1  0
 31 32  1  0
  4 33  1  0
 33 34  1  0
 34 35  1  0
 35 36  1  0
 35 37  1  0
 35 38  1  0
 34  2  2  0
 31 12  1  0
 24 15  1  0
M  CHG  1  33  -1
M  END
>  <UniqueID>  (86) 
77

>  <SMILES>  (86) 
Cc1cs/c(=N/C(=O)CSc2nc(-c3ccccc3)c(C#N)c(=O)[nH]2)[n-]1

>  <Energy>  (86) 
73.10249710453658

>  <Genealogy>  (86) 
Cc1csc(=NC(=O)CSc2nc(-c3ccccc3)c(C#N)c(=O)[nH]2)[n-]1 (protonated)
Cc1cs/c(=N/C(=O)CSc2nc(-c3ccccc3)c(C#N)c(=O)[nH]2)[n-]1 (cis-trans isomerization)
Cc1cs/c(=N/C(=O)CSc2nc(-c3ccccc3)c(C#N)c(=O)[nH]2)[n-]1 (3D coordinates assigned)
Cc1cs/c(=N/C(=O)CSc2nc(-c3ccccc3)c(C#N)c(=O)[nH]2)[n-]1 (optimized conformer: 73.10249710453658 kcal/mol)

>  <smiles>  (86) 
Cc1csc(=NC(=O)CSc2nc(-c3ccccc3)c(C#N)c(=O)[nH]2)[nH]1

>  <score_type>  (86) 
oracle

>  <origin>  (86) 
adg

>  <m_score__min__energy>  (86) 
-10.109999999999999

>  <m_primary>  (86) 
energy

$$$$
86:0
     RDKit          3D

 38 39  0  0  0  0  0  0  0  0999 V2000
   55.2710   29.0920   44.8700 N   0  0  0  0  0  0  0  0  0  0  0  0
   55.8850   29.9590   43.9200 C   0  0  0  0  0  0  0  0  0  0  0  0
   55.8500   29.6730   42.6940 O   0  0  0  0  0  0  0  0  0  0  0  0
   56.5730   31.2070   44.3840 C   0  0  0  0  0  0  0  0  0  0  0  0
   57.7430   30.8660   45.2260 N   0  0  0  0  0  0  0  0  0  0  0  0
   58.5670   29.8230   44.5620 C   0  0  0  0  0  0  0  0  0  0  0  0
   58.8310   28.6420   45.4570 C   0  0  0  0  0  0  0  0  0  0  0  0
   60.1390   28.3210   45.8550 C   0  0  0  0  0  0  0  0  0  0  0  0
   60.3710   27.2230   46.6890 C   0  0  0  0  0  0  0  0  0  0  0  0
   59.3020   26.4330   47.1240 C   0  0  0  0  0  0  0  0  0  0  0  0
   57.9990   26.7370   46.7200 C   0  0  0  0  0  0  0  0  0  0  0  0
   56.9630   25.9690   47.1380 F   0  0  0  0  0  0  0  0  0  0  0  0
   57.7620   27.8340   45.8840 C   0  0  0  0  0  0  0  0  0  0  0  0
   58.4480   32.1000   45.7020 C   0  0  0  0  0  0  0  0  0  0  0  0
   58.5110   32.2920   47.2410 C   0  0  0  0  0  0  0  0  0  0  0  0
   58.8450   33.7520   47.6260 C   0  0  0  0  0  0  0  0  0  0  0  0
   59.6030   34.4460   46.5760 N   0  0  0  0  0  0  0  0  0  0  0  0
   58.8350   34.5780   45.3210 C   0  0  0  0  0  0  0  0  0  0  0  0
   57.9120   33.3710   45.0270 C   0  0  0  0  0  0  0  0  0  0  0  0
   54.3950   29.3720   45.3640 H   0  0  0  0  0  0  0  0  0  0  0  0
   56.9107   31.7819   43.5091 H   0  0  0  0  0  0  0  0  0  0  0  0
   55.8666   31.8053   44.9782 H   0  0  0  0  0  0  0  0  0  0  0  0
   58.0371   29.4735   43.6636 H   0  0  0  0  0  0  0  0  0  0  0  0
   59.5376   30.2744   44.3086 H   0  0  0  0  0  0  0  0  0  0  0  0
   60.9836   28.9353   45.5095 H   0  0  0  0  0  0  0  0  0  0  0  0
   61.3966   26.9800   47.0037 H   0  0  0  0  0  0  0  0  0  0  0  0
   59.4867   25.5726   47.7840 H   0  0  0  0  0  0  0  0  0  0  0  0
   56.7365   28.0650   45.5599 H   0  0  0  0  0  0  0  0  0  0  0  0
   59.4885   31.9290   45.3889 H   0  0  0  0  0  0  0  0  0  0  0  0
   57.5355   32.0244   47.6731 H   0  0  0  0  0  0  0  0  0  0  0  0
   59.3091   31.6446   47.6333 H   0  0  0  0  0  0  0  0  0  0  0  0
   57.9049   34.2955   47.8015 H   0  0  0  0  0  0  0  0  0  0  0  0
   59.4695   33.7269   48.5312 H   0  0  0  0  0  0  0  0  0  0  0  0
   60.4880   33.9160   46.3900 H   0  0  0  0  0  0  0  0  0  0  0  0
   58.2129   35.4827   45.3880 H   0  0  0  0  0  0  0  0  0  0  0  0
   59.5660   34.6312   44.5007 H   0  0  0  0  0  0  0  0  0  0  0  0
   56.9037   33.5857   45.4107 H   0  0  0  0  0  0  0  0  0  0  0  0
   57.8800   33.2071   43.9397 H   0  0  0  0  0  0  0  0  0  0  0  0
  1  2  1  0
  2  3  2  0
  2  4  1  0
  4  5  1  0
  5  6  1  0
  6  7  1  0
  7  8  2  0
  8  9  1  0
  9 10  2  0
 10 11  1  0
 11 12  1  0
 11 13  2  0
  5 14  1  0
 14 15  1  0
 15 16  1  0
 16 17  1  0
 17 18  1  0
 18 19  1  0
 13  7  1  0
 19 14  1  0
  1 20  1  0
  4 21  1  0
  4 22  1  0
  6 23  1  0
  6 24  1  0
  8 25  1  0
  9 26  1  0
 10 27  1  0
 13 28  1  0
 14 29  1  0
 15 30  1  0
 15 31  1  0
 16 32  1  0
 16 33  1  0
 17 34  1  0
 18 35  1  0
 18 36  1  0
 19 37  1  0
 19 38  1  0
M  CHG  1   1  -1
M  END
>  <UniqueID>  (87) 
78

>  <SMILES>  (87) 
[NH-]C(=O)CN(Cc1cccc(F)c1)C1CCNCC1

>  <Energy>  (87) 
51.07188380610413

>  <Genealogy>  (87) 
[NH-]C(=O)CN(Cc1cccc(F)c1)C1CCNCC1 (protonated)
[NH-]C(=O)CN(Cc1cccc(F)c1)C1CCNCC1 (3D coordinates assigned)
[NH-]C(=O)CN(Cc1cccc(F)c1)C1CCNCC1 (nonaromatic ring conformer: 51.07188380610413 kcal/mol)

>  <smiles>  (87) 
NC(=O)CN(Cc1cccc(F)c1)C1CCNCC1

>  <score_type>  (87) 
oracle

>  <origin>  (87) 
adg

>  <m_score__min__energy>  (87) 
-9.7599999999999998

>  <m_primary>  (87) 
energy

$$$$
87:0
     RDKit          3D

 50 52  0  0  0  0  0  0  0  0999 V2000
   59.5230   29.4240   44.7000 O   0  0  0  0  0  0  0  0  0  0  0  0
   59.2560   29.4260   45.9330 C   0  0  0  0  0  0  0  0  0  0  0  0
   60.2890   29.9010   46.9110 C   0  0  0  0  0  0  0  0  0  0  0  0
   59.6490   30.2880   48.1790 N   0  0  0  0  0  0  0  0  0  0  0  0
   59.5680   31.6140   48.5030 C   0  0  0  0  0  0  0  0  0  0  0  0
   58.9820   32.0170   49.7040 C   0  0  0  0  0  0  0  0  0  0  0  0
   58.4940   31.0390   50.5650 C   0  0  0  0  0  0  0  0  0  0  0  0
   57.9540   31.3670   51.6560 O   0  0  0  0  0  0  0  0  0  0  0  0
   58.6030   29.7290   50.2290 N   0  0  0  0  0  0  0  0  0  0  0  0
   59.1760   29.3450   49.0570 C   0  0  0  0  0  0  0  0  0  0  0  0
   59.2650   28.1150   48.7920 O   0  0  0  0  0  0  0  0  0  0  0  0
   57.9930   28.9330   46.4040 N   0  0  0  0  0  0  0  0  0  0  0  0
   56.9540   28.4430   45.4920 C   0  0  2  0  0  0  0  0  0  0  0  0
   57.5340   27.3270   44.5980 C   0  0  0  0  0  0  0  0  0  0  0  0
   57.1610   25.8990   45.0620 C   0  0  1  0  0  0  0  0  0  0  0  0
   58.2830   25.2650   45.9110 C   0  0  0  0  0  0  0  0  0  0  0  0
   57.6230   24.7020   47.1830 C   0  0  0  0  0  0  0  0  0  0  0  0
   56.2730   25.2300   47.2170 N   0  0  0  0  0  0  0  0  0  0  0  0
   56.0030   25.8760   45.9920 C   0  0  0  0  0  0  0  0  0  0  0  0
   54.8640   26.3330   45.7180 O   0  0  0  0  0  0  0  0  0  0  0  0
   56.4250   29.5970   44.6820 C   0  0  0  0  0  0  0  0  0  0  0  0
   55.6840   29.3730   43.6860 O   0  0  0  0  0  0  0  0  0  0  0  0
   56.7140   30.9440   45.0770 N   0  0  0  0  0  0  0  0  0  0  0  0
   57.3790   31.9110   44.2070 C   0  0  0  0  0  0  0  0  0  0  0  0
   58.0140   32.9990   45.0350 C   0  0  0  0  0  0  0  0  0  0  0  0
   59.0130   33.8130   44.4770 C   0  0  0  0  0  0  0  0  0  0  0  0
   59.6350   34.7990   45.2530 C   0  0  0  0  0  0  0  0  0  0  0  0
   59.2710   34.9740   46.5920 C   0  0  0  0  0  0  0  0  0  0  0  0
   58.2820   34.1650   47.1560 C   0  0  0  0  0  0  0  0  0  0  0  0
   57.6550   33.1790   46.3820 C   0  0  0  0  0  0  0  0  0  0  0  0
   61.0097   29.0917   47.0999 H   0  0  0  0  0  0  0  0  0  0  0  0
   60.8074   30.7748   46.4894 H   0  0  0  0  0  0  0  0  0  0  0  0
   59.9682   32.3697   47.8111 H   0  0  0  0  0  0  0  0  0  0  0  0
   58.9077   33.0833   49.9638 H   0  0  0  0  0  0  0  0  0  0  0  0
   57.8040   28.9500   47.4310 H   0  0  0  0  0  0  0  0  0  0  0  0
   56.1157   28.0116   46.0587 H   0  0  0  0  0  0  0  0  0  0  0  0
   57.1549   27.4696   43.5753 H   0  0  0  0  0  0  0  0  0  0  0  0
   58.6296   27.4069   44.6555 H   0  0  0  0  0  0  0  0  0  0  0  0
   56.9586   25.3659   44.1214 H   0  0  0  0  0  0  0  0  0  0  0  0
   58.7704   24.4551   45.3484 H   0  0  0  0  0  0  0  0  0  0  0  0
   59.0513   26.0101   46.1648 H   0  0  0  0  0  0  0  0  0  0  0  0
   57.5999   23.6029   47.1441 H   0  0  0  0  0  0  0  0  0  0  0  0
   58.1851   24.9913   48.0832 H   0  0  0  0  0  0  0  0  0  0  0  0
   58.1562   31.3991   43.6206 H   0  0  0  0  0  0  0  0  0  0  0  0
   56.6358   32.3591   43.5311 H   0  0  0  0  0  0  0  0  0  0  0  0
   59.3081   33.6756   43.4263 H   0  0  0  0  0  0  0  0  0  0  0  0
   60.4122   35.4378   44.8080 H   0  0  0  0  0  0  0  0  0  0  0  0
   59.7629   35.7476   47.2000 H   0  0  0  0  0  0  0  0  0  0  0  0
   57.9948   34.3019   48.2090 H   0  0  0  0  0  0  0  0  0  0  0  0
   56.8780   32.5428   46.8310 H   0  0  0  0  0  0  0  0  0  0  0  0
  1  2  2  0
  2  3  1  0
  3  4  1  0
  4  5  1  0
  5  6  2  0
  6  7  1  0
  7  8  2  0
  7  9  1  0
  9 10  1  0
 10 11  2  0
  2 12  1  0
 12 13  1  0
 13 14  1  0
 14 15  1  0
 15 16  1  0
 16 17  1  0
 17 18  1  0
 18 19  1  0
 19 20  2  0
 13 21  1  0
 21 22  2  0
 21 23  1  0
 23 24  1  0
 24 25  1  0
 25 26  2  0
 26 27  1  0
 27 28  2  0
 28 29  1  0
 29 30  2  0
 10  4  1  0
 19 15  1  0
 30 25  1  0
  3 31  1  0
  3 32  1  0
  5 33  1  0
  6 34  1  0
 12 35  1  0
 13 36  1  1
 14 37  1  0
 14 38  1  0
 15 39  1  6
 16 40  1  0
 16 41  1  0
 17 42  1  0
 17 43  1  0
 24 44  1  0
 24 45  1  0
 26 46  1  0
 27 47  1  0
 28 48  1  0
 29 49  1  0
 30 50  1  0
M  CHG  3   9  -1  18  -1  23  -1
M  END
>  <UniqueID>  (88) 
79

>  <SMILES>  (88) 
O=C(Cn1ccc(=O)[n-]c1=O)N[C@H](C[C@H]1CC[N-]C1=O)C(=O)[N-]Cc1ccccc1

>  <Energy>  (88) 
53.66126605770713

>  <Genealogy>  (88) 
O=C(Cn1ccc(=O)[n-]c1=O)NC(CC1CC[N-]C1=O)C(=O)[N-]Cc1ccccc1 (protonated)
O=C(Cn1ccc(=O)[n-]c1=O)N[C@H](C[C@H]1CC[N-]C1=O)C(=O)[N-]Cc1ccccc1 (chirality)
O=C(Cn1ccc(=O)[n-]c1=O)N[C@H](C[C@H]1CC[N-]C1=O)C(=O)[N-]Cc1ccccc1 (3D coordinates assigned)
O=C(Cn1ccc(=O)[n-]c1=O)N[C@H](C[C@H]1CC[N-]C1=O)C(=O)[N-]Cc1ccccc1 (nonaromatic ring conformer: 53.66126605770713 kcal/mol)

>  <smiles>  (88) 
O=C(Cn1ccc(=O)[nH]c1=O)NC(CC1CCNC1=O)C(=O)NCc1ccccc1

>  <score_type>  (88) 
oracle

>  <origin>  (88) 
adg

>  <m_score__min__energy>  (88) 
-13.02

>  <m_primary>  (88) 
energy

$$$$
88:0
     RDKit          3D

 51 53  0  0  0  0  0  0  0  0999 V2000
   58.5840   31.9410   50.0160 C   0  0  0  0  0  0  0  0  0  0  0  0
   59.4190   33.0710   50.5960 C   0  0  0  0  0  0  0  0  0  0  0  0
   59.7250   34.0060   49.5670 O   0  0  0  0  0  0  0  0  0  0  0  0
   60.7870   33.8830   48.6560 C   0  0  0  0  0  0  0  0  0  0  0  0
   62.1260   34.0720   49.0520 C   0  0  0  0  0  0  0  0  0  0  0  0
   63.1620   33.9540   48.1230 C   0  0  0  0  0  0  0  0  0  0  0  0
   62.8770   33.6500   46.7930 C   0  0  0  0  0  0  0  0  0  0  0  0
   61.5570   33.4610   46.3840 C   0  0  0  0  0  0  0  0  0  0  0  0
   60.5000   33.5640   47.3090 C   0  0  0  0  0  0  0  0  0  0  0  0
   59.0740   33.3800   46.8330 C   0  0  2  0  0  0  0  0  0  0  0  0
   58.9400   32.0440   46.0640 C   0  0  0  0  0  0  0  0  0  0  0  0
   57.5450   31.8290   45.6250 N   0  0  0  0  0  0  0  0  0  0  0  0
   57.4950   30.8150   44.5510 C   0  0  0  0  0  0  0  0  0  0  0  0
   56.2460   29.9780   44.6660 C   0  0  0  0  0  0  0  0  0  0  0  0
   55.1460   30.4610   44.2880 O   0  0  0  0  0  0  0  0  0  0  0  0
   56.2590   28.6710   45.2530 N   0  0  0  0  0  0  0  0  0  0  0  0
   57.3980   27.7620   45.2310 C   0  0  0  0  0  0  0  0  0  0  0  0
   58.5370   28.3750   45.9930 C   0  0  0  0  0  0  0  0  0  0  0  0
   58.3990   28.6680   47.3590 C   0  0  0  0  0  0  0  0  0  0  0  0
   59.4460   29.2750   48.0590 C   0  0  0  0  0  0  0  0  0  0  0  0
   60.6330   29.6040   47.3980 C   0  0  0  0  0  0  0  0  0  0  0  0
   61.6470   30.1950   48.0770 F   0  0  0  0  0  0  0  0  0  0  0  0
   60.7720   29.3300   46.0340 C   0  0  0  0  0  0  0  0  0  0  0  0
   59.7270   28.7220   45.3310 C   0  0  0  0  0  0  0  0  0  0  0  0
   56.8660   33.0910   45.2330 C   0  0  0  0  0  0  0  0  0  0  0  0
   57.8620   34.2300   44.9650 C   0  0  0  0  0  0  0  0  0  0  0  0
   58.6680   34.5300   46.0930 O   0  0  0  0  0  0  0  0  0  0  0  0
   58.1474   31.3502   50.8347 H   0  0  0  0  0  0  0  0  0  0  0  0
   57.7778   32.3613   49.3968 H   0  0  0  0  0  0  0  0  0  0  0  0
   59.2225   31.2938   49.3968 H   0  0  0  0  0  0  0  0  0  0  0  0
   58.8527   33.5744   51.3934 H   0  0  0  0  0  0  0  0  0  0  0  0
   60.3518   32.6634   51.0128 H   0  0  0  0  0  0  0  0  0  0  0  0
   62.3568   34.3141   50.0999 H   0  0  0  0  0  0  0  0  0  0  0  0
   64.2046   34.1012   48.4414 H   0  0  0  0  0  0  0  0  0  0  0  0
   63.6955   33.5589   46.0638 H   0  0  0  0  0  0  0  0  0  0  0  0
   61.3398   33.2297   45.3307 H   0  0  0  0  0  0  0  0  0  0  0  0
   58.3818   33.3021   47.6844 H   0  0  0  0  0  0  0  0  0  0  0  0
   59.5961   32.0684   45.1815 H   0  0  0  0  0  0  0  0  0  0  0  0
   59.2298   31.2209   46.7337 H   0  0  0  0  0  0  0  0  0  0  0  0
   57.5012   31.3222   43.5749 H   0  0  0  0  0  0  0  0  0  0  0  0
   58.3715   30.1570   44.6447 H   0  0  0  0  0  0  0  0  0  0  0  0
   57.1151   26.8071   45.6981 H   0  0  0  0  0  0  0  0  0  0  0  0
   57.7056   27.5819   44.1903 H   0  0  0  0  0  0  0  0  0  0  0  0
   57.4632   28.4190   47.8808 H   0  0  0  0  0  0  0  0  0  0  0  0
   59.3356   29.4940   49.1313 H   0  0  0  0  0  0  0  0  0  0  0  0
   61.7045   29.5930   45.5131 H   0  0  0  0  0  0  0  0  0  0  0  0
   59.8369   28.5147   44.2563 H   0  0  0  0  0  0  0  0  0  0  0  0
   56.2820   32.9093   44.3187 H   0  0  0  0  0  0  0  0  0  0  0  0
   56.2195   33.3988   46.0680 H   0  0  0  0  0  0  0  0  0  0  0  0
   58.5178   33.9353   44.1325 H   0  0  0  0  0  0  0  0  0  0  0  0
   57.2788   35.1312   44.7246 H   0  0  0  0  0  0  0  0  0  0  0  0
  1  2  1  0
  2  3  1  0
  3  4  1  0
  4  5  2  0
  5  6  1  0
  6  7  2  0
  7  8  1  0
  8  9  2  0
  9 10  1  0
 10 11  1  0
 11 12  1  0
 12 13  1  0
 13 14  1  0
 14 15  2  0
 14 16  1  0
 16 17  1  0
 17 18  1  0
 18 19  2  0
 19 20  1  0
 20 21  2  0
 21 22  1  0
 21 23  1  0
 23 24  2  0
 12 25  1  0
 25 26  1  0
 26 27  1  0
  9  4  1  0
 27 10  1  0
 24 18  1  0
  1 28  1  0
  1 29  1  0
  1 30  1  0
  2 31  1  0
  2 32  1  0
  5 33  1  0
  6 34  1  0
  7 35  1  0
  8 36  1  0
 10 37  1  1
 11 38  1  0
 11 39  1  0
 13 40  1  0
 13 41  1  0
 17 42  1  0
 17 43  1  0
 19 44  1  0
 20 45  1  0
 23 46  1  0
 24 47  1  0
 25 48  1  0
 25 49  1  0
 26 50  1  0
 26 51  1  0
M  CHG  1  16  -1
M  END
>  <UniqueID>  (89) 
80

>  <SMILES>  (89) 
CCOc1ccccc1[C@@H]1CN(CC(=O)[N-]Cc2ccc(F)cc2)CCO1

>  <Energy>  (89) 
60.73978183484175

>  <Genealogy>  (89) 
CCOc1ccccc1C1CN(CC(=O)[N-]Cc2ccc(F)cc2)CCO1 (protonated)
CCOc1ccccc1[C@@H]1CN(CC(=O)[N-]Cc2ccc(F)cc2)CCO1 (chirality)
CCOc1ccccc1[C@@H]1CN(CC(=O)[N-]Cc2ccc(F)cc2)CCO1 (3D coordinates assigned)
CCOc1ccccc1[C@@H]1CN(CC(=O)[N-]Cc2ccc(F)cc2)CCO1 (nonaromatic ring conformer: 60.73978183484175 kcal/mol)

>  <smiles>  (89) 
CCOc1ccccc1C1CN(CC(=O)NCc2ccc(F)cc2)CCO1

>  <score_type>  (89) 
oracle

>  <origin>  (89) 
adg

>  <m_score__min__energy>  (89) 
-9.4100000000000001

>  <m_primary>  (89) 
energy

$$$$
89:0
     RDKit          3D

 21 22  0  0  0  0  0  0  0  0999 V2000
   57.6880   29.7000   44.8520 O   0  0  0  0  0  0  0  0  0  0  0  0
   57.2330   28.6070   45.2770 C   0  0  0  0  0  0  0  0  0  0  0  0
   55.9160   28.3110   45.2620 N   0  0  0  0  0  0  0  0  0  0  0  0
   55.8860   27.0770   45.7900 C   0  0  0  0  0  0  0  0  0  0  0  0
   54.7210   26.3430   45.9720 O   0  0  0  0  0  0  0  0  0  0  0  0
   57.1570   26.6660   46.1120 C   0  0  0  0  0  0  0  0  0  0  0  0
   57.5580   25.3350   46.6690 C   0  0  0  0  0  0  0  0  0  0  0  0
   57.1600   24.2330   45.7200 C   0  0  0  0  0  0  0  0  0  0  0  0
   56.8480   24.5450   44.3850 C   0  0  0  0  0  0  0  0  0  0  0  0
   56.4460   23.5420   43.4990 C   0  0  0  0  0  0  0  0  0  0  0  0
   56.3420   22.2210   43.9390 C   0  0  0  0  0  0  0  0  0  0  0  0
   55.9420   21.2240   43.0570 O   0  0  0  0  0  0  0  0  0  0  0  0
   56.6380   21.9010   45.2670 C   0  0  0  0  0  0  0  0  0  0  0  0
   57.0420   22.8990   46.1600 C   0  0  0  0  0  0  0  0  0  0  0  0
   57.3220   22.5580   47.4780 O   0  0  0  0  0  0  0  0  0  0  0  0
   58.0280   27.6350   45.7790 N   0  0  0  0  0  0  0  0  0  0  0  0
   58.6484   25.3147   46.8128 H   0  0  0  0  0  0  0  0  0  0  0  0
   57.0496   25.1807   47.6322 H   0  0  0  0  0  0  0  0  0  0  0  0
   56.9208   25.5855   44.0357 H   0  0  0  0  0  0  0  0  0  0  0  0
   56.2113   23.7934   42.4541 H   0  0  0  0  0  0  0  0  0  0  0  0
   56.5529   20.8598   45.6114 H   0  0  0  0  0  0  0  0  0  0  0  0
  1  2  2  0
  2  3  1  0
  3  4  1  0
  4  5  1  0
  4  6  2  0
  6  7  1  0
  7  8  1  0
  8  9  2  0
  9 10  1  0
 10 11  2  0
 11 12  1  0
 11 13  1  0
 13 14  2  0
 14 15  1  0
  6 16  1  0
 16  2  1  0
 14  8  1  0
  7 17  1  0
  7 18  1  0
  9 19  1  0
 10 20  1  0
 13 21  1  0
M  CHG  5   3  -1   5  -1  12  -1  15  -1  16  -1
M  END
>  <UniqueID>  (90) 
81

>  <SMILES>  (90) 
O=c1[n-]c([O-])c(Cc2ccc([O-])cc2[O-])[n-]1

>  <Energy>  (90) 
50.3778852706822

>  <Genealogy>  (90) 
O=c1[n-]c([O-])c(Cc2ccc([O-])cc2[O-])[n-]1 (protonated)
O=c1[n-]c([O-])c(Cc2ccc([O-])cc2[O-])[n-]1 (3D coordinates assigned)
O=c1[n-]c([O-])c(Cc2ccc([O-])cc2[O-])[n-]1 (optimized conformer: 50.3778852706822 kcal/mol)

>  <smiles>  (90) 
O=c1[nH]c(O)c(Cc2ccc(O)cc2O)[nH]1

>  <score_type>  (90) 
oracle

>  <origin>  (90) 
adg

>  <m_score__min__energy>  (90) 
-16.260000000000002

>  <m_primary>  (90) 
energy

$$$$
90:0
     RDKit          3D

 40 43  0  0  0  0  0  0  0  0999 V2000
   51.0190   32.3110   49.9550 N   0  0  0  0  0  0  0  0  0  0  0  0
   51.4040   32.3400   51.3280 C   0  0  0  0  0  0  0  0  0  0  0  0
   50.9870   33.2850   52.0520 O   0  0  0  0  0  0  0  0  0  0  0  0
   52.2840   31.2860   51.9100 C   0  0  0  0  0  0  0  0  0  0  0  0
   53.6770   31.4090   51.7740 C   0  0  0  0  0  0  0  0  0  0  0  0
   54.5540   30.4540   52.3030 C   0  0  0  0  0  0  0  0  0  0  0  0
   56.0050   30.6800   52.1470 C   0  0  0  0  0  0  0  0  0  0  0  0
   56.7460   29.7340   51.6500 N   0  0  0  0  0  0  0  0  0  0  0  0
   58.1060   29.8730   51.4340 O   0  0  0  0  0  0  0  0  0  0  0  0
   58.7740   31.1270   51.5580 C   0  0  1  0  0  0  0  0  0  0  0  0
   58.7370   31.8560   50.2040 C   0  0  0  0  0  0  0  0  0  0  0  0
   59.2590   33.2560   50.3340 C   0  0  0  0  0  0  0  0  0  0  0  0
   59.7360   33.8420   49.3280 O   0  0  0  0  0  0  0  0  0  0  0  0
   59.1650   33.9710   51.6160 C   0  0  0  0  0  0  0  0  0  0  0  0
   58.6750   33.3760   52.7080 C   0  0  0  0  0  0  0  0  0  0  0  0
   58.1260   31.9640   52.6950 C   0  0  2  0  0  0  0  0  0  0  0  0
   58.4310   31.3870   53.9450 O   0  0  0  0  0  0  0  0  0  0  0  0
   56.5920   32.0260   52.5020 C   0  0  0  0  0  0  0  0  0  0  0  0
   54.0350   29.3240   52.9780 C   0  0  0  0  0  0  0  0  0  0  0  0
   54.8780   28.3110   53.4850 C   0  0  0  0  0  0  0  0  0  0  0  0
   54.3430   27.2080   54.1490 C   0  0  0  0  0  0  0  0  0  0  0  0
   52.9650   27.0880   54.3130 C   0  0  0  0  0  0  0  0  0  0  0  0
   52.1110   28.0680   53.8050 C   0  0  0  0  0  0  0  0  0  0  0  0
   52.6290   29.1890   53.1280 C   0  0  0  0  0  0  0  0  0  0  0  0
   51.7630   30.1670   52.5990 C   0  0  0  0  0  0  0  0  0  0  0  0
   50.3870   30.0200   52.7600 O   0  0  0  0  0  0  0  0  0  0  0  0
   50.0140   32.3370   49.6780 H   0  0  0  0  0  0  0  0  0  0  0  0
   54.0890   32.2771   51.2386 H   0  0  0  0  0  0  0  0  0  0  0  0
   59.8284   30.9723   51.8307 H   0  0  0  0  0  0  0  0  0  0  0  0
   59.3583   31.3058   49.4820 H   0  0  0  0  0  0  0  0  0  0  0  0
   57.6937   31.9012   49.8582 H   0  0  0  0  0  0  0  0  0  0  0  0
   59.5045   35.0155   51.6772 H   0  0  0  0  0  0  0  0  0  0  0  0
   58.6702   33.9348   53.6555 H   0  0  0  0  0  0  0  0  0  0  0  0
   58.4380   30.4000   53.8430 H   0  0  0  0  0  0  0  0  0  0  0  0
   56.1315   32.3774   53.4371 H   0  0  0  0  0  0  0  0  0  0  0  0
   56.3847   32.7142   51.6693 H   0  0  0  0  0  0  0  0  0  0  0  0
   55.9672   28.3929   53.3548 H   0  0  0  0  0  0  0  0  0  0  0  0
   55.0117   26.4295   54.5449 H   0  0  0  0  0  0  0  0  0  0  0  0
   52.5490   26.2191   54.8440 H   0  0  0  0  0  0  0  0  0  0  0  0
   51.0236   27.9639   53.9346 H   0  0  0  0  0  0  0  0  0  0  0  0
  1  2  1  0
  2  3  2  0
  2  4  1  0
  4  5  2  0
  5  6  1  0
  6  7  1  0
  7  8  2  0
  8  9  1  0
  9 10  1  0
 10 11  1  0
 11 12  1  0
 12 13  2  0
 12 14  1  0
 14 15  2  0
 15 16  1  0
 16 17  1  1
 16 18  1  0
  6 19  2  0
 19 20  1  0
 20 21  2  0
 21 22  1  0
 22 23  2  0
 23 24  1  0
 24 25  2  0
 25 26  1  0
 25  4  1  0
 18  7  1  0
 24 19  1  0
 16 10  1  0
  1 27  1  0
  5 28  1  0
 10 29  1  1
 11 30  1  0
 11 31  1  0
 14 32  1  0
 15 33  1  0
 17 34  1  0
 18 35  1  0
 18 36  1  0
 20 37  1  0
 21 38  1  0
 22 39  1  0
 23 40  1  0
M  CHG  2   1  -1  26  -1
M  END
>  <UniqueID>  (91) 
82

>  <SMILES>  (91) 
[NH-]C(=O)c1cc(C2=NO[C@H]3CC(=O)C=C[C@@]3(O)C2)c2ccccc2c1[O-]

>  <Energy>  (91) 
60.927376635264245

>  <Genealogy>  (91) 
[NH-]C(=O)c1cc(C2=NOC3CC(=O)C=CC3(O)C2)c2ccccc2c1[O-] (protonated)
[NH-]C(=O)c1cc(C2=NO[C@H]3CC(=O)C=C[C@@]3(O)C2)c2ccccc2c1[O-] (chirality)
[NH-]C(=O)c1cc(C2=NO[C@H]3CC(=O)C=C[C@@]3(O)C2)c2ccccc2c1[O-] (3D coordinates assigned)
[NH-]C(=O)c1cc(C2=NO[C@H]3CC(=O)C=C[C@@]3(O)C2)c2ccccc2c1[O-] (nonaromatic ring conformer: 60.927376635264245 kcal/mol)

>  <smiles>  (91) 
NC(=O)c1cc(C2=NOC3CC(=O)C=CC3(O)C2)c2ccccc2c1O

>  <score_type>  (91) 
oracle

>  <origin>  (91) 
adg

>  <m_score__min__energy>  (91) 
-13.26

>  <m_primary>  (91) 
energy

$$$$
91:0
     RDKit          3D

 61 63  0  0  0  0  0  0  0  0999 V2000
   63.2030   34.1860   50.9310 C   0  0  0  0  0  0  0  0  0  0  0  0
   62.2650   34.4480   49.7440 C   0  0  0  0  0  0  0  0  0  0  0  0
   62.3880   33.4650   48.6440 N   0  0  0  0  0  0  0  0  0  0  0  0
   63.3140   33.9020   47.5790 C   0  0  0  0  0  0  0  0  0  0  0  0
   63.8130   32.6990   46.7850 C   0  0  0  0  0  0  0  0  0  0  0  0
   60.8290   32.9780   48.0050 S   0  0  0  0  0  0  0  0  0  0  0  0
   59.8220   34.0760   48.2100 O   0  0  0  0  0  0  0  0  0  0  0  0
   60.9410   32.7210   46.5280 O   0  0  0  0  0  0  0  0  0  0  0  0
   60.2690   31.4890   48.7890 C   0  0  0  0  0  0  0  0  0  0  0  0
   60.7060   30.2510   48.2900 C   0  0  0  0  0  0  0  0  0  0  0  0
   60.2960   29.0520   48.8790 C   0  0  0  0  0  0  0  0  0  0  0  0
   60.7620   27.8130   48.3260 N   0  0  0  0  0  0  0  0  0  0  0  0
   60.3930   27.2620   47.0540 C   0  0  0  0  0  0  0  0  0  0  0  0
   61.2060   26.4960   46.4700 O   0  0  0  0  0  0  0  0  0  0  0  0
   59.0700   27.5230   46.4380 C   0  0  0  0  0  0  0  0  0  0  0  0
   58.0730   26.5330   46.4280 C   0  0  0  0  0  0  0  0  0  0  0  0
   56.8310   26.7880   45.8430 C   0  0  0  0  0  0  0  0  0  0  0  0
   56.5750   28.0250   45.2500 C   0  0  0  0  0  0  0  0  0  0  0  0
   57.5670   29.0150   45.2290 C   0  0  0  0  0  0  0  0  0  0  0  0
   57.2530   30.5700   44.4530 S   0  0  0  0  0  0  0  0  0  0  0  0
   57.4210   30.4250   42.9670 O   0  0  0  0  0  0  0  0  0  0  0  0
   55.8310   30.9800   44.7230 O   0  0  0  0  0  0  0  0  0  0  0  0
   58.3370   31.8130   45.0370 N   0  0  0  0  0  0  0  0  0  0  0  0
   58.0830   32.1350   46.4590 C   0  0  0  0  0  0  0  0  0  0  0  0
   57.3470   33.4770   46.6240 C   0  0  0  0  0  0  0  0  0  0  0  0
   58.0490   34.5770   46.0600 O   0  0  0  0  0  0  0  0  0  0  0  0
   58.8010   34.2420   44.8990 C   0  0  0  0  0  0  0  0  0  0  0  0
   58.2880   32.9960   44.1580 C   0  0  0  0  0  0  0  0  0  0  0  0
   58.8100   28.7610   45.8260 C   0  0  0  0  0  0  0  0  0  0  0  0
   59.4040   29.0860   49.9600 C   0  0  0  0  0  0  0  0  0  0  0  0
   58.9590   30.3070   50.4660 C   0  0  0  0  0  0  0  0  0  0  0  0
   59.3800   31.5190   49.8920 C   0  0  0  0  0  0  0  0  0  0  0  0
   58.8830   32.8140   50.4760 C   0  0  0  0  0  0  0  0  0  0  0  0
   62.6548   34.3391   51.8723 H   0  0  0  0  0  0  0  0  0  0  0  0
   63.5715   33.1506   50.8856 H   0  0  0  0  0  0  0  0  0  0  0  0
   64.0547   34.8806   50.8856 H   0  0  0  0  0  0  0  0  0  0  0  0
   61.2286   34.4258   50.1120 H   0  0  0  0  0  0  0  0  0  0  0  0
   62.5488   35.4256   49.3271 H   0  0  0  0  0  0  0  0  0  0  0  0
   62.7886   34.5913   46.9016 H   0  0  0  0  0  0  0  0  0  0  0  0
   64.1749   34.4091   48.0392 H   0  0  0  0  0  0  0  0  0  0  0  0
   64.1398   31.9112   47.4796 H   0  0  0  0  0  0  0  0  0  0  0  0
   62.9999   32.3150   46.1514 H   0  0  0  0  0  0  0  0  0  0  0  0
   64.6591   33.0033   46.1514 H   0  0  0  0  0  0  0  0  0  0  0  0
   61.3814   30.2248   47.4222 H   0  0  0  0  0  0  0  0  0  0  0  0
   58.2720   25.5517   46.8835 H   0  0  0  0  0  0  0  0  0  0  0  0
   56.0520   26.0114   45.8496 H   0  0  0  0  0  0  0  0  0  0  0  0
   55.5921   28.2237   44.7979 H   0  0  0  0  0  0  0  0  0  0  0  0
   57.4682   31.3363   46.8996 H   0  0  0  0  0  0  0  0  0  0  0  0
   59.0549   32.2158   46.9679 H   0  0  0  0  0  0  0  0  0  0  0  0
   56.3660   33.3998   46.1323 H   0  0  0  0  0  0  0  0  0  0  0  0
   57.2560   33.6678   47.7035 H   0  0  0  0  0  0  0  0  0  0  0  0
   58.7654   35.0954   44.2059 H   0  0  0  0  0  0  0  0  0  0  0  0
   59.8222   34.0125   45.2372 H   0  0  0  0  0  0  0  0  0  0  0  0
   57.2491   33.1669   43.8394 H   0  0  0  0  0  0  0  0  0  0  0  0
   58.9292   32.8146   43.2829 H   0  0  0  0  0  0  0  0  0  0  0  0
   59.5887   29.5378   45.8152 H   0  0  0  0  0  0  0  0  0  0  0  0
   59.0537   28.1458   50.4109 H   0  0  0  0  0  0  0  0  0  0  0  0
   58.2708   30.3217   51.3240 H   0  0  0  0  0  0  0  0  0  0  0  0
   58.9061   32.7538   51.5741 H   0  0  0  0  0  0  0  0  0  0  0  0
   59.5283   33.6392   50.1404 H   0  0  0  0  0  0  0  0  0  0  0  0
   57.8513   32.9955   50.1404 H   0  0  0  0  0  0  0  0  0  0  0  0
  1  2  1  0
  2  3  1  0
  3  4  1  0
  4  5  1  0
  3  6  1  0
  6  7  2  0
  6  8  2  0
  6  9  1  0
  9 10  2  0
 10 11  1  0
 11 12  1  0
 12 13  1  0
 13 14  2  0
 13 15  1  0
 15 16  2  0
 16 17  1  0
 17 18  2  0
 18 19  1  0
 19 20  1  0
 20 21  2  0
 20 22  2  0
 20 23  1  0
 23 24  1  0
 24 25  1  0
 25 26  1  0
 26 27  1  0
 27 28  1  0
 19 29  2  0
 11 30  2  0
 30 31  1  0
 31 32  2  0
 32 33  1  0
 32  9  1  0
 29 15  1  0
 28 23  1  0
  1 34  1  0
  1 35  1  0
  1 36  1  0
  2 37  1  0
  2 38  1  0
  4 39  1  0
  4 40  1  0
  5 41  1  0
  5 42  1  0
  5 43  1  0
 10 44  1  0
 16 45  1  0
 17 46  1  0
 18 47  1  0
 24 48  1  0
 24 49  1  0
 25 50  1  0
 25 51  1  0
 27 52  1  0
 27 53  1  0
 28 54  1  0
 28 55  1  0
 29 56  1  0
 30 57  1  0
 31 58  1  0
 33 59  1  0
 33 60  1  0
 33 61  1  0
M  CHG  1  12  -1
M  END
>  <UniqueID>  (92) 
83

>  <SMILES>  (92) 
CCN(CC)S(=O)(=O)c1cc([N-]C(=O)c2cccc(S(=O)(=O)N3CCOCC3)c2)ccc1C

>  <Energy>  (92) 
80.31211426809602

>  <Genealogy>  (92) 
CCN(CC)S(=O)(=O)c1cc([N-]C(=O)c2cccc(S(=O)(=O)N3CCOCC3)c2)ccc1C (protonated)
CCN(CC)S(=O)(=O)c1cc([N-]C(=O)c2cccc(S(=O)(=O)N3CCOCC3)c2)ccc1C (3D coordinates assigned)
CCN(CC)S(=O)(=O)c1cc([N-]C(=O)c2cccc(S(=O)(=O)N3CCOCC3)c2)ccc1C (nonaromatic ring conformer: 80.31211426809602 kcal/mol)

>  <smiles>  (92) 
CCN(CC)S(=O)(=O)c1cc(NC(=O)c2cccc(S(=O)(=O)N3CCOCC3)c2)ccc1C

>  <score_type>  (92) 
oracle

>  <origin>  (92) 
adg

>  <m_score__min__energy>  (92) 
-12.56

>  <m_primary>  (92) 
energy

$$$$
92:0
     RDKit          3D

 63 67  0  0  0  0  0  0  0  0999 V2000
   60.3904   28.3726   44.3488 H   0  0  0  0  0  0  0  0  0  0  0  0
   60.3530   28.6240   45.4190 C   0  0  0  0  0  0  0  0  0  0  0  0
   61.1390   29.5220   46.0370 N   0  0  0  0  0  0  0  0  0  0  0  0
   60.7280   29.4860   47.3210 C   0  0  0  0  0  0  0  0  0  0  0  0
   61.2520   30.1960   48.2780 N   0  0  0  0  0  0  0  0  0  0  0  0
   60.8450   30.2830   49.6560 C   0  0  0  0  0  0  0  0  0  0  0  0
   61.6140   29.7950   50.5260 O   0  0  0  0  0  0  0  0  0  0  0  0
   59.5400   30.9310   50.0810 C   0  0  2  0  0  0  0  0  0  0  0  0
   59.2948   30.2658   50.9220 H   0  0  0  0  0  0  0  0  0  0  0  0
   58.5700   31.1480   48.9180 C   0  0  0  0  0  0  0  0  0  0  0  0
   57.5798   30.6933   49.0687 H   0  0  0  0  0  0  0  0  0  0  0  0
   58.7971   30.7420   47.9212 H   0  0  0  0  0  0  0  0  0  0  0  0
   58.6080   32.6540   49.1650 C   0  0  2  0  0  0  0  0  0  0  0  0
   57.6762   33.2158   49.3267 H   0  0  0  0  0  0  0  0  0  0  0  0
   59.2970   33.5810   47.7920 S   0  0  0  0  0  0  0  0  0  0  0  0
   58.9130   35.0300   47.9130 O   0  0  0  0  0  0  0  0  0  0  0  0
   60.7980   33.4860   47.8120 O   0  0  0  0  0  0  0  0  0  0  0  0
   58.6730   32.9210   46.2730 C   0  0  0  0  0  0  0  0  0  0  0  0
   58.1470   31.6220   46.2580 C   0  0  0  0  0  0  0  0  0  0  0  0
   58.1352   31.0289   47.1843 H   0  0  0  0  0  0  0  0  0  0  0  0
   57.6380   31.0730   45.0800 C   0  0  0  0  0  0  0  0  0  0  0  0
   57.2327   30.0504   45.0879 H   0  0  0  0  0  0  0  0  0  0  0  0
   57.6370   31.8120   43.8820 C   0  0  0  0  0  0  0  0  0  0  0  0
   57.1120   31.2410   42.6550 N   0  0  0  0  0  0  0  0  0  0  0  0
   57.2550   31.9520   41.3790 C   0  0  0  0  0  0  0  0  0  0  0  0
   57.4685   33.0136   41.5727 H   0  0  0  0  0  0  0  0  0  0  0  0
   58.0823   31.5106   40.8040 H   0  0  0  0  0  0  0  0  0  0  0  0
   56.3213   31.8648   40.8040 H   0  0  0  0  0  0  0  0  0  0  0  0
   56.4230   29.9440   42.6720 C   0  0  0  0  0  0  0  0  0  0  0  0
   56.2566   29.6308   43.7133 H   0  0  0  0  0  0  0  0  0  0  0  0
   55.4550   30.0363   42.1577 H   0  0  0  0  0  0  0  0  0  0  0  0
   57.0414   29.1936   42.1577 H   0  0  0  0  0  0  0  0  0  0  0  0
   58.1550   33.1230   43.9070 C   0  0  0  0  0  0  0  0  0  0  0  0
   58.1566   33.7209   42.9837 H   0  0  0  0  0  0  0  0  0  0  0  0
   58.6670   33.6770   45.0850 C   0  0  0  0  0  0  0  0  0  0  0  0
   59.2810   35.3260   45.0230 Cl  0  0  0  0  0  0  0  0  0  0  0  0
   59.5910   32.4480   50.3140 C   0  0  0  0  0  0  0  0  0  0  0  0
   59.2084   32.7653   51.2953 H   0  0  0  0  0  0  0  0  0  0  0  0
   60.5545   32.9785   50.3258 H   0  0  0  0  0  0  0  0  0  0  0  0
   59.7280   28.6130   47.5520 N   0  0  0  0  0  0  0  0  0  0  0  0
   59.4900   28.0670   46.3440 C   0  0  0  0  0  0  0  0  0  0  0  0
   58.4500   27.0390   46.0950 C   0  0  0  0  0  0  0  0  0  0  0  0
   58.8270   25.7230   45.7790 C   0  0  0  0  0  0  0  0  0  0  0  0
   59.8938   25.4628   45.7145 H   0  0  0  0  0  0  0  0  0  0  0  0
   57.8610   24.7420   45.5460 C   0  0  0  0  0  0  0  0  0  0  0  0
   58.1741   23.7126   45.3172 H   0  0  0  0  0  0  0  0  0  0  0  0
   56.4940   25.0570   45.6010 C   0  0  0  0  0  0  0  0  0  0  0  0
   55.4930   24.0010   45.3350 C   0  0  0  0  0  0  0  0  0  0  0  0
   55.7190   23.1440   44.4370 O   0  0  0  0  0  0  0  0  0  0  0  0
   54.2580   23.9600   46.0630 N   0  0  0  0  0  0  0  0  0  0  0  0
   53.9560   24.7990   46.6080 H   0  0  0  0  0  0  0  0  0  0  0  0
   53.3230   22.8510   45.9120 C   0  0  0  0  0  0  0  0  0  0  0  0
   53.9253   22.2484   45.2162 H   0  0  0  0  0  0  0  0  0  0  0  0
   52.5190   22.5720   47.1710 C   0  0  0  0  0  0  0  0  0  0  0  0
   52.2399   21.5395   47.4280 H   0  0  0  0  0  0  0  0  0  0  0  0
   52.6402   22.8049   48.2392 H   0  0  0  0  0  0  0  0  0  0  0  0
   51.8630   23.2650   45.9860 C   0  0  0  0  0  0  0  0  0  0  0  0
   51.1095   22.7336   45.3861 H   0  0  0  0  0  0  0  0  0  0  0  0
   51.3131   24.2068   45.8423 H   0  0  0  0  0  0  0  0  0  0  0  0
   56.1100   26.3710   45.9330 C   0  0  0  0  0  0  0  0  0  0  0  0
   54.7670   26.7120   46.0560 O   0  0  0  0  0  0  0  0  0  0  0  0
   57.0800   27.3510   46.1710 C   0  0  0  0  0  0  0  0  0  0  0  0
   56.7683   28.3761   46.4201 H   0  0  0  0  0  0  0  0  0  0  0  0
  1  2  1  0
  2  3  1  0
  3  4  1  0
  4  5  2  0
  5  6  1  0
  6  7  2  0
  6  8  1  0
  8  9  1  1
  8 10  1  0
 10 11  1  0
 10 12  1  0
 10 13  1  0
 13 14  1  1
 13 15  1  0
 15 16  2  0
 15 17  2  0
 15 18  1  0
 18 19  2  0
 19 20  1  0
 19 21  1  0
 21 22  1  0
 21 23  2  0
 23 24  1  0
 24 25  1  0
 25 26  1  0
 25 27  1  0
 25 28  1  0
 24 29  1  0
 29 30  1  0
 29 31  1  0
 29 32  1  0
 23 33  1  0
 33 34  1  0
 33 35  2  0
 35 36  1  0
 13 37  1  0
 37 38  1  0
 37 39  1  0
  4 40  1  0
 40 41  1  0
 41 42  1  0
 42 43  2  0
 43 44  1  0
 43 45  1  0
 45 46  1  0
 45 47  2  0
 47 48  1  0
 48 49  2  0
 48 50  1  0
 50 51  1  0
 50 52  1  0
 52 53  1  0
 52 54  1  0
 54 55  1  0
 54 56  1  0
 54 57  1  0
 57 58  1  0
 57 59  1  0
 47 60  1  0
 60 61  1  0
 60 62  2  0
 62 63  1  0
 41  2  2  0
 62 42  1  0
 37  8  1  0
 57 52  1  0
 35 18  1  0
M  CHG  3   3  -1  40  -1  61  -1
M  END
>  <UniqueID>  (93) 
84

>  <SMILES>  (93) 
CN(C)c1ccc(S(=O)(=O)C2CC(C(=O)/N=c3\[n-]cc(-c4ccc(C(=O)NC5CC5)c([O-])c4)[n-]3)C2)c(Cl)c1

>  <Energy>  (93) 
429.653897422086

>  <Genealogy>  (93) 
CN(C)c1ccc(S(=O)(=O)C2CC(C(=O)N=c3[n-]cc(-c4ccc(C(=O)NC5CC5)c([O-])c4)[n-]3)C2)c(Cl)c1 (protonated)
CN(C)c1ccc(S(=O)(=O)C2CC(C(=O)/N=c3\[n-]cc(-c4ccc(C(=O)NC5CC5)c([O-])c4)[n-]3)C2)c(Cl)c1 (cis-trans isomerization)
CN(C)c1ccc(S(=O)(=O)C2CC(C(=O)/N=c3\[n-]cc(-c4ccc(C(=O)NC5CC5)c([O-])c4)[n-]3)C2)c(Cl)c1 (3D coordinates assigned)
CN(C)c1ccc(S(=O)(=O)C2CC(C(=O)/N=c3\[n-]cc(-c4ccc(C(=O)NC5CC5)c([O-])c4)[n-]3)C2)c(Cl)c1 (nonaromatic ring conformer: 429.653897422086 kcal/mol)

>  <smiles>  (93) 
CN(C)c1ccc(S(=O)(=O)C2CC(C(=O)N=c3[nH]cc(-c4ccc(C(=O)NC5CC5)c(O)c4)[nH]3)C2)c(Cl)c1

>  <score_type>  (93) 
oracle

>  <origin>  (93) 
adg

>  <m_score__min__energy>  (93) 
-14.619999999999999

>  <m_primary>  (93) 
energy

$$$$
93:0
     RDKit          3D

 65 67  0  0  0  0  0  0  0  0999 V2000
   60.0848   27.1433   45.7445 H   0  0  0  0  0  0  0  0  0  0  0  0
   59.8580   26.2790   46.3860 C   0  0  0  0  0  0  0  0  0  0  0  0
   59.4550   25.0270   45.7200 C   0  0  0  0  0  0  0  0  0  0  0  0
   60.0700   23.9620   46.0010 O   0  0  0  0  0  0  0  0  0  0  0  0
   58.3680   25.0010   44.8390 O   0  0  0  0  0  0  0  0  0  0  0  0
   57.0500   25.3660   45.2320 C   0  0  0  0  0  0  0  0  0  0  0  0
   56.3474   25.1212   44.4218 H   0  0  0  0  0  0  0  0  0  0  0  0
   56.7781   24.8113   46.1421 H   0  0  0  0  0  0  0  0  0  0  0  0
   56.9880   26.8350   45.5150 C   0  0  0  0  0  0  0  0  0  0  0  0
   56.7520   27.2310   46.6890 O   0  0  0  0  0  0  0  0  0  0  0  0
   57.2190   27.7800   44.4580 N   0  0  0  0  0  0  0  0  0  0  0  0
   57.1510   27.4360   43.4740 H   0  0  0  0  0  0  0  0  0  0  0  0
   57.4480   29.1850   44.6650 C   0  0  0  0  0  0  0  0  0  0  0  0
   56.4380   30.1010   44.3360 C   0  0  0  0  0  0  0  0  0  0  0  0
   55.4750   29.7368   43.9487 H   0  0  0  0  0  0  0  0  0  0  0  0
   56.6470   31.4730   44.4970 C   0  0  0  0  0  0  0  0  0  0  0  0
   55.8475   32.1830   44.2388 H   0  0  0  0  0  0  0  0  0  0  0  0
   57.8710   31.9480   44.9860 C   0  0  0  0  0  0  0  0  0  0  0  0
   58.1360   33.6760   45.2160 S   0  0  0  0  0  0  0  0  0  0  0  0
   57.0160   34.4620   44.5950 O   0  0  0  0  0  0  0  0  0  0  0  0
   59.4250   34.0740   44.5520 O   0  0  0  0  0  0  0  0  0  0  0  0
   58.2390   34.0210   46.9140 N   0  0  0  0  0  0  0  0  0  0  0  0
   59.3630   34.9170   47.1970 C   0  0  0  0  0  0  0  0  0  0  0  0
   60.0612   34.9063   46.3470 H   0  0  0  0  0  0  0  0  0  0  0  0
   58.9830   35.9375   47.3525 H   0  0  0  0  0  0  0  0  0  0  0  0
   60.0920   34.4530   48.4580 C   0  0  0  0  0  0  0  0  0  0  0  0
   60.4860   35.3320   48.9892 H   0  0  0  0  0  0  0  0  0  0  0  0
   59.3792   33.9055   49.0922 H   0  0  0  0  0  0  0  0  0  0  0  0
   61.2350   33.5310   48.1160 C   0  0  0  0  0  0  0  0  0  0  0  0
   60.9920   32.3060   47.4740 C   0  0  0  0  0  0  0  0  0  0  0  0
   59.9627   32.0189   47.2132 H   0  0  0  0  0  0  0  0  0  0  0  0
   62.0530   31.4500   47.1650 C   0  0  0  0  0  0  0  0  0  0  0  0
   61.8581   30.4966   46.6521 H   0  0  0  0  0  0  0  0  0  0  0  0
   63.3620   31.8040   47.5070 C   0  0  0  0  0  0  0  0  0  0  0  0
   64.1964   31.1314   47.2592 H   0  0  0  0  0  0  0  0  0  0  0  0
   63.6100   33.0130   48.1640 C   0  0  0  0  0  0  0  0  0  0  0  0
   64.6390   33.2888   48.4380 H   0  0  0  0  0  0  0  0  0  0  0  0
   62.5500   33.8720   48.4730 C   0  0  0  0  0  0  0  0  0  0  0  0
   62.7471   34.8185   48.9977 H   0  0  0  0  0  0  0  0  0  0  0  0
   58.8850   31.0380   45.3090 C   0  0  0  0  0  0  0  0  0  0  0  0
   59.8450   31.4040   45.7020 H   0  0  0  0  0  0  0  0  0  0  0  0
   58.6820   29.6670   45.1340 C   0  0  0  0  0  0  0  0  0  0  0  0
   59.4929   28.9605   45.3647 H   0  0  0  0  0  0  0  0  0  0  0  0
   59.9700   26.4480   47.7110 C   0  0  0  0  0  0  0  0  0  0  0  0
   60.1623   25.5526   48.3203 H   0  0  0  0  0  0  0  0  0  0  0  0
   59.8560   27.7410   48.4200 C   0  0  0  0  0  0  0  0  0  0  0  0
   58.9260   28.7090   48.0150 C   0  0  0  0  0  0  0  0  0  0  0  0
   58.2274   28.4863   47.1950 H   0  0  0  0  0  0  0  0  0  0  0  0
   58.8810   29.9540   48.6460 C   0  0  0  0  0  0  0  0  0  0  0  0
   58.1383   30.7012   48.3295 H   0  0  0  0  0  0  0  0  0  0  0  0
   59.7810   30.2580   49.6850 C   0  0  0  0  0  0  0  0  0  0  0  0
   59.7790   31.5020   50.3410 O   0  0  0  0  0  0  0  0  0  0  0  0
   58.7300   31.9990   51.1690 C   0  0  0  0  0  0  0  0  0  0  0  0
   59.1602   32.3790   52.1074 H   0  0  0  0  0  0  0  0  0  0  0  0
   58.2092   32.8061   50.6330 H   0  0  0  0  0  0  0  0  0  0  0  0
   57.7640   30.9380   51.4770 C   0  0  0  0  0  0  0  0  0  0  0  0
   57.0100   30.0970   51.7200 N   0  0  0  0  0  0  0  0  0  0  0  0
   60.7230   29.2970   50.0880 C   0  0  0  0  0  0  0  0  0  0  0  0
   61.6110   29.6300   51.1250 O   0  0  0  0  0  0  0  0  0  0  0  0
   62.6810   30.5610   51.0020 C   0  0  0  0  0  0  0  0  0  0  0  0
   63.0242   30.8596   52.0035 H   0  0  0  0  0  0  0  0  0  0  0  0
   63.5123   30.0938   50.4537 H   0  0  0  0  0  0  0  0  0  0  0  0
   62.3332   31.4489   50.4537 H   0  0  0  0  0  0  0  0  0  0  0  0
   60.7630   28.0460   49.4420 C   0  0  0  0  0  0  0  0  0  0  0  0
   61.5143   27.3013   49.7435 H   0  0  0  0  0  0  0  0  0  0  0  0
  1  2  1  0
  2  3  1  0
  3  4  2  0
  3  5  1  0
  5  6  1  0
  6  7  1  0
  6  8  1  0
  6  9  1  0
  9 10  2  0
  9 11  1  0
 11 12  1  0
 11 13  1  0
 13 14  2  0
 14 15  1  0
 14 16  1  0
 16 17  1  0
 16 18  2  0
 18 19  1  0
 19 20  2  0
 19 21  2  0
 19 22  1  0
 22 23  1  0
 23 24  1  0
 23 25  1  0
 23 26  1  0
 26 27  1  0
 26 28  1  0
 26 29  1  0
 29 30  2  0
 30 31  1  0
 30 32  1  0
 32 33  1  0
 32 34  2  0
 34 35  1  0
 34 36  1  0
 36 37  1  0
 36 38  2  0
 38 39  1  0
 18 40  1  0
 40 41  1  0
 40 42  2  0
 42 43  1  0
  2 44  2  0
 44 45  1  0
 44 46  1  0
 46 47  2  0
 47 48  1  0
 47 49  1  0
 49 50  1  0
 49 51  2  0
 51 52  1  0
 52 53  1  0
 53 54  1  0
 53 55  1  0
 53 56  1  0
 56 57  3  0
 51 58  1  0
 58 59  1  0
 59 60  1  0
 60 61  1  0
 60 62  1  0
 60 63  1  0
 58 64  2  0
 64 65  1  0
 42 13  1  0
 64 46  1  0
 38 29  1  0
M  CHG  1  22  -1
M  END
>  <UniqueID>  (94) 
85

>  <SMILES>  (94) 
COc1cc(/C=C\C(=O)OCC(=O)Nc2ccc(S(=O)(=O)[N-]CCc3ccccc3)cc2)ccc1OCC#N

>  <Energy>  (94) 
60.5343577019291

>  <Genealogy>  (94) 
COc1cc(C=CC(=O)OCC(=O)Nc2ccc(S(=O)(=O)[N-]CCc3ccccc3)cc2)ccc1OCC#N (protonated)
COc1cc(/C=C\C(=O)OCC(=O)Nc2ccc(S(=O)(=O)[N-]CCc3ccccc3)cc2)ccc1OCC#N (cis-trans isomerization)
COc1cc(/C=C\C(=O)OCC(=O)Nc2ccc(S(=O)(=O)[N-]CCc3ccccc3)cc2)ccc1OCC#N (3D coordinates assigned)
COc1cc(/C=C\C(=O)OCC(=O)Nc2ccc(S(=O)(=O)[N-]CCc3ccccc3)cc2)ccc1OCC#N (optimized conformer: 60.5343577019291 kcal/mol)

>  <smiles>  (94) 
COc1cc(C=CC(=O)OCC(=O)Nc2ccc(S(=O)(=O)NCCc3ccccc3)cc2)ccc1OCC#N

>  <score_type>  (94) 
oracle

>  <origin>  (94) 
adg

>  <m_score__min__energy>  (94) 
-10.67

>  <m_primary>  (94) 
energy

$$$$
94:0
     RDKit          3D

 38 40  0  0  0  0  0  0  0  0999 V2000
   54.9270   30.0360   43.8000 O   0  0  0  0  0  0  0  0  0  0  0  0
   55.9110   29.7740   44.5410 C   0  0  0  0  0  0  0  0  0  0  0  0
   56.9290   30.7610   44.7180 N   0  0  0  0  0  0  0  0  0  0  0  0
   56.6330   32.1780   44.8680 C   0  0  0  0  0  0  0  0  0  0  0  0
   57.7400   32.8400   45.6360 C   0  0  0  0  0  0  0  0  0  0  0  0
   58.6920   33.6290   44.9680 C   0  0  0  0  0  0  0  0  0  0  0  0
   59.7420   34.2170   45.6790 C   0  0  0  0  0  0  0  0  0  0  0  0
   59.8570   34.0140   47.0560 C   0  0  0  0  0  0  0  0  0  0  0  0
   58.9220   33.2140   47.7290 C   0  0  0  0  0  0  0  0  0  0  0  0
   59.0310   32.9980   49.1010 O   0  0  0  0  0  0  0  0  0  0  0  0
   57.8700   32.6260   47.0180 C   0  0  0  0  0  0  0  0  0  0  0  0
   55.9860   28.5270   45.2450 N   0  0  0  0  0  0  0  0  0  0  0  0
   57.0500   28.0920   46.1050 C   0  0  0  0  0  0  0  0  0  0  0  0
   58.1060   28.9480   46.4680 C   0  0  0  0  0  0  0  0  0  0  0  0
   59.1290   28.5030   47.3280 C   0  0  0  0  0  0  0  0  0  0  0  0
   60.2140   29.3800   47.6950 N   0  0  0  0  0  0  0  0  0  0  0  0
   60.6930   29.5930   48.9400 C   0  0  0  0  0  0  0  0  0  0  0  0
   61.7340   30.4980   48.8970 C   0  0  0  0  0  0  0  0  0  0  0  0
   61.8940   30.8500   47.5730 C   0  0  0  0  0  0  0  0  0  0  0  0
   60.9460   30.1460   46.8580 C   0  0  0  0  0  0  0  0  0  0  0  0
   59.0710   27.1910   47.8310 C   0  0  0  0  0  0  0  0  0  0  0  0
   58.0100   26.3490   47.4940 C   0  0  0  0  0  0  0  0  0  0  0  0
   56.9990   26.7980   46.6410 C   0  0  0  0  0  0  0  0  0  0  0  0
   55.9460   25.9490   46.3200 O   0  0  0  0  0  0  0  0  0  0  0  0
   56.5471   32.6422   43.8744 H   0  0  0  0  0  0  0  0  0  0  0  0
   55.6846   32.2997   45.4119 H   0  0  0  0  0  0  0  0  0  0  0  0
   58.6106   33.7843   43.8821 H   0  0  0  0  0  0  0  0  0  0  0  0
   60.4794   34.8410   45.1528 H   0  0  0  0  0  0  0  0  0  0  0  0
   60.6818   34.4821   47.6133 H   0  0  0  0  0  0  0  0  0  0  0  0
   59.8660   33.2540   49.6130 H   0  0  0  0  0  0  0  0  0  0  0  0
   57.1408   31.9926   47.5444 H   0  0  0  0  0  0  0  0  0  0  0  0
   58.1330   29.9755   46.0761 H   0  0  0  0  0  0  0  0  0  0  0  0
   60.3097   29.1153   49.8537 H   0  0  0  0  0  0  0  0  0  0  0  0
   62.3211   30.8664   49.7512 H   0  0  0  0  0  0  0  0  0  0  0  0
   62.6337   31.5550   47.1658 H   0  0  0  0  0  0  0  0  0  0  0  0
   60.8075   30.2009   45.7681 H   0  0  0  0  0  0  0  0  0  0  0  0
   59.8680   26.8255   48.4952 H   0  0  0  0  0  0  0  0  0  0  0  0
   57.9698   25.3281   47.9016 H   0  0  0  0  0  0  0  0  0  0  0  0
  1  2  2  0
  2  3  1  0
  3  4  1  0
  4  5  1  0
  5  6  2  0
  6  7  1  0
  7  8  2  0
  8  9  1  0
  9 10  1  0
  9 11  2  0
  2 12  1  0
 12 13  1  0
 13 14  2  0
 14 15  1  0
 15 16  1  0
 16 17  1  0
 17 18  2  0
 18 19  1  0
 19 20  2  0
 15 21  2  0
 21 22  1  0
 22 23  2  0
 23 24  1  0
 11  5  1  0
 23 13  1  0
 20 16  1  0
  4 25  1  0
  4 26  1  0
  6 27  1  0
  7 28  1  0
  8 29  1  0
 10 30  1  0
 11 31  1  0
 14 32  1  0
 17 33  1  0
 18 34  1  0
 19 35  1  0
 20 36  1  0
 21 37  1  0
 22 38  1  0
M  CHG  3   3  -1  12  -1  24  -1
M  END
>  <UniqueID>  (95) 
86

>  <SMILES>  (95) 
O=C([N-]Cc1cccc(O)c1)[N-]c1cc(-n2cccc2)ccc1[O-]

>  <Energy>  (95) 
70.12846508471893

>  <Genealogy>  (95) 
O=C([N-]Cc1cccc(O)c1)[N-]c1cc(-n2cccc2)ccc1[O-] (protonated)
O=C([N-]Cc1cccc(O)c1)[N-]c1cc(-n2cccc2)ccc1[O-] (3D coordinates assigned)
O=C([N-]Cc1cccc(O)c1)[N-]c1cc(-n2cccc2)ccc1[O-] (optimized conformer: 70.12846508471893 kcal/mol)

>  <smiles>  (95) 
O=C(NCc1cccc(O)c1)Nc1cc(-n2cccc2)ccc1O

>  <score_type>  (95) 
oracle

>  <origin>  (95) 
adg

>  <m_score__min__energy>  (95) 
-13.18

>  <m_primary>  (95) 
energy

$$$$
96:0
     RDKit          3D

 55 58  0  0  0  0  0  0  0  0999 V2000
   57.0560   26.9280   46.0380 C   0  0  0  0  0  0  0  0  0  0  0  0
   57.4460   28.2950   45.5570 C   0  0  0  0  0  0  0  0  0  0  0  0
   58.7960   28.6570   45.4840 C   0  0  0  0  0  0  0  0  0  0  0  0
   59.1590   29.9330   45.0490 C   0  0  0  0  0  0  0  0  0  0  0  0
   58.1560   30.8470   44.6650 C   0  0  0  0  0  0  0  0  0  0  0  0
   58.4250   32.0510   44.2360 N   0  0  0  0  0  0  0  0  0  0  0  0
   58.2190   33.2920   44.9290 C   0  0  0  0  0  0  0  0  0  0  0  0
   57.3320   34.0780   44.5030 O   0  0  0  0  0  0  0  0  0  0  0  0
   59.0690   33.7010   46.0730 C   0  0  0  0  0  0  0  0  0  0  0  0
   58.4900   34.2830   47.2120 C   0  0  0  0  0  0  0  0  0  0  0  0
   59.2840   34.6340   48.3070 C   0  0  0  0  0  0  0  0  0  0  0  0
   60.6620   34.4090   48.2750 C   0  0  0  0  0  0  0  0  0  0  0  0
   61.2550   33.8460   47.1390 C   0  0  0  0  0  0  0  0  0  0  0  0
   62.9880   33.5310   47.0860 S   0  0  0  0  0  0  0  0  0  0  0  0
   63.7010   34.4440   48.0440 O   0  0  0  0  0  0  0  0  0  0  0  0
   63.4780   33.8300   45.6980 O   0  0  0  0  0  0  0  0  0  0  0  0
   63.3360   31.8540   47.4750 N   0  0  0  0  0  0  0  0  0  0  0  0
   63.7690   31.7090   48.8910 C   0  0  0  0  0  0  0  0  0  0  0  0
   62.6680   31.1840   49.8380 C   0  0  0  0  0  0  0  0  0  0  0  0
   61.3350   31.5480   49.3520 N   0  0  0  0  0  0  0  0  0  0  0  0
   60.3540   32.1230   50.2380 C   0  0  0  0  0  0  0  0  0  0  0  0
   60.7330   33.0670   51.2110 C   0  0  0  0  0  0  0  0  0  0  0  0
   59.7850   33.6070   52.0800 C   0  0  0  0  0  0  0  0  0  0  0  0
   58.4490   33.2100   51.9910 C   0  0  0  0  0  0  0  0  0  0  0  0
   58.0630   32.2710   51.0330 C   0  0  0  0  0  0  0  0  0  0  0  0
   59.0070   31.7270   50.1620 C   0  0  0  0  0  0  0  0  0  0  0  0
   60.9700   31.2180   47.9730 C   0  0  0  0  0  0  0  0  0  0  0  0
   62.2190   30.9530   47.1210 C   0  0  0  0  0  0  0  0  0  0  0  0
   60.4610   33.5080   46.0380 C   0  0  0  0  0  0  0  0  0  0  0  0
   56.8510   30.4760   44.7700 N   0  0  0  0  0  0  0  0  0  0  0  0
   56.4760   29.2420   45.2040 C   0  0  0  0  0  0  0  0  0  0  0  0
   57.0519   26.9137   47.1379 H   0  0  0  0  0  0  0  0  0  0  0  0
   56.0514   26.6806   45.6643 H   0  0  0  0  0  0  0  0  0  0  0  0
   57.7788   26.1878   45.6643 H   0  0  0  0  0  0  0  0  0  0  0  0
   59.5737   27.9337   45.7703 H   0  0  0  0  0  0  0  0  0  0  0  0
   60.2192   30.2232   45.0061 H   0  0  0  0  0  0  0  0  0  0  0  0
   57.4054   34.4637   47.2426 H   0  0  0  0  0  0  0  0  0  0  0  0
   58.8227   35.0885   49.1961 H   0  0  0  0  0  0  0  0  0  0  0  0
   61.2822   34.6746   49.1438 H   0  0  0  0  0  0  0  0  0  0  0  0
   64.1450   31.5850   46.8670 H   0  0  0  0  0  0  0  0  0  0  0  0
   64.6153   31.0071   48.9230 H   0  0  0  0  0  0  0  0  0  0  0  0
   64.0372   32.7155   49.2446 H   0  0  0  0  0  0  0  0  0  0  0  0
   62.7406   30.0882   49.9003 H   0  0  0  0  0  0  0  0  0  0  0  0
   62.8142   31.6388   50.8289 H   0  0  0  0  0  0  0  0  0  0  0  0
   61.7845   33.3811   51.2866 H   0  0  0  0  0  0  0  0  0  0  0  0
   60.0898   34.3459   52.8358 H   0  0  0  0  0  0  0  0  0  0  0  0
   57.7013   33.6371   52.6755 H   0  0  0  0  0  0  0  0  0  0  0  0
   57.0104   31.9589   50.9647 H   0  0  0  0  0  0  0  0  0  0  0  0
   58.6962   30.9847   49.4121 H   0  0  0  0  0  0  0  0  0  0  0  0
   60.3378   30.3179   47.9740 H   0  0  0  0  0  0  0  0  0  0  0  0
   60.4260   32.0710   47.5411 H   0  0  0  0  0  0  0  0  0  0  0  0
   62.5400   29.9124   47.2764 H   0  0  0  0  0  0  0  0  0  0  0  0
   61.9562   31.1371   46.0688 H   0  0  0  0  0  0  0  0  0  0  0  0
   60.9303   33.0873   45.1364 H   0  0  0  0  0  0  0  0  0  0  0  0
   55.4084   28.9875   45.2778 H   0  0  0  0  0  0  0  0  0  0  0  0
  1  2  1  0
  2  3  1  0
  3  4  2  0
  4  5  1  0
  5  6  2  3
  6  7  1  0
  7  8  2  0
  7  9  1  0
  9 10  2  0
 10 11  1  0
 11 12  2  0
 12 13  1  0
 13 14  1  0
 14 15  2  0
 14 16  2  0
 14 17  1  0
 17 18  1  0
 18 19  1  0
 19 20  1  0
 20 21  1  0
 21 22  2  0
 22 23  1  0
 23 24  2  0
 24 25  1  0
 25 26  2  0
 20 27  1  0
 27 28  1  0
 13 29  2  0
  5 30  1  0
 30 31  1  0
 31  2  2  0
 29  9  1  0
 28 17  1  0
 26 21  1  0
  1 32  1  0
  1 33  1  0
  1 34  1  0
  3 35  1  0
  4 36  1  0
 10 37  1  0
 11 38  1  0
 12 39  1  0
 17 40  1  0
 18 41  1  0
 18 42  1  0
 19 43  1  0
 19 44  1  0
 22 45  1  0
 23 46  1  0
 24 47  1  0
 25 48  1  0
 26 49  1  0
 27 50  1  0
 27 51  1  0
 28 52  1  0
 28 53  1  0
 29 54  1  0
 31 55  1  0
M  CHG  2  17   1  30  -1
M  END
>  <UniqueID>  (96) 
87

>  <SMILES>  (96) 
Cc1ccc(=NC(=O)c2cccc(S(=O)(=O)[NH+]3CCN(c4ccccc4)CC3)c2)[n-]c1

>  <Energy>  (96) 
77.12583149537141

>  <Genealogy>  (96) 
Cc1ccc(=NC(=O)c2cccc(S(=O)(=O)[NH+]3CCN(c4ccccc4)CC3)c2)[n-]c1 (protonated)
Cc1ccc(=NC(=O)c2cccc(S(=O)(=O)[NH+]3CCN(c4ccccc4)CC3)c2)[n-]c1 (3D coordinates assigned)
Cc1ccc(=NC(=O)c2cccc(S(=O)(=O)[NH+]3CCN(c4ccccc4)CC3)c2)[n-]c1 (nonaromatic ring conformer: 77.12583149537141 kcal/mol)

>  <smiles>  (96) 
Cc1ccc(=NC(=O)c2cccc(S(=O)(=O)N3CCN(c4ccccc4)CC3)c2)[nH]c1

>  <score_type>  (96) 
oracle

>  <origin>  (96) 
adg

>  <m_score__min__energy>  (96) 
-10.640000000000001

>  <m_primary>  (96) 
energy

$$$$
