0:0
     RDKit          3D

 45 48  0  0  0  0  0  0  0  0999 V2000
   56.3250   30.0930   44.8590 O   0  0  0  0  0  0  0  0  0  0  0  0
   57.5680   30.2080   45.0410 C   0  0  0  0  0  0  0  0  0  0  0  0
   58.4600   29.1470   44.6630 N   0  0  0  0  0  0  0  0  0  0  0  0
   58.0300   27.8160   44.3290 C   0  0  0  0  0  0  0  0  0  0  0  0
   58.1830   27.3540   43.0130 C   0  0  0  0  0  0  0  0  0  0  0  0
   57.7870   26.0600   42.6670 C   0  0  0  0  0  0  0  0  0  0  0  0
   57.2540   25.2080   43.6360 C   0  0  0  0  0  0  0  0  0  0  0  0
   57.1220   25.6430   44.9610 C   0  0  0  0  0  0  0  0  0  0  0  0
   56.4780   24.5500   46.1830 S   0  0  0  0  0  0  0  0  0  0  0  0
   55.1490   24.0270   45.7170 O   0  0  0  0  0  0  0  0  0  0  0  0
   56.2920   25.2680   47.4900 O   0  0  0  0  0  0  0  0  0  0  0  0
   57.5640   23.2180   46.4220 N   0  0  0  0  0  0  0  0  0  0  0  0
   57.1870   21.9770   46.4570 C   0  0  0  0  0  0  0  0  0  0  0  0
   56.7020   21.3610   45.3430 N   0  0  0  0  0  0  0  0  0  0  0  0
   56.3000   20.0630   45.3780 C   0  0  0  0  0  0  0  0  0  0  0  0
   56.3840   19.3430   46.5700 C   0  0  0  0  0  0  0  0  0  0  0  0
   56.8840   19.9870   47.7010 C   0  0  0  0  0  0  0  0  0  0  0  0
   57.2740   21.2860   47.6250 N   0  0  0  0  0  0  0  0  0  0  0  0
   57.5120   26.9460   45.3060 C   0  0  0  0  0  0  0  0  0  0  0  0
   58.1010   31.4570   45.6070 C   0  0  0  0  0  0  0  0  0  0  0  0
   57.4880   32.6940   45.5700 C   0  0  0  0  0  0  0  0  0  0  0  0
   58.3600   33.5310   46.2310 C   0  0  0  0  0  0  0  0  0  0  0  0
   59.4320   32.8120   46.6320 N   0  0  0  0  0  0  0  0  0  0  0  0
   60.5800   33.2870   47.3660 C   0  0  0  0  0  0  0  0  0  0  0  0
   60.4680   33.7220   48.7030 C   0  0  0  0  0  0  0  0  0  0  0  0
   61.5930   34.1830   49.3950 C   0  0  0  0  0  0  0  0  0  0  0  0
   62.8380   34.2190   48.7650 C   0  0  0  0  0  0  0  0  0  0  0  0
   62.9630   33.7950   47.4410 C   0  0  0  0  0  0  0  0  0  0  0  0
   61.8420   33.3350   46.7430 C   0  0  0  0  0  0  0  0  0  0  0  0
   59.2760   31.5500   46.2580 N   0  0  0  0  0  0  0  0  0  0  0  0
   59.4710   29.3780   44.5370 H   0  0  0  0  0  0  0  0  0  0  0  0
   58.6176   28.0152   42.2488 H   0  0  0  0  0  0  0  0  0  0  0  0
   57.8953   25.7117   41.6292 H   0  0  0  0  0  0  0  0  0  0  0  0
   56.9367   24.1920   43.3582 H   0  0  0  0  0  0  0  0  0  0  0  0
   55.9096   19.5817   44.4692 H   0  0  0  0  0  0  0  0  0  0  0  0
   56.0633   18.2918   46.6165 H   0  0  0  0  0  0  0  0  0  0  0  0
   56.9626   19.4436   48.6542 H   0  0  0  0  0  0  0  0  0  0  0  0
   57.4122   27.2893   46.3463 H   0  0  0  0  0  0  0  0  0  0  0  0
   56.5206   32.9528   45.1149 H   0  0  0  0  0  0  0  0  0  0  0  0
   58.2088   34.6068   46.4039 H   0  0  0  0  0  0  0  0  0  0  0  0
   59.4895   33.6986   49.2050 H   0  0  0  0  0  0  0  0  0  0  0  0
   61.4962   34.5180   50.4383 H   0  0  0  0  0  0  0  0  0  0  0  0
   63.7208   34.5816   49.3120 H   0  0  0  0  0  0  0  0  0  0  0  0
   63.9449   33.8228   46.9459 H   0  0  0  0  0  0  0  0  0  0  0  0
   61.9469   33.0078   45.6981 H   0  0  0  0  0  0  0  0  0  0  0  0
  1  2  2  0
  2  3  1  0
  3  4  1  0
  4  5  2  0
  5  6  1  0
  6  7  2  0
  7  8  1  0
  8  9  1  0
  9 10  2  0
  9 11  2  0
  9 12  1  0
 12 13  2  3
 13 14  1  0
 14 15  2  0
 15 16  1  0
 16 17  2  0
 17 18  1  0
  8 19  2  0
  2 20  1  0
 20 21  1  0
 21 22  2  0
 22 23  1  0
 23 24  1  0
 24 25  2  0
 25 26  1  0
 26 27  2  0
 27 28  1  0
 28 29  2  0
 23 30  1  0
 19  4  1  0
 30 20  2  0
 18 13  1  0
 29 24  1  0
  3 31  1  0
  5 32  1  0
  6 33  1  0
  7 34  1  0
 15 35  1  0
 16 36  1  0
 17 37  1  0
 19 38  1  0
 21 39  1  0
 22 40  1  0
 25 41  1  0
 26 42  1  0
 27 43  1  0
 28 44  1  0
 29 45  1  0
M  CHG  1  18  -1
M  END
>  <UniqueID>  (1) 
1

>  <SMILES>  (1) 
O=C(Nc1cccc(S(=O)(=O)N=c2nccc[n-]2)c1)c1ccn(-c2ccccc2)n1

>  <Energy>  (1) 
88.68989203717857

>  <Genealogy>  (1) 
O=C(Nc1cccc(S(=O)(=O)N=c2nccc[n-]2)c1)c1ccn(-c2ccccc2)n1 (protonated)
O=C(Nc1cccc(S(=O)(=O)N=c2nccc[n-]2)c1)c1ccn(-c2ccccc2)n1 (3D coordinates assigned)
O=C(Nc1cccc(S(=O)(=O)N=c2nccc[n-]2)c1)c1ccn(-c2ccccc2)n1 (optimized conformer: 88.68989203717857 kcal/mol)

>  <smiles>  (1) 
O=C(Nc1cccc(S(=O)(=O)N=c2nccc[nH]2)c1)c1ccn(-c2ccccc2)n1

>  <score_type>  (1) 
oracle

>  <origin>  (1) 
adg

>  <m_score__min__energy>  (1) 
-10.58

>  <m_primary>  (1) 
energy

$$$$
1:0
     RDKit          3D

 33 35  0  0  0  0  0  0  0  0999 V2000
   54.3030   30.3480   53.8720 O   0  0  0  0  0  0  0  0  0  0  0  0
   54.3850   30.4420   52.6180 C   0  0  0  0  0  0  0  0  0  0  0  0
   55.6060   30.0460   51.9790 N   0  0  0  0  0  0  0  0  0  0  0  0
   56.7320   30.8930   51.7110 C   0  0  0  0  0  0  0  0  0  0  0  0
   57.7730   30.4880   50.8600 C   0  0  0  0  0  0  0  0  0  0  0  0
   58.8530   31.3390   50.6120 C   0  0  0  0  0  0  0  0  0  0  0  0
   58.9030   32.6120   51.2080 C   0  0  0  0  0  0  0  0  0  0  0  0
   59.9710   33.4920   50.9780 O   0  0  0  0  0  0  0  0  0  0  0  0
   60.5500   33.7590   49.7290 C   0  0  0  0  0  0  0  0  0  0  0  0
   61.9120   33.4990   49.5490 C   0  0  0  0  0  0  0  0  0  0  0  0
   62.5040   33.7440   48.3070 C   0  0  0  0  0  0  0  0  0  0  0  0
   61.7550   34.2180   47.2770 N   0  0  0  0  0  0  0  0  0  0  0  0
   60.4250   34.4640   47.4160 C   0  0  0  0  0  0  0  0  0  0  0  0
   59.7630   34.8940   46.4360 O   0  0  0  0  0  0  0  0  0  0  0  0
   59.7940   34.2330   48.6430 C   0  0  0  0  0  0  0  0  0  0  0  0
   57.8390   33.0330   52.0150 C   0  0  0  0  0  0  0  0  0  0  0  0
   57.8580   34.2710   52.5710 F   0  0  0  0  0  0  0  0  0  0  0  0
   56.7600   32.1790   52.2630 C   0  0  0  0  0  0  0  0  0  0  0  0
   53.2060   30.8850   51.8400 C   0  0  0  0  0  0  0  0  0  0  0  0
   52.8560   30.2530   50.6380 C   0  0  0  0  0  0  0  0  0  0  0  0
   51.7400   30.7170   49.9390 C   0  0  0  0  0  0  0  0  0  0  0  0
   51.3960   30.1670   48.8600 O   0  0  0  0  0  0  0  0  0  0  0  0
   51.0210   31.7620   50.4240 N   0  0  0  0  0  0  0  0  0  0  0  0
   51.3770   32.3710   51.5850 C   0  0  0  0  0  0  0  0  0  0  0  0
   50.7000   33.3390   52.0190 O   0  0  0  0  0  0  0  0  0  0  0  0
   52.4590   31.9360   52.2790 N   0  0  0  0  0  0  0  0  0  0  0  0
   57.7380   29.4958   50.3863 H   0  0  0  0  0  0  0  0  0  0  0  0
   59.6671   31.0122   49.9483 H   0  0  0  0  0  0  0  0  0  0  0  0
   62.5142   33.1038   50.3804 H   0  0  0  0  0  0  0  0  0  0  0  0
   63.5777   33.5529   48.1630 H   0  0  0  0  0  0  0  0  0  0  0  0
   58.7161   34.4206   48.7568 H   0  0  0  0  0  0  0  0  0  0  0  0
   55.9276   32.5200   52.8961 H   0  0  0  0  0  0  0  0  0  0  0  0
   53.4483   29.4094   50.2539 H   0  0  0  0  0  0  0  0  0  0  0  0
  1  2  2  0
  2  3  1  0
  3  4  1  0
  4  5  2  0
  5  6  1  0
  6  7  2  0
  7  8  1  0
  8  9  1  0
  9 10  1  0
 10 11  2  0
 11 12  1  0
 12 13  1  0
 13 14  2  0
 13 15  1  0
  7 16  1  0
 16 17  1  0
 16 18  2  0
  2 19  1  0
 19 20  2  0
 20 21  1  0
 21 22  2  0
 21 23  1  0
 23 24  1  0
 24 25  2  0
 24 26  1  0
 18  4  1  0
 26 19  1  0
 15  9  2  0
  5 27  1  0
  6 28  1  0
 10 29  1  0
 11 30  1  0
 15 31  1  0
 18 32  1  0
 20 33  1  0
M  CHG  4   3  -1  12  -1  23  -1  26  -1
M  END
>  <UniqueID>  (2) 
2

>  <SMILES>  (2) 
O=C([N-]c1ccc(Oc2cc[n-]c(=O)c2)c(F)c1)c1cc(=O)[n-]c(=O)[n-]1

>  <Energy>  (2) 
50.44091955930252

>  <Genealogy>  (2) 
O=C([N-]c1ccc(Oc2cc[n-]c(=O)c2)c(F)c1)c1cc(=O)[n-]c(=O)[n-]1 (protonated)
O=C([N-]c1ccc(Oc2cc[n-]c(=O)c2)c(F)c1)c1cc(=O)[n-]c(=O)[n-]1 (3D coordinates assigned)
O=C([N-]c1ccc(Oc2cc[n-]c(=O)c2)c(F)c1)c1cc(=O)[n-]c(=O)[n-]1 (optimized conformer: 50.44091955930252 kcal/mol)

>  <smiles>  (2) 
O=C(Nc1ccc(Oc2cc[nH]c(=O)c2)c(F)c1)c1cc(=O)[nH]c(=O)[nH]1

>  <score_type>  (2) 
oracle

>  <origin>  (2) 
adg

>  <m_score__min__energy>  (2) 
-13.81

>  <m_primary>  (2) 
energy

$$$$
2:0
     RDKit          3D

 50 52  0  0  0  0  0  0  0  0999 V2000
   58.5300   28.5800   44.1910 C   0  0  0  0  0  0  0  0  0  0  0  0
   57.5360   29.6170   44.7500 C   0  0  0  0  0  0  0  0  0  0  0  0
   58.0450   31.0200   44.3860 C   0  0  0  0  0  0  0  0  0  0  0  0
   57.4780   29.5450   46.1850 O   0  0  0  0  0  0  0  0  0  0  0  0
   58.5260   29.1070   47.0130 C   0  0  0  0  0  0  0  0  0  0  0  0
   59.4100   30.0440   47.5980 C   0  0  0  0  0  0  0  0  0  0  0  0
   59.3420   31.4880   47.2600 C   0  0  0  0  0  0  0  0  0  0  0  0
   60.4740   32.1560   46.7590 C   0  0  0  0  0  0  0  0  0  0  0  0
   60.4120   33.5160   46.4460 C   0  0  0  0  0  0  0  0  0  0  0  0
   59.2180   34.2220   46.6220 C   0  0  0  0  0  0  0  0  0  0  0  0
   59.1610   35.5430   46.3200 F   0  0  0  0  0  0  0  0  0  0  0  0
   58.0850   33.5660   47.1080 C   0  0  0  0  0  0  0  0  0  0  0  0
   58.1430   32.2050   47.4220 C   0  0  0  0  0  0  0  0  0  0  0  0
   60.3930   29.5950   48.4950 C   0  0  0  0  0  0  0  0  0  0  0  0
   60.5300   28.2360   48.7760 C   0  0  0  0  0  0  0  0  0  0  0  0
   61.4920   27.8180   49.6340 F   0  0  0  0  0  0  0  0  0  0  0  0
   59.7070   27.3050   48.1460 C   0  0  0  0  0  0  0  0  0  0  0  0
   58.7140   27.7240   47.2440 C   0  0  0  0  0  0  0  0  0  0  0  0
   57.9060   26.7040   46.5330 C   0  0  0  0  0  0  0  0  0  0  0  0
   58.5310   25.7180   45.7520 C   0  0  0  0  0  0  0  0  0  0  0  0
   57.7710   24.7420   45.1030 C   0  0  0  0  0  0  0  0  0  0  0  0
   56.3750   24.7450   45.2160 C   0  0  0  0  0  0  0  0  0  0  0  0
   55.4200   23.4950   44.4260 S   0  0  0  0  0  0  0  0  0  0  0  0
   55.9520   21.8980   45.0030 C   0  0  0  0  0  0  0  0  0  0  0  0
   53.9650   23.6870   44.7460 O   0  0  0  0  0  0  0  0  0  0  0  0
   55.6030   23.5770   42.9370 O   0  0  0  0  0  0  0  0  0  0  0  0
   55.7450   25.7290   45.9860 C   0  0  0  0  0  0  0  0  0  0  0  0
   56.5040   26.7060   46.6360 C   0  0  0  0  0  0  0  0  0  0  0  0
   56.1620   29.3950   44.1460 C   0  0  0  0  0  0  0  0  0  0  0  0
   55.1970   29.0360   44.8730 O   0  0  0  0  0  0  0  0  0  0  0  0
   55.9300   29.6480   42.7980 O   0  0  0  0  0  0  0  0  0  0  0  0
   59.0267   28.0618   45.0245 H   0  0  0  0  0  0  0  0  0  0  0  0
   57.9879   27.8476   43.5748 H   0  0  0  0  0  0  0  0  0  0  0  0
   59.2847   29.0906   43.5748 H   0  0  0  0  0  0  0  0  0  0  0  0
   58.2503   31.5859   45.3067 H   0  0  0  0  0  0  0  0  0  0  0  0
   58.9689   30.9331   43.7953 H   0  0  0  0  0  0  0  0  0  0  0  0
   57.2803   31.5457   43.7953 H   0  0  0  0  0  0  0  0  0  0  0  0
   61.4141   31.6039   46.6127 H   0  0  0  0  0  0  0  0  0  0  0  0
   61.3036   34.0322   46.0606 H   0  0  0  0  0  0  0  0  0  0  0  0
   57.1452   34.1212   47.2440 H   0  0  0  0  0  0  0  0  0  0  0  0
   57.2456   31.6919   47.7980 H   0  0  0  0  0  0  0  0  0  0  0  0
   61.0609   30.3219   48.9803 H   0  0  0  0  0  0  0  0  0  0  0  0
   59.8355   26.2330   48.3563 H   0  0  0  0  0  0  0  0  0  0  0  0
   59.6263   25.7143   45.6507 H   0  0  0  0  0  0  0  0  0  0  0  0
   58.2706   23.9685   44.5012 H   0  0  0  0  0  0  0  0  0  0  0  0
   55.9553   21.8880   46.1029 H   0  0  0  0  0  0  0  0  0  0  0  0
   55.2627   21.1255   44.6314 H   0  0  0  0  0  0  0  0  0  0  0  0
   56.9669   21.6933   44.6314 H   0  0  0  0  0  0  0  0  0  0  0  0
   54.6490   25.7335   46.0800 H   0  0  0  0  0  0  0  0  0  0  0  0
   56.0011   27.4817   47.2321 H   0  0  0  0  0  0  0  0  0  0  0  0
  1  2  1  0
  2  3  1  0
  2  4  1  0
  4  5  1  0
  5  6  2  0
  6  7  1  0
  7  8  2  0
  8  9  1  0
  9 10  2  0
 10 11  1  0
 10 12  1  0
 12 13  2  0
  6 14  1  0
 14 15  2  0
 15 16  1  0
 15 17  1  0
 17 18  2  0
 18 19  1  0
 19 20  2  0
 20 21  1  0
 21 22  2  0
 22 23  1  0
 23 24  1  0
 23 25  2  0
 23 26  2  0
 22 27  1  0
 27 28  2  0
  2 29  1  0
 29 30  2  0
 29 31  1  0
 18  5  1  0
 28 19  1  0
 13  7  1  0
  1 32  1  0
  1 33  1  0
  1 34  1  0
  3 35  1  0
  3 36  1  0
  3 37  1  0
  8 38  1  0
  9 39  1  0
 12 40  1  0
 13 41  1  0
 14 42  1  0
 17 43  1  0
 20 44  1  0
 21 45  1  0
 24 46  1  0
 24 47  1  0
 24 48  1  0
 27 49  1  0
 28 50  1  0
M  CHG  1  31  -1
M  END
>  <UniqueID>  (3) 
3

>  <SMILES>  (3) 
CC(C)(Oc1c(-c2ccc(F)cc2)cc(F)cc1-c1ccc(S(C)(=O)=O)cc1)C(=O)[O-]

>  <Energy>  (3) 
65.32178536469596

>  <Genealogy>  (3) 
CC(C)(Oc1c(-c2ccc(F)cc2)cc(F)cc1-c1ccc(S(C)(=O)=O)cc1)C(=O)[O-] (protonated)
CC(C)(Oc1c(-c2ccc(F)cc2)cc(F)cc1-c1ccc(S(C)(=O)=O)cc1)C(=O)[O-] (3D coordinates assigned)
CC(C)(Oc1c(-c2ccc(F)cc2)cc(F)cc1-c1ccc(S(C)(=O)=O)cc1)C(=O)[O-] (optimized conformer: 65.32178536469596 kcal/mol)

>  <smiles>  (3) 
CC(C)(Oc1c(-c2ccc(F)cc2)cc(F)cc1-c1ccc(S(C)(=O)=O)cc1)C(=O)O

>  <score_type>  (3) 
oracle

>  <origin>  (3) 
adg

>  <m_score__min__energy>  (3) 
-10.73

>  <m_primary>  (3) 
energy

$$$$
3:0
     RDKit          3D

 23 24  0  0  0  0  0  0  0  0999 V2000
   55.2130   23.7580   45.9950 O   0  0  0  0  0  0  0  0  0  0  0  0
   55.6000   24.9550   45.9830 C   0  0  0  0  0  0  0  0  0  0  0  0
   56.9160   25.3640   45.9660 C   0  0  0  0  0  0  0  0  0  0  0  0
   56.8180   26.7410   45.9550 C   0  0  0  0  0  0  0  0  0  0  0  0
   57.9630   27.7070   45.9630 C   0  0  0  0  0  0  0  0  0  0  0  0
   57.4880   29.0520   46.0000 O   0  0  0  0  0  0  0  0  0  0  0  0
   57.4510   29.9300   44.9040 C   0  0  0  0  0  0  0  0  0  0  0  0
   58.1210   31.1710   44.9000 C   0  0  0  0  0  0  0  0  0  0  0  0
   58.0460   32.0060   43.7810 C   0  0  0  0  0  0  0  0  0  0  0  0
   57.3100   31.6150   42.6600 C   0  0  0  0  0  0  0  0  0  0  0  0
   56.6460   30.3860   42.6560 C   0  0  0  0  0  0  0  0  0  0  0  0
   56.7180   29.5470   43.7730 C   0  0  0  0  0  0  0  0  0  0  0  0
   55.5180   27.0960   45.9750 N   0  0  0  0  0  0  0  0  0  0  0  0
   54.7640   26.0090   45.9900 N   0  0  0  0  0  0  0  0  0  0  0  0
   57.8243   24.7436   45.9621 H   0  0  0  0  0  0  0  0  0  0  0  0
   58.5870   27.5199   46.8493 H   0  0  0  0  0  0  0  0  0  0  0  0
   58.5518   27.5651   45.0448 H   0  0  0  0  0  0  0  0  0  0  0  0
   58.7039   31.4827   45.7792 H   0  0  0  0  0  0  0  0  0  0  0  0
   58.5683   32.9741   43.7834 H   0  0  0  0  0  0  0  0  0  0  0  0
   57.2533   32.2742   41.7812 H   0  0  0  0  0  0  0  0  0  0  0  0
   56.0660   30.0777   41.7737 H   0  0  0  0  0  0  0  0  0  0  0  0
   56.1952   28.5792   43.7634 H   0  0  0  0  0  0  0  0  0  0  0  0
   55.1430   28.0700   45.9800 H   0  0  0  0  0  0  0  0  0  0  0  0
  1  2  2  0
  2  3  1  0
  3  4  2  0
  4  5  1  0
  5  6  1  0
  6  7  1  0
  7  8  2  0
  8  9  1  0
  9 10  2  0
 10 11  1  0
 11 12  2  0
  4 13  1  0
 13 14  1  0
 14  2  1  0
 12  7  1  0
  3 15  1  0
  5 16  1  0
  5 17  1  0
  8 18  1  0
  9 19  1  0
 10 20  1  0
 11 21  1  0
 12 22  1  0
 13 23  1  0
M  CHG  1  14  -1
M  END
>  <UniqueID>  (4) 
4

>  <SMILES>  (4) 
O=c1cc(COc2ccccc2)[nH][n-]1

>  <Energy>  (4) 
53.506222393094546

>  <Genealogy>  (4) 
O=c1cc(COc2ccccc2)[nH][n-]1 (protonated)
O=c1cc(COc2ccccc2)[nH][n-]1 (3D coordinates assigned)
O=c1cc(COc2ccccc2)[nH][n-]1 (optimized conformer: 53.506222393094546 kcal/mol)

>  <smiles>  (4) 
O=c1cc(COc2ccccc2)[nH][nH]1

>  <score_type>  (4) 
oracle

>  <origin>  (4) 
adg

>  <m_score__min__energy>  (4) 
-8.6300000000000008

>  <m_primary>  (4) 
energy

$$$$
4:0
     RDKit          3D

 51 53  0  0  0  0  0  0  0  0999 V2000
   56.2344   31.5182   45.2606 H   0  0  0  0  0  0  0  0  0  0  0  0
   57.1280   31.0070   44.8730 C   0  0  0  0  0  0  0  0  0  0  0  0
   57.9050   31.6290   44.0410 N   0  0  0  0  0  0  0  0  0  0  0  0
   57.7710   33.0500   43.7350 C   0  0  0  0  0  0  0  0  0  0  0  0
   56.7115   33.2801   43.5493 H   0  0  0  0  0  0  0  0  0  0  0  0
   58.3752   33.2762   42.8440 H   0  0  0  0  0  0  0  0  0  0  0  0
   58.2740   33.9090   44.8980 C   0  0  0  0  0  0  0  0  0  0  0  0
   57.4603   34.0476   45.6251 H   0  0  0  0  0  0  0  0  0  0  0  0
   58.6006   34.8841   44.5074 H   0  0  0  0  0  0  0  0  0  0  0  0
   59.4050   33.2580   45.5580 N   0  0  0  0  0  0  0  0  0  0  0  0
   59.3790   32.2170   45.6470 H   0  0  0  0  0  0  0  0  0  0  0  0
   60.4270   33.9980   46.2500 C   0  0  0  0  0  0  0  0  0  0  0  0
   60.5510   35.2420   46.0590 O   0  0  0  0  0  0  0  0  0  0  0  0
   61.3750   33.3040   47.1460 C   0  0  0  0  0  0  0  0  0  0  0  0
   62.6970   33.7710   47.2400 C   0  0  0  0  0  0  0  0  0  0  0  0
   62.9968   34.6761   46.6915 H   0  0  0  0  0  0  0  0  0  0  0  0
   63.6330   33.0940   48.0250 C   0  0  0  0  0  0  0  0  0  0  0  0
   64.6680   33.4613   48.0865 H   0  0  0  0  0  0  0  0  0  0  0  0
   63.2550   31.9520   48.7310 C   0  0  0  0  0  0  0  0  0  0  0  0
   63.9984   31.4079   49.3321 H   0  0  0  0  0  0  0  0  0  0  0  0
   61.9350   31.4970   48.6770 C   0  0  0  0  0  0  0  0  0  0  0  0
   61.6408   30.6050   49.2496 H   0  0  0  0  0  0  0  0  0  0  0  0
   60.9780   32.1730   47.8940 C   0  0  0  0  0  0  0  0  0  0  0  0
   59.6340   31.7640   47.8530 O   0  0  0  0  0  0  0  0  0  0  0  0
   58.5990   32.3010   48.6710 C   0  0  0  0  0  0  0  0  0  0  0  0
   58.8612   32.1649   49.7306 H   0  0  0  0  0  0  0  0  0  0  0  0
   58.4818   33.3736   48.4571 H   0  0  0  0  0  0  0  0  0  0  0  0
   57.6546   31.7792   48.4571 H   0  0  0  0  0  0  0  0  0  0  0  0
   57.4200   29.6190   45.3130 C   0  0  0  0  0  0  0  0  0  0  0  0
   56.4180   28.6460   45.2350 C   0  0  0  0  0  0  0  0  0  0  0  0
   55.1540   28.9640   44.7500 O   0  0  0  0  0  0  0  0  0  0  0  0
   56.6760   27.3750   45.6220 N   0  0  0  0  0  0  0  0  0  0  0  0
   57.8890   26.9990   46.0960 C   0  0  0  0  0  0  0  0  0  0  0  0
   58.0730   25.4200   46.5130 S   0  0  0  0  0  0  0  0  0  0  0  0
   58.9090   27.9220   46.2000 N   0  0  0  0  0  0  0  0  0  0  0  0
   60.2500   27.5670   46.7230 C   0  0  0  0  0  0  0  0  0  0  0  0
   60.4595   26.5123   46.4910 H   0  0  0  0  0  0  0  0  0  0  0  0
   60.9969   28.2203   46.2482 H   0  0  0  0  0  0  0  0  0  0  0  0
   60.3150   27.7670   48.2200 C   0  0  0  0  0  0  0  0  0  0  0  0
   60.7800   26.7330   49.0620 C   0  0  0  0  0  0  0  0  0  0  0  0
   61.1226   25.7829   48.6262 H   0  0  0  0  0  0  0  0  0  0  0  0
   60.8060   26.9140   50.4500 C   0  0  0  0  0  0  0  0  0  0  0  0
   61.1548   26.1011   51.1038 H   0  0  0  0  0  0  0  0  0  0  0  0
   60.3880   28.1300   51.0070 C   0  0  0  0  0  0  0  0  0  0  0  0
   60.4193   28.2743   52.0970 H   0  0  0  0  0  0  0  0  0  0  0  0
   59.9300   29.1630   50.1770 C   0  0  0  0  0  0  0  0  0  0  0  0
   59.6038   30.1169   50.6171 H   0  0  0  0  0  0  0  0  0  0  0  0
   59.8870   28.9830   48.7900 C   0  0  0  0  0  0  0  0  0  0  0  0
   59.5183   29.7925   48.1429 H   0  0  0  0  0  0  0  0  0  0  0  0
   58.6790   29.2260   45.8190 C   0  0  0  0  0  0  0  0  0  0  0  0
   59.5990   30.0850   45.9310 O   0  0  0  0  0  0  0  0  0  0  0  0
  1  2  1  0
  2  3  2  0
  3  4  1  0
  4  5  1  0
  4  6  1  0
  4  7  1  0
  7  8  1  0
  7  9  1  0
  7 10  1  0
 10 11  1  0
 10 12  1  0
 12 13  2  0
 12 14  1  0
 14 15  2  0
 15 16  1  0
 15 17  1  0
 17 18  1  0
 17 19  2  0
 19 20  1  0
 19 21  1  0
 21 22  1  0
 21 23  2  0
 23 24  1  0
 24 25  1  0
 25 26  1  0
 25 27  1  0
 25 28  1  0
  2 29  1  0
 29 30  2  0
 30 31  1  0
 30 32  1  0
 32 33  1  0
 33 34  2  0
 33 35  1  0
 35 36  1  0
 36 37  1  0
 36 38  1  0
 36 39  1  0
 39 40  2  0
 40 41  1  0
 40 42  1  0
 42 43  1  0
 42 44  2  0
 44 45  1  0
 44 46  1  0
 46 47  1  0
 46 48  2  0
 48 49  1  0
 35 50  1  0
 50 51  2  0
 23 14  1  0
 50 29  1  0
 48 39  1  0
M  CHG  2  31  -1  32  -1
M  END
>  <UniqueID>  (5) 
5

>  <SMILES>  (5) 
COc1ccccc1C(=O)NCC/N=C/c1c([O-])[n-]c(=S)n(Cc2ccccc2)c1=O

>  <Energy>  (5) 
57.09119447270884

>  <Genealogy>  (5) 
COc1ccccc1C(=O)NCCN=Cc1c([O-])[n-]c(=S)n(Cc2ccccc2)c1=O (protonated)
COc1ccccc1C(=O)NCC/N=C/c1c([O-])[n-]c(=S)n(Cc2ccccc2)c1=O (cis-trans isomerization)
COc1ccccc1C(=O)NCC/N=C/c1c([O-])[n-]c(=S)n(Cc2ccccc2)c1=O (3D coordinates assigned)
COc1ccccc1C(=O)NCC/N=C/c1c([O-])[n-]c(=S)n(Cc2ccccc2)c1=O (optimized conformer: 57.09119447270884 kcal/mol)

>  <smiles>  (5) 
COc1ccccc1C(=O)NCCN=Cc1c(O)[nH]c(=S)n(Cc2ccccc2)c1=O

>  <score_type>  (5) 
oracle

>  <origin>  (5) 
adg

>  <m_score__min__energy>  (5) 
-12.779999999999999

>  <m_primary>  (5) 
energy

$$$$
5:0
     RDKit          3D

 36 37  0  0  0  0  0  0  0  0999 V2000
   58.0020   26.7100   46.9530 C   0  0  0  0  0  0  0  0  0  0  0  0
   57.8370   28.0440   46.2600 C   0  0  0  0  0  0  0  0  0  0  0  0
   58.9040   28.9740   46.2030 C   0  0  0  0  0  0  0  0  0  0  0  0
   60.2780   28.5890   46.7030 C   0  0  0  0  0  0  0  0  0  0  0  0
   58.6700   30.2630   45.6610 C   0  0  0  0  0  0  0  0  0  0  0  0
   59.6160   31.3010   45.7600 O   0  0  0  0  0  0  0  0  0  0  0  0
   59.6020   32.3400   46.7050 C   0  0  0  0  0  0  0  0  0  0  0  0
   59.4720   33.6570   46.2330 C   0  0  0  0  0  0  0  0  0  0  0  0
   59.2680   33.9710   44.5150 Cl  0  0  0  0  0  0  0  0  0  0  0  0
   59.5510   34.7380   47.1150 C   0  0  0  0  0  0  0  0  0  0  0  0
   59.7460   34.5150   48.4770 C   0  0  0  0  0  0  0  0  0  0  0  0
   59.8320   33.2130   48.9690 C   0  0  0  0  0  0  0  0  0  0  0  0
   59.7310   32.1110   48.1010 C   0  0  0  0  0  0  0  0  0  0  0  0
   59.6900   30.7560   48.6860 C   0  0  0  0  0  0  0  0  0  0  0  0
   60.7520   30.1970   49.0690 O   0  0  0  0  0  0  0  0  0  0  0  0
   58.4750   30.1100   48.8790 O   0  0  0  0  0  0  0  0  0  0  0  0
   57.4620   30.5380   44.9920 C   0  0  0  0  0  0  0  0  0  0  0  0
   57.2590   31.8360   44.4050 N   0  0  0  0  0  0  0  0  0  0  0  0
   56.7000   32.7430   45.0560 O   0  0  0  0  0  0  0  0  0  0  0  0
   57.5840   32.0610   43.0870 O   0  0  0  0  0  0  0  0  0  0  0  0
   56.4470   29.5580   44.9360 C   0  0  0  0  0  0  0  0  0  0  0  0
   55.1570   29.8210   44.1960 C   0  0  0  0  0  0  0  0  0  0  0  0
   56.6240   28.3360   45.6090 C   0  0  0  0  0  0  0  0  0  0  0  0
   55.5920   27.4010   45.6180 O   0  0  0  0  0  0  0  0  0  0  0  0
   57.9837   26.8582   48.0428 H   0  0  0  0  0  0  0  0  0  0  0  0
   57.1798   26.0405   46.6601 H   0  0  0  0  0  0  0  0  0  0  0  0
   58.9625   26.2610   46.6601 H   0  0  0  0  0  0  0  0  0  0  0  0
   60.2810   28.5882   47.8030 H   0  0  0  0  0  0  0  0  0  0  0  0
   60.5340   27.5845   46.3349 H   0  0  0  0  0  0  0  0  0  0  0  0
   61.0187   29.3142   46.3349 H   0  0  0  0  0  0  0  0  0  0  0  0
   59.4592   35.7658   46.7341 H   0  0  0  0  0  0  0  0  0  0  0  0
   59.8323   35.3684   49.1657 H   0  0  0  0  0  0  0  0  0  0  0  0
   59.9802   33.0463   50.0461 H   0  0  0  0  0  0  0  0  0  0  0  0
   54.3459   29.9864   44.9204 H   0  0  0  0  0  0  0  0  0  0  0  0
   55.2722   30.7141   43.5643 H   0  0  0  0  0  0  0  0  0  0  0  0
   54.9133   28.9541   43.5643 H   0  0  0  0  0  0  0  0  0  0  0  0
  1  2  1  0
  2  3  2  0
  3  4  1  0
  3  5  1  0
  5  6  1  0
  6  7  1  0
  7  8  2  0
  8  9  1  0
  8 10  1  0
 10 11  2  0
 11 12  1  0
 12 13  2  0
 13 14  1  0
 14 15  2  0
 14 16  1  0
  5 17  2  0
 17 18  1  0
 18 19  2  0
 18 20  1  0
 17 21  1  0
 21 22  1  0
 21 23  2  0
 23 24  1  0
 23  2  1  0
 13  7  1  0
  1 25  1  0
  1 26  1  0
  1 27  1  0
  4 28  1  0
  4 29  1  0
  4 30  1  0
 10 31  1  0
 11 32  1  0
 12 33  1  0
 22 34  1  0
 22 35  1  0
 22 36  1  0
M  CHG  4  16  -1  18   1  20  -1  24  -1
M  END
>  <UniqueID>  (6) 
6

>  <SMILES>  (6) 
Cc1c(C)c(Oc2c(Cl)cccc2C(=O)[O-])c([N+](=O)[O-])c(C)c1[O-]

>  <Energy>  (6) 
61.759867265928335

>  <Genealogy>  (6) 
Cc1c(C)c(Oc2c(Cl)cccc2C(=O)[O-])c([N+](=O)[O-])c(C)c1[O-] (protonated)
Cc1c(C)c(Oc2c(Cl)cccc2C(=O)[O-])c([N+](=O)[O-])c(C)c1[O-] (3D coordinates assigned)
Cc1c(C)c(Oc2c(Cl)cccc2C(=O)[O-])c([N+](=O)[O-])c(C)c1[O-] (optimized conformer: 61.759867265928335 kcal/mol)

>  <smiles>  (6) 
Cc1c(C)c(Oc2c(Cl)cccc2C(=O)O)c([N+](=O)[O-])c(C)c1O

>  <score_type>  (6) 
oracle

>  <origin>  (6) 
adg

>  <m_score__min__energy>  (6) 
-11

>  <m_primary>  (6) 
energy

$$$$
6:0
     RDKit          3D

 54 57  0  0  0  0  0  0  0  0999 V2000
   55.5280   28.9680   45.1860 N   0  0  0  0  0  0  0  0  0  0  0  0
   56.5860   29.3580   43.8770 S   0  0  0  0  0  0  0  0  0  0  0  0
   55.7960   29.4690   42.6020 O   0  0  0  0  0  0  0  0  0  0  0  0
   57.6050   28.2620   43.7270 O   0  0  0  0  0  0  0  0  0  0  0  0
   57.3850   30.8950   44.2040 C   0  0  0  0  0  0  0  0  0  0  0  0
   57.7600   31.2470   45.5070 C   0  0  0  0  0  0  0  0  0  0  0  0
   58.3700   32.4800   45.7540 C   0  0  0  0  0  0  0  0  0  0  0  0
   58.5930   33.3840   44.7080 C   0  0  0  0  0  0  0  0  0  0  0  0
   59.2180   34.6410   45.0110 N   0  0  0  0  0  0  0  0  0  0  0  0
   59.9280   34.9920   46.2070 C   0  0  0  0  0  0  0  0  0  0  0  0
   59.3710   35.6660   47.1120 O   0  0  0  0  0  0  0  0  0  0  0  0
   61.2470   34.4830   46.4290 N   0  0  0  0  0  0  0  0  0  0  0  0
   61.6100   33.6880   47.5640 C   0  0  0  0  0  0  0  0  0  0  0  0
   61.2820   34.1340   48.8500 C   0  0  0  0  0  0  0  0  0  0  0  0
   61.5430   33.3280   49.9630 C   0  0  0  0  0  0  0  0  0  0  0  0
   62.1620   32.0820   49.8000 C   0  0  0  0  0  0  0  0  0  0  0  0
   62.3540   31.0000   51.1790 S   0  0  0  0  0  0  0  0  0  0  0  0
   63.6990   30.3390   51.0920 O   0  0  0  0  0  0  0  0  0  0  0  0
   62.2600   31.7730   52.4650 O   0  0  0  0  0  0  0  0  0  0  0  0
   61.1200   29.7810   51.1660 N   0  0  0  0  0  0  0  0  0  0  0  0
   60.7360   29.0130   50.0160 C   0  0  0  0  0  0  0  0  0  0  0  0
   60.8970   27.6170   49.9630 C   0  0  0  0  0  0  0  0  0  0  0  0
   60.3970   26.8920   48.8770 C   0  0  0  0  0  0  0  0  0  0  0  0
   59.7500   27.5540   47.8260 C   0  0  0  0  0  0  0  0  0  0  0  0
   59.0270   26.6560   46.4980 S   0  0  0  0  0  0  0  0  0  0  0  0
   59.3820   27.3340   45.2050 O   0  0  0  0  0  0  0  0  0  0  0  0
   59.5360   25.2430   46.4770 O   0  0  0  0  0  0  0  0  0  0  0  0
   57.3090   26.6490   46.7270 N   0  0  0  0  0  0  0  0  0  0  0  0
   56.5090   25.8190   46.1360 C   0  0  0  0  0  0  0  0  0  0  0  0
   55.1670   25.8310   46.2820 N   0  0  0  0  0  0  0  0  0  0  0  0
   54.5830   24.8460   45.5480 C   0  0  0  0  0  0  0  0  0  0  0  0
   55.4620   24.0520   44.8190 C   0  0  0  0  0  0  0  0  0  0  0  0
   57.0260   24.6060   45.1030 S   0  0  0  0  0  0  0  0  0  0  0  0
   59.6340   28.9490   47.8550 C   0  0  0  0  0  0  0  0  0  0  0  0
   60.1290   29.6740   48.9420 C   0  0  0  0  0  0  0  0  0  0  0  0
   62.5720   31.6760   48.5220 C   0  0  0  0  0  0  0  0  0  0  0  0
   62.2860   32.4680   47.4080 C   0  0  0  0  0  0  0  0  0  0  0  0
   58.2460   33.0160   43.3970 C   0  0  0  0  0  0  0  0  0  0  0  0
   57.6390   31.7810   43.1490 C   0  0  0  0  0  0  0  0  0  0  0  0
   54.5830   29.3390   44.9390 H   0  0  0  0  0  0  0  0  0  0  0  0
   57.5738   30.5510   46.3382 H   0  0  0  0  0  0  0  0  0  0  0  0
   58.6771   32.7422   46.7772 H   0  0  0  0  0  0  0  0  0  0  0  0
   60.8174   35.1218   48.9856 H   0  0  0  0  0  0  0  0  0  0  0  0
   61.2615   33.6734   50.9687 H   0  0  0  0  0  0  0  0  0  0  0  0
   61.4179   27.0938   50.7784 H   0  0  0  0  0  0  0  0  0  0  0  0
   60.5122   25.7984   48.8480 H   0  0  0  0  0  0  0  0  0  0  0  0
   53.4944   24.6888   45.5321 H   0  0  0  0  0  0  0  0  0  0  0  0
   55.1836   23.2088   44.1698 H   0  0  0  0  0  0  0  0  0  0  0  0
   59.1513   29.4762   47.0189 H   0  0  0  0  0  0  0  0  0  0  0  0
   60.0411   30.7704   48.9537 H   0  0  0  0  0  0  0  0  0  0  0  0
   63.1206   30.7308   48.3966 H   0  0  0  0  0  0  0  0  0  0  0  0
   62.5915   32.1347   46.4052 H   0  0  0  0  0  0  0  0  0  0  0  0
   58.4527   33.7022   42.5625 H   0  0  0  0  0  0  0  0  0  0  0  0
   57.3599   31.5041   42.1217 H   0  0  0  0  0  0  0  0  0  0  0  0
  1  2  1  0
  2  3  2  0
  2  4  2  0
  2  5  1  0
  5  6  2  0
  6  7  1  0
  7  8  2  0
  8  9  1  0
  9 10  1  0
 10 11  2  0
 10 12  1  0
 12 13  1  0
 13 14  2  0
 14 15  1  0
 15 16  2  0
 16 17  1  0
 17 18  2  0
 17 19  2  0
 17 20  1  0
 20 21  1  0
 21 22  2  0
 22 23  1  0
 23 24  2  0
 24 25  1  0
 25 26  2  0
 25 27  2  0
 25 28  1  0
 28 29  2  3
 29 30  1  0
 30 31  1  0
 31 32  2  0
 32 33  1  0
 24 34  1  0
 34 35  2  0
 16 36  1  0
 36 37  2  0
  8 38  1  0
 38 39  2  0
 39  5  1  0
 37 13  1  0
 35 21  1  0
 33 29  1  0
  1 40  1  0
  6 41  1  0
  7 42  1  0
 14 43  1  0
 15 44  1  0
 22 45  1  0
 23 46  1  0
 31 47  1  0
 32 48  1  0
 34 49  1  0
 35 50  1  0
 36 51  1  0
 37 52  1  0
 38 53  1  0
 39 54  1  0
M  CHG  5   1  -1   9  -1  12  -1  20  -1  30  -1
M  END
>  <UniqueID>  (7) 
7

>  <SMILES>  (7) 
[NH-]S(=O)(=O)c1ccc([N-]C(=O)[N-]c2ccc(S(=O)(=O)[N-]c3ccc(S(=O)(=O)N=c4[n-]ccs4)cc3)cc2)cc1

>  <Energy>  (7) 
98.24128402390942

>  <Genealogy>  (7) 
[NH-]S(=O)(=O)c1ccc([N-]C(=O)[N-]c2ccc(S(=O)(=O)[N-]c3ccc(S(=O)(=O)N=c4[n-]ccs4)cc3)cc2)cc1 (protonated)
[NH-]S(=O)(=O)c1ccc([N-]C(=O)[N-]c2ccc(S(=O)(=O)[N-]c3ccc(S(=O)(=O)N=c4[n-]ccs4)cc3)cc2)cc1 (3D coordinates assigned)
[NH-]S(=O)(=O)c1ccc([N-]C(=O)[N-]c2ccc(S(=O)(=O)[N-]c3ccc(S(=O)(=O)N=c4[n-]ccs4)cc3)cc2)cc1 (optimized conformer: 98.24128402390942 kcal/mol)

>  <smiles>  (7) 
NS(=O)(=O)c1ccc(NC(=O)Nc2ccc(S(=O)(=O)Nc3ccc(S(=O)(=O)N=c4[nH]ccs4)cc3)cc2)cc1

>  <score_type>  (7) 
oracle

>  <origin>  (7) 
adg

>  <m_score__min__energy>  (7) 
-17.59

>  <m_primary>  (7) 
energy

$$$$
7:0
     RDKit          3D

 43 45  0  0  0  0  0  0  0  0999 V2000
   54.4270   26.9630   46.7330 H   0  0  0  0  0  0  0  0  0  0  0  0
   54.7840   26.3430   45.9710 N   0  0  0  0  0  0  0  0  0  0  0  0
   55.7460   25.5020   46.1780 C   0  0  0  0  0  0  0  0  0  0  0  0
   55.4660   24.2310   46.5760 N   0  0  0  0  0  0  0  0  0  0  0  0
   56.4500   23.3180   46.7930 C   0  0  0  0  0  0  0  0  0  0  0  0
   56.1914   22.2967   47.1092 H   0  0  0  0  0  0  0  0  0  0  0  0
   57.7890   23.6750   46.6150 C   0  0  0  0  0  0  0  0  0  0  0  0
   58.5840   22.9330   46.7805 H   0  0  0  0  0  0  0  0  0  0  0  0
   58.1170   24.9810   46.2250 C   0  0  0  0  0  0  0  0  0  0  0  0
   59.5460   25.3380   46.0470 C   0  0  0  0  0  0  0  0  0  0  0  0
   60.2210   24.5858   45.6127 H   0  0  0  0  0  0  0  0  0  0  0  0
   60.0580   26.5300   46.3880 C   0  0  0  0  0  0  0  0  0  0  0  0
   60.9968   26.5582   46.9606 H   0  0  0  0  0  0  0  0  0  0  0  0
   59.4110   27.8030   46.0250 C   0  0  0  0  0  0  0  0  0  0  0  0
   58.7860   27.9110   44.8230 N   0  0  0  0  0  0  0  0  0  0  0  0
   58.1830   29.0670   44.4460 C   0  0  0  0  0  0  0  0  0  0  0  0
   57.6793   29.1296   43.4701 H   0  0  0  0  0  0  0  0  0  0  0  0
   58.2000   30.1800   45.2950 C   0  0  0  0  0  0  0  0  0  0  0  0
   57.5320   31.4390   44.9040 C   0  0  0  0  0  0  0  0  0  0  0  0
   56.2770   31.4640   44.8110 O   0  0  0  0  0  0  0  0  0  0  0  0
   58.2670   32.6440   44.6580 N   0  0  0  0  0  0  0  0  0  0  0  0
   57.7540   33.9910   44.8900 C   0  0  0  0  0  0  0  0  0  0  0  0
   57.2294   34.3401   43.9884 H   0  0  0  0  0  0  0  0  0  0  0  0
   57.0605   33.9684   45.7436 H   0  0  0  0  0  0  0  0  0  0  0  0
   58.9030   34.9470   45.2070 C   0  0  0  0  0  0  0  0  0  0  0  0
   59.5548   35.0278   44.3246 H   0  0  0  0  0  0  0  0  0  0  0  0
   58.4756   35.9262   45.4685 H   0  0  0  0  0  0  0  0  0  0  0  0
   59.7200   34.4590   46.3770 C   0  0  0  0  0  0  0  0  0  0  0  0
   59.2450   34.6280   47.6880 C   0  0  0  0  0  0  0  0  0  0  0  0
   58.2659   35.0992   47.8596 H   0  0  0  0  0  0  0  0  0  0  0  0
   60.0130   34.1990   48.7770 C   0  0  0  0  0  0  0  0  0  0  0  0
   59.6325   34.3251   49.8014 H   0  0  0  0  0  0  0  0  0  0  0  0
   61.2620   33.6110   48.5640 C   0  0  0  0  0  0  0  0  0  0  0  0
   61.8630   33.2708   49.4202 H   0  0  0  0  0  0  0  0  0  0  0  0
   61.7480   33.4550   47.2630 C   0  0  0  0  0  0  0  0  0  0  0  0
   62.7353   32.9992   47.0969 H   0  0  0  0  0  0  0  0  0  0  0  0
   60.9820   33.8770   46.1720 C   0  0  0  0  0  0  0  0  0  0  0  0
   61.3689   33.7528   45.1498 H   0  0  0  0  0  0  0  0  0  0  0  0
   58.8390   30.0460   46.5390 C   0  0  0  0  0  0  0  0  0  0  0  0
   58.8820   31.0100   47.3480 O   0  0  0  0  0  0  0  0  0  0  0  0
   59.4300   28.8690   46.8710 N   0  0  0  0  0  0  0  0  0  0  0  0
   57.0750   25.9000   45.9890 C   0  0  0  0  0  0  0  0  0  0  0  0
   57.3044   26.9237   45.6583 H   0  0  0  0  0  0  0  0  0  0  0  0
  1  2  1  0
  2  3  2  0
  3  4  1  0
  4  5  1  0
  5  6  1  0
  5  7  2  0
  7  8  1  0
  7  9  1  0
  9 10  1  0
 10 11  1  0
 10 12  2  0
 12 13  1  0
 12 14  1  0
 14 15  2  0
 15 16  1  0
 16 17  1  0
 16 18  2  0
 18 19  1  0
 19 20  2  0
 19 21  1  0
 21 22  1  0
 22 23  1  0
 22 24  1  0
 22 25  1  0
 25 26  1  0
 25 27  1  0
 25 28  1  0
 28 29  2  0
 29 30  1  0
 29 31  1  0
 31 32  1  0
 31 33  2  0
 33 34  1  0
 33 35  1  0
 35 36  1  0
 35 37  2  0
 37 38  1  0
 18 39  1  0
 39 40  2  0
 39 41  1  0
  9 42  2  0
 42 43  1  0
 42  3  1  0
 41 14  1  0
 37 28  1  0
M  CHG  3   4  -1  21  -1  41  -1
M  END
>  <UniqueID>  (8) 
8

>  <SMILES>  (8) 
[H]/N=c1/cc(/C=C/c2ncc(C(=O)[N-]CCc3ccccc3)c(=O)[n-]2)cc[n-]1

>  <Energy>  (8) 
51.423559639099274

>  <Genealogy>  (8) 
N=c1cc(C=Cc2ncc(C(=O)[N-]CCc3ccccc3)c(=O)[n-]2)cc[n-]1 (protonated)
[H]/N=c1/cc(/C=C/c2ncc(C(=O)[N-]CCc3ccccc3)c(=O)[n-]2)cc[n-]1 (cis-trans isomerization)
[H]/N=c1/cc(/C=C/c2ncc(C(=O)[N-]CCc3ccccc3)c(=O)[n-]2)cc[n-]1 (3D coordinates assigned)
[H]/N=c1/cc(/C=C/c2ncc(C(=O)[N-]CCc3ccccc3)c(=O)[n-]2)cc[n-]1 (optimized conformer: 51.423559639099274 kcal/mol)

>  <smiles>  (8) 
N=c1cc(C=Cc2ncc(C(=O)NCCc3ccccc3)c(=O)[nH]2)cc[nH]1

>  <score_type>  (8) 
oracle

>  <origin>  (8) 
adg

>  <m_score__min__energy>  (8) 
-13.630000000000001

>  <m_primary>  (8) 
energy

$$$$
8:0
     RDKit          3D

 25 26  0  0  0  0  0  0  0  0999 V2000
   56.1730   22.4900   41.6090 H   0  0  0  0  0  0  0  0  0  0  0  0
   55.8590   22.2420   42.5400 O   0  0  0  0  0  0  0  0  0  0  0  0
   56.2830   22.9470   43.6630 C   0  0  0  0  0  0  0  0  0  0  0  0
   57.5360   22.7520   44.1420 N   0  0  0  0  0  0  0  0  0  0  0  0
   57.9900   23.4160   45.2370 C   0  0  0  0  0  0  0  0  0  0  0  0
   59.1680   23.2020   45.6270 O   0  0  0  0  0  0  0  0  0  0  0  0
   57.1760   24.3060   45.8960 N   0  0  0  0  0  0  0  0  0  0  0  0
   57.6470   25.0270   47.0950 C   0  0  0  0  0  0  0  0  0  0  0  0
   58.1674   24.3225   47.7604 H   0  0  0  0  0  0  0  0  0  0  0  0
   56.7800   25.4648   47.6115 H   0  0  0  0  0  0  0  0  0  0  0  0
   58.5650   26.1000   46.7170 N   0  0  0  0  0  0  0  0  0  0  0  0
   58.1860   27.4600   46.4790 C   0  0  0  0  0  0  0  0  0  0  0  0
   59.0470   28.3670   46.6160 O   0  0  0  0  0  0  0  0  0  0  0  0
   56.8670   27.8110   46.0460 N   0  0  0  0  0  0  0  0  0  0  0  0
   56.6180   28.5890   45.0380 C   0  0  0  0  0  0  0  0  0  0  0  0
   55.4930   29.3290   44.9110 N   0  0  0  0  0  0  0  0  0  0  0  0
   55.5130   30.0680   43.7700 C   0  0  0  0  0  0  0  0  0  0  0  0
   54.6850   30.7329   43.4829 H   0  0  0  0  0  0  0  0  0  0  0  0
   56.6570   29.9220   42.9920 C   0  0  0  0  0  0  0  0  0  0  0  0
   56.8579   30.4317   42.0382 H   0  0  0  0  0  0  0  0  0  0  0  0
   57.6810   28.8300   43.7630 S   0  0  0  0  0  0  0  0  0  0  0  0
   55.9060   24.5330   45.4240 C   0  0  0  0  0  0  0  0  0  0  0  0
   55.1430   25.3590   45.9980 O   0  0  0  0  0  0  0  0  0  0  0  0
   55.4370   23.8520   44.3000 C   0  0  0  0  0  0  0  0  0  0  0  0
   54.4181   24.0266   43.9239 H   0  0  0  0  0  0  0  0  0  0  0  0
  1  2  1  0
  2  3  1  0
  3  4  1  0
  4  5  1  0
  5  6  2  0
  5  7  1  0
  7  8  1  0
  8  9  1  0
  8 10  1  0
  8 11  1  0
 11 12  1  0
 12 13  2  0
 12 14  1  0
 14 15  2  0
 15 16  1  0
 16 17  1  0
 17 18  1  0
 17 19  2  0
 19 20  1  0
 19 21  1  0
  7 22  1  0
 22 23  2  0
 22 24  1  0
 24 25  1  0
 24  3  2  0
 21 15  1  0
M  CHG  3   4  -1  11  -1  16  -1
M  END
>  <UniqueID>  (9) 
9

>  <SMILES>  (9) 
O=C(/N=c1\[n-]ccs1)[N-]Cn1c(=O)cc(O)[n-]c1=O

>  <Energy>  (9) 
65.14333382600404

>  <Genealogy>  (9) 
O=C(N=c1[n-]ccs1)[N-]Cn1c(=O)cc(O)[n-]c1=O (protonated)
O=C(/N=c1\[n-]ccs1)[N-]Cn1c(=O)cc(O)[n-]c1=O (cis-trans isomerization)
O=C(/N=c1\[n-]ccs1)[N-]Cn1c(=O)cc(O)[n-]c1=O (3D coordinates assigned)
O=C(/N=c1\[n-]ccs1)[N-]Cn1c(=O)cc(O)[n-]c1=O (optimized conformer: 65.14333382600404 kcal/mol)

>  <smiles>  (9) 
O=C(N=c1[nH]ccs1)NCn1c(=O)cc(O)[nH]c1=O

>  <score_type>  (9) 
oracle

>  <origin>  (9) 
adg

>  <m_score__min__energy>  (9) 
-11.15

>  <m_primary>  (9) 
energy

$$$$
9:0
     RDKit          3D

 37 39  0  0  0  0  0  0  0  0999 V2000
   55.1350   25.1760   45.6180 C   0  0  0  0  0  0  0  0  0  0  0  0
   55.4520   26.5210   45.9630 O   0  0  0  0  0  0  0  0  0  0  0  0
   56.7230   27.0960   45.8190 C   0  0  0  0  0  0  0  0  0  0  0  0
   57.9070   26.3980   46.1260 C   0  0  0  0  0  0  0  0  0  0  0  0
   59.1500   27.0190   45.9710 C   0  0  0  0  0  0  0  0  0  0  0  0
   59.2250   28.3340   45.5070 C   0  0  0  0  0  0  0  0  0  0  0  0
   58.0540   29.0340   45.1800 C   0  0  0  0  0  0  0  0  0  0  0  0
   58.1300   30.4320   44.7120 C   0  0  0  0  0  0  0  0  0  0  0  0
   57.8350   30.7040   43.3610 C   0  0  0  0  0  0  0  0  0  0  0  0
   57.7640   32.0330   42.9010 C   0  0  0  0  0  0  0  0  0  0  0  0
   57.4110   32.3180   41.4760 C   0  0  0  0  0  0  0  0  0  0  0  0
   57.9570   33.0650   43.7680 N   0  0  0  0  0  0  0  0  0  0  0  0
   58.2580   32.8110   45.0630 C   0  0  0  0  0  0  0  0  0  0  0  0
   58.5330   33.9550   46.2500 S   0  0  0  0  0  0  0  0  0  0  0  0
   58.8580   32.8350   47.4750 C   0  0  0  0  0  0  0  0  0  0  0  0
   59.2840   33.2180   48.8390 C   0  0  0  0  0  0  0  0  0  0  0  0
   59.5220   34.5870   49.1710 N   0  0  0  0  0  0  0  0  0  0  0  0
   59.4650   32.3370   49.7210 O   0  0  0  0  0  0  0  0  0  0  0  0
   58.7560   31.5350   46.9410 C   0  0  0  0  0  0  0  0  0  0  0  0
   59.0650   30.3580   47.6940 N   0  0  0  0  0  0  0  0  0  0  0  0
   58.3870   31.5270   45.5720 C   0  0  0  0  0  0  0  0  0  0  0  0
   56.8060   28.4150   45.3530 C   0  0  0  0  0  0  0  0  0  0  0  0
   54.9958   24.5852   46.5354 H   0  0  0  0  0  0  0  0  0  0  0  0
   54.2080   25.1580   45.0261 H   0  0  0  0  0  0  0  0  0  0  0  0
   55.9564   24.7460   45.0261 H   0  0  0  0  0  0  0  0  0  0  0  0
   57.8537   25.3610   46.4889 H   0  0  0  0  0  0  0  0  0  0  0  0
   60.0715   26.4702   46.2152 H   0  0  0  0  0  0  0  0  0  0  0  0
   60.2047   28.8222   45.3976 H   0  0  0  0  0  0  0  0  0  0  0  0
   57.6592   29.8733   42.6618 H   0  0  0  0  0  0  0  0  0  0  0  0
   56.5556   33.0087   41.4412 H   0  0  0  0  0  0  0  0  0  0  0  0
   58.2731   32.7763   40.9693 H   0  0  0  0  0  0  0  0  0  0  0  0
   57.1447   31.3787   40.9693 H   0  0  0  0  0  0  0  0  0  0  0  0
   59.3550   35.3530   48.4830 H   0  0  0  0  0  0  0  0  0  0  0  0
   59.8470   34.8430   50.1310 H   0  0  0  0  0  0  0  0  0  0  0  0
   59.5250   30.4220   48.6280 H   0  0  0  0  0  0  0  0  0  0  0  0
   58.7870   29.4110   47.3570 H   0  0  0  0  0  0  0  0  0  0  0  0
   55.8852   28.9701   45.1208 H   0  0  0  0  0  0  0  0  0  0  0  0
  1  2  1  0
  2  3  1  0
  3  4  2  0
  4  5  1  0
  5  6  2  0
  6  7  1  0
  7  8  1  0
  8  9  2  0
  9 10  1  0
 10 11  1  0
 10 12  2  0
 12 13  1  0
 13 14  1  0
 14 15  1  0
 15 16  1  0
 16 17  1  0
 16 18  2  0
 15 19  2  0
 19 20  1  0
 19 21  1  0
  7 22  2  0
 22  3  1  0
 21  8  1  0
 21 13  2  0
  1 23  1  0
  1 24  1  0
  1 25  1  0
  4 26  1  0
  5 27  1  0
  6 28  1  0
  9 29  1  0
 11 30  1  0
 11 31  1  0
 11 32  1  0
 17 33  1  0
 17 34  1  0
 20 35  1  0
 20 36  1  0
 22 37  1  0
M  END
>  <UniqueID>  (10) 
10

>  <SMILES>  (10) 
COc1cccc(-c2cc(C)nc3sc(C(N)=O)c(N)c23)c1

>  <Energy>  (10) 
82.07192026615665

>  <Genealogy>  (10) 
COc1cccc(-c2cc(C)nc3sc(C(N)=O)c(N)c23)c1 (3D coordinates assigned)
COc1cccc(-c2cc(C)nc3sc(C(N)=O)c(N)c23)c1 (optimized conformer: 82.07192026615665 kcal/mol)

>  <smiles>  (10) 
COc1cccc(-c2cc(C)nc3sc(C(N)=O)c(N)c23)c1

>  <score_type>  (10) 
oracle

>  <origin>  (10) 
adg

>  <m_score__min__energy>  (10) 
-7.0599999999999996

>  <m_primary>  (10) 
energy

$$$$
10:0
     RDKit          3D

 56 59  0  0  0  0  0  0  0  0999 V2000
   55.0330   26.3470   46.0100 N   0  0  0  0  0  0  0  0  0  0  0  0
   56.3820   26.0120   46.3260 C   0  0  0  0  0  0  0  0  0  0  0  0
   56.6310   25.2830   47.3230 O   0  0  0  0  0  0  0  0  0  0  0  0
   57.5010   26.5400   45.4860 C   0  0  0  0  0  0  0  0  0  0  0  0
   58.7320   26.6110   46.2650 N   0  0  0  0  0  0  0  0  0  0  0  0
   59.0470   27.6900   47.1510 C   0  0  0  0  0  0  0  0  0  0  0  0
   58.9370   27.5180   48.3950 O   0  0  0  0  0  0  0  0  0  0  0  0
   59.4340   28.9680   46.6280 N   0  0  0  0  0  0  0  0  0  0  0  0
   58.6110   29.8180   45.8190 C   0  0  0  0  0  0  0  0  0  0  0  0
   58.3480   29.4450   44.4960 C   0  0  0  0  0  0  0  0  0  0  0  0
   57.5750   30.2680   43.6750 C   0  0  0  0  0  0  0  0  0  0  0  0
   57.0890   31.4740   44.1810 C   0  0  0  0  0  0  0  0  0  0  0  0
   57.3830   31.8430   45.4550 N   0  0  0  0  0  0  0  0  0  0  0  0
   58.1280   31.0570   46.2850 C   0  0  0  0  0  0  0  0  0  0  0  0
   58.4820   31.5010   47.5660 O   0  0  0  0  0  0  0  0  0  0  0  0
   59.6780   32.1470   47.9130 C   0  0  0  0  0  0  0  0  0  0  0  0
   60.5830   32.5950   46.9390 C   0  0  0  0  0  0  0  0  0  0  0  0
   61.7380   33.2810   47.3140 C   0  0  0  0  0  0  0  0  0  0  0  0
   61.9820   33.5350   48.6760 C   0  0  0  0  0  0  0  0  0  0  0  0
   63.0320   34.1860   49.0900 N   0  0  0  0  0  0  0  0  0  0  0  0
   63.5980   34.1890   50.4400 C   0  0  0  0  0  0  0  0  0  0  0  0
   64.5490   33.0310   50.6280 C   0  0  0  0  0  0  0  0  0  0  0  0
   65.9120   33.1960   50.3250 C   0  0  0  0  0  0  0  0  0  0  0  0
   66.8030   32.1300   50.4780 C   0  0  0  0  0  0  0  0  0  0  0  0
   66.3450   30.8940   50.9400 C   0  0  0  0  0  0  0  0  0  0  0  0
   64.9960   30.7250   51.2680 C   0  0  0  0  0  0  0  0  0  0  0  0
   64.0990   31.7890   51.1200 C   0  0  0  0  0  0  0  0  0  0  0  0
   62.7960   31.6000   51.4490 F   0  0  0  0  0  0  0  0  0  0  0  0
   61.0850   33.0960   49.5980 N   0  0  0  0  0  0  0  0  0  0  0  0
   59.9520   32.4180   49.2660 C   0  0  0  0  0  0  0  0  0  0  0  0
   59.0270   31.9900   50.3410 C   0  0  0  0  0  0  0  0  0  0  0  0
   58.4880   32.9380   51.2320 C   0  0  0  0  0  0  0  0  0  0  0  0
   57.6250   32.5370   52.2550 C   0  0  0  0  0  0  0  0  0  0  0  0
   57.2820   31.1920   52.3950 C   0  0  0  0  0  0  0  0  0  0  0  0
   57.7950   30.2440   51.5090 C   0  0  0  0  0  0  0  0  0  0  0  0
   58.6660   30.6340   50.4800 C   0  0  0  0  0  0  0  0  0  0  0  0
   59.1850   29.6740   49.6100 O   0  0  0  0  0  0  0  0  0  0  0  0
   54.7770   26.7090   45.0640 H   0  0  0  0  0  0  0  0  0  0  0  0
   57.6546   25.8721   44.6256 H   0  0  0  0  0  0  0  0  0  0  0  0
   57.2400   27.5505   45.1384 H   0  0  0  0  0  0  0  0  0  0  0  0
   58.7515   28.5006   44.1019 H   0  0  0  0  0  0  0  0  0  0  0  0
   57.3515   29.9689   42.6403 H   0  0  0  0  0  0  0  0  0  0  0  0
   56.4681   32.1257   43.5487 H   0  0  0  0  0  0  0  0  0  0  0  0
   60.3807   32.4043   45.8747 H   0  0  0  0  0  0  0  0  0  0  0  0
   62.4530   33.6210   46.5503 H   0  0  0  0  0  0  0  0  0  0  0  0
   64.1420   35.1315   50.6004 H   0  0  0  0  0  0  0  0  0  0  0  0
   62.7771   34.0911   51.1656 H   0  0  0  0  0  0  0  0  0  0  0  0
   66.2790   34.1688   49.9658 H   0  0  0  0  0  0  0  0  0  0  0  0
   67.8671   32.2648   50.2341 H   0  0  0  0  0  0  0  0  0  0  0  0
   67.0459   30.0528   51.0459 H   0  0  0  0  0  0  0  0  0  0  0  0
   64.6395   29.7543   51.6429 H   0  0  0  0  0  0  0  0  0  0  0  0
   58.7481   34.0011   51.1219 H   0  0  0  0  0  0  0  0  0  0  0  0
   57.2152   33.2833   52.9514 H   0  0  0  0  0  0  0  0  0  0  0  0
   56.6065   30.8786   53.2046 H   0  0  0  0  0  0  0  0  0  0  0  0
   57.5153   29.1857   51.6176 H   0  0  0  0  0  0  0  0  0  0  0  0
   58.9540   29.6720   48.6230 H   0  0  0  0  0  0  0  0  0  0  0  0
  1  2  1  0
  2  3  2  0
  2  4  1  0
  4  5  1  0
  5  6  1  0
  6  7  2  0
  6  8  1  0
  8  9  1  0
  9 10  2  0
 10 11  1  0
 11 12  2  0
 12 13  1  0
 13 14  2  0
 14 15  1  0
 15 16  1  0
 16 17  1  0
 17 18  2  0
 18 19  1  0
 19 20  2  3
 20 21  1  0
 21 22  1  0
 22 23  2  0
 23 24  1  0
 24 25  2  0
 25 26  1  0
 26 27  2  0
 27 28  1  0
 19 29  1  0
 29 30  1  0
 30 31  1  0
 31 32  2  0
 32 33  1  0
 33 34  2  0
 34 35  1  0
 35 36  2  0
 36 37  1  0
 14  9  1  0
 30 16  2  0
 36 31  1  0
 27 22  1  0
  1 38  1  0
  4 39  1  0
  4 40  1  0
 10 41  1  0
 11 42  1  0
 12 43  1  0
 17 44  1  0
 18 45  1  0
 21 46  1  0
 21 47  1  0
 23 48  1  0
 24 49  1  0
 25 50  1  0
 26 51  1  0
 32 52  1  0
 33 53  1  0
 34 54  1  0
 35 55  1  0
 37 56  1  0
M  CHG  4   1  -1   5  -1   8  -1  29  -1
M  END
>  <UniqueID>  (11) 
11

>  <SMILES>  (11) 
[NH-]C(=O)C[N-]C(=O)[N-]c1cccnc1Oc1ccc(=NCc2ccccc2F)[n-]c1-c1ccccc1O

>  <Energy>  (11) 
74.63208132862533

>  <Genealogy>  (11) 
[NH-]C(=O)C[N-]C(=O)[N-]c1cccnc1Oc1ccc(=NCc2ccccc2F)[n-]c1-c1ccccc1O (protonated)
[NH-]C(=O)C[N-]C(=O)[N-]c1cccnc1Oc1ccc(=NCc2ccccc2F)[n-]c1-c1ccccc1O (3D coordinates assigned)
[NH-]C(=O)C[N-]C(=O)[N-]c1cccnc1Oc1ccc(=NCc2ccccc2F)[n-]c1-c1ccccc1O (optimized conformer: 74.63208132862533 kcal/mol)

>  <smiles>  (11) 
NC(=O)CNC(=O)Nc1cccnc1Oc1ccc(=NCc2ccccc2F)[nH]c1-c1ccccc1O

>  <score_type>  (11) 
oracle

>  <origin>  (11) 
adg

>  <m_score__min__energy>  (11) 
-15.69

>  <m_primary>  (11) 
energy

$$$$
11:0
     RDKit          3D

 31 32  0  0  0  0  0  0  0  0999 V2000
   55.1560   26.6430   45.9780 O   0  0  0  0  0  0  0  0  0  0  0  0
   55.7000   25.5070   45.9700 C   0  0  0  0  0  0  0  0  0  0  0  0
   54.9700   24.3920   46.3580 O   0  0  0  0  0  0  0  0  0  0  0  0
   57.1360   25.3640   45.5720 C   0  0  0  0  0  0  0  0  0  0  0  0
   58.0890   25.8860   46.6550 C   0  0  0  0  0  0  0  0  0  0  0  0
   58.7500   27.1350   46.2440 N   0  0  0  0  0  0  0  0  0  0  0  0
   60.0770   27.2020   45.9900 C   0  0  0  0  0  0  0  0  0  0  0  0
   60.3550   28.3660   45.3120 C   0  0  0  0  0  0  0  0  0  0  0  0
   59.2060   29.0310   45.1200 N   0  0  0  0  0  0  0  0  0  0  0  0
   58.2480   28.2830   45.7000 C   0  0  0  0  0  0  0  0  0  0  0  0
   57.0020   28.6700   45.6910 N   0  0  0  0  0  0  0  0  0  0  0  0
   56.3420   29.5750   44.8010 C   0  0  0  0  0  0  0  0  0  0  0  0
   55.1340   29.3760   44.4990 O   0  0  0  0  0  0  0  0  0  0  0  0
   57.0350   30.7940   44.3260 C   0  0  0  0  0  0  0  0  0  0  0  0
   57.2490   31.0020   42.9500 C   0  0  0  0  0  0  0  0  0  0  0  0
   57.9100   32.1500   42.5020 C   0  0  0  0  0  0  0  0  0  0  0  0
   58.3650   33.1000   43.4190 C   0  0  0  0  0  0  0  0  0  0  0  0
   58.1610   32.9040   44.7880 C   0  0  0  0  0  0  0  0  0  0  0  0
   58.7880   34.2030   46.0400 Br  0  0  0  0  0  0  0  0  0  0  0  0
   57.5010   31.7570   45.2400 C   0  0  0  0  0  0  0  0  0  0  0  0
   57.3505   24.3000   45.3935 H   0  0  0  0  0  0  0  0  0  0  0  0
   57.2968   25.9612   44.6624 H   0  0  0  0  0  0  0  0  0  0  0  0
   57.5151   26.0726   47.5747 H   0  0  0  0  0  0  0  0  0  0  0  0
   58.8665   25.1261   46.8221 H   0  0  0  0  0  0  0  0  0  0  0  0
   60.8186   26.4433   46.2806 H   0  0  0  0  0  0  0  0  0  0  0  0
   61.3514   28.6959   44.9828 H   0  0  0  0  0  0  0  0  0  0  0  0
   59.0870   29.9440   44.6270 H   0  0  0  0  0  0  0  0  0  0  0  0
   56.8940   30.2568   42.2229 H   0  0  0  0  0  0  0  0  0  0  0  0
   58.0719   32.3051   41.4251 H   0  0  0  0  0  0  0  0  0  0  0  0
   58.8840   34.0026   43.0640 H   0  0  0  0  0  0  0  0  0  0  0  0
   57.3449   31.6064   46.3184 H   0  0  0  0  0  0  0  0  0  0  0  0
  1  2  2  0
  2  3  1  0
  2  4  1  0
  4  5  1  0
  5  6  1  0
  6  7  1  0
  7  8  2  0
  8  9  1  0
  9 10  1  0
 10 11  2  3
 11 12  1  0
 12 13  2  0
 12 14  1  0
 14 15  2  0
 15 16  1  0
 16 17  2  0
 17 18  1  0
 18 19  1  0
 18 20  2  0
 10  6  1  0
 20 14  1  0
  4 21  1  0
  4 22  1  0
  5 23  1  0
  5 24  1  0
  7 25  1  0
  8 26  1  0
  9 27  1  0
 15 28  1  0
 16 29  1  0
 17 30  1  0
 20 31  1  0
M  CHG  1   3  -1
M  END
>  <UniqueID>  (12) 
12

>  <SMILES>  (12) 
O=C([O-])CCn1cc[nH]c1=NC(=O)c1cccc(Br)c1

>  <Energy>  (12) 
74.77629735581878

>  <Genealogy>  (12) 
O=C([O-])CCn1cc[nH]c1=NC(=O)c1cccc(Br)c1 (protonated)
O=C([O-])CCn1cc[nH]c1=NC(=O)c1cccc(Br)c1 (3D coordinates assigned)
O=C([O-])CCn1cc[nH]c1=NC(=O)c1cccc(Br)c1 (optimized conformer: 74.77629735581878 kcal/mol)

>  <smiles>  (12) 
O=C(O)CCn1cc[nH]c1=NC(=O)c1cccc(Br)c1

>  <score_type>  (12) 
oracle

>  <origin>  (12) 
adg

>  <m_score__min__energy>  (12) 
-10.630000000000001

>  <m_primary>  (12) 
energy

$$$$
12:0
     RDKit          3D

 37 39  0  0  0  0  0  0  0  0999 V2000
   58.1610   32.4370   50.9610 O   0  0  0  0  0  0  0  0  0  0  0  0
   59.0030   32.3900   50.0250 C   0  0  0  0  0  0  0  0  0  0  0  0
   59.3860   33.5630   49.2920 N   0  0  0  0  0  0  0  0  0  0  0  0
   59.2360   33.7690   48.0140 C   0  0  0  0  0  0  0  0  0  0  0  0
   59.8030   34.9100   47.4330 C   0  0  0  0  0  0  0  0  0  0  0  0
   59.6330   35.1410   46.0670 C   0  0  0  0  0  0  0  0  0  0  0  0
   58.9100   34.2330   45.2930 C   0  0  0  0  0  0  0  0  0  0  0  0
   58.3810   33.0860   45.8930 C   0  0  0  0  0  0  0  0  0  0  0  0
   57.5810   32.1890   45.1060 N   0  0  0  0  0  0  0  0  0  0  0  0
   57.4500   30.8960   45.2230 C   0  0  0  0  0  0  0  0  0  0  0  0
   58.4640   30.0630   45.7360 C   0  0  0  0  0  0  0  0  0  0  0  0
   58.2470   28.6870   45.8240 C   0  0  0  0  0  0  0  0  0  0  0  0
   57.0300   28.1310   45.4000 C   0  0  0  0  0  0  0  0  0  0  0  0
   56.8000   26.6670   45.4860 C   0  0  0  0  0  0  0  0  0  0  0  0
   56.3050   26.1780   46.5380 O   0  0  0  0  0  0  0  0  0  0  0  0
   57.0870   25.8100   44.3690 N   0  0  0  0  0  0  0  0  0  0  0  0
   57.2850   24.3890   44.4820 C   0  0  0  0  0  0  0  0  0  0  0  0
   58.1000   23.8840   45.5040 C   0  0  0  0  0  0  0  0  0  0  0  0
   58.2780   22.5050   45.6300 C   0  0  0  0  0  0  0  0  0  0  0  0
   57.6490   21.6560   44.7750 N   0  0  0  0  0  0  0  0  0  0  0  0
   56.8370   22.1120   43.7850 C   0  0  0  0  0  0  0  0  0  0  0  0
   56.2640   21.2940   43.0190 O   0  0  0  0  0  0  0  0  0  0  0  0
   56.6340   23.4870   43.6240 C   0  0  0  0  0  0  0  0  0  0  0  0
   56.0600   28.9900   44.8640 C   0  0  0  0  0  0  0  0  0  0  0  0
   56.2940   30.3280   44.7890 N   0  0  0  0  0  0  0  0  0  0  0  0
   58.5360   32.8990   47.2330 N   0  0  0  0  0  0  0  0  0  0  0  0
   59.4572   31.4232   49.7623 H   0  0  0  0  0  0  0  0  0  0  0  0
   60.3776   35.6183   48.0480 H   0  0  0  0  0  0  0  0  0  0  0  0
   60.0684   36.0375   45.6015 H   0  0  0  0  0  0  0  0  0  0  0  0
   58.7573   34.4178   44.2194 H   0  0  0  0  0  0  0  0  0  0  0  0
   59.4208   30.4945   46.0651 H   0  0  0  0  0  0  0  0  0  0  0  0
   59.0347   28.0342   46.2282 H   0  0  0  0  0  0  0  0  0  0  0  0
   57.0380   26.2190   43.4090 H   0  0  0  0  0  0  0  0  0  0  0  0
   58.5975   24.5713   46.2041 H   0  0  0  0  0  0  0  0  0  0  0  0
   58.9281   22.1051   46.4222 H   0  0  0  0  0  0  0  0  0  0  0  0
   55.9690   23.8593   42.8308 H   0  0  0  0  0  0  0  0  0  0  0  0
   55.1054   28.5801   44.5025 H   0  0  0  0  0  0  0  0  0  0  0  0
  1  2  2  0
  2  3  1  0
  3  4  2  3
  4  5  1  0
  5  6  2  0
  6  7  1  0
  7  8  2  0
  8  9  1  0
  9 10  2  3
 10 11  1  0
 11 12  2  0
 12 13  1  0
 13 14  1  0
 14 15  2  0
 14 16  1  0
 16 17  1  0
 17 18  1  0
 18 19  2  0
 19 20  1  0
 20 21  1  0
 21 22  2  0
 21 23  1  0
 13 24  2  0
 24 25  1  0
  8 26  1  0
 26  4  1  0
 25 10  1  0
 23 17  2  0
  2 27  1  0
  5 28  1  0
  6 29  1  0
  7 30  1  0
 11 31  1  0
 12 32  1  0
 16 33  1  0
 18 34  1  0
 19 35  1  0
 23 36  1  0
 24 37  1  0
M  CHG  3  20  -1  25  -1  26  -1
M  END
>  <UniqueID>  (13) 
13

>  <SMILES>  (13) 
O=CN=c1cccc(N=c2ccc(C(=O)Nc3cc[n-]c(=O)c3)c[n-]2)[n-]1

>  <Energy>  (13) 
57.787310764661235

>  <Genealogy>  (13) 
O=CN=c1cccc(N=c2ccc(C(=O)Nc3cc[n-]c(=O)c3)c[n-]2)[n-]1 (protonated)
O=CN=c1cccc(N=c2ccc(C(=O)Nc3cc[n-]c(=O)c3)c[n-]2)[n-]1 (3D coordinates assigned)
O=CN=c1cccc(N=c2ccc(C(=O)Nc3cc[n-]c(=O)c3)c[n-]2)[n-]1 (optimized conformer: 57.787310764661235 kcal/mol)

>  <smiles>  (13) 
O=CN=c1cccc(N=c2ccc(C(=O)Nc3cc[nH]c(=O)c3)c[nH]2)[nH]1

>  <score_type>  (13) 
oracle

>  <origin>  (13) 
adg

>  <m_score__min__energy>  (13) 
-11.01

>  <m_primary>  (13) 
energy

$$$$
13:0
     RDKit          3D

 44 46  0  0  1  0  0  0  0  0999 V2000
   55.5620   27.0880   45.8430 N   0  0  0  0  0  0  0  0  0  0  0  0
   56.4370   26.1790   46.5000 C   0  0  0  0  0  0  0  0  0  0  0  0
   56.0220   25.1020   47.0150 O   0  0  0  0  0  0  0  0  0  0  0  0
   57.8660   26.5000   46.5830 C   0  0  0  0  0  0  0  0  0  0  0  0
   58.5930   26.2550   47.7300 C   0  0  0  0  0  0  0  0  0  0  0  0
   59.9100   26.5760   47.7400 N   0  0  0  0  0  0  0  0  0  0  0  0
   60.5050   27.1260   46.6490 C   0  0  0  0  0  0  0  0  0  0  0  0
   59.8240   27.3760   45.5160 N   0  0  0  0  0  0  0  0  0  0  0  0
   58.5210   27.0590   45.5110 C   0  0  0  0  0  0  0  0  0  0  0  0
   57.8630   27.2960   44.4310 N   0  0  0  0  0  0  0  0  0  0  0  0
   57.8360   28.4800   43.6930 C   0  0  0  0  0  0  0  0  0  0  0  0
   56.7510   29.4750   43.9260 C   0  0  0  0  0  0  0  0  0  0  0  0
   56.6660   29.9010   45.2730 O   0  0  0  0  0  0  0  0  0  0  0  0
   57.7210   30.6390   45.7860 C   0  0  0  0  0  0  0  0  0  0  0  0
   57.8330   31.9440   45.3740 C   0  0  0  0  0  0  0  0  0  0  0  0
   58.8520   32.7160   45.8480 C   0  0  0  0  0  0  0  0  0  0  0  0
   59.8180   32.2260   46.7620 C   0  0  0  0  0  0  0  0  0  0  0  0
   60.7540   33.0870   47.1390 O   0  0  0  0  0  0  0  0  0  0  0  0
   61.7380   33.3230   47.9850 C   0  0  0  0  0  0  0  0  0  0  0  0
   61.7520   34.0930   49.1270 C   0  0  0  0  0  0  0  0  0  0  0  0
   62.8550   34.2620   49.9340 C   0  0  0  0  0  0  0  0  0  0  0  0
   64.0200   33.6270   49.5890 C   0  0  0  0  0  0  0  0  0  0  0  0
   64.0820   32.8450   48.4660 C   0  0  0  0  0  0  0  0  0  0  0  0
   62.9820   32.7000   47.6960 C   0  0  0  0  0  0  0  0  0  0  0  0
   59.6410   30.9130   47.1280 C   0  0  0  0  0  0  0  0  0  0  0  0
   58.6230   30.1050   46.6700 C   0  0  0  0  0  0  0  0  0  0  0  0
   54.7700   27.4610   46.4110 H   0  0  0  0  0  0  0  0  0  0  0  0
   55.7210   27.3520   44.8550 H   0  0  0  0  0  0  0  0  0  0  0  0
   58.1152   25.8098   48.6152 H   0  0  0  0  0  0  0  0  0  0  0  0
   60.4570   26.3830   48.6270 H   0  0  0  0  0  0  0  0  0  0  0  0
   61.5757   27.3743   46.6936 H   0  0  0  0  0  0  0  0  0  0  0  0
   58.7880   28.9965   43.8850 H   0  0  0  0  0  0  0  0  0  0  0  0
   57.6485   28.1351   42.6654 H   0  0  0  0  0  0  0  0  0  0  0  0
   56.9406   30.3540   43.2925 H   0  0  0  0  0  0  0  0  0  0  0  0
   55.7983   28.9846   43.6772 H   0  0  0  0  0  0  0  0  0  0  0  0
   57.1044   32.3645   44.6652 H   0  0  0  0  0  0  0  0  0  0  0  0
   58.9273   33.7594   45.5079 H   0  0  0  0  0  0  0  0  0  0  0  0
   60.8220   34.6061   49.4129 H   0  0  0  0  0  0  0  0  0  0  0  0
   62.8025   34.8918   50.8344 H   0  0  0  0  0  0  0  0  0  0  0  0
   64.9132   33.7465   50.2198 H   0  0  0  0  0  0  0  0  0  0  0  0
   65.0201   32.3393   48.1936 H   0  0  0  0  0  0  0  0  0  0  0  0
   63.0527   32.0671   46.7991 H   0  0  0  0  0  0  0  0  0  0  0  0
   60.3618   30.4771   47.8354 H   0  0  0  0  0  0  0  0  0  0  0  0
   58.5364   29.0606   47.0043 H   0  0  0  0  0  0  0  0  0  0  0  0
  1  2  1  0
  2  3  2  0
  2  4  1  0
  4  5  2  0
  5  6  1  0
  6  7  1  0
  7  8  2  0
  8  9  1  0
  9 10  2  0
 10 11  1  0
 11 12  1  0
 12 13  1  0
 13 14  1  0
 14 15  2  0
 15 16  1  0
 16 17  2  0
 17 18  1  0
 18 19  1  0
 19 20  2  0
 20 21  1  0
 21 22  2  0
 22 23  1  0
 23 24  2  0
 17 25  1  0
 25 26  2  0
  9  4  1  0
 26 14  1  0
 24 19  1  0
  1 27  1  0
  1 28  1  0
  5 29  1  0
  6 30  1  0
  7 31  1  0
 11 32  1  0
 11 33  1  0
 12 34  1  0
 12 35  1  0
 15 36  1  0
 16 37  1  0
 20 38  1  0
 21 39  1  0
 22 40  1  0
 23 41  1  0
 24 42  1  0
 25 43  1  0
 26 44  1  0
M  END
>  <smiles>  (14) 
NC(=O)c1c[nH]cnc1=NCCOc1ccc(Oc2ccccc2)cc1

>  <score_type>  (14) 
oracle

>  <origin>  (14) 
adg

>  <m_score__min__energy>  (14) 
-8.5

>  <m_primary>  (14) 
energy

$$$$
14:0
     RDKit          3D

 72 77  0  0  0  0  0  0  0  0999 V2000
   66.4900   31.1900   50.8320 C   0  0  0  0  0  0  0  0  0  0  0  0
   66.7550   32.9440   50.9830 S   0  0  0  0  0  0  0  0  0  0  0  0
   67.4320   33.2340   52.2930 O   0  0  0  0  0  0  0  0  0  0  0  0
   67.6330   33.4080   49.8570 O   0  0  0  0  0  0  0  0  0  0  0  0
   65.1990   33.8130   50.9020 C   0  0  0  0  0  0  0  0  0  0  0  0
   64.2000   33.0450   50.0800 C   0  0  0  0  0  0  0  0  0  0  0  0
   64.3220   32.9910   48.6820 C   0  0  0  0  0  0  0  0  0  0  0  0
   63.4170   32.2480   47.9240 C   0  0  0  0  0  0  0  0  0  0  0  0
   62.3890   31.5440   48.5540 C   0  0  0  0  0  0  0  0  0  0  0  0
   62.2430   31.5900   49.9450 C   0  0  0  0  0  0  0  0  0  0  0  0
   61.2410   30.7520   50.5460 N   0  0  0  0  0  0  0  0  0  0  0  0
   61.1760   29.4530   50.5760 C   0  0  0  0  0  0  0  0  0  0  0  0
   60.9390   28.7160   49.4530 N   0  0  0  0  0  0  0  0  0  0  0  0
   60.7980   27.3640   49.5230 C   0  0  0  0  0  0  0  0  0  0  0  0
   60.5260   26.5990   48.3840 O   0  0  0  0  0  0  0  0  0  0  0  0
   59.8020   27.0460   47.2710 C   0  0  0  0  0  0  0  0  0  0  0  0
   60.2410   28.2070   46.6300 C   0  0  0  0  0  0  0  0  0  0  0  0
   59.4630   28.8140   45.6470 C   0  0  0  0  0  0  0  0  0  0  0  0
   58.2280   28.2790   45.2700 C   0  0  0  0  0  0  0  0  0  0  0  0
   57.4300   29.0420   44.3460 N   0  0  0  0  0  0  0  0  0  0  0  0
   56.3130   29.8730   44.6850 C   0  0  0  0  0  0  0  0  0  0  0  0
   55.2670   29.3450   45.1440 O   0  0  0  0  0  0  0  0  0  0  0  0
   56.3560   31.2880   44.4770 N   0  0  0  0  0  0  0  0  0  0  0  0
   57.2590   32.1550   45.1680 C   0  0  0  0  0  0  0  0  0  0  0  0
   57.5400   33.4430   44.6770 C   0  0  0  0  0  0  0  0  0  0  0  0
   58.5160   34.2280   45.2940 C   0  0  0  0  0  0  0  0  0  0  0  0
   59.1940   33.7450   46.4140 C   0  0  0  0  0  0  0  0  0  0  0  0
   58.8650   32.5000   46.9590 C   0  0  0  0  0  0  0  0  0  0  0  0
   59.5140   32.0750   48.1240 O   0  0  0  0  0  0  0  0  0  0  0  0
   59.1290   32.4180   49.4290 C   0  0  0  0  0  0  0  0  0  0  0  0
   58.2510   31.5700   50.1120 C   0  0  0  0  0  0  0  0  0  0  0  0
   57.8760   31.8500   51.4310 C   0  0  0  0  0  0  0  0  0  0  0  0
   58.3790   32.9820   52.0760 C   0  0  0  0  0  0  0  0  0  0  0  0
   59.2690   33.8290   51.4090 C   0  0  0  0  0  0  0  0  0  0  0  0
   59.6480   33.5510   50.0920 C   0  0  0  0  0  0  0  0  0  0  0  0
   57.9230   31.6880   46.3060 C   0  0  0  0  0  0  0  0  0  0  0  0
   57.7660   27.0850   45.8920 C   0  0  0  0  0  0  0  0  0  0  0  0
   56.4870   26.5490   45.6200 C   0  0  0  0  0  0  0  0  0  0  0  0
   56.0550   25.3780   46.2410 C   0  0  0  0  0  0  0  0  0  0  0  0
   56.8560   24.7480   47.1850 C   0  0  0  0  0  0  0  0  0  0  0  0
   58.0910   25.2930   47.5290 C   0  0  0  0  0  0  0  0  0  0  0  0
   58.5770   26.4500   46.8830 C   0  0  0  0  0  0  0  0  0  0  0  0
   60.9030   26.7180   50.7550 C   0  0  0  0  0  0  0  0  0  0  0  0
   61.2060   27.4760   51.8800 C   0  0  0  0  0  0  0  0  0  0  0  0
   61.3350   28.8230   51.7700 N   0  0  0  0  0  0  0  0  0  0  0  0
   63.1700   32.3280   50.7090 C   0  0  0  0  0  0  0  0  0  0  0  0
   66.4223   30.7418   51.8343 H   0  0  0  0  0  0  0  0  0  0  0  0
   65.5539   31.0064   50.2842 H   0  0  0  0  0  0  0  0  0  0  0  0
   67.3301   30.7381   50.2842 H   0  0  0  0  0  0  0  0  0  0  0  0
   64.8046   33.9420   51.9207 H   0  0  0  0  0  0  0  0  0  0  0  0
   65.3662   34.7920   50.4292 H   0  0  0  0  0  0  0  0  0  0  0  0
   65.1354   33.5374   48.1822 H   0  0  0  0  0  0  0  0  0  0  0  0
   63.5133   32.2167   46.8287 H   0  0  0  0  0  0  0  0  0  0  0  0
   61.6877   30.9479   47.9517 H   0  0  0  0  0  0  0  0  0  0  0  0
   61.2113   28.6464   46.9045 H   0  0  0  0  0  0  0  0  0  0  0  0
   59.8268   29.7302   45.1590 H   0  0  0  0  0  0  0  0  0  0  0  0
   56.9907   33.8317   43.8068 H   0  0  0  0  0  0  0  0  0  0  0  0
   58.7504   35.2269   44.8974 H   0  0  0  0  0  0  0  0  0  0  0  0
   59.9926   34.3477   46.8712 H   0  0  0  0  0  0  0  0  0  0  0  0
   57.8524   30.6767   49.6089 H   0  0  0  0  0  0  0  0  0  0  0  0
   57.1845   31.1779   51.9601 H   0  0  0  0  0  0  0  0  0  0  0  0
   58.0749   33.2072   53.1089 H   0  0  0  0  0  0  0  0  0  0  0  0
   59.6717   34.7154   51.9209 H   0  0  0  0  0  0  0  0  0  0  0  0
   60.3522   34.2167   49.5715 H   0  0  0  0  0  0  0  0  0  0  0  0
   57.7070   30.6807   46.6916 H   0  0  0  0  0  0  0  0  0  0  0  0
   55.8234   27.0626   44.9088 H   0  0  0  0  0  0  0  0  0  0  0  0
   55.0750   24.9508   45.9822 H   0  0  0  0  0  0  0  0  0  0  0  0
   56.5145   23.8173   47.6617 H   0  0  0  0  0  0  0  0  0  0  0  0
   58.6953   24.8154   48.3143 H   0  0  0  0  0  0  0  0  0  0  0  0
   60.7492   25.6317   50.8344 H   0  0  0  0  0  0  0  0  0  0  0  0
   61.3408   26.9863   52.8557 H   0  0  0  0  0  0  0  0  0  0  0  0
   63.0856   32.3421   51.8057 H   0  0  0  0  0  0  0  0  0  0  0  0
  1  2  1  0
  2  3  2  0
  2  4  2  0
  2  5  1  0
  5  6  1  0
  6  7  2  0
  7  8  1  0
  8  9  2  0
  9 10  1  0
 10 11  1  0
 11 12  2  3
 12 13  1  0
 13 14  2  0
 14 15  1  0
 15 16  1  0
 16 17  2  0
 17 18  1  0
 18 19  2  0
 19 20  1  0
 20 21  1  0
 21 22  2  0
 21 23  1  0
 23 24  1  0
 24 25  2  0
 25 26  1  0
 26 27  2  0
 27 28  1  0
 28 29  1  0
 29 30  1  0
 30 31  2  0
 31 32  1  0
 32 33  2  0
 33 34  1  0
 34 35  2  0
 28 36  2  0
 19 37  1  0
 37 38  2  0
 38 39  1  0
 39 40  2  0
 40 41  1  0
 41 42  2  0
 14 43  1  0
 43 44  2  0
 44 45  1  0
 10 46  2  0
 46  6  1  0
 45 12  1  0
 42 16  1  0
 36 24  1  0
 42 37  1  0
 35 30  1  0
  1 47  1  0
  1 48  1  0
  1 49  1  0
  5 50  1  0
  5 51  1  0
  7 52  1  0
  8 53  1  0
  9 54  1  0
 17 55  1  0
 18 56  1  0
 25 57  1  0
 26 58  1  0
 27 59  1  0
 31 60  1  0
 32 61  1  0
 33 62  1  0
 34 63  1  0
 35 64  1  0
 36 65  1  0
 38 66  1  0
 39 67  1  0
 40 68  1  0
 41 69  1  0
 43 70  1  0
 44 71  1  0
 46 72  1  0
M  CHG  3  20  -1  23  -1  45  -1
M  END
>  <UniqueID>  (15) 
14

>  <SMILES>  (15) 
CS(=O)(=O)Cc1cccc(N=c2nc(Oc3ccc([N-]C(=O)[N-]c4cccc(Oc5ccccc5)c4)c4ccccc34)cc[n-]2)c1

>  <Energy>  (15) 
103.83854951986892

>  <Genealogy>  (15) 
CS(=O)(=O)Cc1cccc(N=c2nc(Oc3ccc([N-]C(=O)[N-]c4cccc(Oc5ccccc5)c4)c4ccccc34)cc[n-]2)c1 (protonated)
CS(=O)(=O)Cc1cccc(N=c2nc(Oc3ccc([N-]C(=O)[N-]c4cccc(Oc5ccccc5)c4)c4ccccc34)cc[n-]2)c1 (3D coordinates assigned)
CS(=O)(=O)Cc1cccc(N=c2nc(Oc3ccc([N-]C(=O)[N-]c4cccc(Oc5ccccc5)c4)c4ccccc34)cc[n-]2)c1 (optimized conformer: 103.83854951986892 kcal/mol)

>  <smiles>  (15) 
CS(=O)(=O)Cc1cccc(N=c2nc(Oc3ccc(NC(=O)Nc4cccc(Oc5ccccc5)c4)c4ccccc34)cc[nH]2)c1

>  <score_type>  (15) 
oracle

>  <origin>  (15) 
adg

>  <m_score__min__energy>  (15) 
-14.16

>  <m_primary>  (15) 
energy

$$$$
15:0
     RDKit          3D

 43 46  0  0  0  0  0  0  0  0999 V2000
   60.9130   27.5090   46.1790 O   0  0  0  0  0  0  0  0  0  0  0  0
   59.9690   28.2590   46.5520 C   0  0  0  0  0  0  0  0  0  0  0  0
   60.2550   29.5560   47.0860 N   0  0  0  0  0  0  0  0  0  0  0  0
   60.1900   29.8810   48.5080 C   0  0  0  0  0  0  0  0  0  0  0  0
   61.5340   30.4260   48.9940 C   0  0  0  0  0  0  0  0  0  0  0  0
   61.9660   31.5990   48.1570 C   0  0  0  0  0  0  0  0  0  0  0  0
   61.0860   32.6720   47.9350 C   0  0  0  0  0  0  0  0  0  0  0  0
   61.4990   33.7760   47.1820 C   0  0  0  0  0  0  0  0  0  0  0  0
   62.7910   33.8180   46.6520 C   0  0  0  0  0  0  0  0  0  0  0  0
   63.6760   32.7620   46.8800 C   0  0  0  0  0  0  0  0  0  0  0  0
   63.2690   31.6570   47.6330 C   0  0  0  0  0  0  0  0  0  0  0  0
   58.5670   27.8190   46.3730 C   0  0  0  0  0  0  0  0  0  0  0  0
   58.2490   26.4800   46.6620 C   0  0  0  0  0  0  0  0  0  0  0  0
   56.9710   25.9790   46.4140 C   0  0  0  0  0  0  0  0  0  0  0  0
   56.6860   24.6470   46.6920 O   0  0  0  0  0  0  0  0  0  0  0  0
   55.9860   26.8110   45.8800 C   0  0  0  0  0  0  0  0  0  0  0  0
   54.7150   26.3050   45.6260 O   0  0  0  0  0  0  0  0  0  0  0  0
   56.2690   28.1530   45.6100 C   0  0  0  0  0  0  0  0  0  0  0  0
   55.2570   28.9700   45.1110 O   0  0  0  0  0  0  0  0  0  0  0  0
   57.5550   28.6770   45.8630 C   0  0  0  0  0  0  0  0  0  0  0  0
   57.7930   30.1250   45.6620 C   0  0  0  0  0  0  0  0  0  0  0  0
   58.0110   30.6720   44.4360 N   0  0  0  0  0  0  0  0  0  0  0  0
   58.1930   31.9690   44.7210 C   0  0  0  0  0  0  0  0  0  0  0  0
   58.4490   33.0100   43.8330 C   0  0  0  0  0  0  0  0  0  0  0  0
   58.6000   34.3030   44.3690 C   0  0  0  0  0  0  0  0  0  0  0  0
   58.4950   34.5160   45.7640 C   0  0  0  0  0  0  0  0  0  0  0  0
   58.2370   33.4370   46.6300 C   0  0  0  0  0  0  0  0  0  0  0  0
   58.0910   32.1730   46.0630 C   0  0  0  0  0  0  0  0  0  0  0  0
   57.8410   31.0150   46.6890 N   0  0  0  0  0  0  0  0  0  0  0  0
   59.4110   30.6405   48.6707 H   0  0  0  0  0  0  0  0  0  0  0  0
   59.9515   28.9670   49.0717 H   0  0  0  0  0  0  0  0  0  0  0  0
   61.4361   30.7465   50.0417 H   0  0  0  0  0  0  0  0  0  0  0  0
   62.2901   29.6318   48.9069 H   0  0  0  0  0  0  0  0  0  0  0  0
   60.0696   32.6436   48.3546 H   0  0  0  0  0  0  0  0  0  0  0  0
   60.8059   34.6120   47.0069 H   0  0  0  0  0  0  0  0  0  0  0  0
   63.1116   34.6840   46.0543 H   0  0  0  0  0  0  0  0  0  0  0  0
   64.6946   32.7999   46.4665 H   0  0  0  0  0  0  0  0  0  0  0  0
   63.9708   30.8300   47.8161 H   0  0  0  0  0  0  0  0  0  0  0  0
   59.0178   25.8193   47.0890 H   0  0  0  0  0  0  0  0  0  0  0  0
   58.5304   32.8288   42.7511 H   0  0  0  0  0  0  0  0  0  0  0  0
   58.8007   35.1525   43.6996 H   0  0  0  0  0  0  0  0  0  0  0  0
   58.6156   35.5298   46.1735 H   0  0  0  0  0  0  0  0  0  0  0  0
   58.1536   33.5866   47.7166 H   0  0  0  0  0  0  0  0  0  0  0  0
  1  2  2  0
  2  3  1  0
  3  4  1  0
  4  5  1  0
  5  6  1  0
  6  7  2  0
  7  8  1  0
  8  9  2  0
  9 10  1  0
 10 11  2  0
  2 12  1  0
 12 13  2  0
 13 14  1  0
 14 15  1  0
 14 16  2  0
 16 17  1  0
 16 18  1  0
 18 19  1  0
 18 20  2  0
 20 21  1  0
 21 22  2  0
 22 23  1  0
 23 24  2  0
 24 25  1  0
 25 26  2  0
 26 27  1  0
 27 28  2  0
 28 29  1  0
 11  6  1  0
 20 12  1  0
 29 21  1  0
 28 23  1  0
  4 30  1  0
  4 31  1  0
  5 32  1  0
  5 33  1  0
  7 34  1  0
  8 35  1  0
  9 36  1  0
 10 37  1  0
 11 38  1  0
 13 39  1  0
 24 40  1  0
 25 41  1  0
 26 42  1  0
 27 43  1  0
M  CHG  5   3  -1  15  -1  17  -1  19  -1  29  -1
M  END
>  <UniqueID>  (16) 
15

>  <SMILES>  (16) 
O=C([N-]CCc1ccccc1)c1cc([O-])c([O-])c([O-])c1-c1nc2ccccc2[n-]1

>  <Energy>  (16) 
87.70427319692072

>  <Genealogy>  (16) 
O=C([N-]CCc1ccccc1)c1cc([O-])c([O-])c([O-])c1-c1nc2ccccc2[n-]1 (protonated)
O=C([N-]CCc1ccccc1)c1cc([O-])c([O-])c([O-])c1-c1nc2ccccc2[n-]1 (3D coordinates assigned)
O=C([N-]CCc1ccccc1)c1cc([O-])c([O-])c([O-])c1-c1nc2ccccc2[n-]1 (optimized conformer: 87.70427319692072 kcal/mol)

>  <smiles>  (16) 
O=C(NCCc1ccccc1)c1cc(O)c(O)c(O)c1-c1nc2ccccc2[nH]1

>  <score_type>  (16) 
oracle

>  <origin>  (16) 
adg

>  <m_score__min__energy>  (16) 
-18.800000000000001

>  <m_primary>  (16) 
energy

$$$$
16:0
     RDKit          3D

 45 47  0  0  0  0  0  0  0  0999 V2000
   55.1170   27.0850   45.2170 H   0  0  0  0  0  0  0  0  0  0  0  0
   55.1120   26.3790   45.9880 N   0  0  0  0  0  0  0  0  0  0  0  0
   56.3280   25.9500   46.5970 C   0  0  0  0  0  0  0  0  0  0  0  0
   56.2970   25.0030   47.4290 O   0  0  0  0  0  0  0  0  0  0  0  0
   57.6130   26.6060   46.2600 C   0  0  0  0  0  0  0  0  0  0  0  0
   57.9120   26.9450   44.9280 C   0  0  0  0  0  0  0  0  0  0  0  0
   57.1880   26.7191   44.1313 H   0  0  0  0  0  0  0  0  0  0  0  0
   59.1210   27.5660   44.6100 C   0  0  0  0  0  0  0  0  0  0  0  0
   59.3420   27.8325   43.5659 H   0  0  0  0  0  0  0  0  0  0  0  0
   60.0500   27.8500   45.6110 C   0  0  0  0  0  0  0  0  0  0  0  0
   61.0002   28.3406   45.3531 H   0  0  0  0  0  0  0  0  0  0  0  0
   59.7780   27.5130   46.9440 C   0  0  0  0  0  0  0  0  0  0  0  0
   60.7590   27.8700   48.0300 C   0  0  0  0  0  0  0  0  0  0  0  0
   61.5775   28.4607   47.5927 H   0  0  0  0  0  0  0  0  0  0  0  0
   61.1420   26.9375   48.4703 H   0  0  0  0  0  0  0  0  0  0  0  0
   60.1370   28.6330   49.0650 O   0  0  0  0  0  0  0  0  0  0  0  0
   59.6340   29.9380   48.9290 C   0  0  0  0  0  0  0  0  0  0  0  0
   59.3350   30.5030   47.6740 C   0  0  0  0  0  0  0  0  0  0  0  0
   59.5022   29.9177   46.7578 H   0  0  0  0  0  0  0  0  0  0  0  0
   58.8250   31.8080   47.5840 C   0  0  0  0  0  0  0  0  0  0  0  0
   58.4720   32.3900   46.3190 N   0  0  0  0  0  0  0  0  0  0  0  0
   57.8460   31.7890   45.3500 C   0  0  0  0  0  0  0  0  0  0  0  0
   58.0560   32.1980   44.0720 N   0  0  0  0  0  0  0  0  0  0  0  0
   57.4460   31.5830   43.0230 C   0  0  0  0  0  0  0  0  0  0  0  0
   57.7090   32.0510   41.6280 C   0  0  0  0  0  0  0  0  0  0  0  0
   58.2477   33.0096   41.6583 H   0  0  0  0  0  0  0  0  0  0  0  0
   58.3194   31.3039   41.0996 H   0  0  0  0  0  0  0  0  0  0  0  0
   56.7534   32.1839   41.0996 H   0  0  0  0  0  0  0  0  0  0  0  0
   56.6040   30.4920   43.2570 C   0  0  0  0  0  0  0  0  0  0  0  0
   56.1075   29.9752   42.4225 H   0  0  0  0  0  0  0  0  0  0  0  0
   56.4080   30.0740   44.5730 C   0  0  0  0  0  0  0  0  0  0  0  0
   55.6670   29.0870   44.8190 O   0  0  0  0  0  0  0  0  0  0  0  0
   57.0260   30.7270   45.5910 N   0  0  0  0  0  0  0  0  0  0  0  0
   58.5720   32.5290   48.7530 C   0  0  0  0  0  0  0  0  0  0  0  0
   58.1287   33.5337   48.6902 H   0  0  0  0  0  0  0  0  0  0  0  0
   58.8780   31.9830   50.0000 C   0  0  0  0  0  0  0  0  0  0  0  0
   58.6974   32.5696   50.9128 H   0  0  0  0  0  0  0  0  0  0  0  0
   59.4160   30.6870   50.0970 C   0  0  0  0  0  0  0  0  0  0  0  0
   59.7390   30.1040   51.3320 O   0  0  0  0  0  0  0  0  0  0  0  0
   61.0580   29.7510   51.7380 C   0  0  0  0  0  0  0  0  0  0  0  0
   61.1120   29.7366   52.8366 H   0  0  0  0  0  0  0  0  0  0  0  0
   61.3081   28.7543   51.3455 H   0  0  0  0  0  0  0  0  0  0  0  0
   61.7725   30.4895   51.3455 H   0  0  0  0  0  0  0  0  0  0  0  0
   58.5500   26.9060   47.2650 C   0  0  0  0  0  0  0  0  0  0  0  0
   58.3203   26.6635   48.3131 H   0  0  0  0  0  0  0  0  0  0  0  0
  1  2  1  0
  2  3  1  0
  3  4  2  0
  3  5  1  0
  5  6  2  0
  6  7  1  0
  6  8  1  0
  8  9  1  0
  8 10  2  0
 10 11  1  0
 10 12  1  0
 12 13  1  0
 13 14  1  0
 13 15  1  0
 13 16  1  0
 16 17  1  0
 17 18  2  0
 18 19  1  0
 18 20  1  0
 20 21  1  0
 21 22  2  0
 22 23  1  0
 23 24  1  0
 24 25  1  0
 25 26  1  0
 25 27  1  0
 25 28  1  0
 24 29  2  0
 29 30  1  0
 29 31  1  0
 31 32  2  0
 31 33  1  0
 20 34  2  0
 34 35  1  0
 34 36  1  0
 36 37  1  0
 36 38  2  0
 38 39  1  0
 39 40  1  0
 40 41  1  0
 40 42  1  0
 40 43  1  0
 12 44  2  0
 44 45  1  0
 44  5  1  0
 38 17  1  0
 33 22  1  0
M  CHG  3   2  -1  23  -1  33  -1
M  END
>  <UniqueID>  (17) 
16

>  <SMILES>  (17) 
COc1ccc(/N=c2/[n-]c(C)cc(=O)[n-]2)cc1OCc1cccc(C([NH-])=O)c1

>  <Energy>  (17) 
51.79152629467196

>  <Genealogy>  (17) 
COc1ccc(N=c2[n-]c(C)cc(=O)[n-]2)cc1OCc1cccc(C([NH-])=O)c1 (protonated)
COc1ccc(/N=c2/[n-]c(C)cc(=O)[n-]2)cc1OCc1cccc(C([NH-])=O)c1 (cis-trans isomerization)
COc1ccc(/N=c2/[n-]c(C)cc(=O)[n-]2)cc1OCc1cccc(C([NH-])=O)c1 (3D coordinates assigned)
COc1ccc(/N=c2/[n-]c(C)cc(=O)[n-]2)cc1OCc1cccc(C([NH-])=O)c1 (optimized conformer: 51.79152629467196 kcal/mol)

>  <smiles>  (17) 
COc1ccc(N=c2[nH]c(C)cc(=O)[nH]2)cc1OCc1cccc(C(N)=O)c1

>  <score_type>  (17) 
oracle

>  <origin>  (17) 
adg

>  <m_score__min__energy>  (17) 
-13.75

>  <m_primary>  (17) 
energy

$$$$
17:0
     RDKit          3D

 46 47  0  0  0  0  0  0  0  0999 V2000
   54.7280   26.2150   45.8690 N   0  0  0  0  0  0  0  0  0  0  0  0
   56.1120   26.4160   46.1490 C   0  0  0  0  0  0  0  0  0  0  0  0
   56.6360   25.8540   47.1470 O   0  0  0  0  0  0  0  0  0  0  0  0
   56.9390   27.3180   45.2730 C   0  0  2  0  0  0  0  0  0  0  0  0
   58.4360   26.9950   45.4050 C   0  0  0  0  0  0  0  0  0  0  0  0
   59.1750   28.0700   46.1620 C   0  0  0  0  0  0  0  0  0  0  0  0
   59.1120   28.1190   47.5640 C   0  0  0  0  0  0  0  0  0  0  0  0
   59.7730   29.1330   48.2650 C   0  0  0  0  0  0  0  0  0  0  0  0
   60.4940   30.1080   47.5710 C   0  0  0  0  0  0  0  0  0  0  0  0
   60.5540   30.0720   46.1750 C   0  0  0  0  0  0  0  0  0  0  0  0
   59.8950   29.0610   45.4710 C   0  0  0  0  0  0  0  0  0  0  0  0
   56.7150   28.7100   45.6490 N   0  0  0  0  0  0  0  0  0  0  0  0
   56.3600   29.7350   44.7150 C   0  0  0  0  0  0  0  0  0  0  0  0
   55.2270   29.7250   44.1600 O   0  0  0  0  0  0  0  0  0  0  0  0
   57.3380   30.8420   44.4190 C   0  0  1  0  0  0  0  0  0  0  0  0
   57.6540   30.8920   42.9890 N   0  0  0  0  0  0  0  0  0  0  0  0
   56.7770   32.1910   44.8990 C   0  0  0  0  0  0  0  0  0  0  0  0
   57.8340   33.0090   45.5960 C   0  0  0  0  0  0  0  0  0  0  0  0
   58.5910   33.9480   44.8790 C   0  0  0  0  0  0  0  0  0  0  0  0
   59.5810   34.6910   45.5230 C   0  0  0  0  0  0  0  0  0  0  0  0
   59.8350   34.4940   46.8820 C   0  0  0  0  0  0  0  0  0  0  0  0
   59.1050   33.5400   47.6150 C   0  0  0  0  0  0  0  0  0  0  0  0
   59.3920   33.3380   49.0550 C   0  0  0  0  0  0  0  0  0  0  0  0
   59.0490   32.1200   49.7230 N   0  0  0  0  0  0  0  0  0  0  0  0
   59.9640   34.2500   49.7120 O   0  0  0  0  0  0  0  0  0  0  0  0
   58.0990   32.8050   46.9600 C   0  0  0  0  0  0  0  0  0  0  0  0
   53.9930   26.7260   46.4080 H   0  0  0  0  0  0  0  0  0  0  0  0
   56.6335   27.1550   44.2289 H   0  0  0  0  0  0  0  0  0  0  0  0
   58.5487   26.0407   45.9403 H   0  0  0  0  0  0  0  0  0  0  0  0
   58.8635   26.9330   44.3934 H   0  0  0  0  0  0  0  0  0  0  0  0
   58.5403   27.3566   48.1134 H   0  0  0  0  0  0  0  0  0  0  0  0
   59.7251   29.1628   49.3636 H   0  0  0  0  0  0  0  0  0  0  0  0
   61.0146   30.9042   48.1234 H   0  0  0  0  0  0  0  0  0  0  0  0
   61.1210   30.8409   45.6298 H   0  0  0  0  0  0  0  0  0  0  0  0
   59.9395   29.0400   44.3721 H   0  0  0  0  0  0  0  0  0  0  0  0
   58.2705   30.6358   44.9648 H   0  0  0  0  0  0  0  0  0  0  0  0
   56.8300   30.5610   42.4340 H   0  0  0  0  0  0  0  0  0  0  0  0
   58.4450   30.2350   42.7970 H   0  0  0  0  0  0  0  0  0  0  0  0
   56.4043   32.7533   44.0301 H   0  0  0  0  0  0  0  0  0  0  0  0
   55.9644   31.9937   45.6137 H   0  0  0  0  0  0  0  0  0  0  0  0
   58.4034   34.0989   43.8057 H   0  0  0  0  0  0  0  0  0  0  0  0
   60.1632   35.4342   44.9585 H   0  0  0  0  0  0  0  0  0  0  0  0
   60.6121   35.0894   47.3836 H   0  0  0  0  0  0  0  0  0  0  0  0
   58.7260   31.2770   49.1990 H   0  0  0  0  0  0  0  0  0  0  0  0
   59.2090   32.0270   50.7510 H   0  0  0  0  0  0  0  0  0  0  0  0
   57.5139   32.0626   47.5227 H   0  0  0  0  0  0  0  0  0  0  0  0
  1  2  1  0
  2  3  2  0
  2  4  1  0
  4  5  1  0
  5  6  1  0
  6  7  2  0
  7  8  1  0
  8  9  2  0
  9 10  1  0
 10 11  2  0
  4 12  1  0
 12 13  1  0
 13 14  2  0
 13 15  1  0
 15 16  1  0
 15 17  1  0
 17 18  1  0
 18 19  2  0
 19 20  1  0
 20 21  2  0
 21 22  1  0
 22 23  1  0
 23 24  1  0
 23 25  2  0
 22 26  2  0
 11  6  1  0
 26 18  1  0
  1 27  1  0
  4 28  1  6
  5 29  1  0
  5 30  1  0
  7 31  1  0
  8 32  1  0
  9 33  1  0
 10 34  1  0
 11 35  1  0
 15 36  1  1
 16 37  1  0
 16 38  1  0
 17 39  1  0
 17 40  1  0
 19 41  1  0
 20 42  1  0
 21 43  1  0
 24 44  1  0
 24 45  1  0
 26 46  1  0
M  CHG  2   1  -1  12  -1
M  END
>  <UniqueID>  (18) 
17

>  <SMILES>  (18) 
[NH-]C(=O)[C@H](Cc1ccccc1)[N-]C(=O)[C@@H](N)Cc1cccc(C(N)=O)c1

>  <Energy>  (18) 
39.031090941581496

>  <Genealogy>  (18) 
[NH-]C(=O)C(Cc1ccccc1)[N-]C(=O)C(N)Cc1cccc(C(N)=O)c1 (protonated)
[NH-]C(=O)[C@H](Cc1ccccc1)[N-]C(=O)[C@@H](N)Cc1cccc(C(N)=O)c1 (chirality)
[NH-]C(=O)[C@H](Cc1ccccc1)[N-]C(=O)[C@@H](N)Cc1cccc(C(N)=O)c1 (3D coordinates assigned)
[NH-]C(=O)[C@H](Cc1ccccc1)[N-]C(=O)[C@@H](N)Cc1cccc(C(N)=O)c1 (optimized conformer: 39.031090941581496 kcal/mol)

>  <smiles>  (18) 
NC(=O)c1cccc(CC(N)C(=O)NC(Cc2ccccc2)C(N)=O)c1

>  <score_type>  (18) 
oracle

>  <origin>  (18) 
adg

>  <m_score__min__energy>  (18) 
-13.039999999999999

>  <m_primary>  (18) 
energy

$$$$
18:0
     RDKit          3D

 43 45  0  0  0  0  0  0  0  0999 V2000
   60.8260   26.2760   46.3850 C   0  0  0  0  0  0  0  0  0  0  0  0
   59.7730   27.2300   45.9040 C   0  0  0  0  0  0  0  0  0  0  0  0
   58.4410   27.0800   46.3200 C   0  0  0  0  0  0  0  0  0  0  0  0
   57.4520   27.9450   45.8420 C   0  0  0  0  0  0  0  0  0  0  0  0
   57.7810   28.9590   44.9330 C   0  0  0  0  0  0  0  0  0  0  0  0
   56.5200   30.0240   44.3220 S   0  0  0  0  0  0  0  0  0  0  0  0
   55.1600   29.5560   44.7610 O   0  0  0  0  0  0  0  0  0  0  0  0
   56.5720   30.0270   42.8200 O   0  0  0  0  0  0  0  0  0  0  0  0
   56.7830   31.6350   44.9050 N   0  0  0  0  0  0  0  0  0  0  0  0
   57.8240   32.0230   45.8130 C   0  0  0  0  0  0  0  0  0  0  0  0
   58.4050   33.3040   45.7810 C   0  0  0  0  0  0  0  0  0  0  0  0
   59.4050   33.6470   46.6950 C   0  0  0  0  0  0  0  0  0  0  0  0
   59.8420   32.7160   47.6480 C   0  0  0  0  0  0  0  0  0  0  0  0
   60.8940   33.0870   48.6270 C   0  0  0  0  0  0  0  0  0  0  0  0
   60.5750   33.1950   50.0000 C   0  0  0  0  0  0  0  0  0  0  0  0
   59.2360   32.9430   50.4830 C   0  0  0  0  0  0  0  0  0  0  0  0
   58.1630   32.7390   50.8700 N   0  0  0  0  0  0  0  0  0  0  0  0
   61.5820   33.5270   50.9160 C   0  0  0  0  0  0  0  0  0  0  0  0
   61.2920   33.6420   52.2740 O   0  0  0  0  0  0  0  0  0  0  0  0
   62.8510   33.7330   50.4830 N   0  0  0  0  0  0  0  0  0  0  0  0
   63.1960   33.6430   49.1720 C   0  0  0  0  0  0  0  0  0  0  0  0
   64.3970   33.8360   48.8430 O   0  0  0  0  0  0  0  0  0  0  0  0
   62.2220   33.3370   48.2010 C   0  0  0  0  0  0  0  0  0  0  0  0
   62.6030   33.2510   46.7400 C   0  0  0  0  0  0  0  0  0  0  0  0
   59.2690   31.4360   47.6740 C   0  0  0  0  0  0  0  0  0  0  0  0
   58.2700   31.0930   46.7600 C   0  0  0  0  0  0  0  0  0  0  0  0
   59.1090   29.1010   44.5040 C   0  0  0  0  0  0  0  0  0  0  0  0
   60.0980   28.2370   44.9810 C   0  0  0  0  0  0  0  0  0  0  0  0
   60.8369   26.2661   47.4849 H   0  0  0  0  0  0  0  0  0  0  0  0
   60.6036   25.2656   46.0114 H   0  0  0  0  0  0  0  0  0  0  0  0
   61.8096   26.5968   46.0114 H   0  0  0  0  0  0  0  0  0  0  0  0
   58.1741   26.2788   47.0249 H   0  0  0  0  0  0  0  0  0  0  0  0
   56.4119   27.8290   46.1808 H   0  0  0  0  0  0  0  0  0  0  0  0
   58.0708   34.0385   45.0335 H   0  0  0  0  0  0  0  0  0  0  0  0
   59.8513   34.6520   46.6666 H   0  0  0  0  0  0  0  0  0  0  0  0
   60.4260   33.2800   52.6540 H   0  0  0  0  0  0  0  0  0  0  0  0
   63.6727   33.0095   46.6536 H   0  0  0  0  0  0  0  0  0  0  0  0
   62.0090   32.4643   46.2518 H   0  0  0  0  0  0  0  0  0  0  0  0
   62.4045   34.2166   46.2518 H   0  0  0  0  0  0  0  0  0  0  0  0
   59.6078   30.6992   48.4173 H   0  0  0  0  0  0  0  0  0  0  0  0
   57.8304   30.0849   46.7843 H   0  0  0  0  0  0  0  0  0  0  0  0
   59.3726   29.8950   43.7898 H   0  0  0  0  0  0  0  0  0  0  0  0
   61.1355   28.3461   44.6320 H   0  0  0  0  0  0  0  0  0  0  0  0
  1  2  1  0
  2  3  2  0
  3  4  1  0
  4  5  2  0
  5  6  1  0
  6  7  2  0
  6  8  2  0
  6  9  1  0
  9 10  1  0
 10 11  2  0
 11 12  1  0
 12 13  2  0
 13 14  1  0
 14 15  1  0
 15 16  1  0
 16 17  3  0
 15 18  2  0
 18 19  1  0
 18 20  1  0
 20 21  1  0
 21 22  2  0
 21 23  1  0
 23 24  1  0
 13 25  1  0
 25 26  2  0
  5 27  1  0
 27 28  2  0
 28  2  1  0
 26 10  1  0
 23 14  2  0
  1 29  1  0
  1 30  1  0
  1 31  1  0
  3 32  1  0
  4 33  1  0
 11 34  1  0
 12 35  1  0
 19 36  1  0
 24 37  1  0
 24 38  1  0
 24 39  1  0
 25 40  1  0
 26 41  1  0
 27 42  1  0
 28 43  1  0
M  CHG  2   9  -1  20  -1
M  END
>  <UniqueID>  (19) 
18

>  <SMILES>  (19) 
Cc1ccc(S(=O)(=O)[N-]c2ccc(-c3c(C#N)c(O)[n-]c(=O)c3C)cc2)cc1

>  <Energy>  (19) 
57.79959729504468

>  <Genealogy>  (19) 
Cc1ccc(S(=O)(=O)[N-]c2ccc(-c3c(C#N)c(O)[n-]c(=O)c3C)cc2)cc1 (protonated)
Cc1ccc(S(=O)(=O)[N-]c2ccc(-c3c(C#N)c(O)[n-]c(=O)c3C)cc2)cc1 (3D coordinates assigned)
Cc1ccc(S(=O)(=O)[N-]c2ccc(-c3c(C#N)c(O)[n-]c(=O)c3C)cc2)cc1 (optimized conformer: 57.79959729504468 kcal/mol)

>  <smiles>  (19) 
Cc1ccc(S(=O)(=O)Nc2ccc(-c3c(C#N)c(O)[nH]c(=O)c3C)cc2)cc1

>  <score_type>  (19) 
oracle

>  <origin>  (19) 
adg

>  <m_score__min__energy>  (19) 
-11.220000000000001

>  <m_primary>  (19) 
energy

$$$$
19:0
     RDKit          3D

 37 41  0  0  0  0  0  0  0  0999 V2000
   56.2110   22.2010   43.0000 O   0  0  0  0  0  0  0  0  0  0  0  0
   57.3330   22.4190   43.5030 N   0  0  0  0  0  0  0  0  0  0  0  0
   57.6510   23.6690   44.1240 C   0  0  0  0  0  0  0  0  0  0  0  0
   58.2210   23.6660   45.4150 C   0  0  0  0  0  0  0  0  0  0  0  0
   58.5490   24.8700   46.0640 C   0  0  0  0  0  0  0  0  0  0  0  0
   58.3000   26.0710   45.3930 C   0  0  0  0  0  0  0  0  0  0  0  0
   57.7350   26.0750   44.1300 C   0  0  0  0  0  0  0  0  0  0  0  0
   57.4010   24.8930   43.4700 C   0  0  0  0  0  0  0  0  0  0  0  0
   57.5580   27.3270   43.6650 N   0  0  0  0  0  0  0  0  0  0  0  0
   58.0180   28.1330   44.6430 C   0  0  0  0  0  0  0  0  0  0  0  0
   58.0370   29.5350   44.6150 C   0  0  0  0  0  0  0  0  0  0  0  0
   58.5490   30.2360   45.7300 C   0  0  0  0  0  0  0  0  0  0  0  0
   58.5460   31.7140   45.7300 C   0  0  0  0  0  0  0  0  0  0  0  0
   59.7280   32.4230   46.0000 C   0  0  0  0  0  0  0  0  0  0  0  0
   59.7320   33.8210   45.9780 C   0  0  0  0  0  0  0  0  0  0  0  0
   58.5590   34.5200   45.6770 C   0  0  0  0  0  0  0  0  0  0  0  0
   57.3830   33.8210   45.3930 C   0  0  0  0  0  0  0  0  0  0  0  0
   57.3750   32.4230   45.4130 C   0  0  0  0  0  0  0  0  0  0  0  0
   59.0400   29.4830   46.8250 C   0  0  0  0  0  0  0  0  0  0  0  0
   59.0140   28.0890   46.8360 C   0  0  0  0  0  0  0  0  0  0  0  0
   58.4880   27.4060   45.7300 C   0  0  0  0  0  0  0  0  0  0  0  0
   59.6450   27.6580   48.0900 C   0  0  0  0  0  0  0  0  0  0  0  0
   59.8350   26.4750   48.4650 O   0  0  0  0  0  0  0  0  0  0  0  0
   60.0610   28.7870   48.8490 N   0  0  0  0  0  0  0  0  0  0  0  0
   59.7020   29.9130   48.0590 C   0  0  0  0  0  0  0  0  0  0  0  0
   59.9780   31.1000   48.3770 O   0  0  0  0  0  0  0  0  0  0  0  0
   58.4116   22.7081   45.9211 H   0  0  0  0  0  0  0  0  0  0  0  0
   58.9894   24.8667   47.0720 H   0  0  0  0  0  0  0  0  0  0  0  0
   56.9540   24.9148   42.4651 H   0  0  0  0  0  0  0  0  0  0  0  0
   57.1510   27.6110   42.7460 H   0  0  0  0  0  0  0  0  0  0  0  0
   57.6589   30.0809   43.7380 H   0  0  0  0  0  0  0  0  0  0  0  0
   60.6544   31.8762   46.2297 H   0  0  0  0  0  0  0  0  0  0  0  0
   60.6587   34.3714   46.1977 H   0  0  0  0  0  0  0  0  0  0  0  0
   58.5620   35.6199   45.6638 H   0  0  0  0  0  0  0  0  0  0  0  0
   56.4615   34.3717   45.1532 H   0  0  0  0  0  0  0  0  0  0  0  0
   56.4492   31.8765   45.1799 H   0  0  0  0  0  0  0  0  0  0  0  0
   60.5700   28.7880   49.7610 H   0  0  0  0  0  0  0  0  0  0  0  0
  1  2  2  0
  2  3  1  0
  3  4  2  0
  4  5  1  0
  5  6  2  0
  6  7  1  0
  7  8  2  0
  7  9  1  0
  9 10  1  0
 10 11  2  0
 11 12  1  0
 12 13  1  0
 13 14  2  0
 14 15  1  0
 15 16  2  0
 16 17  1  0
 17 18  2  0
 12 19  2  0
 19 20  1  0
 20 21  2  0
 20 22  1  0
 22 23  2  0
 22 24  1  0
 24 25  1  0
 25 26  2  0
  8  3  1  0
 21 10  1  0
 21  6  1  0
 18 13  1  0
 25 19  1  0
  4 27  1  0
  5 28  1  0
  8 29  1  0
  9 30  1  0
 11 31  1  0
 14 32  1  0
 15 33  1  0
 16 34  1  0
 17 35  1  0
 18 36  1  0
 24 37  1  0
M  END
>  <UniqueID>  (20) 
19

>  <SMILES>  (20) 
O=Nc1ccc2c(c1)[nH]c1cc(-c3ccccc3)c3c(c12)C(=O)NC3=O

>  <Energy>  (20) 
127.11065460933884

>  <Genealogy>  (20) 
O=Nc1ccc2c(c1)[nH]c1cc(-c3ccccc3)c3c(c12)C(=O)NC3=O (3D coordinates assigned)
O=Nc1ccc2c(c1)[nH]c1cc(-c3ccccc3)c3c(c12)C(=O)NC3=O (nonaromatic ring conformer: 127.11065460933884 kcal/mol)

>  <smiles>  (20) 
O=Nc1ccc2c(c1)[nH]c1cc(-c3ccccc3)c3c(c12)C(=O)NC3=O

>  <score_type>  (20) 
oracle

>  <origin>  (20) 
adg

>  <m_score__min__energy>  (20) 
-8.5899999999999999

>  <m_primary>  (20) 
energy

$$$$
20:0
     RDKit          3D

 41 43  0  0  0  0  0  0  0  0999 V2000
   59.8440   33.2530   49.2040 C   0  0  0  0  0  0  0  0  0  0  0  0
   61.0670   33.2070   48.3250 C   0  0  0  0  0  0  0  0  0  0  0  0
   62.1600   32.4320   48.7510 C   0  0  0  0  0  0  0  0  0  0  0  0
   63.3350   32.3840   48.0000 C   0  0  0  0  0  0  0  0  0  0  0  0
   63.4360   33.1100   46.8140 C   0  0  0  0  0  0  0  0  0  0  0  0
   62.3530   33.8680   46.3630 C   0  0  0  0  0  0  0  0  0  0  0  0
   61.1510   33.9030   47.0900 C   0  0  0  0  0  0  0  0  0  0  0  0
   60.0090   34.6570   46.5190 C   0  0  0  0  0  0  0  0  0  0  0  0
   59.6630   35.7420   47.0540 O   0  0  0  0  0  0  0  0  0  0  0  0
   59.2810   34.1870   45.3750 N   0  0  0  0  0  0  0  0  0  0  0  0
   58.8030   32.8490   45.1780 C   0  0  0  0  0  0  0  0  0  0  0  0
   57.8440   32.6070   44.1900 C   0  0  0  0  0  0  0  0  0  0  0  0
   57.2890   31.3330   44.0420 C   0  0  0  0  0  0  0  0  0  0  0  0
   57.6960   30.2790   44.8770 C   0  0  0  0  0  0  0  0  0  0  0  0
   57.0300   28.9550   44.7940 C   0  0  0  0  0  0  0  0  0  0  0  0
   55.7750   28.8840   44.8680 O   0  0  0  0  0  0  0  0  0  0  0  0
   57.7770   27.7540   44.5540 N   0  0  0  0  0  0  0  0  0  0  0  0
   57.7810   26.6350   45.2320 C   0  0  0  0  0  0  0  0  0  0  0  0
   58.9320   25.9070   45.2220 N   0  0  0  0  0  0  0  0  0  0  0  0
   59.1090   24.8010   45.9900 C   0  0  0  0  0  0  0  0  0  0  0  0
   58.0970   24.3810   46.8490 C   0  0  0  0  0  0  0  0  0  0  0  0
   56.8840   25.0660   46.8560 C   0  0  0  0  0  0  0  0  0  0  0  0
   56.6840   26.1600   46.0080 C   0  0  0  0  0  0  0  0  0  0  0  0
   55.3880   26.6680   45.9140 O   0  0  0  0  0  0  0  0  0  0  0  0
   58.7210   30.5070   45.8110 C   0  0  0  0  0  0  0  0  0  0  0  0
   59.2730   31.7800   45.9580 C   0  0  0  0  0  0  0  0  0  0  0  0
   60.1510   33.2415   50.2602 H   0  0  0  0  0  0  0  0  0  0  0  0
   59.2779   34.1731   48.9967 H   0  0  0  0  0  0  0  0  0  0  0  0
   59.2104   32.3780   48.9967 H   0  0  0  0  0  0  0  0  0  0  0  0
   62.0881   31.8574   49.6862 H   0  0  0  0  0  0  0  0  0  0  0  0
   64.1824   31.7728   48.3440 H   0  0  0  0  0  0  0  0  0  0  0  0
   64.3696   33.0858   46.2328 H   0  0  0  0  0  0  0  0  0  0  0  0
   62.4419   34.4432   45.4296 H   0  0  0  0  0  0  0  0  0  0  0  0
   57.5246   33.4235   43.5257 H   0  0  0  0  0  0  0  0  0  0  0  0
   56.5290   31.1544   43.2671 H   0  0  0  0  0  0  0  0  0  0  0  0
   60.0518   24.2371   45.9334 H   0  0  0  0  0  0  0  0  0  0  0  0
   58.2533   23.5188   47.5140 H   0  0  0  0  0  0  0  0  0  0  0  0
   56.0786   24.7445   47.5327 H   0  0  0  0  0  0  0  0  0  0  0  0
   55.1580   27.5020   45.3910 H   0  0  0  0  0  0  0  0  0  0  0  0
   59.0906   29.6764   46.4303 H   0  0  0  0  0  0  0  0  0  0  0  0
   60.0792   31.9468   46.6875 H   0  0  0  0  0  0  0  0  0  0  0  0
  1  2  1  0
  2  3  2  0
  3  4  1  0
  4  5  2  0
  5  6  1  0
  6  7  2  0
  7  8  1  0
  8  9  2  0
  8 10  1  0
 10 11  1  0
 11 12  2  0
 12 13  1  0
 13 14  2  0
 14 15  1  0
 15 16  2  0
 15 17  1  0
 17 18  2  3
 18 19  1  0
 19 20  1  0
 20 21  2  0
 21 22  1  0
 22 23  2  0
 23 24  1  0
 14 25  1  0
 25 26  2  0
  7  2  1  0
 26 11  1  0
 23 18  1  0
  1 27  1  0
  1 28  1  0
  1 29  1  0
  3 30  1  0
  4 31  1  0
  5 32  1  0
  6 33  1  0
 12 34  1  0
 13 35  1  0
 20 36  1  0
 21 37  1  0
 22 38  1  0
 24 39  1  0
 25 40  1  0
 26 41  1  0
M  CHG  2  10  -1  19  -1
M  END
>  <UniqueID>  (21) 
20

>  <SMILES>  (21) 
Cc1ccccc1C(=O)[N-]c1ccc(C(=O)N=c2[n-]cccc2O)cc1

>  <Energy>  (21) 
70.92782226450001

>  <Genealogy>  (21) 
Cc1ccccc1C(=O)[N-]c1ccc(C(=O)N=c2[n-]cccc2O)cc1 (protonated)
Cc1ccccc1C(=O)[N-]c1ccc(C(=O)N=c2[n-]cccc2O)cc1 (3D coordinates assigned)
Cc1ccccc1C(=O)[N-]c1ccc(C(=O)N=c2[n-]cccc2O)cc1 (optimized conformer: 70.92782226450001 kcal/mol)

>  <smiles>  (21) 
Cc1ccccc1C(=O)Nc1ccc(C(=O)N=c2[nH]cccc2O)cc1

>  <score_type>  (21) 
oracle

>  <origin>  (21) 
adg

>  <m_score__min__energy>  (21) 
-11.92

>  <m_primary>  (21) 
energy

$$$$
21:0
     RDKit          3D

 37 39  0  0  0  0  0  0  0  0999 V2000
   57.7080   26.5160   43.9480 O   0  0  0  0  0  0  0  0  0  0  0  0
   57.7540   26.3970   45.2010 C   0  0  0  0  0  0  0  0  0  0  0  0
   58.3650   27.4820   46.0270 C   0  0  0  0  0  0  0  0  0  0  0  0
   57.8660   28.8140   45.5620 C   0  0  0  0  0  0  0  0  0  0  0  0
   58.7900   30.2170   45.4730 S   0  0  0  0  0  0  0  0  0  0  0  0
   57.4690   31.1690   45.0170 C   0  0  0  0  0  0  0  0  0  0  0  0
   57.5000   32.4360   44.7240 N   0  0  0  0  0  0  0  0  0  0  0  0
   58.2150   33.4590   45.4370 C   0  0  0  0  0  0  0  0  0  0  0  0
   58.8720   34.5030   44.7570 C   0  0  0  0  0  0  0  0  0  0  0  0
   59.5960   35.4620   45.4720 C   0  0  0  0  0  0  0  0  0  0  0  0
   59.6910   35.3750   46.8640 C   0  0  0  0  0  0  0  0  0  0  0  0
   59.0710   34.3230   47.5420 C   0  0  0  0  0  0  0  0  0  0  0  0
   58.3430   33.3610   46.8310 C   0  0  0  0  0  0  0  0  0  0  0  0
   57.7390   32.3130   47.5170 O   0  0  0  0  0  0  0  0  0  0  0  0
   56.3340   30.4430   44.9260 N   0  0  0  0  0  0  0  0  0  0  0  0
   56.5500   29.1390   45.2430 C   0  0  0  0  0  0  0  0  0  0  0  0
   55.5190   28.2090   45.2470 O   0  0  0  0  0  0  0  0  0  0  0  0
   57.2460   25.2240   45.8480 N   0  0  0  0  0  0  0  0  0  0  0  0
   57.2620   23.8840   45.3290 C   0  0  0  0  0  0  0  0  0  0  0  0
   58.4840   23.2500   45.0290 C   0  0  0  0  0  0  0  0  0  0  0  0
   58.5040   21.9600   44.4980 C   0  0  0  0  0  0  0  0  0  0  0  0
   57.3100   21.2910   44.2450 C   0  0  0  0  0  0  0  0  0  0  0  0
   56.0890   21.9120   44.5110 C   0  0  0  0  0  0  0  0  0  0  0  0
   56.0430   23.2140   45.0470 C   0  0  0  0  0  0  0  0  0  0  0  0
   54.7130   23.8310   45.3070 C   0  0  0  0  0  0  0  0  0  0  0  0
   53.6500   23.2850   44.9090 O   0  0  0  0  0  0  0  0  0  0  0  0
   54.6230   25.0340   45.9980 O   0  0  0  0  0  0  0  0  0  0  0  0
   58.0899   27.3368   47.0821 H   0  0  0  0  0  0  0  0  0  0  0  0
   59.4594   27.4467   45.9215 H   0  0  0  0  0  0  0  0  0  0  0  0
   58.8153   34.5640   43.6602 H   0  0  0  0  0  0  0  0  0  0  0  0
   60.0917   36.2863   44.9383 H   0  0  0  0  0  0  0  0  0  0  0  0
   60.2541   36.1351   47.4254 H   0  0  0  0  0  0  0  0  0  0  0  0
   59.1547   34.2500   48.6364 H   0  0  0  0  0  0  0  0  0  0  0  0
   59.4313   23.7772   45.2152 H   0  0  0  0  0  0  0  0  0  0  0  0
   59.4647   21.4710   44.2790 H   0  0  0  0  0  0  0  0  0  0  0  0
   57.3289   20.2706   43.8345 H   0  0  0  0  0  0  0  0  0  0  0  0
   55.1507   21.3782   44.2995 H   0  0  0  0  0  0  0  0  0  0  0  0
  1  2  2  0
  2  3  1  0
  3  4  1  0
  4  5  1  0
  5  6  1  0
  6  7  2  3
  7  8  1  0
  8  9  2  0
  9 10  1  0
 10 11  2  0
 11 12  1  0
 12 13  2  0
 13 14  1  0
  6 15  1  0
 15 16  1  0
 16 17  1  0
  2 18  1  0
 18 19  1  0
 19 20  2  0
 20 21  1  0
 21 22  2  0
 22 23  1  0
 23 24  2  0
 24 25  1  0
 25 26  2  0
 25 27  1  0
 16  4  2  0
 24 19  1  0
 13  8  1  0
  3 28  1  0
  3 29  1  0
  9 30  1  0
 10 31  1  0
 11 32  1  0
 12 33  1  0
 20 34  1  0
 21 35  1  0
 22 36  1  0
 23 37  1  0
M  CHG  5  14  -1  15  -1  17  -1  18  -1  27  -1
M  END
>  <UniqueID>  (22) 
21

>  <SMILES>  (22) 
O=C(Cc1sc(=Nc2ccccc2[O-])[n-]c1[O-])[N-]c1ccccc1C(=O)[O-]

>  <Energy>  (22) 
81.86793215189806

>  <Genealogy>  (22) 
O=C(Cc1sc(=Nc2ccccc2[O-])[n-]c1[O-])[N-]c1ccccc1C(=O)[O-] (protonated)
O=C(Cc1sc(=Nc2ccccc2[O-])[n-]c1[O-])[N-]c1ccccc1C(=O)[O-] (3D coordinates assigned)
O=C(Cc1sc(=Nc2ccccc2[O-])[n-]c1[O-])[N-]c1ccccc1C(=O)[O-] (optimized conformer: 81.86793215189806 kcal/mol)

>  <smiles>  (22) 
O=C(Cc1sc(=Nc2ccccc2O)[nH]c1O)Nc1ccccc1C(=O)O

>  <score_type>  (22) 
oracle

>  <origin>  (22) 
adg

>  <m_score__min__energy>  (22) 
-18.23

>  <m_primary>  (22) 
energy

$$$$
22:0
     RDKit          3D

 46 49  0  0  0  0  0  0  0  0999 V2000
   60.7440   27.0170   49.6260 C   0  0  0  0  0  0  0  0  0  0  0  0
   60.8910   27.2430   48.2270 O   0  0  0  0  0  0  0  0  0  0  0  0
   59.9260   27.8630   47.4200 C   0  0  0  0  0  0  0  0  0  0  0  0
   60.3040   28.9890   46.6780 C   0  0  0  0  0  0  0  0  0  0  0  0
   59.3810   29.6420   45.8560 C   0  0  0  0  0  0  0  0  0  0  0  0
   58.0650   29.1700   45.7640 C   0  0  0  0  0  0  0  0  0  0  0  0
   56.9130   29.9820   44.7050 S   0  0  0  0  0  0  0  0  0  0  0  0
   55.6120   29.2350   44.7580 O   0  0  0  0  0  0  0  0  0  0  0  0
   57.4090   30.0000   43.2870 O   0  0  0  0  0  0  0  0  0  0  0  0
   56.6510   31.6110   45.2410 N   0  0  0  0  0  0  0  0  0  0  0  0
   57.6530   32.6090   45.4930 C   0  0  0  0  0  0  0  0  0  0  0  0
   57.8610   33.5830   44.5090 C   0  0  0  0  0  0  0  0  0  0  0  0
   58.7960   34.6000   44.7020 C   0  0  0  0  0  0  0  0  0  0  0  0
   59.5470   34.6530   45.8750 C   0  0  0  0  0  0  0  0  0  0  0  0
   60.4590   35.6450   46.0320 F   0  0  0  0  0  0  0  0  0  0  0  0
   59.3850   33.6640   46.8620 C   0  0  0  0  0  0  0  0  0  0  0  0
   60.2000   33.7150   48.0960 C   0  0  0  0  0  0  0  0  0  0  0  0
   59.6380   34.0010   49.1880 O   0  0  0  0  0  0  0  0  0  0  0  0
   61.6470   33.4210   48.0940 C   0  0  0  0  0  0  0  0  0  0  0  0
   62.3820   32.9600   47.0020 C   0  0  0  0  0  0  0  0  0  0  0  0
   63.6800   32.7850   47.3400 N   0  0  0  0  0  0  0  0  0  0  0  0
   63.7640   33.1180   48.6370 C   0  0  0  0  0  0  0  0  0  0  0  0
   64.8820   33.0610   49.4010 N   0  0  0  0  0  0  0  0  0  0  0  0
   64.8030   33.3990   50.7230 C   0  0  0  0  0  0  0  0  0  0  0  0
   63.5670   33.7870   51.2940 C   0  0  0  0  0  0  0  0  0  0  0  0
   63.4800   34.1180   52.6440 O   0  0  0  0  0  0  0  0  0  0  0  0
   62.4140   33.8340   50.4900 C   0  0  0  0  0  0  0  0  0  0  0  0
   62.5520   33.5040   49.1400 C   0  0  0  0  0  0  0  0  0  0  0  0
   58.4300   32.6440   46.6720 C   0  0  0  0  0  0  0  0  0  0  0  0
   58.2840   31.6920   47.6270 F   0  0  0  0  0  0  0  0  0  0  0  0
   57.6770   28.0480   46.5080 C   0  0  0  0  0  0  0  0  0  0  0  0
   58.6000   27.3950   47.3300 C   0  0  0  0  0  0  0  0  0  0  0  0
   61.2614   27.8125   50.1823 H   0  0  0  0  0  0  0  0  0  0  0  0
   59.6756   27.0217   49.8879 H   0  0  0  0  0  0  0  0  0  0  0  0
   61.1814   26.0423   49.8879 H   0  0  0  0  0  0  0  0  0  0  0  0
   61.3365   29.3629   46.7426 H   0  0  0  0  0  0  0  0  0  0  0  0
   59.6883   30.5277   45.2806 H   0  0  0  0  0  0  0  0  0  0  0  0
   57.2815   33.5459   43.5747 H   0  0  0  0  0  0  0  0  0  0  0  0
   58.9414   35.3642   43.9243 H   0  0  0  0  0  0  0  0  0  0  0  0
   61.9637   32.7655   46.0034 H   0  0  0  0  0  0  0  0  0  0  0  0
   64.4510   32.4480   46.7220 H   0  0  0  0  0  0  0  0  0  0  0  0
   65.7073   33.3693   51.3485 H   0  0  0  0  0  0  0  0  0  0  0  0
   64.2900   34.0740   53.2510 H   0  0  0  0  0  0  0  0  0  0  0  0
   61.4383   34.1205   50.9095 H   0  0  0  0  0  0  0  0  0  0  0  0
   56.6424   27.6797   46.4451 H   0  0  0  0  0  0  0  0  0  0  0  0
   58.2900   26.5124   47.9088 H   0  0  0  0  0  0  0  0  0  0  0  0
  1  2  1  0
  2  3  1  0
  3  4  2  0
  4  5  1  0
  5  6  2  0
  6  7  1  0
  7  8  2  0
  7  9  2  0
  7 10  1  0
 10 11  1  0
 11 12  2  0
 12 13  1  0
 13 14  2  0
 14 15  1  0
 14 16  1  0
 16 17  1  0
 17 18  2  0
 17 19  1  0
 19 20  2  0
 20 21  1  0
 21 22  1  0
 22 23  2  0
 23 24  1  0
 24 25  2  0
 25 26  1  0
 25 27  1  0
 27 28  2  0
 16 29  2  0
 29 30  1  0
  6 31  1  0
 31 32  2  0
 32  3  1  0
 29 11  1  0
 28 19  1  0
 28 22  1  0
  1 33  1  0
  1 34  1  0
  1 35  1  0
  4 36  1  0
  5 37  1  0
 12 38  1  0
 13 39  1  0
 20 40  1  0
 21 41  1  0
 24 42  1  0
 26 43  1  0
 27 44  1  0
 31 45  1  0
 32 46  1  0
M  CHG  1  10  -1
M  END
>  <UniqueID>  (23) 
22

>  <SMILES>  (23) 
COc1ccc(S(=O)(=O)[N-]c2ccc(F)c(C(=O)c3c[nH]c4ncc(O)cc34)c2F)cc1

>  <Energy>  (23) 
96.9273557079315

>  <Genealogy>  (23) 
COc1ccc(S(=O)(=O)[N-]c2ccc(F)c(C(=O)c3c[nH]c4ncc(O)cc34)c2F)cc1 (protonated)
COc1ccc(S(=O)(=O)[N-]c2ccc(F)c(C(=O)c3c[nH]c4ncc(O)cc34)c2F)cc1 (3D coordinates assigned)
COc1ccc(S(=O)(=O)[N-]c2ccc(F)c(C(=O)c3c[nH]c4ncc(O)cc34)c2F)cc1 (optimized conformer: 96.9273557079315 kcal/mol)

>  <smiles>  (23) 
COc1ccc(S(=O)(=O)Nc2ccc(F)c(C(=O)c3c[nH]c4ncc(O)cc34)c2F)cc1

>  <score_type>  (23) 
oracle

>  <origin>  (23) 
adg

>  <m_score__min__energy>  (23) 
-10.6

>  <m_primary>  (23) 
energy

$$$$
23:0
     RDKit          3D

 45 49  0  0  0  0  0  0  0  0999 V2000
   58.3610   28.0860   44.4060 O   0  0  0  0  0  0  0  0  0  0  0  0
   57.7150   28.5480   45.3840 C   0  0  0  0  0  0  0  0  0  0  0  0
   57.5550   27.7200   46.6180 C   0  0  0  0  0  0  0  0  0  0  0  0
   57.1670   26.3570   46.2590 N   0  0  0  0  0  0  0  0  0  0  0  0
   55.9150   25.9090   46.0130 C   0  0  0  0  0  0  0  0  0  0  0  0
   54.7810   26.7160   46.0100 O   0  0  0  0  0  0  0  0  0  0  0  0
   55.9290   24.5500   45.7740 C   0  0  0  0  0  0  0  0  0  0  0  0
   57.2470   24.1520   45.8490 C   0  0  0  0  0  0  0  0  0  0  0  0
   57.9780   25.2770   46.1780 C   0  0  0  0  0  0  0  0  0  0  0  0
   59.3490   25.3070   46.4080 O   0  0  0  0  0  0  0  0  0  0  0  0
   57.7040   22.7300   45.7210 C   0  0  0  0  0  0  0  0  0  0  0  0
   56.6220   21.8850   45.0160 C   0  0  0  0  0  0  0  0  0  0  0  0
   55.2120   22.1660   45.5850 C   0  0  0  0  0  0  0  0  0  0  0  0
   54.7990   23.6410   45.3920 C   0  0  0  0  0  0  0  0  0  0  0  0
   57.1750   29.8740   45.3540 N   0  0  0  0  0  0  0  0  0  0  0  0
   57.4080   30.8670   44.3470 C   0  0  0  0  0  0  0  0  0  0  0  0
   56.9220   30.7860   42.7350 S   0  0  0  0  0  0  0  0  0  0  0  0
   57.5310   32.2890   42.2900 C   0  0  0  0  0  0  0  0  0  0  0  0
   58.1240   32.8740   43.4040 C   0  0  0  0  0  0  0  0  0  0  0  0
   58.0600   32.0820   44.5630 C   0  0  0  0  0  0  0  0  0  0  0  0
   58.6320   32.5080   45.8580 C   0  0  0  0  0  0  0  0  0  0  0  0
   58.1150   32.1150   47.0540 N   0  0  0  0  0  0  0  0  0  0  0  0
   58.9160   32.7310   47.9370 C   0  0  0  0  0  0  0  0  0  0  0  0
   58.8350   32.7050   49.3280 C   0  0  0  0  0  0  0  0  0  0  0  0
   59.7750   33.4660   50.0500 C   0  0  0  0  0  0  0  0  0  0  0  0
   60.7600   34.2180   49.3710 C   0  0  0  0  0  0  0  0  0  0  0  0
   60.8120   34.2170   47.9640 C   0  0  0  0  0  0  0  0  0  0  0  0
   59.8640   33.4560   47.2830 C   0  0  0  0  0  0  0  0  0  0  0  0
   59.7070   33.3360   45.9570 N   0  0  0  0  0  0  0  0  0  0  0  0
   58.5085   27.6949   47.1660 H   0  0  0  0  0  0  0  0  0  0  0  0
   56.7723   28.1632   47.2511 H   0  0  0  0  0  0  0  0  0  0  0  0
   58.6319   22.6980   45.1311 H   0  0  0  0  0  0  0  0  0  0  0  0
   57.8837   22.3185   46.7252 H   0  0  0  0  0  0  0  0  0  0  0  0
   56.6268   22.1245   43.9424 H   0  0  0  0  0  0  0  0  0  0  0  0
   56.8535   20.8231   45.1856 H   0  0  0  0  0  0  0  0  0  0  0  0
   54.4849   21.5222   45.0685 H   0  0  0  0  0  0  0  0  0  0  0  0
   55.2307   21.9547   46.6644 H   0  0  0  0  0  0  0  0  0  0  0  0
   54.5376   23.8100   44.3369 H   0  0  0  0  0  0  0  0  0  0  0  0
   53.9319   23.8576   46.0333 H   0  0  0  0  0  0  0  0  0  0  0  0
   57.4705   32.7348   41.2862 H   0  0  0  0  0  0  0  0  0  0  0  0
   58.5994   33.8657   43.3799 H   0  0  0  0  0  0  0  0  0  0  0  0
   58.0651   32.1119   49.8433 H   0  0  0  0  0  0  0  0  0  0  0  0
   59.7421   33.4750   51.1495 H   0  0  0  0  0  0  0  0  0  0  0  0
   61.4902   34.8075   49.9449 H   0  0  0  0  0  0  0  0  0  0  0  0
   61.5738   34.7963   47.4217 H   0  0  0  0  0  0  0  0  0  0  0  0
  1  2  2  0
  2  3  1  0
  3  4  1  0
  4  5  1  0
  5  6  1  0
  5  7  2  0
  7  8  1  0
  8  9  2  0
  9 10  1  0
  8 11  1  0
 11 12  1  0
 12 13  1  0
 13 14  1  0
  2 15  1  0
 15 16  1  0
 16 17  1  0
 17 18  1  0
 18 19  2  0
 19 20  1  0
 20 21  1  0
 21 22  2  0
 22 23  1  0
 23 24  2  0
 24 25  1  0
 25 26  2  0
 26 27  1  0
 27 28  2  0
 28 29  1  0
  9  4  1  0
 20 16  2  0
 29 21  1  0
 14  7  1  0
 28 23  1  0
  3 30  1  0
  3 31  1  0
 11 32  1  0
 11 33  1  0
 12 34  1  0
 12 35  1  0
 13 36  1  0
 13 37  1  0
 14 38  1  0
 14 39  1  0
 18 40  1  0
 19 41  1  0
 24 42  1  0
 25 43  1  0
 26 44  1  0
 27 45  1  0
M  CHG  4   6  -1  10  -1  15  -1  29  -1
M  END
>  <UniqueID>  (24) 
23

>  <SMILES>  (24) 
O=C(Cn1c([O-])c2c(c1[O-])CCCC2)[N-]c1sccc1-c1nc2ccccc2[n-]1

>  <Energy>  (24) 
139.7396851013531

>  <Genealogy>  (24) 
O=C(Cn1c([O-])c2c(c1[O-])CCCC2)[N-]c1sccc1-c1nc2ccccc2[n-]1 (protonated)
O=C(Cn1c([O-])c2c(c1[O-])CCCC2)[N-]c1sccc1-c1nc2ccccc2[n-]1 (3D coordinates assigned)
O=C(Cn1c([O-])c2c(c1[O-])CCCC2)[N-]c1sccc1-c1nc2ccccc2[n-]1 (nonaromatic ring conformer: 139.7396851013531 kcal/mol)

>  <smiles>  (24) 
O=C(Cn1c(O)c2c(c1O)CCCC2)Nc1sccc1-c1nc2ccccc2[nH]1

>  <score_type>  (24) 
oracle

>  <origin>  (24) 
adg

>  <m_score__min__energy>  (24) 
-16.02

>  <m_primary>  (24) 
energy

$$$$
24:0
     RDKit          3D

 29 30  0  0  1  0  0  0  0  0999 V2000
   58.9230   35.0980   44.8700 N   0  0  0  0  0  0  0  0  0  0  0  0
   58.7950   34.0240   45.3160 C   0  0  0  0  0  0  0  0  0  0  0  0
   58.6280   32.7340   45.8700 C   0  0  0  0  0  0  0  0  0  0  0  0
   58.9610   32.4200   47.1830 C   0  0  0  0  0  0  0  0  0  0  0  0
   59.6310   33.7220   48.2070 S   0  0  0  0  0  0  0  0  0  0  0  0
   61.4150   33.6160   48.2050 C   0  0  0  0  0  0  0  0  0  0  0  0
   62.1420   33.4700   47.0350 C   0  0  0  0  0  0  0  0  0  0  0  0
   63.5260   33.3950   47.1240 C   0  0  0  0  0  0  0  0  0  0  0  0
   64.1430   33.4660   48.3610 C   0  0  0  0  0  0  0  0  0  0  0  0
   63.4120   33.6100   49.5200 C   0  0  0  0  0  0  0  0  0  0  0  0
   62.0460   33.6850   49.4340 C   0  0  0  0  0  0  0  0  0  0  0  0
   58.7820   31.1620   47.6730 N   0  0  0  0  0  0  0  0  0  0  0  0
   58.2830   30.1950   46.9110 N   0  0  0  0  0  0  0  0  0  0  0  0
   57.9390   30.4330   45.6300 C   0  0  0  0  0  0  0  0  0  0  0  0
   57.4530   29.4920   44.8840 N   0  0  0  0  0  0  0  0  0  0  0  0
   56.2200   29.6700   44.1840 C   0  0  0  0  0  0  0  0  0  0  0  0
   56.1360   30.0650   42.8340 N   0  0  0  0  0  0  0  0  0  0  0  0
   55.1650   29.4440   44.8670 O   0  0  0  0  0  0  0  0  0  0  0  0
   58.1110   31.7000   45.1090 C   0  0  0  0  0  0  0  0  0  0  0  0
   57.8070   31.9810   43.9080 O   0  0  0  0  0  0  0  0  0  0  0  0
   61.6359   33.4148   46.0599 H   0  0  0  0  0  0  0  0  0  0  0  0
   64.1310   33.2793   46.2126 H   0  0  0  0  0  0  0  0  0  0  0  0
   65.2398   33.4062   48.4200 H   0  0  0  0  0  0  0  0  0  0  0  0
   63.9154   33.6638   50.4966 H   0  0  0  0  0  0  0  0  0  0  0  0
   61.4470   33.8009   50.3493 H   0  0  0  0  0  0  0  0  0  0  0  0
   59.0430   30.9590   48.6700 H   0  0  0  0  0  0  0  0  0  0  0  0
   58.1660   29.2440   47.3410 H   0  0  0  0  0  0  0  0  0  0  0  0
   55.4460   29.5340   42.2250 H   0  0  0  0  0  0  0  0  0  0  0  0
   56.7170   30.8420   42.4240 H   0  0  0  0  0  0  0  0  0  0  0  0
  1  2  3  0
  2  3  1  0
  3  4  2  0
  4  5  1  0
  5  6  1  0
  6  7  2  0
  7  8  1  0
  8  9  2  0
  9 10  1  0
 10 11  2  0
  4 12  1  0
 12 13  1  0
 13 14  1  0
 14 15  2  0
 15 16  1  0
 16 17  1  0
 16 18  2  0
 14 19  1  0
 19 20  2  0
 19  3  1  0
 11  6  1  0
  7 21  1  0
  8 22  1  0
  9 23  1  0
 10 24  1  0
 11 25  1  0
 12 26  1  0
 13 27  1  0
 17 28  1  0
 17 29  1  0
M  END
>  <smiles>  (25) 
N#Cc1c(Sc2ccccc2)[nH][nH]c(=NC(N)=O)c1=O

>  <score_type>  (25) 
oracle

>  <origin>  (25) 
adg

>  <m_score__min__energy>  (25) 
-7.2000000000000002

>  <m_primary>  (25) 
energy

$$$$
25:0
     RDKit          3D

 50 52  0  0  0  0  0  0  0  0999 V2000
   56.0840   30.5230   44.0570 C   0  0  0  0  0  0  0  0  0  0  0  0
   56.6860   30.7420   42.6700 C   0  0  0  0  0  0  0  0  0  0  0  0
   57.6430   31.9400   42.6410 C   0  0  0  0  0  0  0  0  0  0  0  0
   58.4110   32.0370   43.8820 N   0  0  0  0  0  0  0  0  0  0  0  0
   58.1710   33.0610   44.8620 C   0  0  0  0  0  0  0  0  0  0  0  0
   57.3500   33.9860   44.6160 O   0  0  0  0  0  0  0  0  0  0  0  0
   58.9050   33.0680   46.1500 C   0  0  0  0  0  0  0  0  0  0  0  0
   58.7540   34.1690   47.0070 C   0  0  0  0  0  0  0  0  0  0  0  0
   59.4230   34.2210   48.1860 N   0  0  0  0  0  0  0  0  0  0  0  0
   60.2470   33.2180   48.5920 C   0  0  0  0  0  0  0  0  0  0  0  0
   60.9570   33.3080   49.7960 O   0  0  0  0  0  0  0  0  0  0  0  0
   62.3550   33.3340   49.9120 C   0  0  0  0  0  0  0  0  0  0  0  0
   63.2030   32.9660   48.8500 C   0  0  0  0  0  0  0  0  0  0  0  0
   64.5920   33.0210   49.0080 C   0  0  0  0  0  0  0  0  0  0  0  0
   65.1440   33.4530   50.2160 C   0  0  0  0  0  0  0  0  0  0  0  0
   64.3070   33.8390   51.2670 C   0  0  0  0  0  0  0  0  0  0  0  0
   62.9190   33.7870   51.1120 C   0  0  0  0  0  0  0  0  0  0  0  0
   60.4230   32.0960   47.7810 C   0  0  0  0  0  0  0  0  0  0  0  0
   59.7260   31.9910   46.5590 C   0  0  0  0  0  0  0  0  0  0  0  0
   59.8240   30.9350   45.7960 N   0  0  0  0  0  0  0  0  0  0  0  0
   59.0080   29.7530   45.8150 C   0  0  0  0  0  0  0  0  0  0  0  0
   58.5420   29.2690   47.0430 C   0  0  0  0  0  0  0  0  0  0  0  0
   57.7930   28.0890   47.0980 C   0  0  0  0  0  0  0  0  0  0  0  0
   57.5210   27.3720   45.9250 C   0  0  0  0  0  0  0  0  0  0  0  0
   56.5920   25.8770   45.9940 S   0  0  0  0  0  0  0  0  0  0  0  0
   54.9040   26.2450   45.9800 N   0  0  0  0  0  0  0  0  0  0  0  0
   56.9320   25.1250   47.2500 O   0  0  0  0  0  0  0  0  0  0  0  0
   56.9250   25.0140   44.8100 O   0  0  0  0  0  0  0  0  0  0  0  0
   58.0240   27.8300   44.7010 C   0  0  0  0  0  0  0  0  0  0  0  0
   58.7730   29.0100   44.6470 C   0  0  0  0  0  0  0  0  0  0  0  0
   56.8243   30.7923   44.8247 H   0  0  0  0  0  0  0  0  0  0  0  0
   55.1901   31.1535   44.1725 H   0  0  0  0  0  0  0  0  0  0  0  0
   55.8042   29.4655   44.1725 H   0  0  0  0  0  0  0  0  0  0  0  0
   57.2398   29.8380   42.3766 H   0  0  0  0  0  0  0  0  0  0  0  0
   55.8621   30.9487   41.9711 H   0  0  0  0  0  0  0  0  0  0  0  0
   58.3389   31.8223   41.7973 H   0  0  0  0  0  0  0  0  0  0  0  0
   57.0470   32.8577   42.5289 H   0  0  0  0  0  0  0  0  0  0  0  0
   59.1660   31.3340   44.0450 H   0  0  0  0  0  0  0  0  0  0  0  0
   58.0880   34.9963   46.7205 H   0  0  0  0  0  0  0  0  0  0  0  0
   62.7723   32.6344   47.8937 H   0  0  0  0  0  0  0  0  0  0  0  0
   65.2508   32.7233   48.1789 H   0  0  0  0  0  0  0  0  0  0  0  0
   66.2363   33.4895   50.3403 H   0  0  0  0  0  0  0  0  0  0  0  0
   64.7413   34.1840   52.2169 H   0  0  0  0  0  0  0  0  0  0  0  0
   62.2649   34.1038   51.9377 H   0  0  0  0  0  0  0  0  0  0  0  0
   61.1058   31.2928   48.0949 H   0  0  0  0  0  0  0  0  0  0  0  0
   58.7658   29.8191   47.9689 H   0  0  0  0  0  0  0  0  0  0  0  0
   57.4165   27.7228   48.0645 H   0  0  0  0  0  0  0  0  0  0  0  0
   54.7730   27.0980   46.5690 H   0  0  0  0  0  0  0  0  0  0  0  0
   57.8297   27.2606   43.7801 H   0  0  0  0  0  0  0  0  0  0  0  0
   59.1796   29.3573   43.6857 H   0  0  0  0  0  0  0  0  0  0  0  0
  1  2  1  0
  2  3  1  0
  3  4  1  0
  4  5  1  0
  5  6  2  0
  5  7  1  0
  7  8  2  0
  8  9  1  0
  9 10  1  0
 10 11  1  0
 11 12  1  0
 12 13  2  0
 13 14  1  0
 14 15  2  0
 15 16  1  0
 16 17  2  0
 10 18  2  0
 18 19  1  0
 19 20  2  3
 20 21  1  0
 21 22  2  0
 22 23  1  0
 23 24  2  0
 24 25  1  0
 25 26  1  0
 25 27  2  0
 25 28  2  0
 24 29  1  0
 29 30  2  0
 19  7  1  0
 30 21  1  0
 17 12  1  0
  1 31  1  0
  1 32  1  0
  1 33  1  0
  2 34  1  0
  2 35  1  0
  3 36  1  0
  3 37  1  0
  4 38  1  0
  8 39  1  0
 13 40  1  0
 14 41  1  0
 15 42  1  0
 16 43  1  0
 17 44  1  0
 18 45  1  0
 22 46  1  0
 23 47  1  0
 26 48  1  0
 29 49  1  0
 30 50  1  0
M  CHG  2   9  -1  26  -1
M  END
>  <UniqueID>  (26) 
24

>  <SMILES>  (26) 
CCCNC(=O)c1c[n-]c(Oc2ccccc2)cc1=Nc1ccc(S([NH-])(=O)=O)cc1

>  <Energy>  (26) 
65.75758503270568

>  <Genealogy>  (26) 
CCCNC(=O)c1c[n-]c(Oc2ccccc2)cc1=Nc1ccc(S([NH-])(=O)=O)cc1 (protonated)
CCCNC(=O)c1c[n-]c(Oc2ccccc2)cc1=Nc1ccc(S([NH-])(=O)=O)cc1 (3D coordinates assigned)
CCCNC(=O)c1c[n-]c(Oc2ccccc2)cc1=Nc1ccc(S([NH-])(=O)=O)cc1 (optimized conformer: 65.75758503270568 kcal/mol)

>  <smiles>  (26) 
CCCNC(=O)c1c[nH]c(Oc2ccccc2)cc1=Nc1ccc(S(N)(=O)=O)cc1

>  <score_type>  (26) 
oracle

>  <origin>  (26) 
adg

>  <m_score__min__energy>  (26) 
-11.859999999999999

>  <m_primary>  (26) 
energy

$$$$
26:0
     RDKit          3D

 45 48  0  0  0  0  0  0  0  0999 V2000
   54.9990   26.1510   45.9650 N   0  0  0  0  0  0  0  0  0  0  0  0
   56.7110   26.1010   45.7390 S   0  0  0  0  0  0  0  0  0  0  0  0
   57.3230   25.3040   46.8570 O   0  0  0  0  0  0  0  0  0  0  0  0
   57.0240   25.4410   44.4270 O   0  0  0  0  0  0  0  0  0  0  0  0
   57.3640   27.7360   45.7420 C   0  0  0  0  0  0  0  0  0  0  0  0
   58.6710   27.9800   46.2330 C   0  0  0  0  0  0  0  0  0  0  0  0
   59.2030   29.2830   46.2310 C   0  0  0  0  0  0  0  0  0  0  0  0
   58.4050   30.3080   45.7290 C   0  0  0  0  0  0  0  0  0  0  0  0
   58.7070   31.6100   45.6300 N   0  0  0  0  0  0  0  0  0  0  0  0
   57.5800   32.1260   45.0770 C   0  0  0  0  0  0  0  0  0  0  0  0
   57.3980   33.8680   44.7090 S   0  0  0  0  0  0  0  0  0  0  0  0
   59.1930   34.1370   44.5470 C   0  0  0  0  0  0  0  0  0  0  0  0
   59.8170   34.1840   45.9120 C   0  0  0  0  0  0  0  0  0  0  0  0
   61.1450   33.7740   46.0970 C   0  0  0  0  0  0  0  0  0  0  0  0
   61.7130   33.7820   47.3730 C   0  0  0  0  0  0  0  0  0  0  0  0
   60.9570   34.1790   48.4890 C   0  0  0  0  0  0  0  0  0  0  0  0
   61.5680   34.1760   49.8400 C   0  0  0  0  0  0  0  0  0  0  0  0
   62.7200   34.6630   49.9970 O   0  0  0  0  0  0  0  0  0  0  0  0
   60.8730   33.6780   50.9900 N   0  0  0  0  0  0  0  0  0  0  0  0
   59.7830   32.7430   50.9820 C   0  0  0  0  0  0  0  0  0  0  0  0
   59.9020   31.5810   50.2080 C   0  0  0  0  0  0  0  0  0  0  0  0
   58.8690   30.6410   50.1770 C   0  0  0  0  0  0  0  0  0  0  0  0
   57.7000   30.8620   50.9080 C   0  0  0  0  0  0  0  0  0  0  0  0
   57.5570   32.0310   51.6600 C   0  0  0  0  0  0  0  0  0  0  0  0
   58.5850   32.9800   51.6900 C   0  0  0  0  0  0  0  0  0  0  0  0
   58.3940   34.1610   52.3990 O   0  0  0  0  0  0  0  0  0  0  0  0
   59.6270   34.5930   48.2990 C   0  0  0  0  0  0  0  0  0  0  0  0
   59.0590   34.5850   47.0210 C   0  0  0  0  0  0  0  0  0  0  0  0
   56.5990   31.2210   44.8250 N   0  0  0  0  0  0  0  0  0  0  0  0
   57.1520   30.0760   45.2500 C   0  0  0  0  0  0  0  0  0  0  0  0
   56.5910   28.8020   45.2360 C   0  0  0  0  0  0  0  0  0  0  0  0
   54.7740   27.0790   46.3900 H   0  0  0  0  0  0  0  0  0  0  0  0
   59.2741   27.1447   46.6185 H   0  0  0  0  0  0  0  0  0  0  0  0
   60.2146   29.4849   46.6129 H   0  0  0  0  0  0  0  0  0  0  0  0
   59.6366   33.3128   43.9691 H   0  0  0  0  0  0  0  0  0  0  0  0
   59.3758   35.0890   44.0272 H   0  0  0  0  0  0  0  0  0  0  0  0
   61.7419   33.4447   45.2337 H   0  0  0  0  0  0  0  0  0  0  0  0
   62.7609   33.4749   47.5054 H   0  0  0  0  0  0  0  0  0  0  0  0
   60.8156   31.4077   49.6204 H   0  0  0  0  0  0  0  0  0  0  0  0
   58.9766   29.7259   49.5762 H   0  0  0  0  0  0  0  0  0  0  0  0
   56.8918   30.1160   50.8919 H   0  0  0  0  0  0  0  0  0  0  0  0
   56.6329   32.2059   52.2305 H   0  0  0  0  0  0  0  0  0  0  0  0
   59.0295   34.9252   49.1607 H   0  0  0  0  0  0  0  0  0  0  0  0
   58.0123   34.8949   46.8853 H   0  0  0  0  0  0  0  0  0  0  0  0
   55.5777   28.6321   44.8431 H   0  0  0  0  0  0  0  0  0  0  0  0
  1  2  1  0
  2  3  2  0
  2  4  2  0
  2  5  1  0
  5  6  2  0
  6  7  1  0
  7  8  2  0
  8  9  1  0
  9 10  1  0
 10 11  1  0
 11 12  1  0
 12 13  1  0
 13 14  2  0
 14 15  1  0
 15 16  2  0
 16 17  1  0
 17 18  2  0
 17 19  1  0
 19 20  1  0
 20 21  2  0
 21 22  1  0
 22 23  2  0
 23 24  1  0
 24 25  2  0
 25 26  1  0
 16 27  1  0
 27 28  2  0
 10 29  2  0
 29 30  1  0
 30 31  2  0
 31  5  1  0
 30  8  1  0
 28 13  1  0
 25 20  1  0
  1 32  1  0
  6 33  1  0
  7 34  1  0
 12 35  1  0
 12 36  1  0
 14 37  1  0
 15 38  1  0
 21 39  1  0
 22 40  1  0
 23 41  1  0
 24 42  1  0
 27 43  1  0
 28 44  1  0
 31 45  1  0
M  CHG  4   1  -1   9  -1  19  -1  26  -1
M  END
>  <UniqueID>  (27) 
25

>  <SMILES>  (27) 
[NH-]S(=O)(=O)c1ccc2[n-]c(SCc3ccc(C(=O)[N-]c4ccccc4[O-])cc3)nc2c1

>  <Energy>  (27) 
88.53282859778577

>  <Genealogy>  (27) 
[NH-]S(=O)(=O)c1ccc2[n-]c(SCc3ccc(C(=O)[N-]c4ccccc4[O-])cc3)nc2c1 (protonated)
[NH-]S(=O)(=O)c1ccc2[n-]c(SCc3ccc(C(=O)[N-]c4ccccc4[O-])cc3)nc2c1 (3D coordinates assigned)
[NH-]S(=O)(=O)c1ccc2[n-]c(SCc3ccc(C(=O)[N-]c4ccccc4[O-])cc3)nc2c1 (optimized conformer: 88.53282859778577 kcal/mol)

>  <smiles>  (27) 
NS(=O)(=O)c1ccc2[nH]c(SCc3ccc(C(=O)Nc4ccccc4O)cc3)nc2c1

>  <score_type>  (27) 
oracle

>  <origin>  (27) 
adg

>  <m_score__min__energy>  (27) 
-17.780000000000001

>  <m_primary>  (27) 
energy

$$$$
27:0
     RDKit          3D

 54 57  0  0  0  0  0  0  0  0999 V2000
   60.6960   28.9100   44.8110 C   0  0  0  0  0  0  0  0  0  0  0  0
   60.5880   29.1830   46.2880 C   0  0  0  0  0  0  0  0  0  0  0  0
   61.3820   30.1870   46.8660 C   0  0  0  0  0  0  0  0  0  0  0  0
   61.3260   30.4520   48.2430 C   0  0  0  0  0  0  0  0  0  0  0  0
   62.1470   31.5030   48.7820 N   0  0  0  0  0  0  0  0  0  0  0  0
   62.9000   31.4010   50.0040 C   0  0  0  0  0  0  0  0  0  0  0  0
   63.3120   30.2880   50.4240 O   0  0  0  0  0  0  0  0  0  0  0  0
   63.1330   32.6290   50.8400 C   0  0  0  0  0  0  0  0  0  0  0  0
   63.6220   33.8080   49.9840 C   0  0  0  0  0  0  0  0  0  0  0  0
   62.5660   34.3050   49.1060 N   0  0  0  0  0  0  0  0  0  0  0  0
   61.1680   34.1960   49.3860 C   0  0  0  0  0  0  0  0  0  0  0  0
   60.7590   34.1960   50.5780 O   0  0  0  0  0  0  0  0  0  0  0  0
   60.1970   34.0980   48.2850 C   0  0  0  0  0  0  0  0  0  0  0  0
   60.3640   34.7290   47.0940 N   0  0  0  0  0  0  0  0  0  0  0  0
   59.2850   34.3380   46.3880 C   0  0  0  0  0  0  0  0  0  0  0  0
   59.0160   34.7100   45.1120 N   0  0  0  0  0  0  0  0  0  0  0  0
   57.8900   34.2280   44.5060 C   0  0  0  0  0  0  0  0  0  0  0  0
   57.0240   33.3590   45.1970 C   0  0  0  0  0  0  0  0  0  0  0  0
   57.3390   32.9970   46.5120 C   0  0  0  0  0  0  0  0  0  0  0  0
   58.4700   33.5090   47.0560 N   0  0  0  0  0  0  0  0  0  0  0  0
   59.0280   33.3370   48.2620 C   0  0  0  0  0  0  0  0  0  0  0  0
   58.3970   32.2730   49.5130 Cl  0  0  0  0  0  0  0  0  0  0  0  0
   60.4980   29.6620   49.0560 C   0  0  0  0  0  0  0  0  0  0  0  0
   59.7030   28.6610   48.4930 C   0  0  0  0  0  0  0  0  0  0  0  0
   59.7390   28.4140   47.1140 C   0  0  0  0  0  0  0  0  0  0  0  0
   58.8810   27.3480   46.5560 C   0  0  0  0  0  0  0  0  0  0  0  0
   59.2090   26.0120   46.8340 C   0  0  0  0  0  0  0  0  0  0  0  0
   58.4340   24.9720   46.3200 C   0  0  0  0  0  0  0  0  0  0  0  0
   57.3290   25.2560   45.5180 C   0  0  0  0  0  0  0  0  0  0  0  0
   56.9940   26.5800   45.2290 C   0  0  0  0  0  0  0  0  0  0  0  0
   57.7560   27.6400   45.7470 C   0  0  0  0  0  0  0  0  0  0  0  0
   57.2970   29.3050   45.3580 S   0  0  0  0  0  0  0  0  0  0  0  0
   55.5910   29.4180   45.0970 N   0  0  0  0  0  0  0  0  0  0  0  0
   57.6640   30.2200   46.4930 O   0  0  0  0  0  0  0  0  0  0  0  0
   58.0110   29.7410   44.1100 O   0  0  0  0  0  0  0  0  0  0  0  0
   61.0965   27.8977   44.6536 H   0  0  0  0  0  0  0  0  0  0  0  0
   59.7000   28.9861   44.3503 H   0  0  0  0  0  0  0  0  0  0  0  0
   61.3704   29.6469   44.3503 H   0  0  0  0  0  0  0  0  0  0  0  0
   62.0588   30.7753   46.2290 H   0  0  0  0  0  0  0  0  0  0  0  0
   61.9770   32.4670   48.4160 H   0  0  0  0  0  0  0  0  0  0  0  0
   62.1903   32.9109   51.3317 H   0  0  0  0  0  0  0  0  0  0  0  0
   63.9088   32.3977   51.5847 H   0  0  0  0  0  0  0  0  0  0  0  0
   63.9470   34.6220   50.6487 H   0  0  0  0  0  0  0  0  0  0  0  0
   64.4558   33.4579   49.3578 H   0  0  0  0  0  0  0  0  0  0  0  0
   57.6586   34.5209   43.4713 H   0  0  0  0  0  0  0  0  0  0  0  0
   56.1159   32.9714   44.7120 H   0  0  0  0  0  0  0  0  0  0  0  0
   56.6897   32.3190   47.0853 H   0  0  0  0  0  0  0  0  0  0  0  0
   60.4751   29.8322   50.1425 H   0  0  0  0  0  0  0  0  0  0  0  0
   59.0432   28.0616   49.1374 H   0  0  0  0  0  0  0  0  0  0  0  0
   60.0831   25.7833   47.4614 H   0  0  0  0  0  0  0  0  0  0  0  0
   58.6946   23.9278   46.5474 H   0  0  0  0  0  0  0  0  0  0  0  0
   56.7200   24.4348   45.1122 H   0  0  0  0  0  0  0  0  0  0  0  0
   56.1251   26.7951   44.5896 H   0  0  0  0  0  0  0  0  0  0  0  0
   55.1480   28.6290   45.6190 H   0  0  0  0  0  0  0  0  0  0  0  0
  1  2  1  0
  2  3  2  0
  3  4  1  0
  4  5  1  0
  5  6  1  0
  6  7  2  0
  6  8  1  0
  8  9  1  0
  9 10  1  0
 10 11  1  0
 11 12  2  0
 11 13  1  0
 13 14  1  0
 14 15  2  0
 15 16  1  0
 16 17  2  0
 17 18  1  0
 18 19  2  0
 19 20  1  0
 20 21  1  0
 21 22  1  0
  4 23  2  0
 23 24  1  0
 24 25  2  0
 25 26  1  0
 26 27  2  0
 27 28  1  0
 28 29  2  0
 29 30  1  0
 30 31  2  0
 31 32  1  0
 32 33  1  0
 32 34  2  0
 32 35  2  0
 25  2  1  0
 31 26  1  0
 21 13  2  0
 20 15  1  0
  1 36  1  0
  1 37  1  0
  1 38  1  0
  3 39  1  0
  5 40  1  0
  8 41  1  0
  8 42  1  0
  9 43  1  0
  9 44  1  0
 17 45  1  0
 18 46  1  0
 19 47  1  0
 23 48  1  0
 24 49  1  0
 27 50  1  0
 28 51  1  0
 29 52  1  0
 30 53  1  0
 33 54  1  0
M  CHG  2  10  -1  33  -1
M  END
>  <UniqueID>  (28) 
26

>  <SMILES>  (28) 
Cc1cc(NC(=O)CC[N-]C(=O)c2nc3ncccn3c2Cl)ccc1-c1ccccc1S([NH-])(=O)=O

>  <Energy>  (28) 
97.85124039651606

>  <Genealogy>  (28) 
Cc1cc(NC(=O)CC[N-]C(=O)c2nc3ncccn3c2Cl)ccc1-c1ccccc1S([NH-])(=O)=O (protonated)
Cc1cc(NC(=O)CC[N-]C(=O)c2nc3ncccn3c2Cl)ccc1-c1ccccc1S([NH-])(=O)=O (3D coordinates assigned)
Cc1cc(NC(=O)CC[N-]C(=O)c2nc3ncccn3c2Cl)ccc1-c1ccccc1S([NH-])(=O)=O (optimized conformer: 97.85124039651606 kcal/mol)

>  <smiles>  (28) 
Cc1cc(NC(=O)CCNC(=O)c2nc3ncccn3c2Cl)ccc1-c1ccccc1S(N)(=O)=O

>  <score_type>  (28) 
oracle

>  <origin>  (28) 
adg

>  <m_score__min__energy>  (28) 
-13.67

>  <m_primary>  (28) 
energy

$$$$
28:0
     RDKit          3D

 49 51  0  0  0  0  0  0  0  0999 V2000
   54.4810   22.4710   47.4580 C   0  0  0  0  0  0  0  0  0  0  0  0
   53.1400   21.9270   46.9770 C   0  0  0  0  0  0  0  0  0  0  0  0
   52.9180   22.2690   45.6090 O   0  0  0  0  0  0  0  0  0  0  0  0
   52.9570   23.5850   45.1300 C   0  0  0  0  0  0  0  0  0  0  0  0
   52.1940   24.4680   45.6080 O   0  0  0  0  0  0  0  0  0  0  0  0
   53.9460   23.9500   44.0710 C   0  0  0  0  0  0  0  0  0  0  0  0
   55.3050   24.2070   44.6870 C   0  0  0  0  0  0  0  0  0  0  0  0
   55.5260   25.2960   45.5680 C   0  0  0  0  0  0  0  0  0  0  0  0
   54.5070   26.1730   45.9500 O   0  0  0  0  0  0  0  0  0  0  0  0
   56.8010   25.5200   46.0940 C   0  0  0  0  0  0  0  0  0  0  0  0
   57.8690   24.6780   45.7880 C   0  0  0  0  0  0  0  0  0  0  0  0
   59.1350   24.9750   46.3020 O   0  0  0  0  0  0  0  0  0  0  0  0
   59.8590   26.1350   45.8990 C   0  0  0  0  0  0  0  0  0  0  0  0
   59.5140   27.2950   46.8020 C   0  0  0  0  0  0  0  0  0  0  0  0
   60.0850   27.3290   48.0870 C   0  0  0  0  0  0  0  0  0  0  0  0
   59.8450   28.4000   48.9480 C   0  0  0  0  0  0  0  0  0  0  0  0
   59.0310   29.4540   48.5390 C   0  0  0  0  0  0  0  0  0  0  0  0
   58.4630   29.4460   47.2630 C   0  0  0  0  0  0  0  0  0  0  0  0
   58.7120   28.3850   46.3720 C   0  0  0  0  0  0  0  0  0  0  0  0
   58.0680   28.4250   45.0030 C   0  0  0  0  0  0  0  0  0  0  0  0
   56.8090   29.2350   45.0330 C   0  0  0  0  0  0  0  0  0  0  0  0
   56.8560   30.4870   44.8960 O   0  0  0  0  0  0  0  0  0  0  0  0
   55.5790   28.6110   45.2090 O   0  0  0  0  0  0  0  0  0  0  0  0
   57.6520   23.5500   44.9730 C   0  0  0  0  0  0  0  0  0  0  0  0
   58.6690   22.6210   44.7050 C   0  0  0  0  0  0  0  0  0  0  0  0
   58.4030   21.5250   43.8900 C   0  0  0  0  0  0  0  0  0  0  0  0
   57.1190   21.3680   43.3660 C   0  0  0  0  0  0  0  0  0  0  0  0
   56.8590   20.3830   42.6270 O   0  0  0  0  0  0  0  0  0  0  0  0
   56.1660   22.2490   43.6450 O   0  0  0  0  0  0  0  0  0  0  0  0
   56.3690   23.3170   44.4190 C   0  0  0  0  0  0  0  0  0  0  0  0
   54.5003   22.4788   48.5578 H   0  0  0  0  0  0  0  0  0  0  0  0
   55.2926   21.8310   47.0816 H   0  0  0  0  0  0  0  0  0  0  0  0
   54.6174   23.4956   47.0816 H   0  0  0  0  0  0  0  0  0  0  0  0
   53.1365   20.8319   47.0805 H   0  0  0  0  0  0  0  0  0  0  0  0
   52.3392   22.3706   47.5868 H   0  0  0  0  0  0  0  0  0  0  0  0
   54.0254   23.1243   43.3486 H   0  0  0  0  0  0  0  0  0  0  0  0
   53.6050   24.8640   43.5628 H   0  0  0  0  0  0  0  0  0  0  0  0
   53.6430   25.8830   46.3880 H   0  0  0  0  0  0  0  0  0  0  0  0
   56.9652   26.3778   46.7628 H   0  0  0  0  0  0  0  0  0  0  0  0
   60.9382   25.9318   45.9623 H   0  0  0  0  0  0  0  0  0  0  0  0
   59.5889   26.3891   44.8634 H   0  0  0  0  0  0  0  0  0  0  0  0
   60.7290   26.5006   48.4172 H   0  0  0  0  0  0  0  0  0  0  0  0
   60.2986   28.4123   49.9501 H   0  0  0  0  0  0  0  0  0  0  0  0
   58.8353   30.2938   49.2220 H   0  0  0  0  0  0  0  0  0  0  0  0
   57.8142   30.2777   46.9510 H   0  0  0  0  0  0  0  0  0  0  0  0
   58.7704   28.8761   44.2867 H   0  0  0  0  0  0  0  0  0  0  0  0
   57.8198   27.3974   44.6991 H   0  0  0  0  0  0  0  0  0  0  0  0
   59.6713   22.7585   45.1369 H   0  0  0  0  0  0  0  0  0  0  0  0
   59.1925   20.7937   43.6622 H   0  0  0  0  0  0  0  0  0  0  0  0
  1  2  1  0
  2  3  1  0
  3  4  1  0
  4  5  2  0
  4  6  1  0
  6  7  1  0
  7  8  2  0
  8  9  1  0
  8 10  1  0
 10 11  2  0
 11 12  1  0
 12 13  1  0
 13 14  1  0
 14 15  2  0
 15 16  1  0
 16 17  2  0
 17 18  1  0
 18 19  2  0
 19 20  1  0
 20 21  1  0
 21 22  2  0
 21 23  1  0
 11 24  1  0
 24 25  1  0
 25 26  2  0
 26 27  1  0
 27 28  2  0
 27 29  1  0
 29 30  1  0
 30  7  1  0
 19 14  1  0
 30 24  2  0
  1 31  1  0
  1 32  1  0
  1 33  1  0
  2 34  1  0
  2 35  1  0
  6 36  1  0
  6 37  1  0
  9 38  1  0
 10 39  1  0
 13 40  1  0
 13 41  1  0
 15 42  1  0
 16 43  1  0
 17 44  1  0
 18 45  1  0
 20 46  1  0
 20 47  1  0
 25 48  1  0
 26 49  1  0
M  CHG  1  23  -1
M  END
>  <UniqueID>  (29) 
27

>  <SMILES>  (29) 
CCOC(=O)Cc1c(O)cc(OCc2ccccc2CC(=O)[O-])c2ccc(=O)oc12

>  <Energy>  (29) 
58.843389818226704

>  <Genealogy>  (29) 
CCOC(=O)Cc1c(O)cc(OCc2ccccc2CC(=O)[O-])c2ccc(=O)oc12 (protonated)
CCOC(=O)Cc1c(O)cc(OCc2ccccc2CC(=O)[O-])c2ccc(=O)oc12 (3D coordinates assigned)
CCOC(=O)Cc1c(O)cc(OCc2ccccc2CC(=O)[O-])c2ccc(=O)oc12 (optimized conformer: 58.843389818226704 kcal/mol)

>  <smiles>  (29) 
CCOC(=O)Cc1c(O)cc(OCc2ccccc2CC(=O)O)c2ccc(=O)oc12

>  <score_type>  (29) 
oracle

>  <origin>  (29) 
adg

>  <m_score__min__energy>  (29) 
-11.199999999999999

>  <m_primary>  (29) 
energy

$$$$
29:0
     RDKit          3D

 55 59  0  0  0  0  0  0  0  0999 V2000
   60.8150   26.8010   49.6750 C   0  0  0  0  0  0  0  0  0  0  0  0
   60.8140   26.5100   48.2810 O   0  0  0  0  0  0  0  0  0  0  0  0
   59.9060   27.0530   47.3590 C   0  0  0  0  0  0  0  0  0  0  0  0
   60.2860   27.1230   46.0140 C   0  0  0  0  0  0  0  0  0  0  0  0
   59.4160   27.6540   45.0570 C   0  0  0  0  0  0  0  0  0  0  0  0
   58.1460   28.1080   45.4290 C   0  0  0  0  0  0  0  0  0  0  0  0
   57.2900   28.6670   44.4210 N   0  0  0  0  0  0  0  0  0  0  0  0
   56.3110   29.6910   44.6210 C   0  0  0  0  0  0  0  0  0  0  0  0
   55.1240   29.3570   44.8740 O   0  0  0  0  0  0  0  0  0  0  0  0
   56.6990   31.0720   44.6450 N   0  0  0  0  0  0  0  0  0  0  0  0
   57.7430   31.6550   45.4360 C   0  0  0  0  0  0  0  0  0  0  0  0
   57.6470   32.9730   45.9500 C   0  0  0  0  0  0  0  0  0  0  0  0
   58.6990   33.5250   46.6990 C   0  0  0  0  0  0  0  0  0  0  0  0
   59.8370   32.7490   46.9110 C   0  0  0  0  0  0  0  0  0  0  0  0
   59.9510   31.4720   46.3970 C   0  0  0  0  0  0  0  0  0  0  0  0
   58.9170   30.9090   45.6490 C   0  0  0  0  0  0  0  0  0  0  0  0
   61.2750   30.8540   46.7460 C   0  0  0  0  0  0  0  0  0  0  0  0
   61.8980   31.9680   47.5340 C   0  0  0  0  0  0  0  0  0  0  0  0
   63.1550   31.9830   48.1410 C   0  0  0  0  0  0  0  0  0  0  0  0
   63.5650   33.1390   48.8330 C   0  0  0  0  0  0  0  0  0  0  0  0
   64.8510   33.1330   49.4690 N   0  0  0  0  0  0  0  0  0  0  0  0
   65.3190   32.1910   50.4400 C   0  0  0  0  0  0  0  0  0  0  0  0
   66.4800   31.7080   50.3550 O   0  0  0  0  0  0  0  0  0  0  0  0
   64.4630   31.8220   51.4850 O   0  0  0  0  0  0  0  0  0  0  0  0
   63.1000   31.5210   51.3500 C   0  0  0  0  0  0  0  0  0  0  0  0
   62.0870   32.4160   51.7460 C   0  0  0  0  0  0  0  0  0  0  0  0
   60.7410   32.0630   51.6030 C   0  0  0  0  0  0  0  0  0  0  0  0
   60.3950   30.8180   51.0750 C   0  0  0  0  0  0  0  0  0  0  0  0
   61.3940   29.9170   50.6970 C   0  0  0  0  0  0  0  0  0  0  0  0
   62.7410   30.2650   50.8400 C   0  0  0  0  0  0  0  0  0  0  0  0
   62.6840   34.2450   48.9330 C   0  0  0  0  0  0  0  0  0  0  0  0
   61.4220   34.2110   48.3180 C   0  0  0  0  0  0  0  0  0  0  0  0
   61.0580   33.0610   47.6210 C   0  0  0  0  0  0  0  0  0  0  0  0
   57.7690   28.0650   46.7820 C   0  0  0  0  0  0  0  0  0  0  0  0
   58.6390   27.5340   47.7400 C   0  0  0  0  0  0  0  0  0  0  0  0
   60.8118   25.8607   50.2459 H   0  0  0  0  0  0  0  0  0  0  0  0
   61.7151   27.3804   49.9280 H   0  0  0  0  0  0  0  0  0  0  0  0
   59.9189   27.3866   49.9280 H   0  0  0  0  0  0  0  0  0  0  0  0
   61.2771   26.7573   45.7073 H   0  0  0  0  0  0  0  0  0  0  0  0
   59.7320   27.7152   44.0051 H   0  0  0  0  0  0  0  0  0  0  0  0
   56.7413   33.5679   45.7606 H   0  0  0  0  0  0  0  0  0  0  0  0
   58.6266   34.5436   47.1078 H   0  0  0  0  0  0  0  0  0  0  0  0
   59.0179   29.8963   45.2316 H   0  0  0  0  0  0  0  0  0  0  0  0
   61.1515   29.9460   47.3545 H   0  0  0  0  0  0  0  0  0  0  0  0
   61.8661   30.5182   45.8812 H   0  0  0  0  0  0  0  0  0  0  0  0
   63.8152   31.1053   48.0797 H   0  0  0  0  0  0  0  0  0  0  0  0
   62.3551   33.3954   52.1689 H   0  0  0  0  0  0  0  0  0  0  0  0
   59.9534   32.7681   51.9073 H   0  0  0  0  0  0  0  0  0  0  0  0
   59.3357   30.5461   50.9565 H   0  0  0  0  0  0  0  0  0  0  0  0
   61.1208   28.9336   50.2868 H   0  0  0  0  0  0  0  0  0  0  0  0
   63.5240   29.5487   50.5505 H   0  0  0  0  0  0  0  0  0  0  0  0
   62.9916   35.1377   49.4973 H   0  0  0  0  0  0  0  0  0  0  0  0
   60.7385   35.0703   48.3849 H   0  0  0  0  0  0  0  0  0  0  0  0
   56.7856   28.4505   47.0891 H   0  0  0  0  0  0  0  0  0  0  0  0
   58.3319   27.4921   48.7954 H   0  0  0  0  0  0  0  0  0  0  0  0
  1  2  1  0
  2  3  1  0
  3  4  2  0
  4  5  1  0
  5  6  2  0
  6  7  1  0
  7  8  1  0
  8  9  2  0
  8 10  1  0
 10 11  1  0
 11 12  2  0
 12 13  1  0
 13 14  2  0
 14 15  1  0
 15 16  2  0
 15 17  1  0
 17 18  1  0
 18 19  2  0
 19 20  1  0
 20 21  1  0
 21 22  1  0
 22 23  2  0
 22 24  1  0
 24 25  1  0
 25 26  2  0
 26 27  1  0
 27 28  2  0
 28 29  1  0
 29 30  2  0
 20 31  2  0
 31 32  1  0
 32 33  2  0
  6 34  1  0
 34 35  2  0
 35  3  1  0
 16 11  1  0
 33 18  1  0
 33 14  1  0
 30 25  1  0
  1 36  1  0
  1 37  1  0
  1 38  1  0
  4 39  1  0
  5 40  1  0
 12 41  1  0
 13 42  1  0
 16 43  1  0
 17 44  1  0
 17 45  1  0
 19 46  1  0
 26 47  1  0
 27 48  1  0
 28 49  1  0
 29 50  1  0
 30 51  1  0
 31 52  1  0
 32 53  1  0
 34 54  1  0
 35 55  1  0
M  CHG  3   7  -1  10  -1  21  -1
M  END
>  <UniqueID>  (30) 
28

>  <SMILES>  (30) 
COc1ccc([N-]C(=O)[N-]c2ccc3c(c2)Cc2cc([N-]C(=O)Oc4ccccc4)ccc2-3)cc1

>  <Energy>  (30) 
97.93483739849239

>  <Genealogy>  (30) 
COc1ccc([N-]C(=O)[N-]c2ccc3c(c2)Cc2cc([N-]C(=O)Oc4ccccc4)ccc2-3)cc1 (protonated)
COc1ccc([N-]C(=O)[N-]c2ccc3c(c2)Cc2cc([N-]C(=O)Oc4ccccc4)ccc2-3)cc1 (3D coordinates assigned)
COc1ccc([N-]C(=O)[N-]c2ccc3c(c2)Cc2cc([N-]C(=O)Oc4ccccc4)ccc2-3)cc1 (nonaromatic ring conformer: 97.93483739849239 kcal/mol)

>  <smiles>  (30) 
COc1ccc(NC(=O)Nc2ccc3c(c2)Cc2cc(NC(=O)Oc4ccccc4)ccc2-3)cc1

>  <score_type>  (30) 
oracle

>  <origin>  (30) 
adg

>  <m_score__min__energy>  (30) 
-12.550000000000001

>  <m_primary>  (30) 
energy

$$$$
30:0
     RDKit          3D

 44 46  0  0  0  0  0  0  0  0999 V2000
   55.6202   29.2842   44.1808 H   0  0  0  0  0  0  0  0  0  0  0  0
   56.4200   29.8800   44.6450 C   0  0  0  0  0  0  0  0  0  0  0  0
   56.4160   31.2250   44.5240 N   0  0  0  0  0  0  0  0  0  0  0  0
   57.3650   32.0040   45.1020 C   0  0  0  0  0  0  0  0  0  0  0  0
   57.2760   33.3900   44.9400 C   0  0  0  0  0  0  0  0  0  0  0  0
   56.4696   33.8167   44.3255 H   0  0  0  0  0  0  0  0  0  0  0  0
   58.1980   34.2330   45.5490 C   0  0  0  0  0  0  0  0  0  0  0  0
   58.1308   35.3206   45.3986 H   0  0  0  0  0  0  0  0  0  0  0  0
   59.2140   33.6990   46.3550 C   0  0  0  0  0  0  0  0  0  0  0  0
   60.1450   34.5120   47.0220 O   0  0  0  0  0  0  0  0  0  0  0  0
   60.6760   34.2350   48.3140 C   0  0  0  0  0  0  0  0  0  0  0  0
   59.9785   34.5989   49.0828 H   0  0  0  0  0  0  0  0  0  0  0  0
   60.8144   33.1498   48.4286 H   0  0  0  0  0  0  0  0  0  0  0  0
   61.6452   34.7424   48.4286 H   0  0  0  0  0  0  0  0  0  0  0  0
   59.3100   32.3110   46.5170 C   0  0  0  0  0  0  0  0  0  0  0  0
   60.0985   31.9006   47.1650 H   0  0  0  0  0  0  0  0  0  0  0  0
   58.4180   31.4220   45.8680 C   0  0  0  0  0  0  0  0  0  0  0  0
   58.4650   29.9850   45.9510 C   0  0  0  0  0  0  0  0  0  0  0  0
   59.4180   29.2670   46.4880 N   0  0  0  0  0  0  0  0  0  0  0  0
   60.6690   28.7260   45.9660 C   0  0  0  0  0  0  0  0  0  0  0  0
   60.8097   29.0627   44.9283 H   0  0  0  0  0  0  0  0  0  0  0  0
   61.5081   29.0804   46.5826 H   0  0  0  0  0  0  0  0  0  0  0  0
   60.6170   27.1980   46.0040 C   0  0  0  0  0  0  0  0  0  0  0  0
   61.2758   26.7957   45.2204 H   0  0  0  0  0  0  0  0  0  0  0  0
   60.9493   26.8597   46.9965 H   0  0  0  0  0  0  0  0  0  0  0  0
   59.2540   26.7160   45.7780 N   0  0  0  0  0  0  0  0  0  0  0  0
   58.4960   27.4270   45.6760 H   0  0  0  0  0  0  0  0  0  0  0  0
   58.9260   25.3180   45.7420 C   0  0  0  0  0  0  0  0  0  0  0  0
   59.8130   24.4600   46.0050 O   0  0  0  0  0  0  0  0  0  0  0  0
   57.5560   24.8770   45.4010 C   0  0  0  0  0  0  0  0  0  0  0  0
   56.4880   25.5930   45.8360 N   0  0  0  0  0  0  0  0  0  0  0  0
   55.2130   25.2310   45.5410 C   0  0  0  0  0  0  0  0  0  0  0  0
   54.2630   25.9290   45.9900 O   0  0  0  0  0  0  0  0  0  0  0  0
   54.9680   24.1230   44.7700 N   0  0  0  0  0  0  0  0  0  0  0  0
   53.5850   23.7130   44.4770 C   0  0  0  0  0  0  0  0  0  0  0  0
   53.0426   23.5522   45.4204 H   0  0  0  0  0  0  0  0  0  0  0  0
   53.0842   24.5013   43.8958 H   0  0  0  0  0  0  0  0  0  0  0  0
   53.5947   22.7791   43.8958 H   0  0  0  0  0  0  0  0  0  0  0  0
   56.0220   23.3570   44.3370 C   0  0  0  0  0  0  0  0  0  0  0  0
   55.8230   22.3070   43.6660 O   0  0  0  0  0  0  0  0  0  0  0  0
   57.3330   23.7270   44.6370 C   0  0  0  0  0  0  0  0  0  0  0  0
   58.1793   23.1230   44.2779 H   0  0  0  0  0  0  0  0  0  0  0  0
   57.4330   29.2480   45.3550 C   0  0  0  0  0  0  0  0  0  0  0  0
   57.4249   28.1522   45.4508 H   0  0  0  0  0  0  0  0  0  0  0  0
  1  2  1  0
  2  3  1  0
  3  4  1  0
  4  5  2  0
  5  6  1  0
  5  7  1  0
  7  8  1  0
  7  9  2  0
  9 10  1  0
 10 11  1  0
 11 12  1  0
 11 13  1  0
 11 14  1  0
  9 15  1  0
 15 16  1  0
 15 17  2  0
 17 18  1  0
 18 19  2  0
 19 20  1  0
 20 21  1  0
 20 22  1  0
 20 23  1  0
 23 24  1  0
 23 25  1  0
 23 26  1  0
 26 27  1  0
 26 28  1  0
 28 29  2  0
 28 30  1  0
 30 31  1  0
 31 32  1  0
 32 33  2  0
 32 34  1  0
 34 35  1  0
 35 36  1  0
 35 37  1  0
 35 38  1  0
 34 39  1  0
 39 40  2  0
 39 41  1  0
 41 42  1  0
 18 43  1  0
 43 44  1  0
 43  2  2  0
 17  4  1  0
 41 30  2  0
M  CHG  2   3  -1  31  -1
M  END
>  <UniqueID>  (31) 
29

>  <SMILES>  (31) 
COc1ccc2[n-]cc/c(=N/CCNC(=O)c3cc(=O)n(C)c(=O)[n-]3)c2c1

>  <Energy>  (31) 
63.84218982234455

>  <Genealogy>  (31) 
COc1ccc2[n-]ccc(=NCCNC(=O)c3cc(=O)n(C)c(=O)[n-]3)c2c1 (protonated)
COc1ccc2[n-]cc/c(=N/CCNC(=O)c3cc(=O)n(C)c(=O)[n-]3)c2c1 (cis-trans isomerization)
COc1ccc2[n-]cc/c(=N/CCNC(=O)c3cc(=O)n(C)c(=O)[n-]3)c2c1 (3D coordinates assigned)
COc1ccc2[n-]cc/c(=N/CCNC(=O)c3cc(=O)n(C)c(=O)[n-]3)c2c1 (optimized conformer: 63.84218982234455 kcal/mol)

>  <smiles>  (31) 
COc1ccc2[nH]ccc(=NCCNC(=O)c3cc(=O)n(C)c(=O)[nH]3)c2c1

>  <score_type>  (31) 
oracle

>  <origin>  (31) 
adg

>  <m_score__min__energy>  (31) 
-10.4

>  <m_primary>  (31) 
energy

$$$$
31:0
     RDKit          3D

 50 53  0  0  0  0  0  0  0  0999 V2000
   57.7490   23.0660   48.2580 H   0  0  0  0  0  0  0  0  0  0  0  0
   57.3860   22.4020   47.5370 N   0  0  0  0  0  0  0  0  0  0  0  0
   57.6960   23.1150   45.9940 S   0  0  0  0  0  0  0  0  0  0  0  0
   59.1750   23.1530   45.7350 O   0  0  0  0  0  0  0  0  0  0  0  0
   57.0280   22.2950   44.9260 O   0  0  0  0  0  0  0  0  0  0  0  0
   57.0590   24.7460   45.9690 C   0  0  0  0  0  0  0  0  0  0  0  0
   55.8110   25.0620   46.3790 N   0  0  0  0  0  0  0  0  0  0  0  0
   55.5380   26.3620   46.2740 N   0  0  0  0  0  0  0  0  0  0  0  0
   56.5670   27.0810   45.7810 C   0  0  0  0  0  0  0  0  0  0  0  0
   56.4960   28.3640   45.6030 N   0  0  0  0  0  0  0  0  0  0  0  0
   57.8700   29.4210   45.5530 S   0  0  0  0  0  0  0  0  0  0  0  0
   58.7950   28.9790   44.4560 O   0  0  0  0  0  0  0  0  0  0  0  0
   57.4060   30.8220   45.2610 O   0  0  0  0  0  0  0  0  0  0  0  0
   58.7320   29.3530   47.0880 C   0  0  0  0  0  0  0  0  0  0  0  0
   58.6820   30.4270   47.9870 C   0  0  0  0  0  0  0  0  0  0  0  0
   58.1076   31.3296   47.7313 H   0  0  0  0  0  0  0  0  0  0  0  0
   59.3600   30.3550   49.2080 C   0  0  0  0  0  0  0  0  0  0  0  0
   59.3238   31.2043   49.9062 H   0  0  0  0  0  0  0  0  0  0  0  0
   60.0880   29.2000   49.5460 C   0  0  0  0  0  0  0  0  0  0  0  0
   60.8200   29.0960   50.7750 N   0  0  0  0  0  0  0  0  0  0  0  0
   62.0890   29.6950   51.0660 C   0  0  0  0  0  0  0  0  0  0  0  0
   63.1570   29.0380   50.9460 O   0  0  0  0  0  0  0  0  0  0  0  0
   62.1460   31.1390   51.4530 C   0  0  0  0  0  0  0  0  0  0  0  0
   61.1650   31.4511   51.8406 H   0  0  0  0  0  0  0  0  0  0  0  0
   62.9143   31.2746   52.2285 H   0  0  0  0  0  0  0  0  0  0  0  0
   62.4900   31.9580   50.2870 N   0  0  0  0  0  0  0  0  0  0  0  0
   61.5050   32.3350   49.4660 N   0  0  0  0  0  0  0  0  0  0  0  0
   61.7270   33.0580   48.3340 C   0  0  0  0  0  0  0  0  0  0  0  0
   60.5780   33.4410   47.4770 C   0  0  0  0  0  0  0  0  0  0  0  0
   60.7510   33.7540   46.1140 C   0  0  0  0  0  0  0  0  0  0  0  0
   61.7576   33.7267   45.6713 H   0  0  0  0  0  0  0  0  0  0  0  0
   59.6530   34.0990   45.3200 C   0  0  0  0  0  0  0  0  0  0  0  0
   59.7994   34.3449   44.2579 H   0  0  0  0  0  0  0  0  0  0  0  0
   58.3700   34.1320   45.8730 C   0  0  0  0  0  0  0  0  0  0  0  0
   56.9940   34.5630   44.8740 Cl  0  0  0  0  0  0  0  0  0  0  0  0
   58.1830   33.8130   47.2210 C   0  0  0  0  0  0  0  0  0  0  0  0
   57.1728   33.8351   47.6558 H   0  0  0  0  0  0  0  0  0  0  0  0
   59.2780   33.4660   48.0170 C   0  0  0  0  0  0  0  0  0  0  0  0
   59.1227   33.2100   49.0755 H   0  0  0  0  0  0  0  0  0  0  0  0
   63.0420   33.4270   48.0230 C   0  0  0  0  0  0  0  0  0  0  0  0
   63.2533   34.0228   47.1228 H   0  0  0  0  0  0  0  0  0  0  0  0
   64.0780   33.0330   48.8630 C   0  0  0  0  0  0  0  0  0  0  0  0
   65.1166   33.3102   48.6297 H   0  0  0  0  0  0  0  0  0  0  0  0
   63.7900   32.2840   50.0030 C   0  0  0  0  0  0  0  0  0  0  0  0
   64.7290   31.9140   50.7580 O   0  0  0  0  0  0  0  0  0  0  0  0
   60.1550   28.1410   48.6330 C   0  0  0  0  0  0  0  0  0  0  0  0
   60.7473   27.2466   48.8765 H   0  0  0  0  0  0  0  0  0  0  0  0
   59.4750   28.2120   47.4150 C   0  0  0  0  0  0  0  0  0  0  0  0
   59.5233   27.3688   46.7103 H   0  0  0  0  0  0  0  0  0  0  0  0
   57.9060   26.1030   45.4430 S   0  0  0  0  0  0  0  0  0  0  0  0
  1  2  1  0
  2  3  1  0
  3  4  2  0
  3  5  2  0
  3  6  1  0
  6  7  2  0
  7  8  1  0
  8  9  1  0
  9 10  2  0
 10 11  1  0
 11 12  2  0
 11 13  2  0
 11 14  1  0
 14 15  2  0
 15 16  1  0
 15 17  1  0
 17 18  1  0
 17 19  2  0
 19 20  1  0
 20 21  1  0
 21 22  2  0
 21 23  1  0
 23 24  1  0
 23 25  1  0
 23 26  1  0
 26 27  1  0
 27 28  2  0
 28 29  1  0
 29 30  2  0
 30 31  1  0
 30 32  1  0
 32 33  1  0
 32 34  2  0
 34 35  1  0
 34 36  1  0
 36 37  1  0
 36 38  2  0
 38 39  1  0
 28 40  1  0
 40 41  1  0
 40 42  2  0
 42 43  1  0
 42 44  1  0
 44 45  2  0
 19 46  1  0
 46 47  1  0
 46 48  2  0
 48 49  1  0
  9 50  1  0
 50  6  1  0
 48 14  1  0
 44 26  1  0
 38 29  1  0
M  CHG  3   2  -1   8  -1  20  -1
M  END
>  <UniqueID>  (32) 
30

>  <SMILES>  (32) 
[NH-]S(=O)(=O)c1n[n-]/c(=N/S(=O)(=O)c2ccc([N-]C(=O)Cn3nc(-c4ccc(Cl)cc4)ccc3=O)cc2)s1

>  <Energy>  (32) 
99.41140918454919

>  <Genealogy>  (32) 
[NH-]S(=O)(=O)c1n[n-]c(=NS(=O)(=O)c2ccc([N-]C(=O)Cn3nc(-c4ccc(Cl)cc4)ccc3=O)cc2)s1 (protonated)
[NH-]S(=O)(=O)c1n[n-]/c(=N/S(=O)(=O)c2ccc([N-]C(=O)Cn3nc(-c4ccc(Cl)cc4)ccc3=O)cc2)s1 (cis-trans isomerization)
[NH-]S(=O)(=O)c1n[n-]/c(=N/S(=O)(=O)c2ccc([N-]C(=O)Cn3nc(-c4ccc(Cl)cc4)ccc3=O)cc2)s1 (3D coordinates assigned)
[NH-]S(=O)(=O)c1n[n-]/c(=N/S(=O)(=O)c2ccc([N-]C(=O)Cn3nc(-c4ccc(Cl)cc4)ccc3=O)cc2)s1 (optimized conformer: 99.41140918454919 kcal/mol)

>  <smiles>  (32) 
NS(=O)(=O)c1n[nH]c(=NS(=O)(=O)c2ccc(NC(=O)Cn3nc(-c4ccc(Cl)cc4)ccc3=O)cc2)s1

>  <score_type>  (32) 
oracle

>  <origin>  (32) 
adg

>  <m_score__min__energy>  (32) 
-15.31

>  <m_primary>  (32) 
energy

$$$$
32:0
     RDKit          3D

 33 34  0  0  0  0  0  0  0  0999 V2000
   57.4910   31.2720   46.0000 O   0  0  0  0  0  0  0  0  0  0  0  0
   57.3450   31.5130   44.7710 C   0  0  0  0  0  0  0  0  0  0  0  0
   56.7630   30.4700   43.8740 C   0  0  0  0  0  0  0  0  0  0  0  0
   55.9790   29.1430   44.8520 S   0  0  0  0  0  0  0  0  0  0  0  0
   57.5270   28.3350   45.2860 C   0  0  0  0  0  0  0  0  0  0  0  0
   58.6810   28.9630   44.9270 N   0  0  0  0  0  0  0  0  0  0  0  0
   59.9040   28.4220   45.1550 C   0  0  0  0  0  0  0  0  0  0  0  0
   60.0120   27.1790   45.7710 C   0  0  0  0  0  0  0  0  0  0  0  0
   58.8540   26.5070   46.1580 C   0  0  0  0  0  0  0  0  0  0  0  0
   57.5860   27.0750   45.9350 C   0  0  0  0  0  0  0  0  0  0  0  0
   56.3790   26.3330   46.3810 C   0  0  0  0  0  0  0  0  0  0  0  0
   56.4910   25.3630   47.1770 O   0  0  0  0  0  0  0  0  0  0  0  0
   55.1070   26.7080   45.9660 O   0  0  0  0  0  0  0  0  0  0  0  0
   57.7750   32.7630   44.2190 N   0  0  0  0  0  0  0  0  0  0  0  0
   57.7530   34.0210   44.9530 C   0  0  0  0  0  0  0  0  0  0  0  0
   58.8460   34.0450   45.9850 C   0  0  0  0  0  0  0  0  0  0  0  0
   58.5250   34.1910   47.3450 C   0  0  0  0  0  0  0  0  0  0  0  0
   59.5350   34.1930   48.3110 C   0  0  0  0  0  0  0  0  0  0  0  0
   60.8720   34.0440   47.9290 C   0  0  0  0  0  0  0  0  0  0  0  0
   62.1390   34.0440   49.1430 Cl  0  0  0  0  0  0  0  0  0  0  0  0
   61.1980   33.8920   46.5770 C   0  0  0  0  0  0  0  0  0  0  0  0
   60.1900   33.8900   45.6080 C   0  0  0  0  0  0  0  0  0  0  0  0
   56.0070   30.9340   43.2235 H   0  0  0  0  0  0  0  0  0  0  0  0
   57.5709   30.0332   43.2686 H   0  0  0  0  0  0  0  0  0  0  0  0
   60.8108   28.9663   44.8527 H   0  0  0  0  0  0  0  0  0  0  0  0
   61.0007   26.7316   45.9506 H   0  0  0  0  0  0  0  0  0  0  0  0
   58.9320   25.5226   46.6427 H   0  0  0  0  0  0  0  0  0  0  0  0
   57.9004   34.8537   44.2495 H   0  0  0  0  0  0  0  0  0  0  0  0
   56.7818   34.1215   45.4596 H   0  0  0  0  0  0  0  0  0  0  0  0
   57.4744   34.3042   47.6507 H   0  0  0  0  0  0  0  0  0  0  0  0
   59.2778   34.3120   49.3739 H   0  0  0  0  0  0  0  0  0  0  0  0
   62.2493   33.7738   46.2757 H   0  0  0  0  0  0  0  0  0  0  0  0
   60.4506   33.7666   44.5465 H   0  0  0  0  0  0  0  0  0  0  0  0
  1  2  2  0
  2  3  1  0
  3  4  1  0
  4  5  1  0
  5  6  2  0
  6  7  1  0
  7  8  2  0
  8  9  1  0
  9 10  2  0
 10 11  1  0
 11 12  2  0
 11 13  1  0
  2 14  1  0
 14 15  1  0
 15 16  1  0
 16 17  2  0
 17 18  1  0
 18 19  2  0
 19 20  1  0
 19 21  1  0
 21 22  2  0
 10  5  1  0
 22 16  1  0
  3 23  1  0
  3 24  1  0
  7 25  1  0
  8 26  1  0
  9 27  1  0
 15 28  1  0
 15 29  1  0
 17 30  1  0
 18 31  1  0
 21 32  1  0
 22 33  1  0
M  CHG  2  13  -1  14  -1
M  END
>  <UniqueID>  (33) 
31

>  <SMILES>  (33) 
O=C(CSc1ncccc1C(=O)[O-])[N-]Cc1ccc(Cl)cc1

>  <Energy>  (33) 
30.889174725028653

>  <Genealogy>  (33) 
O=C(CSc1ncccc1C(=O)[O-])[N-]Cc1ccc(Cl)cc1 (protonated)
O=C(CSc1ncccc1C(=O)[O-])[N-]Cc1ccc(Cl)cc1 (3D coordinates assigned)
O=C(CSc1ncccc1C(=O)[O-])[N-]Cc1ccc(Cl)cc1 (optimized conformer: 30.889174725028653 kcal/mol)

>  <smiles>  (33) 
O=C(CSc1ncccc1C(=O)O)NCc1ccc(Cl)cc1

>  <score_type>  (33) 
oracle

>  <origin>  (33) 
adg

>  <m_score__min__energy>  (33) 
-12.1

>  <m_primary>  (33) 
energy

$$$$
33:0
     RDKit          3D

 28 29  0  0  0  0  0  0  0  0999 V2000
   53.6930   25.9650   46.3680 H   0  0  0  0  0  0  0  0  0  0  0  0
   54.5180   26.3370   45.9130 O   0  0  0  0  0  0  0  0  0  0  0  0
   55.8070   25.9290   46.2540 C   0  0  0  0  0  0  0  0  0  0  0  0
   55.9910   24.6730   46.7350 N   0  0  0  0  0  0  0  0  0  0  0  0
   57.2240   24.2220   47.0760 C   0  0  0  0  0  0  0  0  0  0  0  0
   57.3640   23.0550   47.5260 O   0  0  0  0  0  0  0  0  0  0  0  0
   58.3070   25.0240   46.9220 N   0  0  0  0  0  0  0  0  0  0  0  0
   58.1840   26.2890   46.4440 C   0  0  0  0  0  0  0  0  0  0  0  0
   59.2220   26.9800   46.2710 O   0  0  0  0  0  0  0  0  0  0  0  0
   56.9070   26.7930   46.1160 C   0  0  0  0  0  0  0  0  0  0  0  0
   56.7030   28.1190   45.5930 N   0  0  0  0  0  0  0  0  0  0  0  0
   57.4190   28.6820   44.6670 C   0  0  0  0  0  0  0  0  0  0  0  0
   57.8859   28.0610   43.8883 H   0  0  0  0  0  0  0  0  0  0  0  0
   57.6140   30.1470   44.6470 C   0  0  0  0  0  0  0  0  0  0  0  0
   57.5580   30.8310   43.4240 C   0  0  0  0  0  0  0  0  0  0  0  0
   57.3702   30.2739   42.4943 H   0  0  0  0  0  0  0  0  0  0  0  0
   57.7390   32.2140   43.3790 C   0  0  0  0  0  0  0  0  0  0  0  0
   57.6933   32.7415   42.4148 H   0  0  0  0  0  0  0  0  0  0  0  0
   57.9780   32.9310   44.5540 C   0  0  0  0  0  0  0  0  0  0  0  0
   58.1570   34.3080   44.4940 O   0  0  0  0  0  0  0  0  0  0  0  0
   58.0390   32.2690   45.7880 C   0  0  0  0  0  0  0  0  0  0  0  0
   58.2820   33.0270   46.9440 O   0  0  0  0  0  0  0  0  0  0  0  0
   59.3690   33.9330   47.1000 C   0  0  0  0  0  0  0  0  0  0  0  0
   59.5617   34.0936   48.1710 H   0  0  0  0  0  0  0  0  0  0  0  0
   60.2677   33.5128   46.6248 H   0  0  0  0  0  0  0  0  0  0  0  0
   59.1176   34.8926   46.6248 H   0  0  0  0  0  0  0  0  0  0  0  0
   57.8550   30.8710   45.8290 C   0  0  0  0  0  0  0  0  0  0  0  0
   57.9003   30.3427   46.7928 H   0  0  0  0  0  0  0  0  0  0  0  0
  1  2  1  0
  2  3  1  0
  3  4  1  0
  4  5  1  0
  5  6  2  0
  5  7  1  0
  7  8  1  0
  8  9  2  0
  8 10  1  0
 10 11  1  0
 11 12  2  0
 12 13  1  0
 12 14  1  0
 14 15  2  0
 15 16  1  0
 15 17  1  0
 17 18  1  0
 17 19  2  0
 19 20  1  0
 19 21  1  0
 21 22  1  0
 22 23  1  0
 23 24  1  0
 23 25  1  0
 23 26  1  0
 21 27  2  0
 27 28  1  0
 10  3  2  0
 27 14  1  0
M  CHG  3   4  -1   7  -1  20  -1
M  END
>  <UniqueID>  (34) 
32

>  <SMILES>  (34) 
COc1cc(/C=N/c2c(O)[n-]c(=O)[n-]c2=O)ccc1[O-]

>  <Energy>  (34) 
35.23120720157156

>  <Genealogy>  (34) 
COc1cc(C=Nc2c(O)[n-]c(=O)[n-]c2=O)ccc1[O-] (protonated)
COc1cc(/C=N/c2c(O)[n-]c(=O)[n-]c2=O)ccc1[O-] (cis-trans isomerization)
COc1cc(/C=N/c2c(O)[n-]c(=O)[n-]c2=O)ccc1[O-] (3D coordinates assigned)
COc1cc(/C=N/c2c(O)[n-]c(=O)[n-]c2=O)ccc1[O-] (optimized conformer: 35.23120720157156 kcal/mol)

>  <smiles>  (34) 
COc1cc(C=Nc2c(O)[nH]c(=O)[nH]c2=O)ccc1O

>  <score_type>  (34) 
oracle

>  <origin>  (34) 
adg

>  <m_score__min__energy>  (34) 
-11.84

>  <m_primary>  (34) 
energy

$$$$
34:0
     RDKit          3D

 42 44  0  0  0  0  0  0  0  0999 V2000
   59.7950   35.1120   46.7020 O   0  0  0  0  0  0  0  0  0  0  0  0
   59.5610   33.9690   47.1850 C   0  0  0  0  0  0  0  0  0  0  0  0
   60.0300   33.6480   48.5060 N   0  0  0  0  0  0  0  0  0  0  0  0
   60.8190   34.5810   49.3050 C   0  0  0  0  0  0  0  0  0  0  0  0
   62.2360   34.0980   49.3930 C   0  0  0  0  0  0  0  0  0  0  0  0
   62.8830   33.5540   48.2720 C   0  0  0  0  0  0  0  0  0  0  0  0
   64.1850   33.0660   48.4020 C   0  0  0  0  0  0  0  0  0  0  0  0
   64.8260   33.1160   49.6430 C   0  0  0  0  0  0  0  0  0  0  0  0
   64.1480   33.6550   50.7400 C   0  0  0  0  0  0  0  0  0  0  0  0
   62.8790   34.1240   50.5940 N   0  0  0  0  0  0  0  0  0  0  0  0
   58.8230   32.9760   46.3630 C   0  0  0  0  0  0  0  0  0  0  0  0
   58.8910   31.6080   46.6880 C   0  0  0  0  0  0  0  0  0  0  0  0
   58.1920   30.6610   45.9330 C   0  0  0  0  0  0  0  0  0  0  0  0
   57.4160   31.0660   44.8410 C   0  0  0  0  0  0  0  0  0  0  0  0
   56.5120   29.8830   43.8990 S   0  0  0  0  0  0  0  0  0  0  0  0
   56.2730   30.3740   42.4980 O   0  0  0  0  0  0  0  0  0  0  0  0
   55.1860   29.6570   44.5680 O   0  0  0  0  0  0  0  0  0  0  0  0
   57.3760   28.3800   43.8410 N   0  0  0  0  0  0  0  0  0  0  0  0
   57.7970   27.5800   44.9600 C   0  0  0  0  0  0  0  0  0  0  0  0
   59.1770   27.4380   45.1750 C   0  0  0  0  0  0  0  0  0  0  0  0
   59.6560   26.6640   46.2370 C   0  0  0  0  0  0  0  0  0  0  0  0
   58.7600   26.0200   47.0930 C   0  0  0  0  0  0  0  0  0  0  0  0
   57.3850   26.1630   46.8980 C   0  0  0  0  0  0  0  0  0  0  0  0
   56.8960   26.9470   45.8460 C   0  0  0  0  0  0  0  0  0  0  0  0
   55.5540   27.0910   45.7260 F   0  0  0  0  0  0  0  0  0  0  0  0
   57.3610   32.4210   44.4950 C   0  0  0  0  0  0  0  0  0  0  0  0
   58.0620   33.3690   45.2450 C   0  0  0  0  0  0  0  0  0  0  0  0
   59.9870   32.6600   48.8450 H   0  0  0  0  0  0  0  0  0  0  0  0
   60.7999   35.5741   48.8324 H   0  0  0  0  0  0  0  0  0  0  0  0
   60.3925   34.6453   50.3169 H   0  0  0  0  0  0  0  0  0  0  0  0
   62.3691   33.5126   47.3003 H   0  0  0  0  0  0  0  0  0  0  0  0
   64.7049   32.6432   47.5297 H   0  0  0  0  0  0  0  0  0  0  0  0
   65.8520   32.7356   49.7551 H   0  0  0  0  0  0  0  0  0  0  0  0
   64.6408   33.7001   51.7224 H   0  0  0  0  0  0  0  0  0  0  0  0
   59.4997   31.2809   47.5439 H   0  0  0  0  0  0  0  0  0  0  0  0
   58.2522   29.5951   46.1980 H   0  0  0  0  0  0  0  0  0  0  0  0
   59.8880   27.9399   44.5022 H   0  0  0  0  0  0  0  0  0  0  0  0
   60.7394   26.5625   46.3981 H   0  0  0  0  0  0  0  0  0  0  0  0
   59.1373   25.4007   47.9201 H   0  0  0  0  0  0  0  0  0  0  0  0
   56.6814   25.6566   47.5751 H   0  0  0  0  0  0  0  0  0  0  0  0
   56.7633   32.7411   43.6288 H   0  0  0  0  0  0  0  0  0  0  0  0
   58.0191   34.4306   44.9599 H   0  0  0  0  0  0  0  0  0  0  0  0
  1  2  2  0
  2  3  1  0
  3  4  1  0
  4  5  1  0
  5  6  2  0
  6  7  1  0
  7  8  2  0
  8  9  1  0
  9 10  2  0
  2 11  1  0
 11 12  2  0
 12 13  1  0
 13 14  2  0
 14 15  1  0
 15 16  2  0
 15 17  2  0
 15 18  1  0
 18 19  1  0
 19 20  2  0
 20 21  1  0
 21 22  2  0
 22 23  1  0
 23 24  2  0
 24 25  1  0
 14 26  1  0
 26 27  2  0
 10  5  1  0
 27 11  1  0
 24 19  1  0
  3 28  1  0
  4 29  1  0
  4 30  1  0
  6 31  1  0
  7 32  1  0
  8 33  1  0
  9 34  1  0
 12 35  1  0
 13 36  1  0
 20 37  1  0
 21 38  1  0
 22 39  1  0
 23 40  1  0
 26 41  1  0
 27 42  1  0
M  CHG  1  18  -1
M  END
>  <UniqueID>  (35) 
33

>  <SMILES>  (35) 
O=C(NCc1ccccn1)c1ccc(S(=O)(=O)[N-]c2ccccc2F)cc1

>  <Energy>  (35) 
51.449923453109065

>  <Genealogy>  (35) 
O=C(NCc1ccccn1)c1ccc(S(=O)(=O)[N-]c2ccccc2F)cc1 (protonated)
O=C(NCc1ccccn1)c1ccc(S(=O)(=O)[N-]c2ccccc2F)cc1 (3D coordinates assigned)
O=C(NCc1ccccn1)c1ccc(S(=O)(=O)[N-]c2ccccc2F)cc1 (optimized conformer: 51.449923453109065 kcal/mol)

>  <smiles>  (35) 
O=C(NCc1ccccn1)c1ccc(S(=O)(=O)Nc2ccccc2F)cc1

>  <score_type>  (35) 
oracle

>  <origin>  (35) 
adg

>  <m_score__min__energy>  (35) 
-9.9499999999999993

>  <m_primary>  (35) 
energy

$$$$
35:0
     RDKit          3D

 44 47  0  0  0  0  0  0  0  0999 V2000
   60.4008   31.4972   48.0242 H   0  0  0  0  0  0  0  0  0  0  0  0
   59.3990   31.8980   48.2380 C   0  0  0  0  0  0  0  0  0  0  0  0
   58.9680   31.9550   49.6470 C   0  0  0  0  0  0  0  0  0  0  0  0
   58.2090   30.8860   50.1470 C   0  0  0  0  0  0  0  0  0  0  0  0
   57.9963   30.0224   49.4997 H   0  0  0  0  0  0  0  0  0  0  0  0
   57.7190   30.9030   51.4570 C   0  0  0  0  0  0  0  0  0  0  0  0
   56.9570   29.8110   51.8970 O   0  0  0  0  0  0  0  0  0  0  0  0
   55.8150   29.9170   52.7420 C   0  0  0  0  0  0  0  0  0  0  0  0
   56.1336   29.8874   53.7944 H   0  0  0  0  0  0  0  0  0  0  0  0
   55.2978   30.8670   52.5420 H   0  0  0  0  0  0  0  0  0  0  0  0
   55.1318   29.0784   52.5420 H   0  0  0  0  0  0  0  0  0  0  0  0
   57.9990   32.0080   52.2800 C   0  0  0  0  0  0  0  0  0  0  0  0
   57.6037   32.0418   53.3060 H   0  0  0  0  0  0  0  0  0  0  0  0
   58.7770   33.0620   51.7990 C   0  0  0  0  0  0  0  0  0  0  0  0
   58.9847   33.9246   52.4492 H   0  0  0  0  0  0  0  0  0  0  0  0
   59.2960   33.0350   50.5000 C   0  0  0  0  0  0  0  0  0  0  0  0
   60.1230   34.0990   50.1070 O   0  0  0  0  0  0  0  0  0  0  0  0
   61.5470   34.1110   50.2380 C   0  0  0  0  0  0  0  0  0  0  0  0
   61.8640   35.0883   50.6310 H   0  0  0  0  0  0  0  0  0  0  0  0
   61.8428   33.3051   50.9258 H   0  0  0  0  0  0  0  0  0  0  0  0
   62.2140   33.8750   48.9050 C   0  0  0  0  0  0  0  0  0  0  0  0
   61.5000   34.1180   47.7190 C   0  0  0  0  0  0  0  0  0  0  0  0
   60.4716   34.5051   47.7698 H   0  0  0  0  0  0  0  0  0  0  0  0
   62.0880   33.8710   46.4760 C   0  0  0  0  0  0  0  0  0  0  0  0
   61.5229   34.0663   45.5527 H   0  0  0  0  0  0  0  0  0  0  0  0
   63.3910   33.3770   46.4040 C   0  0  0  0  0  0  0  0  0  0  0  0
   63.8519   33.1841   45.4240 H   0  0  0  0  0  0  0  0  0  0  0  0
   64.1110   33.1270   47.5750 C   0  0  0  0  0  0  0  0  0  0  0  0
   65.1377   32.7369   47.5140 H   0  0  0  0  0  0  0  0  0  0  0  0
   63.5310   33.3710   48.8260 C   0  0  0  0  0  0  0  0  0  0  0  0
   64.4770   33.0290   50.2710 Cl  0  0  0  0  0  0  0  0  0  0  0  0
   58.6500   32.3030   47.1960 C   0  0  0  0  0  0  0  0  0  0  0  0
   58.3240   33.6310   46.8490 C   0  0  0  0  0  0  0  0  0  0  0  0
   58.6590   34.6640   47.4860 O   0  0  0  0  0  0  0  0  0  0  0  0
   57.3620   33.6620   45.4410 S   0  0  0  0  0  0  0  0  0  0  0  0
   57.3990   31.9880   45.3530 C   0  0  0  0  0  0  0  0  0  0  0  0
   58.0900   31.4250   46.3260 N   0  0  0  0  0  0  0  0  0  0  0  0
   58.0980   29.9900   46.1600 C   0  0  0  0  0  0  0  0  0  0  0  0
   59.1186   29.6072   46.0123 H   0  0  0  0  0  0  0  0  0  0  0  0
   57.7187   29.4333   47.0296 H   0  0  0  0  0  0  0  0  0  0  0  0
   57.2410   29.8290   44.8800 C   0  0  0  0  0  0  0  0  0  0  0  0
   57.8229   29.3391   44.0854 H   0  0  0  0  0  0  0  0  0  0  0  0
   56.3537   29.2030   45.0556 H   0  0  0  0  0  0  0  0  0  0  0  0
   56.8780   31.1970   44.4840 N   0  0  0  0  0  0  0  0  0  0  0  0
  1  2  1  0
  2  3  1  0
  3  4  2  0
  4  5  1  0
  4  6  1  0
  6  7  1  0
  7  8  1  0
  8  9  1  0
  8 10  1  0
  8 11  1  0
  6 12  2  0
 12 13  1  0
 12 14  1  0
 14 15  1  0
 14 16  2  0
 16 17  1  0
 17 18  1  0
 18 19  1  0
 18 20  1  0
 18 21  1  0
 21 22  2  0
 22 23  1  0
 22 24  1  0
 24 25  1  0
 24 26  2  0
 26 27  1  0
 26 28  1  0
 28 29  1  0
 28 30  2  0
 30 31  1  0
  2 32  2  0
 32 33  1  0
 33 34  2  0
 33 35  1  0
 35 36  1  0
 36 37  1  0
 37 38  1  0
 38 39  1  0
 38 40  1  0
 38 41  1  0
 41 42  1  0
 41 43  1  0
 41 44  1  0
 16  3  1  0
 30 21  1  0
 37 32  1  0
 44 36  2  0
M  END
>  <UniqueID>  (36) 
34

>  <SMILES>  (36) 
COc1ccc(OCc2ccccc2Cl)c(/C=c2\c(=O)sc3n2CCN=3)c1

>  <Energy>  (36) 
118.15043344768955

>  <Genealogy>  (36) 
COc1ccc(OCc2ccccc2Cl)c(/C=c2\c(=O)sc3n2CCN=3)c1 (cis-trans isomerization)
COc1ccc(OCc2ccccc2Cl)c(/C=c2\c(=O)sc3n2CCN=3)c1 (3D coordinates assigned)
COc1ccc(OCc2ccccc2Cl)c(/C=c2\c(=O)sc3n2CCN=3)c1 (nonaromatic ring conformer: 118.15043344768955 kcal/mol)

>  <smiles>  (36) 
COc1ccc(OCc2ccccc2Cl)c(C=c2c(=O)sc3n2CCN=3)c1

>  <score_type>  (36) 
oracle

>  <origin>  (36) 
adg

>  <m_score__min__energy>  (36) 
-7.79

>  <m_primary>  (36) 
energy

$$$$
36:0
     RDKit          3D

 56 59  0  0  0  0  0  0  0  0999 V2000
   59.2990   26.6670   47.9270 O   0  0  0  0  0  0  0  0  0  0  0  0
   58.5090   27.6040   47.6360 C   0  0  0  0  0  0  0  0  0  0  0  0
   58.7270   28.9550   48.2450 C   0  0  0  0  0  0  0  0  0  0  0  0
   59.7740   28.8260   49.7380 S   0  0  0  0  0  0  0  0  0  0  0  0
   58.8830   30.0830   50.6770 C   0  0  0  0  0  0  0  0  0  0  0  0
   58.1350   29.6480   51.7810 C   0  0  0  0  0  0  0  0  0  0  0  0
   57.3930   30.5530   52.5380 C   0  0  0  0  0  0  0  0  0  0  0  0
   57.3790   31.9020   52.1940 C   0  0  0  0  0  0  0  0  0  0  0  0
   58.1010   32.3500   51.0870 C   0  0  0  0  0  0  0  0  0  0  0  0
   58.8620   31.4550   50.3080 C   0  0  0  0  0  0  0  0  0  0  0  0
   59.5850   31.9910   49.1240 C   0  0  0  0  0  0  0  0  0  0  0  0
   60.7940   32.3360   49.2070 O   0  0  0  0  0  0  0  0  0  0  0  0
   58.9030   32.0730   47.8640 N   0  0  0  0  0  0  0  0  0  0  0  0
   59.0390   33.0920   46.8620 C   0  0  0  0  0  0  0  0  0  0  0  0
   59.3880   34.4150   47.1940 C   0  0  0  0  0  0  0  0  0  0  0  0
   59.5170   35.3810   46.1920 C   0  0  0  0  0  0  0  0  0  0  0  0
   59.2920   35.0420   44.8570 C   0  0  0  0  0  0  0  0  0  0  0  0
   58.9220   33.7380   44.5200 C   0  0  0  0  0  0  0  0  0  0  0  0
   58.7750   32.7620   45.5180 C   0  0  0  0  0  0  0  0  0  0  0  0
   58.3830   31.4260   45.1650 N   0  0  0  0  0  0  0  0  0  0  0  0
   59.2380   30.2930   45.5280 C   0  0  0  0  0  0  0  0  0  0  0  0
   59.0540   29.1690   44.5050 C   0  0  0  0  0  0  0  0  0  0  0  0
   57.6820   28.8470   44.3570 O   0  0  0  0  0  0  0  0  0  0  0  0
   56.9850   29.9500   43.8080 C   0  0  0  0  0  0  0  0  0  0  0  0
   57.0020   31.1410   44.7720 C   0  0  0  0  0  0  0  0  0  0  0  0
   57.4580   27.4070   46.6760 N   0  0  0  0  0  0  0  0  0  0  0  0
   57.1590   26.1390   46.0610 C   0  0  0  0  0  0  0  0  0  0  0  0
   58.1740   25.1940   45.8170 C   0  0  0  0  0  0  0  0  0  0  0  0
   57.8670   23.9640   45.2290 C   0  0  0  0  0  0  0  0  0  0  0  0
   56.5460   23.6590   44.8920 C   0  0  0  0  0  0  0  0  0  0  0  0
   55.5290   24.5800   45.1530 C   0  0  0  0  0  0  0  0  0  0  0  0
   55.8290   25.8130   45.7400 C   0  0  0  0  0  0  0  0  0  0  0  0
   54.8000   26.7150   45.9940 O   0  0  0  0  0  0  0  0  0  0  0  0
   59.2230   29.6068   47.5108 H   0  0  0  0  0  0  0  0  0  0  0  0
   57.7521   29.3768   48.5307 H   0  0  0  0  0  0  0  0  0  0  0  0
   58.1340   28.5819   52.0520 H   0  0  0  0  0  0  0  0  0  0  0  0
   56.8183   30.2013   53.4075 H   0  0  0  0  0  0  0  0  0  0  0  0
   56.7977   32.6160   52.7959 H   0  0  0  0  0  0  0  0  0  0  0  0
   58.0759   33.4164   50.8186 H   0  0  0  0  0  0  0  0  0  0  0  0
   59.5597   34.6893   48.2453 H   0  0  0  0  0  0  0  0  0  0  0  0
   59.7967   36.4115   46.4565 H   0  0  0  0  0  0  0  0  0  0  0  0
   59.4061   35.8020   44.0700 H   0  0  0  0  0  0  0  0  0  0  0  0
   58.7449   33.4745   43.4668 H   0  0  0  0  0  0  0  0  0  0  0  0
   60.2900   30.6144   45.5348 H   0  0  0  0  0  0  0  0  0  0  0  0
   58.9604   29.9287   46.5281 H   0  0  0  0  0  0  0  0  0  0  0  0
   59.4553   29.4950   43.5341 H   0  0  0  0  0  0  0  0  0  0  0  0
   59.5908   28.2766   44.8592 H   0  0  0  0  0  0  0  0  0  0  0  0
   57.4641   30.2447   42.8627 H   0  0  0  0  0  0  0  0  0  0  0  0
   55.9402   29.6541   43.6327 H   0  0  0  0  0  0  0  0  0  0  0  0
   56.5723   32.0228   44.2742 H   0  0  0  0  0  0  0  0  0  0  0  0
   56.4070   30.9004   45.6653 H   0  0  0  0  0  0  0  0  0  0  0  0
   56.9620   28.2540   46.3190 H   0  0  0  0  0  0  0  0  0  0  0  0
   59.2140   25.4252   46.0907 H   0  0  0  0  0  0  0  0  0  0  0  0
   58.6666   23.2350   45.0312 H   0  0  0  0  0  0  0  0  0  0  0  0
   56.3070   22.6940   44.4213 H   0  0  0  0  0  0  0  0  0  0  0  0
   54.4881   24.3344   44.8958 H   0  0  0  0  0  0  0  0  0  0  0  0
  1  2  2  0
  2  3  1  0
  3  4  1  0
  4  5  1  0
  5  6  2  0
  6  7  1  0
  7  8  2  0
  8  9  1  0
  9 10  2  0
 10 11  1  0
 11 12  2  0
 11 13  1  0
 13 14  1  0
 14 15  2  0
 15 16  1  0
 16 17  2  0
 17 18  1  0
 18 19  2  0
 19 20  1  0
 20 21  1  0
 21 22  1  0
 22 23  1  0
 23 24  1  0
 24 25  1  0
  2 26  1  0
 26 27  1  0
 27 28  2  0
 28 29  1  0
 29 30  2  0
 30 31  1  0
 31 32  2  0
 32 33  1  0
 10  5  1  0
 19 14  1  0
 25 20  1  0
 32 27  1  0
  3 34  1  0
  3 35  1  0
  6 36  1  0
  7 37  1  0
  8 38  1  0
  9 39  1  0
 15 40  1  0
 16 41  1  0
 17 42  1  0
 18 43  1  0
 21 44  1  0
 21 45  1  0
 22 46  1  0
 22 47  1  0
 24 48  1  0
 24 49  1  0
 25 50  1  0
 25 51  1  0
 26 52  1  0
 28 53  1  0
 29 54  1  0
 30 55  1  0
 31 56  1  0
M  CHG  2  13  -1  33  -1
M  END
>  <UniqueID>  (37) 
35

>  <SMILES>  (37) 
O=C(CSc1ccccc1C(=O)[N-]c1ccccc1N1CCOCC1)Nc1ccccc1[O-]

>  <Energy>  (37) 
70.89351520709987

>  <Genealogy>  (37) 
O=C(CSc1ccccc1C(=O)[N-]c1ccccc1N1CCOCC1)Nc1ccccc1[O-] (protonated)
O=C(CSc1ccccc1C(=O)[N-]c1ccccc1N1CCOCC1)Nc1ccccc1[O-] (3D coordinates assigned)
O=C(CSc1ccccc1C(=O)[N-]c1ccccc1N1CCOCC1)Nc1ccccc1[O-] (nonaromatic ring conformer: 70.89351520709987 kcal/mol)

>  <smiles>  (37) 
O=C(CSc1ccccc1C(=O)Nc1ccccc1N1CCOCC1)Nc1ccccc1O

>  <score_type>  (37) 
oracle

>  <origin>  (37) 
adg

>  <m_score__min__energy>  (37) 
-13.720000000000001

>  <m_primary>  (37) 
energy

$$$$
37:0
     RDKit          3D

 49 51  0  0  0  0  0  0  0  0999 V2000
   61.8390   30.8930   47.9820 C   0  0  0  0  0  0  0  0  0  0  0  0
   60.7370   30.0090   48.1510 O   0  0  0  0  0  0  0  0  0  0  0  0
   59.4380   30.4630   48.4100 C   0  0  0  0  0  0  0  0  0  0  0  0
   58.4900   30.0910   47.6650 O   0  0  0  0  0  0  0  0  0  0  0  0
   59.1930   31.3760   49.5590 C   0  0  0  0  0  0  0  0  0  0  0  0
   58.6270   30.8460   50.7340 C   0  0  0  0  0  0  0  0  0  0  0  0
   58.3700   31.6630   51.8360 C   0  0  0  0  0  0  0  0  0  0  0  0
   58.6620   33.0230   51.7810 C   0  0  0  0  0  0  0  0  0  0  0  0
   59.2250   33.5710   50.6280 C   0  0  0  0  0  0  0  0  0  0  0  0
   59.5170   32.7590   49.5160 C   0  0  0  0  0  0  0  0  0  0  0  0
   60.0680   33.3330   48.3200 N   0  0  0  0  0  0  0  0  0  0  0  0
   59.4080   34.2200   47.4080 C   0  0  0  0  0  0  0  0  0  0  0  0
   59.6320   35.4600   47.4420 O   0  0  0  0  0  0  0  0  0  0  0  0
   58.5020   33.6810   46.3840 C   0  0  0  0  0  0  0  0  0  0  0  0
   57.3340   34.2520   46.0210 N   0  0  0  0  0  0  0  0  0  0  0  0
   56.7950   33.4830   45.0810 N   0  0  0  0  0  0  0  0  0  0  0  0
   57.5760   32.4450   44.8200 N   0  0  0  0  0  0  0  0  0  0  0  0
   57.2400   31.3870   43.8680 C   0  0  0  0  0  0  0  0  0  0  0  0
   57.1820   30.0620   44.5660 C   0  0  0  0  0  0  0  0  0  0  0  0
   56.0610   29.5950   44.9050 O   0  0  0  0  0  0  0  0  0  0  0  0
   58.3940   29.3550   44.8790 N   0  0  0  0  0  0  0  0  0  0  0  0
   58.4370   28.0200   45.4110 C   0  0  0  0  0  0  0  0  0  0  0  0
   59.6720   27.4720   45.7910 C   0  0  0  0  0  0  0  0  0  0  0  0
   59.7430   26.1720   46.2990 C   0  0  0  0  0  0  0  0  0  0  0  0
   58.5840   25.4010   46.4180 C   0  0  0  0  0  0  0  0  0  0  0  0
   57.3480   25.9220   46.0130 C   0  0  0  0  0  0  0  0  0  0  0  0
   55.8850   24.9520   46.1530 S   0  0  0  0  0  0  0  0  0  0  0  0
   54.5000   25.9620   45.9360 N   0  0  0  0  0  0  0  0  0  0  0  0
   55.8910   23.8720   45.1070 O   0  0  0  0  0  0  0  0  0  0  0  0
   55.8240   24.3070   47.5100 O   0  0  0  0  0  0  0  0  0  0  0  0
   57.2770   27.2280   45.5080 C   0  0  0  0  0  0  0  0  0  0  0  0
   58.6480   32.5400   45.6280 C   0  0  0  0  0  0  0  0  0  0  0  0
   59.6320   31.6960   45.6830 N   0  0  0  0  0  0  0  0  0  0  0  0
   62.2191   31.1979   48.9682 H   0  0  0  0  0  0  0  0  0  0  0  0
   62.6369   30.3817   47.4236 H   0  0  0  0  0  0  0  0  0  0  0  0
   61.5130   31.7829   47.4236 H   0  0  0  0  0  0  0  0  0  0  0  0
   58.3842   29.7743   50.7842 H   0  0  0  0  0  0  0  0  0  0  0  0
   57.9358   31.2314   52.7499 H   0  0  0  0  0  0  0  0  0  0  0  0
   58.4487   33.6663   52.6474 H   0  0  0  0  0  0  0  0  0  0  0  0
   59.4429   34.6485   50.5876 H   0  0  0  0  0  0  0  0  0  0  0  0
   56.2607   31.6027   43.4158 H   0  0  0  0  0  0  0  0  0  0  0  0
   58.0138   31.3478   43.0871 H   0  0  0  0  0  0  0  0  0  0  0  0
   59.2980   29.8740   44.8000 H   0  0  0  0  0  0  0  0  0  0  0  0
   60.5898   28.0695   45.6883 H   0  0  0  0  0  0  0  0  0  0  0  0
   60.7135   25.7549   46.6058 H   0  0  0  0  0  0  0  0  0  0  0  0
   58.6419   24.3829   46.8305 H   0  0  0  0  0  0  0  0  0  0  0  0
   54.7770   26.7210   45.2750 H   0  0  0  0  0  0  0  0  0  0  0  0
   56.3081   27.6368   45.1853 H   0  0  0  0  0  0  0  0  0  0  0  0
   59.9810   31.3010   46.5830 H   0  0  0  0  0  0  0  0  0  0  0  0
  1  2  1  0
  2  3  1  0
  3  4  2  0
  3  5  1  0
  5  6  2  0
  6  7  1  0
  7  8  2  0
  8  9  1  0
  9 10  2  0
 10 11  1  0
 11 12  1  0
 12 13  2  0
 12 14  1  0
 14 15  2  0
 15 16  1  0
 16 17  1  0
 17 18  1  0
 18 19  1  0
 19 20  2  0
 19 21  1  0
 21 22  1  0
 22 23  2  0
 23 24  1  0
 24 25  2  0
 25 26  1  0
 26 27  1  0
 27 28  1  0
 27 29  2  0
 27 30  2  0
 26 31  2  0
 17 32  1  0
 32 33  2  3
 10  5  1  0
 32 14  1  0
 31 22  1  0
  1 34  1  0
  1 35  1  0
  1 36  1  0
  6 37  1  0
  7 38  1  0
  8 39  1  0
  9 40  1  0
 18 41  1  0
 18 42  1  0
 21 43  1  0
 23 44  1  0
 24 45  1  0
 25 46  1  0
 28 47  1  0
 31 48  1  0
 33 49  1  0
M  CHG  3  11  -1  16  -1  28  -1
M  END
>  <UniqueID>  (38) 
36

>  <SMILES>  (38) 
COC(=O)c1ccccc1[N-]C(=O)c1n[n-]n(CC(=O)Nc2cccc(S([NH-])(=O)=O)c2)c1=N

>  <Energy>  (38) 
94.64734541371368

>  <Genealogy>  (38) 
COC(=O)c1ccccc1[N-]C(=O)c1n[n-]n(CC(=O)Nc2cccc(S([NH-])(=O)=O)c2)c1=N (protonated)
COC(=O)c1ccccc1[N-]C(=O)c1n[n-]n(CC(=O)Nc2cccc(S([NH-])(=O)=O)c2)c1=N (3D coordinates assigned)
COC(=O)c1ccccc1[N-]C(=O)c1n[n-]n(CC(=O)Nc2cccc(S([NH-])(=O)=O)c2)c1=N (optimized conformer: 94.64734541371368 kcal/mol)

>  <smiles>  (38) 
COC(=O)c1ccccc1NC(=O)c1n[nH]n(CC(=O)Nc2cccc(S(N)(=O)=O)c2)c1=N

>  <score_type>  (38) 
oracle

>  <origin>  (38) 
adg

>  <m_score__min__energy>  (38) 
-12.82

>  <m_primary>  (38) 
energy

$$$$
38:0
     RDKit          3D

 38 39  0  0  0  0  0  0  0  0999 V2000
   59.8570   33.6360   50.5000 C   0  0  0  0  0  0  0  0  0  0  0  0
   60.9250   34.1640   49.7200 O   0  0  0  0  0  0  0  0  0  0  0  0
   62.2790   33.8250   49.8820 C   0  0  0  0  0  0  0  0  0  0  0  0
   63.1350   34.5840   50.7050 C   0  0  0  0  0  0  0  0  0  0  0  0
   64.4650   34.1990   50.8890 C   0  0  0  0  0  0  0  0  0  0  0  0
   64.9570   33.0560   50.2610 C   0  0  0  0  0  0  0  0  0  0  0  0
   64.1230   32.2970   49.4390 C   0  0  0  0  0  0  0  0  0  0  0  0
   62.7870   32.6810   49.2260 C   0  0  0  0  0  0  0  0  0  0  0  0
   61.9350   31.8580   48.3400 C   0  0  0  0  0  0  0  0  0  0  0  0
   62.1950   30.6310   48.2100 O   0  0  0  0  0  0  0  0  0  0  0  0
   60.8350   32.4490   47.6260 N   0  0  0  0  0  0  0  0  0  0  0  0
   59.8550   31.6910   46.8990 C   0  0  0  0  0  0  0  0  0  0  0  0
   58.4430   32.4180   46.4840 S   0  0  0  0  0  0  0  0  0  0  0  0
   60.1940   30.4210   46.3220 N   0  0  0  0  0  0  0  0  0  0  0  0
   59.2890   29.3050   46.2600 C   0  0  0  0  0  0  0  0  0  0  0  0
   58.3050   29.2140   45.2590 C   0  0  0  0  0  0  0  0  0  0  0  0
   57.4190   28.1320   45.2340 C   0  0  0  0  0  0  0  0  0  0  0  0
   57.4950   27.1350   46.2150 C   0  0  0  0  0  0  0  0  0  0  0  0
   56.3850   25.7670   46.1880 S   0  0  0  0  0  0  0  0  0  0  0  0
   54.7660   26.3390   45.9910 N   0  0  0  0  0  0  0  0  0  0  0  0
   56.4860   24.9960   47.4740 O   0  0  0  0  0  0  0  0  0  0  0  0
   56.7390   24.8520   45.0490 O   0  0  0  0  0  0  0  0  0  0  0  0
   58.4690   27.2260   47.2180 C   0  0  0  0  0  0  0  0  0  0  0  0
   59.3540   28.3080   47.2450 C   0  0  0  0  0  0  0  0  0  0  0  0
   60.0912   33.7518   51.5685 H   0  0  0  0  0  0  0  0  0  0  0  0
   58.9293   34.1793   50.2670 H   0  0  0  0  0  0  0  0  0  0  0  0
   59.7254   32.5690   50.2670 H   0  0  0  0  0  0  0  0  0  0  0  0
   62.7531   35.4858   51.2059 H   0  0  0  0  0  0  0  0  0  0  0  0
   65.1260   34.7995   51.5313 H   0  0  0  0  0  0  0  0  0  0  0  0
   66.0032   32.7521   50.4134 H   0  0  0  0  0  0  0  0  0  0  0  0
   64.5139   31.3906   48.9535 H   0  0  0  0  0  0  0  0  0  0  0  0
   60.7050   33.4840   47.6840 H   0  0  0  0  0  0  0  0  0  0  0  0
   61.1390   30.3240   45.8860 H   0  0  0  0  0  0  0  0  0  0  0  0
   58.2318   29.9984   44.4913 H   0  0  0  0  0  0  0  0  0  0  0  0
   56.6597   28.0637   44.4410 H   0  0  0  0  0  0  0  0  0  0  0  0
   54.6220   27.0960   46.6950 H   0  0  0  0  0  0  0  0  0  0  0  0
   58.5377   26.4429   47.9874 H   0  0  0  0  0  0  0  0  0  0  0  0
   60.1066   28.3781   48.0442 H   0  0  0  0  0  0  0  0  0  0  0  0
  1  2  1  0
  2  3  1  0
  3  4  2  0
  4  5  1  0
  5  6  2  0
  6  7  1  0
  7  8  2  0
  8  9  1  0
  9 10  2  0
  9 11  1  0
 11 12  1  0
 12 13  2  0
 12 14  1  0
 14 15  1  0
 15 16  2  0
 16 17  1  0
 17 18  2  0
 18 19  1  0
 19 20  1  0
 19 21  2  0
 19 22  2  0
 18 23  1  0
 23 24  2  0
  8  3  1  0
 24 15  1  0
  1 25  1  0
  1 26  1  0
  1 27  1  0
  4 28  1  0
  5 29  1  0
  6 30  1  0
  7 31  1  0
 11 32  1  0
 14 33  1  0
 16 34  1  0
 17 35  1  0
 20 36  1  0
 23 37  1  0
 24 38  1  0
M  CHG  1  20  -1
M  END
>  <UniqueID>  (39) 
37

>  <SMILES>  (39) 
COc1ccccc1C(=O)NC(=S)Nc1ccc(S([NH-])(=O)=O)cc1

>  <Energy>  (39) 
48.71429845070701

>  <Genealogy>  (39) 
COc1ccccc1C(=O)NC(=S)Nc1ccc(S([NH-])(=O)=O)cc1 (protonated)
COc1ccccc1C(=O)NC(=S)Nc1ccc(S([NH-])(=O)=O)cc1 (3D coordinates assigned)
COc1ccccc1C(=O)NC(=S)Nc1ccc(S([NH-])(=O)=O)cc1 (optimized conformer: 48.71429845070701 kcal/mol)

>  <smiles>  (39) 
COc1ccccc1C(=O)NC(=S)Nc1ccc(S(N)(=O)=O)cc1

>  <score_type>  (39) 
oracle

>  <origin>  (39) 
adg

>  <m_score__min__energy>  (39) 
-9.5500000000000007

>  <m_primary>  (39) 
energy

$$$$
39:0
     RDKit          3D

 39 40  0  0  0  0  0  0  0  0999 V2000
   55.1610   28.9750   44.6340 N   0  0  0  0  0  0  0  0  0  0  0  0
   56.4270   30.1030   44.2970 S   0  0  0  0  0  0  0  0  0  0  0  0
   56.6400   30.1860   42.8130 O   0  0  0  0  0  0  0  0  0  0  0  0
   56.0220   31.4520   44.8190 O   0  0  0  0  0  0  0  0  0  0  0  0
   57.9190   29.5820   45.0750 C   0  0  0  0  0  0  0  0  0  0  0  0
   58.9100   28.9350   44.3260 C   0  0  0  0  0  0  0  0  0  0  0  0
   60.1060   28.5470   44.9340 C   0  0  0  0  0  0  0  0  0  0  0  0
   60.3160   28.7980   46.2920 C   0  0  0  0  0  0  0  0  0  0  0  0
   59.3270   29.4280   47.0580 C   0  0  0  0  0  0  0  0  0  0  0  0
   59.5940   29.6890   48.4430 N   0  0  0  0  0  0  0  0  0  0  0  0
   60.5930   30.5700   48.9740 C   0  0  0  0  0  0  0  0  0  0  0  0
   61.6210   30.1100   49.5360 O   0  0  0  0  0  0  0  0  0  0  0  0
   60.4350   31.9900   48.8770 N   0  0  0  0  0  0  0  0  0  0  0  0
   59.8000   32.7020   47.8040 C   0  0  0  0  0  0  0  0  0  0  0  0
   58.4130   32.9460   47.8070 C   0  0  0  0  0  0  0  0  0  0  0  0
   57.8140   33.6180   46.7420 C   0  0  0  0  0  0  0  0  0  0  0  0
   58.5840   34.0410   45.6590 C   0  0  0  0  0  0  0  0  0  0  0  0
   59.9570   33.7810   45.6320 C   0  0  0  0  0  0  0  0  0  0  0  0
   60.5740   33.0950   46.6980 C   0  0  0  0  0  0  0  0  0  0  0  0
   61.9500   32.8040   46.7160 O   0  0  0  0  0  0  0  0  0  0  0  0
   62.9980   33.6890   47.1200 C   0  0  0  0  0  0  0  0  0  0  0  0
   63.4150   33.4210   48.5680 C   0  0  0  0  0  0  0  0  0  0  0  0
   63.0770   32.0600   48.9700 N   0  0  0  0  0  0  0  0  0  0  0  0
   58.1330   29.8410   46.4370 C   0  0  0  0  0  0  0  0  0  0  0  0
   54.6370   29.3430   45.4610 H   0  0  0  0  0  0  0  0  0  0  0  0
   58.7461   28.7322   43.2574 H   0  0  0  0  0  0  0  0  0  0  0  0
   60.8842   28.0427   44.3423 H   0  0  0  0  0  0  0  0  0  0  0  0
   61.2641   28.4990   46.7628 H   0  0  0  0  0  0  0  0  0  0  0  0
   57.7991   32.6048   48.6536 H   0  0  0  0  0  0  0  0  0  0  0  0
   56.7318   33.8148   46.7562 H   0  0  0  0  0  0  0  0  0  0  0  0
   58.1103   34.5798   44.8252 H   0  0  0  0  0  0  0  0  0  0  0  0
   60.5597   34.1135   44.7740 H   0  0  0  0  0  0  0  0  0  0  0  0
   63.8672   33.5412   46.4622 H   0  0  0  0  0  0  0  0  0  0  0  0
   62.6307   34.7233   47.0470 H   0  0  0  0  0  0  0  0  0  0  0  0
   64.5018   33.5633   48.6608 H   0  0  0  0  0  0  0  0  0  0  0  0
   62.8753   34.1220   49.2218 H   0  0  0  0  0  0  0  0  0  0  0  0
   62.5300   31.6250   48.1940 H   0  0  0  0  0  0  0  0  0  0  0  0
   62.4320   32.1150   49.7920 H   0  0  0  0  0  0  0  0  0  0  0  0
   57.3652   30.3686   47.0218 H   0  0  0  0  0  0  0  0  0  0  0  0
  1  2  1  0
  2  3  2  0
  2  4  2  0
  2  5  1  0
  5  6  2  0
  6  7  1  0
  7  8  2  0
  8  9  1  0
  9 10  1  0
 10 11  1  0
 11 12  2  0
 11 13  1  0
 13 14  1  0
 14 15  2  0
 15 16  1  0
 16 17  2  0
 17 18  1  0
 18 19  2  0
 19 20  1  0
 20 21  1  0
 21 22  1  0
 22 23  1  0
  9 24  2  0
 24  5  1  0
 19 14  1  0
  1 25  1  0
  6 26  1  0
  7 27  1  0
  8 28  1  0
 15 29  1  0
 16 30  1  0
 17 31  1  0
 18 32  1  0
 21 33  1  0
 21 34  1  0
 22 35  1  0
 22 36  1  0
 23 37  1  0
 23 38  1  0
 24 39  1  0
M  CHG  3   1  -1  10  -1  13  -1
M  END
>  <UniqueID>  (40) 
38

>  <SMILES>  (40) 
[NH-]S(=O)(=O)c1cccc([N-]C(=O)[N-]c2ccccc2OCCN)c1

>  <Energy>  (40) 
44.60449211260862

>  <Genealogy>  (40) 
[NH-]S(=O)(=O)c1cccc([N-]C(=O)[N-]c2ccccc2OCCN)c1 (protonated)
[NH-]S(=O)(=O)c1cccc([N-]C(=O)[N-]c2ccccc2OCCN)c1 (3D coordinates assigned)
[NH-]S(=O)(=O)c1cccc([N-]C(=O)[N-]c2ccccc2OCCN)c1 (optimized conformer: 44.60449211260862 kcal/mol)

>  <smiles>  (40) 
NCCOc1ccccc1NC(=O)Nc1cccc(S(N)(=O)=O)c1

>  <score_type>  (40) 
oracle

>  <origin>  (40) 
adg

>  <m_score__min__energy>  (40) 
-13

>  <m_primary>  (40) 
energy

$$$$
40:0
     RDKit          3D

 43 46  0  0  0  0  0  0  0  0999 V2000
   60.9521   30.1640   47.8441 H   0  0  0  0  0  0  0  0  0  0  0  0
   60.7130   29.1550   47.4770 C   0  0  0  0  0  0  0  0  0  0  0  0
   60.3700   28.1450   48.3810 C   0  0  0  0  0  0  0  0  0  0  0  0
   60.3390   28.3604   49.4593 H   0  0  0  0  0  0  0  0  0  0  0  0
   60.0660   26.8600   47.9160 C   0  0  0  0  0  0  0  0  0  0  0  0
   59.7924   26.0695   48.6303 H   0  0  0  0  0  0  0  0  0  0  0  0
   60.1090   26.5760   46.5410 C   0  0  0  0  0  0  0  0  0  0  0  0
   59.7480   25.2000   46.0390 C   0  0  0  0  0  0  0  0  0  0  0  0
   60.5307   24.4918   46.3486 H   0  0  0  0  0  0  0  0  0  0  0  0
   59.6671   25.2473   44.9430 H   0  0  0  0  0  0  0  0  0  0  0  0
   58.3980   24.7230   46.5960 C   0  0  0  0  0  0  0  0  0  0  0  0
   58.4765   24.6377   47.6899 H   0  0  0  0  0  0  0  0  0  0  0  0
   58.1666   23.7520   46.1338 H   0  0  0  0  0  0  0  0  0  0  0  0
   57.2800   25.6690   46.2640 C   0  0  0  0  0  0  0  0  0  0  0  0
   57.4480   26.8690   45.6820 N   0  0  0  0  0  0  0  0  0  0  0  0
   56.1870   27.3400   45.5500 C   0  0  0  0  0  0  0  0  0  0  0  0
   55.8990   28.5030   45.0460 N   0  0  0  0  0  0  0  0  0  0  0  0
   56.6330   29.7160   45.2650 C   0  0  0  0  0  0  0  0  0  0  0  0
   56.4920   30.8380   44.5150 N   0  0  0  0  0  0  0  0  0  0  0  0
   57.3440   31.8070   44.9360 C   0  0  0  0  0  0  0  0  0  0  0  0
   57.4380   33.0750   44.3640 C   0  0  0  0  0  0  0  0  0  0  0  0
   56.7962   33.3562   43.5161 H   0  0  0  0  0  0  0  0  0  0  0  0
   58.3680   33.9870   44.8910 C   0  0  0  0  0  0  0  0  0  0  0  0
   58.4531   34.9927   44.4535 H   0  0  0  0  0  0  0  0  0  0  0  0
   59.1950   33.6240   45.9780 C   0  0  0  0  0  0  0  0  0  0  0  0
   60.3430   34.7870   46.6290 S   0  0  0  0  0  0  0  0  0  0  0  0
   60.0810   34.9900   48.0960 O   0  0  0  0  0  0  0  0  0  0  0  0
   60.1950   36.1060   45.9260 O   0  0  0  0  0  0  0  0  0  0  0  0
   61.9970   34.1790   46.3950 C   0  0  0  0  0  0  0  0  0  0  0  0
   62.4663   34.0065   47.3748 H   0  0  0  0  0  0  0  0  0  0  0  0
   61.9642   33.2341   45.8327 H   0  0  0  0  0  0  0  0  0  0  0  0
   62.5840   34.9201   45.8327 H   0  0  0  0  0  0  0  0  0  0  0  0
   59.0840   32.3410   46.5480 C   0  0  0  0  0  0  0  0  0  0  0  0
   59.7143   32.0443   47.3993 H   0  0  0  0  0  0  0  0  0  0  0  0
   58.1540   31.4580   46.0040 C   0  0  0  0  0  0  0  0  0  0  0  0
   57.8150   29.8790   46.4630 S   0  0  0  0  0  0  0  0  0  0  0  0
   55.2280   26.5000   45.9980 N   0  0  0  0  0  0  0  0  0  0  0  0
   55.9370   25.4480   46.4420 C   0  0  0  0  0  0  0  0  0  0  0  0
   55.3640   24.3110   46.9990 O   0  0  0  0  0  0  0  0  0  0  0  0
   60.4500   27.5990   45.6370 C   0  0  0  0  0  0  0  0  0  0  0  0
   60.4792   27.3892   44.5576 H   0  0  0  0  0  0  0  0  0  0  0  0
   60.7520   28.8820   46.1060 C   0  0  0  0  0  0  0  0  0  0  0  0
   61.0206   29.6774   45.3952 H   0  0  0  0  0  0  0  0  0  0  0  0
  1  2  1  0
  2  3  2  0
  3  4  1  0
  3  5  1  0
  5  6  1  0
  5  7  2  0
  7  8  1  0
  8  9  1  0
  8 10  1  0
  8 11  1  0
 11 12  1  0
 11 13  1  0
 11 14  1  0
 14 15  1  0
 15 16  1  0
 16 17  2  0
 17 18  1  0
 18 19  2  0
 19 20  1  0
 20 21  2  0
 21 22  1  0
 21 23  1  0
 23 24  1  0
 23 25  2  0
 25 26  1  0
 26 27  2  0
 26 28  2  0
 26 29  1  0
 29 30  1  0
 29 31  1  0
 29 32  1  0
 25 33  1  0
 33 34  1  0
 33 35  2  0
 35 36  1  0
 16 37  1  0
 37 38  1  0
 38 39  1  0
  7 40  1  0
 40 41  1  0
 40 42  2  0
 42 43  1  0
 42  2  1  0
 38 14  2  0
 36 18  1  0
 35 20  1  0
M  CHG  3  15  -1  37  -1  39  -1
M  END
>  <UniqueID>  (41) 
39

>  <SMILES>  (41) 
CS(=O)(=O)c1ccc2nc(/N=c3/[n-]c([O-])c(CCc4ccccc4)[n-]3)sc2c1

>  <Energy>  (41) 
106.33212615611971

>  <Genealogy>  (41) 
CS(=O)(=O)c1ccc2nc(N=c3[n-]c([O-])c(CCc4ccccc4)[n-]3)sc2c1 (protonated)
CS(=O)(=O)c1ccc2nc(/N=c3/[n-]c([O-])c(CCc4ccccc4)[n-]3)sc2c1 (cis-trans isomerization)
CS(=O)(=O)c1ccc2nc(/N=c3/[n-]c([O-])c(CCc4ccccc4)[n-]3)sc2c1 (3D coordinates assigned)
CS(=O)(=O)c1ccc2nc(/N=c3/[n-]c([O-])c(CCc4ccccc4)[n-]3)sc2c1 (optimized conformer: 106.33212615611971 kcal/mol)

>  <smiles>  (41) 
CS(=O)(=O)c1ccc2nc(N=c3[nH]c(O)c(CCc4ccccc4)[nH]3)sc2c1

>  <score_type>  (41) 
oracle

>  <origin>  (41) 
adg

>  <m_score__min__energy>  (41) 
-14.869999999999999

>  <m_primary>  (41) 
energy

$$$$
41:0
     RDKit          3D

 51 53  0  0  0  0  0  0  0  0999 V2000
   60.2770   28.5590   44.9670 C   0  0  0  0  0  0  0  0  0  0  0  0
   60.8420   29.6890   45.6230 O   0  0  0  0  0  0  0  0  0  0  0  0
   60.3590   30.2400   46.8220 C   0  0  0  0  0  0  0  0  0  0  0  0
   61.1510   30.3110   47.9820 C   0  0  0  0  0  0  0  0  0  0  0  0
   60.6390   30.8600   49.1700 C   0  0  0  0  0  0  0  0  0  0  0  0
   61.4340   30.9740   50.3230 O   0  0  0  0  0  0  0  0  0  0  0  0
   62.5450   31.8200   50.4610 C   0  0  0  0  0  0  0  0  0  0  0  0
   62.5280   32.8020   51.4590 C   0  0  0  0  0  0  0  0  0  0  0  0
   63.6130   33.6680   51.6130 C   0  0  0  0  0  0  0  0  0  0  0  0
   64.7340   33.5420   50.7870 C   0  0  0  0  0  0  0  0  0  0  0  0
   64.7730   32.5440   49.8110 C   0  0  0  0  0  0  0  0  0  0  0  0
   63.6840   31.6820   49.6470 C   0  0  0  0  0  0  0  0  0  0  0  0
   59.3170   31.3400   49.2030 C   0  0  0  0  0  0  0  0  0  0  0  0
   58.8020   31.9280   50.4100 N   0  0  0  0  0  0  0  0  0  0  0  0
   57.7700   31.3360   51.2130 C   0  0  0  0  0  0  0  0  0  0  0  0
   57.1170   32.1380   52.2910 C   0  0  0  0  0  0  0  0  0  0  0  0
   57.4620   30.1210   51.0720 O   0  0  0  0  0  0  0  0  0  0  0  0
   58.5350   31.2900   48.0360 C   0  0  0  0  0  0  0  0  0  0  0  0
   59.0550   30.7560   46.8450 C   0  0  0  0  0  0  0  0  0  0  0  0
   58.2710   30.7080   45.6430 N   0  0  0  0  0  0  0  0  0  0  0  0
   57.2970   31.6780   45.2320 C   0  0  0  0  0  0  0  0  0  0  0  0
   56.2710   31.3270   44.5870 O   0  0  0  0  0  0  0  0  0  0  0  0
   57.4580   33.1040   45.6390 C   0  0  0  0  0  0  0  0  0  0  0  0
   58.9300   33.8220   44.8300 S   0  0  0  0  0  0  0  0  0  0  0  0
   59.8770   34.0090   46.3450 C   0  0  0  0  0  0  0  0  0  0  0  0
   59.2490   34.4580   47.5150 C   0  0  0  0  0  0  0  0  0  0  0  0
   59.9840   34.5910   48.6970 C   0  0  0  0  0  0  0  0  0  0  0  0
   61.3460   34.2730   48.7140 C   0  0  0  0  0  0  0  0  0  0  0  0
   61.9730   33.8180   47.5500 C   0  0  0  0  0  0  0  0  0  0  0  0
   61.2380   33.6800   46.3670 C   0  0  0  0  0  0  0  0  0  0  0  0
   59.9177   27.8405   45.7184 H   0  0  0  0  0  0  0  0  0  0  0  0
   59.4350   28.8833   44.3378 H   0  0  0  0  0  0  0  0  0  0  0  0
   61.0417   28.0800   44.3378 H   0  0  0  0  0  0  0  0  0  0  0  0
   62.1835   29.9323   47.9591 H   0  0  0  0  0  0  0  0  0  0  0  0
   61.6567   32.8918   52.1244 H   0  0  0  0  0  0  0  0  0  0  0  0
   63.5855   34.4506   52.3855 H   0  0  0  0  0  0  0  0  0  0  0  0
   65.5850   34.2288   50.9059 H   0  0  0  0  0  0  0  0  0  0  0  0
   65.6609   32.4358   49.1707 H   0  0  0  0  0  0  0  0  0  0  0  0
   63.7182   30.8944   48.8799 H   0  0  0  0  0  0  0  0  0  0  0  0
   59.2280   32.8190   50.7530 H   0  0  0  0  0  0  0  0  0  0  0  0
   57.4292   31.7545   53.2736 H   0  0  0  0  0  0  0  0  0  0  0  0
   57.4169   33.1921   52.1966 H   0  0  0  0  0  0  0  0  0  0  0  0
   56.0240   32.0579   52.1966 H   0  0  0  0  0  0  0  0  0  0  0  0
   57.5041   31.6733   48.0554 H   0  0  0  0  0  0  0  0  0  0  0  0
   56.5645   33.6714   45.3395 H   0  0  0  0  0  0  0  0  0  0  0  0
   57.5843   33.1560   46.7305 H   0  0  0  0  0  0  0  0  0  0  0  0
   58.1774   34.7059   47.5032 H   0  0  0  0  0  0  0  0  0  0  0  0
   59.4909   34.9459   49.6140 H   0  0  0  0  0  0  0  0  0  0  0  0
   61.9241   34.3809   49.6436 H   0  0  0  0  0  0  0  0  0  0  0  0
   63.0442   33.5684   47.5641 H   0  0  0  0  0  0  0  0  0  0  0  0
   61.7296   33.3129   45.4540 H   0  0  0  0  0  0  0  0  0  0  0  0
  1  2  1  0
  2  3  1  0
  3  4  2  0
  4  5  1  0
  5  6  1  0
  6  7  1  0
  7  8  2  0
  8  9  1  0
  9 10  2  0
 10 11  1  0
 11 12  2  0
  5 13  2  0
 13 14  1  0
 14 15  1  0
 15 16  1  0
 15 17  2  0
 13 18  1  0
 18 19  2  0
 19 20  1  0
 20 21  1  0
 21 22  2  0
 21 23  1  0
 23 24  1  0
 24 25  1  0
 25 26  2  0
 26 27  1  0
 27 28  2  0
 28 29  1  0
 29 30  2  0
 19  3  1  0
 30 25  1  0
 12  7  1  0
  1 31  1  0
  1 32  1  0
  1 33  1  0
  4 34  1  0
  8 35  1  0
  9 36  1  0
 10 37  1  0
 11 38  1  0
 12 39  1  0
 14 40  1  0
 16 41  1  0
 16 42  1  0
 16 43  1  0
 18 44  1  0
 23 45  1  0
 23 46  1  0
 26 47  1  0
 27 48  1  0
 28 49  1  0
 29 50  1  0
 30 51  1  0
M  CHG  1  20  -1
M  END
>  <UniqueID>  (42) 
40

>  <SMILES>  (42) 
COc1cc(Oc2ccccc2)c(NC(C)=O)cc1[N-]C(=O)CSc1ccccc1

>  <Energy>  (42) 
59.53908179372712

>  <Genealogy>  (42) 
COc1cc(Oc2ccccc2)c(NC(C)=O)cc1[N-]C(=O)CSc1ccccc1 (protonated)
COc1cc(Oc2ccccc2)c(NC(C)=O)cc1[N-]C(=O)CSc1ccccc1 (3D coordinates assigned)
COc1cc(Oc2ccccc2)c(NC(C)=O)cc1[N-]C(=O)CSc1ccccc1 (optimized conformer: 59.53908179372712 kcal/mol)

>  <smiles>  (42) 
COc1cc(Oc2ccccc2)c(NC(C)=O)cc1NC(=O)CSc1ccccc1

>  <score_type>  (42) 
oracle

>  <origin>  (42) 
adg

>  <m_score__min__energy>  (42) 
-9.9900000000000002

>  <m_primary>  (42) 
energy

$$$$
42:0
     RDKit          3D

 40 43  0  0  0  0  0  0  0  0999 V2000
   54.7670   26.1560   45.9360 N   0  0  0  0  0  0  0  0  0  0  0  0
   56.2910   25.4150   46.2730 S   0  0  0  0  0  0  0  0  0  0  0  0
   56.6300   24.4420   45.1780 O   0  0  0  0  0  0  0  0  0  0  0  0
   56.2120   24.6690   47.5750 O   0  0  0  0  0  0  0  0  0  0  0  0
   57.5340   26.6580   46.3760 C   0  0  0  0  0  0  0  0  0  0  0  0
   58.8150   26.3400   46.8430 C   0  0  0  0  0  0  0  0  0  0  0  0
   59.8050   27.3220   46.9000 C   0  0  0  0  0  0  0  0  0  0  0  0
   59.5220   28.6290   46.4940 C   0  0  0  0  0  0  0  0  0  0  0  0
   58.2380   28.9650   46.0360 C   0  0  0  0  0  0  0  0  0  0  0  0
   57.9590   30.3430   45.5870 C   0  0  0  0  0  0  0  0  0  0  0  0
   56.8550   30.6840   44.8900 N   0  0  0  0  0  0  0  0  0  0  0  0
   56.9360   31.9840   44.6370 N   0  0  0  0  0  0  0  0  0  0  0  0
   58.0890   32.4200   45.1780 C   0  0  0  0  0  0  0  0  0  0  0  0
   58.7010   34.0980   44.9890 S   0  0  0  0  0  0  0  0  0  0  0  0
   58.3780   34.5890   46.7200 C   0  0  0  0  0  0  0  0  0  0  0  0
   59.3020   33.8880   47.6600 C   0  0  0  0  0  0  0  0  0  0  0  0
   58.9170   32.9690   48.5650 N   0  0  0  0  0  0  0  0  0  0  0  0
   60.0090   32.6270   49.2320 N   0  0  0  0  0  0  0  0  0  0  0  0
   61.0130   33.3560   48.7080 C   0  0  0  0  0  0  0  0  0  0  0  0
   62.4040   33.3080   49.1690 C   0  0  0  0  0  0  0  0  0  0  0  0
   62.8670   33.6880   50.4220 C   0  0  0  0  0  0  0  0  0  0  0  0
   64.2520   33.5400   50.5620 C   0  0  0  0  0  0  0  0  0  0  0  0
   64.8790   33.0490   49.4240 C   0  0  0  0  0  0  0  0  0  0  0  0
   63.7100   32.7970   48.2420 S   0  0  0  0  0  0  0  0  0  0  0  0
   60.5870   34.1300   47.7420 O   0  0  0  0  0  0  0  0  0  0  0  0
   58.7480   31.4180   45.7860 N   0  0  0  0  0  0  0  0  0  0  0  0
   60.0520   31.4570   46.3040 N   0  0  0  0  0  0  0  0  0  0  0  0
   57.2520   27.9670   45.9600 C   0  0  0  0  0  0  0  0  0  0  0  0
   54.7720   27.0900   46.4040 H   0  0  0  0  0  0  0  0  0  0  0  0
   59.0418   25.3132   47.1659 H   0  0  0  0  0  0  0  0  0  0  0  0
   60.8106   27.0666   47.2654 H   0  0  0  0  0  0  0  0  0  0  0  0
   60.3082   29.3974   46.5334 H   0  0  0  0  0  0  0  0  0  0  0  0
   58.5222   35.6751   46.8180 H   0  0  0  0  0  0  0  0  0  0  0  0
   57.3446   34.3111   46.9745 H   0  0  0  0  0  0  0  0  0  0  0  0
   62.2131   34.0661   51.2217 H   0  0  0  0  0  0  0  0  0  0  0  0
   64.7931   33.7892   51.4867 H   0  0  0  0  0  0  0  0  0  0  0  0
   65.9567   32.8576   49.3147 H   0  0  0  0  0  0  0  0  0  0  0  0
   60.2730   32.0370   47.1450 H   0  0  0  0  0  0  0  0  0  0  0  0
   60.8400   30.9720   45.8220 H   0  0  0  0  0  0  0  0  0  0  0  0
   56.2528   28.2140   45.5718 H   0  0  0  0  0  0  0  0  0  0  0  0
  1  2  1  0
  2  3  2  0
  2  4  2  0
  2  5  1  0
  5  6  2  0
  6  7  1  0
  7  8  2  0
  8  9  1  0
  9 10  1  0
 10 11  2  0
 11 12  1  0
 12 13  2  0
 13 14  1  0
 14 15  1  0
 15 16  1  0
 16 17  2  0
 17 18  1  0
 18 19  2  0
 19 20  1  0
 20 21  2  0
 21 22  1  0
 22 23  2  0
 23 24  1  0
 19 25  1  0
 13 26  1  0
 26 27  1  0
  9 28  2  0
 28  5  1  0
 26 10  1  0
 25 16  1  0
 24 20  1  0
  1 29  1  0
  6 30  1  0
  7 31  1  0
  8 32  1  0
 15 33  1  0
 15 34  1  0
 21 35  1  0
 22 36  1  0
 23 37  1  0
 27 38  1  0
 27 39  1  0
 28 40  1  0
M  CHG  1   1  -1
M  END
>  <UniqueID>  (43) 
41

>  <SMILES>  (43) 
[NH-]S(=O)(=O)c1cccc(-c2nnc(SCc3nnc(-c4cccs4)o3)n2N)c1

>  <Energy>  (43) 
138.59901432045962

>  <Genealogy>  (43) 
[NH-]S(=O)(=O)c1cccc(-c2nnc(SCc3nnc(-c4cccs4)o3)n2N)c1 (protonated)
[NH-]S(=O)(=O)c1cccc(-c2nnc(SCc3nnc(-c4cccs4)o3)n2N)c1 (3D coordinates assigned)
[NH-]S(=O)(=O)c1cccc(-c2nnc(SCc3nnc(-c4cccs4)o3)n2N)c1 (optimized conformer: 138.59901432045962 kcal/mol)

>  <smiles>  (43) 
Nn1c(SCc2nnc(-c3cccs3)o2)nnc1-c1cccc(S(N)(=O)=O)c1

>  <score_type>  (43) 
oracle

>  <origin>  (43) 
adg

>  <m_score__min__energy>  (43) 
-11.970000000000001

>  <m_primary>  (43) 
energy

$$$$
43:0
     RDKit          3D

 55 57  0  0  0  0  0  0  0  0999 V2000
   61.0230   34.1700   49.2520 C   0  0  0  0  0  0  0  0  0  0  0  0
   61.0840   33.6040   47.9060 N   0  0  0  0  0  0  0  0  0  0  0  0
   59.9400   33.6970   47.0370 C   0  0  0  0  0  0  0  0  0  0  0  0
   59.9990   34.4670   45.8610 C   0  0  0  0  0  0  0  0  0  0  0  0
   58.8810   34.5770   45.0300 C   0  0  0  0  0  0  0  0  0  0  0  0
   57.6930   33.9220   45.3640 C   0  0  0  0  0  0  0  0  0  0  0  0
   57.6210   33.1600   46.5330 C   0  0  0  0  0  0  0  0  0  0  0  0
   58.7360   33.0500   47.3680 C   0  0  0  0  0  0  0  0  0  0  0  0
   62.5080   32.7270   47.4190 S   0  0  0  0  0  0  0  0  0  0  0  0
   63.3160   33.5510   46.4540 O   0  0  0  0  0  0  0  0  0  0  0  0
   62.1030   31.4500   46.7380 O   0  0  0  0  0  0  0  0  0  0  0  0
   63.5060   32.3750   48.8270 C   0  0  0  0  0  0  0  0  0  0  0  0
   64.6960   33.0840   49.0410 C   0  0  0  0  0  0  0  0  0  0  0  0
   65.4920   32.8010   50.1530 C   0  0  0  0  0  0  0  0  0  0  0  0
   65.0930   31.8250   51.0710 C   0  0  0  0  0  0  0  0  0  0  0  0
   63.8850   31.1400   50.8930 C   0  0  0  0  0  0  0  0  0  0  0  0
   63.4980   30.1500   51.8540 N   0  0  0  0  0  0  0  0  0  0  0  0
   62.4030   29.2370   51.7100 C   0  0  0  0  0  0  0  0  0  0  0  0
   62.4460   28.1320   52.3160 O   0  0  0  0  0  0  0  0  0  0  0  0
   61.2430   29.5900   50.9440 N   0  0  0  0  0  0  0  0  0  0  0  0
   60.1810   28.6230   50.6740 C   0  0  0  0  0  0  0  0  0  0  0  0
   60.5740   27.7110   49.5540 C   0  0  0  0  0  0  0  0  0  0  0  0
   60.7830   26.4910   49.7890 O   0  0  0  0  0  0  0  0  0  0  0  0
   60.7010   28.2330   48.2250 N   0  0  0  0  0  0  0  0  0  0  0  0
   59.7130   28.1390   47.1890 C   0  0  0  0  0  0  0  0  0  0  0  0
   59.7410   29.0630   46.1390 C   0  0  0  0  0  0  0  0  0  0  0  0
   58.8040   28.9850   45.1040 C   0  0  0  0  0  0  0  0  0  0  0  0
   57.8420   27.9710   45.1040 C   0  0  0  0  0  0  0  0  0  0  0  0
   57.8170   27.0240   46.1370 C   0  0  0  0  0  0  0  0  0  0  0  0
   56.6340   25.7210   46.1400 S   0  0  0  0  0  0  0  0  0  0  0  0
   55.0450   26.3880   46.0140 N   0  0  0  0  0  0  0  0  0  0  0  0
   56.7550   24.9400   47.4180 O   0  0  0  0  0  0  0  0  0  0  0  0
   56.8690   24.7960   44.9780 O   0  0  0  0  0  0  0  0  0  0  0  0
   58.7570   27.1070   47.1730 C   0  0  0  0  0  0  0  0  0  0  0  0
   63.1070   31.3990   49.7510 C   0  0  0  0  0  0  0  0  0  0  0  0
   61.1100   33.3623   49.9937 H   0  0  0  0  0  0  0  0  0  0  0  0
   61.8495   34.8831   49.3877 H   0  0  0  0  0  0  0  0  0  0  0  0
   60.0635   34.6906   49.3877 H   0  0  0  0  0  0  0  0  0  0  0  0
   60.9314   34.9859   45.5939 H   0  0  0  0  0  0  0  0  0  0  0  0
   58.9363   35.1801   44.1117 H   0  0  0  0  0  0  0  0  0  0  0  0
   56.8148   34.0061   44.7070 H   0  0  0  0  0  0  0  0  0  0  0  0
   56.6849   32.6458   46.7964 H   0  0  0  0  0  0  0  0  0  0  0  0
   58.6716   32.4536   48.2900 H   0  0  0  0  0  0  0  0  0  0  0  0
   65.0038   33.8657   48.3309 H   0  0  0  0  0  0  0  0  0  0  0  0
   66.4345   33.3469   50.3069 H   0  0  0  0  0  0  0  0  0  0  0  0
   65.7309   31.5943   51.9369 H   0  0  0  0  0  0  0  0  0  0  0  0
   61.1410   30.5760   50.6110 H   0  0  0  0  0  0  0  0  0  0  0  0
   59.9966   28.0258   51.5792 H   0  0  0  0  0  0  0  0  0  0  0  0
   59.2694   29.1672   50.3861 H   0  0  0  0  0  0  0  0  0  0  0  0
   60.5042   29.8551   46.1275 H   0  0  0  0  0  0  0  0  0  0  0  0
   58.8240   29.7229   44.2884 H   0  0  0  0  0  0  0  0  0  0  0  0
   57.1027   27.9161   44.2913 H   0  0  0  0  0  0  0  0  0  0  0  0
   55.1460   27.4280   46.0250 H   0  0  0  0  0  0  0  0  0  0  0  0
   58.7473   26.3595   47.9799 H   0  0  0  0  0  0  0  0  0  0  0  0
   62.1795   30.8324   49.5814 H   0  0  0  0  0  0  0  0  0  0  0  0
  1  2  1  0
  2  3  1  0
  3  4  2  0
  4  5  1  0
  5  6  2  0
  6  7  1  0
  7  8  2  0
  2  9  1  0
  9 10  2  0
  9 11  2  0
  9 12  1  0
 12 13  2  0
 13 14  1  0
 14 15  2  0
 15 16  1  0
 16 17  1  0
 17 18  1  0
 18 19  2  0
 18 20  1  0
 20 21  1  0
 21 22  1  0
 22 23  2  0
 22 24  1  0
 24 25  1  0
 25 26  2  0
 26 27  1  0
 27 28  2  0
 28 29  1  0
 29 30  1  0
 30 31  1  0
 30 32  2  0
 30 33  2  0
 29 34  2  0
 16 35  2  0
  8  3  1  0
 35 12  1  0
 34 25  1  0
  1 36  1  0
  1 37  1  0
  1 38  1  0
  4 39  1  0
  5 40  1  0
  6 41  1  0
  7 42  1  0
  8 43  1  0
 13 44  1  0
 14 45  1  0
 15 46  1  0
 20 47  1  0
 21 48  1  0
 21 49  1  0
 26 50  1  0
 27 51  1  0
 28 52  1  0
 31 53  1  0
 34 54  1  0
 35 55  1  0
M  CHG  3  17  -1  24  -1  31  -1
M  END
>  <UniqueID>  (44) 
42

>  <SMILES>  (44) 
CN(c1ccccc1)S(=O)(=O)c1cccc([N-]C(=O)NCC(=O)[N-]c2cccc(S([NH-])(=O)=O)c2)c1

>  <Energy>  (44) 
62.30312060209221

>  <Genealogy>  (44) 
CN(c1ccccc1)S(=O)(=O)c1cccc([N-]C(=O)NCC(=O)[N-]c2cccc(S([NH-])(=O)=O)c2)c1 (protonated)
CN(c1ccccc1)S(=O)(=O)c1cccc([N-]C(=O)NCC(=O)[N-]c2cccc(S([NH-])(=O)=O)c2)c1 (3D coordinates assigned)
CN(c1ccccc1)S(=O)(=O)c1cccc([N-]C(=O)NCC(=O)[N-]c2cccc(S([NH-])(=O)=O)c2)c1 (optimized conformer: 62.30312060209221 kcal/mol)

>  <smiles>  (44) 
CN(c1ccccc1)S(=O)(=O)c1cccc(NC(=O)NCC(=O)Nc2cccc(S(N)(=O)=O)c2)c1

>  <score_type>  (44) 
oracle

>  <origin>  (44) 
adg

>  <m_score__min__energy>  (44) 
-15.35

>  <m_primary>  (44) 
energy

$$$$
44:0
     RDKit          3D

 55 58  0  0  0  0  0  0  0  0999 V2000
   64.1000   33.7190   50.5190 O   0  0  0  0  0  0  0  0  0  0  0  0
   63.7860   32.7620   49.7630 C   0  0  0  0  0  0  0  0  0  0  0  0
   63.2400   31.4950   50.3470 C   0  0  0  0  0  0  0  0  0  0  0  0
   61.7070   31.4890   50.3420 C   0  0  0  0  0  0  0  0  0  0  0  0
   61.1560   30.1970   49.7940 C   0  0  0  0  0  0  0  0  0  0  0  0
   61.0990   29.0520   50.6040 C   0  0  0  0  0  0  0  0  0  0  0  0
   60.5550   27.8630   50.1070 C   0  0  0  0  0  0  0  0  0  0  0  0
   60.0580   27.8120   48.8010 C   0  0  0  0  0  0  0  0  0  0  0  0
   59.5210   26.6620   48.3240 N   0  0  0  0  0  0  0  0  0  0  0  0
   59.0270   26.5750   47.0630 C   0  0  0  0  0  0  0  0  0  0  0  0
   58.5270   25.4820   46.6810 O   0  0  0  0  0  0  0  0  0  0  0  0
   59.0670   27.6620   46.2210 N   0  0  0  0  0  0  0  0  0  0  0  0
   58.5550   27.5360   44.8400 C   0  0  0  0  0  0  0  0  0  0  0  0
   57.6250   28.6780   44.5020 C   0  0  0  0  0  0  0  0  0  0  0  0
   58.1100   29.7840   43.7830 C   0  0  0  0  0  0  0  0  0  0  0  0
   57.2650   30.8560   43.4730 C   0  0  0  0  0  0  0  0  0  0  0  0
   57.9360   32.3470   42.4910 Br  0  0  0  0  0  0  0  0  0  0  0  0
   55.9280   30.8310   43.8780 C   0  0  0  0  0  0  0  0  0  0  0  0
   55.4350   29.7380   44.5920 C   0  0  0  0  0  0  0  0  0  0  0  0
   56.2740   28.6630   44.9050 C   0  0  0  0  0  0  0  0  0  0  0  0
   55.7540   27.5840   45.6100 O   0  0  0  0  0  0  0  0  0  0  0  0
   59.5850   28.8540   46.6750 C   0  0  0  0  0  0  0  0  0  0  0  0
   59.5950   29.8720   45.9260 O   0  0  0  0  0  0  0  0  0  0  0  0
   60.1010   28.9530   47.9800 C   0  0  0  0  0  0  0  0  0  0  0  0
   60.6490   30.1460   48.4850 C   0  0  0  0  0  0  0  0  0  0  0  0
   63.9880   32.8560   48.3540 N   0  0  0  0  0  0  0  0  0  0  0  0
   62.6950   33.0960   47.2270 S   0  0  0  0  0  0  0  0  0  0  0  0
   63.1780   33.9100   46.0580 O   0  0  0  0  0  0  0  0  0  0  0  0
   62.1920   31.7620   46.7450 O   0  0  0  0  0  0  0  0  0  0  0  0
   61.3720   33.9820   48.0340 C   0  0  0  0  0  0  0  0  0  0  0  0
   60.1110   33.8850   47.2210 C   0  0  0  0  0  0  0  0  0  0  0  0
   59.0260   33.1160   47.6800 C   0  0  0  0  0  0  0  0  0  0  0  0
   57.8350   33.0670   46.9450 C   0  0  0  0  0  0  0  0  0  0  0  0
   57.7160   33.7890   45.7540 C   0  0  0  0  0  0  0  0  0  0  0  0
   58.7870   34.5640   45.2970 C   0  0  0  0  0  0  0  0  0  0  0  0
   59.9790   34.6150   46.0270 C   0  0  0  0  0  0  0  0  0  0  0  0
   63.6027   30.6426   49.7538 H   0  0  0  0  0  0  0  0  0  0  0  0
   63.5820   31.4202   51.3898 H   0  0  0  0  0  0  0  0  0  0  0  0
   61.3467   31.6214   51.3728 H   0  0  0  0  0  0  0  0  0  0  0  0
   61.3631   32.3099   49.6956 H   0  0  0  0  0  0  0  0  0  0  0  0
   61.4837   29.0899   51.6338 H   0  0  0  0  0  0  0  0  0  0  0  0
   60.5181   26.9671   50.7442 H   0  0  0  0  0  0  0  0  0  0  0  0
   59.4032   27.5432   44.1396 H   0  0  0  0  0  0  0  0  0  0  0  0
   57.9960   26.5922   44.7578 H   0  0  0  0  0  0  0  0  0  0  0  0
   59.1617   29.8073   43.4614 H   0  0  0  0  0  0  0  0  0  0  0  0
   55.2638   31.6732   43.6340 H   0  0  0  0  0  0  0  0  0  0  0  0
   54.3821   29.7216   44.9101 H   0  0  0  0  0  0  0  0  0  0  0  0
   60.6807   31.0444   47.8511 H   0  0  0  0  0  0  0  0  0  0  0  0
   61.1972   33.5469   49.0291 H   0  0  0  0  0  0  0  0  0  0  0  0
   61.6558   35.0403   48.1316 H   0  0  0  0  0  0  0  0  0  0  0  0
   59.1135   32.5511   48.6198 H   0  0  0  0  0  0  0  0  0  0  0  0
   56.9918   32.4594   47.3055 H   0  0  0  0  0  0  0  0  0  0  0  0
   56.7807   33.7477   45.1765 H   0  0  0  0  0  0  0  0  0  0  0  0
   58.6916   35.1346   44.3614 H   0  0  0  0  0  0  0  0  0  0  0  0
   60.8168   35.2291   45.6652 H   0  0  0  0  0  0  0  0  0  0  0  0
  1  2  2  0
  2  3  1  0
  3  4  1  0
  4  5  1  0
  5  6  2  0
  6  7  1  0
  7  8  2  0
  8  9  1  0
  9 10  1  0
 10 11  2  0
 10 12  1  0
 12 13  1  0
 13 14  1  0
 14 15  2  0
 15 16  1  0
 16 17  1  0
 16 18  2  0
 18 19  1  0
 19 20  2  0
 20 21  1  0
 12 22  1  0
 22 23  2  0
 22 24  1  0
 24 25  2  0
  2 26  1  0
 26 27  1  0
 27 28  2  0
 27 29  2  0
 27 30  1  0
 30 31  1  0
 31 32  2  0
 32 33  1  0
 33 34  2  0
 34 35  1  0
 35 36  2  0
 25  5  1  0
 36 31  1  0
 24  8  1  0
 20 14  1  0
  3 37  1  0
  3 38  1  0
  4 39  1  0
  4 40  1  0
  6 41  1  0
  7 42  1  0
 13 43  1  0
 13 44  1  0
 15 45  1  0
 18 46  1  0
 19 47  1  0
 25 48  1  0
 30 49  1  0
 30 50  1  0
 32 51  1  0
 33 52  1  0
 34 53  1  0
 35 54  1  0
 36 55  1  0
M  CHG  3   9  -1  21  -1  26  -1
M  END
>  <UniqueID>  (45) 
43

>  <SMILES>  (45) 
O=C(CCc1ccc2[n-]c(=O)n(Cc3cc(Br)ccc3[O-])c(=O)c2c1)[N-]S(=O)(=O)Cc1ccccc1

>  <Energy>  (45) 
61.040017419777875

>  <Genealogy>  (45) 
O=C(CCc1ccc2[n-]c(=O)n(Cc3cc(Br)ccc3[O-])c(=O)c2c1)[N-]S(=O)(=O)Cc1ccccc1 (protonated)
O=C(CCc1ccc2[n-]c(=O)n(Cc3cc(Br)ccc3[O-])c(=O)c2c1)[N-]S(=O)(=O)Cc1ccccc1 (3D coordinates assigned)
O=C(CCc1ccc2[n-]c(=O)n(Cc3cc(Br)ccc3[O-])c(=O)c2c1)[N-]S(=O)(=O)Cc1ccccc1 (optimized conformer: 61.040017419777875 kcal/mol)

>  <smiles>  (45) 
O=C(CCc1ccc2[nH]c(=O)n(Cc3cc(Br)ccc3O)c(=O)c2c1)NS(=O)(=O)Cc1ccccc1

>  <score_type>  (45) 
oracle

>  <origin>  (45) 
adg

>  <m_score__min__energy>  (45) 
-15.640000000000001

>  <m_primary>  (45) 
energy

$$$$
45:0
     RDKit          3D

 45 49  0  0  0  0  0  0  0  0999 V2000
   53.0242   30.5314   50.5784 H   0  0  0  0  0  0  0  0  0  0  0  0
   52.8900   30.5500   51.6700 C   0  0  0  0  0  0  0  0  0  0  0  0
   51.8780   31.4640   52.2270 C   0  0  0  0  0  0  0  0  0  0  0  0
   51.5390   31.4840   53.5280 N   0  0  0  0  0  0  0  0  0  0  0  0
   50.5430   32.3930   53.5800 C   0  0  0  0  0  0  0  0  0  0  0  0
   49.9640   32.7040   54.6530 O   0  0  0  0  0  0  0  0  0  0  0  0
   50.2070   32.9350   52.3900 N   0  0  0  0  0  0  0  0  0  0  0  0
   51.0520   32.3280   51.5410 C   0  0  0  0  0  0  0  0  0  0  0  0
   51.0300   32.5240   50.1650 O   0  0  0  0  0  0  0  0  0  0  0  0
   53.6570   29.7400   52.4120 C   0  0  0  0  0  0  0  0  0  0  0  0
   53.2810   28.6690   53.2320 C   0  0  0  0  0  0  0  0  0  0  0  0
   52.2480   28.3419   53.4214 H   0  0  0  0  0  0  0  0  0  0  0  0
   54.3930   28.1010   53.7540 N   0  0  0  0  0  0  0  0  0  0  0  0
   54.4270   27.2750   54.3930 H   0  0  0  0  0  0  0  0  0  0  0  0
   55.4420   28.7630   53.2950 N   0  0  0  0  0  0  0  0  0  0  0  0
   56.7560   28.5440   53.5360 C   0  0  0  0  0  0  0  0  0  0  0  0
   57.1360   27.5800   54.3220 N   0  0  0  0  0  0  0  0  0  0  0  0
   58.5290   27.3530   54.6950 C   0  0  0  0  0  0  0  0  0  0  0  0
   58.6117   28.1458   55.4530 H   0  0  0  0  0  0  0  0  0  0  0  0
   58.9310   25.8940   54.6080 C   0  0  0  0  0  0  0  0  0  0  0  0
   59.6523   25.4782   55.3269 H   0  0  0  0  0  0  0  0  0  0  0  0
   58.3892   24.9367   54.5984 H   0  0  0  0  0  0  0  0  0  0  0  0
   59.3970   26.8780   53.5450 C   0  0  0  0  0  0  0  0  0  0  0  0
   60.4552   27.1743   53.4952 H   0  0  0  0  0  0  0  0  0  0  0  0
   59.3320   26.9279   52.4481 H   0  0  0  0  0  0  0  0  0  0  0  0
   57.6630   29.3600   52.9250 N   0  0  0  0  0  0  0  0  0  0  0  0
   57.2520   30.3700   52.0940 C   0  0  0  0  0  0  0  0  0  0  0  0
   58.2210   31.2230   51.4580 N   0  0  0  0  0  0  0  0  0  0  0  0
   58.8380   30.8700   50.1750 C   0  0  0  0  0  0  0  0  0  0  0  0
   58.8202   29.7770   50.0525 H   0  0  0  0  0  0  0  0  0  0  0  0
   58.2728   31.3499   49.3625 H   0  0  0  0  0  0  0  0  0  0  0  0
   60.2920   31.3610   50.1290 C   0  0  0  0  0  0  0  0  0  0  0  0
   60.8090   30.9914   51.0268 H   0  0  0  0  0  0  0  0  0  0  0  0
   60.7261   30.9732   49.1956 H   0  0  0  0  0  0  0  0  0  0  0  0
   60.4430   32.9000   50.0820 C   0  0  0  0  0  0  0  0  0  0  0  0
   61.3960   33.1592   50.5665 H   0  0  0  0  0  0  0  0  0  0  0  0
   60.3901   33.1698   49.0169 H   0  0  0  0  0  0  0  0  0  0  0  0
   59.3280   33.7120   50.7710 C   0  0  0  0  0  0  0  0  0  0  0  0
   59.7643   34.6331   51.1847 H   0  0  0  0  0  0  0  0  0  0  0  0
   58.5589   33.9373   50.0175 H   0  0  0  0  0  0  0  0  0  0  0  0
   58.5520   32.8020   52.0900 S   0  0  0  0  0  0  0  0  0  0  0  0
   57.2760   33.4890   52.4860 O   0  0  0  0  0  0  0  0  0  0  0  0
   59.4770   32.7030   53.2710 O   0  0  0  0  0  0  0  0  0  0  0  0
   55.9170   30.5640   51.8710 N   0  0  0  0  0  0  0  0  0  0  0  0
   55.0350   29.7430   52.4870 C   0  0  0  0  0  0  0  0  0  0  0  0
  1  2  1  0
  2  3  1  0
  3  4  1  0
  4  5  1  0
  5  6  2  0
  5  7  1  0
  7  8  1  0
  8  9  1  0
  2 10  2  3
 10 11  1  0
 11 12  1  0
 11 13  2  0
 13 14  1  0
 13 15  1  0
 15 16  1  0
 16 17  2  0
 17 18  1  0
 18 19  1  0
 18 20  1  0
 20 21  1  0
 20 22  1  0
 20 23  1  0
 23 24  1  0
 23 25  1  0
 16 26  1  0
 26 27  2  0
 27 28  1  0
 28 29  1  0
 29 30  1  0
 29 31  1  0
 29 32  1  0
 32 33  1  0
 32 34  1  0
 32 35  1  0
 35 36  1  0
 35 37  1  0
 35 38  1  0
 38 39  1  0
 38 40  1  0
 38 41  1  0
 41 42  2  0
 41 43  2  0
 27 44  1  0
 44 45  2  0
  8  3  2  0
 45 10  1  0
 45 15  1  0
 23 18  1  0
 41 28  1  0
M  CHG  4   4  -1   7  -1   9  -1  13   1
M  END
>  <UniqueID>  (46) 
44

>  <SMILES>  (46) 
O=c1[n-]c([O-])c(C=c2c[nH+]n3/c(=N/C4CC4)nc(N4CCCCS4(=O)=O)nc23)[n-]1

>  <Energy>  (46) 
390.01101107635844

>  <Genealogy>  (46) 
O=c1[n-]c([O-])c(C=c2c[nH+]n3c(=NC4CC4)nc(N4CCCCS4(=O)=O)nc23)[n-]1 (protonated)
O=c1[n-]c([O-])c(C=c2c[nH+]n3/c(=N/C4CC4)nc(N4CCCCS4(=O)=O)nc23)[n-]1 (cis-trans isomerization)
O=c1[n-]c([O-])c(C=c2c[nH+]n3/c(=N/C4CC4)nc(N4CCCCS4(=O)=O)nc23)[n-]1 (3D coordinates assigned)
O=c1[n-]c([O-])c(C=c2c[nH+]n3/c(=N/C4CC4)nc(N4CCCCS4(=O)=O)nc23)[n-]1 (nonaromatic ring conformer: 390.01101107635844 kcal/mol)

>  <smiles>  (46) 
O=c1[nH]c(O)c(C=c2cnn3c(=NC4CC4)nc(N4CCCCS4(=O)=O)nc23)[nH]1

>  <score_type>  (46) 
oracle

>  <origin>  (46) 
adg

>  <m_score__min__energy>  (46) 
-15.06

>  <m_primary>  (46) 
energy

$$$$
46:0
     RDKit          3D

 73 77  0  0  0  0  0  0  0  0999 V2000
   53.4750   24.4380   44.7960 O   0  0  0  0  0  0  0  0  0  0  0  0
   54.3520   24.6760   45.6670 C   0  0  0  0  0  0  0  0  0  0  0  0
   55.0210   23.5360   46.3900 C   0  0  0  0  0  0  0  0  0  0  0  0
   56.5170   23.3620   46.0300 C   0  0  0  0  0  0  0  0  0  0  0  0
   57.4010   24.3070   46.7480 N   0  0  0  0  0  0  0  0  0  0  0  0
   58.6110   24.9400   45.6510 S   0  0  0  0  0  0  0  0  0  0  0  0
   58.0440   24.9370   44.2600 O   0  0  0  0  0  0  0  0  0  0  0  0
   59.8340   24.0640   45.6530 O   0  0  0  0  0  0  0  0  0  0  0  0
   59.0800   26.5850   46.0850 C   0  0  0  0  0  0  0  0  0  0  0  0
   59.1600   27.5790   45.1010 C   0  0  0  0  0  0  0  0  0  0  0  0
   59.5550   28.8740   45.4410 C   0  0  0  0  0  0  0  0  0  0  0  0
   59.8450   29.1990   46.7710 C   0  0  0  0  0  0  0  0  0  0  0  0
   60.1880   30.5160   47.0910 O   0  0  0  0  0  0  0  0  0  0  0  0
   61.4700   31.0570   46.7790 C   0  0  0  0  0  0  0  0  0  0  0  0
   61.7960   32.2010   47.7130 C   0  0  0  0  0  0  0  0  0  0  0  0
   62.9330   32.1080   48.5370 C   0  0  0  0  0  0  0  0  0  0  0  0
   63.2130   33.0980   49.4800 C   0  0  0  0  0  0  0  0  0  0  0  0
   62.3560   34.1890   49.6230 C   0  0  0  0  0  0  0  0  0  0  0  0
   61.2210   34.3000   48.8160 C   0  0  0  0  0  0  0  0  0  0  0  0
   60.9360   33.3220   47.8500 C   0  0  0  0  0  0  0  0  0  0  0  0
   59.7360   33.4920   47.0020 C   0  0  0  0  0  0  0  0  0  0  0  0
   59.7730   34.3350   45.8780 C   0  0  0  0  0  0  0  0  0  0  0  0
   58.6340   34.5010   45.0830 C   0  0  0  0  0  0  0  0  0  0  0  0
   57.4490   33.8380   45.4120 C   0  0  0  0  0  0  0  0  0  0  0  0
   57.3980   33.0150   46.5420 C   0  0  0  0  0  0  0  0  0  0  0  0
   58.5350   32.8480   47.3390 C   0  0  0  0  0  0  0  0  0  0  0  0
   59.7710   28.2050   47.7650 C   0  0  0  0  0  0  0  0  0  0  0  0
   60.1180   28.5120   49.1640 C   0  0  0  0  0  0  0  0  0  0  0  0
   60.9820   27.8100   49.7510 O   0  0  0  0  0  0  0  0  0  0  0  0
   59.5250   29.6150   49.8590 N   0  0  0  0  0  0  0  0  0  0  0  0
   59.4170   29.6980   51.3090 C   0  0  0  0  0  0  0  0  0  0  0  0
   59.2860   31.1430   51.7160 C   0  0  0  0  0  0  0  0  0  0  0  0
   58.0050   31.7250   51.6730 C   0  0  0  0  0  0  0  0  0  0  0  0
   57.8220   33.0680   51.9920 C   0  0  0  0  0  0  0  0  0  0  0  0
   58.9160   33.8570   52.3440 C   0  0  0  0  0  0  0  0  0  0  0  0
   60.1970   33.3050   52.3830 C   0  0  0  0  0  0  0  0  0  0  0  0
   60.4120   31.9490   52.0570 C   0  0  0  0  0  0  0  0  0  0  0  0
   61.8180   31.3790   52.1100 C   0  0  0  0  0  0  0  0  0  0  0  0
   62.1240   30.7520   50.9170 F   0  0  0  0  0  0  0  0  0  0  0  0
   61.9070   30.4650   53.1440 F   0  0  0  0  0  0  0  0  0  0  0  0
   62.7610   32.3670   52.3270 F   0  0  0  0  0  0  0  0  0  0  0  0
   59.3930   26.9030   47.4140 C   0  0  0  0  0  0  0  0  0  0  0  0
   56.6530   25.4230   47.3710 C   0  0  0  0  0  0  0  0  0  0  0  0
   56.0710   26.4030   46.3370 C   0  0  0  0  0  0  0  0  0  0  0  0
   54.7140   26.0320   45.9520 N   0  0  0  0  0  0  0  0  0  0  0  0
   54.9432   23.7178   47.4721 H   0  0  0  0  0  0  0  0  0  0  0  0
   54.5070   22.6139   46.0810 H   0  0  0  0  0  0  0  0  0  0  0  0
   56.8212   22.3360   46.2845 H   0  0  0  0  0  0  0  0  0  0  0  0
   56.6215   23.5680   44.9545 H   0  0  0  0  0  0  0  0  0  0  0  0
   58.9107   27.3382   44.0570 H   0  0  0  0  0  0  0  0  0  0  0  0
   59.6388   29.6433   44.6592 H   0  0  0  0  0  0  0  0  0  0  0  0
   62.2321   30.2712   46.8873 H   0  0  0  0  0  0  0  0  0  0  0  0
   61.4597   31.4304   45.7444 H   0  0  0  0  0  0  0  0  0  0  0  0
   63.6084   31.2456   48.4367 H   0  0  0  0  0  0  0  0  0  0  0  0
   64.1104   33.0178   50.1110 H   0  0  0  0  0  0  0  0  0  0  0  0
   62.5742   34.9637   50.3728 H   0  0  0  0  0  0  0  0  0  0  0  0
   60.5459   35.1598   48.9384 H   0  0  0  0  0  0  0  0  0  0  0  0
   60.7015   34.8665   45.6224 H   0  0  0  0  0  0  0  0  0  0  0  0
   58.6713   35.1538   44.1984 H   0  0  0  0  0  0  0  0  0  0  0  0
   56.5558   33.9632   44.7822 H   0  0  0  0  0  0  0  0  0  0  0  0
   56.4627   32.4987   46.8040 H   0  0  0  0  0  0  0  0  0  0  0  0
   58.4880   32.2095   48.2335 H   0  0  0  0  0  0  0  0  0  0  0  0
   58.5303   29.1399   51.6441 H   0  0  0  0  0  0  0  0  0  0  0  0
   60.3162   29.2647   51.7712 H   0  0  0  0  0  0  0  0  0  0  0  0
   57.1386   31.1118   51.3841 H   0  0  0  0  0  0  0  0  0  0  0  0
   56.8136   33.5066   51.9662 H   0  0  0  0  0  0  0  0  0  0  0  0
   58.7689   34.9186   52.5919 H   0  0  0  0  0  0  0  0  0  0  0  0
   61.0509   33.9355   52.6718 H   0  0  0  0  0  0  0  0  0  0  0  0
   59.3412   26.1230   48.1879 H   0  0  0  0  0  0  0  0  0  0  0  0
   55.8256   25.0042   47.9626 H   0  0  0  0  0  0  0  0  0  0  0  0
   57.3601   25.9855   47.9983 H   0  0  0  0  0  0  0  0  0  0  0  0
   56.0554   27.4133   46.7717 H   0  0  0  0  0  0  0  0  0  0  0  0
   56.7047   26.3724   45.4384 H   0  0  0  0  0  0  0  0  0  0  0  0
  1  2  2  0
  2  3  1  0
  3  4  1  0
  4  5  1  0
  5  6  1  0
  6  7  2  0
  6  8  2  0
  6  9  1  0
  9 10  2  0
 10 11  1  0
 11 12  2  0
 12 13  1  0
 13 14  1  0
 14 15  1  0
 15 16  2  0
 16 17  1  0
 17 18  2  0
 18 19  1  0
 19 20  2  0
 20 21  1  0
 21 22  2  0
 22 23  1  0
 23 24  2  0
 24 25  1  0
 25 26  2  0
 12 27  1  0
 27 28  1  0
 28 29  2  0
 28 30  1  0
 30 31  1  0
 31 32  1  0
 32 33  2  0
 33 34  1  0
 34 35  2  0
 35 36  1  0
 36 37  2  0
 37 38  1  0
 38 39  1  0
 38 40  1  0
 38 41  1  0
 27 42  2  0
  5 43  1  0
 43 44  1  0
 44 45  1  0
 45  2  1  0
 42  9  1  0
 20 15  1  0
 26 21  1  0
 37 32  1  0
  3 46  1  0
  3 47  1  0
  4 48  1  0
  4 49  1  0
 10 50  1  0
 11 51  1  0
 14 52  1  0
 14 53  1  0
 16 54  1  0
 17 55  1  0
 18 56  1  0
 19 57  1  0
 22 58  1  0
 23 59  1  0
 24 60  1  0
 25 61  1  0
 26 62  1  0
 31 63  1  0
 31 64  1  0
 33 65  1  0
 34 66  1  0
 35 67  1  0
 36 68  1  0
 42 69  1  0
 43 70  1  0
 43 71  1  0
 44 72  1  0
 44 73  1  0
M  CHG  2  30  -1  45  -1
M  END
>  <UniqueID>  (47) 
45

>  <SMILES>  (47) 
O=C1CCN(S(=O)(=O)c2ccc(OCc3ccccc3-c3ccccc3)c(C(=O)[N-]Cc3ccccc3C(F)(F)F)c2)CC[N-]1

>  <Energy>  (47) 
102.50859994439027

>  <Genealogy>  (47) 
O=C1CCN(S(=O)(=O)c2ccc(OCc3ccccc3-c3ccccc3)c(C(=O)[N-]Cc3ccccc3C(F)(F)F)c2)CC[N-]1 (protonated)
O=C1CCN(S(=O)(=O)c2ccc(OCc3ccccc3-c3ccccc3)c(C(=O)[N-]Cc3ccccc3C(F)(F)F)c2)CC[N-]1 (3D coordinates assigned)
O=C1CCN(S(=O)(=O)c2ccc(OCc3ccccc3-c3ccccc3)c(C(=O)[N-]Cc3ccccc3C(F)(F)F)c2)CC[N-]1 (nonaromatic ring conformer: 102.50859994439027 kcal/mol)

>  <smiles>  (47) 
O=C1CCN(S(=O)(=O)c2ccc(OCc3ccccc3-c3ccccc3)c(C(=O)NCc3ccccc3C(F)(F)F)c2)CCN1

>  <score_type>  (47) 
oracle

>  <origin>  (47) 
adg

>  <m_score__min__energy>  (47) 
-11.83

>  <m_primary>  (47) 
energy

$$$$
47:0
     RDKit          3D

 39 41  0  0  0  0  0  0  0  0999 V2000
   59.0758   35.4282   43.9493 H   0  0  0  0  0  0  0  0  0  0  0  0
   58.8780   34.8630   44.8720 C   0  0  0  0  0  0  0  0  0  0  0  0
   57.8540   33.9120   44.9040 C   0  0  0  0  0  0  0  0  0  0  0  0
   57.2493   33.7257   44.0042 H   0  0  0  0  0  0  0  0  0  0  0  0
   57.5970   33.1970   46.0780 C   0  0  0  0  0  0  0  0  0  0  0  0
   56.8003   32.4387   46.0951 H   0  0  0  0  0  0  0  0  0  0  0  0
   58.3550   33.4450   47.2380 C   0  0  0  0  0  0  0  0  0  0  0  0
   58.1270   32.7180   48.4550 N   0  0  0  0  0  0  0  0  0  0  0  0
   58.9560   31.6730   48.9830 C   0  0  0  0  0  0  0  0  0  0  0  0
   58.4070   30.7330   49.6180 O   0  0  0  0  0  0  0  0  0  0  0  0
   60.4200   31.6340   48.7370 C   0  0  0  0  0  0  0  0  0  0  0  0
   61.3020   31.9590   49.7780 C   0  0  0  0  0  0  0  0  0  0  0  0
   60.9042   32.2344   50.7659 H   0  0  0  0  0  0  0  0  0  0  0  0
   62.6780   31.9350   49.5680 C   0  0  0  0  0  0  0  0  0  0  0  0
   63.3695   32.1767   50.3886 H   0  0  0  0  0  0  0  0  0  0  0  0
   63.1700   31.6020   48.3090 C   0  0  0  0  0  0  0  0  0  0  0  0
   64.2556   31.5888   48.1319 H   0  0  0  0  0  0  0  0  0  0  0  0
   62.3160   31.2930   47.2970 N   0  0  0  0  0  0  0  0  0  0  0  0
   62.7420   31.0980   46.3640 H   0  0  0  0  0  0  0  0  0  0  0  0
   60.9570   31.2790   47.4760 C   0  0  0  0  0  0  0  0  0  0  0  0
   60.1440   30.9570   46.5040 N   0  0  0  0  0  0  0  0  0  0  0  0
   59.3270   29.7830   46.4040 C   0  0  0  0  0  0  0  0  0  0  0  0
   58.3430   29.7180   45.4080 C   0  0  0  0  0  0  0  0  0  0  0  0
   58.2377   30.5426   44.6877 H   0  0  0  0  0  0  0  0  0  0  0  0
   57.4950   28.6100   45.3260 C   0  0  0  0  0  0  0  0  0  0  0  0
   56.7368   28.5580   44.5308 H   0  0  0  0  0  0  0  0  0  0  0  0
   57.6070   27.5650   46.2530 C   0  0  0  0  0  0  0  0  0  0  0  0
   56.5300   26.1780   46.1540 S   0  0  0  0  0  0  0  0  0  0  0  0
   56.8950   25.3420   44.9610 O   0  0  0  0  0  0  0  0  0  0  0  0
   56.6510   25.3500   47.4040 O   0  0  0  0  0  0  0  0  0  0  0  0
   54.9390   26.6990   46.0070 O   0  0  0  0  0  0  0  0  0  0  0  0
   58.5620   27.6470   47.2750 C   0  0  0  0  0  0  0  0  0  0  0  0
   58.6442   26.8372   48.0150 H   0  0  0  0  0  0  0  0  0  0  0  0
   59.4100   28.7540   47.3570 C   0  0  0  0  0  0  0  0  0  0  0  0
   60.1463   28.8204   48.1716 H   0  0  0  0  0  0  0  0  0  0  0  0
   59.3960   34.3840   47.1910 C   0  0  0  0  0  0  0  0  0  0  0  0
   60.1550   34.6180   48.2900 F   0  0  0  0  0  0  0  0  0  0  0  0
   59.6500   35.0950   46.0130 C   0  0  0  0  0  0  0  0  0  0  0  0
   60.4599   35.8388   45.9852 H   0  0  0  0  0  0  0  0  0  0  0  0
  1  2  1  0
  2  3  2  0
  3  4  1  0
  3  5  1  0
  5  6  1  0
  5  7  2  0
  7  8  1  0
  8  9  1  0
  9 10  2  0
  9 11  1  0
 11 12  2  0
 12 13  1  0
 12 14  1  0
 14 15  1  0
 14 16  2  0
 16 17  1  0
 16 18  1  0
 18 19  1  0
 18 20  1  0
 20 21  2  0
 21 22  1  0
 22 23  2  0
 23 24  1  0
 23 25  1  0
 25 26  1  0
 25 27  2  0
 27 28  1  0
 28 29  2  0
 28 30  2  0
 28 31  1  0
 27 32  1  0
 32 33  1  0
 32 34  2  0
 34 35  1  0
  7 36  1  0
 36 37  1  0
 36 38  2  0
 38 39  1  0
 38  2  1  0
 20 11  1  0
 34 22  1  0
M  CHG  2   8  -1  31  -1
M  END
>  <UniqueID>  (48) 
46

>  <SMILES>  (48) 
O=C([N-]c1ccccc1F)c1ccc[nH]/c1=N\c1ccc(S(=O)(=O)[O-])cc1

>  <Energy>  (48) 
60.885500504785426

>  <Genealogy>  (48) 
O=C([N-]c1ccccc1F)c1ccc[nH]c1=Nc1ccc(S(=O)(=O)[O-])cc1 (protonated)
O=C([N-]c1ccccc1F)c1ccc[nH]/c1=N\c1ccc(S(=O)(=O)[O-])cc1 (cis-trans isomerization)
O=C([N-]c1ccccc1F)c1ccc[nH]/c1=N\c1ccc(S(=O)(=O)[O-])cc1 (3D coordinates assigned)
O=C([N-]c1ccccc1F)c1ccc[nH]/c1=N\c1ccc(S(=O)(=O)[O-])cc1 (optimized conformer: 60.885500504785426 kcal/mol)

>  <smiles>  (48) 
O=C(Nc1ccccc1F)c1ccc[nH]c1=Nc1ccc(S(=O)(=O)O)cc1

>  <score_type>  (48) 
oracle

>  <origin>  (48) 
adg

>  <m_score__min__energy>  (48) 
-11.9

>  <m_primary>  (48) 
energy

$$$$
48:0
     RDKit          3D

 46 48  0  0  0  0  0  0  0  0999 V2000
   55.5840   30.8410   53.0670 C   0  0  0  0  0  0  0  0  0  0  0  0
   56.6670   30.6960   52.0520 C   0  0  0  0  0  0  0  0  0  0  0  0
   57.3380   31.7290   51.4330 C   0  0  0  0  0  0  0  0  0  0  0  0
   58.2790   31.0810   50.6510 C   0  0  0  0  0  0  0  0  0  0  0  0
   59.2860   31.6940   49.7560 C   0  0  0  0  0  0  0  0  0  0  0  0
   60.6610   31.5000   49.9600 C   0  0  0  0  0  0  0  0  0  0  0  0
   61.5920   32.0880   49.1020 C   0  0  0  0  0  0  0  0  0  0  0  0
   61.1740   32.8810   48.0220 C   0  0  0  0  0  0  0  0  0  0  0  0
   62.2170   33.4910   47.1230 C   0  0  0  0  0  0  0  0  0  0  0  0
   59.7890   33.0550   47.7880 C   0  0  0  0  0  0  0  0  0  0  0  0
   59.1760   34.0000   46.4180 S   0  0  0  0  0  0  0  0  0  0  0  0
   59.0940   35.4460   46.8200 O   0  0  0  0  0  0  0  0  0  0  0  0
   60.0930   33.8640   45.2340 O   0  0  0  0  0  0  0  0  0  0  0  0
   57.5870   33.4500   45.9720 N   0  0  0  0  0  0  0  0  0  0  0  0
   57.6520   32.6730   44.7310 C   0  0  0  0  0  0  0  0  0  0  0  0
   57.4380   31.2190   45.0420 C   0  0  0  0  0  0  0  0  0  0  0  0
   56.4660   30.4820   44.3470 C   0  0  0  0  0  0  0  0  0  0  0  0
   56.2940   29.1200   44.6070 C   0  0  0  0  0  0  0  0  0  0  0  0
   57.1020   28.4750   45.5530 C   0  0  0  0  0  0  0  0  0  0  0  0
   56.8770   26.7620   45.8900 S   0  0  0  0  0  0  0  0  0  0  0  0
   55.1890   26.4030   45.9550 N   0  0  0  0  0  0  0  0  0  0  0  0
   57.5160   26.4140   47.2060 O   0  0  0  0  0  0  0  0  0  0  0  0
   57.5210   25.9390   44.8100 O   0  0  0  0  0  0  0  0  0  0  0  0
   58.0780   29.2060   46.2440 C   0  0  0  0  0  0  0  0  0  0  0  0
   58.2500   30.5690   45.9840 C   0  0  0  0  0  0  0  0  0  0  0  0
   58.8640   32.4810   48.6750 C   0  0  0  0  0  0  0  0  0  0  0  0
   58.1470   29.7840   50.8310 O   0  0  0  0  0  0  0  0  0  0  0  0
   57.1920   29.5160   51.6730 N   0  0  0  0  0  0  0  0  0  0  0  0
   56.0173   30.7830   54.0764 H   0  0  0  0  0  0  0  0  0  0  0  0
   55.0871   31.8137   52.9366 H   0  0  0  0  0  0  0  0  0  0  0  0
   54.8487   30.0333   52.9366 H   0  0  0  0  0  0  0  0  0  0  0  0
   57.1666   32.8107   51.5359 H   0  0  0  0  0  0  0  0  0  0  0  0
   61.0070   30.8810   50.8009 H   0  0  0  0  0  0  0  0  0  0  0  0
   62.6665   31.9279   49.2745 H   0  0  0  0  0  0  0  0  0  0  0  0
   63.0053   33.9521   47.7362 H   0  0  0  0  0  0  0  0  0  0  0  0
   62.6572   32.7080   46.4881 H   0  0  0  0  0  0  0  0  0  0  0  0
   61.7503   34.2585   46.4881 H   0  0  0  0  0  0  0  0  0  0  0  0
   57.0030   34.3000   45.7930 H   0  0  0  0  0  0  0  0  0  0  0  0
   56.8699   33.0195   44.0394 H   0  0  0  0  0  0  0  0  0  0  0  0
   58.6387   32.8079   44.2638 H   0  0  0  0  0  0  0  0  0  0  0  0
   55.8368   30.9792   43.5941 H   0  0  0  0  0  0  0  0  0  0  0  0
   55.5218   28.5521   44.0673 H   0  0  0  0  0  0  0  0  0  0  0  0
   54.7570   27.0870   46.6150 H   0  0  0  0  0  0  0  0  0  0  0  0
   58.7102   28.7062   46.9927 H   0  0  0  0  0  0  0  0  0  0  0  0
   59.0259   31.1347   46.5207 H   0  0  0  0  0  0  0  0  0  0  0  0
   57.7886   32.6519   48.5189 H   0  0  0  0  0  0  0  0  0  0  0  0
  1  2  1  0
  2  3  1  0
  3  4  2  0
  4  5  1  0
  5  6  2  0
  6  7  1  0
  7  8  2  0
  8  9  1  0
  8 10  1  0
 10 11  1  0
 11 12  2  0
 11 13  2  0
 11 14  1  0
 14 15  1  0
 15 16  1  0
 16 17  2  0
 17 18  1  0
 18 19  2  0
 19 20  1  0
 20 21  1  0
 20 22  2  0
 20 23  2  0
 19 24  1  0
 24 25  2  0
 10 26  2  0
  4 27  1  0
 27 28  1  0
 28  2  2  0
 26  5  1  0
 25 16  1  0
  1 29  1  0
  1 30  1  0
  1 31  1  0
  3 32  1  0
  6 33  1  0
  7 34  1  0
  9 35  1  0
  9 36  1  0
  9 37  1  0
 14 38  1  0
 15 39  1  0
 15 40  1  0
 17 41  1  0
 18 42  1  0
 21 43  1  0
 24 44  1  0
 25 45  1  0
 26 46  1  0
M  CHG  1  21  -1
M  END
>  <UniqueID>  (49) 
47

>  <SMILES>  (49) 
Cc1cc(-c2ccc(C)c(S(=O)(=O)NCc3ccc(S([NH-])(=O)=O)cc3)c2)on1

>  <Energy>  (49) 
75.7038275371069

>  <Genealogy>  (49) 
Cc1cc(-c2ccc(C)c(S(=O)(=O)NCc3ccc(S([NH-])(=O)=O)cc3)c2)on1 (protonated)
Cc1cc(-c2ccc(C)c(S(=O)(=O)NCc3ccc(S([NH-])(=O)=O)cc3)c2)on1 (3D coordinates assigned)
Cc1cc(-c2ccc(C)c(S(=O)(=O)NCc3ccc(S([NH-])(=O)=O)cc3)c2)on1 (optimized conformer: 75.7038275371069 kcal/mol)

>  <smiles>  (49) 
Cc1cc(-c2ccc(C)c(S(=O)(=O)NCc3ccc(S(N)(=O)=O)cc3)c2)on1

>  <score_type>  (49) 
oracle

>  <origin>  (49) 
adg

>  <m_score__min__energy>  (49) 
-12.4

>  <m_primary>  (49) 
energy

$$$$
49:0
     RDKit          3D

 29 30  0  0  1  0  0  0  0  0999 V2000
   57.3680   31.9640   41.7980 C   0  0  0  0  0  0  0  0  0  0  0  0
   57.2360   31.2920   43.1290 C   0  0  0  0  0  0  0  0  0  0  0  0
   58.1610   31.4240   44.1490 C   0  0  0  0  0  0  0  0  0  0  0  0
   57.6640   30.6520   45.1820 C   0  0  0  0  0  0  0  0  0  0  0  0
   58.3070   30.4640   46.5370 C   0  0  0  0  0  0  0  0  0  0  0  0
   59.6730   29.9350   46.3190 C   0  0  0  0  0  0  0  0  0  0  0  0
   59.9540   28.7230   46.0130 N   0  0  0  0  0  0  0  0  0  0  0  0
   59.2000   27.9530   45.1100 C   0  0  0  0  0  0  0  0  0  0  0  0
   59.3720   27.9270   43.8640 O   0  0  0  0  0  0  0  0  0  0  0  0
   58.1270   27.1200   45.6980 C   0  0  0  0  0  0  0  0  0  0  0  0
   58.2550   26.1430   46.6520 C   0  0  0  0  0  0  0  0  0  0  0  0
   56.9820   25.6660   46.8730 C   0  0  0  0  0  0  0  0  0  0  0  0
   56.1340   26.3760   46.0410 C   0  0  0  0  0  0  0  0  0  0  0  0
   54.7380   26.2210   45.9330 O   0  0  0  0  0  0  0  0  0  0  0  0
   56.8460   27.2710   45.3190 N   0  0  0  0  0  0  0  0  0  0  0  0
   56.4860   30.0900   44.7740 N   0  0  0  0  0  0  0  0  0  0  0  0
   56.2290   30.4790   43.5280 N   0  0  0  0  0  0  0  0  0  0  0  0
   57.5781   33.0335   41.9465 H   0  0  0  0  0  0  0  0  0  0  0  0
   58.1928   31.5031   41.2347 H   0  0  0  0  0  0  0  0  0  0  0  0
   56.4302   31.8493   41.2347 H   0  0  0  0  0  0  0  0  0  0  0  0
   59.0891   32.0143   44.1399 H   0  0  0  0  0  0  0  0  0  0  0  0
   58.3585   31.4282   47.0640 H   0  0  0  0  0  0  0  0  0  0  0  0
   57.7172   29.7659   47.1492 H   0  0  0  0  0  0  0  0  0  0  0  0
   60.5121   30.6378   46.4284 H   0  0  0  0  0  0  0  0  0  0  0  0
   59.1827   25.8093   47.1398 H   0  0  0  0  0  0  0  0  0  0  0  0
   56.6939   24.8715   47.5771 H   0  0  0  0  0  0  0  0  0  0  0  0
   54.3450   25.4090   46.3900 H   0  0  0  0  0  0  0  0  0  0  0  0
   56.4720   27.9440   44.6060 H   0  0  0  0  0  0  0  0  0  0  0  0
   55.3970   30.2030   42.9670 H   0  0  0  0  0  0  0  0  0  0  0  0
  1  2  1  0
  2  3  2  0
  3  4  1  0
  4  5  1  0
  5  6  1  0
  6  7  2  0
  7  8  1  0
  8  9  2  0
  8 10  1  0
 10 11  2  0
 11 12  1  0
 12 13  2  0
 13 14  1  0
 13 15  1  0
  4 16  2  0
 16 17  1  0
 17  2  1  0
 15 10  1  0
  1 18  1  0
  1 19  1  0
  1 20  1  0
  3 21  1  0
  5 22  1  0
  5 23  1  0
  6 24  1  0
 11 25  1  0
 12 26  1  0
 14 27  1  0
 15 28  1  0
 17 29  1  0
M  END
>  <smiles>  (50) 
Cc1cc(CC=NC(=O)c2ccc(O)[nH]2)n[nH]1

>  <score_type>  (50) 
oracle

>  <origin>  (50) 
adg

>  <m_score__min__energy>  (50) 
-7.5999999999999996

>  <m_primary>  (50) 
energy

$$$$
50:0
     RDKit          3D

 24 25  0  0  0  0  0  0  0  0999 V2000
   55.1420   27.9620   44.9340 H   0  0  0  0  0  0  0  0  0  0  0  0
   55.1450   28.9660   44.8000 O   0  0  0  0  0  0  0  0  0  0  0  0
   56.3250   29.6780   44.6010 C   0  0  0  0  0  0  0  0  0  0  0  0
   56.2590   31.0750   44.4940 C   0  0  0  0  0  0  0  0  0  0  0  0
   55.2862   31.5836   44.5644 H   0  0  0  0  0  0  0  0  0  0  0  0
   57.4190   31.8220   44.2990 C   0  0  0  0  0  0  0  0  0  0  0  0
   57.3677   32.9176   44.2148 H   0  0  0  0  0  0  0  0  0  0  0  0
   58.6430   31.1660   44.2120 C   0  0  0  0  0  0  0  0  0  0  0  0
   59.5668   31.7433   44.0597 H   0  0  0  0  0  0  0  0  0  0  0  0
   58.6970   29.8140   44.3150 N   0  0  0  0  0  0  0  0  0  0  0  0
   57.5910   29.0400   44.5040 C   0  0  0  0  0  0  0  0  0  0  0  0
   57.7720   27.7510   44.5820 N   0  0  0  0  0  0  0  0  0  0  0  0
   57.6180   26.6840   45.9460 S   0  0  0  0  0  0  0  0  0  0  0  0
   58.8660   25.8530   46.0450 O   0  0  0  0  0  0  0  0  0  0  0  0
   57.4740   27.4930   47.2060 O   0  0  0  0  0  0  0  0  0  0  0  0
   56.2490   25.6050   45.7290 C   0  0  0  0  0  0  0  0  0  0  0  0
   54.9860   26.0640   45.9360 N   0  0  0  0  0  0  0  0  0  0  0  0
   53.9230   25.2720   45.7860 N   0  0  0  0  0  0  0  0  0  0  0  0
   54.0580   23.9700   45.4170 C   0  0  0  0  0  0  0  0  0  0  0  0
   53.0380   23.2450   45.2830 O   0  0  0  0  0  0  0  0  0  0  0  0
   55.3310   23.4480   45.1890 C   0  0  0  0  0  0  0  0  0  0  0  0
   55.4572   22.3972   44.8894 H   0  0  0  0  0  0  0  0  0  0  0  0
   56.4410   24.2760   45.3460 C   0  0  0  0  0  0  0  0  0  0  0  0
   57.4551   23.8877   45.1705 H   0  0  0  0  0  0  0  0  0  0  0  0
  1  2  1  0
  2  3  1  0
  3  4  2  0
  4  5  1  0
  4  6  1  0
  6  7  1  0
  6  8  2  0
  8  9  1  0
  8 10  1  0
 10 11  1  0
 11 12  2  0
 12 13  1  0
 13 14  2  0
 13 15  2  0
 13 16  1  0
 16 17  2  0
 17 18  1  0
 18 19  1  0
 19 20  2  0
 19 21  1  0
 21 22  1  0
 21 23  2  0
 23 24  1  0
 11  3  1  0
 23 16  1  0
M  CHG  2  10  -1  18  -1
M  END
>  <UniqueID>  (51) 
48

>  <SMILES>  (51) 
O=c1ccc(S(=O)(=O)/N=c2/[n-]cccc2O)n[n-]1

>  <Energy>  (51) 
36.61769975727952

>  <Genealogy>  (51) 
O=c1ccc(S(=O)(=O)N=c2[n-]cccc2O)n[n-]1 (protonated)
O=c1ccc(S(=O)(=O)/N=c2/[n-]cccc2O)n[n-]1 (cis-trans isomerization)
O=c1ccc(S(=O)(=O)/N=c2/[n-]cccc2O)n[n-]1 (3D coordinates assigned)
O=c1ccc(S(=O)(=O)/N=c2/[n-]cccc2O)n[n-]1 (optimized conformer: 36.61769975727952 kcal/mol)

>  <smiles>  (51) 
O=c1ccc(S(=O)(=O)N=c2[nH]cccc2O)n[nH]1

>  <score_type>  (51) 
oracle

>  <origin>  (51) 
adg

>  <m_score__min__energy>  (51) 
-11.43

>  <m_primary>  (51) 
energy

$$$$
51:0
     RDKit          3D

 51 54  0  0  0  0  0  0  0  0999 V2000
   58.0970   33.6630   44.8180 O   0  0  0  0  0  0  0  0  0  0  0  0
   57.5130   32.8080   45.5340 C   0  0  0  0  0  0  0  0  0  0  0  0
   57.7690   32.8020   47.0210 C   0  0  0  0  0  0  0  0  0  0  0  0
   59.2050   33.1040   47.3520 C   0  0  0  0  0  0  0  0  0  0  0  0
   60.2300   32.8070   46.4360 C   0  0  0  0  0  0  0  0  0  0  0  0
   61.5420   33.1860   46.7280 C   0  0  0  0  0  0  0  0  0  0  0  0
   61.8250   33.8420   47.9280 C   0  0  0  0  0  0  0  0  0  0  0  0
   60.7840   34.1170   48.8170 C   0  0  0  0  0  0  0  0  0  0  0  0
   59.5100   33.7580   48.5080 N   0  0  0  0  0  0  0  0  0  0  0  0
   56.6900   31.8240   44.8840 N   0  0  0  0  0  0  0  0  0  0  0  0
   57.1360   30.5550   44.3120 C   0  0  2  0  0  0  0  0  0  0  0  0
   57.0430   30.6190   42.7710 C   0  0  0  0  0  0  0  0  0  0  0  0
   57.7280   32.1830   42.1340 S   0  0  0  0  0  0  0  0  0  0  0  0
   56.2940   29.4220   44.8780 C   0  0  0  0  0  0  0  0  0  0  0  0
   55.0610   29.3600   44.6130 O   0  0  0  0  0  0  0  0  0  0  0  0
   56.8590   28.3550   45.6520 N   0  0  0  0  0  0  0  0  0  0  0  0
   56.4520   26.9540   45.6930 C   0  0  0  0  0  0  0  0  0  0  0  0
   57.6250   26.0100   45.7850 C   0  0  0  0  0  0  0  0  0  0  0  0
   58.9600   26.2770   46.1340 C   0  0  0  0  0  0  0  0  0  0  0  0
   59.5380   27.5720   46.5240 C   0  0  0  0  0  0  0  0  0  0  0  0
   60.2480   28.4470   45.7110 C   0  0  0  0  0  0  0  0  0  0  0  0
   60.7070   29.5820   46.3890 C   0  0  0  0  0  0  0  0  0  0  0  0
   60.3760   29.5980   47.7370 C   0  0  0  0  0  0  0  0  0  0  0  0
   59.5130   28.1970   48.0860 S   0  0  0  0  0  0  0  0  0  0  0  0
   59.7100   25.1540   46.0300 N   0  0  0  0  0  0  0  0  0  0  0  0
   58.8870   24.1970   45.5700 C   0  0  0  0  0  0  0  0  0  0  0  0
   59.2280   22.8900   45.2240 C   0  0  0  0  0  0  0  0  0  0  0  0
   58.2180   22.0590   44.7100 C   0  0  0  0  0  0  0  0  0  0  0  0
   56.9000   22.5440   44.5650 C   0  0  0  0  0  0  0  0  0  0  0  0
   56.5870   23.8720   44.9140 C   0  0  0  0  0  0  0  0  0  0  0  0
   57.6130   24.6780   45.4110 C   0  0  0  0  0  0  0  0  0  0  0  0
   57.1293   33.5619   47.4936 H   0  0  0  0  0  0  0  0  0  0  0  0
   57.5402   31.7946   47.3988 H   0  0  0  0  0  0  0  0  0  0  0  0
   60.0003   32.2808   45.4978 H   0  0  0  0  0  0  0  0  0  0  0  0
   62.3505   32.9684   46.0146 H   0  0  0  0  0  0  0  0  0  0  0  0
   62.8562   34.1387   48.1700 H   0  0  0  0  0  0  0  0  0  0  0  0
   60.9954   34.6252   49.7694 H   0  0  0  0  0  0  0  0  0  0  0  0
   58.1863   30.3668   44.5793 H   0  0  0  0  0  0  0  0  0  0  0  0
   57.6085   29.7786   42.3422 H   0  0  0  0  0  0  0  0  0  0  0  0
   55.9829   30.5601   42.4832 H   0  0  0  0  0  0  0  0  0  0  0  0
   57.2920   32.9250   43.2520 H   0  0  0  0  0  0  0  0  0  0  0  0
   55.8069   26.8004   46.5706 H   0  0  0  0  0  0  0  0  0  0  0  0
   55.9213   26.7344   44.7549 H   0  0  0  0  0  0  0  0  0  0  0  0
   60.4310   28.2657   44.6416 H   0  0  0  0  0  0  0  0  0  0  0  0
   61.2765   30.3859   45.8997 H   0  0  0  0  0  0  0  0  0  0  0  0
   60.6339   30.3911   48.4542 H   0  0  0  0  0  0  0  0  0  0  0  0
   60.7350   25.0610   46.2110 H   0  0  0  0  0  0  0  0  0  0  0  0
   60.2565   22.5206   45.3496 H   0  0  0  0  0  0  0  0  0  0  0  0
   58.4556   21.0251   44.4191 H   0  0  0  0  0  0  0  0  0  0  0  0
   56.1129   21.8806   44.1771 H   0  0  0  0  0  0  0  0  0  0  0  0
   55.5651   24.2624   44.7985 H   0  0  0  0  0  0  0  0  0  0  0  0
  1  2  2  0
  2  3  1  0
  3  4  1  0
  4  5  2  0
  5  6  1  0
  6  7  2  0
  7  8  1  0
  8  9  2  0
  2 10  1  0
 10 11  1  0
 11 12  1  0
 12 13  1  0
 11 14  1  0
 14 15  2  0
 14 16  1  0
 16 17  1  0
 17 18  1  0
 18 19  2  0
 19 20  1  0
 20 21  2  0
 21 22  1  0
 22 23  2  0
 23 24  1  0
 19 25  1  0
 25 26  1  0
 26 27  2  0
 27 28  1  0
 28 29  2  0
 29 30  1  0
 30 31  2  0
  9  4  1  0
 31 18  1  0
 24 20  1  0
 31 26  1  0
  3 32  1  0
  3 33  1  0
  5 34  1  0
  6 35  1  0
  7 36  1  0
  8 37  1  0
 11 38  1  6
 12 39  1  0
 12 40  1  0
 13 41  1  0
 17 42  1  0
 17 43  1  0
 21 44  1  0
 22 45  1  0
 23 46  1  0
 25 47  1  0
 27 48  1  0
 28 49  1  0
 29 50  1  0
 30 51  1  0
M  CHG  2  10  -1  16  -1
M  END
>  <UniqueID>  (52) 
49

>  <SMILES>  (52) 
O=C(Cc1ccccn1)[N-][C@H](CS)C(=O)[N-]Cc1c(-c2cccs2)[nH]c2ccccc12

>  <Energy>  (52) 
109.77965721393453

>  <Genealogy>  (52) 
O=C(Cc1ccccn1)[N-]C(CS)C(=O)[N-]Cc1c(-c2cccs2)[nH]c2ccccc12 (protonated)
O=C(Cc1ccccn1)[N-][C@H](CS)C(=O)[N-]Cc1c(-c2cccs2)[nH]c2ccccc12 (chirality)
O=C(Cc1ccccn1)[N-][C@H](CS)C(=O)[N-]Cc1c(-c2cccs2)[nH]c2ccccc12 (3D coordinates assigned)
O=C(Cc1ccccn1)[N-][C@H](CS)C(=O)[N-]Cc1c(-c2cccs2)[nH]c2ccccc12 (optimized conformer: 109.77965721393453 kcal/mol)

>  <smiles>  (52) 
O=C(Cc1ccccn1)NC(CS)C(=O)NCc1c(-c2cccs2)[nH]c2ccccc12

>  <score_type>  (52) 
oracle

>  <origin>  (52) 
adg

>  <m_score__min__energy>  (52) 
-12.07

>  <m_primary>  (52) 
energy

$$$$
52:0
     RDKit          3D

 50 53  0  0  0  0  0  0  0  0999 V2000
   56.1320   24.3660   47.0140 C   0  0  0  0  0  0  0  0  0  0  0  0
   57.0510   25.4430   46.5100 C   0  0  0  0  0  0  0  0  0  0  0  0
   58.4360   25.2260   46.4860 C   0  0  0  0  0  0  0  0  0  0  0  0
   59.2920   26.2070   45.9900 C   0  0  0  0  0  0  0  0  0  0  0  0
   58.7780   27.4130   45.5120 C   0  0  0  0  0  0  0  0  0  0  0  0
   57.3930   27.6580   45.5210 C   0  0  0  0  0  0  0  0  0  0  0  0
   56.8800   28.9520   45.0000 C   0  0  0  0  0  0  0  0  0  0  0  0
   56.3640   29.0010   43.8500 O   0  0  0  0  0  0  0  0  0  0  0  0
   57.0270   30.1570   45.7640 N   0  0  0  0  0  0  0  0  0  0  0  0
   58.1550   30.5110   46.5760 C   0  0  0  0  0  0  0  0  0  0  0  0
   58.5020   29.6780   47.6460 C   0  0  0  0  0  0  0  0  0  0  0  0
   59.5980   29.9830   48.4740 C   0  0  0  0  0  0  0  0  0  0  0  0
   59.9620   29.0660   49.5850 C   0  0  0  0  0  0  0  0  0  0  0  0
   59.8300   29.3790   50.9440 C   0  0  0  0  0  0  0  0  0  0  0  0
   60.3710   28.0670   51.8480 S   0  0  0  0  0  0  0  0  0  0  0  0
   60.7480   27.1670   50.4870 C   0  0  0  0  0  0  0  0  0  0  0  0
   61.2320   26.0060   50.5120 O   0  0  0  0  0  0  0  0  0  0  0  0
   60.4800   27.8280   49.3440 N   0  0  0  0  0  0  0  0  0  0  0  0
   60.3250   31.1630   48.2280 C   0  0  0  0  0  0  0  0  0  0  0  0
   59.9720   32.0120   47.1710 C   0  0  0  0  0  0  0  0  0  0  0  0
   60.9010   33.4800   46.8610 S   0  0  0  0  0  0  0  0  0  0  0  0
   60.4920   34.0400   45.5280 O   0  0  0  0  0  0  0  0  0  0  0  0
   60.5700   34.5070   47.9090 O   0  0  0  0  0  0  0  0  0  0  0  0
   62.6290   33.1900   46.8570 N   0  0  0  0  0  0  0  0  0  0  0  0
   63.3680   34.1730   47.6720 C   0  0  0  0  0  0  0  0  0  0  0  0
   63.3730   33.8300   49.1810 C   0  0  0  0  0  0  0  0  0  0  0  0
   62.8580   32.5440   49.4650 O   0  0  0  0  0  0  0  0  0  0  0  0
   63.4560   31.5950   48.6160 C   0  0  0  0  0  0  0  0  0  0  0  0
   62.9740   31.7870   47.1690 C   0  0  0  0  0  0  0  0  0  0  0  0
   58.8820   31.6900   46.3560 C   0  0  0  0  0  0  0  0  0  0  0  0
   56.5260   26.6520   46.0130 C   0  0  0  0  0  0  0  0  0  0  0  0
   55.1460   26.8350   45.9980 O   0  0  0  0  0  0  0  0  0  0  0  0
   56.1335   24.3678   48.1140 H   0  0  0  0  0  0  0  0  0  0  0  0
   55.1117   24.5539   46.6485 H   0  0  0  0  0  0  0  0  0  0  0  0
   56.4781   23.3880   46.6485 H   0  0  0  0  0  0  0  0  0  0  0  0
   58.8484   24.2774   46.8603 H   0  0  0  0  0  0  0  0  0  0  0  0
   60.3776   26.0301   45.9751 H   0  0  0  0  0  0  0  0  0  0  0  0
   59.4636   28.1806   45.1238 H   0  0  0  0  0  0  0  0  0  0  0  0
   57.9096   28.7722   47.8423 H   0  0  0  0  0  0  0  0  0  0  0  0
   59.4388   30.3229   51.3513 H   0  0  0  0  0  0  0  0  0  0  0  0
   61.1786   31.4210   48.8720 H   0  0  0  0  0  0  0  0  0  0  0  0
   64.4088   34.2094   47.3179 H   0  0  0  0  0  0  0  0  0  0  0  0
   62.8597   35.1418   47.5578 H   0  0  0  0  0  0  0  0  0  0  0  0
   64.4093   33.8795   49.5467 H   0  0  0  0  0  0  0  0  0  0  0  0
   62.7206   34.5598   49.6827 H   0  0  0  0  0  0  0  0  0  0  0  0
   64.5489   31.7147   48.6523 H   0  0  0  0  0  0  0  0  0  0  0  0
   63.1732   30.5872   48.9542 H   0  0  0  0  0  0  0  0  0  0  0  0
   63.7738   31.4627   46.4871 H   0  0  0  0  0  0  0  0  0  0  0  0
   62.0601   31.1877   47.0441 H   0  0  0  0  0  0  0  0  0  0  0  0
   58.5931   32.3656   45.5374 H   0  0  0  0  0  0  0  0  0  0  0  0
  1  2  1  0
  2  3  2  0
  3  4  1  0
  4  5  2  0
  5  6  1  0
  6  7  1  0
  7  8  2  0
  7  9  1  0
  9 10  1  0
 10 11  2  0
 11 12  1  0
 12 13  1  0
 13 14  2  0
 14 15  1  0
 15 16  1  0
 16 17  2  0
 16 18  1  0
 12 19  2  0
 19 20  1  0
 20 21  1  0
 21 22  2  0
 21 23  2  0
 21 24  1  0
 24 25  1  0
 25 26  1  0
 26 27  1  0
 27 28  1  0
 28 29  1  0
 20 30  2  0
  6 31  2  0
 31 32  1  0
 31  2  1  0
 30 10  1  0
 18 13  1  0
 29 24  1  0
  1 33  1  0
  1 34  1  0
  1 35  1  0
  3 36  1  0
  4 37  1  0
  5 38  1  0
 11 39  1  0
 14 40  1  0
 19 41  1  0
 25 42  1  0
 25 43  1  0
 26 44  1  0
 26 45  1  0
 28 46  1  0
 28 47  1  0
 29 48  1  0
 29 49  1  0
 30 50  1  0
M  CHG  3   9  -1  18  -1  32  -1
M  END
>  <UniqueID>  (53) 
50

>  <SMILES>  (53) 
Cc1cccc(C(=O)[N-]c2cc(-c3csc(=O)[n-]3)cc(S(=O)(=O)N3CCOCC3)c2)c1[O-]

>  <Energy>  (53) 
102.54793869425218

>  <Genealogy>  (53) 
Cc1cccc(C(=O)[N-]c2cc(-c3csc(=O)[n-]3)cc(S(=O)(=O)N3CCOCC3)c2)c1[O-] (protonated)
Cc1cccc(C(=O)[N-]c2cc(-c3csc(=O)[n-]3)cc(S(=O)(=O)N3CCOCC3)c2)c1[O-] (3D coordinates assigned)
Cc1cccc(C(=O)[N-]c2cc(-c3csc(=O)[n-]3)cc(S(=O)(=O)N3CCOCC3)c2)c1[O-] (nonaromatic ring conformer: 102.54793869425218 kcal/mol)

>  <smiles>  (53) 
Cc1cccc(C(=O)Nc2cc(-c3csc(=O)[nH]3)cc(S(=O)(=O)N3CCOCC3)c2)c1O

>  <score_type>  (53) 
oracle

>  <origin>  (53) 
adg

>  <m_score__min__energy>  (53) 
-15.199999999999999

>  <m_primary>  (53) 
energy

$$$$
53:0
     RDKit          3D

 41 44  0  0  0  0  0  0  0  0999 V2000
   59.4921   34.8460   48.3611 H   0  0  0  0  0  0  0  0  0  0  0  0
   60.0770   34.0820   47.8280 C   0  0  0  0  0  0  0  0  0  0  0  0
   59.4840   33.4160   46.8310 C   0  0  0  0  0  0  0  0  0  0  0  0
   58.9820   32.1130   46.9100 O   0  0  0  0  0  0  0  0  0  0  0  0
   58.4250   31.8120   45.6680 C   0  0  0  0  0  0  0  0  0  0  0  0
   57.8130   30.6200   45.2930 C   0  0  0  0  0  0  0  0  0  0  0  0
   57.7255   29.7835   46.0019 H   0  0  0  0  0  0  0  0  0  0  0  0
   57.3090   30.5120   43.9840 C   0  0  0  0  0  0  0  0  0  0  0  0
   56.8207   29.5800   43.6634 H   0  0  0  0  0  0  0  0  0  0  0  0
   57.4250   31.5970   43.0710 C   0  0  0  0  0  0  0  0  0  0  0  0
   56.9360   31.5260   41.7590 O   0  0  0  0  0  0  0  0  0  0  0  0
   57.3640   32.3690   40.6950 C   0  0  0  0  0  0  0  0  0  0  0  0
   57.8252   33.2774   41.1098 H   0  0  0  0  0  0  0  0  0  0  0  0
   58.0996   31.8339   40.0765 H   0  0  0  0  0  0  0  0  0  0  0  0
   56.4979   32.6471   40.0765 H   0  0  0  0  0  0  0  0  0  0  0  0
   58.0510   32.7890   43.4840 C   0  0  0  0  0  0  0  0  0  0  0  0
   58.1520   33.6403   42.7947 H   0  0  0  0  0  0  0  0  0  0  0  0
   58.5390   32.8640   44.7860 C   0  0  0  0  0  0  0  0  0  0  0  0
   59.2170   33.9340   45.4890 C   0  0  0  0  0  0  0  0  0  0  0  0
   59.5130   35.0710   45.0360 O   0  0  0  0  0  0  0  0  0  0  0  0
   61.4750   33.8500   48.2550 C   0  0  0  0  0  0  0  0  0  0  0  0
   62.3910   33.3400   47.3200 C   0  0  0  0  0  0  0  0  0  0  0  0
   62.0608   33.1339   46.2912 H   0  0  0  0  0  0  0  0  0  0  0  0
   63.7160   33.0920   47.6830 C   0  0  0  0  0  0  0  0  0  0  0  0
   64.4247   32.7048   46.9361 H   0  0  0  0  0  0  0  0  0  0  0  0
   64.1480   33.3340   48.9950 C   0  0  0  0  0  0  0  0  0  0  0  0
   63.2290   33.8230   49.9490 C   0  0  0  0  0  0  0  0  0  0  0  0
   63.6680   34.0480   51.2580 C   0  0  0  0  0  0  0  0  0  0  0  0
   62.9665   34.4251   52.0167 H   0  0  0  0  0  0  0  0  0  0  0  0
   64.9950   33.7940   51.6000 C   0  0  0  0  0  0  0  0  0  0  0  0
   65.3433   33.9723   52.6281 H   0  0  0  0  0  0  0  0  0  0  0  0
   65.8880   33.3090   50.6270 C   0  0  0  0  0  0  0  0  0  0  0  0
   67.2330   33.0380   50.9200 O   0  0  0  0  0  0  0  0  0  0  0  0
   67.6720   32.0990   51.8960 C   0  0  0  0  0  0  0  0  0  0  0  0
   67.4840   32.5012   52.9024 H   0  0  0  0  0  0  0  0  0  0  0  0
   67.1220   31.1548   51.7698 H   0  0  0  0  0  0  0  0  0  0  0  0
   68.7492   31.9155   51.7698 H   0  0  0  0  0  0  0  0  0  0  0  0
   65.4420   33.0940   49.3560 N   0  0  0  0  0  0  0  0  0  0  0  0
   66.1190   32.7310   48.6470 H   0  0  0  0  0  0  0  0  0  0  0  0
   61.8990   34.0710   49.5800 C   0  0  0  0  0  0  0  0  0  0  0  0
   61.1831   34.4400   50.3292 H   0  0  0  0  0  0  0  0  0  0  0  0
  1  2  1  0
  2  3  2  0
  3  4  1  0
  4  5  1  0
  5  6  2  0
  6  7  1  0
  6  8  1  0
  8  9  1  0
  8 10  2  0
 10 11  1  0
 11 12  1  0
 12 13  1  0
 12 14  1  0
 12 15  1  0
 10 16  1  0
 16 17  1  0
 16 18  2  0
 18 19  1  0
 19 20  2  0
  2 21  1  0
 21 22  2  0
 22 23  1  0
 22 24  1  0
 24 25  1  0
 24 26  2  0
 26 27  1  0
 27 28  1  0
 28 29  1  0
 28 30  2  0
 30 31  1  0
 30 32  1  0
 32 33  1  0
 33 34  1  0
 34 35  1  0
 34 36  1  0
 34 37  1  0
 32 38  2  0
 38 39  1  0
 27 40  2  0
 40 41  1  0
 19  3  1  0
 40 21  1  0
 18  5  1  0
 38 26  1  0
M  CHG  1  38   1
M  END
>  <UniqueID>  (54) 
51

>  <SMILES>  (54) 
COc1ccc2c(c1)C(=O)/C(=C/c1ccc3[nH+]c(OC)ccc3c1)O2

>  <Energy>  (54) 
82.46843718931189

>  <Genealogy>  (54) 
COc1ccc2c(c1)C(=O)C(=Cc1ccc3[nH+]c(OC)ccc3c1)O2 (protonated)
COc1ccc2c(c1)C(=O)/C(=C/c1ccc3[nH+]c(OC)ccc3c1)O2 (cis-trans isomerization)
COc1ccc2c(c1)C(=O)/C(=C/c1ccc3[nH+]c(OC)ccc3c1)O2 (3D coordinates assigned)
COc1ccc2c(c1)C(=O)/C(=C/c1ccc3[nH+]c(OC)ccc3c1)O2 (nonaromatic ring conformer: 82.46843718931189 kcal/mol)

>  <smiles>  (54) 
COc1ccc2c(c1)C(=O)C(=Cc1ccc3nc(OC)ccc3c1)O2

>  <score_type>  (54) 
oracle

>  <origin>  (54) 
adg

>  <m_score__min__energy>  (54) 
-6.5

>  <m_primary>  (54) 
energy

$$$$
54:0
     RDKit          3D

 45 48  0  0  0  0  0  0  0  0999 V2000
   54.1630   27.9820   53.2500 C   0  0  0  0  0  0  0  0  0  0  0  0
   54.5100   29.3790   52.8330 C   0  0  0  0  0  0  0  0  0  0  0  0
   53.6290   30.3930   52.4450 C   0  0  0  0  0  0  0  0  0  0  0  0
   52.1340   30.2910   52.3830 C   0  0  0  0  0  0  0  0  0  0  0  0
   51.6400   30.7780   51.0560 C   0  0  0  0  0  0  0  0  0  0  0  0
   51.5810   30.0150   49.9490 N   0  0  0  0  0  0  0  0  0  0  0  0
   51.0420   30.8450   49.0300 C   0  0  0  0  0  0  0  0  0  0  0  0
   50.8250   30.4900   47.8420 O   0  0  0  0  0  0  0  0  0  0  0  0
   50.7500   32.0820   49.4840 N   0  0  0  0  0  0  0  0  0  0  0  0
   51.1320   32.0210   50.7690 C   0  0  0  0  0  0  0  0  0  0  0  0
   51.0200   33.0820   51.6590 O   0  0  0  0  0  0  0  0  0  0  0  0
   54.3140   31.4770   52.0120 N   0  0  0  0  0  0  0  0  0  0  0  0
   55.6160   31.1590   52.1190 C   0  0  0  0  0  0  0  0  0  0  0  0
   56.7060   31.9470   51.7600 C   0  0  0  0  0  0  0  0  0  0  0  0
   57.9920   31.4040   51.9160 C   0  0  0  0  0  0  0  0  0  0  0  0
   58.1710   30.0900   52.4230 C   0  0  0  0  0  0  0  0  0  0  0  0
   59.4940   29.5360   52.5560 N   0  0  0  0  0  0  0  0  0  0  0  0
   59.6710   28.1280   52.9250 C   0  0  0  0  0  0  0  0  0  0  0  0
   61.0770   27.6350   52.5390 C   0  0  0  0  0  0  0  0  0  0  0  0
   61.5250   28.2080   51.2510 N   0  0  0  0  0  0  0  0  0  0  0  0
   60.7330   27.6960   50.1190 C   0  0  0  0  0  0  0  0  0  0  0  0
   61.5850   29.6940   51.2560 C   0  0  0  0  0  0  0  0  0  0  0  0
   60.6880   30.3520   52.3210 C   0  0  0  0  0  0  0  0  0  0  0  0
   57.0380   29.3150   52.7620 C   0  0  0  0  0  0  0  0  0  0  0  0
   55.7750   29.8870   52.6060 C   0  0  0  0  0  0  0  0  0  0  0  0
   54.1477   27.9203   54.3482 H   0  0  0  0  0  0  0  0  0  0  0  0
   53.1717   27.7167   52.8540 H   0  0  0  0  0  0  0  0  0  0  0  0
   54.9150   27.2837   52.8540 H   0  0  0  0  0  0  0  0  0  0  0  0
   51.8349   29.2413   52.5197 H   0  0  0  0  0  0  0  0  0  0  0  0
   51.6973   30.9112   53.1796 H   0  0  0  0  0  0  0  0  0  0  0  0
   53.9150   32.3660   51.6360 H   0  0  0  0  0  0  0  0  0  0  0  0
   56.5645   32.9642   51.3660 H   0  0  0  0  0  0  0  0  0  0  0  0
   58.8718   32.0046   51.6418 H   0  0  0  0  0  0  0  0  0  0  0  0
   59.5366   28.0202   54.0114 H   0  0  0  0  0  0  0  0  0  0  0  0
   58.9254   27.5255   52.3855 H   0  0  0  0  0  0  0  0  0  0  0  0
   61.7865   27.9301   53.3261 H   0  0  0  0  0  0  0  0  0  0  0  0
   61.0385   26.5409   52.4318 H   0  0  0  0  0  0  0  0  0  0  0  0
   59.8668   27.1360   50.5011 H   0  0  0  0  0  0  0  0  0  0  0  0
   60.3829   28.5391   49.5054 H   0  0  0  0  0  0  0  0  0  0  0  0
   61.3581   27.0306   49.5054 H   0  0  0  0  0  0  0  0  0  0  0  0
   62.6254   29.9978   51.4439 H   0  0  0  0  0  0  0  0  0  0  0  0
   61.2165   30.0314   50.2760 H   0  0  0  0  0  0  0  0  0  0  0  0
   61.2518   30.4489   53.2605 H   0  0  0  0  0  0  0  0  0  0  0  0
   60.3777   31.3448   51.9632 H   0  0  0  0  0  0  0  0  0  0  0  0
   57.1494   28.2876   53.1390 H   0  0  0  0  0  0  0  0  0  0  0  0
  1  2  1  0
  2  3  2  0
  3  4  1  0
  4  5  1  0
  5  6  1  0
  6  7  1  0
  7  8  2  0
  7  9  1  0
  9 10  1  0
 10 11  1  0
  3 12  1  0
 12 13  1  0
 13 14  2  0
 14 15  1  0
 15 16  2  0
 16 17  1  0
 17 18  1  0
 18 19  1  0
 19 20  1  0
 20 21  1  0
 20 22  1  0
 22 23  1  0
 16 24  1  0
 24 25  2  0
 25  2  1  0
 10  5  2  0
 25 13  1  0
 23 17  1  0
  1 26  1  0
  1 27  1  0
  1 28  1  0
  4 29  1  0
  4 30  1  0
 12 31  1  0
 14 32  1  0
 15 33  1  0
 18 34  1  0
 18 35  1  0
 19 36  1  0
 19 37  1  0
 21 38  1  0
 21 39  1  0
 21 40  1  0
 22 41  1  0
 22 42  1  0
 23 43  1  0
 23 44  1  0
 24 45  1  0
M  CHG  3   6  -1   9  -1  11  -1
M  END
>  <UniqueID>  (55) 
52

>  <SMILES>  (55) 
Cc1c(Cc2[n-]c(=O)[n-]c2[O-])[nH]c2ccc(N3CCN(C)CC3)cc12

>  <Energy>  (55) 
118.23410409812392

>  <Genealogy>  (55) 
Cc1c(Cc2[n-]c(=O)[n-]c2[O-])[nH]c2ccc(N3CCN(C)CC3)cc12 (protonated)
Cc1c(Cc2[n-]c(=O)[n-]c2[O-])[nH]c2ccc(N3CCN(C)CC3)cc12 (3D coordinates assigned)
Cc1c(Cc2[n-]c(=O)[n-]c2[O-])[nH]c2ccc(N3CCN(C)CC3)cc12 (nonaromatic ring conformer: 118.23410409812392 kcal/mol)

>  <smiles>  (55) 
Cc1c(Cc2[nH]c(=O)[nH]c2O)[nH]c2ccc(N3CCN(C)CC3)cc12

>  <score_type>  (55) 
oracle

>  <origin>  (55) 
adg

>  <m_score__min__energy>  (55) 
-16.32

>  <m_primary>  (55) 
energy

$$$$
55:0
     RDKit          3D

 45 46  0  0  0  0  0  0  0  0999 V2000
   59.5820   35.0430   45.5900 C   0  0  0  0  0  0  0  0  0  0  0  0
   60.4950   34.9330   46.6590 O   0  0  0  0  0  0  0  0  0  0  0  0
   61.4910   33.9880   46.3310 C   0  0  0  0  0  0  0  0  0  0  0  0
   62.4150   33.7310   47.5320 C   0  0  2  0  0  0  0  0  0  0  0  0
   63.7470   33.0840   47.1300 C   0  0  0  0  0  0  0  0  0  0  0  0
   61.7360   32.9700   48.5850 N   0  0  0  0  0  0  0  0  0  0  0  0
   61.0410   31.7220   48.4490 C   0  0  0  0  0  0  0  0  0  0  0  0
   61.3890   30.7300   49.1470 O   0  0  0  0  0  0  0  0  0  0  0  0
   59.8970   31.5900   47.5060 C   0  0  0  0  0  0  0  0  0  0  0  0
   59.8750   30.5260   46.5830 C   0  0  0  0  0  0  0  0  0  0  0  0
   58.8390   30.3690   45.7030 N   0  0  0  0  0  0  0  0  0  0  0  0
   58.8550   29.2140   44.7890 C   0  0  0  0  0  0  0  0  0  0  0  0
   58.1860   28.0290   45.4350 C   0  0  0  0  0  0  0  0  0  0  0  0
   58.9560   27.0000   45.9950 C   0  0  0  0  0  0  0  0  0  0  0  0
   58.3380   25.8810   46.5610 C   0  0  0  0  0  0  0  0  0  0  0  0
   56.9340   25.7730   46.5690 C   0  0  0  0  0  0  0  0  0  0  0  0
   56.2710   24.6680   47.1250 O   0  0  0  0  0  0  0  0  0  0  0  0
   55.4410   23.7750   46.3910 C   0  0  0  0  0  0  0  0  0  0  0  0
   56.1670   26.8000   46.0010 C   0  0  0  0  0  0  0  0  0  0  0  0
   54.7790   26.7110   45.9970 O   0  0  0  0  0  0  0  0  0  0  0  0
   56.7880   27.9170   45.4330 C   0  0  0  0  0  0  0  0  0  0  0  0
   57.7860   31.2450   45.7090 C   0  0  0  0  0  0  0  0  0  0  0  0
   56.7190   31.0860   44.8300 O   0  0  0  0  0  0  0  0  0  0  0  0
   57.7660   32.3170   46.6000 C   0  0  0  0  0  0  0  0  0  0  0  0
   58.8160   32.4970   47.4980 C   0  0  0  0  0  0  0  0  0  0  0  0
   58.7800   33.4780   48.2870 O   0  0  0  0  0  0  0  0  0  0  0  0
   58.5640   35.1656   45.9884 H   0  0  0  0  0  0  0  0  0  0  0  0
   59.8423   35.9163   44.9739 H   0  0  0  0  0  0  0  0  0  0  0  0
   59.6274   34.1329   44.9739 H   0  0  0  0  0  0  0  0  0  0  0  0
   61.0096   33.0435   46.0376 H   0  0  0  0  0  0  0  0  0  0  0  0
   62.0937   34.3843   45.5005 H   0  0  0  0  0  0  0  0  0  0  0  0
   62.6656   34.7184   47.9470 H   0  0  0  0  0  0  0  0  0  0  0  0
   64.3097   32.8107   48.0348 H   0  0  0  0  0  0  0  0  0  0  0  0
   63.5507   32.1809   46.5335 H   0  0  0  0  0  0  0  0  0  0  0  0
   64.3355   33.7966   46.5335 H   0  0  0  0  0  0  0  0  0  0  0  0
   60.7074   29.8070   46.5694 H   0  0  0  0  0  0  0  0  0  0  0  0
   58.3185   29.4748   43.8648 H   0  0  0  0  0  0  0  0  0  0  0  0
   59.8986   28.9544   44.5575 H   0  0  0  0  0  0  0  0  0  0  0  0
   60.0535   27.0735   45.9890 H   0  0  0  0  0  0  0  0  0  0  0  0
   58.9512   25.0813   47.0021 H   0  0  0  0  0  0  0  0  0  0  0  0
   54.8630   23.1531   47.0904 H   0  0  0  0  0  0  0  0  0  0  0  0
   54.7514   24.3523   45.7576 H   0  0  0  0  0  0  0  0  0  0  0  0
   56.0671   23.1294   45.7576 H   0  0  0  0  0  0  0  0  0  0  0  0
   56.1764   28.7123   44.9821 H   0  0  0  0  0  0  0  0  0  0  0  0
   56.9209   33.0211   46.5941 H   0  0  0  0  0  0  0  0  0  0  0  0
  1  2  1  0
  2  3  1  0
  3  4  1  0
  4  5  1  0
  4  6  1  0
  6  7  1  0
  7  8  2  0
  7  9  1  0
  9 10  2  0
 10 11  1  0
 11 12  1  0
 12 13  1  0
 13 14  2  0
 14 15  1  0
 15 16  2  0
 16 17  1  0
 17 18  1  0
 16 19  1  0
 19 20  1  0
 19 21  2  0
 11 22  1  0
 22 23  1  0
 22 24  2  0
 24 25  1  0
 25 26  2  0
 25  9  1  0
 21 13  1  0
  1 27  1  0
  1 28  1  0
  1 29  1  0
  3 30  1  0
  3 31  1  0
  4 32  1  1
  5 33  1  0
  5 34  1  0
  5 35  1  0
 10 36  1  0
 12 37  1  0
 12 38  1  0
 14 39  1  0
 15 40  1  0
 18 41  1  0
 18 42  1  0
 18 43  1  0
 21 44  1  0
 24 45  1  0
M  CHG  3   6  -1  20  -1  23  -1
M  END
>  <UniqueID>  (56) 
53

>  <SMILES>  (56) 
COC[C@H](C)[N-]C(=O)c1cn(Cc2ccc(OC)c([O-])c2)c([O-])cc1=O

>  <Energy>  (56) 
46.76307452181109

>  <Genealogy>  (56) 
COCC(C)[N-]C(=O)c1cn(Cc2ccc(OC)c([O-])c2)c([O-])cc1=O (protonated)
COC[C@H](C)[N-]C(=O)c1cn(Cc2ccc(OC)c([O-])c2)c([O-])cc1=O (chirality)
COC[C@H](C)[N-]C(=O)c1cn(Cc2ccc(OC)c([O-])c2)c([O-])cc1=O (3D coordinates assigned)
COC[C@H](C)[N-]C(=O)c1cn(Cc2ccc(OC)c([O-])c2)c([O-])cc1=O (optimized conformer: 46.76307452181109 kcal/mol)

>  <smiles>  (56) 
COCC(C)NC(=O)c1cn(Cc2ccc(OC)c(O)c2)c(O)cc1=O

>  <score_type>  (56) 
oracle

>  <origin>  (56) 
adg

>  <m_score__min__energy>  (56) 
-12.69

>  <m_primary>  (56) 
energy

$$$$
56:0
     RDKit          3D

 47 49  0  0  0  0  0  0  0  0999 V2000
   63.7030   33.8760   47.4770 C   0  0  0  0  0  0  0  0  0  0  0  0
   62.6370   32.8600   47.7590 C   0  0  0  0  0  0  0  0  0  0  0  0
   62.6680   31.6090   47.1310 C   0  0  0  0  0  0  0  0  0  0  0  0
   61.6960   30.6520   47.4220 C   0  0  0  0  0  0  0  0  0  0  0  0
   60.6870   30.9170   48.3620 C   0  0  0  0  0  0  0  0  0  0  0  0
   59.7070   29.8530   48.6420 C   0  0  0  0  0  0  0  0  0  0  0  0
   59.8600   29.1000   49.6400 O   0  0  0  0  0  0  0  0  0  0  0  0
   58.5690   29.7080   47.7840 N   0  0  0  0  0  0  0  0  0  0  0  0
   58.2920   28.6020   46.9100 C   0  0  0  0  0  0  0  0  0  0  0  0
   58.5850   27.2860   47.3100 C   0  0  0  0  0  0  0  0  0  0  0  0
   58.3070   26.2080   46.4680 C   0  0  0  0  0  0  0  0  0  0  0  0
   57.7460   26.4290   45.2120 C   0  0  0  0  0  0  0  0  0  0  0  0
   57.4000   25.0710   44.1570 Cl  0  0  0  0  0  0  0  0  0  0  0  0
   57.4720   27.7320   44.7880 C   0  0  0  0  0  0  0  0  0  0  0  0
   57.7480   28.8360   45.6190 C   0  0  0  0  0  0  0  0  0  0  0  0
   57.4440   30.2060   45.1200 C   0  0  0  0  0  0  0  0  0  0  0  0
   56.2670   30.5210   44.7990 O   0  0  0  0  0  0  0  0  0  0  0  0
   58.5210   31.1430   44.9270 N   0  0  0  0  0  0  0  0  0  0  0  0
   58.6370   32.3730   45.3540 C   0  0  0  0  0  0  0  0  0  0  0  0
   58.8740   33.4650   44.4890 C   0  0  0  0  0  0  0  0  0  0  0  0
   58.9860   34.7520   45.0180 C   0  0  0  0  0  0  0  0  0  0  0  0
   58.8510   34.9540   46.3910 C   0  0  0  0  0  0  0  0  0  0  0  0
   58.5940   33.8630   47.2180 C   0  0  0  0  0  0  0  0  0  0  0  0
   58.4860   32.6130   46.6900 N   0  0  0  0  0  0  0  0  0  0  0  0
   60.6420   32.1840   48.9990 C   0  0  0  0  0  0  0  0  0  0  0  0
   59.3340   32.6450   50.1080 S   0  0  0  0  0  0  0  0  0  0  0  0
   59.4560   31.7360   51.6380 C   0  0  0  0  0  0  0  0  0  0  0  0
   59.3860   34.1230   50.3770 O   0  0  0  0  0  0  0  0  0  0  0  0
   58.0030   32.3190   49.4900 O   0  0  0  0  0  0  0  0  0  0  0  0
   61.6320   33.1360   48.6970 C   0  0  0  0  0  0  0  0  0  0  0  0
   64.1049   34.2590   48.4266 H   0  0  0  0  0  0  0  0  0  0  0  0
   64.5127   33.4070   46.8987 H   0  0  0  0  0  0  0  0  0  0  0  0
   63.2734   34.7073   46.8987 H   0  0  0  0  0  0  0  0  0  0  0  0
   63.4622   31.3800   46.4052 H   0  0  0  0  0  0  0  0  0  0  0  0
   61.7201   29.6790   46.9095 H   0  0  0  0  0  0  0  0  0  0  0  0
   59.0376   27.1044   48.2960 H   0  0  0  0  0  0  0  0  0  0  0  0
   58.5312   25.1824   46.7966 H   0  0  0  0  0  0  0  0  0  0  0  0
   57.0350   27.8981   43.7923 H   0  0  0  0  0  0  0  0  0  0  0  0
   58.9697   33.3019   43.4054 H   0  0  0  0  0  0  0  0  0  0  0  0
   59.1805   35.6059   44.3524 H   0  0  0  0  0  0  0  0  0  0  0  0
   58.9464   35.9639   46.8164 H   0  0  0  0  0  0  0  0  0  0  0  0
   58.4779   34.0121   48.3016 H   0  0  0  0  0  0  0  0  0  0  0  0
   58.2990   31.8140   47.3400 H   0  0  0  0  0  0  0  0  0  0  0  0
   59.3628   32.4308   52.4857 H   0  0  0  0  0  0  0  0  0  0  0  0
   58.6501   30.9889   51.6859 H   0  0  0  0  0  0  0  0  0  0  0  0
   60.4304   31.2278   51.6859 H   0  0  0  0  0  0  0  0  0  0  0  0
   61.6177   34.1119   49.2043 H   0  0  0  0  0  0  0  0  0  0  0  0
  1  2  1  0
  2  3  2  0
  3  4  1  0
  4  5  2  0
  5  6  1  0
  6  7  2  0
  6  8  1  0
  8  9  1  0
  9 10  2  0
 10 11  1  0
 11 12  2  0
 12 13  1  0
 12 14  1  0
 14 15  2  0
 15 16  1  0
 16 17  2  0
 16 18  1  0
 18 19  2  3
 19 20  1  0
 20 21  2  0
 21 22  1  0
 22 23  2  0
 23 24  1  0
  5 25  1  0
 25 26  1  0
 26 27  1  0
 26 28  2  0
 26 29  2  0
 25 30  2  0
 30  2  1  0
 15  9  1  0
 24 19  1  0
  1 31  1  0
  1 32  1  0
  1 33  1  0
  3 34  1  0
  4 35  1  0
 10 36  1  0
 11 37  1  0
 14 38  1  0
 20 39  1  0
 21 40  1  0
 22 41  1  0
 23 42  1  0
 24 43  1  0
 27 44  1  0
 27 45  1  0
 27 46  1  0
 30 47  1  0
M  CHG  1   8  -1
M  END
>  <UniqueID>  (57) 
54

>  <SMILES>  (57) 
Cc1ccc(C(=O)[N-]c2ccc(Cl)cc2C(=O)N=c2cccc[nH]2)c(S(C)(=O)=O)c1

>  <Energy>  (57) 
68.49296607525112

>  <Genealogy>  (57) 
Cc1ccc(C(=O)[N-]c2ccc(Cl)cc2C(=O)N=c2cccc[nH]2)c(S(C)(=O)=O)c1 (protonated)
Cc1ccc(C(=O)[N-]c2ccc(Cl)cc2C(=O)N=c2cccc[nH]2)c(S(C)(=O)=O)c1 (3D coordinates assigned)
Cc1ccc(C(=O)[N-]c2ccc(Cl)cc2C(=O)N=c2cccc[nH]2)c(S(C)(=O)=O)c1 (optimized conformer: 68.49296607525112 kcal/mol)

>  <smiles>  (57) 
Cc1ccc(C(=O)Nc2ccc(Cl)cc2C(=O)N=c2cccc[nH]2)c(S(C)(=O)=O)c1

>  <score_type>  (57) 
oracle

>  <origin>  (57) 
adg

>  <m_score__min__energy>  (57) 
-9.4499999999999993

>  <m_primary>  (57) 
energy

$$$$
57:0
     RDKit          3D

 36 37  0  0  0  0  0  0  0  0999 V2000
   59.5050   30.8320   48.3180 C   0  0  0  0  0  0  0  0  0  0  0  0
   59.3110   31.9100   49.1000 C   0  0  0  0  0  0  0  0  0  0  0  0
   58.4660   31.7610   50.3160 C   0  0  0  0  0  0  0  0  0  0  0  0
   57.7650   30.7230   50.4790 O   0  0  0  0  0  0  0  0  0  0  0  0
   58.4340   32.7790   51.2750 O   0  0  0  0  0  0  0  0  0  0  0  0
   57.5540   32.7580   52.3920 C   0  0  0  0  0  0  0  0  0  0  0  0
   59.8100   33.2990   48.6670 C   0  0  0  0  0  0  0  0  0  0  0  0
   59.5210   34.2160   49.7010 O   0  0  0  0  0  0  0  0  0  0  0  0
   59.0270   33.6590   47.3930 C   0  0  0  0  0  0  0  0  0  0  0  0
   57.7500   33.1120   47.1400 C   0  0  0  0  0  0  0  0  0  0  0  0
   57.0710   33.4030   45.9540 C   0  0  0  0  0  0  0  0  0  0  0  0
   57.6570   34.2270   44.9940 C   0  0  0  0  0  0  0  0  0  0  0  0
   58.9290   34.7560   45.2130 C   0  0  0  0  0  0  0  0  0  0  0  0
   59.6140   34.4690   46.3970 C   0  0  0  0  0  0  0  0  0  0  0  0
   61.3400   33.3440   48.4720 C   0  0  0  0  0  0  0  0  0  0  0  0
   62.1970   33.8410   49.4800 C   0  0  0  0  0  0  0  0  0  0  0  0
   63.5860   33.7990   49.3240 C   0  0  0  0  0  0  0  0  0  0  0  0
   64.1460   33.2190   48.1860 C   0  0  0  0  0  0  0  0  0  0  0  0
   63.3200   32.6610   47.2110 C   0  0  0  0  0  0  0  0  0  0  0  0
   61.9320   32.7010   47.3610 C   0  0  0  0  0  0  0  0  0  0  0  0
   60.1251   30.9134   47.4131 H   0  0  0  0  0  0  0  0  0  0  0  0
   59.0435   29.8695   48.5838 H   0  0  0  0  0  0  0  0  0  0  0  0
   58.1414   32.7720   53.3219 H   0  0  0  0  0  0  0  0  0  0  0  0
   56.8985   33.6408   52.3590 H   0  0  0  0  0  0  0  0  0  0  0  0
   56.9414   31.8450   52.3590 H   0  0  0  0  0  0  0  0  0  0  0  0
   59.5720   33.7310   50.5680 H   0  0  0  0  0  0  0  0  0  0  0  0
   57.2847   32.4496   47.8847 H   0  0  0  0  0  0  0  0  0  0  0  0
   56.0708   32.9806   45.7771 H   0  0  0  0  0  0  0  0  0  0  0  0
   57.1166   34.4598   44.0646 H   0  0  0  0  0  0  0  0  0  0  0  0
   59.3939   35.4004   44.4523 H   0  0  0  0  0  0  0  0  0  0  0  0
   60.6224   34.8792   46.5546 H   0  0  0  0  0  0  0  0  0  0  0  0
   61.7661   34.2661   50.3985 H   0  0  0  0  0  0  0  0  0  0  0  0
   64.2385   34.2244   50.1007 H   0  0  0  0  0  0  0  0  0  0  0  0
   65.2384   33.2018   48.0577 H   0  0  0  0  0  0  0  0  0  0  0  0
   63.7625   32.1883   46.3218 H   0  0  0  0  0  0  0  0  0  0  0  0
   61.2907   32.2256   46.6042 H   0  0  0  0  0  0  0  0  0  0  0  0
  1  2  2  0
  2  3  1  0
  3  4  2  0
  3  5  1  0
  5  6  1  0
  2  7  1  0
  7  8  1  0
  7  9  1  0
  9 10  2  0
 10 11  1  0
 11 12  2  0
 12 13  1  0
 13 14  2  0
  7 15  1  0
 15 16  2  0
 16 17  1  0
 17 18  2  0
 18 19  1  0
 19 20  2  0
 14  9  1  0
 20 15  1  0
  1 21  1  0
  1 22  1  0
  6 23  1  0
  6 24  1  0
  6 25  1  0
  8 26  1  0
 10 27  1  0
 11 28  1  0
 12 29  1  0
 13 30  1  0
 14 31  1  0
 16 32  1  0
 17 33  1  0
 18 34  1  0
 19 35  1  0
 20 36  1  0
M  END
>  <UniqueID>  (58) 
55

>  <SMILES>  (58) 
C=C(C(=O)OC)C(O)(c1ccccc1)c1ccccc1

>  <Energy>  (58) 
46.640700454293686

>  <Genealogy>  (58) 
C=C(C(=O)OC)C(O)(c1ccccc1)c1ccccc1 (3D coordinates assigned)
C=C(C(=O)OC)C(O)(c1ccccc1)c1ccccc1 (optimized conformer: 46.640700454293686 kcal/mol)

>  <smiles>  (58) 
C=C(C(=O)OC)C(O)(c1ccccc1)c1ccccc1

>  <score_type>  (58) 
oracle

>  <origin>  (58) 
adg

>  <m_score__min__energy>  (58) 
-6.1600000000000001

>  <m_primary>  (58) 
energy

$$$$
58:0
     RDKit          3D

 40 41  0  0  0  0  0  0  0  0999 V2000
   58.0095   24.2427   45.8229 H   0  0  0  0  0  0  0  0  0  0  0  0
   57.3000   24.9470   45.3640 C   0  0  0  0  0  0  0  0  0  0  0  0
   56.0960   24.4690   44.9950 C   0  0  0  0  0  0  0  0  0  0  0  0
   55.9750   23.3970   44.0310 C   0  0  0  0  0  0  0  0  0  0  0  0
   55.8790   22.5420   43.2570 N   0  0  0  0  0  0  0  0  0  0  0  0
   54.8610   24.9850   45.6250 C   0  0  0  0  0  0  0  0  0  0  0  0
   53.9050   24.2040   45.8800 O   0  0  0  0  0  0  0  0  0  0  0  0
   54.7300   26.3330   45.9400 O   0  0  0  0  0  0  0  0  0  0  0  0
   57.7380   26.3510   45.1970 C   0  0  0  0  0  0  0  0  0  0  0  0
   58.1370   26.7920   43.9290 C   0  0  0  0  0  0  0  0  0  0  0  0
   58.0887   26.1041   43.0720 H   0  0  0  0  0  0  0  0  0  0  0  0
   58.5950   28.0960   43.7440 C   0  0  0  0  0  0  0  0  0  0  0  0
   58.8918   28.4338   42.7401 H   0  0  0  0  0  0  0  0  0  0  0  0
   58.6800   28.9830   44.8340 C   0  0  0  0  0  0  0  0  0  0  0  0
   59.1250   30.3060   44.6910 O   0  0  0  0  0  0  0  0  0  0  0  0
   58.1090   31.6630   44.4550 S   0  0  0  0  0  0  0  0  0  0  0  0
   58.1380   32.0540   43.0040 O   0  0  0  0  0  0  0  0  0  0  0  0
   56.7030   31.2980   44.8400 O   0  0  0  0  0  0  0  0  0  0  0  0
   58.6760   33.0170   45.4280 C   0  0  0  0  0  0  0  0  0  0  0  0
   59.0670   34.2120   44.8050 C   0  0  0  0  0  0  0  0  0  0  0  0
   59.0117   34.3043   43.7103 H   0  0  0  0  0  0  0  0  0  0  0  0
   59.5270   35.2860   45.5740 C   0  0  0  0  0  0  0  0  0  0  0  0
   59.8379   36.2201   45.0832 H   0  0  0  0  0  0  0  0  0  0  0  0
   59.5920   35.1730   46.9670 C   0  0  0  0  0  0  0  0  0  0  0  0
   59.9539   36.0180   47.5711 H   0  0  0  0  0  0  0  0  0  0  0  0
   59.1970   33.9860   47.5910 C   0  0  0  0  0  0  0  0  0  0  0  0
   59.2580   33.8780   48.9410 F   0  0  0  0  0  0  0  0  0  0  0  0
   58.7380   32.9100   46.8240 C   0  0  0  0  0  0  0  0  0  0  0  0
   58.4251   31.9781   47.3175 H   0  0  0  0  0  0  0  0  0  0  0  0
   58.3130   28.5440   46.1150 C   0  0  0  0  0  0  0  0  0  0  0  0
   58.4370   29.4500   47.1830 O   0  0  0  0  0  0  0  0  0  0  0  0
   59.5510   29.5470   48.0720 C   0  0  0  0  0  0  0  0  0  0  0  0
   59.8185   28.5407   48.4267 H   0  0  0  0  0  0  0  0  0  0  0  0
   59.2714   30.1891   48.9202 H   0  0  0  0  0  0  0  0  0  0  0  0
   60.7520   30.1640   47.3660 C   0  0  0  0  0  0  0  0  0  0  0  0
   61.4685   30.5321   48.1151 H   0  0  0  0  0  0  0  0  0  0  0  0
   61.2377   29.4038   46.7366 H   0  0  0  0  0  0  0  0  0  0  0  0
   60.4169   31.0016   46.7366 H   0  0  0  0  0  0  0  0  0  0  0  0
   57.8500   27.2240   46.2920 C   0  0  0  0  0  0  0  0  0  0  0  0
   57.5737   26.8742   47.2976 H   0  0  0  0  0  0  0  0  0  0  0  0
  1  2  1  0
  2  3  2  0
  3  4  1  0
  4  5  3  0
  3  6  1  0
  6  7  2  0
  6  8  1  0
  2  9  1  0
  9 10  2  0
 10 11  1  0
 10 12  1  0
 12 13  1  0
 12 14  2  0
 14 15  1  0
 15 16  1  0
 16 17  2  0
 16 18  2  0
 16 19  1  0
 19 20  2  0
 20 21  1  0
 20 22  1  0
 22 23  1  0
 22 24  2  0
 24 25  1  0
 24 26  1  0
 26 27  1  0
 26 28  2  0
 28 29  1  0
 14 30  1  0
 30 31  1  0
 31 32  1  0
 32 33  1  0
 32 34  1  0
 32 35  1  0
 35 36  1  0
 35 37  1  0
 35 38  1  0
 30 39  2  0
 39 40  1  0
 39  9  1  0
 28 19  1  0
M  CHG  1   8  -1
M  END
>  <UniqueID>  (59) 
56

>  <SMILES>  (59) 
CCOc1cc(/C=C(\C#N)C(=O)[O-])ccc1OS(=O)(=O)c1cccc(F)c1

>  <Energy>  (59) 
43.27563307925459

>  <Genealogy>  (59) 
CCOc1cc(C=C(C#N)C(=O)[O-])ccc1OS(=O)(=O)c1cccc(F)c1 (protonated)
CCOc1cc(/C=C(\C#N)C(=O)[O-])ccc1OS(=O)(=O)c1cccc(F)c1 (cis-trans isomerization)
CCOc1cc(/C=C(\C#N)C(=O)[O-])ccc1OS(=O)(=O)c1cccc(F)c1 (3D coordinates assigned)
CCOc1cc(/C=C(\C#N)C(=O)[O-])ccc1OS(=O)(=O)c1cccc(F)c1 (optimized conformer: 43.27563307925459 kcal/mol)

>  <smiles>  (59) 
CCOc1cc(C=C(C#N)C(=O)O)ccc1OS(=O)(=O)c1cccc(F)c1

>  <score_type>  (59) 
oracle

>  <origin>  (59) 
adg

>  <m_score__min__energy>  (59) 
-11.109999999999999

>  <m_primary>  (59) 
energy

$$$$
59:0
     RDKit          3D

 51 53  0  0  0  0  0  0  0  0999 V2000
   57.3480   20.7010   46.5660 C   0  0  0  0  0  0  0  0  0  0  0  0
   57.3190   21.1430   47.9040 O   0  0  0  0  0  0  0  0  0  0  0  0
   56.2340   22.0310   48.0790 C   0  0  0  0  0  0  0  0  0  0  0  0
   56.1530   22.9740   46.8850 C   0  0  0  0  0  0  0  0  0  0  0  0
   55.8130   24.3210   47.3420 N   0  0  0  0  0  0  0  0  0  0  0  0
   55.9830   25.4480   46.0320 S   0  0  0  0  0  0  0  0  0  0  0  0
   54.7800   26.3480   45.9940 O   0  0  0  0  0  0  0  0  0  0  0  0
   56.0640   24.6980   44.7310 O   0  0  0  0  0  0  0  0  0  0  0  0
   57.4250   26.4340   46.2650 C   0  0  0  0  0  0  0  0  0  0  0  0
   58.5910   25.8830   46.8080 C   0  0  0  0  0  0  0  0  0  0  0  0
   59.7190   26.6820   47.0000 C   0  0  0  0  0  0  0  0  0  0  0  0
   59.6910   28.0350   46.6500 C   0  0  0  0  0  0  0  0  0  0  0  0
   58.5300   28.6040   46.0930 C   0  0  0  0  0  0  0  0  0  0  0  0
   58.4710   30.0400   45.7190 C   0  0  0  0  0  0  0  0  0  0  0  0
   57.9280   30.4660   44.5050 C   0  0  0  0  0  0  0  0  0  0  0  0
   57.8780   31.8320   44.2260 C   0  0  0  0  0  0  0  0  0  0  0  0
   57.3830   32.2030   43.1270 O   0  0  0  0  0  0  0  0  0  0  0  0
   58.3520   32.7500   45.1340 N   0  0  0  0  0  0  0  0  0  0  0  0
   58.2960   34.1920   44.8310 C   0  0  0  0  0  0  0  0  0  0  0  0
   58.8890   32.3040   46.3220 C   0  0  0  0  0  0  0  0  0  0  0  0
   59.4010   33.2390   47.3960 C   0  0  0  0  0  0  0  0  0  0  0  0
   60.9070   33.2400   47.4390 C   0  0  0  0  0  0  0  0  0  0  0  0
   61.6450   33.8510   46.4090 C   0  0  0  0  0  0  0  0  0  0  0  0
   63.0430   33.8560   46.4500 C   0  0  0  0  0  0  0  0  0  0  0  0
   63.7150   33.2560   47.5190 C   0  0  0  0  0  0  0  0  0  0  0  0
   62.9900   32.6560   48.5510 C   0  0  0  0  0  0  0  0  0  0  0  0
   61.5920   32.6510   48.5170 C   0  0  0  0  0  0  0  0  0  0  0  0
   58.9280   30.9720   46.5900 N   0  0  0  0  0  0  0  0  0  0  0  0
   57.3950   27.7900   45.9130 C   0  0  0  0  0  0  0  0  0  0  0  0
   57.4200   19.6036   46.5439 H   0  0  0  0  0  0  0  0  0  0  0  0
   56.4271   21.0184   46.0549 H   0  0  0  0  0  0  0  0  0  0  0  0
   58.2195   21.1360   46.0549 H   0  0  0  0  0  0  0  0  0  0  0  0
   55.2990   21.4568   48.1571 H   0  0  0  0  0  0  0  0  0  0  0  0
   56.3828   22.6155   48.9989 H   0  0  0  0  0  0  0  0  0  0  0  0
   57.1251   22.9970   46.3708 H   0  0  0  0  0  0  0  0  0  0  0  0
   55.3765   22.6179   46.1920 H   0  0  0  0  0  0  0  0  0  0  0  0
   58.6186   24.8185   47.0839 H   0  0  0  0  0  0  0  0  0  0  0  0
   60.6334   26.2455   47.4283 H   0  0  0  0  0  0  0  0  0  0  0  0
   60.5822   28.6594   46.8109 H   0  0  0  0  0  0  0  0  0  0  0  0
   57.5449   29.7343   43.7785 H   0  0  0  0  0  0  0  0  0  0  0  0
   58.2738   34.7635   45.7706 H   0  0  0  0  0  0  0  0  0  0  0  0
   59.1837   34.4790   44.2482 H   0  0  0  0  0  0  0  0  0  0  0  0
   57.3887   34.4092   44.2482 H   0  0  0  0  0  0  0  0  0  0  0  0
   59.0467   34.2585   47.1840 H   0  0  0  0  0  0  0  0  0  0  0  0
   59.0232   32.8940   48.3698 H   0  0  0  0  0  0  0  0  0  0  0  0
   61.1202   34.3270   45.5676 H   0  0  0  0  0  0  0  0  0  0  0  0
   63.6145   34.3327   45.6400 H   0  0  0  0  0  0  0  0  0  0  0  0
   64.8146   33.2565   47.5473 H   0  0  0  0  0  0  0  0  0  0  0  0
   63.5200   32.1862   49.3927 H   0  0  0  0  0  0  0  0  0  0  0  0
   61.0258   32.1845   49.3366 H   0  0  0  0  0  0  0  0  0  0  0  0
   56.4757   28.2230   45.4919 H   0  0  0  0  0  0  0  0  0  0  0  0
  1  2  1  0
  2  3  1  0
  3  4  1  0
  4  5  1  0
  5  6  1  0
  6  7  2  0
  6  8  2  0
  6  9  1  0
  9 10  2  0
 10 11  1  0
 11 12  2  0
 12 13  1  0
 13 14  1  0
 14 15  2  0
 15 16  1  0
 16 17  2  0
 16 18  1  0
 18 19  1  0
 18 20  1  0
 20 21  1  0
 21 22  1  0
 22 23  2  0
 23 24  1  0
 24 25  2  0
 25 26  1  0
 26 27  2  0
 20 28  2  0
 13 29  2  0
 29  9  1  0
 28 14  1  0
 27 22  1  0
  1 30  1  0
  1 31  1  0
  1 32  1  0
  3 33  1  0
  3 34  1  0
  4 35  1  0
  4 36  1  0
 10 37  1  0
 11 38  1  0
 12 39  1  0
 15 40  1  0
 19 41  1  0
 19 42  1  0
 19 43  1  0
 21 44  1  0
 21 45  1  0
 23 46  1  0
 24 47  1  0
 25 48  1  0
 26 49  1  0
 27 50  1  0
 29 51  1  0
M  CHG  1   5  -1
M  END
>  <UniqueID>  (60) 
57

>  <SMILES>  (60) 
COCC[N-]S(=O)(=O)c1cccc(-c2cc(=O)n(C)c(Cc3ccccc3)n2)c1

>  <Energy>  (60) 
57.13134679707659

>  <Genealogy>  (60) 
COCC[N-]S(=O)(=O)c1cccc(-c2cc(=O)n(C)c(Cc3ccccc3)n2)c1 (protonated)
COCC[N-]S(=O)(=O)c1cccc(-c2cc(=O)n(C)c(Cc3ccccc3)n2)c1 (3D coordinates assigned)
COCC[N-]S(=O)(=O)c1cccc(-c2cc(=O)n(C)c(Cc3ccccc3)n2)c1 (optimized conformer: 57.13134679707659 kcal/mol)

>  <smiles>  (60) 
COCCNS(=O)(=O)c1cccc(-c2cc(=O)n(C)c(Cc3ccccc3)n2)c1

>  <score_type>  (60) 
oracle

>  <origin>  (60) 
adg

>  <m_score__min__energy>  (60) 
-11.1

>  <m_primary>  (60) 
energy

$$$$
60:0
     RDKit          3D

 30 32  0  0  0  0  0  0  0  0999 V2000
   60.8150   29.2530   45.4250 C   0  0  0  0  0  0  0  0  0  0  0  0
   59.5200   28.5160   45.6000 C   0  0  0  0  0  0  0  0  0  0  0  0
   59.5700   27.2680   46.0570 O   0  0  0  0  0  0  0  0  0  0  0  0
   58.4880   26.5250   46.2640 C   0  0  0  0  0  0  0  0  0  0  0  0
   58.6400   25.2230   46.7490 C   0  0  0  0  0  0  0  0  0  0  0  0
   57.5190   24.4230   46.9790 C   0  0  0  0  0  0  0  0  0  0  0  0
   57.6770   23.1290   47.4610 O   0  0  0  0  0  0  0  0  0  0  0  0
   56.2390   24.9210   46.7250 C   0  0  0  0  0  0  0  0  0  0  0  0
   56.0690   26.2230   46.2390 C   0  0  0  0  0  0  0  0  0  0  0  0
   54.7770   26.6790   46.0000 O   0  0  0  0  0  0  0  0  0  0  0  0
   57.1980   27.0420   46.0030 C   0  0  0  0  0  0  0  0  0  0  0  0
   57.1040   28.3590   45.5090 C   0  0  0  0  0  0  0  0  0  0  0  0
   55.9800   28.8700   45.2450 O   0  0  0  0  0  0  0  0  0  0  0  0
   58.2750   29.1090   45.2960 C   0  0  0  0  0  0  0  0  0  0  0  0
   58.1890   30.4930   44.7720 C   0  0  0  0  0  0  0  0  0  0  0  0
   57.8000   30.7270   43.4430 C   0  0  0  0  0  0  0  0  0  0  0  0
   57.7160   32.0340   42.9540 C   0  0  0  0  0  0  0  0  0  0  0  0
   58.0150   33.1140   43.7890 C   0  0  0  0  0  0  0  0  0  0  0  0
   58.3940   32.8890   45.1150 C   0  0  0  0  0  0  0  0  0  0  0  0
   58.4790   31.5830   45.6080 C   0  0  0  0  0  0  0  0  0  0  0  0
   61.2366   29.4930   46.4122 H   0  0  0  0  0  0  0  0  0  0  0  0
   61.5232   28.6226   44.8672 H   0  0  0  0  0  0  0  0  0  0  0  0
   60.6347   30.1838   44.8672 H   0  0  0  0  0  0  0  0  0  0  0  0
   59.6464   24.8271   46.9502 H   0  0  0  0  0  0  0  0  0  0  0  0
   55.3593   24.2865   46.9079 H   0  0  0  0  0  0  0  0  0  0  0  0
   57.5606   29.8790   42.7846 H   0  0  0  0  0  0  0  0  0  0  0  0
   57.4144   32.2124   41.9113 H   0  0  0  0  0  0  0  0  0  0  0  0
   57.9520   34.1418   43.4022 H   0  0  0  0  0  0  0  0  0  0  0  0
   58.6258   33.7403   45.7720 H   0  0  0  0  0  0  0  0  0  0  0  0
   58.7738   31.4094   46.6534 H   0  0  0  0  0  0  0  0  0  0  0  0
  1  2  1  0
  2  3  1  0
  3  4  1  0
  4  5  2  0
  5  6  1  0
  6  7  1  0
  6  8  2  0
  8  9  1  0
  9 10  1  0
  9 11  2  0
 11 12  1  0
 12 13  2  0
 12 14  1  0
 14 15  1  0
 15 16  2  0
 16 17  1  0
 17 18  2  0
 18 19  1  0
 19 20  2  0
 14  2  2  0
 20 15  1  0
 11  4  1  0
  1 21  1  0
  1 22  1  0
  1 23  1  0
  5 24  1  0
  8 25  1  0
 16 26  1  0
 17 27  1  0
 18 28  1  0
 19 29  1  0
 20 30  1  0
M  CHG  2   7  -1  10  -1
M  END
>  <UniqueID>  (61) 
58

>  <SMILES>  (61) 
Cc1oc2cc([O-])cc([O-])c2c(=O)c1-c1ccccc1

>  <Energy>  (61) 
47.47210597549405

>  <Genealogy>  (61) 
Cc1oc2cc([O-])cc([O-])c2c(=O)c1-c1ccccc1 (protonated)
Cc1oc2cc([O-])cc([O-])c2c(=O)c1-c1ccccc1 (3D coordinates assigned)
Cc1oc2cc([O-])cc([O-])c2c(=O)c1-c1ccccc1 (optimized conformer: 47.47210597549405 kcal/mol)

>  <smiles>  (61) 
Cc1oc2cc(O)cc(O)c2c(=O)c1-c1ccccc1

>  <score_type>  (61) 
oracle

>  <origin>  (61) 
adg

>  <m_score__min__energy>  (61) 
-13.630000000000001

>  <m_primary>  (61) 
energy

$$$$
61:0
     RDKit          3D

 38 39  0  0  0  0  0  0  0  0999 V2000
   59.2980   29.3700   47.7340 C   0  0  0  0  0  0  0  0  0  0  0  0
   58.2140   29.4430   46.6490 C   0  0  0  0  0  0  0  0  0  0  0  0
   58.5940   28.8620   45.3320 N   0  0  2  0  0  0  0  0  0  0  0  0
   57.8220   29.4160   44.1840 C   0  0  0  0  0  0  0  0  0  0  0  0
   56.6330   30.2630   44.5720 C   0  0  0  0  0  0  0  0  0  0  0  0
   55.5830   29.7140   44.9970 O   0  0  0  0  0  0  0  0  0  0  0  0
   56.7100   31.6880   44.4340 N   0  0  0  0  0  0  0  0  0  0  0  0
   57.5760   32.5820   45.1460 C   0  0  0  0  0  0  0  0  0  0  0  0
   57.7660   32.3770   46.5190 C   0  0  0  0  0  0  0  0  0  0  0  0
   58.5870   33.2350   47.2560 C   0  0  0  0  0  0  0  0  0  0  0  0
   59.2140   34.3160   46.6300 C   0  0  0  0  0  0  0  0  0  0  0  0
   60.0080   35.1470   47.3480 F   0  0  0  0  0  0  0  0  0  0  0  0
   59.0120   34.5440   45.2650 C   0  0  0  0  0  0  0  0  0  0  0  0
   59.6000   35.6040   44.6590 F   0  0  0  0  0  0  0  0  0  0  0  0
   58.1900   33.6860   44.5240 C   0  0  0  0  0  0  0  0  0  0  0  0
   58.6620   27.4050   45.3400 C   0  0  0  0  0  0  0  0  0  0  0  0
   59.7870   26.8310   45.3180 O   0  0  0  0  0  0  0  0  0  0  0  0
   57.4380   26.5510   45.4310 C   0  0  0  0  0  0  0  0  0  0  0  0
   57.3960   25.2280   44.9460 C   0  0  0  0  0  0  0  0  0  0  0  0
   56.2220   24.4790   45.0360 C   0  0  0  0  0  0  0  0  0  0  0  0
   55.0870   25.0490   45.6130 C   0  0  0  0  0  0  0  0  0  0  0  0
   54.0210   24.3860   45.7020 O   0  0  0  0  0  0  0  0  0  0  0  0
   55.1330   26.3220   46.0820 N   0  0  0  0  0  0  0  0  0  0  0  0
   56.2630   27.0730   46.0070 C   0  0  0  0  0  0  0  0  0  0  0  0
   58.8257   29.4018   48.7269 H   0  0  0  0  0  0  0  0  0  0  0  0
   59.8621   28.4318   47.6262 H   0  0  0  0  0  0  0  0  0  0  0  0
   59.9828   30.2241   47.6262 H   0  0  0  0  0  0  0  0  0  0  0  0
   57.3285   28.9034   47.0160 H   0  0  0  0  0  0  0  0  0  0  0  0
   58.0339   30.5132   46.4695 H   0  0  0  0  0  0  0  0  0  0  0  0
   59.5780   29.1940   45.2090 H   0  0  0  0  0  0  0  0  0  0  0  0
   58.5020   30.0359   43.5813 H   0  0  0  0  0  0  0  0  0  0  0  0
   57.4212   28.5520   43.6337 H   0  0  0  0  0  0  0  0  0  0  0  0
   57.2657   31.5352   47.0201 H   0  0  0  0  0  0  0  0  0  0  0  0
   58.7400   33.0592   48.3310 H   0  0  0  0  0  0  0  0  0  0  0  0
   58.0235   33.8750   43.4532 H   0  0  0  0  0  0  0  0  0  0  0  0
   58.2946   24.7831   44.4936 H   0  0  0  0  0  0  0  0  0  0  0  0
   56.1918   23.4475   44.6551 H   0  0  0  0  0  0  0  0  0  0  0  0
   56.2603   28.1002   46.4005 H   0  0  0  0  0  0  0  0  0  0  0  0
  1  2  1  0
  2  3  1  0
  3  4  1  0
  4  5  1  0
  5  6  2  0
  5  7  1  0
  7  8  1  0
  8  9  2  0
  9 10  1  0
 10 11  2  0
 11 12  1  0
 11 13  1  0
 13 14  1  0
 13 15  2  0
  3 16  1  0
 16 17  2  0
 16 18  1  0
 18 19  1  0
 19 20  2  0
 20 21  1  0
 21 22  2  0
 21 23  1  0
 23 24  1  0
 15  8  1  0
 24 18  2  0
  1 25  1  0
  1 26  1  0
  1 27  1  0
  2 28  1  0
  2 29  1  0
  3 30  1  6
  4 31  1  0
  4 32  1  0
  9 33  1  0
 10 34  1  0
 15 35  1  0
 19 36  1  0
 20 37  1  0
 24 38  1  0
M  CHG  3   3   1   7  -1  23  -1
M  END
>  <UniqueID>  (62) 
59

>  <SMILES>  (62) 
CC[N@H+](CC(=O)[N-]c1ccc(F)c(F)c1)C(=O)c1ccc(=O)[n-]c1

>  <Energy>  (62) 
54.988834288837765

>  <Genealogy>  (62) 
CC[NH+](CC(=O)[N-]c1ccc(F)c(F)c1)C(=O)c1ccc(=O)[n-]c1 (protonated)
CC[N@H+](CC(=O)[N-]c1ccc(F)c(F)c1)C(=O)c1ccc(=O)[n-]c1 (chirality)
CC[N@H+](CC(=O)[N-]c1ccc(F)c(F)c1)C(=O)c1ccc(=O)[n-]c1 (3D coordinates assigned)
CC[N@H+](CC(=O)[N-]c1ccc(F)c(F)c1)C(=O)c1ccc(=O)[n-]c1 (optimized conformer: 54.988834288837765 kcal/mol)

>  <smiles>  (62) 
CCN(CC(=O)Nc1ccc(F)c(F)c1)C(=O)c1ccc(=O)[nH]c1

>  <score_type>  (62) 
oracle

>  <origin>  (62) 
adg

>  <m_score__min__energy>  (62) 
-9.5999999999999996

>  <m_primary>  (62) 
energy

$$$$
62:0
     RDKit          3D

 33 34  0  0  0  0  0  0  0  0999 V2000
   57.9228   33.0728   49.6131 H   0  0  0  0  0  0  0  0  0  0  0  0
   58.9210   32.7830   49.9730 C   0  0  0  0  0  0  0  0  0  0  0  0
   59.0560   32.4522   51.0134 H   0  0  0  0  0  0  0  0  0  0  0  0
   59.9740   32.8330   49.1430 C   0  0  0  0  0  0  0  0  0  0  0  0
   61.1730   32.4580   49.6670 N   0  0  0  0  0  0  0  0  0  0  0  0
   62.3500   32.6450   49.0270 C   0  0  0  0  0  0  0  0  0  0  0  0
   63.2835   32.2749   49.4761 H   0  0  0  0  0  0  0  0  0  0  0  0
   62.3830   33.3060   47.7990 C   0  0  0  0  0  0  0  0  0  0  0  0
   63.6990   33.5540   47.1140 C   0  0  0  0  0  0  0  0  0  0  0  0
   64.4839   33.7019   47.8703 H   0  0  0  0  0  0  0  0  0  0  0  0
   63.9541   32.6881   46.4854 H   0  0  0  0  0  0  0  0  0  0  0  0
   63.6214   34.4533   46.4854 H   0  0  0  0  0  0  0  0  0  0  0  0
   61.1690   33.6660   47.1880 C   0  0  0  0  0  0  0  0  0  0  0  0
   61.2020   34.2240   46.0540 O   0  0  0  0  0  0  0  0  0  0  0  0
   59.9260   33.3700   47.8140 C   0  0  0  0  0  0  0  0  0  0  0  0
   58.7810   33.5860   47.1090 C   0  0  0  0  0  0  0  0  0  0  0  0
   58.0562   34.2906   47.5429 H   0  0  0  0  0  0  0  0  0  0  0  0
   58.4170   32.9650   45.8160 C   0  0  0  0  0  0  0  0  0  0  0  0
   58.5380   33.6770   44.6100 C   0  0  0  0  0  0  0  0  0  0  0  0
   58.9450   34.6989   44.6152 H   0  0  0  0  0  0  0  0  0  0  0  0
   58.1430   33.0910   43.4050 C   0  0  0  0  0  0  0  0  0  0  0  0
   58.2559   33.6459   42.4619 H   0  0  0  0  0  0  0  0  0  0  0  0
   57.6050   31.8020   43.3950 C   0  0  0  0  0  0  0  0  0  0  0  0
   57.2959   31.3438   42.4439 H   0  0  0  0  0  0  0  0  0  0  0  0
   57.4580   31.0910   44.5940 C   0  0  0  0  0  0  0  0  0  0  0  0
   56.7530   29.4780   44.5830 S   0  0  0  0  0  0  0  0  0  0  0  0
   57.3890   28.6380   45.6560 O   0  0  0  0  0  0  0  0  0  0  0  0
   55.2760   29.5670   44.8540 O   0  0  0  0  0  0  0  0  0  0  0  0
   57.0130   28.7480   43.0400 N   0  0  0  0  0  0  0  0  0  0  0  0
   58.0030   28.9460   42.7710 H   0  0  0  0  0  0  0  0  0  0  0  0
   56.9390   27.7140   43.1730 H   0  0  0  0  0  0  0  0  0  0  0  0
   57.8490   31.6820   45.8030 C   0  0  0  0  0  0  0  0  0  0  0  0
   57.7097   31.1365   46.7480 H   0  0  0  0  0  0  0  0  0  0  0  0
  1  2  1  0
  2  3  1  0
  2  4  2  0
  4  5  1  0
  5  6  1  0
  6  7  1  0
  6  8  2  0
  8  9  1  0
  9 10  1  0
  9 11  1  0
  9 12  1  0
  8 13  1  0
 13 14  2  0
 13 15  1  0
 15 16  2  0
 16 17  1  0
 16 18  1  0
 18 19  2  0
 19 20  1  0
 19 21  1  0
 21 22  1  0
 21 23  2  0
 23 24  1  0
 23 25  1  0
 25 26  1  0
 26 27  2  0
 26 28  2  0
 26 29  1  0
 29 30  1  0
 29 31  1  0
 25 32  2  0
 32 33  1  0
 15  4  1  0
 32 18  1  0
M  CHG  1   5  -1
M  END
>  <UniqueID>  (63) 
60

>  <SMILES>  (63) 
C=c1[n-]cc(C)c(=O)/c1=C/c1cccc(S(N)(=O)=O)c1

>  <Energy>  (63) 
55.87606529765707

>  <Genealogy>  (63) 
C=c1[n-]cc(C)c(=O)c1=Cc1cccc(S(N)(=O)=O)c1 (protonated)
C=c1[n-]cc(C)c(=O)/c1=C/c1cccc(S(N)(=O)=O)c1 (cis-trans isomerization)
C=c1[n-]cc(C)c(=O)/c1=C/c1cccc(S(N)(=O)=O)c1 (3D coordinates assigned)
C=c1[n-]cc(C)c(=O)/c1=C/c1cccc(S(N)(=O)=O)c1 (optimized conformer: 55.87606529765707 kcal/mol)

>  <smiles>  (63) 
C=c1[nH]cc(C)c(=O)c1=Cc1cccc(S(N)(=O)=O)c1

>  <score_type>  (63) 
oracle

>  <origin>  (63) 
adg

>  <m_score__min__energy>  (63) 
-9.6400000000000006

>  <m_primary>  (63) 
energy

$$$$
63:0
     RDKit          3D

 39 41  0  0  0  0  0  0  0  0999 V2000
   54.7680   26.3390   45.9640 O   0  0  0  0  0  0  0  0  0  0  0  0
   55.8660   25.7250   46.0510 C   0  0  0  0  0  0  0  0  0  0  0  0
   55.8710   24.3080   46.2560 N   0  0  0  0  0  0  0  0  0  0  0  0
   55.1880   23.3790   45.3680 C   0  0  0  0  0  0  0  0  0  0  0  0
   56.1980   22.6310   44.5630 C   0  0  0  0  0  0  0  0  0  0  0  0
   57.5600   22.6190   44.7890 C   0  0  0  0  0  0  0  0  0  0  0  0
   58.0920   21.8300   43.7930 C   0  0  0  0  0  0  0  0  0  0  0  0
   57.0260   21.4170   43.0200 C   0  0  0  0  0  0  0  0  0  0  0  0
   55.9100   21.9130   43.5040 O   0  0  0  0  0  0  0  0  0  0  0  0
   57.1440   26.4670   45.9420 C   0  0  0  0  0  0  0  0  0  0  0  0
   58.2790   26.0480   46.6590 C   0  0  0  0  0  0  0  0  0  0  0  0
   59.4810   26.7510   46.5530 C   0  0  0  0  0  0  0  0  0  0  0  0
   59.5690   27.8780   45.7340 C   0  0  0  0  0  0  0  0  0  0  0  0
   58.4460   28.3130   45.0100 C   0  0  0  0  0  0  0  0  0  0  0  0
   58.4890   29.4640   44.1560 N   0  0  0  0  0  0  0  0  0  0  0  0
   57.2930   30.7200   44.1080 S   0  0  0  0  0  0  0  0  0  0  0  0
   56.0360   30.2560   44.7870 O   0  0  0  0  0  0  0  0  0  0  0  0
   57.0050   31.0700   42.6750 O   0  0  0  0  0  0  0  0  0  0  0  0
   57.9080   32.1380   44.9480 C   0  0  0  0  0  0  0  0  0  0  0  0
   58.1390   33.3320   44.2470 C   0  0  0  0  0  0  0  0  0  0  0  0
   58.6190   34.4600   44.9210 C   0  0  0  0  0  0  0  0  0  0  0  0
   58.8660   34.4040   46.2960 C   0  0  0  0  0  0  0  0  0  0  0  0
   59.3300   35.4980   46.9470 F   0  0  0  0  0  0  0  0  0  0  0  0
   58.6290   33.2190   47.0000 C   0  0  0  0  0  0  0  0  0  0  0  0
   58.1490   32.0890   46.3290 C   0  0  0  0  0  0  0  0  0  0  0  0
   57.2410   27.6050   45.1190 C   0  0  0  0  0  0  0  0  0  0  0  0
   54.5952   22.6697   45.9642 H   0  0  0  0  0  0  0  0  0  0  0  0
   54.5208   23.9369   44.6945 H   0  0  0  0  0  0  0  0  0  0  0  0
   58.1056   23.1317   45.5949 H   0  0  0  0  0  0  0  0  0  0  0  0
   59.1527   21.5796   43.6439 H   0  0  0  0  0  0  0  0  0  0  0  0
   57.0996   20.7705   42.1331 H   0  0  0  0  0  0  0  0  0  0  0  0
   58.2196   25.1612   47.3072 H   0  0  0  0  0  0  0  0  0  0  0  0
   60.3630   26.4149   47.1178 H   0  0  0  0  0  0  0  0  0  0  0  0
   60.5192   28.4266   45.6552 H   0  0  0  0  0  0  0  0  0  0  0  0
   57.9423   33.3808   43.1658 H   0  0  0  0  0  0  0  0  0  0  0  0
   58.8025   35.3930   44.3680 H   0  0  0  0  0  0  0  0  0  0  0  0
   58.8202   33.1753   48.0824 H   0  0  0  0  0  0  0  0  0  0  0  0
   57.9601   31.1595   46.8860 H   0  0  0  0  0  0  0  0  0  0  0  0
   56.3598   27.9431   44.5541 H   0  0  0  0  0  0  0  0  0  0  0  0
  1  2  2  0
  2  3  1  0
  3  4  1  0
  4  5  1  0
  5  6  2  0
  6  7  1  0
  7  8  2  0
  8  9  1  0
  2 10  1  0
 10 11  2  0
 11 12  1  0
 12 13  2  0
 13 14  1  0
 14 15  1  0
 15 16  1  0
 16 17  2  0
 16 18  2  0
 16 19  1  0
 19 20  2  0
 20 21  1  0
 21 22  2  0
 22 23  1  0
 22 24  1  0
 24 25  2  0
 14 26  2  0
  9  5  1  0
 26 10  1  0
 25 19  1  0
  4 27  1  0
  4 28  1  0
  6 29  1  0
  7 30  1  0
  8 31  1  0
 11 32  1  0
 12 33  1  0
 13 34  1  0
 20 35  1  0
 21 36  1  0
 24 37  1  0
 25 38  1  0
 26 39  1  0
M  CHG  2   3  -1  15  -1
M  END
>  <UniqueID>  (64) 
61

>  <SMILES>  (64) 
O=C([N-]Cc1ccco1)c1cccc([N-]S(=O)(=O)c2ccc(F)cc2)c1

>  <Energy>  (64) 
68.96823466394082

>  <Genealogy>  (64) 
O=C([N-]Cc1ccco1)c1cccc([N-]S(=O)(=O)c2ccc(F)cc2)c1 (protonated)
O=C([N-]Cc1ccco1)c1cccc([N-]S(=O)(=O)c2ccc(F)cc2)c1 (3D coordinates assigned)
O=C([N-]Cc1ccco1)c1cccc([N-]S(=O)(=O)c2ccc(F)cc2)c1 (optimized conformer: 68.96823466394082 kcal/mol)

>  <smiles>  (64) 
O=C(NCc1ccco1)c1cccc(NS(=O)(=O)c2ccc(F)cc2)c1

>  <score_type>  (64) 
oracle

>  <origin>  (64) 
adg

>  <m_score__min__energy>  (64) 
-12.210000000000001

>  <m_primary>  (64) 
energy

$$$$
64:0
     RDKit          3D

 27 29  0  0  0  0  0  0  0  0999 V2000
   59.7420   28.2210   49.1050 H   0  0  0  0  0  0  0  0  0  0  0  0
   59.5800   29.1840   49.4750 N   0  0  0  0  0  0  0  0  0  0  0  0
   59.1690   29.3830   50.6840 C   0  0  0  0  0  0  0  0  0  0  0  0
   60.0130   29.1530   51.7440 N   0  0  0  0  0  0  0  0  0  0  0  0
   59.6040   29.3560   53.0320 C   0  0  0  0  0  0  0  0  0  0  0  0
   60.3880   29.1470   53.9950 O   0  0  0  0  0  0  0  0  0  0  0  0
   58.3060   29.8000   53.2390 C   0  0  0  0  0  0  0  0  0  0  0  0
   57.6740   30.0890   54.3920 N   0  0  0  0  0  0  0  0  0  0  0  0
   56.4420   30.4840   53.9650 C   0  0  0  0  0  0  0  0  0  0  0  0
   55.6437   30.8135   54.6463 H   0  0  0  0  0  0  0  0  0  0  0  0
   56.2960   30.4310   52.6140 N   0  0  0  0  0  0  0  0  0  0  0  0
   55.1490   30.8640   51.8140 C   0  0  0  0  0  0  0  0  0  0  0  0
   54.9638   31.9321   52.0009 H   0  0  0  0  0  0  0  0  0  0  0  0
   55.3791   30.6905   50.7524 H   0  0  0  0  0  0  0  0  0  0  0  0
   53.9130   30.0820   52.1680 C   0  0  0  0  0  0  0  0  0  0  0  0
   54.0506   29.0357   52.4783 H   0  0  0  0  0  0  0  0  0  0  0  0
   52.6560   30.5540   52.1370 C   0  0  0  0  0  0  0  0  0  0  0  0
   52.1552   30.7103   53.1039 H   0  0  0  0  0  0  0  0  0  0  0  0
   51.8860   30.8820   50.9190 C   0  0  0  0  0  0  0  0  0  0  0  0
   51.8000   30.1240   49.8120 N   0  0  0  0  0  0  0  0  0  0  0  0
   51.0160   30.8520   48.9880 C   0  0  0  0  0  0  0  0  0  0  0  0
   50.6950   30.4610   47.8360 O   0  0  0  0  0  0  0  0  0  0  0  0
   50.6020   32.0320   49.4980 N   0  0  0  0  0  0  0  0  0  0  0  0
   51.1650   32.0360   50.7180 C   0  0  0  0  0  0  0  0  0  0  0  0
   51.0220   33.0740   51.6290 O   0  0  0  0  0  0  0  0  0  0  0  0
   57.4930   30.0150   52.1820 C   0  0  0  0  0  0  0  0  0  0  0  0
   57.8920   29.8230   50.9010 N   0  0  0  0  0  0  0  0  0  0  0  0
  1  2  1  0
  2  3  2  3
  3  4  1  0
  4  5  1  0
  5  6  2  0
  5  7  1  0
  7  8  1  0
  8  9  2  0
  9 10  1  0
  9 11  1  0
 11 12  1  0
 12 13  1  0
 12 14  1  0
 12 15  1  0
 15 16  1  0
 15 17  2  0
 17 18  1  0
 17 19  1  0
 19 20  1  0
 20 21  1  0
 21 22  2  0
 21 23  1  0
 23 24  1  0
 24 25  1  0
 11 26  1  0
 26 27  1  0
 27  3  1  0
 26  7  2  0
 24 19  2  0
M  CHG  5   4  -1  20  -1  23  -1  25  -1  27  -1
M  END
>  <UniqueID>  (65) 
62

>  <SMILES>  (65) 
N=c1[n-]c(=O)c2ncn(C/C=C\c3[n-]c(=O)[n-]c3[O-])c2[n-]1

>  <Energy>  (65) 
99.44625930420449

>  <Genealogy>  (65) 
N=c1[n-]c(=O)c2ncn(CC=Cc3[n-]c(=O)[n-]c3[O-])c2[n-]1 (protonated)
N=c1[n-]c(=O)c2ncn(C/C=C\c3[n-]c(=O)[n-]c3[O-])c2[n-]1 (cis-trans isomerization)
N=c1[n-]c(=O)c2ncn(C/C=C\c3[n-]c(=O)[n-]c3[O-])c2[n-]1 (3D coordinates assigned)
N=c1[n-]c(=O)c2ncn(C/C=C\c3[n-]c(=O)[n-]c3[O-])c2[n-]1 (optimized conformer: 99.44625930420449 kcal/mol)

>  <smiles>  (65) 
N=c1[nH]c(=O)c2ncn(CC=Cc3[nH]c(=O)[nH]c3O)c2[nH]1

>  <score_type>  (65) 
oracle

>  <origin>  (65) 
adg

>  <m_score__min__energy>  (65) 
-17.16

>  <m_primary>  (65) 
energy

$$$$
65:0
     RDKit          3D

 27 27  0  0  0  0  0  0  0  0999 V2000
   55.9470   26.0210   46.1410 N   0  0  0  0  0  0  0  0  0  0  0  0
   57.3930   26.2200   46.0810 C   0  0  0  0  0  0  0  0  0  0  0  0
   57.7760   27.0840   44.8760 C   0  0  0  0  0  0  0  0  0  0  0  0
   56.9430   28.3300   44.8020 C   0  0  0  0  0  0  0  0  0  0  0  0
   55.7690   28.3120   45.2610 O   0  0  0  0  0  0  0  0  0  0  0  0
   57.4990   29.5360   44.2540 N   0  0  0  0  0  0  0  0  0  0  0  0
   56.7790   30.7740   44.1390 C   0  0  0  0  0  0  0  0  0  0  0  0
   55.5670   30.8450   44.4820 O   0  0  0  0  0  0  0  0  0  0  0  0
   57.4690   31.9810   43.5580 C   0  0  2  0  0  0  0  0  0  0  0  0
   58.5210   31.6150   42.6990 O   0  0  0  0  0  0  0  0  0  0  0  0
   57.9600   32.8900   44.6530 C   0  0  0  0  0  0  0  0  0  0  0  0
   57.5010   32.9000   45.9650 C   0  0  0  0  0  0  0  0  0  0  0  0
   58.1360   33.8580   46.7640 C   0  0  0  0  0  0  0  0  0  0  0  0
   59.0920   34.6060   46.0880 C   0  0  0  0  0  0  0  0  0  0  0  0
   59.1470   34.0740   44.4940 S   0  0  0  0  0  0  0  0  0  0  0  0
   55.5380   26.7630   46.7530 H   0  0  0  0  0  0  0  0  0  0  0  0
   55.5640   26.1880   45.1830 H   0  0  0  0  0  0  0  0  0  0  0  0
   57.7264   26.7193   47.0027 H   0  0  0  0  0  0  0  0  0  0  0  0
   57.8790   25.2385   45.9785 H   0  0  0  0  0  0  0  0  0  0  0  0
   58.8353   27.3675   44.9624 H   0  0  0  0  0  0  0  0  0  0  0  0
   57.5993   26.4975   43.9623 H   0  0  0  0  0  0  0  0  0  0  0  0
   58.4890   29.5120   43.9180 H   0  0  0  0  0  0  0  0  0  0  0  0
   56.7300   32.5296   42.9556 H   0  0  0  0  0  0  0  0  0  0  0  0
   58.4700   30.6350   42.5490 H   0  0  0  0  0  0  0  0  0  0  0  0
   56.7179   32.2234   46.3377 H   0  0  0  0  0  0  0  0  0  0  0  0
   57.9000   34.0050   47.8283 H   0  0  0  0  0  0  0  0  0  0  0  0
   59.7072   35.4084   46.5212 H   0  0  0  0  0  0  0  0  0  0  0  0
  1  2  1  0
  2  3  1  0
  3  4  1  0
  4  5  2  0
  4  6  1  0
  6  7  1  0
  7  8  2  0
  7  9  1  0
  9 10  1  0
  9 11  1  0
 11 12  2  0
 12 13  1  0
 13 14  2  0
 14 15  1  0
 15 11  1  0
  1 16  1  0
  1 17  1  0
  2 18  1  0
  2 19  1  0
  3 20  1  0
  3 21  1  0
  6 22  1  0
  9 23  1  6
 10 24  1  0
 12 25  1  0
 13 26  1  0
 14 27  1  0
M  END
>  <UniqueID>  (66) 
63

>  <SMILES>  (66) 
NCCC(=O)NC(=O)[C@H](O)c1cccs1

>  <Energy>  (66) 
46.07238214349392

>  <Genealogy>  (66) 
NCCC(=O)NC(=O)[C@H](O)c1cccs1 (chirality)
NCCC(=O)NC(=O)[C@H](O)c1cccs1 (3D coordinates assigned)
NCCC(=O)NC(=O)[C@H](O)c1cccs1 (optimized conformer: 46.07238214349392 kcal/mol)

>  <smiles>  (66) 
NCCC(=O)NC(=O)C(O)c1cccs1

>  <score_type>  (66) 
oracle

>  <origin>  (66) 
adg

>  <m_score__min__energy>  (66) 
-6.4699999999999998

>  <m_primary>  (66) 
energy

$$$$
66:0
     RDKit          3D

 37 39  0  0  0  0  0  0  0  0999 V2000
   57.2783   31.9918   42.4681 H   0  0  0  0  0  0  0  0  0  0  0  0
   57.0940   31.2520   43.2610 C   0  0  0  0  0  0  0  0  0  0  0  0
   56.3850   29.7400   43.0540 S   0  0  0  0  0  0  0  0  0  0  0  0
   56.5040   29.3420   44.6860 C   0  0  0  0  0  0  0  0  0  0  0  0
   56.1150   28.2340   45.2480 N   0  0  0  0  0  0  0  0  0  0  0  0
   56.9380   27.1820   45.7820 C   0  0  0  0  0  0  0  0  0  0  0  0
   57.6920   27.3890   46.7700 O   0  0  0  0  0  0  0  0  0  0  0  0
   56.9090   25.8390   45.1470 C   0  0  0  0  0  0  0  0  0  0  0  0
   57.4410   25.6120   43.8500 C   0  0  0  0  0  0  0  0  0  0  0  0
   58.1030   26.7150   43.0650 C   0  0  0  0  0  0  0  0  0  0  0  0
   58.5421   27.4466   43.7593 H   0  0  0  0  0  0  0  0  0  0  0  0
   58.8952   26.2896   42.4314 H   0  0  0  0  0  0  0  0  0  0  0  0
   57.3550   27.2140   42.4314 H   0  0  0  0  0  0  0  0  0  0  0  0
   57.3610   24.3670   43.2930 N   0  0  0  0  0  0  0  0  0  0  0  0
   57.7490   24.2100   42.3350 H   0  0  0  0  0  0  0  0  0  0  0  0
   56.7970   23.3130   43.9470 C   0  0  0  0  0  0  0  0  0  0  0  0
   56.7730   21.9540   43.3120 C   0  0  0  0  0  0  0  0  0  0  0  0
   56.7594   21.1830   44.0964 H   0  0  0  0  0  0  0  0  0  0  0  0
   55.8730   21.8572   42.6870 H   0  0  0  0  0  0  0  0  0  0  0  0
   57.6690   21.8254   42.6870 H   0  0  0  0  0  0  0  0  0  0  0  0
   56.3010   23.4870   45.2420 C   0  0  0  0  0  0  0  0  0  0  0  0
   55.8769   22.6323   45.7895 H   0  0  0  0  0  0  0  0  0  0  0  0
   56.3450   24.7460   45.8380 C   0  0  0  0  0  0  0  0  0  0  0  0
   55.8590   24.8920   46.9920 O   0  0  0  0  0  0  0  0  0  0  0  0
   57.0730   30.3370   45.3950 N   0  0  0  0  0  0  0  0  0  0  0  0
   57.4090   31.4060   44.6170 C   0  0  0  0  0  0  0  0  0  0  0  0
   58.0430   32.6180   45.1980 C   0  0  0  0  0  0  0  0  0  0  0  0
   58.5650   33.6110   44.3460 C   0  0  0  0  0  0  0  0  0  0  0  0
   58.5019   33.4820   43.2554 H   0  0  0  0  0  0  0  0  0  0  0  0
   59.1630   34.7600   44.8750 C   0  0  0  0  0  0  0  0  0  0  0  0
   59.5691   35.5280   44.2003 H   0  0  0  0  0  0  0  0  0  0  0  0
   59.2450   34.9330   46.2560 C   0  0  0  0  0  0  0  0  0  0  0  0
   59.7175   35.8361   46.6697 H   0  0  0  0  0  0  0  0  0  0  0  0
   58.7280   33.9610   47.1140 C   0  0  0  0  0  0  0  0  0  0  0  0
   58.7929   34.1003   48.2032 H   0  0  0  0  0  0  0  0  0  0  0  0
   58.1280   32.8110   46.5930 C   0  0  0  0  0  0  0  0  0  0  0  0
   57.7193   32.0512   47.2754 H   0  0  0  0  0  0  0  0  0  0  0  0
  1  2  1  0
  2  3  1  0
  3  4  1  0
  4  5  2  0
  5  6  1  0
  6  7  2  0
  6  8  1  0
  8  9  2  0
  9 10  1  0
 10 11  1  0
 10 12  1  0
 10 13  1  0
  9 14  1  0
 14 15  1  0
 14 16  1  0
 16 17  1  0
 17 18  1  0
 17 19  1  0
 17 20  1  0
 16 21  2  0
 21 22  1  0
 21 23  1  0
 23 24  2  0
  4 25  1  0
 25 26  1  0
 26 27  1  0
 27 28  2  0
 28 29  1  0
 28 30  1  0
 30 31  1  0
 30 32  2  0
 32 33  1  0
 32 34  1  0
 34 35  1  0
 34 36  2  0
 36 37  1  0
 26  2  2  0
 36 27  1  0
 23  8  1  0
M  CHG  1  25  -1
M  END
>  <UniqueID>  (67) 
64

>  <SMILES>  (67) 
Cc1cc(=O)c(C(=O)/N=c2/[n-]c(-c3ccccc3)cs2)c(C)[nH]1

>  <Energy>  (67) 
81.27449741065472

>  <Genealogy>  (67) 
Cc1cc(=O)c(C(=O)N=c2[n-]c(-c3ccccc3)cs2)c(C)[nH]1 (protonated)
Cc1cc(=O)c(C(=O)/N=c2/[n-]c(-c3ccccc3)cs2)c(C)[nH]1 (cis-trans isomerization)
Cc1cc(=O)c(C(=O)/N=c2/[n-]c(-c3ccccc3)cs2)c(C)[nH]1 (3D coordinates assigned)
Cc1cc(=O)c(C(=O)/N=c2/[n-]c(-c3ccccc3)cs2)c(C)[nH]1 (optimized conformer: 81.27449741065472 kcal/mol)

>  <smiles>  (67) 
Cc1cc(=O)c(C(=O)N=c2[nH]c(-c3ccccc3)cs2)c(C)[nH]1

>  <score_type>  (67) 
oracle

>  <origin>  (67) 
adg

>  <m_score__min__energy>  (67) 
-10.279999999999999

>  <m_primary>  (67) 
energy

$$$$
67:0
     RDKit          3D

 62 66  0  0  0  0  0  0  0  0999 V2000
   63.9850   31.7280   50.2900 C   0  0  0  0  0  0  0  0  0  0  0  0
   63.4820   32.5770   51.3840 N   0  0  0  0  0  0  0  0  0  0  0  0
   63.7950   34.0040   51.1610 C   0  0  0  0  0  0  0  0  0  0  0  0
   63.0130   34.5810   49.9670 C   0  0  0  0  0  0  0  0  0  0  0  0
   61.6540   34.0290   49.9230 N   0  0  0  0  0  0  0  0  0  0  0  0
   60.9100   34.0440   48.6900 C   0  0  0  0  0  0  0  0  0  0  0  0
   61.5600   33.8180   47.4670 C   0  0  0  0  0  0  0  0  0  0  0  0
   60.8320   33.7870   46.2750 C   0  0  0  0  0  0  0  0  0  0  0  0
   59.4380   33.9570   46.2860 C   0  0  0  0  0  0  0  0  0  0  0  0
   58.6560   33.8780   45.0340 C   0  0  0  0  0  0  0  0  0  0  0  0
   58.2550   34.9420   44.4900 O   0  0  0  0  0  0  0  0  0  0  0  0
   58.3410   32.5870   44.3900 C   0  0  0  0  0  0  0  0  0  0  0  0
   57.7660   32.4190   43.1310 C   0  0  0  0  0  0  0  0  0  0  0  0
   57.6120   31.1050   42.8490 N   0  0  0  0  0  0  0  0  0  0  0  0
   58.0690   30.4490   43.9270 C   0  0  0  0  0  0  0  0  0  0  0  0
   58.0820   29.1030   44.0930 N   0  0  0  0  0  0  0  0  0  0  0  0
   58.5540   28.5790   45.2630 C   0  0  0  0  0  0  0  0  0  0  0  0
   59.0060   29.4270   46.3100 C   0  0  0  0  0  0  0  0  0  0  0  0
   59.5130   28.8570   47.5830 C   0  0  0  0  0  0  0  0  0  0  0  0
   60.1950   27.6300   47.5910 C   0  0  0  0  0  0  0  0  0  0  0  0
   60.6840   27.1010   48.7870 C   0  0  0  0  0  0  0  0  0  0  0  0
   60.4960   27.7870   49.9890 C   0  0  0  0  0  0  0  0  0  0  0  0
   59.8130   29.0160   50.0080 C   0  0  0  0  0  0  0  0  0  0  0  0
   59.5900   29.7510   51.2260 N   0  0  0  0  0  0  0  0  0  0  0  0
   58.2720   30.8490   51.4900 S   0  0  0  0  0  0  0  0  0  0  0  0
   58.5530   31.8050   52.9660 C   0  0  0  0  0  0  0  0  0  0  0  0
   56.9810   30.0870   51.5980 O   0  0  0  0  0  0  0  0  0  0  0  0
   58.1790   31.7870   50.3200 O   0  0  0  0  0  0  0  0  0  0  0  0
   59.3280   29.5420   48.7990 C   0  0  0  0  0  0  0  0  0  0  0  0
   58.9680   30.8260   46.1180 C   0  0  0  0  0  0  0  0  0  0  0  0
   58.5120   31.3070   44.8920 C   0  0  0  0  0  0  0  0  0  0  0  0
   58.7900   34.2070   47.5060 C   0  0  0  0  0  0  0  0  0  0  0  0
   59.5180   34.2420   48.6980 C   0  0  0  0  0  0  0  0  0  0  0  0
   61.1030   33.4280   51.1410 C   0  0  0  0  0  0  0  0  0  0  0  0
   62.0420   32.3250   51.6630 C   0  0  0  0  0  0  0  0  0  0  0  0
   64.5027   30.8542   50.7124 H   0  0  0  0  0  0  0  0  0  0  0  0
   63.1412   31.3902   49.6704 H   0  0  0  0  0  0  0  0  0  0  0  0
   64.6866   32.3058   49.6704 H   0  0  0  0  0  0  0  0  0  0  0  0
   63.5329   34.5717   52.0660 H   0  0  0  0  0  0  0  0  0  0  0  0
   64.8691   34.0878   50.9389 H   0  0  0  0  0  0  0  0  0  0  0  0
   62.9556   35.6749   50.0674 H   0  0  0  0  0  0  0  0  0  0  0  0
   63.5354   34.3105   49.0375 H   0  0  0  0  0  0  0  0  0  0  0  0
   62.6490   33.6644   47.4468 H   0  0  0  0  0  0  0  0  0  0  0  0
   61.3548   33.6282   45.3203 H   0  0  0  0  0  0  0  0  0  0  0  0
   57.4775   33.2413   42.4598 H   0  0  0  0  0  0  0  0  0  0  0  0
   57.2100   30.6910   41.9800 H   0  0  0  0  0  0  0  0  0  0  0  0
   58.5846   27.4875   45.3963 H   0  0  0  0  0  0  0  0  0  0  0  0
   60.3451   27.0819   46.6491 H   0  0  0  0  0  0  0  0  0  0  0  0
   61.2194   26.1401   48.7826 H   0  0  0  0  0  0  0  0  0  0  0  0
   60.8847   27.3632   50.9267 H   0  0  0  0  0  0  0  0  0  0  0  0
   60.2760   29.6520   52.0080 H   0  0  0  0  0  0  0  0  0  0  0  0
   58.3685   31.1772   53.8502 H   0  0  0  0  0  0  0  0  0  0  0  0
   59.5937   32.1609   52.9798 H   0  0  0  0  0  0  0  0  0  0  0  0
   57.8704   32.6674   52.9798 H   0  0  0  0  0  0  0  0  0  0  0  0
   58.7952   30.5044   48.8025 H   0  0  0  0  0  0  0  0  0  0  0  0
   59.2889   31.5155   46.9128 H   0  0  0  0  0  0  0  0  0  0  0  0
   57.7032   34.3762   47.5236 H   0  0  0  0  0  0  0  0  0  0  0  0
   58.9982   34.4258   49.6499 H   0  0  0  0  0  0  0  0  0  0  0  0
   60.9923   34.2053   51.9114 H   0  0  0  0  0  0  0  0  0  0  0  0
   60.1230   32.9848   50.9103 H   0  0  0  0  0  0  0  0  0  0  0  0
   61.9092   32.2438   52.7519 H   0  0  0  0  0  0  0  0  0  0  0  0
   61.7717   31.3990   51.1344 H   0  0  0  0  0  0  0  0  0  0  0  0
  1  2  1  0
  2  3  1  0
  3  4  1  0
  4  5  1  0
  5  6  1  0
  6  7  2  0
  7  8  1  0
  8  9  2  0
  9 10  1  0
 10 11  2  0
 10 12  1  0
 12 13  2  0
 13 14  1  0
 14 15  1  0
 15 16  2  0
 16 17  1  0
 17 18  2  0
 18 19  1  0
 19 20  2  0
 20 21  1  0
 21 22  2  0
 22 23  1  0
 23 24  1  0
 24 25  1  0
 25 26  1  0
 25 27  2  0
 25 28  2  0
 23 29  2  0
 18 30  1  0
 30 31  2  0
  9 32  1  0
 32 33  2  0
  5 34  1  0
 34 35  1  0
 35  2  1  0
 33  6  1  0
 31 12  1  0
 31 15  1  0
 29 19  1  0
  1 36  1  0
  1 37  1  0
  1 38  1  0
  3 39  1  0
  3 40  1  0
  4 41  1  0
  4 42  1  0
  7 43  1  0
  8 44  1  0
 13 45  1  0
 14 46  1  0
 17 47  1  0
 20 48  1  0
 21 49  1  0
 22 50  1  0
 24 51  1  0
 26 52  1  0
 26 53  1  0
 26 54  1  0
 29 55  1  0
 30 56  1  0
 32 57  1  0
 33 58  1  0
 34 59  1  0
 34 60  1  0
 35 61  1  0
 35 62  1  0
M  END
>  <UniqueID>  (68) 
65

>  <SMILES>  (68) 
CN1CCN(c2ccc(C(=O)c3c[nH]c4ncc(-c5cccc(NS(C)(=O)=O)c5)cc34)cc2)CC1

>  <Energy>  (68) 
121.26816642411923

>  <Genealogy>  (68) 
CN1CCN(c2ccc(C(=O)c3c[nH]c4ncc(-c5cccc(NS(C)(=O)=O)c5)cc34)cc2)CC1 (3D coordinates assigned)
CN1CCN(c2ccc(C(=O)c3c[nH]c4ncc(-c5cccc(NS(C)(=O)=O)c5)cc34)cc2)CC1 (nonaromatic ring conformer: 121.26816642411923 kcal/mol)

>  <smiles>  (68) 
CN1CCN(c2ccc(C(=O)c3c[nH]c4ncc(-c5cccc(NS(C)(=O)=O)c5)cc34)cc2)CC1

>  <score_type>  (68) 
oracle

>  <origin>  (68) 
adg

>  <m_score__min__energy>  (68) 
-10.4

>  <m_primary>  (68) 
energy

$$$$
68:0
     RDKit          3D

 61 64  0  0  0  0  0  0  0  0999 V2000
   59.0960   22.5760   45.2370 C   0  0  0  0  0  0  0  0  0  0  0  0
   57.8070   22.8270   44.5000 C   0  0  0  0  0  0  0  0  0  0  0  0
   57.4480   21.9540   43.4550 C   0  0  0  0  0  0  0  0  0  0  0  0
   56.2770   22.1610   42.7240 C   0  0  0  0  0  0  0  0  0  0  0  0
   55.4430   23.2350   43.0320 C   0  0  0  0  0  0  0  0  0  0  0  0
   55.7740   24.1020   44.0750 C   0  0  0  0  0  0  0  0  0  0  0  0
   56.9490   23.9130   44.8260 C   0  0  0  0  0  0  0  0  0  0  0  0
   57.2300   24.8490   45.9440 C   0  0  0  0  0  0  0  0  0  0  0  0
   56.3270   25.1250   46.7830 O   0  0  0  0  0  0  0  0  0  0  0  0
   58.5270   25.4530   46.0720 N   0  0  0  0  0  0  0  0  0  0  0  0
   58.7700   26.6560   46.8210 C   0  0  0  0  0  0  0  0  0  0  0  0
   59.8570   26.6990   47.7060 C   0  0  0  0  0  0  0  0  0  0  0  0
   60.1400   27.8610   48.4290 C   0  0  0  0  0  0  0  0  0  0  0  0
   59.3580   29.0030   48.2500 C   0  0  0  0  0  0  0  0  0  0  0  0
   58.2870   28.9810   47.3560 C   0  0  0  0  0  0  0  0  0  0  0  0
   57.9690   27.8090   46.6540 C   0  0  0  0  0  0  0  0  0  0  0  0
   56.9110   27.8240   45.6850 N   0  0  0  0  0  0  0  0  0  0  0  0
   56.5490   28.9440   44.8650 C   0  0  0  0  0  0  0  0  0  0  0  0
   55.3480   29.3320   44.8720 O   0  0  0  0  0  0  0  0  0  0  0  0
   57.5830   29.7810   44.1580 C   0  0  0  0  0  0  0  0  0  0  0  0
   57.0230   31.5080   43.9130 S   0  0  0  0  0  0  0  0  0  0  0  0
   58.1530   32.2210   45.1220 C   0  0  0  0  0  0  0  0  0  0  0  0
   59.0760   31.3930   45.6750 N   0  0  0  0  0  0  0  0  0  0  0  0
   59.9810   31.8360   46.5750 C   0  0  0  0  0  0  0  0  0  0  0  0
   59.9710   33.1710   46.9750 C   0  0  0  0  0  0  0  0  0  0  0  0
   60.9620   33.6480   47.9700 C   0  0  0  0  0  0  0  0  0  0  0  0
   62.1710   33.7530   47.6350 O   0  0  0  0  0  0  0  0  0  0  0  0
   60.5770   34.0300   49.2980 N   0  0  0  0  0  0  0  0  0  0  0  0
   59.6260   33.3310   50.1140 C   0  0  0  0  0  0  0  0  0  0  0  0
   59.0770   32.1010   49.7110 C   0  0  0  0  0  0  0  0  0  0  0  0
   58.1590   31.4380   50.5300 C   0  0  0  0  0  0  0  0  0  0  0  0
   57.7890   31.9930   51.7580 C   0  0  0  0  0  0  0  0  0  0  0  0
   58.3500   33.2040   52.1760 C   0  0  0  0  0  0  0  0  0  0  0  0
   59.2730   33.8670   51.3590 C   0  0  0  0  0  0  0  0  0  0  0  0
   59.0130   34.0260   46.4020 C   0  0  0  0  0  0  0  0  0  0  0  0
   58.9990   35.2460   46.7260 O   0  0  0  0  0  0  0  0  0  0  0  0
   58.1120   33.5480   45.4820 N   0  0  0  0  0  0  0  0  0  0  0  0
   57.0580   34.4470   44.9800 C   0  0  0  0  0  0  0  0  0  0  0  0
   58.9116   22.6119   46.3208 H   0  0  0  0  0  0  0  0  0  0  0  0
   59.4873   21.5848   44.9643 H   0  0  0  0  0  0  0  0  0  0  0  0
   59.8306   23.3480   44.9643 H   0  0  0  0  0  0  0  0  0  0  0  0
   58.0973   21.0999   43.2122 H   0  0  0  0  0  0  0  0  0  0  0  0
   56.0121   21.4765   41.9046 H   0  0  0  0  0  0  0  0  0  0  0  0
   54.5227   23.3995   42.4523 H   0  0  0  0  0  0  0  0  0  0  0  0
   55.1074   24.9441   44.3129 H   0  0  0  0  0  0  0  0  0  0  0  0
   59.3540   24.9180   45.7210 H   0  0  0  0  0  0  0  0  0  0  0  0
   60.4926   25.8101   47.8322 H   0  0  0  0  0  0  0  0  0  0  0  0
   60.9796   27.8755   49.1396 H   0  0  0  0  0  0  0  0  0  0  0  0
   59.5859   29.9199   48.8134 H   0  0  0  0  0  0  0  0  0  0  0  0
   57.6873   29.8899   47.2005 H   0  0  0  0  0  0  0  0  0  0  0  0
   58.5042   29.7889   44.7591 H   0  0  0  0  0  0  0  0  0  0  0  0
   57.7568   29.3377   43.1664 H   0  0  0  0  0  0  0  0  0  0  0  0
   60.7261   31.1427   46.9923 H   0  0  0  0  0  0  0  0  0  0  0  0
   59.3711   31.6589   48.7476 H   0  0  0  0  0  0  0  0  0  0  0  0
   57.7275   30.4788   50.2079 H   0  0  0  0  0  0  0  0  0  0  0  0
   57.0563   31.4772   52.3960 H   0  0  0  0  0  0  0  0  0  0  0  0
   58.0658   33.6355   53.1471 H   0  0  0  0  0  0  0  0  0  0  0  0
   59.7229   34.8126   51.6959 H   0  0  0  0  0  0  0  0  0  0  0  0
   56.5269   34.9000   45.8301 H   0  0  0  0  0  0  0  0  0  0  0  0
   57.5130   35.2394   44.3676 H   0  0  0  0  0  0  0  0  0  0  0  0
   56.3473   33.8727   44.3676 H   0  0  0  0  0  0  0  0  0  0  0  0
  1  2  1  0
  2  3  2  0
  3  4  1  0
  4  5  2  0
  5  6  1  0
  6  7  2  0
  7  8  1  0
  8  9  2  0
  8 10  1  0
 10 11  1  0
 11 12  2  0
 12 13  1  0
 13 14  2  0
 14 15  1  0
 15 16  2  0
 16 17  1  0
 17 18  1  0
 18 19  2  0
 18 20  1  0
 20 21  1  0
 21 22  1  0
 22 23  2  0
 23 24  1  0
 24 25  2  0
 25 26  1  0
 26 27  2  0
 26 28  1  0
 28 29  1  0
 29 30  2  0
 30 31  1  0
 31 32  2  0
 32 33  1  0
 33 34  2  0
 25 35  1  0
 35 36  2  0
 35 37  1  0
 37 38  1  0
  7  2  1  0
 16 11  1  0
 37 22  1  0
 34 29  1  0
  1 39  1  0
  1 40  1  0
  1 41  1  0
  3 42  1  0
  4 43  1  0
  5 44  1  0
  6 45  1  0
 10 46  1  0
 12 47  1  0
 13 48  1  0
 14 49  1  0
 15 50  1  0
 20 51  1  0
 20 52  1  0
 24 53  1  0
 30 54  1  0
 31 55  1  0
 32 56  1  0
 33 57  1  0
 34 58  1  0
 38 59  1  0
 38 60  1  0
 38 61  1  0
M  CHG  2  17  -1  28  -1
M  END
>  <UniqueID>  (69) 
66

>  <SMILES>  (69) 
Cc1ccccc1C(=O)Nc1ccccc1[N-]C(=O)CSc1ncc(C(=O)[N-]c2ccccc2)c(=O)n1C

>  <Energy>  (69) 
90.10318459557553

>  <Genealogy>  (69) 
Cc1ccccc1C(=O)Nc1ccccc1[N-]C(=O)CSc1ncc(C(=O)[N-]c2ccccc2)c(=O)n1C (protonated)
Cc1ccccc1C(=O)Nc1ccccc1[N-]C(=O)CSc1ncc(C(=O)[N-]c2ccccc2)c(=O)n1C (3D coordinates assigned)
Cc1ccccc1C(=O)Nc1ccccc1[N-]C(=O)CSc1ncc(C(=O)[N-]c2ccccc2)c(=O)n1C (optimized conformer: 90.10318459557553 kcal/mol)

>  <smiles>  (69) 
Cc1ccccc1C(=O)Nc1ccccc1NC(=O)CSc1ncc(C(=O)Nc2ccccc2)c(=O)n1C

>  <score_type>  (69) 
oracle

>  <origin>  (69) 
adg

>  <m_score__min__energy>  (69) 
-12.77

>  <m_primary>  (69) 
energy

$$$$
69:0
     RDKit          3D

 34 36  0  0  0  0  0  0  0  0999 V2000
   55.0517   30.4352   43.9969 H   0  0  0  0  0  0  0  0  0  0  0  0
   55.8460   29.8480   44.4810 C   0  0  0  0  0  0  0  0  0  0  0  0
   55.5550   28.6410   45.0150 N   0  0  0  0  0  0  0  0  0  0  0  0
   56.5050   27.8450   45.5620 C   0  0  0  0  0  0  0  0  0  0  0  0
   56.1350   26.5810   46.0340 C   0  0  0  0  0  0  0  0  0  0  0  0
   55.0724   26.2975   46.0546 H   0  0  0  0  0  0  0  0  0  0  0  0
   57.1040   25.6720   46.4810 C   0  0  0  0  0  0  0  0  0  0  0  0
   56.7180   24.3710   46.9630 N   0  0  0  0  0  0  0  0  0  0  0  0
   55.5130   24.0820   47.1200 O   0  0  0  0  0  0  0  0  0  0  0  0
   57.6690   23.4180   47.2450 O   0  0  0  0  0  0  0  0  0  0  0  0
   58.4560   26.0350   46.4050 C   0  0  0  0  0  0  0  0  0  0  0  0
   59.2302   25.3163   46.7116 H   0  0  0  0  0  0  0  0  0  0  0  0
   58.8310   27.3000   45.9440 C   0  0  0  0  0  0  0  0  0  0  0  0
   59.8987   27.5477   45.8513 H   0  0  0  0  0  0  0  0  0  0  0  0
   57.8600   28.2660   45.5950 C   0  0  0  0  0  0  0  0  0  0  0  0
   58.1680   29.5980   45.1630 C   0  0  0  0  0  0  0  0  0  0  0  0
   59.3370   30.1720   45.3150 N   0  0  0  0  0  0  0  0  0  0  0  0
   59.8110   31.0650   46.3320 C   0  0  0  0  0  0  0  0  0  0  0  0
   59.0670   32.2010   46.7000 C   0  0  0  0  0  0  0  0  0  0  0  0
   58.0857   32.3871   46.2390 H   0  0  0  0  0  0  0  0  0  0  0  0
   59.5710   33.0930   47.6490 C   0  0  0  0  0  0  0  0  0  0  0  0
   58.9759   33.9672   47.9518 H   0  0  0  0  0  0  0  0  0  0  0  0
   60.8320   32.8760   48.2150 C   0  0  0  0  0  0  0  0  0  0  0  0
   61.4650   33.9980   49.4060 Cl  0  0  0  0  0  0  0  0  0  0  0  0
   61.5920   31.7690   47.8230 C   0  0  0  0  0  0  0  0  0  0  0  0
   62.5867   31.6020   48.2620 H   0  0  0  0  0  0  0  0  0  0  0  0
   61.0880   30.8740   46.8730 C   0  0  0  0  0  0  0  0  0  0  0  0
   61.6974   30.0171   46.5500 H   0  0  0  0  0  0  0  0  0  0  0  0
   57.1480   30.3580   44.5380 C   0  0  0  0  0  0  0  0  0  0  0  0
   57.3880   31.7150   43.9890 C   0  0  0  0  0  0  0  0  0  0  0  0
   57.0300   32.7250   44.6520 O   0  0  0  0  0  0  0  0  0  0  0  0
   58.0610   31.9020   42.7410 N   0  0  0  0  0  0  0  0  0  0  0  0
   58.5210   31.1050   42.2490 H   0  0  0  0  0  0  0  0  0  0  0  0
   58.1780   32.8630   42.3500 H   0  0  0  0  0  0  0  0  0  0  0  0
  1  2  1  0
  2  3  1  0
  3  4  1  0
  4  5  2  0
  5  6  1  0
  5  7  1  0
  7  8  1  0
  8  9  2  0
  8 10  1  0
  7 11  2  0
 11 12  1  0
 11 13  1  0
 13 14  1  0
 13 15  2  0
 15 16  1  0
 16 17  2  0
 17 18  1  0
 18 19  2  0
 19 20  1  0
 19 21  1  0
 21 22  1  0
 21 23  2  0
 23 24  1  0
 23 25  1  0
 25 26  1  0
 25 27  2  0
 27 28  1  0
 16 29  1  0
 29 30  1  0
 30 31  2  0
 30 32  1  0
 32 33  1  0
 32 34  1  0
 29  2  2  0
 15  4  1  0
 27 18  1  0
M  CHG  3   3  -1   8   1  10  -1
M  END
>  <UniqueID>  (70) 
67

>  <SMILES>  (70) 
NC(=O)c1c[n-]c2cc([N+](=O)[O-])ccc2/c1=N\c1ccc(Cl)cc1

>  <Energy>  (70) 
66.91990449260044

>  <Genealogy>  (70) 
NC(=O)c1c[n-]c2cc([N+](=O)[O-])ccc2c1=Nc1ccc(Cl)cc1 (protonated)
NC(=O)c1c[n-]c2cc([N+](=O)[O-])ccc2/c1=N\c1ccc(Cl)cc1 (cis-trans isomerization)
NC(=O)c1c[n-]c2cc([N+](=O)[O-])ccc2/c1=N\c1ccc(Cl)cc1 (3D coordinates assigned)
NC(=O)c1c[n-]c2cc([N+](=O)[O-])ccc2/c1=N\c1ccc(Cl)cc1 (optimized conformer: 66.91990449260044 kcal/mol)

>  <smiles>  (70) 
NC(=O)c1c[nH]c2cc([N+](=O)[O-])ccc2c1=Nc1ccc(Cl)cc1

>  <score_type>  (70) 
oracle

>  <origin>  (70) 
adg

>  <m_score__min__energy>  (70) 
-9.3499999999999996

>  <m_primary>  (70) 
energy

$$$$
70:0
     RDKit          3D

 33 35  0  0  0  0  0  0  0  0999 V2000
   55.6510   29.9810   43.3100 O   0  0  0  0  0  0  0  0  0  0  0  0
   56.3830   29.6440   44.2770 C   0  0  0  0  0  0  0  0  0  0  0  0
   55.8700   28.7090   45.2340 N   0  0  0  0  0  0  0  0  0  0  0  0
   56.5110   27.4970   45.6570 C   0  0  0  0  0  0  0  0  0  0  0  0
   57.9110   27.4410   45.6550 C   0  0  0  0  0  0  0  0  0  0  0  0
   58.5730   26.2760   46.0510 C   0  0  0  0  0  0  0  0  0  0  0  0
   57.8410   25.1510   46.4360 C   0  0  0  0  0  0  0  0  0  0  0  0
   56.4440   25.1860   46.4120 C   0  0  0  0  0  0  0  0  0  0  0  0
   55.7740   26.3460   46.0100 C   0  0  0  0  0  0  0  0  0  0  0  0
   54.3860   26.3370   45.9370 O   0  0  0  0  0  0  0  0  0  0  0  0
   57.7770   30.1370   44.3480 C   0  0  0  0  0  0  0  0  0  0  0  0
   58.6870   29.4750   43.7800 O   0  0  0  0  0  0  0  0  0  0  0  0
   58.1290   31.4020   45.0410 C   0  0  0  0  0  0  0  0  0  0  0  0
   57.7280   32.6470   44.5240 C   0  0  0  0  0  0  0  0  0  0  0  0
   58.0500   33.8320   45.1900 C   0  0  0  0  0  0  0  0  0  0  0  0
   58.7730   33.7940   46.3900 C   0  0  0  0  0  0  0  0  0  0  0  0
   59.1010   34.9790   47.0660 C   0  0  0  0  0  0  0  0  0  0  0  0
   59.8190   34.9280   48.2640 C   0  0  0  0  0  0  0  0  0  0  0  0
   60.2130   33.6960   48.7960 C   0  0  0  0  0  0  0  0  0  0  0  0
   59.8920   32.5090   48.1320 C   0  0  0  0  0  0  0  0  0  0  0  0
   59.1700   32.5470   46.9270 C   0  0  0  0  0  0  0  0  0  0  0  0
   58.8430   31.3610   46.2520 C   0  0  0  0  0  0  0  0  0  0  0  0
   58.4926   28.3198   45.3397 H   0  0  0  0  0  0  0  0  0  0  0  0
   59.6725   26.2451   46.0595 H   0  0  0  0  0  0  0  0  0  0  0  0
   58.3634   24.2380   46.7579 H   0  0  0  0  0  0  0  0  0  0  0  0
   55.8688   24.2972   46.7106 H   0  0  0  0  0  0  0  0  0  0  0  0
   57.1551   32.6880   43.5859 H   0  0  0  0  0  0  0  0  0  0  0  0
   57.7348   34.7989   44.7708 H   0  0  0  0  0  0  0  0  0  0  0  0
   58.7923   35.9503   46.6521 H   0  0  0  0  0  0  0  0  0  0  0  0
   60.0750   35.8596   48.7900 H   0  0  0  0  0  0  0  0  0  0  0  0
   60.7771   33.6613   49.7397 H   0  0  0  0  0  0  0  0  0  0  0  0
   60.2053   31.5425   48.5536 H   0  0  0  0  0  0  0  0  0  0  0  0
   59.1475   30.3916   46.6734 H   0  0  0  0  0  0  0  0  0  0  0  0
  1  2  2  0
  2  3  1  0
  3  4  1  0
  4  5  2  0
  5  6  1  0
  6  7  2  0
  7  8  1  0
  8  9  2  0
  9 10  1  0
  2 11  1  0
 11 12  2  0
 11 13  1  0
 13 14  2  0
 14 15  1  0
 15 16  2  0
 16 17  1  0
 17 18  2  0
 18 19  1  0
 19 20  2  0
 20 21  1  0
 21 22  2  0
  9  4  1  0
 22 13  1  0
 21 16  1  0
  5 23  1  0
  6 24  1  0
  7 25  1  0
  8 26  1  0
 14 27  1  0
 15 28  1  0
 17 29  1  0
 18 30  1  0
 19 31  1  0
 20 32  1  0
 22 33  1  0
M  CHG  2   3  -1  10  -1
M  END
>  <UniqueID>  (71) 
68

>  <SMILES>  (71) 
O=C([N-]c1ccccc1[O-])C(=O)c1ccc2ccccc2c1

>  <Energy>  (71) 
49.56068487891725

>  <Genealogy>  (71) 
O=C([N-]c1ccccc1[O-])C(=O)c1ccc2ccccc2c1 (protonated)
O=C([N-]c1ccccc1[O-])C(=O)c1ccc2ccccc2c1 (3D coordinates assigned)
O=C([N-]c1ccccc1[O-])C(=O)c1ccc2ccccc2c1 (optimized conformer: 49.56068487891725 kcal/mol)

>  <smiles>  (71) 
O=C(Nc1ccccc1O)C(=O)c1ccc2ccccc2c1

>  <score_type>  (71) 
oracle

>  <origin>  (71) 
adg

>  <m_score__min__energy>  (71) 
-14.58

>  <m_primary>  (71) 
energy

$$$$
71:0
     RDKit          3D

 42 45  0  0  0  0  0  0  0  0999 V2000
   59.6340   28.9670   50.6990 C   0  0  0  0  0  0  0  0  0  0  0  0
   58.6030   29.9190   50.4580 O   0  0  0  0  0  0  0  0  0  0  0  0
   58.5090   31.1710   51.0830 C   0  0  0  0  0  0  0  0  0  0  0  0
   57.4740   31.4670   51.9940 C   0  0  0  0  0  0  0  0  0  0  0  0
   57.4040   32.7220   52.6020 C   0  0  0  0  0  0  0  0  0  0  0  0
   58.3590   33.6950   52.3110 C   0  0  0  0  0  0  0  0  0  0  0  0
   59.3880   33.4170   51.4110 C   0  0  0  0  0  0  0  0  0  0  0  0
   59.4780   32.1570   50.7950 C   0  0  0  0  0  0  0  0  0  0  0  0
   60.5750   31.9000   49.7900 C   0  0  0  0  0  0  0  0  0  0  0  0
   60.1390   32.2850   48.4480 N   0  0  0  0  0  0  0  0  0  0  0  0
   59.9620   33.6290   47.9690 C   0  0  0  0  0  0  0  0  0  0  0  0
   60.4620   34.6510   48.5090 O   0  0  0  0  0  0  0  0  0  0  0  0
   59.1050   33.6190   46.7890 C   0  0  0  0  0  0  0  0  0  0  0  0
   58.6170   34.6120   45.9410 C   0  0  0  0  0  0  0  0  0  0  0  0
   57.7850   34.2110   44.8730 C   0  0  0  0  0  0  0  0  0  0  0  0
   57.4580   32.8430   44.6780 C   0  0  0  0  0  0  0  0  0  0  0  0
   57.9650   31.8580   45.5600 C   0  0  0  0  0  0  0  0  0  0  0  0
   57.7290   30.4590   45.4930 C   0  0  0  0  0  0  0  0  0  0  0  0
   56.7140   29.7390   44.2350 S   0  0  0  0  0  0  0  0  0  0  0  0
   57.4820   28.3290   43.5920 N   0  0  0  0  0  0  0  0  0  0  0  0
   56.4740   30.7360   43.1360 O   0  0  0  0  0  0  0  0  0  0  0  0
   55.3840   29.3440   44.8120 O   0  0  0  0  0  0  0  0  0  0  0  0
   58.3420   29.6070   46.4560 C   0  0  0  0  0  0  0  0  0  0  0  0
   59.1640   30.1270   47.4800 C   0  0  0  0  0  0  0  0  0  0  0  0
   59.3550   31.5070   47.5320 C   0  0  0  0  0  0  0  0  0  0  0  0
   58.7780   32.3120   46.5890 C   0  0  0  0  0  0  0  0  0  0  0  0
   59.7705   28.8409   51.7832 H   0  0  0  0  0  0  0  0  0  0  0  0
   59.3547   28.0024   50.2500 H   0  0  0  0  0  0  0  0  0  0  0  0
   60.5733   29.3222   50.2500 H   0  0  0  0  0  0  0  0  0  0  0  0
   56.7167   30.7040   52.2272 H   0  0  0  0  0  0  0  0  0  0  0  0
   56.5936   32.9434   53.3121 H   0  0  0  0  0  0  0  0  0  0  0  0
   58.3011   34.6828   52.7915 H   0  0  0  0  0  0  0  0  0  0  0  0
   60.1354   34.1907   51.1815 H   0  0  0  0  0  0  0  0  0  0  0  0
   61.4631   32.4879   50.0649 H   0  0  0  0  0  0  0  0  0  0  0  0
   60.8159   30.8267   49.7922 H   0  0  0  0  0  0  0  0  0  0  0  0
   58.8711   35.6706   46.0983 H   0  0  0  0  0  0  0  0  0  0  0  0
   57.3848   34.9684   44.1829 H   0  0  0  0  0  0  0  0  0  0  0  0
   56.8095   32.5478   43.8400 H   0  0  0  0  0  0  0  0  0  0  0  0
   58.1450   28.6540   42.8520 H   0  0  0  0  0  0  0  0  0  0  0  0
   56.7490   27.7630   43.1090 H   0  0  0  0  0  0  0  0  0  0  0  0
   58.1716   28.5217   46.4010 H   0  0  0  0  0  0  0  0  0  0  0  0
   59.6400   29.4620   48.2157 H   0  0  0  0  0  0  0  0  0  0  0  0
  1  2  1  0
  2  3  1  0
  3  4  2  0
  4  5  1  0
  5  6  2  0
  6  7  1  0
  7  8  2  0
  8  9  1  0
  9 10  1  0
 10 11  1  0
 11 12  2  0
 11 13  1  0
 13 14  1  0
 14 15  2  0
 15 16  1  0
 16 17  2  0
 17 18  1  0
 18 19  1  0
 19 20  1  0
 19 21  2  0
 19 22  2  0
 18 23  2  0
 23 24  1  0
 24 25  2  0
 25 26  1  0
  8  3  1  0
 25 10  1  0
 26 13  2  0
 26 17  1  0
  1 27  1  0
  1 28  1  0
  1 29  1  0
  4 30  1  0
  5 31  1  0
  6 32  1  0
  7 33  1  0
  9 34  1  0
  9 35  1  0
 14 36  1  0
 15 37  1  0
 16 38  1  0
 20 39  1  0
 20 40  1  0
 23 41  1  0
 24 42  1  0
M  END
>  <UniqueID>  (72) 
69

>  <SMILES>  (72) 
COc1ccccc1CN1C(=O)c2cccc3c(S(N)(=O)=O)ccc1c23

>  <Energy>  (72) 
87.44861878590585

>  <Genealogy>  (72) 
COc1ccccc1CN1C(=O)c2cccc3c(S(N)(=O)=O)ccc1c23 (3D coordinates assigned)
COc1ccccc1CN1C(=O)c2cccc3c(S(N)(=O)=O)ccc1c23 (nonaromatic ring conformer: 87.44861878590585 kcal/mol)

>  <smiles>  (72) 
COc1ccccc1CN1C(=O)c2cccc3c(S(N)(=O)=O)ccc1c23

>  <score_type>  (72) 
oracle

>  <origin>  (72) 
adg

>  <m_score__min__energy>  (72) 
-9.0199999999999996

>  <m_primary>  (72) 
energy

$$$$
72:0
     RDKit          3D

 36 38  0  0  0  0  0  0  0  0999 V2000
   56.3420   25.5690   46.6840 C   0  0  0  0  0  0  0  0  0  0  0  0
   56.8610   26.5010   45.6350 C   0  0  0  0  0  0  0  0  0  0  0  0
   57.6430   26.0160   44.5820 C   0  0  0  0  0  0  0  0  0  0  0  0
   58.0970   26.9020   43.6060 C   0  0  0  0  0  0  0  0  0  0  0  0
   57.7750   28.2580   43.6880 C   0  0  0  0  0  0  0  0  0  0  0  0
   56.9990   28.7210   44.7690 C   0  0  0  0  0  0  0  0  0  0  0  0
   56.6490   29.9710   44.9000 N   0  0  0  0  0  0  0  0  0  0  0  0
   57.4810   31.0760   45.2880 C   0  0  0  0  0  0  0  0  0  0  0  0
   58.5650   30.9000   46.1640 C   0  0  0  0  0  0  0  0  0  0  0  0
   59.3310   31.9980   46.5650 C   0  0  0  0  0  0  0  0  0  0  0  0
   59.0110   33.2840   46.1120 C   0  0  0  0  0  0  0  0  0  0  0  0
   59.9900   34.6610   46.6070 S   0  0  0  0  0  0  0  0  0  0  0  0
   59.6800   35.8620   45.7570 O   0  0  0  0  0  0  0  0  0  0  0  0
   59.6830   34.9850   48.0420 O   0  0  0  0  0  0  0  0  0  0  0  0
   61.6750   34.2810   46.4580 N   0  0  0  0  0  0  0  0  0  0  0  0
   62.4190   33.8340   47.4250 C   0  0  0  0  0  0  0  0  0  0  0  0
   62.2510   34.1320   48.7350 N   0  0  0  0  0  0  0  0  0  0  0  0
   63.1840   33.5280   49.5170 C   0  0  0  0  0  0  0  0  0  0  0  0
   64.1030   32.7420   48.8290 C   0  0  0  0  0  0  0  0  0  0  0  0
   63.7270   32.8100   47.1880 S   0  0  0  0  0  0  0  0  0  0  0  0
   57.9030   33.4670   45.2730 C   0  0  0  0  0  0  0  0  0  0  0  0
   57.1360   32.3680   44.8730 C   0  0  0  0  0  0  0  0  0  0  0  0
   56.5580   27.8270   45.6960 N   0  0  0  0  0  0  0  0  0  0  0  0
   56.5686   25.9759   47.6805 H   0  0  0  0  0  0  0  0  0  0  0  0
   55.2532   25.4599   46.5714 H   0  0  0  0  0  0  0  0  0  0  0  0
   56.8226   24.5860   46.5714 H   0  0  0  0  0  0  0  0  0  0  0  0
   57.8971   24.9473   44.5244 H   0  0  0  0  0  0  0  0  0  0  0  0
   58.7095   26.5323   42.7705 H   0  0  0  0  0  0  0  0  0  0  0  0
   58.1241   28.9588   42.9154 H   0  0  0  0  0  0  0  0  0  0  0  0
   58.8118   29.8945   46.5356 H   0  0  0  0  0  0  0  0  0  0  0  0
   60.1882   31.8517   47.2387 H   0  0  0  0  0  0  0  0  0  0  0  0
   61.5050   34.7470   49.1260 H   0  0  0  0  0  0  0  0  0  0  0  0
   63.2106   33.6511   50.6098 H   0  0  0  0  0  0  0  0  0  0  0  0
   64.9313   32.1746   49.2784 H   0  0  0  0  0  0  0  0  0  0  0  0
   57.6362   34.4770   44.9285 H   0  0  0  0  0  0  0  0  0  0  0  0
   56.2572   32.5194   44.2290 H   0  0  0  0  0  0  0  0  0  0  0  0
  1  2  1  0
  2  3  2  0
  3  4  1  0
  4  5  2  0
  5  6  1  0
  6  7  2  3
  7  8  1  0
  8  9  2  0
  9 10  1  0
 10 11  2  0
 11 12  1  0
 12 13  2  0
 12 14  2  0
 12 15  1  0
 15 16  2  3
 16 17  1  0
 17 18  1  0
 18 19  2  0
 19 20  1  0
 11 21  1  0
 21 22  2  0
  6 23  1  0
 23  2  1  0
 22  8  1  0
 20 16  1  0
  1 24  1  0
  1 25  1  0
  1 26  1  0
  3 27  1  0
  4 28  1  0
  5 29  1  0
  9 30  1  0
 10 31  1  0
 17 32  1  0
 18 33  1  0
 19 34  1  0
 21 35  1  0
 22 36  1  0
M  CHG  1  23  -1
M  END
>  <UniqueID>  (73) 
70

>  <SMILES>  (73) 
Cc1cccc(=Nc2ccc(S(=O)(=O)N=c3[nH]ccs3)cc2)[n-]1

>  <Energy>  (73) 
80.426859194738

>  <Genealogy>  (73) 
Cc1cccc(=Nc2ccc(S(=O)(=O)N=c3[nH]ccs3)cc2)[n-]1 (protonated)
Cc1cccc(=Nc2ccc(S(=O)(=O)N=c3[nH]ccs3)cc2)[n-]1 (3D coordinates assigned)
Cc1cccc(=Nc2ccc(S(=O)(=O)N=c3[nH]ccs3)cc2)[n-]1 (optimized conformer: 80.426859194738 kcal/mol)

>  <smiles>  (73) 
Cc1cccc(=Nc2ccc(S(=O)(=O)N=c3[nH]ccs3)cc2)[nH]1

>  <score_type>  (73) 
oracle

>  <origin>  (73) 
adg

>  <m_score__min__energy>  (73) 
-9.5

>  <m_primary>  (73) 
energy

$$$$
73:0
     RDKit          3D

 40 42  0  0  0  0  0  0  0  0999 V2000
   62.2030   34.4550   49.3670 C   0  0  0  0  0  0  0  0  0  0  0  0
   60.8770   33.7730   49.4590 C   0  0  0  0  0  0  0  0  0  0  0  0
   60.5520   32.8930   50.4290 N   0  0  0  0  0  0  0  0  0  0  0  0
   59.3260   32.4500   50.1840 N   0  0  0  0  0  0  0  0  0  0  0  0
   58.6470   31.4910   51.0150 C   0  0  0  0  0  0  0  0  0  0  0  0
   59.3360   30.3990   51.5770 C   0  0  0  0  0  0  0  0  0  0  0  0
   58.6580   29.4680   52.3700 C   0  0  0  0  0  0  0  0  0  0  0  0
   57.2880   29.6110   52.6040 C   0  0  0  0  0  0  0  0  0  0  0  0
   56.5900   30.6820   52.0370 C   0  0  0  0  0  0  0  0  0  0  0  0
   54.8680   30.8540   52.3240 Cl  0  0  0  0  0  0  0  0  0  0  0  0
   57.2650   31.6150   51.2420 C   0  0  0  0  0  0  0  0  0  0  0  0
   58.8770   33.0230   49.0470 C   0  0  0  0  0  0  0  0  0  0  0  0
   57.7930   32.7260   48.4780 O   0  0  0  0  0  0  0  0  0  0  0  0
   59.8270   33.9010   48.5650 C   0  0  0  0  0  0  0  0  0  0  0  0
   59.8090   34.7000   47.3200 C   0  0  0  0  0  0  0  0  0  0  0  0
   59.9010   34.1900   46.1240 N   0  0  0  0  0  0  0  0  0  0  0  0
   59.0960   33.1380   45.5690 C   0  0  0  0  0  0  0  0  0  0  0  0
   59.2880   31.8260   46.0160 C   0  0  0  0  0  0  0  0  0  0  0  0
   58.5140   30.7830   45.4970 C   0  0  0  0  0  0  0  0  0  0  0  0
   57.5580   31.0410   44.5050 C   0  0  0  0  0  0  0  0  0  0  0  0
   56.5490   29.7410   43.8810 S   0  0  0  0  0  0  0  0  0  0  0  0
   57.5200   28.3410   43.5950 N   0  0  0  0  0  0  0  0  0  0  0  0
   55.8950   30.1680   42.5970 O   0  0  0  0  0  0  0  0  0  0  0  0
   55.4740   29.4110   44.8800 O   0  0  0  0  0  0  0  0  0  0  0  0
   57.3910   32.3470   44.0290 C   0  0  0  0  0  0  0  0  0  0  0  0
   58.1650   33.3900   44.5450 C   0  0  0  0  0  0  0  0  0  0  0  0
   62.5852   34.6516   50.3795 H   0  0  0  0  0  0  0  0  0  0  0  0
   62.9108   33.8091   48.8269 H   0  0  0  0  0  0  0  0  0  0  0  0
   62.0893   35.4065   48.8269 H   0  0  0  0  0  0  0  0  0  0  0  0
   60.4134   30.2777   51.3912 H   0  0  0  0  0  0  0  0  0  0  0  0
   59.2045   28.6211   52.8106 H   0  0  0  0  0  0  0  0  0  0  0  0
   56.7585   28.8813   53.2341 H   0  0  0  0  0  0  0  0  0  0  0  0
   56.7105   32.4514   50.7915 H   0  0  0  0  0  0  0  0  0  0  0  0
   59.7120   35.7921   47.4092 H   0  0  0  0  0  0  0  0  0  0  0  0
   60.0513   31.6139   46.7792 H   0  0  0  0  0  0  0  0  0  0  0  0
   58.6559   29.7574   45.8684 H   0  0  0  0  0  0  0  0  0  0  0  0
   58.2620   28.6180   42.9130 H   0  0  0  0  0  0  0  0  0  0  0  0
   56.9130   27.6430   43.1100 H   0  0  0  0  0  0  0  0  0  0  0  0
   56.6472   32.5531   43.2453 H   0  0  0  0  0  0  0  0  0  0  0  0
   58.0460   34.4096   44.1498 H   0  0  0  0  0  0  0  0  0  0  0  0
  1  2  1  0
  2  3  1  0
  3  4  1  0
  4  5  1  0
  5  6  2  0
  6  7  1  0
  7  8  2  0
  8  9  1  0
  9 10  1  0
  9 11  2  0
  4 12  1  0
 12 13  2  0
 12 14  1  0
 14 15  1  0
 15 16  2  3
 16 17  1  0
 17 18  2  0
 18 19  1  0
 19 20  2  0
 20 21  1  0
 21 22  1  0
 21 23  2  0
 21 24  2  0
 20 25  1  0
 25 26  2  0
 14  2  2  0
 26 17  1  0
 11  5  1  0
  1 27  1  0
  1 28  1  0
  1 29  1  0
  6 30  1  0
  7 31  1  0
  8 32  1  0
 11 33  1  0
 15 34  1  0
 18 35  1  0
 19 36  1  0
 22 37  1  0
 22 38  1  0
 25 39  1  0
 26 40  1  0
M  CHG  1   3  -1
M  END
>  <UniqueID>  (74) 
71

>  <SMILES>  (74) 
Cc1[n-]n(-c2cccc(Cl)c2)c(=O)c1C=Nc1ccc(S(N)(=O)=O)cc1

>  <Energy>  (74) 
86.506249473265

>  <Genealogy>  (74) 
Cc1[n-]n(-c2cccc(Cl)c2)c(=O)c1C=Nc1ccc(S(N)(=O)=O)cc1 (protonated)
Cc1[n-]n(-c2cccc(Cl)c2)c(=O)c1C=Nc1ccc(S(N)(=O)=O)cc1 (3D coordinates assigned)
Cc1[n-]n(-c2cccc(Cl)c2)c(=O)c1C=Nc1ccc(S(N)(=O)=O)cc1 (optimized conformer: 86.506249473265 kcal/mol)

>  <smiles>  (74) 
Cc1[nH]n(-c2cccc(Cl)c2)c(=O)c1C=Nc1ccc(S(N)(=O)=O)cc1

>  <score_type>  (74) 
oracle

>  <origin>  (74) 
adg

>  <m_score__min__energy>  (74) 
-10.369999999999999

>  <m_primary>  (74) 
energy

$$$$
74:0
     RDKit          3D

 44 46  0  0  0  0  0  0  0  0999 V2000
   55.5350   28.4740   45.2350 O   0  0  0  0  0  0  0  0  0  0  0  0
   56.2100   29.3650   44.6560 C   0  0  0  0  0  0  0  0  0  0  0  0
   55.6770   30.6390   44.4990 O   0  0  0  0  0  0  0  0  0  0  0  0
   57.5700   29.0460   44.1070 C   0  0  0  0  0  0  0  0  0  0  0  0
   58.6990   29.2880   45.1260 C   0  0  1  0  0  0  0  0  0  0  0  0
   58.1990   30.1000   46.3410 C   0  0  0  0  0  0  0  0  0  0  0  0
   58.2800   31.5850   46.0950 C   0  0  0  0  0  0  0  0  0  0  0  0
   58.2990   32.0840   44.7820 C   0  0  0  0  0  0  0  0  0  0  0  0
   58.4150   33.4580   44.5530 C   0  0  0  0  0  0  0  0  0  0  0  0
   58.5170   34.3420   45.6300 C   0  0  0  0  0  0  0  0  0  0  0  0
   58.5050   33.8530   46.9390 C   0  0  0  0  0  0  0  0  0  0  0  0
   58.3870   32.4800   47.1740 C   0  0  0  0  0  0  0  0  0  0  0  0
   59.2520   28.0050   45.5580 N   0  0  0  0  0  0  0  0  0  0  0  0
   58.5090   26.9970   46.2560 C   0  0  0  0  0  0  0  0  0  0  0  0
   57.9730   27.2620   47.3660 O   0  0  0  0  0  0  0  0  0  0  0  0
   58.3640   25.6470   45.6830 C   0  0  0  0  0  0  0  0  0  0  0  0
   57.2190   25.2830   44.9610 C   0  0  0  0  0  0  0  0  0  0  0  0
   57.1140   23.9900   44.4360 C   0  0  0  0  0  0  0  0  0  0  0  0
   58.1460   23.0540   44.6620 C   0  0  0  0  0  0  0  0  0  0  0  0
   59.2880   23.4650   45.3850 C   0  0  0  0  0  0  0  0  0  0  0  0
   60.3740   22.6190   45.6170 O   0  0  0  0  0  0  0  0  0  0  0  0
   59.3540   24.7340   45.8690 N   0  0  0  0  0  0  0  0  0  0  0  0
   57.9770   21.6720   44.1440 C   0  0  0  0  0  0  0  0  0  0  0  0
   57.0120   21.3900   43.2620 C   0  0  0  0  0  0  0  0  0  0  0  0
   56.1550   22.4800   42.6790 C   0  0  0  0  0  0  0  0  0  0  0  0
   55.8530   23.5640   43.7220 C   0  0  0  0  0  0  0  0  0  0  0  0
   57.5883   27.9877   43.8075 H   0  0  0  0  0  0  0  0  0  0  0  0
   57.7469   29.7161   43.2528 H   0  0  0  0  0  0  0  0  0  0  0  0
   59.4876   29.8792   44.6375 H   0  0  0  0  0  0  0  0  0  0  0  0
   57.1522   29.8294   46.5434 H   0  0  0  0  0  0  0  0  0  0  0  0
   58.8430   29.8606   47.2000 H   0  0  0  0  0  0  0  0  0  0  0  0
   58.2223   31.3911   43.9311 H   0  0  0  0  0  0  0  0  0  0  0  0
   58.4260   33.8439   43.5230 H   0  0  0  0  0  0  0  0  0  0  0  0
   58.6068   35.4230   45.4476 H   0  0  0  0  0  0  0  0  0  0  0  0
   58.5886   34.5497   47.7861 H   0  0  0  0  0  0  0  0  0  0  0  0
   58.3778   32.0989   48.2058 H   0  0  0  0  0  0  0  0  0  0  0  0
   56.4075   26.0096   44.8079 H   0  0  0  0  0  0  0  0  0  0  0  0
   60.9780   22.2660   44.8880 H   0  0  0  0  0  0  0  0  0  0  0  0
   58.6511   20.8740   44.4887 H   0  0  0  0  0  0  0  0  0  0  0  0
   56.8427   20.3463   42.9587 H   0  0  0  0  0  0  0  0  0  0  0  0
   56.6836   22.9366   41.8293 H   0  0  0  0  0  0  0  0  0  0  0  0
   55.2032   22.0373   42.3502 H   0  0  0  0  0  0  0  0  0  0  0  0
   55.4123   24.4365   43.2176 H   0  0  0  0  0  0  0  0  0  0  0  0
   55.1508   23.1537   44.4627 H   0  0  0  0  0  0  0  0  0  0  0  0
  1  2  2  0
  2  3  1  0
  2  4  1  0
  4  5  1  0
  5  6  1  0
  6  7  1  0
  7  8  2  0
  8  9  1  0
  9 10  2  0
 10 11  1  0
 11 12  2  0
  5 13  1  0
 13 14  1  0
 14 15  2  0
 14 16  1  0
 16 17  2  0
 17 18  1  0
 18 19  2  0
 19 20  1  0
 20 21  1  0
 20 22  2  0
 19 23  1  0
 23 24  2  0
 24 25  1  0
 25 26  1  0
 12  7  1  0
 22 16  1  0
 26 18  1  0
  4 27  1  0
  4 28  1  0
  5 29  1  6
  6 30  1  0
  6 31  1  0
  8 32  1  0
  9 33  1  0
 10 34  1  0
 11 35  1  0
 12 36  1  0
 17 37  1  0
 21 38  1  0
 23 39  1  0
 24 40  1  0
 25 41  1  0
 25 42  1  0
 26 43  1  0
 26 44  1  0
M  CHG  2   3  -1  13  -1
M  END
>  <UniqueID>  (75) 
72

>  <SMILES>  (75) 
O=C([O-])C[C@@H](Cc1ccccc1)[N-]C(=O)c1cc2c(c(O)n1)C=CCC2

>  <Energy>  (75) 
43.922900753007205

>  <Genealogy>  (75) 
O=C([O-])CC(Cc1ccccc1)[N-]C(=O)c1cc2c(c(O)n1)C=CCC2 (protonated)
O=C([O-])C[C@@H](Cc1ccccc1)[N-]C(=O)c1cc2c(c(O)n1)C=CCC2 (chirality)
O=C([O-])C[C@@H](Cc1ccccc1)[N-]C(=O)c1cc2c(c(O)n1)C=CCC2 (3D coordinates assigned)
O=C([O-])C[C@@H](Cc1ccccc1)[N-]C(=O)c1cc2c(c(O)n1)C=CCC2 (nonaromatic ring conformer: 43.922900753007205 kcal/mol)

>  <smiles>  (75) 
O=C(O)CC(Cc1ccccc1)NC(=O)c1cc2c(c(O)n1)C=CCC2

>  <score_type>  (75) 
oracle

>  <origin>  (75) 
adg

>  <m_score__min__energy>  (75) 
-13.199999999999999

>  <m_primary>  (75) 
energy

$$$$
75:0
     RDKit          3D

 65 68  0  0  1  0  0  0  0  0999 V2000
   59.2780   35.3460   45.0970 C   0  0  0  0  0  0  0  0  0  0  0  0
   59.2440   34.3760   46.1640 N   0  0  0  0  0  0  0  0  0  0  0  0
   59.7260   34.6070   47.5050 C   0  0  0  0  0  0  0  0  0  0  0  0
   61.1400   34.1800   47.5850 C   0  0  0  0  0  0  0  0  0  0  0  0
   61.8940   33.7730   46.5210 C   0  0  0  0  0  0  0  0  0  0  0  0
   63.2190   33.3800   46.7380 C   0  0  0  0  0  0  0  0  0  0  0  0
   63.7750   33.3940   47.9960 C   0  0  0  0  0  0  0  0  0  0  0  0
   63.0220   33.8030   49.0760 C   0  0  0  0  0  0  0  0  0  0  0  0
   63.7480   33.8410   50.8580 Br  0  0  0  0  0  0  0  0  0  0  0  0
   61.7190   34.1870   48.8500 C   0  0  0  0  0  0  0  0  0  0  0  0
   58.6570   33.0990   45.8420 C   0  0  0  0  0  0  0  0  0  0  0  0
   59.2730   32.0350   46.3770 N   0  0  0  0  0  0  0  0  0  0  0  0
   58.8150   30.7770   46.1540 C   0  0  0  0  0  0  0  0  0  0  0  0
   59.4130   29.8260   46.6560 N   0  0  0  0  0  0  0  0  0  0  0  0
   59.4660   29.3670   47.9710 C   0  0  1  0  0  0  0  0  0  0  0  0
   60.0840   27.9570   47.6070 C   0  0  0  0  0  0  0  0  0  0  0  0
   60.4810   27.9730   46.2960 O   0  0  0  0  0  0  0  0  0  0  0  0
   60.5070   29.9000   48.8580 C   0  0  0  0  0  0  0  0  0  0  0  0
   60.1290   31.0220   49.7350 C   0  0  0  0  0  0  0  0  0  0  0  0
   58.9050   31.6920   49.5110 C   0  0  0  0  0  0  0  0  0  0  0  0
   58.4930   32.7500   50.2460 C   0  0  0  0  0  0  0  0  0  0  0  0
   59.2540   33.2470   51.2750 C   0  0  0  0  0  0  0  0  0  0  0  0
   58.8350   34.3280   52.0290 O   0  0  0  0  0  0  0  0  0  0  0  0
   60.4520   32.6260   51.5290 C   0  0  0  0  0  0  0  0  0  0  0  0
   60.8690   31.5340   50.7650 C   0  0  0  0  0  0  0  0  0  0  0  0
   57.7230   30.5760   45.3860 C   0  0  0  0  0  0  0  0  0  0  0  0
   57.0610   29.3280   45.0910 C   0  0  0  0  0  0  0  0  0  0  0  0
   55.8820   29.0600   44.9250 O   0  0  0  0  0  0  0  0  0  0  0  0
   57.9950   28.2040   44.9970 N   0  0  0  0  0  0  0  0  0  0  0  0
   57.6420   26.8800   44.7390 C   0  0  0  0  0  0  0  0  0  0  0  0
   57.7910   26.4290   43.4170 C   0  0  0  0  0  0  0  0  0  0  0  0
   57.4340   25.1620   43.0350 C   0  0  0  0  0  0  0  0  0  0  0  0
   56.9130   24.2960   43.9720 C   0  0  0  0  0  0  0  0  0  0  0  0
   56.4550   22.6730   43.4990 Cl  0  0  0  0  0  0  0  0  0  0  0  0
   56.7460   24.6900   45.2900 C   0  0  0  0  0  0  0  0  0  0  0  0
   57.1190   25.9730   45.6190 C   0  0  0  0  0  0  0  0  0  0  0  0
   57.1180   31.7230   44.8500 C   0  0  0  0  0  0  0  0  0  0  0  0
   57.5820   32.9550   45.0790 N   0  0  0  0  0  0  0  0  0  0  0  0
   59.3135   36.3593   45.5236 H   0  0  0  0  0  0  0  0  0  0  0  0
   60.1708   35.1778   44.4768 H   0  0  0  0  0  0  0  0  0  0  0  0
   58.3756   35.2407   44.4768 H   0  0  0  0  0  0  0  0  0  0  0  0
   59.6492   35.6775   47.7459 H   0  0  0  0  0  0  0  0  0  0  0  0
   59.1217   34.0329   48.2228 H   0  0  0  0  0  0  0  0  0  0  0  0
   61.4654   33.7546   45.5081 H   0  0  0  0  0  0  0  0  0  0  0  0
   63.8297   33.0526   45.8837 H   0  0  0  0  0  0  0  0  0  0  0  0
   64.8191   33.0793   48.1402 H   0  0  0  0  0  0  0  0  0  0  0  0
   61.1101   34.5131   49.7061 H   0  0  0  0  0  0  0  0  0  0  0  0
   58.5095   29.5462   48.4838 H   0  0  0  0  0  0  0  0  0  0  0  0
   60.9511   27.7557   48.2532 H   0  0  0  0  0  0  0  0  0  0  0  0
   59.3317   27.1691   47.7596 H   0  0  0  0  0  0  0  0  0  0  0  0
   60.5500   28.8580   45.8900 H   0  0  0  0  0  0  0  0  0  0  0  0
   60.8480   29.0759   49.5019 H   0  0  0  0  0  0  0  0  0  0  0  0
   61.2737   30.3101   48.1842 H   0  0  0  0  0  0  0  0  0  0  0  0
   58.2550   31.3353   48.6984 H   0  0  0  0  0  0  0  0  0  0  0  0
   57.5271   33.2226   50.0143 H   0  0  0  0  0  0  0  0  0  0  0  0
   58.7580   35.2170   51.5720 H   0  0  0  0  0  0  0  0  0  0  0  0
   61.0916   32.9935   52.3450 H   0  0  0  0  0  0  0  0  0  0  0  0
   61.8353   31.0649   51.0020 H   0  0  0  0  0  0  0  0  0  0  0  0
   59.0360   28.3910   45.1340 H   0  0  0  0  0  0  0  0  0  0  0  0
   58.2075   27.1146   42.6643 H   0  0  0  0  0  0  0  0  0  0  0  0
   57.5620   24.8396   41.9911 H   0  0  0  0  0  0  0  0  0  0  0  0
   56.3316   24.0041   46.0436 H   0  0  0  0  0  0  0  0  0  0  0  0
   56.9872   26.2917   46.6636 H   0  0  0  0  0  0  0  0  0  0  0  0
   56.2268   31.6033   44.2164 H   0  0  0  0  0  0  0  0  0  0  0  0
   57.1180   33.7950   44.6700 H   0  0  0  0  0  0  0  0  0  0  0  0
  1  2  1  0
  2  3  1  0
  3  4  1  0
  4  5  2  0
  5  6  1  0
  6  7  2  0
  7  8  1  0
  8  9  1  0
  8 10  2  0
  2 11  1  0
 11 12  2  0
 12 13  1  0
 13 14  2  0
 14 15  1  0
 15 16  1  0
 16 17  1  0
 15 18  1  0
 18 19  1  0
 19 20  2  0
 20 21  1  0
 21 22  2  0
 22 23  1  0
 22 24  1  0
 24 25  2  0
 13 26  1  0
 26 27  1  0
 27 28  2  0
 27 29  1  0
 29 30  1  0
 30 31  2  0
 31 32  1  0
 32 33  2  0
 33 34  1  0
 33 35  1  0
 35 36  2  0
 26 37  2  0
 37 38  1  0
 10  4  1  0
 38 11  1  0
 25 19  1  0
 36 30  1  0
  1 39  1  0
  1 40  1  0
  1 41  1  0
  3 42  1  0
  3 43  1  0
  5 44  1  0
  6 45  1  0
  7 46  1  0
 10 47  1  0
 15 48  1  1
 16 49  1  0
 16 50  1  0
 17 51  1  0
 18 52  1  0
 18 53  1  0
 20 54  1  0
 21 55  1  0
 23 56  1  0
 24 57  1  0
 25 58  1  0
 29 59  1  0
 31 60  1  0
 32 61  1  0
 35 62  1  0
 36 63  1  0
 37 64  1  0
 38 65  1  0
M  END
>  <smiles>  (76) 
CN(Cc1cccc(Br)c1)c1nc(=NC(CO)Cc2ccc(O)cc2)c(C(=O)Nc2ccc(Cl)cc2)c[nH]1

>  <score_type>  (76) 
oracle

>  <origin>  (76) 
adg

>  <m_score__min__energy>  (76) 
-11.08

>  <m_primary>  (76) 
energy

$$$$
76:0
     RDKit          3D

 45 46  0  0  0  0  0  0  0  0999 V2000
   58.6740   34.2020   52.0110 N   0  0  0  0  0  0  0  0  0  0  0  0
   58.3990   32.5200   51.7160 S   0  0  0  0  0  0  0  0  0  0  0  0
   57.5190   32.3610   50.5080 O   0  0  0  0  0  0  0  0  0  0  0  0
   57.7120   31.9150   52.9080 O   0  0  0  0  0  0  0  0  0  0  0  0
   59.9590   31.6810   51.4570 C   0  0  0  0  0  0  0  0  0  0  0  0
   60.9310   32.4960   50.5980 C   0  0  0  0  0  0  0  0  0  0  0  0
   60.3180   33.7660   50.1790 N   0  0  0  0  0  0  0  0  0  0  0  0
   60.8720   34.2280   48.9000 C   0  0  0  0  0  0  0  0  0  0  0  0
   60.0020   33.7790   47.7570 C   0  0  0  0  0  0  0  0  0  0  0  0
   59.9160   34.5400   46.5810 C   0  0  0  0  0  0  0  0  0  0  0  0
   59.1190   34.1050   45.5170 C   0  0  0  0  0  0  0  0  0  0  0  0
   58.4030   32.9030   45.6130 C   0  0  0  0  0  0  0  0  0  0  0  0
   57.6140   32.3970   44.4340 C   0  0  0  0  0  0  0  0  0  0  0  0
   56.4150   31.6800   44.8720 N   0  0  0  0  0  0  0  0  0  0  0  0
   56.4700   29.9980   44.4170 S   0  0  0  0  0  0  0  0  0  0  0  0
   56.5560   29.8970   42.9200 O   0  0  0  0  0  0  0  0  0  0  0  0
   55.2170   29.3020   44.8740 O   0  0  0  0  0  0  0  0  0  0  0  0
   57.8910   29.2250   45.1150 C   0  0  0  0  0  0  0  0  0  0  0  0
   57.7850   28.4310   46.2680 C   0  0  0  0  0  0  0  0  0  0  0  0
   58.9310   27.8710   46.8420 C   0  0  0  0  0  0  0  0  0  0  0  0
   60.1850   28.0970   46.2670 C   0  0  0  0  0  0  0  0  0  0  0  0
   60.2940   28.8760   45.1120 C   0  0  0  0  0  0  0  0  0  0  0  0
   59.1500   29.4350   44.5340 C   0  0  0  0  0  0  0  0  0  0  0  0
   58.4650   32.1580   46.8020 C   0  0  0  0  0  0  0  0  0  0  0  0
   59.2610   32.5920   47.8650 C   0  0  0  0  0  0  0  0  0  0  0  0
   59.6840   34.3090   52.2550 H   0  0  0  0  0  0  0  0  0  0  0  0
   58.5270   34.6990   51.1040 H   0  0  0  0  0  0  0  0  0  0  0  0
   60.4253   31.4942   52.4356 H   0  0  0  0  0  0  0  0  0  0  0  0
   59.7480   30.7431   50.9224 H   0  0  0  0  0  0  0  0  0  0  0  0
   61.8380   32.7088   51.1828 H   0  0  0  0  0  0  0  0  0  0  0  0
   61.1829   31.9126   49.7001 H   0  0  0  0  0  0  0  0  0  0  0  0
   59.2990   33.5890   50.0230 H   0  0  0  0  0  0  0  0  0  0  0  0
   60.9258   35.3267   48.9044 H   0  0  0  0  0  0  0  0  0  0  0  0
   61.8773   33.8001   48.7719 H   0  0  0  0  0  0  0  0  0  0  0  0
   60.4774   35.4821   46.4957 H   0  0  0  0  0  0  0  0  0  0  0  0
   59.0535   34.7090   44.6000 H   0  0  0  0  0  0  0  0  0  0  0  0
   57.3139   33.2511   43.8091 H   0  0  0  0  0  0  0  0  0  0  0  0
   58.2469   31.7031   43.8614 H   0  0  0  0  0  0  0  0  0  0  0  0
   56.7991   28.2490   46.7207 H   0  0  0  0  0  0  0  0  0  0  0  0
   58.8454   27.2519   47.7472 H   0  0  0  0  0  0  0  0  0  0  0  0
   61.0860   27.6616   46.7238 H   0  0  0  0  0  0  0  0  0  0  0  0
   61.2804   29.0496   44.6572 H   0  0  0  0  0  0  0  0  0  0  0  0
   59.2379   30.0415   43.6205 H   0  0  0  0  0  0  0  0  0  0  0  0
   57.8842   31.2286   46.8967 H   0  0  0  0  0  0  0  0  0  0  0  0
   59.3072   32.0004   48.7912 H   0  0  0  0  0  0  0  0  0  0  0  0
  1  2  1  0
  2  3  2  0
  2  4  2  0
  2  5  1  0
  5  6  1  0
  6  7  1  0
  7  8  1  0
  8  9  1  0
  9 10  2  0
 10 11  1  0
 11 12  2  0
 12 13  1  0
 13 14  1  0
 14 15  1  0
 15 16  2  0
 15 17  2  0
 15 18  1  0
 18 19  2  0
 19 20  1  0
 20 21  2  0
 21 22  1  0
 22 23  2  0
 12 24  1  0
 24 25  2  0
 25  9  1  0
 23 18  1  0
  1 26  1  0
  1 27  1  0
  5 28  1  0
  5 29  1  0
  6 30  1  0
  6 31  1  0
  7 32  1  0
  8 33  1  0
  8 34  1  0
 10 35  1  0
 11 36  1  0
 13 37  1  0
 13 38  1  0
 19 39  1  0
 20 40  1  0
 21 41  1  0
 22 42  1  0
 23 43  1  0
 24 44  1  0
 25 45  1  0
M  CHG  1  14  -1
M  END
>  <UniqueID>  (77) 
73

>  <SMILES>  (77) 
NS(=O)(=O)CCNCc1ccc(C[N-]S(=O)(=O)c2ccccc2)cc1

>  <Energy>  (77) 
31.84729877854565

>  <Genealogy>  (77) 
NS(=O)(=O)CCNCc1ccc(C[N-]S(=O)(=O)c2ccccc2)cc1 (protonated)
NS(=O)(=O)CCNCc1ccc(C[N-]S(=O)(=O)c2ccccc2)cc1 (3D coordinates assigned)
NS(=O)(=O)CCNCc1ccc(C[N-]S(=O)(=O)c2ccccc2)cc1 (optimized conformer: 31.84729877854565 kcal/mol)

>  <smiles>  (77) 
NS(=O)(=O)CCNCc1ccc(CNS(=O)(=O)c2ccccc2)cc1

>  <score_type>  (77) 
oracle

>  <origin>  (77) 
adg

>  <m_score__min__energy>  (77) 
-9.2899999999999991

>  <m_primary>  (77) 
energy

$$$$
77:0
     RDKit          3D

 40 42  0  0  0  0  0  0  0  0999 V2000
   59.3190   27.9560   47.0230 C   0  0  0  0  0  0  0  0  0  0  0  0
   58.2920   28.7600   46.2710 C   0  0  0  0  0  0  0  0  0  0  0  0
   57.0810   28.2280   45.7720 C   0  0  0  0  0  0  0  0  0  0  0  0
   56.5320   26.8710   45.9560 C   0  0  0  0  0  0  0  0  0  0  0  0
   57.2870   25.8790   46.1260 O   0  0  0  0  0  0  0  0  0  0  0  0
   55.1550   26.6860   45.9920 O   0  0  0  0  0  0  0  0  0  0  0  0
   56.2470   29.4340   44.9280 S   0  0  0  0  0  0  0  0  0  0  0  0
   57.3790   30.6250   45.2250 C   0  0  0  0  0  0  0  0  0  0  0  0
   57.3110   31.9080   44.8190 N   0  0  0  0  0  0  0  0  0  0  0  0
   58.2980   32.7790   45.1610 C   0  0  0  0  0  0  0  0  0  0  0  0
   58.1590   34.3180   44.6060 S   0  0  0  0  0  0  0  0  0  0  0  0
   59.3640   32.3600   45.9460 N   0  0  0  0  0  0  0  0  0  0  0  0
   60.4370   33.2900   46.3750 C   0  0  0  0  0  0  0  0  0  0  0  0
   59.9620   34.2460   47.4880 C   0  0  0  0  0  0  0  0  0  0  0  0
   60.3860   33.8270   48.9110 C   0  0  0  0  0  0  0  0  0  0  0  0
   60.0000   32.4340   49.2480 N   0  0  1  0  0  0  0  0  0  0  0  0
   60.5270   32.0330   50.5690 C   0  0  0  0  0  0  0  0  0  0  0  0
   59.4390   31.2360   51.2940 C   0  0  0  0  0  0  0  0  0  0  0  0
   58.1300   31.6690   50.6620 C   0  0  0  0  0  0  0  0  0  0  0  0
   58.5780   32.2800   49.3930 C   0  0  0  0  0  0  0  0  0  0  0  0
   57.7900   32.5750   48.5060 O   0  0  0  0  0  0  0  0  0  0  0  0
   59.4330   31.0400   46.3530 C   0  0  0  0  0  0  0  0  0  0  0  0
   60.3930   30.6450   47.0700 O   0  0  0  0  0  0  0  0  0  0  0  0
   58.4220   30.1400   45.9760 C   0  0  0  0  0  0  0  0  0  0  0  0
   59.1612   28.0795   48.1046 H   0  0  0  0  0  0  0  0  0  0  0  0
   59.2194   26.8933   46.7569 H   0  0  0  0  0  0  0  0  0  0  0  0
   60.3267   28.3077   46.7569 H   0  0  0  0  0  0  0  0  0  0  0  0
   61.2873   32.7020   46.7508 H   0  0  0  0  0  0  0  0  0  0  0  0
   60.7272   33.8982   45.5056 H   0  0  0  0  0  0  0  0  0  0  0  0
   60.3775   35.2441   47.2849 H   0  0  0  0  0  0  0  0  0  0  0  0
   58.8623   34.2279   47.4696 H   0  0  0  0  0  0  0  0  0  0  0  0
   61.4795   33.9162   48.9908 H   0  0  0  0  0  0  0  0  0  0  0  0
   59.8656   34.4911   49.6168 H   0  0  0  0  0  0  0  0  0  0  0  0
   60.3360   31.7570   48.5240 H   0  0  0  0  0  0  0  0  0  0  0  0
   61.4227   31.4079   50.4388 H   0  0  0  0  0  0  0  0  0  0  0  0
   60.8021   32.9222   51.1552 H   0  0  0  0  0  0  0  0  0  0  0  0
   59.5952   30.1563   51.1532 H   0  0  0  0  0  0  0  0  0  0  0  0
   59.4502   31.4229   52.3779 H   0  0  0  0  0  0  0  0  0  0  0  0
   57.4722   30.8067   50.4782 H   0  0  0  0  0  0  0  0  0  0  0  0
   57.5405   32.3496   51.2938 H   0  0  0  0  0  0  0  0  0  0  0  0
  1  2  1  0
  2  3  2  0
  3  4  1  0
  4  5  2  0
  4  6  1  0
  3  7  1  0
  7  8  1  0
  8  9  1  0
  9 10  1  0
 10 11  2  0
 10 12  1  0
 12 13  1  0
 13 14  1  0
 14 15  1  0
 15 16  1  0
 16 17  1  0
 17 18  1  0
 18 19  1  0
 19 20  1  0
 20 21  2  0
 12 22  1  0
 22 23  2  0
 22 24  1  0
 24  2  1  0
 24  8  2  0
 20 16  1  0
  1 25  1  0
  1 26  1  0
  1 27  1  0
 13 28  1  0
 13 29  1  0
 14 30  1  0
 14 31  1  0
 15 32  1  0
 15 33  1  0
 16 34  1  6
 17 35  1  0
 17 36  1  0
 18 37  1  0
 18 38  1  0
 19 39  1  0
 19 40  1  0
M  CHG  3   6  -1   9  -1  16   1
M  END
>  <UniqueID>  (78) 
74

>  <SMILES>  (78) 
Cc1c(C(=O)[O-])sc2[n-]c(=S)n(CCC[N@H+]3CCCC3=O)c(=O)c12

>  <Energy>  (78) 
86.81506898378349

>  <Genealogy>  (78) 
Cc1c(C(=O)[O-])sc2[n-]c(=S)n(CCC[NH+]3CCCC3=O)c(=O)c12 (protonated)
Cc1c(C(=O)[O-])sc2[n-]c(=S)n(CCC[N@H+]3CCCC3=O)c(=O)c12 (chirality)
Cc1c(C(=O)[O-])sc2[n-]c(=S)n(CCC[N@H+]3CCCC3=O)c(=O)c12 (3D coordinates assigned)
Cc1c(C(=O)[O-])sc2[n-]c(=S)n(CCC[N@H+]3CCCC3=O)c(=O)c12 (nonaromatic ring conformer: 86.81506898378349 kcal/mol)

>  <smiles>  (78) 
Cc1c(C(=O)O)sc2[nH]c(=S)n(CCCN3CCCC3=O)c(=O)c12

>  <score_type>  (78) 
oracle

>  <origin>  (78) 
adg

>  <m_score__min__energy>  (78) 
-9.5800000000000001

>  <m_primary>  (78) 
energy

$$$$
78:0
     RDKit          3D

 47 49  0  0  0  0  0  0  0  0999 V2000
   62.4110   30.9810   48.9270 O   0  0  0  0  0  0  0  0  0  0  0  0
   61.7580   31.1450   47.8600 C   0  0  0  0  0  0  0  0  0  0  0  0
   61.9750   32.3170   47.0610 N   0  0  0  0  0  0  0  0  0  0  0  0
   62.7180   33.4730   47.5540 C   0  0  0  0  0  0  0  0  0  0  0  0
   62.2430   33.8880   48.9550 C   0  0  0  0  0  0  0  0  0  0  0  0
   60.8520   34.5580   48.9560 C   0  0  0  0  0  0  0  0  0  0  0  0
   59.6850   33.5850   48.7090 C   0  0  0  0  0  0  0  0  0  0  0  0
   59.0200   33.8170   47.3750 C   0  0  0  0  0  0  0  0  0  0  0  0
   59.6690   34.5750   46.3840 C   0  0  0  0  0  0  0  0  0  0  0  0
   59.0500   34.8000   45.1500 C   0  0  0  0  0  0  0  0  0  0  0  0
   57.7810   34.2700   44.8950 C   0  0  0  0  0  0  0  0  0  0  0  0
   57.1310   33.5140   45.8740 C   0  0  0  0  0  0  0  0  0  0  0  0
   57.7460   33.2860   47.1080 C   0  0  0  0  0  0  0  0  0  0  0  0
   60.7560   30.1440   47.4440 C   0  0  0  0  0  0  0  0  0  0  0  0
   60.6130   28.9290   48.1310 C   0  0  0  0  0  0  0  0  0  0  0  0
   59.6300   28.0340   47.7150 C   0  0  0  0  0  0  0  0  0  0  0  0
   59.4730   26.9400   48.3180 O   0  0  0  0  0  0  0  0  0  0  0  0
   58.8150   28.3600   46.6300 C   0  0  0  0  0  0  0  0  0  0  0  0
   59.0110   29.5900   45.9770 C   0  0  0  0  0  0  0  0  0  0  0  0
   58.1750   30.0090   44.8250 C   0  0  0  0  0  0  0  0  0  0  0  0
   58.5350   31.1560   44.0930 C   0  0  0  0  0  0  0  0  0  0  0  0
   57.7690   31.5700   42.9980 C   0  0  0  0  0  0  0  0  0  0  0  0
   56.6410   30.8410   42.6180 C   0  0  0  0  0  0  0  0  0  0  0  0
   56.2800   29.6940   43.3260 C   0  0  0  0  0  0  0  0  0  0  0  0
   57.0420   29.2760   44.4230 C   0  0  0  0  0  0  0  0  0  0  0  0
   59.9610   30.4160   46.4130 O   0  0  0  0  0  0  0  0  0  0  0  0
   61.6020   32.3510   46.0850 H   0  0  0  0  0  0  0  0  0  0  0  0
   63.7872   33.2186   47.5992 H   0  0  0  0  0  0  0  0  0  0  0  0
   62.5460   34.3143   46.8665 H   0  0  0  0  0  0  0  0  0  0  0  0
   62.1981   32.9898   49.5885 H   0  0  0  0  0  0  0  0  0  0  0  0
   62.9613   34.6291   49.3357 H   0  0  0  0  0  0  0  0  0  0  0  0
   60.7005   35.0378   49.9342 H   0  0  0  0  0  0  0  0  0  0  0  0
   60.8462   35.2776   48.1241 H   0  0  0  0  0  0  0  0  0  0  0  0
   60.0706   32.5552   48.7379 H   0  0  0  0  0  0  0  0  0  0  0  0
   58.9334   33.7541   49.4941 H   0  0  0  0  0  0  0  0  0  0  0  0
   60.6675   34.9927   46.5801 H   0  0  0  0  0  0  0  0  0  0  0  0
   59.5619   35.3946   44.3790 H   0  0  0  0  0  0  0  0  0  0  0  0
   57.2950   34.4482   43.9244 H   0  0  0  0  0  0  0  0  0  0  0  0
   56.1330   33.0974   45.6729 H   0  0  0  0  0  0  0  0  0  0  0  0
   57.2307   32.6881   47.8742 H   0  0  0  0  0  0  0  0  0  0  0  0
   61.2655   28.6875   48.9830 H   0  0  0  0  0  0  0  0  0  0  0  0
   58.0318   27.6659   46.2910 H   0  0  0  0  0  0  0  0  0  0  0  0
   59.4260   31.7316   44.3843 H   0  0  0  0  0  0  0  0  0  0  0  0
   58.0560   32.4710   42.4359 H   0  0  0  0  0  0  0  0  0  0  0  0
   56.0365   31.1707   41.7602 H   0  0  0  0  0  0  0  0  0  0  0  0
   55.3945   29.1170   43.0212 H   0  0  0  0  0  0  0  0  0  0  0  0
   56.7539   28.3690   44.9747 H   0  0  0  0  0  0  0  0  0  0  0  0
  1  2  2  0
  2  3  1  0
  3  4  1  0
  4  5  1  0
  5  6  1  0
  6  7  1  0
  7  8  1  0
  8  9  2  0
  9 10  1  0
 10 11  2  0
 11 12  1  0
 12 13  2  0
  2 14  1  0
 14 15  2  0
 15 16  1  0
 16 17  2  0
 16 18  1  0
 18 19  2  0
 19 20  1  0
 20 21  2  0
 21 22  1  0
 22 23  2  0
 23 24  1  0
 24 25  2  0
 19 26  1  0
 13  8  1  0
 26 14  1  0
 25 20  1  0
  3 27  1  0
  4 28  1  0
  4 29  1  0
  5 30  1  0
  5 31  1  0
  6 32  1  0
  6 33  1  0
  7 34  1  0
  7 35  1  0
  9 36  1  0
 10 37  1  0
 11 38  1  0
 12 39  1  0
 13 40  1  0
 15 41  1  0
 18 42  1  0
 21 43  1  0
 22 44  1  0
 23 45  1  0
 24 46  1  0
 25 47  1  0
M  END
>  <UniqueID>  (79) 
75

>  <SMILES>  (79) 
O=C(NCCCCc1ccccc1)c1cc(=O)cc(-c2ccccc2)o1

>  <Energy>  (79) 
46.2348937817435

>  <Genealogy>  (79) 
O=C(NCCCCc1ccccc1)c1cc(=O)cc(-c2ccccc2)o1 (3D coordinates assigned)
O=C(NCCCCc1ccccc1)c1cc(=O)cc(-c2ccccc2)o1 (optimized conformer: 46.2348937817435 kcal/mol)

>  <smiles>  (79) 
O=C(NCCCCc1ccccc1)c1cc(=O)cc(-c2ccccc2)o1

>  <score_type>  (79) 
oracle

>  <origin>  (79) 
adg

>  <m_score__min__energy>  (79) 
-8.9499999999999993

>  <m_primary>  (79) 
energy

$$$$
79:0
     RDKit          3D

 42 44  0  0  0  0  0  0  0  0999 V2000
   54.3920   25.0040   45.6160 C   0  0  0  0  0  0  0  0  0  0  0  0
   54.8580   26.2950   45.9940 O   0  0  0  0  0  0  0  0  0  0  0  0
   56.2120   26.6460   46.1200 C   0  0  0  0  0  0  0  0  0  0  0  0
   57.1450   25.8060   46.7630 C   0  0  0  0  0  0  0  0  0  0  0  0
   58.4850   26.1870   46.8620 C   0  0  0  0  0  0  0  0  0  0  0  0
   58.9110   27.3980   46.3160 C   0  0  0  0  0  0  0  0  0  0  0  0
   57.9970   28.2390   45.6770 C   0  0  0  0  0  0  0  0  0  0  0  0
   56.6380   27.8770   45.5910 C   0  0  0  0  0  0  0  0  0  0  0  0
   55.6840   28.7070   44.9130 N   0  0  0  0  0  0  0  0  0  0  0  0
   55.9750   29.6760   43.8990 C   0  0  0  0  0  0  0  0  0  0  0  0
   56.0350   29.3420   42.6850 O   0  0  0  0  0  0  0  0  0  0  0  0
   56.2510   31.0930   44.2920 C   0  0  0  0  0  0  0  0  0  0  0  0
   57.9480   31.5740   43.8170 S   0  0  0  0  0  0  0  0  0  0  0  0
   58.1250   32.7780   45.1320 C   0  0  0  0  0  0  0  0  0  0  0  0
   57.0990   33.2490   45.8650 N   0  0  0  0  0  0  0  0  0  0  0  0
   57.6220   34.1200   46.7140 N   0  0  0  0  0  0  0  0  0  0  0  0
   58.9460   34.1380   46.4650 C   0  0  0  0  0  0  0  0  0  0  0  0
   59.9210   35.0200   47.1720 C   0  0  0  0  0  0  0  0  0  0  0  0
   61.1030   34.2100   47.6260 C   0  0  0  0  0  0  0  0  0  0  0  0
   62.0610   33.7720   46.6970 C   0  0  0  0  0  0  0  0  0  0  0  0
   63.1800   33.0530   47.1260 C   0  0  0  0  0  0  0  0  0  0  0  0
   63.3600   32.7750   48.4880 C   0  0  0  0  0  0  0  0  0  0  0  0
   64.4710   32.0600   48.9270 O   0  0  0  0  0  0  0  0  0  0  0  0
   62.4150   33.2220   49.4180 C   0  0  0  0  0  0  0  0  0  0  0  0
   61.2940   33.9400   48.9910 C   0  0  0  0  0  0  0  0  0  0  0  0
   59.2620   33.3170   45.4930 O   0  0  0  0  0  0  0  0  0  0  0  0
   54.1785   24.4125   46.5185 H   0  0  0  0  0  0  0  0  0  0  0  0
   53.4739   25.1059   45.0187 H   0  0  0  0  0  0  0  0  0  0  0  0
   55.1635   24.4961   45.0187 H   0  0  0  0  0  0  0  0  0  0  0  0
   56.8157   24.8465   47.1884 H   0  0  0  0  0  0  0  0  0  0  0  0
   59.2060   25.5308   47.3715 H   0  0  0  0  0  0  0  0  0  0  0  0
   59.9687   27.6911   46.3888 H   0  0  0  0  0  0  0  0  0  0  0  0
   58.3397   29.1881   45.2390 H   0  0  0  0  0  0  0  0  0  0  0  0
   55.5328   31.7548   43.7859 H   0  0  0  0  0  0  0  0  0  0  0  0
   56.1493   31.1842   45.3835 H   0  0  0  0  0  0  0  0  0  0  0  0
   60.2614   35.8108   46.4874 H   0  0  0  0  0  0  0  0  0  0  0  0
   59.4329   35.4730   48.0475 H   0  0  0  0  0  0  0  0  0  0  0  0
   61.9301   33.9957   45.6280 H   0  0  0  0  0  0  0  0  0  0  0  0
   63.9218   32.7042   46.3925 H   0  0  0  0  0  0  0  0  0  0  0  0
   65.4020   32.2590   48.5770 H   0  0  0  0  0  0  0  0  0  0  0  0
   62.5545   33.0079   50.4879 H   0  0  0  0  0  0  0  0  0  0  0  0
   60.5582   34.2951   49.7275 H   0  0  0  0  0  0  0  0  0  0  0  0
  1  2  1  0
  2  3  1  0
  3  4  2  0
  4  5  1  0
  5  6  2  0
  6  7  1  0
  7  8  2  0
  8  9  1  0
  9 10  1  0
 10 11  2  0
 10 12  1  0
 12 13  1  0
 13 14  1  0
 14 15  2  0
 15 16  1  0
 16 17  2  0
 17 18  1  0
 18 19  1  0
 19 20  2  0
 20 21  1  0
 21 22  2  0
 22 23  1  0
 22 24  1  0
 24 25  2  0
 17 26  1  0
  8  3  1  0
 26 14  1  0
 25 19  1  0
  1 27  1  0
  1 28  1  0
  1 29  1  0
  4 30  1  0
  5 31  1  0
  6 32  1  0
  7 33  1  0
 12 34  1  0
 12 35  1  0
 18 36  1  0
 18 37  1  0
 20 38  1  0
 21 39  1  0
 23 40  1  0
 24 41  1  0
 25 42  1  0
M  CHG  1   9  -1
M  END
>  <UniqueID>  (80) 
76

>  <SMILES>  (80) 
COc1ccccc1[N-]C(=O)CSc1nnc(Cc2ccc(O)cc2)o1

>  <Energy>  (80) 
74.43168133122677

>  <Genealogy>  (80) 
COc1ccccc1[N-]C(=O)CSc1nnc(Cc2ccc(O)cc2)o1 (protonated)
COc1ccccc1[N-]C(=O)CSc1nnc(Cc2ccc(O)cc2)o1 (3D coordinates assigned)
COc1ccccc1[N-]C(=O)CSc1nnc(Cc2ccc(O)cc2)o1 (optimized conformer: 74.43168133122677 kcal/mol)

>  <smiles>  (80) 
COc1ccccc1NC(=O)CSc1nnc(Cc2ccc(O)cc2)o1

>  <score_type>  (80) 
oracle

>  <origin>  (80) 
adg

>  <m_score__min__energy>  (80) 
-10.81

>  <m_primary>  (80) 
energy

$$$$
80:0
     RDKit          3D

 29 30  0  0  0  0  0  0  0  0999 V2000
   61.6530   31.1609   47.3208 H   0  0  0  0  0  0  0  0  0  0  0  0
   61.0730   32.0320   46.9820 C   0  0  0  0  0  0  0  0  0  0  0  0
   61.5120   33.3400   47.1150 C   0  0  0  0  0  0  0  0  0  0  0  0
   63.0410   33.8400   47.8060 Cl  0  0  0  0  0  0  0  0  0  0  0  0
   60.3550   34.3780   46.4810 S   0  0  0  0  0  0  0  0  0  0  0  0
   59.2720   33.1730   46.0310 C   0  0  0  0  0  0  0  0  0  0  0  0
   57.7480   33.4910   45.2230 Cl  0  0  0  0  0  0  0  0  0  0  0  0
   59.8150   31.9320   46.3720 C   0  0  0  0  0  0  0  0  0  0  0  0
   59.0840   30.3660   46.0190 S   0  0  0  0  0  0  0  0  0  0  0  0
   59.3430   29.3740   47.1160 O   0  0  0  0  0  0  0  0  0  0  0  0
   59.6670   29.8400   44.7390 O   0  0  0  0  0  0  0  0  0  0  0  0
   57.3730   30.5630   45.8290 N   0  0  0  0  0  0  0  0  0  0  0  0
   56.6240   29.8230   44.8640 C   0  0  0  0  0  0  0  0  0  0  0  0
   56.5690   30.2330   43.6740 O   0  0  0  0  0  0  0  0  0  0  0  0
   55.9790   28.5990   45.2320 N   0  0  0  0  0  0  0  0  0  0  0  0
   56.5360   27.4860   45.6310 C   0  0  0  0  0  0  0  0  0  0  0  0
   55.7920   26.3380   46.0170 C   0  0  0  0  0  0  0  0  0  0  0  0
   54.4010   26.3210   45.9880 O   0  0  0  0  0  0  0  0  0  0  0  0
   56.4750   25.1950   46.4690 C   0  0  0  0  0  0  0  0  0  0  0  0
   55.7100   23.9710   46.8890 C   0  0  0  0  0  0  0  0  0  0  0  0
   55.6770   23.9182   47.9872 H   0  0  0  0  0  0  0  0  0  0  0  0
   54.6850   24.0256   46.4935 H   0  0  0  0  0  0  0  0  0  0  0  0
   56.2082   23.0736   46.4935 H   0  0  0  0  0  0  0  0  0  0  0  0
   57.8710   25.2130   46.5490 C   0  0  0  0  0  0  0  0  0  0  0  0
   58.4161   24.3268   46.9062 H   0  0  0  0  0  0  0  0  0  0  0  0
   58.5670   26.3590   46.1740 C   0  0  0  0  0  0  0  0  0  0  0  0
   59.6651   26.3777   46.2360 H   0  0  0  0  0  0  0  0  0  0  0  0
   57.8960   27.4540   45.7320 N   0  0  0  0  0  0  0  0  0  0  0  0
   58.4530   28.2990   45.4670 H   0  0  0  0  0  0  0  0  0  0  0  0
  1  2  1  0
  2  3  2  0
  3  4  1  0
  3  5  1  0
  5  6  1  0
  6  7  1  0
  6  8  2  0
  8  9  1  0
  9 10  2  0
  9 11  2  0
  9 12  1  0
 12 13  1  0
 13 14  2  0
 13 15  1  0
 15 16  2  0
 16 17  1  0
 17 18  1  0
 17 19  2  0
 19 20  1  0
 20 21  1  0
 20 22  1  0
 20 23  1  0
 19 24  1  0
 24 25  1  0
 24 26  2  0
 26 27  1  0
 26 28  1  0
 28 29  1  0
  8  2  1  0
 28 16  1  0
M  CHG  2  12  -1  18  -1
M  END
>  <UniqueID>  (81) 
77

>  <SMILES>  (81) 
Cc1cc[nH]/c(=N/C(=O)[N-]S(=O)(=O)c2cc(Cl)sc2Cl)c1[O-]

>  <Energy>  (81) 
67.50873969570051

>  <Genealogy>  (81) 
Cc1cc[nH]c(=NC(=O)[N-]S(=O)(=O)c2cc(Cl)sc2Cl)c1[O-] (protonated)
Cc1cc[nH]/c(=N/C(=O)[N-]S(=O)(=O)c2cc(Cl)sc2Cl)c1[O-] (cis-trans isomerization)
Cc1cc[nH]/c(=N/C(=O)[N-]S(=O)(=O)c2cc(Cl)sc2Cl)c1[O-] (3D coordinates assigned)
Cc1cc[nH]/c(=N/C(=O)[N-]S(=O)(=O)c2cc(Cl)sc2Cl)c1[O-] (optimized conformer: 67.50873969570051 kcal/mol)

>  <smiles>  (81) 
Cc1cc[nH]c(=NC(=O)NS(=O)(=O)c2cc(Cl)sc2Cl)c1O

>  <score_type>  (81) 
oracle

>  <origin>  (81) 
adg

>  <m_score__min__energy>  (81) 
-13.390000000000001

>  <m_primary>  (81) 
energy

$$$$
81:0
     RDKit          3D

 43 45  0  0  0  0  0  0  0  0999 V2000
   51.6539   22.2945   45.8792 H   0  0  0  0  0  0  0  0  0  0  0  0
   52.6280   22.7680   45.6870 C   0  0  0  0  0  0  0  0  0  0  0  0
   53.7850   22.0550   45.6230 N   0  0  0  0  0  0  0  0  0  0  0  0
   54.8470   22.8510   45.3790 C   0  0  0  0  0  0  0  0  0  0  0  0
   56.0530   22.3830   45.2740 N   0  0  0  0  0  0  0  0  0  0  0  0
   57.4620   23.1570   45.9290 S   0  0  0  0  0  0  0  0  0  0  0  0
   58.6800   22.3530   45.5690 O   0  0  0  0  0  0  0  0  0  0  0  0
   57.3420   23.2140   47.4260 O   0  0  0  0  0  0  0  0  0  0  0  0
   57.5870   24.7990   45.3050 C   0  0  0  0  0  0  0  0  0  0  0  0
   57.5620   25.8830   46.1920 C   0  0  0  0  0  0  0  0  0  0  0  0
   57.4712   25.7041   47.2736 H   0  0  0  0  0  0  0  0  0  0  0  0
   57.6520   27.1900   45.7080 C   0  0  0  0  0  0  0  0  0  0  0  0
   57.6429   28.0350   46.4122 H   0  0  0  0  0  0  0  0  0  0  0  0
   57.7540   27.4330   44.3290 C   0  0  0  0  0  0  0  0  0  0  0  0
   57.8620   28.7870   43.8600 N   0  0  0  0  0  0  0  0  0  0  0  0
   58.7490   29.0710   43.3830 H   0  0  0  0  0  0  0  0  0  0  0  0
   56.8850   29.8080   44.1150 C   0  0  0  0  0  0  0  0  0  0  0  0
   55.9420   29.6070   44.9270 O   0  0  0  0  0  0  0  0  0  0  0  0
   57.0320   31.1590   43.4860 C   0  0  0  0  0  0  0  0  0  0  0  0
   56.0388   31.5400   43.2060 H   0  0  0  0  0  0  0  0  0  0  0  0
   57.6656   31.0725   42.5910 H   0  0  0  0  0  0  0  0  0  0  0  0
   57.6760   32.1130   44.4550 C   0  0  0  0  0  0  0  0  0  0  0  0
   57.7910   33.4740   44.1360 C   0  0  0  0  0  0  0  0  0  0  0  0
   57.4423   33.8385   43.1585 H   0  0  0  0  0  0  0  0  0  0  0  0
   58.3470   34.3700   45.0550 C   0  0  0  0  0  0  0  0  0  0  0  0
   58.4377   35.4344   44.7927 H   0  0  0  0  0  0  0  0  0  0  0  0
   58.7890   33.9230   46.3060 C   0  0  0  0  0  0  0  0  0  0  0  0
   59.3340   34.8610   47.1950 O   0  0  0  0  0  0  0  0  0  0  0  0
   59.9440   34.5300   48.4380 C   0  0  0  0  0  0  0  0  0  0  0  0
   59.3052   34.8766   49.2637 H   0  0  0  0  0  0  0  0  0  0  0  0
   60.0707   33.4394   48.5054 H   0  0  0  0  0  0  0  0  0  0  0  0
   60.9274   35.0182   48.5054 H   0  0  0  0  0  0  0  0  0  0  0  0
   58.6700   32.5570   46.6300 C   0  0  0  0  0  0  0  0  0  0  0  0
   59.0156   32.1939   47.6091 H   0  0  0  0  0  0  0  0  0  0  0  0
   58.1140   31.6610   45.7110 C   0  0  0  0  0  0  0  0  0  0  0  0
   58.0192   30.5969   45.9731 H   0  0  0  0  0  0  0  0  0  0  0  0
   57.8040   26.3420   43.4440 C   0  0  0  0  0  0  0  0  0  0  0  0
   57.9137   26.5187   42.3638 H   0  0  0  0  0  0  0  0  0  0  0  0
   57.7150   25.0330   43.9290 C   0  0  0  0  0  0  0  0  0  0  0  0
   57.7455   24.1852   43.2288 H   0  0  0  0  0  0  0  0  0  0  0  0
   54.3950   24.4700   45.2330 S   0  0  0  0  0  0  0  0  0  0  0  0
   52.7650   24.1390   45.4920 C   0  0  0  0  0  0  0  0  0  0  0  0
   51.9501   24.8778   45.5049 H   0  0  0  0  0  0  0  0  0  0  0  0
  1  2  1  0
  2  3  1  0
  3  4  1  0
  4  5  2  0
  5  6  1  0
  6  7  2  0
  6  8  2  0
  6  9  1  0
  9 10  2  0
 10 11  1  0
 10 12  1  0
 12 13  1  0
 12 14  2  0
 14 15  1  0
 15 16  1  0
 15 17  1  0
 17 18  2  0
 17 19  1  0
 19 20  1  0
 19 21  1  0
 19 22  1  0
 22 23  2  0
 23 24  1  0
 23 25  1  0
 25 26  1  0
 25 27  2  0
 27 28  1  0
 28 29  1  0
 29 30  1  0
 29 31  1  0
 29 32  1  0
 27 33  1  0
 33 34  1  0
 33 35  2  0
 35 36  1  0
 14 37  1  0
 37 38  1  0
 37 39  2  0
 39 40  1  0
  4 41  1  0
 41 42  1  0
 42 43  1  0
 42  2  2  0
 39  9  1  0
 35 22  1  0
M  CHG  1   3  -1
M  END
>  <UniqueID>  (82) 
78

>  <SMILES>  (82) 
COc1ccc(CC(=O)Nc2ccc(S(=O)(=O)/N=c3/[n-]ccs3)cc2)cc1

>  <Energy>  (82) 
79.2702498564317

>  <Genealogy>  (82) 
COc1ccc(CC(=O)Nc2ccc(S(=O)(=O)N=c3[n-]ccs3)cc2)cc1 (protonated)
COc1ccc(CC(=O)Nc2ccc(S(=O)(=O)/N=c3/[n-]ccs3)cc2)cc1 (cis-trans isomerization)
COc1ccc(CC(=O)Nc2ccc(S(=O)(=O)/N=c3/[n-]ccs3)cc2)cc1 (3D coordinates assigned)
COc1ccc(CC(=O)Nc2ccc(S(=O)(=O)/N=c3/[n-]ccs3)cc2)cc1 (optimized conformer: 79.2702498564317 kcal/mol)

>  <smiles>  (82) 
COc1ccc(CC(=O)Nc2ccc(S(=O)(=O)N=c3[nH]ccs3)cc2)cc1

>  <score_type>  (82) 
oracle

>  <origin>  (82) 
adg

>  <m_score__min__energy>  (82) 
-9.5500000000000007

>  <m_primary>  (82) 
energy

$$$$
82:0
     RDKit          3D

 29 30  0  0  0  0  0  0  0  0999 V2000
   55.9040   22.1460   42.9040 O   0  0  0  0  0  0  0  0  0  0  0  0
   56.6630   22.3280   43.8930 C   0  0  0  0  0  0  0  0  0  0  0  0
   56.6730   23.6050   44.6460 C   0  0  0  0  0  0  0  0  0  0  0  0
   57.9260   24.1230   44.9980 C   0  0  0  0  0  0  0  0  0  0  0  0
   58.0430   25.3560   45.6380 C   0  0  0  0  0  0  0  0  0  0  0  0
   59.3130   25.8360   45.9380 O   0  0  0  0  0  0  0  0  0  0  0  0
   56.8940   26.1000   45.9600 C   0  0  0  0  0  0  0  0  0  0  0  0
   57.0110   27.4320   46.6740 C   0  0  0  0  0  0  0  0  0  0  0  0
   57.4460   28.5270   45.7280 C   0  0  0  0  0  0  0  0  0  0  0  0
   58.8120   28.8350   45.5930 C   0  0  0  0  0  0  0  0  0  0  0  0
   59.2300   29.8340   44.7100 C   0  0  0  0  0  0  0  0  0  0  0  0
   58.2920   30.5380   43.9540 C   0  0  0  0  0  0  0  0  0  0  0  0
   56.9310   30.2470   44.0820 C   0  0  0  0  0  0  0  0  0  0  0  0
   56.5050   29.2480   44.9660 C   0  0  0  0  0  0  0  0  0  0  0  0
   55.1450   28.9840   45.0790 O   0  0  0  0  0  0  0  0  0  0  0  0
   55.6250   25.5840   45.6260 C   0  0  0  0  0  0  0  0  0  0  0  0
   54.4870   26.3150   45.9550 O   0  0  0  0  0  0  0  0  0  0  0  0
   55.4990   24.3320   44.9800 C   0  0  0  0  0  0  0  0  0  0  0  0
   54.1500   23.7640   44.7340 C   0  0  0  0  0  0  0  0  0  0  0  0
   53.7690   22.7090   45.3070 O   0  0  0  0  0  0  0  0  0  0  0  0
   57.3368   21.5170   44.2064 H   0  0  0  0  0  0  0  0  0  0  0  0
   58.8336   23.5467   44.7653 H   0  0  0  0  0  0  0  0  0  0  0  0
   56.0326   27.6961   47.1018 H   0  0  0  0  0  0  0  0  0  0  0  0
   57.7692   27.3359   47.4651 H   0  0  0  0  0  0  0  0  0  0  0  0
   59.5568   28.2852   46.1871 H   0  0  0  0  0  0  0  0  0  0  0  0
   60.3007   30.0659   44.6106 H   0  0  0  0  0  0  0  0  0  0  0  0
   58.6237   31.3220   43.2573 H   0  0  0  0  0  0  0  0  0  0  0  0
   56.1926   30.8042   43.4868 H   0  0  0  0  0  0  0  0  0  0  0  0
   53.4692   24.2747   44.0372 H   0  0  0  0  0  0  0  0  0  0  0  0
  1  2  2  0
  2  3  1  0
  3  4  2  0
  4  5  1  0
  5  6  1  0
  5  7  2  0
  7  8  1  0
  8  9  1  0
  9 10  2  0
 10 11  1  0
 11 12  2  0
 12 13  1  0
 13 14  2  0
 14 15  1  0
  7 16  1  0
 16 17  1  0
 16 18  2  0
 18 19  1  0
 19 20  2  0
 18  3  1  0
 14  9  1  0
  2 21  1  0
  4 22  1  0
  8 23  1  0
  8 24  1  0
 10 25  1  0
 11 26  1  0
 12 27  1  0
 13 28  1  0
 19 29  1  0
M  CHG  3   6  -1  15  -1  17  -1
M  END
>  <UniqueID>  (83) 
79

>  <SMILES>  (83) 
O=Cc1cc([O-])c(Cc2ccccc2[O-])c([O-])c1C=O

>  <Energy>  (83) 
40.15646552792351

>  <Genealogy>  (83) 
O=Cc1cc([O-])c(Cc2ccccc2[O-])c([O-])c1C=O (protonated)
O=Cc1cc([O-])c(Cc2ccccc2[O-])c([O-])c1C=O (3D coordinates assigned)
O=Cc1cc([O-])c(Cc2ccccc2[O-])c([O-])c1C=O (optimized conformer: 40.15646552792351 kcal/mol)

>  <smiles>  (83) 
O=Cc1cc(O)c(Cc2ccccc2O)c(O)c1C=O

>  <score_type>  (83) 
oracle

>  <origin>  (83) 
adg

>  <m_score__min__energy>  (83) 
-15.6

>  <m_primary>  (83) 
energy

$$$$
83:0
     RDKit          3D

 40 43  0  0  0  0  0  0  0  0999 V2000
   61.1000   32.4110   50.3370 O   0  0  0  0  0  0  0  0  0  0  0  0
   60.5420   32.8690   49.3040 C   0  0  0  0  0  0  0  0  0  0  0  0
   61.0950   34.2300   48.4710 S   0  0  0  0  0  0  0  0  0  0  0  0
   59.8740   34.1030   47.3230 C   0  0  0  0  0  0  0  0  0  0  0  0
   59.6490   34.9190   46.2170 C   0  0  0  0  0  0  0  0  0  0  0  0
   58.5710   34.6130   45.3750 C   0  0  0  0  0  0  0  0  0  0  0  0
   57.7460   33.5060   45.6500 C   0  0  0  0  0  0  0  0  0  0  0  0
   57.9900   32.6950   46.7720 C   0  0  0  0  0  0  0  0  0  0  0  0
   59.0670   33.0080   47.6150 C   0  0  0  0  0  0  0  0  0  0  0  0
   59.4360   32.3170   48.7380 N   0  0  0  0  0  0  0  0  0  0  0  0
   58.7820   31.1020   49.2380 C   0  0  0  0  0  0  0  0  0  0  0  0
   58.1400   31.3750   50.5590 C   0  0  0  0  0  0  0  0  0  0  0  0
   58.2330   32.5490   51.2160 N   0  0  0  0  0  0  0  0  0  0  0  0
   57.5620   32.3740   52.3410 N   0  0  0  0  0  0  0  0  0  0  0  0
   57.0910   31.1170   52.3360 C   0  0  0  0  0  0  0  0  0  0  0  0
   56.1060   30.3980   53.6480 S   0  0  0  0  0  0  0  0  0  0  0  0
   55.0060   29.4760   52.5180 C   0  0  0  0  0  0  0  0  0  0  0  0
   53.6670   30.1500   52.4020 C   0  0  0  0  0  0  0  0  0  0  0  0
   52.9280   30.4640   53.5520 C   0  0  0  0  0  0  0  0  0  0  0  0
   51.6710   31.0610   53.4390 C   0  0  0  0  0  0  0  0  0  0  0  0
   51.1400   31.3480   52.1790 C   0  0  0  0  0  0  0  0  0  0  0  0
   51.8630   31.0370   51.0140 C   0  0  0  0  0  0  0  0  0  0  0  0
   51.3110   31.3300   49.7170 N   0  0  0  0  0  0  0  0  0  0  0  0
   51.1060   30.4160   48.8910 O   0  0  0  0  0  0  0  0  0  0  0  0
   50.9990   32.6240   49.3640 O   0  0  0  0  0  0  0  0  0  0  0  0
   53.1290   30.4350   51.1360 C   0  0  0  0  0  0  0  0  0  0  0  0
   57.4470   30.4910   51.2420 O   0  0  0  0  0  0  0  0  0  0  0  0
   60.3002   35.7810   46.0097 H   0  0  0  0  0  0  0  0  0  0  0  0
   58.3686   35.2410   44.4949 H   0  0  0  0  0  0  0  0  0  0  0  0
   56.9038   33.2738   44.9816 H   0  0  0  0  0  0  0  0  0  0  0  0
   57.3467   31.8287   46.9857 H   0  0  0  0  0  0  0  0  0  0  0  0
   58.0142   30.7794   48.5194 H   0  0  0  0  0  0  0  0  0  0  0  0
   59.5354   30.3097   49.3592 H   0  0  0  0  0  0  0  0  0  0  0  0
   57.4320   33.0980   53.0820 H   0  0  0  0  0  0  0  0  0  0  0  0
   55.4718   29.4271   51.5227 H   0  0  0  0  0  0  0  0  0  0  0  0
   54.8557   28.4643   52.9227 H   0  0  0  0  0  0  0  0  0  0  0  0
   53.3403   30.2391   54.5467 H   0  0  0  0  0  0  0  0  0  0  0  0
   51.0970   31.3061   54.3448 H   0  0  0  0  0  0  0  0  0  0  0  0
   50.1499   31.8203   52.0979 H   0  0  0  0  0  0  0  0  0  0  0  0
   53.7029   30.1852   50.2314 H   0  0  0  0  0  0  0  0  0  0  0  0
  1  2  2  0
  2  3  1  0
  3  4  1  0
  4  5  2  0
  5  6  1  0
  6  7  2  0
  7  8  1  0
  8  9  2  0
  9 10  1  0
 10 11  1  0
 11 12  1  0
 12 13  2  0
 13 14  1  0
 14 15  2  0
 15 16  1  0
 16 17  1  0
 17 18  1  0
 18 19  2  0
 19 20  1  0
 20 21  2  0
 21 22  1  0
 22 23  1  0
 23 24  2  0
 23 25  1  0
 22 26  2  0
 15 27  1  0
 10  2  1  0
 27 12  1  0
  9  4  1  0
 26 18  1  0
  5 28  1  0
  6 29  1  0
  7 30  1  0
  8 31  1  0
 11 32  1  0
 11 33  1  0
 14 34  1  0
 17 35  1  0
 17 36  1  0
 19 37  1  0
 20 38  1  0
 21 39  1  0
 26 40  1  0
M  CHG  3  14   1  23   1  25  -1
M  END
>  <UniqueID>  (84) 
80

>  <SMILES>  (84) 
O=c1sc2ccccc2n1Cc1n[nH+]c(SCc2cccc([N+](=O)[O-])c2)o1

>  <Energy>  (84) 
111.50817714974094

>  <Genealogy>  (84) 
O=c1sc2ccccc2n1Cc1n[nH+]c(SCc2cccc([N+](=O)[O-])c2)o1 (protonated)
O=c1sc2ccccc2n1Cc1n[nH+]c(SCc2cccc([N+](=O)[O-])c2)o1 (3D coordinates assigned)
O=c1sc2ccccc2n1Cc1n[nH+]c(SCc2cccc([N+](=O)[O-])c2)o1 (optimized conformer: 111.50817714974094 kcal/mol)

>  <smiles>  (84) 
O=c1sc2ccccc2n1Cc1nnc(SCc2cccc([N+](=O)[O-])c2)o1

>  <score_type>  (84) 
oracle

>  <origin>  (84) 
adg

>  <m_score__min__energy>  (84) 
-7.9699999999999998

>  <m_primary>  (84) 
energy

$$$$
84:0
     RDKit          3D

 37 37  0  0  0  0  0  0  0  0999 V2000
   59.2500   28.5890   48.1340 C   0  0  0  0  0  0  0  0  0  0  0  0
   59.5760   29.8110   47.2900 C   0  0  0  0  0  0  0  0  0  0  0  0
   58.6380   30.8440   47.5740 O   0  0  0  0  0  0  0  0  0  0  0  0
   58.3030   31.8880   46.6970 C   0  0  0  0  0  0  0  0  0  0  0  0
   58.5600   33.2370   47.0170 C   0  0  0  0  0  0  0  0  0  0  0  0
   58.2770   34.2490   46.0960 C   0  0  0  0  0  0  0  0  0  0  0  0
   57.7460   33.9280   44.8460 C   0  0  0  0  0  0  0  0  0  0  0  0
   57.4780   32.5970   44.5200 C   0  0  0  0  0  0  0  0  0  0  0  0
   57.7240   31.5760   45.4470 C   0  0  0  0  0  0  0  0  0  0  0  0
   57.4390   30.2230   45.0660 N   0  0  0  0  0  0  0  0  0  0  0  0
   56.1260   29.6660   44.9280 C   0  0  0  0  0  0  0  0  0  0  0  0
   55.1770   30.3720   44.4930 O   0  0  0  0  0  0  0  0  0  0  0  0
   55.8860   28.2960   45.2480 N   0  0  0  0  0  0  0  0  0  0  0  0
   56.8530   27.4710   45.9590 C   0  0  0  0  0  0  0  0  0  0  0  0
   56.6690   25.9850   45.5960 C   0  0  0  0  0  0  0  0  0  0  0  0
   55.6800   25.2550   46.4240 N   0  0  0  0  0  0  0  0  0  0  0  0
   54.7020   24.4990   45.6240 C   0  0  0  0  0  0  0  0  0  0  0  0
   56.2930   24.4080   47.4580 C   0  0  0  0  0  0  0  0  0  0  0  0
   59.3198   28.8505   49.2002 H   0  0  0  0  0  0  0  0  0  0  0  0
   58.2294   28.2477   47.9062 H   0  0  0  0  0  0  0  0  0  0  0  0
   59.9650   27.7847   47.9062 H   0  0  0  0  0  0  0  0  0  0  0  0
   60.5913   30.1613   47.5277 H   0  0  0  0  0  0  0  0  0  0  0  0
   59.5212   29.5471   46.2235 H   0  0  0  0  0  0  0  0  0  0  0  0
   58.9860   33.4943   47.9980 H   0  0  0  0  0  0  0  0  0  0  0  0
   58.4729   35.2996   46.3565 H   0  0  0  0  0  0  0  0  0  0  0  0
   57.5383   34.7247   44.1165 H   0  0  0  0  0  0  0  0  0  0  0  0
   57.0710   32.3486   43.5287 H   0  0  0  0  0  0  0  0  0  0  0  0
   57.8699   27.7872   45.6834 H   0  0  0  0  0  0  0  0  0  0  0  0
   56.6964   27.5938   47.0408 H   0  0  0  0  0  0  0  0  0  0  0  0
   56.3438   25.9279   44.5467 H   0  0  0  0  0  0  0  0  0  0  0  0
   57.6398   25.5015   45.7797 H   0  0  0  0  0  0  0  0  0  0  0  0
   54.0126   23.9661   46.2954 H   0  0  0  0  0  0  0  0  0  0  0  0
   54.1321   25.1936   44.9894 H   0  0  0  0  0  0  0  0  0  0  0  0
   55.2307   23.7725   44.9894 H   0  0  0  0  0  0  0  0  0  0  0  0
   56.0183   24.7876   48.4532 H   0  0  0  0  0  0  0  0  0  0  0  0
   55.9320   23.3748   47.3471 H   0  0  0  0  0  0  0  0  0  0  0  0
   57.3872   24.4280   47.3471 H   0  0  0  0  0  0  0  0  0  0  0  0
  1  2  1  0
  2  3  1  0
  3  4  1  0
  4  5  2  0
  5  6  1  0
  6  7  2  0
  7  8  1  0
  8  9  2  0
  9 10  1  0
 10 11  1  0
 11 12  2  0
 11 13  1  0
 13 14  1  0
 14 15  1  0
 15 16  1  0
 16 17  1  0
 16 18  1  0
  9  4  1  0
  1 19  1  0
  1 20  1  0
  1 21  1  0
  2 22  1  0
  2 23  1  0
  5 24  1  0
  6 25  1  0
  7 26  1  0
  8 27  1  0
 14 28  1  0
 14 29  1  0
 15 30  1  0
 15 31  1  0
 17 32  1  0
 17 33  1  0
 17 34  1  0
 18 35  1  0
 18 36  1  0
 18 37  1  0
M  CHG  2  10  -1  13  -1
M  END
>  <UniqueID>  (85) 
81

>  <SMILES>  (85) 
CCOc1ccccc1[N-]C(=O)[N-]CCN(C)C

>  <Energy>  (85) 
35.98955914135572

>  <Genealogy>  (85) 
CCOc1ccccc1[N-]C(=O)[N-]CCN(C)C (protonated)
CCOc1ccccc1[N-]C(=O)[N-]CCN(C)C (3D coordinates assigned)
CCOc1ccccc1[N-]C(=O)[N-]CCN(C)C (optimized conformer: 35.98955914135572 kcal/mol)

>  <smiles>  (85) 
CCOc1ccccc1NC(=O)NCCN(C)C

>  <score_type>  (85) 
oracle

>  <origin>  (85) 
adg

>  <m_score__min__energy>  (85) 
-10.07

>  <m_primary>  (85) 
energy

$$$$
85:0
     RDKit          3D

 36 39  0  0  0  0  0  0  0  0999 V2000
   57.4470   31.6580   42.8150 O   0  0  0  0  0  0  0  0  0  0  0  0
   57.6980   31.4060   44.0250 C   0  0  0  0  0  0  0  0  0  0  0  0
   58.2390   32.4820   44.8810 C   0  0  0  0  0  0  0  0  0  0  0  0
   57.9970   33.8450   44.7200 C   0  0  0  0  0  0  0  0  0  0  0  0
   58.6440   34.6530   45.6010 N   0  0  0  0  0  0  0  0  0  0  0  0
   59.4010   33.9470   46.4680 C   0  0  0  0  0  0  0  0  0  0  0  0
   60.1380   34.5260   47.3710 N   0  0  0  0  0  0  0  0  0  0  0  0
   61.4690   34.1500   47.7570 C   0  0  0  0  0  0  0  0  0  0  0  0
   61.8210   34.2010   49.1120 C   0  0  0  0  0  0  0  0  0  0  0  0
   63.0960   33.8060   49.5280 C   0  0  0  0  0  0  0  0  0  0  0  0
   64.0210   33.3340   48.5920 C   0  0  0  0  0  0  0  0  0  0  0  0
   63.6680   33.2460   47.2430 C   0  0  0  0  0  0  0  0  0  0  0  0
   62.3930   33.6410   46.8260 C   0  0  0  0  0  0  0  0  0  0  0  0
   59.3230   32.2900   46.1580 S   0  0  0  0  0  0  0  0  0  0  0  0
   57.4540   30.0400   44.5440 C   0  0  0  0  0  0  0  0  0  0  0  0
   58.5280   29.1990   44.8680 C   0  0  0  0  0  0  0  0  0  0  0  0
   58.2810   27.9180   45.3710 C   0  0  0  0  0  0  0  0  0  0  0  0
   59.3280   27.0440   45.6980 C   0  0  0  0  0  0  0  0  0  0  0  0
   59.0410   25.7700   46.1990 C   0  0  0  0  0  0  0  0  0  0  0  0
   57.7130   25.3670   46.3750 C   0  0  0  0  0  0  0  0  0  0  0  0
   56.6650   26.2360   46.0530 C   0  0  0  0  0  0  0  0  0  0  0  0
   56.9420   27.5120   45.5510 C   0  0  0  0  0  0  0  0  0  0  0  0
   55.9460   28.3390   45.2470 O   0  0  0  0  0  0  0  0  0  0  0  0
   56.1460   29.5610   44.7640 C   0  0  0  0  0  0  0  0  0  0  0  0
   55.1470   30.2810   44.4940 O   0  0  0  0  0  0  0  0  0  0  0  0
   57.3313   34.2381   43.9375 H   0  0  0  0  0  0  0  0  0  0  0  0
   61.0894   34.5542   49.8536 H   0  0  0  0  0  0  0  0  0  0  0  0
   63.3712   33.8666   50.5913 H   0  0  0  0  0  0  0  0  0  0  0  0
   65.0272   33.0317   48.9178 H   0  0  0  0  0  0  0  0  0  0  0  0
   64.3934   32.8658   46.5086 H   0  0  0  0  0  0  0  0  0  0  0  0
   62.1114   33.5534   45.7663 H   0  0  0  0  0  0  0  0  0  0  0  0
   59.5622   29.5461   44.7269 H   0  0  0  0  0  0  0  0  0  0  0  0
   60.3727   27.3598   45.5608 H   0  0  0  0  0  0  0  0  0  0  0  0
   59.8614   25.0834   46.4552 H   0  0  0  0  0  0  0  0  0  0  0  0
   57.4921   24.3636   46.7678 H   0  0  0  0  0  0  0  0  0  0  0  0
   55.6223   25.9156   46.1947 H   0  0  0  0  0  0  0  0  0  0  0  0
  1  2  2  0
  2  3  1  0
  3  4  2  0
  4  5  1  0
  5  6  1  0
  6  7  2  3
  7  8  1  0
  8  9  2  0
  9 10  1  0
 10 11  2  0
 11 12  1  0
 12 13  2  0
  6 14  1  0
  2 15  1  0
 15 16  2  0
 16 17  1  0
 17 18  2  0
 18 19  1  0
 19 20  2  0
 20 21  1  0
 21 22  2  0
 22 23  1  0
 23 24  1  0
 24 25  2  0
 14  3  1  0
 24 15  1  0
 13  8  1  0
 22 17  1  0
  4 26  1  0
  9 27  1  0
 10 28  1  0
 11 29  1  0
 12 30  1  0
 13 31  1  0
 16 32  1  0
 18 33  1  0
 19 34  1  0
 20 35  1  0
 21 36  1  0
M  CHG  1   5  -1
M  END
>  <UniqueID>  (86) 
82

>  <SMILES>  (86) 
O=C(c1c[n-]c(=Nc2ccccc2)s1)c1cc2ccccc2oc1=O

>  <Energy>  (86) 
87.9692183417212

>  <Genealogy>  (86) 
O=C(c1c[n-]c(=Nc2ccccc2)s1)c1cc2ccccc2oc1=O (protonated)
O=C(c1c[n-]c(=Nc2ccccc2)s1)c1cc2ccccc2oc1=O (3D coordinates assigned)
O=C(c1c[n-]c(=Nc2ccccc2)s1)c1cc2ccccc2oc1=O (optimized conformer: 87.9692183417212 kcal/mol)

>  <smiles>  (86) 
O=C(c1c[nH]c(=Nc2ccccc2)s1)c1cc2ccccc2oc1=O

>  <score_type>  (86) 
oracle

>  <origin>  (86) 
adg

>  <m_score__min__energy>  (86) 
-10.1

>  <m_primary>  (86) 
energy

$$$$
86:0
     RDKit          3D

 66 69  0  0  0  0  0  0  0  0999 V2000
   57.3350   34.1460   45.1310 C   0  0  0  0  0  0  0  0  0  0  0  0
   58.8570   34.0120   45.1770 C   0  0  0  0  0  0  0  0  0  0  0  0
   59.5300   35.0400   46.1050 C   0  0  0  0  0  0  0  0  0  0  0  0
   60.5420   34.4210   47.0940 C   0  0  0  0  0  0  0  0  0  0  0  0
   60.1040   34.5330   48.5620 C   0  0  0  0  0  0  0  0  0  0  0  0
   59.8380   33.2110   49.1350 N   0  0  0  0  0  0  0  0  0  0  0  0
   58.6900   32.4250   48.7910 C   0  0  0  0  0  0  0  0  0  0  0  0
   57.8900   32.8240   47.9010 O   0  0  0  0  0  0  0  0  0  0  0  0
   58.5170   31.1750   49.3960 O   0  0  0  0  0  0  0  0  0  0  0  0
   59.0750   29.9740   48.9310 C   0  0  0  0  0  0  0  0  0  0  0  0
   58.5220   29.2960   47.8190 C   0  0  0  0  0  0  0  0  0  0  0  0
   59.1140   28.1010   47.4020 C   0  0  0  0  0  0  0  0  0  0  0  0
   60.2000   27.5850   48.0580 C   0  0  0  0  0  0  0  0  0  0  0  0
   60.5620   26.4190   47.4220 C   0  0  0  0  0  0  0  0  0  0  0  0
   59.6560   26.2750   46.3790 C   0  0  0  0  0  0  0  0  0  0  0  0
   58.7620   27.2940   46.3750 N   0  0  0  0  0  0  0  0  0  0  0  0
   57.6540   27.4370   45.4160 C   0  0  2  0  0  0  0  0  0  0  0  0
   57.8270   26.4390   44.2630 C   0  0  0  0  0  0  0  0  0  0  0  0
   57.5280   28.8670   44.9350 C   0  0  0  0  0  0  0  0  0  0  0  0
   56.3520   29.5320   44.8700 N   0  0  0  0  0  0  0  0  0  0  0  0
   56.6830   30.7560   44.4120 C   0  0  0  0  0  0  0  0  0  0  0  0
   58.0420   30.8210   44.2060 C   0  0  0  0  0  0  0  0  0  0  0  0
   58.5720   29.6330   44.5400 N   0  0  0  0  0  0  0  0  0  0  0  0
   59.9910   29.2840   44.5150 C   0  0  0  0  0  0  0  0  0  0  0  0
   60.7540   28.2010   49.1720 C   0  0  0  0  0  0  0  0  0  0  0  0
   60.1900   29.4160   49.6120 C   0  0  0  0  0  0  0  0  0  0  0  0
   60.8970   30.2380   51.0060 S   0  0  0  0  0  0  0  0  0  0  0  0
   60.9770   29.2680   52.1480 O   0  0  0  0  0  0  0  0  0  0  0  0
   60.0550   31.4130   51.4130 O   0  0  0  0  0  0  0  0  0  0  0  0
   62.4960   30.7980   50.6330 N   0  0  0  0  0  0  0  0  0  0  0  0
   62.8490   31.5820   49.4850 C   0  0  0  0  0  0  0  0  0  0  0  0
   62.3410   31.2980   48.2030 C   0  0  0  0  0  0  0  0  0  0  0  0
   62.7400   32.0670   47.1050 C   0  0  0  0  0  0  0  0  0  0  0  0
   63.6350   33.1260   47.2760 C   0  0  0  0  0  0  0  0  0  0  0  0
   64.1300   33.4220   48.5490 C   0  0  0  0  0  0  0  0  0  0  0  0
   63.7410   32.6500   49.6490 C   0  0  0  0  0  0  0  0  0  0  0  0
   56.9388   34.1809   46.1566 H   0  0  0  0  0  0  0  0  0  0  0  0
   57.0642   35.0715   44.6017 H   0  0  0  0  0  0  0  0  0  0  0  0
   56.9067   33.2821   44.6017 H   0  0  0  0  0  0  0  0  0  0  0  0
   59.1082   33.0022   45.5338 H   0  0  0  0  0  0  0  0  0  0  0  0
   59.2317   34.1966   44.1594 H   0  0  0  0  0  0  0  0  0  0  0  0
   60.0602   35.7749   45.4814 H   0  0  0  0  0  0  0  0  0  0  0  0
   58.7317   35.4965   46.7085 H   0  0  0  0  0  0  0  0  0  0  0  0
   60.6651   33.3562   46.8467 H   0  0  0  0  0  0  0  0  0  0  0  0
   61.4825   34.9821   46.9912 H   0  0  0  0  0  0  0  0  0  0  0  0
   60.9033   35.0206   49.1393 H   0  0  0  0  0  0  0  0  0  0  0  0
   59.1785   35.1259   48.6064 H   0  0  0  0  0  0  0  0  0  0  0  0
   60.5090   32.8290   49.8400 H   0  0  0  0  0  0  0  0  0  0  0  0
   57.6445   29.7012   47.2938 H   0  0  0  0  0  0  0  0  0  0  0  0
   61.3913   25.7454   47.6838 H   0  0  0  0  0  0  0  0  0  0  0  0
   59.6630   25.4469   45.6549 H   0  0  0  0  0  0  0  0  0  0  0  0
   56.7068   27.1983   45.9218 H   0  0  0  0  0  0  0  0  0  0  0  0
   58.0014   25.4329   44.6720 H   0  0  0  0  0  0  0  0  0  0  0  0
   56.9168   26.4310   43.6453 H   0  0  0  0  0  0  0  0  0  0  0  0
   58.6867   26.7378   43.6453 H   0  0  0  0  0  0  0  0  0  0  0  0
   55.9745   31.5777   44.2306 H   0  0  0  0  0  0  0  0  0  0  0  0
   58.5975   31.6940   43.8328 H   0  0  0  0  0  0  0  0  0  0  0  0
   60.3642   29.1922   45.5457 H   0  0  0  0  0  0  0  0  0  0  0  0
   60.1239   28.3264   43.9903 H   0  0  0  0  0  0  0  0  0  0  0  0
   60.5529   30.0707   43.9903 H   0  0  0  0  0  0  0  0  0  0  0  0
   61.6103   27.7530   49.6975 H   0  0  0  0  0  0  0  0  0  0  0  0
   61.6296   30.4705   48.0648 H   0  0  0  0  0  0  0  0  0  0  0  0
   62.3478   31.8372   46.1033 H   0  0  0  0  0  0  0  0  0  0  0  0
   63.9498   33.7262   46.4096 H   0  0  0  0  0  0  0  0  0  0  0  0
   64.8260   34.2627   48.6862 H   0  0  0  0  0  0  0  0  0  0  0  0
   64.1377   32.8828   50.6482 H   0  0  0  0  0  0  0  0  0  0  0  0
  1  2  1  0
  2  3  1  0
  3  4  1  0
  4  5  1  0
  5  6  1  0
  6  7  1  0
  7  8  2  0
  7  9  1  0
  9 10  1  0
 10 11  2  0
 11 12  1  0
 12 13  2  0
 13 14  1  0
 14 15  2  0
 15 16  1  0
 16 17  1  0
 17 18  1  0
 17 19  1  0
 19 20  2  0
 20 21  1  0
 21 22  2  0
 22 23  1  0
 23 24  1  0
 13 25  1  0
 25 26  2  0
 26 27  1  0
 27 28  2  0
 27 29  2  0
 27 30  1  0
 30 31  1  0
 31 32  2  0
 32 33  1  0
 33 34  2  0
 34 35  1  0
 35 36  2  0
 26 10  1  0
 36 31  1  0
 16 12  1  0
 23 19  1  0
  1 37  1  0
  1 38  1  0
  1 39  1  0
  2 40  1  0
  2 41  1  0
  3 42  1  0
  3 43  1  0
  4 44  1  0
  4 45  1  0
  5 46  1  0
  5 47  1  0
  6 48  1  0
 11 49  1  0
 14 50  1  0
 15 51  1  0
 17 52  1  1
 18 53  1  0
 18 54  1  0
 18 55  1  0
 21 56  1  0
 22 57  1  0
 24 58  1  0
 24 59  1  0
 24 60  1  0
 25 61  1  0
 32 62  1  0
 33 63  1  0
 34 64  1  0
 35 65  1  0
 36 66  1  0
M  CHG  1  30  -1
M  END
>  <UniqueID>  (87) 
83

>  <SMILES>  (87) 
CCCCCNC(=O)Oc1cc2c(ccn2[C@H](C)c2nccn2C)cc1S(=O)(=O)[N-]c1ccccc1

>  <Energy>  (87) 
130.10376329396186

>  <Genealogy>  (87) 
CCCCCNC(=O)Oc1cc2c(ccn2C(C)c2nccn2C)cc1S(=O)(=O)[N-]c1ccccc1 (protonated)
CCCCCNC(=O)Oc1cc2c(ccn2[C@H](C)c2nccn2C)cc1S(=O)(=O)[N-]c1ccccc1 (chirality)
CCCCCNC(=O)Oc1cc2c(ccn2[C@H](C)c2nccn2C)cc1S(=O)(=O)[N-]c1ccccc1 (3D coordinates assigned)
CCCCCNC(=O)Oc1cc2c(ccn2[C@H](C)c2nccn2C)cc1S(=O)(=O)[N-]c1ccccc1 (optimized conformer: 130.10376329396186 kcal/mol)

>  <smiles>  (87) 
CCCCCNC(=O)Oc1cc2c(ccn2C(C)c2nccn2C)cc1S(=O)(=O)Nc1ccccc1

>  <score_type>  (87) 
oracle

>  <origin>  (87) 
adg

>  <m_score__min__energy>  (87) 
-11.859999999999999

>  <m_primary>  (87) 
energy

$$$$
87:0
     RDKit          3D

 39 41  0  0  0  0  0  0  0  0999 V2000
   56.4497   28.3979   46.3105 H   0  0  0  0  0  0  0  0  0  0  0  0
   57.4890   28.0670   46.1680 C   0  0  0  0  0  0  0  0  0  0  0  0
   57.9180   26.7950   46.7890 C   0  0  0  0  0  0  0  0  0  0  0  0
   59.0000   26.7860   47.4360 O   0  0  0  0  0  0  0  0  0  0  0  0
   57.1480   25.5350   46.6570 C   0  0  0  0  0  0  0  0  0  0  0  0
   57.7580   24.2990   46.9440 C   0  0  0  0  0  0  0  0  0  0  0  0
   58.8134   24.2701   47.2525 H   0  0  0  0  0  0  0  0  0  0  0  0
   57.0330   23.1080   46.8400 C   0  0  0  0  0  0  0  0  0  0  0  0
   57.6480   21.8940   47.1200 O   0  0  0  0  0  0  0  0  0  0  0  0
   55.6890   23.1390   46.4610 C   0  0  0  0  0  0  0  0  0  0  0  0
   55.1193   22.2016   46.3782 H   0  0  0  0  0  0  0  0  0  0  0  0
   55.0680   24.3600   46.1870 C   0  0  0  0  0  0  0  0  0  0  0  0
   54.0083   24.3814   45.8929 H   0  0  0  0  0  0  0  0  0  0  0  0
   55.7880   25.5560   46.2850 C   0  0  0  0  0  0  0  0  0  0  0  0
   55.1480   26.7570   45.9970 O   0  0  0  0  0  0  0  0  0  0  0  0
   58.3120   28.8340   45.4390 C   0  0  0  0  0  0  0  0  0  0  0  0
   58.9314   28.3509   44.6690 H   0  0  0  0  0  0  0  0  0  0  0  0
   58.4290   30.3020   45.6190 C   0  0  0  0  0  0  0  0  0  0  0  0
   59.5440   30.8720   46.2660 C   0  0  0  0  0  0  0  0  0  0  0  0
   60.3486   30.2195   46.6360 H   0  0  0  0  0  0  0  0  0  0  0  0
   59.6420   32.2640   46.4450 C   0  0  0  0  0  0  0  0  0  0  0  0
   60.8100   32.8790   47.1190 C   0  0  0  0  0  0  0  0  0  0  0  0
   62.0530   32.6830   46.7380 O   0  0  0  0  0  0  0  0  0  0  0  0
   62.8550   33.3580   47.5290 C   0  0  0  0  0  0  0  0  0  0  0  0
   63.9517   33.3834   47.4476 H   0  0  0  0  0  0  0  0  0  0  0  0
   62.1130   34.0300   48.4770 C   0  0  0  0  0  0  0  0  0  0  0  0
   62.4959   34.6785   49.2788 H   0  0  0  0  0  0  0  0  0  0  0  0
   60.7950   33.7250   48.2170 C   0  0  0  0  0  0  0  0  0  0  0  0
   59.9116   34.0801   48.7679 H   0  0  0  0  0  0  0  0  0  0  0  0
   58.6030   33.0820   45.9820 C   0  0  0  0  0  0  0  0  0  0  0  0
   58.6680   34.1721   46.1143 H   0  0  0  0  0  0  0  0  0  0  0  0
   57.4870   32.5280   45.3550 C   0  0  0  0  0  0  0  0  0  0  0  0
   56.6778   33.1846   45.0028 H   0  0  0  0  0  0  0  0  0  0  0  0
   57.3870   31.1370   45.1690 C   0  0  0  0  0  0  0  0  0  0  0  0
   56.2750   30.5580   44.5340 O   0  0  0  0  0  0  0  0  0  0  0  0
   56.2690   30.0650   43.1980 C   0  0  0  0  0  0  0  0  0  0  0  0
   56.2556   28.9652   43.2131 H   0  0  0  0  0  0  0  0  0  0  0  0
   55.3753   30.4354   42.6745 H   0  0  0  0  0  0  0  0  0  0  0  0
   57.1715   30.4136   42.6745 H   0  0  0  0  0  0  0  0  0  0  0  0
  1  2  1  0
  2  3  1  0
  3  4  2  0
  3  5  1  0
  5  6  2  0
  6  7  1  0
  6  8  1  0
  8  9  1  0
  8 10  2  0
 10 11  1  0
 10 12  1  0
 12 13  1  0
 12 14  2  0
 14 15  1  0
  2 16  2  0
 16 17  1  0
 16 18  1  0
 18 19  2  0
 19 20  1  0
 19 21  1  0
 21 22  1  0
 22 23  1  0
 23 24  1  0
 24 25  1  0
 24 26  2  0
 26 27  1  0
 26 28  1  0
 28 29  1  0
 21 30  2  0
 30 31  1  0
 30 32  1  0
 32 33  1  0
 32 34  2  0
 34 35  1  0
 35 36  1  0
 36 37  1  0
 36 38  1  0
 36 39  1  0
 14  5  1  0
 34 18  1  0
 28 22  2  0
M  CHG  2   9  -1  15  -1
M  END
>  <UniqueID>  (88) 
84

>  <SMILES>  (88) 
COc1ccc(-c2ccco2)cc1/C=C/C(=O)c1cc([O-])ccc1[O-]

>  <Energy>  (88) 
77.32159637401064

>  <Genealogy>  (88) 
COc1ccc(-c2ccco2)cc1C=CC(=O)c1cc([O-])ccc1[O-] (protonated)
COc1ccc(-c2ccco2)cc1/C=C/C(=O)c1cc([O-])ccc1[O-] (cis-trans isomerization)
COc1ccc(-c2ccco2)cc1/C=C/C(=O)c1cc([O-])ccc1[O-] (3D coordinates assigned)
COc1ccc(-c2ccco2)cc1/C=C/C(=O)c1cc([O-])ccc1[O-] (optimized conformer: 77.32159637401064 kcal/mol)

>  <smiles>  (88) 
COc1ccc(-c2ccco2)cc1C=CC(=O)c1cc(O)ccc1O

>  <score_type>  (88) 
oracle

>  <origin>  (88) 
adg

>  <m_score__min__energy>  (88) 
-13.6

>  <m_primary>  (88) 
energy

$$$$
88:0
     RDKit          3D

 67 70  0  0  0  0  0  0  0  0999 V2000
   57.3970   31.3070   42.8220 N   0  0  0  0  0  0  0  0  0  0  0  0
   58.1310   31.0260   44.0200 C   0  0  0  0  0  0  0  0  0  0  0  0
   58.7130   29.8700   44.1570 N   0  0  0  0  0  0  0  0  0  0  0  0
   58.2150   32.0540   45.0880 C   0  0  0  0  0  0  0  0  0  0  0  0
   57.5220   33.2720   44.9750 C   0  0  0  0  0  0  0  0  0  0  0  0
   57.6480   34.2510   45.9640 C   0  0  0  0  0  0  0  0  0  0  0  0
   58.4660   34.0270   47.0730 C   0  0  0  0  0  0  0  0  0  0  0  0
   59.1490   32.8090   47.2140 C   0  0  0  0  0  0  0  0  0  0  0  0
   60.0810   32.5900   48.3810 C   0  0  0  0  0  0  0  0  0  0  0  0
   59.5620   33.3160   49.6380 C   0  0  1  0  0  0  0  0  0  0  0  0
   58.3270   32.6960   50.1510 N   0  0  0  0  0  0  0  0  0  0  0  0
   58.4990   31.1950   51.0280 S   0  0  0  0  0  0  0  0  0  0  0  0
   57.1320   30.7260   51.4360 O   0  0  0  0  0  0  0  0  0  0  0  0
   59.2990   31.4360   52.2800 O   0  0  0  0  0  0  0  0  0  0  0  0
   59.2400   29.9230   50.0600 C   0  0  0  0  0  0  0  0  0  0  0  0
   60.1840   29.0540   50.6280 C   0  0  0  0  0  0  0  0  0  0  0  0
   60.7940   28.0710   49.8450 C   0  0  0  0  0  0  0  0  0  0  0  0
   60.4680   27.9500   48.4920 C   0  0  0  0  0  0  0  0  0  0  0  0
   59.5140   28.8060   47.9190 C   0  0  0  0  0  0  0  0  0  0  0  0
   59.1640   28.6950   46.5380 N   0  0  0  0  0  0  0  0  0  0  0  0
   59.4550   27.2580   45.6160 S   0  0  0  0  0  0  0  0  0  0  0  0
   60.7090   26.5940   46.1150 O   0  0  0  0  0  0  0  0  0  0  0  0
   59.6370   27.5940   44.1620 O   0  0  0  0  0  0  0  0  0  0  0  0
   58.0950   26.1610   45.8380 C   0  0  0  0  0  0  0  0  0  0  0  0
   58.2970   24.7850   46.0450 C   0  0  0  0  0  0  0  0  0  0  0  0
   57.2020   23.9380   46.2440 C   0  0  0  0  0  0  0  0  0  0  0  0
   55.9040   24.4570   46.2310 C   0  0  0  0  0  0  0  0  0  0  0  0
   55.6970   25.8220   46.0020 C   0  0  0  0  0  0  0  0  0  0  0  0
   54.4060   26.3330   45.9700 O   0  0  0  0  0  0  0  0  0  0  0  0
   56.7910   26.6730   45.8080 C   0  0  0  0  0  0  0  0  0  0  0  0
   58.8810   29.7710   48.7130 C   0  0  0  0  0  0  0  0  0  0  0  0
   60.6420   33.5080   50.6910 C   0  0  0  0  0  0  0  0  0  0  0  0
   60.3770   34.1290   51.7530 O   0  0  0  0  0  0  0  0  0  0  0  0
   61.9610   32.9730   50.5110 N   0  0  0  0  0  0  0  0  0  0  0  0
   63.1260   33.8520   50.6680 C   0  0  0  0  0  0  0  0  0  0  0  0
   64.3210   33.0520   51.1990 C   0  0  0  0  0  0  0  0  0  0  0  0
   64.5290   31.8820   50.4270 O   0  0  0  0  0  0  0  0  0  0  0  0
   63.4260   31.0100   50.5790 C   0  0  0  0  0  0  0  0  0  0  0  0
   62.1630   31.6260   49.9710 C   0  0  0  0  0  0  0  0  0  0  0  0
   59.0240   31.8300   46.2160 C   0  0  0  0  0  0  0  0  0  0  0  0
   56.8240   32.1760   42.7320 H   0  0  0  0  0  0  0  0  0  0  0  0
   57.3710   30.6170   42.0380 H   0  0  0  0  0  0  0  0  0  0  0  0
   58.9070   29.4790   45.1070 H   0  0  0  0  0  0  0  0  0  0  0  0
   58.9800   29.2890   43.3300 H   0  0  0  0  0  0  0  0  0  0  0  0
   56.8769   33.4553   44.1031 H   0  0  0  0  0  0  0  0  0  0  0  0
   57.1012   35.2007   45.8686 H   0  0  0  0  0  0  0  0  0  0  0  0
   58.5757   34.8084   47.8395 H   0  0  0  0  0  0  0  0  0  0  0  0
   60.1509   31.5122   48.5897 H   0  0  0  0  0  0  0  0  0  0  0  0
   61.0709   32.9943   48.1231 H   0  0  0  0  0  0  0  0  0  0  0  0
   59.2831   34.3368   49.3377 H   0  0  0  0  0  0  0  0  0  0  0  0
   60.4444   29.1471   51.6927 H   0  0  0  0  0  0  0  0  0  0  0  0
   61.5324   27.3909   50.2947 H   0  0  0  0  0  0  0  0  0  0  0  0
   60.9593   27.1833   47.8749 H   0  0  0  0  0  0  0  0  0  0  0  0
   59.3174   24.3742   46.0504 H   0  0  0  0  0  0  0  0  0  0  0  0
   57.3622   22.8626   46.4109 H   0  0  0  0  0  0  0  0  0  0  0  0
   55.0445   23.7918   46.4009 H   0  0  0  0  0  0  0  0  0  0  0  0
   56.6268   27.7463   45.6316 H   0  0  0  0  0  0  0  0  0  0  0  0
   58.0996   30.4117   48.2784 H   0  0  0  0  0  0  0  0  0  0  0  0
   63.3856   34.2899   49.6929 H   0  0  0  0  0  0  0  0  0  0  0  0
   62.8808   34.6509   51.3833 H   0  0  0  0  0  0  0  0  0  0  0  0
   65.2235   33.6792   51.1528 H   0  0  0  0  0  0  0  0  0  0  0  0
   64.1121   32.7555   52.2375 H   0  0  0  0  0  0  0  0  0  0  0  0
   63.6446   30.0590   50.0713 H   0  0  0  0  0  0  0  0  0  0  0  0
   63.2552   30.8386   51.6521 H   0  0  0  0  0  0  0  0  0  0  0  0
   62.2738   31.6831   48.8781 H   0  0  0  0  0  0  0  0  0  0  0  0
   61.2948   30.9990   50.2222 H   0  0  0  0  0  0  0  0  0  0  0  0
   59.5647   30.8774   46.3174 H   0  0  0  0  0  0  0  0  0  0  0  0
  1  2  1  0
  2  3  2  0
  2  4  1  0
  4  5  2  0
  5  6  1  0
  6  7  2  0
  7  8  1  0
  8  9  1  0
  9 10  1  0
 10 11  1  0
 11 12  1  0
 12 13  2  0
 12 14  2  0
 12 15  1  0
 15 16  2  0
 16 17  1  0
 17 18  2  0
 18 19  1  0
 19 20  1  0
 20 21  1  0
 21 22  2  0
 21 23  2  0
 21 24  1  0
 24 25  2  0
 25 26  1  0
 26 27  2  0
 27 28  1  0
 28 29  1  0
 28 30  2  0
 19 31  2  0
 10 32  1  0
 32 33  2  0
 32 34  1  0
 34 35  1  0
 35 36  1  0
 36 37  1  0
 37 38  1  0
 38 39  1  0
  8 40  2  0
 40  4  1  0
 31 15  1  0
 39 34  1  0
 30 24  1  0
  1 41  1  0
  1 42  1  0
  3 43  1  0
  3 44  1  0
  5 45  1  0
  6 46  1  0
  7 47  1  0
  9 48  1  0
  9 49  1  0
 10 50  1  6
 16 51  1  0
 17 52  1  0
 18 53  1  0
 25 54  1  0
 26 55  1  0
 27 56  1  0
 30 57  1  0
 31 58  1  0
 35 59  1  0
 35 60  1  0
 36 61  1  0
 36 62  1  0
 38 63  1  0
 38 64  1  0
 39 65  1  0
 39 66  1  0
 40 67  1  0
M  CHG  4   3   1  11  -1  20  -1  29  -1
M  END
>  <UniqueID>  (89) 
85

>  <SMILES>  (89) 
NC(=[NH2+])c1cccc(C[C@@H]([N-]S(=O)(=O)c2cccc([N-]S(=O)(=O)c3cccc([O-])c3)c2)C(=O)N2CCOCC2)c1

>  <Energy>  (89) 
81.65326259877075

>  <Genealogy>  (89) 
NC(=[NH2+])c1cccc(CC([N-]S(=O)(=O)c2cccc([N-]S(=O)(=O)c3cccc([O-])c3)c2)C(=O)N2CCOCC2)c1 (protonated)
NC(=[NH2+])c1cccc(C[C@@H]([N-]S(=O)(=O)c2cccc([N-]S(=O)(=O)c3cccc([O-])c3)c2)C(=O)N2CCOCC2)c1 (chirality)
NC(=[NH2+])c1cccc(C[C@@H]([N-]S(=O)(=O)c2cccc([N-]S(=O)(=O)c3cccc([O-])c3)c2)C(=O)N2CCOCC2)c1 (3D coordinates assigned)
NC(=[NH2+])c1cccc(C[C@@H]([N-]S(=O)(=O)c2cccc([N-]S(=O)(=O)c3cccc([O-])c3)c2)C(=O)N2CCOCC2)c1 (nonaromatic ring conformer: 81.65326259877075 kcal/mol)

>  <smiles>  (89) 
N=C(N)c1cccc(CC(NS(=O)(=O)c2cccc(NS(=O)(=O)c3cccc(O)c3)c2)C(=O)N2CCOCC2)c1

>  <score_type>  (89) 
oracle

>  <origin>  (89) 
adg

>  <m_score__min__energy>  (89) 
-15.16

>  <m_primary>  (89) 
energy

$$$$
89:0
     RDKit          3D

 42 43  0  0  0  0  0  0  0  0999 V2000
   57.2001   30.5928   41.7018 H   0  0  0  0  0  0  0  0  0  0  0  0
   57.2810   31.2140   42.6060 C   0  0  0  0  0  0  0  0  0  0  0  0
   56.5990   30.8550   43.7750 C   0  0  0  0  0  0  0  0  0  0  0  0
   55.7310   29.6330   43.8070 C   0  0  0  0  0  0  0  0  0  0  0  0
   54.7049   29.9056   43.5193 H   0  0  0  0  0  0  0  0  0  0  0  0
   56.1262   28.8867   43.1021 H   0  0  0  0  0  0  0  0  0  0  0  0
   55.7240   29.0670   45.1610 N   0  0  0  0  0  0  0  0  0  0  0  0
   56.0580   29.8120   45.8200 H   0  0  0  0  0  0  0  0  0  0  0  0
   56.6590   27.9400   45.2480 C   0  0  0  0  0  0  0  0  0  0  0  0
   56.6137   27.5056   46.2576 H   0  0  0  0  0  0  0  0  0  0  0  0
   56.3804   27.1798   44.5033 H   0  0  0  0  0  0  0  0  0  0  0  0
   58.0820   28.4220   44.9670 C   0  0  0  0  0  0  0  0  0  0  0  0
   58.7069   27.5589   44.6941 H   0  0  0  0  0  0  0  0  0  0  0  0
   58.0493   29.1498   44.1429 H   0  0  0  0  0  0  0  0  0  0  0  0
   58.7830   29.2200   46.4040 S   0  0  0  0  0  0  0  0  0  0  0  0
   58.9300   28.2230   47.5190 O   0  0  0  0  0  0  0  0  0  0  0  0
   57.8880   30.3420   46.8500 O   0  0  0  0  0  0  0  0  0  0  0  0
   60.3830   29.8750   45.9890 C   0  0  0  0  0  0  0  0  0  0  0  0
   60.9370   30.1018   46.9119 H   0  0  0  0  0  0  0  0  0  0  0  0
   60.9412   29.1330   45.3992 H   0  0  0  0  0  0  0  0  0  0  0  0
   60.2607   30.7954   45.3992 H   0  0  0  0  0  0  0  0  0  0  0  0
   56.6850   31.6500   44.8760 N   0  0  0  0  0  0  0  0  0  0  0  0
   57.4260   32.7910   44.9000 C   0  0  0  0  0  0  0  0  0  0  0  0
   57.4650   33.4810   46.0060 N   0  0  0  0  0  0  0  0  0  0  0  0
   58.5580   33.5920   46.9310 C   0  0  0  0  0  0  0  0  0  0  0  0
   59.6560   34.4280   46.6650 C   0  0  0  0  0  0  0  0  0  0  0  0
   59.7083   34.9780   45.7138 H   0  0  0  0  0  0  0  0  0  0  0  0
   60.6820   34.5630   47.6050 C   0  0  0  0  0  0  0  0  0  0  0  0
   61.5529   35.1954   47.3778 H   0  0  0  0  0  0  0  0  0  0  0  0
   60.6060   33.8960   48.8360 C   0  0  0  0  0  0  0  0  0  0  0  0
   61.7250   34.0100   49.8290 C   0  0  0  0  0  0  0  0  0  0  0  0
   61.3156   33.9683   50.8491 H   0  0  0  0  0  0  0  0  0  0  0  0
   62.4309   33.1791   49.6829 H   0  0  0  0  0  0  0  0  0  0  0  0
   62.2489   34.9662   49.6829 H   0  0  0  0  0  0  0  0  0  0  0  0
   59.5000   33.0750   49.1080 C   0  0  0  0  0  0  0  0  0  0  0  0
   59.4402   32.5353   50.0646 H   0  0  0  0  0  0  0  0  0  0  0  0
   58.4750   32.9410   48.1680 C   0  0  0  0  0  0  0  0  0  0  0  0
   57.5973   32.3202   48.4011 H   0  0  0  0  0  0  0  0  0  0  0  0
   58.1500   33.1600   43.7470 C   0  0  0  0  0  0  0  0  0  0  0  0
   58.7768   34.0639   43.7510 H   0  0  0  0  0  0  0  0  0  0  0  0
   58.0640   32.3680   42.6010 C   0  0  0  0  0  0  0  0  0  0  0  0
   58.6145   32.6544   41.6927 H   0  0  0  0  0  0  0  0  0  0  0  0
  1  2  1  0
  2  3  2  0
  3  4  1  0
  4  5  1  0
  4  6  1  0
  4  7  1  0
  7  8  1  0
  7  9  1  0
  9 10  1  0
  9 11  1  0
  9 12  1  0
 12 13  1  0
 12 14  1  0
 12 15  1  0
 15 16  2  0
 15 17  2  0
 15 18  1  0
 18 19  1  0
 18 20  1  0
 18 21  1  0
  3 22  1  0
 22 23  1  0
 23 24  2  0
 24 25  1  0
 25 26  2  0
 26 27  1  0
 26 28  1  0
 28 29  1  0
 28 30  2  0
 30 31  1  0
 31 32  1  0
 31 33  1  0
 31 34  1  0
 30 35  1  0
 35 36  1  0
 35 37  2  0
 37 38  1  0
 23 39  1  0
 39 40  1  0
 39 41  2  0
 41 42  1  0
 41  2  1  0
 37 25  1  0
M  CHG  1  22  -1
M  END
>  <UniqueID>  (90) 
86

>  <SMILES>  (90) 
Cc1ccc(/N=c2\cccc(CNCCS(C)(=O)=O)[n-]2)cc1

>  <Energy>  (90) 
39.27778192721029

>  <Genealogy>  (90) 
Cc1ccc(N=c2cccc(CNCCS(C)(=O)=O)[n-]2)cc1 (protonated)
Cc1ccc(/N=c2\cccc(CNCCS(C)(=O)=O)[n-]2)cc1 (cis-trans isomerization)
Cc1ccc(/N=c2\cccc(CNCCS(C)(=O)=O)[n-]2)cc1 (3D coordinates assigned)
Cc1ccc(/N=c2\cccc(CNCCS(C)(=O)=O)[n-]2)cc1 (optimized conformer: 39.27778192721029 kcal/mol)

>  <smiles>  (90) 
Cc1ccc(N=c2cccc(CNCCS(C)(=O)=O)[nH]2)cc1

>  <score_type>  (90) 
oracle

>  <origin>  (90) 
adg

>  <m_score__min__energy>  (90) 
-10.390000000000001

>  <m_primary>  (90) 
energy

$$$$
90:0
     RDKit          3D

 40 42  0  0  0  0  0  0  0  0999 V2000
   58.4534   24.0796   45.5549 H   0  0  0  0  0  0  0  0  0  0  0  0
   57.8030   24.8890   45.9180 C   0  0  0  0  0  0  0  0  0  0  0  0
   58.1730   26.2730   45.5460 C   0  0  0  0  0  0  0  0  0  0  0  0
   59.3330   26.7120   45.7730 O   0  0  0  0  0  0  0  0  0  0  0  0
   57.1900   27.1170   44.9280 N   0  0  0  0  0  0  0  0  0  0  0  0
   56.3450   26.6580   44.5170 H   0  0  0  0  0  0  0  0  0  0  0  0
   57.3550   28.5310   44.7220 C   0  0  0  0  0  0  0  0  0  0  0  0
   56.2210   29.3450   44.6010 C   0  0  0  0  0  0  0  0  0  0  0  0
   55.2183   28.8952   44.6480 H   0  0  0  0  0  0  0  0  0  0  0  0
   56.3550   30.7250   44.4210 C   0  0  0  0  0  0  0  0  0  0  0  0
   55.4574   31.3538   44.3266 H   0  0  0  0  0  0  0  0  0  0  0  0
   57.6290   31.3130   44.3600 C   0  0  0  0  0  0  0  0  0  0  0  0
   57.7900   32.7340   44.2050 N   0  0  0  0  0  0  0  0  0  0  0  0
   57.4420   33.1700   43.3200 H   0  0  0  0  0  0  0  0  0  0  0  0
   58.3910   33.5960   45.1860 C   0  0  0  0  0  0  0  0  0  0  0  0
   59.1130   34.7430   44.8080 C   0  0  0  0  0  0  0  0  0  0  0  0
   59.2059   35.0060   43.7439 H   0  0  0  0  0  0  0  0  0  0  0  0
   59.7130   35.5500   45.7800 C   0  0  0  0  0  0  0  0  0  0  0  0
   60.2678   36.4510   45.4794 H   0  0  0  0  0  0  0  0  0  0  0  0
   59.6090   35.2140   47.1320 C   0  0  0  0  0  0  0  0  0  0  0  0
   60.0749   35.8546   47.8953 H   0  0  0  0  0  0  0  0  0  0  0  0
   58.9130   34.0640   47.5150 C   0  0  0  0  0  0  0  0  0  0  0  0
   58.8370   33.7959   48.5791 H   0  0  0  0  0  0  0  0  0  0  0  0
   58.3130   33.2540   46.5450 C   0  0  0  0  0  0  0  0  0  0  0  0
   57.7766   32.3431   46.8493 H   0  0  0  0  0  0  0  0  0  0  0  0
   58.7620   30.5050   44.5300 C   0  0  0  0  0  0  0  0  0  0  0  0
   59.7633   30.9604   44.5232 H   0  0  0  0  0  0  0  0  0  0  0  0
   58.6290   29.1260   44.7080 C   0  0  0  0  0  0  0  0  0  0  0  0
   59.5256   28.5022   44.8379 H   0  0  0  0  0  0  0  0  0  0  0  0
   56.7410   24.5370   46.6610 C   0  0  0  0  0  0  0  0  0  0  0  0
   56.8662   24.5308   47.7538 H   0  0  0  0  0  0  0  0  0  0  0  0
   55.4160   24.1570   46.1240 C   0  0  0  0  0  0  0  0  0  0  0  0
   54.4830   25.1470   45.7860 C   0  0  0  0  0  0  0  0  0  0  0  0
   54.7720   26.4920   45.9930 O   0  0  0  0  0  0  0  0  0  0  0  0
   53.2800   24.7970   45.2620 N   0  0  0  0  0  0  0  0  0  0  0  0
   52.9650   23.4950   45.0400 C   0  0  0  0  0  0  0  0  0  0  0  0
   51.8430   23.1930   44.5580 O   0  0  0  0  0  0  0  0  0  0  0  0
   53.8620   22.5190   45.3330 N   0  0  0  0  0  0  0  0  0  0  0  0
   55.0790   22.8170   45.8570 C   0  0  0  0  0  0  0  0  0  0  0  0
   55.8960   21.8870   46.0880 O   0  0  0  0  0  0  0  0  0  0  0  0
  1  2  1  0
  2  3  1  0
  3  4  2  0
  3  5  1  0
  5  6  1  0
  5  7  1  0
  7  8  2  0
  8  9  1  0
  8 10  1  0
 10 11  1  0
 10 12  2  0
 12 13  1  0
 13 14  1  0
 13 15  1  0
 15 16  2  0
 16 17  1  0
 16 18  1  0
 18 19  1  0
 18 20  2  0
 20 21  1  0
 20 22  1  0
 22 23  1  0
 22 24  2  0
 24 25  1  0
 12 26  1  0
 26 27  1  0
 26 28  2  0
 28 29  1  0
  2 30  2  0
 30 31  1  0
 30 32  1  0
 32 33  2  0
 33 34  1  0
 33 35  1  0
 35 36  1  0
 36 37  2  0
 36 38  1  0
 38 39  1  0
 39 40  2  0
 28  7  1  0
 39 32  1  0
 24 15  1  0
M  CHG  3  34  -1  35  -1  38  -1
M  END
>  <UniqueID>  (91) 
87

>  <SMILES>  (91) 
O=C(/C=C\c1c([O-])[n-]c(=O)[n-]c1=O)Nc1ccc(Nc2ccccc2)cc1

>  <Energy>  (91) 
62.41904052694907

>  <Genealogy>  (91) 
O=C(C=Cc1c([O-])[n-]c(=O)[n-]c1=O)Nc1ccc(Nc2ccccc2)cc1 (protonated)
O=C(/C=C\c1c([O-])[n-]c(=O)[n-]c1=O)Nc1ccc(Nc2ccccc2)cc1 (cis-trans isomerization)
O=C(/C=C\c1c([O-])[n-]c(=O)[n-]c1=O)Nc1ccc(Nc2ccccc2)cc1 (3D coordinates assigned)
O=C(/C=C\c1c([O-])[n-]c(=O)[n-]c1=O)Nc1ccc(Nc2ccccc2)cc1 (optimized conformer: 62.41904052694907 kcal/mol)

>  <smiles>  (91) 
O=C(C=Cc1c(O)[nH]c(=O)[nH]c1=O)Nc1ccc(Nc2ccccc2)cc1

>  <score_type>  (91) 
oracle

>  <origin>  (91) 
adg

>  <m_score__min__energy>  (91) 
-16.829999999999998

>  <m_primary>  (91) 
energy

$$$$
91:0
     RDKit          3D

 19 20  0  0  0  0  0  0  0  0999 V2000
   58.4720   29.8970   51.6500 N   0  0  0  0  0  0  0  0  0  0  0  0
   57.3670   29.9120   51.9940 C   0  0  0  0  0  0  0  0  0  0  0  0
   55.9890   29.9310   52.4230 C   0  0  0  0  0  0  0  0  0  0  0  0
   55.1060   30.8600   51.8670 C   0  0  0  0  0  0  0  0  0  0  0  0
   53.7670   30.8840   52.2780 C   0  0  0  0  0  0  0  0  0  0  0  0
   52.8610   31.8070   51.7350 C   0  0  0  0  0  0  0  0  0  0  0  0
   51.5290   31.8130   52.1600 C   0  0  0  0  0  0  0  0  0  0  0  0
   50.6320   32.7280   51.6220 O   0  0  0  0  0  0  0  0  0  0  0  0
   51.0970   30.9000   53.1270 C   0  0  0  0  0  0  0  0  0  0  0  0
   51.9930   29.9770   53.6740 C   0  0  0  0  0  0  0  0  0  0  0  0
   53.3330   29.9600   53.2560 C   0  0  0  0  0  0  0  0  0  0  0  0
   54.2150   29.0630   53.7840 N   0  0  0  0  0  0  0  0  0  0  0  0
   55.5200   29.0280   53.3920 C   0  0  0  0  0  0  0  0  0  0  0  0
   56.3020   28.1820   53.9060 O   0  0  0  0  0  0  0  0  0  0  0  0
   55.4617   31.5717   51.1075 H   0  0  0  0  0  0  0  0  0  0  0  0
   53.1986   32.5264   50.9745 H   0  0  0  0  0  0  0  0  0  0  0  0
   50.0482   30.9081   53.4585 H   0  0  0  0  0  0  0  0  0  0  0  0
   51.6469   29.2616   54.4345 H   0  0  0  0  0  0  0  0  0  0  0  0
   53.8890   28.3810   54.5070 H   0  0  0  0  0  0  0  0  0  0  0  0
  1  2  3  0
  2  3  1  0
  3  4  2  0
  4  5  1  0
  5  6  2  0
  6  7  1  0
  7  8  1  0
  7  9  2  0
  9 10  1  0
 10 11  2  0
 11 12  1  0
 12 13  1  0
 13 14  2  0
 13  3  1  0
 11  5  1  0
  4 15  1  0
  6 16  1  0
  9 17  1  0
 10 18  1  0
 12 19  1  0
M  CHG  1   8  -1
M  END
>  <UniqueID>  (92) 
88

>  <SMILES>  (92) 
N#Cc1cc2cc([O-])ccc2[nH]c1=O

>  <Energy>  (92) 
23.49096064563611

>  <Genealogy>  (92) 
N#Cc1cc2cc([O-])ccc2[nH]c1=O (protonated)
N#Cc1cc2cc([O-])ccc2[nH]c1=O (3D coordinates assigned)
N#Cc1cc2cc([O-])ccc2[nH]c1=O (optimized conformer: 23.49096064563611 kcal/mol)

>  <smiles>  (92) 
N#Cc1cc2cc(O)ccc2[nH]c1=O

>  <score_type>  (92) 
oracle

>  <origin>  (92) 
adg

>  <m_score__min__energy>  (92) 
-8.6699999999999999

>  <m_primary>  (92) 
energy

$$$$
92:0
     RDKit          3D

 55 58  0  0  0  0  0  0  0  0999 V2000
   54.4100   26.0860   46.3750 H   0  0  0  0  0  0  0  0  0  0  0  0
   55.1350   26.7140   46.0540 O   0  0  0  0  0  0  0  0  0  0  0  0
   56.4570   26.2950   45.9040 C   0  0  0  0  0  0  0  0  0  0  0  0
   56.8220   25.0020   45.9310 N   0  0  0  0  0  0  0  0  0  0  0  0
   58.1690   25.0580   45.8220 C   0  0  0  0  0  0  0  0  0  0  0  0
   59.0380   23.8440   45.7270 C   0  0  0  0  0  0  0  0  0  0  0  0
   59.2280   23.4658   46.7423 H   0  0  0  0  0  0  0  0  0  0  0  0
   59.9708   24.1391   45.2243 H   0  0  0  0  0  0  0  0  0  0  0  0
   58.3940   22.7230   44.8960 C   0  0  0  0  0  0  0  0  0  0  0  0
   57.8932   22.0260   45.5840 H   0  0  0  0  0  0  0  0  0  0  0  0
   59.2029   22.2444   44.3245 H   0  0  0  0  0  0  0  0  0  0  0  0
   57.3550   23.2230   43.8690 C   0  0  0  0  0  0  0  0  0  0  0  0
   57.8830   23.5321   42.9548 H   0  0  0  0  0  0  0  0  0  0  0  0
   56.8112   24.0633   44.3253 H   0  0  0  0  0  0  0  0  0  0  0  0
   56.3410   22.1610   43.5080 C   0  0  0  0  0  0  0  0  0  0  0  0
   56.1010   21.9300   42.2940 O   0  0  0  0  0  0  0  0  0  0  0  0
   55.5840   21.4480   44.4970 N   0  0  0  0  0  0  0  0  0  0  0  0
   55.2160   21.9270   45.8230 C   0  0  0  0  0  0  0  0  0  0  0  0
   54.9210   21.0699   46.4462 H   0  0  0  0  0  0  0  0  0  0  0  0
   56.0825   22.4426   46.2628 H   0  0  0  0  0  0  0  0  0  0  0  0
   54.0750   22.8920   45.7460 C   0  0  0  0  0  0  0  0  0  0  0  0
   54.2090   24.2110   45.5210 N   0  0  0  0  0  0  0  0  0  0  0  0
   52.9980   24.7430   45.4500 N   0  0  0  0  0  0  0  0  0  0  0  0
   52.0900   23.7620   45.6170 C   0  0  0  0  0  0  0  0  0  0  0  0
   50.9986   23.8990   45.6070 H   0  0  0  0  0  0  0  0  0  0  0  0
   52.7380   22.5620   45.8020 C   0  0  0  0  0  0  0  0  0  0  0  0
   52.2918   21.5688   45.9584 H   0  0  0  0  0  0  0  0  0  0  0  0
   58.6610   26.3100   45.7210 N   0  0  0  0  0  0  0  0  0  0  0  0
   57.5710   27.0970   45.7600 C   0  0  0  0  0  0  0  0  0  0  0  0
   57.6330   28.5580   45.5600 C   0  0  0  0  0  0  0  0  0  0  0  0
   56.9010   29.1800   44.5380 C   0  0  0  0  0  0  0  0  0  0  0  0
   56.2278   28.5823   43.9059 H   0  0  0  0  0  0  0  0  0  0  0  0
   57.0220   30.5550   44.3180 C   0  0  0  0  0  0  0  0  0  0  0  0
   56.4277   31.0350   43.5265 H   0  0  0  0  0  0  0  0  0  0  0  0
   57.8960   31.3290   45.0990 C   0  0  0  0  0  0  0  0  0  0  0  0
   58.0200   32.7880   44.8570 C   0  0  0  0  0  0  0  0  0  0  0  0
   57.9240   33.2330   43.6820 O   0  0  0  0  0  0  0  0  0  0  0  0
   58.1780   33.7240   45.9340 N   0  0  0  0  0  0  0  0  0  0  0  0
   59.1640   33.7900   46.7830 C   0  0  0  0  0  0  0  0  0  0  0  0
   58.8870   34.1200   48.0730 N   0  0  0  0  0  0  0  0  0  0  0  0
   59.8560   34.2330   49.0190 C   0  0  0  0  0  0  0  0  0  0  0  0
   59.5864   34.5019   50.0510 H   0  0  0  0  0  0  0  0  0  0  0  0
   61.1910   34.0090   48.6850 C   0  0  0  0  0  0  0  0  0  0  0  0
   61.9767   34.1103   49.4481 H   0  0  0  0  0  0  0  0  0  0  0  0
   61.5260   33.6540   47.3710 C   0  0  0  0  0  0  0  0  0  0  0  0
   62.9710   33.4700   46.9800 C   0  0  0  0  0  0  0  0  0  0  0  0
   63.2890   32.1250   47.0330 F   0  0  0  0  0  0  0  0  0  0  0  0
   63.1920   33.9340   45.6950 F   0  0  0  0  0  0  0  0  0  0  0  0
   63.8020   34.1630   47.8390 F   0  0  0  0  0  0  0  0  0  0  0  0
   60.5060   33.5720   46.4060 C   0  0  0  0  0  0  0  0  0  0  0  0
   60.7540   33.3385   45.3601 H   0  0  0  0  0  0  0  0  0  0  0  0
   58.6370   30.7020   46.1140 C   0  0  0  0  0  0  0  0  0  0  0  0
   59.3185   31.2972   46.7396 H   0  0  0  0  0  0  0  0  0  0  0  0
   58.5150   29.3280   46.3350 C   0  0  0  0  0  0  0  0  0  0  0  0
   59.1141   28.8460   47.1216 H   0  0  0  0  0  0  0  0  0  0  0  0
  1  2  1  0
  2  3  1  0
  3  4  1  0
  4  5  1  0
  5  6  1  0
  6  7  1  0
  6  8  1  0
  6  9  1  0
  9 10  1  0
  9 11  1  0
  9 12  1  0
 12 13  1  0
 12 14  1  0
 12 15  1  0
 15 16  2  0
 15 17  1  0
 17 18  1  0
 18 19  1  0
 18 20  1  0
 18 21  1  0
 21 22  2  0
 22 23  1  0
 23 24  1  0
 24 25  1  0
 24 26  2  0
 26 27  1  0
  5 28  2  0
 28 29  1  0
 29 30  1  0
 30 31  2  0
 31 32  1  0
 31 33  1  0
 33 34  1  0
 33 35  2  0
 35 36  1  0
 36 37  2  0
 36 38  1  0
 38 39  2  0
 39 40  1  0
 40 41  1  0
 41 42  1  0
 41 43  2  0
 43 44  1  0
 43 45  1  0
 45 46  1  0
 46 47  1  0
 46 48  1  0
 46 49  1  0
 45 50  2  0
 50 51  1  0
 35 52  1  0
 52 53  1  0
 52 54  2  0
 54 55  1  0
 29  3  2  0
 54 30  1  0
 26 21  1  0
 50 39  1  0
M  CHG  4   4  -1  17  -1  23  -1  40  -1
M  END
>  <UniqueID>  (93) 
89

>  <SMILES>  (93) 
O=C(CCCc1nc(-c2ccc(C(=O)/N=c3\cc(C(F)(F)F)cc[n-]3)cc2)c(O)[n-]1)[N-]Cc1cc[n-]n1

>  <Energy>  (93) 
123.7745110676968

>  <Genealogy>  (93) 
O=C(CCCc1nc(-c2ccc(C(=O)N=c3cc(C(F)(F)F)cc[n-]3)cc2)c(O)[n-]1)[N-]Cc1cc[n-]n1 (protonated)
O=C(CCCc1nc(-c2ccc(C(=O)/N=c3\cc(C(F)(F)F)cc[n-]3)cc2)c(O)[n-]1)[N-]Cc1cc[n-]n1 (cis-trans isomerization)
O=C(CCCc1nc(-c2ccc(C(=O)/N=c3\cc(C(F)(F)F)cc[n-]3)cc2)c(O)[n-]1)[N-]Cc1cc[n-]n1 (3D coordinates assigned)
O=C(CCCc1nc(-c2ccc(C(=O)/N=c3\cc(C(F)(F)F)cc[n-]3)cc2)c(O)[n-]1)[N-]Cc1cc[n-]n1 (optimized conformer: 123.7745110676968 kcal/mol)

>  <smiles>  (93) 
O=C(CCCc1nc(-c2ccc(C(=O)N=c3cc(C(F)(F)F)cc[nH]3)cc2)c(O)[nH]1)NCc1cc[nH]n1

>  <score_type>  (93) 
oracle

>  <origin>  (93) 
adg

>  <m_score__min__energy>  (93) 
-15.73

>  <m_primary>  (93) 
energy

$$$$
