0:0
     RDKit          3D

 64 67  0  0  0  0  0  0  0  0999 V2000
   63.3220   33.8420   49.8350 C   0  0  0  0  0  0  0  0  0  0  0  0
   62.3030   33.8180   48.7360 C   0  0  0  0  0  0  0  0  0  0  0  0
   60.9800   34.2120   48.9900 C   0  0  0  0  0  0  0  0  0  0  0  0
   60.0380   34.2280   47.9570 C   0  0  0  0  0  0  0  0  0  0  0  0
   60.4110   33.8690   46.6510 C   0  0  0  0  0  0  0  0  0  0  0  0
   59.3900   33.8600   45.5450 C   0  0  0  0  0  0  0  0  0  0  0  0
   58.4790   32.6810   45.6950 C   0  0  0  0  0  0  0  0  0  0  0  0
   57.2790   32.8740   46.0370 O   0  0  0  0  0  0  0  0  0  0  0  0
   58.9790   31.3500   45.5010 N   0  0  0  0  0  0  0  0  0  0  0  0
   58.1470   30.1740   45.5270 C   0  0  0  0  0  0  0  0  0  0  0  0
   57.0120   30.1020   44.7010 C   0  0  0  0  0  0  0  0  0  0  0  0
   56.1710   28.9900   44.7390 C   0  0  0  0  0  0  0  0  0  0  0  0
   56.4400   27.9330   45.6100 C   0  0  0  0  0  0  0  0  0  0  0  0
   55.5580   26.8030   45.6230 N   0  0  0  0  0  0  0  0  0  0  0  0
   55.8670   25.4920   46.1120 C   0  0  0  0  0  0  0  0  0  0  0  0
   56.9070   25.3310   46.8030 O   0  0  0  0  0  0  0  0  0  0  0  0
   55.0560   24.2860   45.7230 C   0  0  0  0  0  0  0  0  0  0  0  0
   55.8610   23.3890   44.8230 C   0  0  0  0  0  0  0  0  0  0  0  0
   55.5820   23.3260   43.4460 C   0  0  0  0  0  0  0  0  0  0  0  0
   56.3190   22.4740   42.6160 C   0  0  0  0  0  0  0  0  0  0  0  0
   57.3300   21.6730   43.1540 C   0  0  0  0  0  0  0  0  0  0  0  0
   57.6000   21.7160   44.5250 C   0  0  0  0  0  0  0  0  0  0  0  0
   56.8690   22.5710   45.3590 C   0  0  0  0  0  0  0  0  0  0  0  0
   57.6060   27.9620   46.3890 C   0  0  0  0  0  0  0  0  0  0  0  0
   58.4730   29.0680   46.3500 C   0  0  0  0  0  0  0  0  0  0  0  0
   59.9200   29.0710   47.3770 S   0  0  0  0  0  0  0  0  0  0  0  0
   60.9330   29.9990   46.7650 O   0  0  0  0  0  0  0  0  0  0  0  0
   60.4930   27.6820   47.4460 O   0  0  0  0  0  0  0  0  0  0  0  0
   59.5390   29.6120   48.9990 N   0  0  0  0  0  0  0  0  0  0  0  0
   60.7130   29.4920   49.8940 C   0  0  0  0  0  0  0  0  0  0  0  0
   61.3790   30.8520   50.1700 C   0  0  0  0  0  0  0  0  0  0  0  0
   60.4980   31.8010   50.7530 O   0  0  0  0  0  0  0  0  0  0  0  0
   59.1490   31.6700   50.3250 C   0  0  0  0  0  0  0  0  0  0  0  0
   58.9910   30.9810   48.9590 C   0  0  0  0  0  0  0  0  0  0  0  0
   61.7360   33.4790   46.3960 C   0  0  0  0  0  0  0  0  0  0  0  0
   62.6790   33.4660   47.4300 C   0  0  0  0  0  0  0  0  0  0  0  0
   62.8111   33.8300   50.8091 H   0  0  0  0  0  0  0  0  0  0  0  0
   63.9725   32.9589   49.7512 H   0  0  0  0  0  0  0  0  0  0  0  0
   63.9302   34.7547   49.7512 H   0  0  0  0  0  0  0  0  0  0  0  0
   60.6829   34.5096   50.0065 H   0  0  0  0  0  0  0  0  0  0  0  0
   58.9995   34.5232   48.1679 H   0  0  0  0  0  0  0  0  0  0  0  0
   58.7974   34.7856   45.5894 H   0  0  0  0  0  0  0  0  0  0  0  0
   59.9084   33.7935   44.5771 H   0  0  0  0  0  0  0  0  0  0  0  0
   60.0120   31.2370   45.4070 H   0  0  0  0  0  0  0  0  0  0  0  0
   56.7844   30.9325   44.0165 H   0  0  0  0  0  0  0  0  0  0  0  0
   55.2917   28.9458   44.0795 H   0  0  0  0  0  0  0  0  0  0  0  0
   54.7716   23.7313   46.6293 H   0  0  0  0  0  0  0  0  0  0  0  0
   54.1538   24.6167   45.1875 H   0  0  0  0  0  0  0  0  0  0  0  0
   54.7816   23.9487   43.0199 H   0  0  0  0  0  0  0  0  0  0  0  0
   56.1023   22.4346   41.5383 H   0  0  0  0  0  0  0  0  0  0  0  0
   57.9131   21.0090   42.4989 H   0  0  0  0  0  0  0  0  0  0  0  0
   58.3883   21.0769   44.9495 H   0  0  0  0  0  0  0  0  0  0  0  0
   57.0849   22.6020   46.4372 H   0  0  0  0  0  0  0  0  0  0  0  0
   57.8453   27.1077   47.0393 H   0  0  0  0  0  0  0  0  0  0  0  0
   60.3858   29.0579   50.8503 H   0  0  0  0  0  0  0  0  0  0  0  0
   61.4532   28.8503   49.3937 H   0  0  0  0  0  0  0  0  0  0  0  0
   62.2248   30.6939   50.8552 H   0  0  0  0  0  0  0  0  0  0  0  0
   61.7015   31.2595   49.2005 H   0  0  0  0  0  0  0  0  0  0  0  0
   58.6036   31.0792   51.0757 H   0  0  0  0  0  0  0  0  0  0  0  0
   58.7489   32.6889   50.2161 H   0  0  0  0  0  0  0  0  0  0  0  0
   57.9231   30.9350   48.6991 H   0  0  0  0  0  0  0  0  0  0  0  0
   59.5428   31.5609   48.2045 H   0  0  0  0  0  0  0  0  0  0  0  0
   62.0337   33.1826   45.3794 H   0  0  0  0  0  0  0  0  0  0  0  0
   63.7195   33.1787   47.2185 H   0  0  0  0  0  0  0  0  0  0  0  0
  1  2  1  0
  2  3  2  0
  3  4  1  0
  4  5  2  0
  5  6  1  0
  6  7  1  0
  7  8  2  0
  7  9  1  0
  9 10  1  0
 10 11  2  0
 11 12  1  0
 12 13  2  0
 13 14  1  0
 14 15  1  0
 15 16  2  0
 15 17  1  0
 17 18  1  0
 18 19  2  0
 19 20  1  0
 20 21  2  0
 21 22  1  0
 22 23  2  0
 13 24  1  0
 24 25  2  0
 25 26  1  0
 26 27  2  0
 26 28  2  0
 26 29  1  0
 29 30  1  0
 30 31  1  0
 31 32  1  0
 32 33  1  0
 33 34  1  0
  5 35  1  0
 35 36  2  0
 36  2  1  0
 25 10  1  0
 34 29  1  0
 23 18  1  0
  1 37  1  0
  1 38  1  0
  1 39  1  0
  3 40  1  0
  4 41  1  0
  6 42  1  0
  6 43  1  0
  9 44  1  0
 11 45  1  0
 12 46  1  0
 17 47  1  0
 17 48  1  0
 19 49  1  0
 20 50  1  0
 21 51  1  0
 22 52  1  0
 23 53  1  0
 24 54  1  0
 30 55  1  0
 30 56  1  0
 31 57  1  0
 31 58  1  0
 33 59  1  0
 33 60  1  0
 34 61  1  0
 34 62  1  0
 35 63  1  0
 36 64  1  0
M  CHG  1  14  -1
M  END
>  <UniqueID>  (1) 
1

>  <SMILES>  (1) 
Cc1ccc(CC(=O)Nc2ccc([N-]C(=O)Cc3ccccc3)cc2S(=O)(=O)N2CCOCC2)cc1

>  <Energy>  (1) 
86.20261999647325

>  <Genealogy>  (1) 
Cc1ccc(CC(=O)Nc2ccc([N-]C(=O)Cc3ccccc3)cc2S(=O)(=O)N2CCOCC2)cc1 (protonated)
Cc1ccc(CC(=O)Nc2ccc([N-]C(=O)Cc3ccccc3)cc2S(=O)(=O)N2CCOCC2)cc1 (3D coordinates assigned)
Cc1ccc(CC(=O)Nc2ccc([N-]C(=O)Cc3ccccc3)cc2S(=O)(=O)N2CCOCC2)cc1 (nonaromatic ring conformer: 86.20261999647325 kcal/mol)

>  <smiles>  (1) 
Cc1ccc(CC(=O)Nc2ccc(NC(=O)Cc3ccccc3)cc2S(=O)(=O)N2CCOCC2)cc1

>  <score_type>  (1) 
oracle

>  <origin>  (1) 
adg

>  <m_score__min__energy>  (1) 
-11.82

>  <m_primary>  (1) 
energy

$$$$
1:0
     RDKit          3D

 39 41  0  0  0  0  0  0  0  0999 V2000
   53.7700   26.3250   45.2510 H   0  0  0  0  0  0  0  0  0  0  0  0
   54.4200   25.9610   45.9830 N   0  0  0  0  0  0  0  0  0  0  0  0
   55.6930   26.1820   45.9250 C   0  0  0  0  0  0  0  0  0  0  0  0
   56.1720   27.4540   45.9670 N   0  0  0  0  0  0  0  0  0  0  0  0
   57.5070   27.7120   45.9150 C   0  0  0  0  0  0  0  0  0  0  0  0
   57.9780   29.1160   45.9420 C   0  0  0  0  0  0  0  0  0  0  0  0
   59.1430   29.4260   46.6620 C   0  0  0  0  0  0  0  0  0  0  0  0
   59.6894   28.6263   47.1835 H   0  0  0  0  0  0  0  0  0  0  0  0
   59.6150   30.7380   46.7230 C   0  0  0  0  0  0  0  0  0  0  0  0
   60.5263   30.9658   47.2954 H   0  0  0  0  0  0  0  0  0  0  0  0
   58.9320   31.7690   46.0570 C   0  0  0  0  0  0  0  0  0  0  0  0
   59.3570   33.1070   46.0950 O   0  0  0  0  0  0  0  0  0  0  0  0
   59.3810   33.9360   47.2580 C   0  0  0  0  0  0  0  0  0  0  0  0
   59.1626   34.9735   46.9651 H   0  0  0  0  0  0  0  0  0  0  0  0
   58.6239   33.5689   47.9665 H   0  0  0  0  0  0  0  0  0  0  0  0
   60.7320   33.8860   47.9280 C   0  0  0  0  0  0  0  0  0  0  0  0
   61.9160   33.8420   47.1640 C   0  0  0  0  0  0  0  0  0  0  0  0
   61.8700   33.8350   45.8080 F   0  0  0  0  0  0  0  0  0  0  0  0
   63.1620   33.8030   47.7990 C   0  0  0  0  0  0  0  0  0  0  0  0
   64.0824   33.7580   47.1982 H   0  0  0  0  0  0  0  0  0  0  0  0
   63.2410   33.8210   49.1930 C   0  0  0  0  0  0  0  0  0  0  0  0
   64.2225   33.7863   49.6883 H   0  0  0  0  0  0  0  0  0  0  0  0
   62.0760   33.8830   49.9580 C   0  0  0  0  0  0  0  0  0  0  0  0
   62.1413   33.9021   51.0559 H   0  0  0  0  0  0  0  0  0  0  0  0
   60.8250   33.9210   49.3330 C   0  0  0  0  0  0  0  0  0  0  0  0
   59.7060   33.9950   50.0970 F   0  0  0  0  0  0  0  0  0  0  0  0
   57.7850   31.4620   45.3180 C   0  0  0  0  0  0  0  0  0  0  0  0
   57.2520   32.2648   44.7876 H   0  0  0  0  0  0  0  0  0  0  0  0
   57.3010   30.1400   45.2420 C   0  0  0  0  0  0  0  0  0  0  0  0
   56.1760   29.8130   44.4660 O   0  0  0  0  0  0  0  0  0  0  0  0
   56.1750   29.7030   43.0470 C   0  0  0  0  0  0  0  0  0  0  0  0
   56.1653   28.6407   42.7616 H   0  0  0  0  0  0  0  0  0  0  0  0
   55.2813   30.1998   42.6414 H   0  0  0  0  0  0  0  0  0  0  0  0
   57.0775   30.1835   42.6414 H   0  0  0  0  0  0  0  0  0  0  0  0
   58.4050   26.6410   45.7910 C   0  0  0  0  0  0  0  0  0  0  0  0
   59.4882   26.8211   45.7266 H   0  0  0  0  0  0  0  0  0  0  0  0
   57.8950   25.3420   45.7510 C   0  0  0  0  0  0  0  0  0  0  0  0
   58.6740   24.3590   45.6460 O   0  0  0  0  0  0  0  0  0  0  0  0
   56.5550   25.1370   45.8210 N   0  0  0  0  0  0  0  0  0  0  0  0
  1  2  1  0
  2  3  2  0
  3  4  1  0
  4  5  1  0
  5  6  1  0
  6  7  2  0
  7  8  1  0
  7  9  1  0
  9 10  1  0
  9 11  2  0
 11 12  1  0
 12 13  1  0
 13 14  1  0
 13 15  1  0
 13 16  1  0
 16 17  2  0
 17 18  1  0
 17 19  1  0
 19 20  1  0
 19 21  2  0
 21 22  1  0
 21 23  1  0
 23 24  1  0
 23 25  2  0
 25 26  1  0
 11 27  1  0
 27 28  1  0
 27 29  2  0
 29 30  1  0
 30 31  1  0
 31 32  1  0
 31 33  1  0
 31 34  1  0
  5 35  2  0
 35 36  1  0
 35 37  1  0
 37 38  2  0
 37 39  1  0
 39  3  1  0
 29  6  1  0
 25 16  1  0
M  CHG  2   4  -1  39  -1
M  END
>  <UniqueID>  (2) 
2

>  <SMILES>  (2) 
[H]/N=c1\[n-]c(-c2ccc(OCc3c(F)cccc3F)cc2OC)cc(=O)[n-]1

>  <Energy>  (2) 
48.693092927056

>  <Genealogy>  (2) 
COc1cc(OCc2c(F)cccc2F)ccc1-c1cc(=O)[n-]c(=N)[n-]1 (protonated)
[H]/N=c1\[n-]c(-c2ccc(OCc3c(F)cccc3F)cc2OC)cc(=O)[n-]1 (cis-trans isomerization)
[H]/N=c1\[n-]c(-c2ccc(OCc3c(F)cccc3F)cc2OC)cc(=O)[n-]1 (3D coordinates assigned)
[H]/N=c1\[n-]c(-c2ccc(OCc3c(F)cccc3F)cc2OC)cc(=O)[n-]1 (optimized conformer: 48.693092927056 kcal/mol)

>  <smiles>  (2) 
COc1cc(OCc2c(F)cccc2F)ccc1-c1cc(=O)[nH]c(=N)[nH]1

>  <score_type>  (2) 
oracle

>  <origin>  (2) 
adg

>  <m_score__min__energy>  (2) 
-11.93

>  <m_primary>  (2) 
energy

$$$$
2:0
     RDKit          3D

 49 51  0  0  0  0  0  0  0  0999 V2000
   56.9540   33.8860   45.8850 O   0  0  0  0  0  0  0  0  0  0  0  0
   57.5200   32.9050   46.4360 C   0  0  0  0  0  0  0  0  0  0  0  0
   58.0410   31.7950   45.6080 C   0  0  0  0  0  0  0  0  0  0  0  0
   59.2470   31.2530   45.8240 C   0  0  0  0  0  0  0  0  0  0  0  0
   59.5510   30.3560   46.9690 C   0  0  0  0  0  0  0  0  0  0  0  0
   58.6090   29.4230   47.4570 C   0  0  0  0  0  0  0  0  0  0  0  0
   58.9240   28.6120   48.5540 C   0  0  0  0  0  0  0  0  0  0  0  0
   60.1630   28.7300   49.1840 C   0  0  0  0  0  0  0  0  0  0  0  0
   61.0990   29.6510   48.7120 C   0  0  0  0  0  0  0  0  0  0  0  0
   60.7990   30.4630   47.6140 C   0  0  0  0  0  0  0  0  0  0  0  0
   61.7340   31.3410   47.1690 F   0  0  0  0  0  0  0  0  0  0  0  0
   57.6380   32.9000   47.8650 N   0  0  0  0  0  0  0  0  0  0  0  0
   58.8880   32.8950   48.6210 C   0  0  0  0  0  0  0  0  0  0  0  0
   58.6910   32.3610   50.0210 C   0  0  0  0  0  0  0  0  0  0  0  0
   57.3930   32.1620   50.5250 C   0  0  0  0  0  0  0  0  0  0  0  0
   57.1980   31.6870   51.8320 C   0  0  0  0  0  0  0  0  0  0  0  0
   55.8130   31.4540   52.3640 C   0  0  0  0  0  0  0  0  0  0  0  0
   55.4690   30.0380   52.2630 N   0  0  0  0  0  0  0  0  0  0  0  0
   54.1510   29.5160   52.0420 C   0  0  0  0  0  0  0  0  0  0  0  0
   53.8650   28.3860   52.5210 O   0  0  0  0  0  0  0  0  0  0  0  0
   53.1130   30.2690   51.3020 C   0  0  0  0  0  0  0  0  0  0  0  0
   52.5470   31.4350   51.8440 C   0  0  0  0  0  0  0  0  0  0  0  0
   51.5450   32.1240   51.1530 C   0  0  0  0  0  0  0  0  0  0  0  0
   51.0190   33.2960   51.6840 O   0  0  0  0  0  0  0  0  0  0  0  0
   51.0670   31.6310   49.9330 C   0  0  0  0  0  0  0  0  0  0  0  0
   50.0690   32.3180   49.2510 O   0  0  0  0  0  0  0  0  0  0  0  0
   51.5910   30.4440   49.4060 C   0  0  0  0  0  0  0  0  0  0  0  0
   51.0780   29.9340   48.2140 O   0  0  0  0  0  0  0  0  0  0  0  0
   52.6140   29.7690   50.0850 C   0  0  0  0  0  0  0  0  0  0  0  0
   58.3110   31.4020   52.6350 C   0  0  0  0  0  0  0  0  0  0  0  0
   59.6020   31.6180   52.1520 C   0  0  0  0  0  0  0  0  0  0  0  0
   59.7980   32.1040   50.8550 C   0  0  0  0  0  0  0  0  0  0  0  0
   61.0980   32.3270   50.4080 O   0  0  0  0  0  0  0  0  0  0  0  0
   57.4190   31.4027   44.7899 H   0  0  0  0  0  0  0  0  0  0  0  0
   60.0559   31.4845   45.1154 H   0  0  0  0  0  0  0  0  0  0  0  0
   57.6250   29.3334   46.9736 H   0  0  0  0  0  0  0  0  0  0  0  0
   58.1910   27.8784   48.9208 H   0  0  0  0  0  0  0  0  0  0  0  0
   60.4019   28.0977   50.0519 H   0  0  0  0  0  0  0  0  0  0  0  0
   62.0778   29.7386   49.2062 H   0  0  0  0  0  0  0  0  0  0  0  0
   59.6191   32.2616   48.0972 H   0  0  0  0  0  0  0  0  0  0  0  0
   59.2479   33.9317   48.6964 H   0  0  0  0  0  0  0  0  0  0  0  0
   56.5223   32.3805   49.8893 H   0  0  0  0  0  0  0  0  0  0  0  0
   55.7711   31.7644   53.4185 H   0  0  0  0  0  0  0  0  0  0  0  0
   55.0960   32.0421   51.7724 H   0  0  0  0  0  0  0  0  0  0  0  0
   52.8943   31.8087   52.8186 H   0  0  0  0  0  0  0  0  0  0  0  0
   50.2770   30.3570   47.7590 H   0  0  0  0  0  0  0  0  0  0  0  0
   53.0299   28.8418   49.6638 H   0  0  0  0  0  0  0  0  0  0  0  0
   58.1659   31.0061   53.6510 H   0  0  0  0  0  0  0  0  0  0  0  0
   60.4695   31.4052   52.7939 H   0  0  0  0  0  0  0  0  0  0  0  0
  1  2  2  0
  2  3  1  0
  3  4  2  3
  4  5  1  0
  5  6  2  0
  6  7  1  0
  7  8  2  0
  8  9  1  0
  9 10  2  0
 10 11  1  0
  2 12  1  0
 12 13  1  0
 13 14  1  0
 14 15  2  0
 15 16  1  0
 16 17  1  0
 17 18  1  0
 18 19  1  0
 19 20  2  0
 19 21  1  0
 21 22  2  0
 22 23  1  0
 23 24  1  0
 23 25  2  0
 25 26  1  0
 25 27  1  0
 27 28  1  0
 27 29  2  0
 16 30  2  0
 30 31  1  0
 31 32  2  0
 32 33  1  0
 10  5  1  0
 32 14  1  0
 29 21  1  0
  3 34  1  0
  4 35  1  0
  6 36  1  0
  7 37  1  0
  8 38  1  0
  9 39  1  0
 13 40  1  0
 13 41  1  0
 15 42  1  0
 17 43  1  0
 17 44  1  0
 22 45  1  0
 28 46  1  0
 29 47  1  0
 30 48  1  0
 31 49  1  0
M  CHG  5  12  -1  18  -1  24  -1  26  -1  33  -1
M  END
>  <UniqueID>  (3) 
3

>  <SMILES>  (3) 
O=C(C=Cc1ccccc1F)[N-]Cc1cc(C[N-]C(=O)c2cc([O-])c([O-])c(O)c2)ccc1[O-]

>  <Energy>  (3) 
54.81849893019927

>  <Genealogy>  (3) 
O=C(C=Cc1ccccc1F)[N-]Cc1cc(C[N-]C(=O)c2cc([O-])c([O-])c(O)c2)ccc1[O-] (protonated)
O=C(C=Cc1ccccc1F)[N-]Cc1cc(C[N-]C(=O)c2cc([O-])c([O-])c(O)c2)ccc1[O-] (3D coordinates assigned)
O=C(C=Cc1ccccc1F)[N-]Cc1cc(C[N-]C(=O)c2cc([O-])c([O-])c(O)c2)ccc1[O-] (optimized conformer: 54.81849893019927 kcal/mol)

>  <smiles>  (3) 
O=C(C=Cc1ccccc1F)NCc1cc(CNC(=O)c2cc(O)c(O)c(O)c2)ccc1O

>  <score_type>  (3) 
oracle

>  <origin>  (3) 
adg

>  <m_score__min__energy>  (3) 
-19.899999999999999

>  <m_primary>  (3) 
energy

$$$$
3:0
     RDKit          3D

 57 59  0  0  0  0  0  0  0  0999 V2000
   61.0556   34.2910   50.5608 H   0  0  0  0  0  0  0  0  0  0  0  0
   61.0130   34.1930   49.4660 C   0  0  0  0  0  0  0  0  0  0  0  0
   59.8110   34.2210   48.8270 N   0  0  0  0  0  0  0  0  0  0  0  0
   59.7360   34.1030   47.4740 C   0  0  0  0  0  0  0  0  0  0  0  0
   58.5720   34.0990   46.8950 N   0  0  0  0  0  0  0  0  0  0  0  0
   58.3240   33.6650   45.2280 S   0  0  0  0  0  0  0  0  0  0  0  0
   57.2640   34.5520   44.6350 O   0  0  0  0  0  0  0  0  0  0  0  0
   59.6030   33.8600   44.4610 O   0  0  0  0  0  0  0  0  0  0  0  0
   57.7870   31.9890   45.1350 C   0  0  0  0  0  0  0  0  0  0  0  0
   56.8900   31.6040   44.1280 C   0  0  0  0  0  0  0  0  0  0  0  0
   56.6381   32.3059   43.3194 H   0  0  0  0  0  0  0  0  0  0  0  0
   56.3160   30.3310   44.1500 C   0  0  0  0  0  0  0  0  0  0  0  0
   55.6161   30.0337   43.3552 H   0  0  0  0  0  0  0  0  0  0  0  0
   56.6250   29.4310   45.1760 C   0  0  0  0  0  0  0  0  0  0  0  0
   55.8980   28.1960   45.2400 N   0  0  0  0  0  0  0  0  0  0  0  0
   56.4100   26.9230   45.6480 C   0  0  0  0  0  0  0  0  0  0  0  0
   55.7910   26.2160   46.4920 O   0  0  0  0  0  0  0  0  0  0  0  0
   57.7180   26.4550   45.0890 C   0  0  0  0  0  0  0  0  0  0  0  0
   57.9548   27.0435   44.1903 H   0  0  0  0  0  0  0  0  0  0  0  0
   57.6279   25.3869   44.8420 H   0  0  0  0  0  0  0  0  0  0  0  0
   58.8560   26.6230   46.1130 C   0  0  0  0  0  0  0  0  0  0  0  0
   59.3850   27.5656   45.9091 H   0  0  0  0  0  0  0  0  0  0  0  0
   59.5378   25.7650   46.0176 H   0  0  0  0  0  0  0  0  0  0  0  0
   58.3160   26.6540   47.5470 C   0  0  0  0  0  0  0  0  0  0  0  0
   58.1543   25.6239   47.8974 H   0  0  0  0  0  0  0  0  0  0  0  0
   57.3656   27.2077   47.5623 H   0  0  0  0  0  0  0  0  0  0  0  0
   59.2520   27.3060   48.4100 O   0  0  0  0  0  0  0  0  0  0  0  0
   59.7710   28.6020   48.2250 C   0  0  0  0  0  0  0  0  0  0  0  0
   60.6210   28.9330   47.1490 C   0  0  0  0  0  0  0  0  0  0  0  0
   60.8487   28.1809   46.3793 H   0  0  0  0  0  0  0  0  0  0  0  0
   61.1750   30.2130   47.0570 C   0  0  0  0  0  0  0  0  0  0  0  0
   61.8397   30.4639   46.2172 H   0  0  0  0  0  0  0  0  0  0  0  0
   60.8870   31.1740   48.0280 C   0  0  0  0  0  0  0  0  0  0  0  0
   61.3392   32.1746   47.9626 H   0  0  0  0  0  0  0  0  0  0  0  0
   60.0250   30.8650   49.0820 C   0  0  0  0  0  0  0  0  0  0  0  0
   59.7953   31.6247   49.8436 H   0  0  0  0  0  0  0  0  0  0  0  0
   59.4520   29.5900   49.1720 C   0  0  0  0  0  0  0  0  0  0  0  0
   58.5750   29.3060   50.2240 O   0  0  0  0  0  0  0  0  0  0  0  0
   58.5110   30.1190   51.3970 C   0  0  0  0  0  0  0  0  0  0  0  0
   59.4851   30.6051   51.5548 H   0  0  0  0  0  0  0  0  0  0  0  0
   58.2622   29.4828   52.2592 H   0  0  0  0  0  0  0  0  0  0  0  0
   57.4350   31.1880   51.2440 C   0  0  0  0  0  0  0  0  0  0  0  0
   57.1024   31.5185   52.2391 H   0  0  0  0  0  0  0  0  0  0  0  0
   57.8461   32.0456   50.6913 H   0  0  0  0  0  0  0  0  0  0  0  0
   56.5801   30.7713   50.6913 H   0  0  0  0  0  0  0  0  0  0  0  0
   57.5420   29.8110   46.1730 C   0  0  0  0  0  0  0  0  0  0  0  0
   57.7995   29.1070   46.9781 H   0  0  0  0  0  0  0  0  0  0  0  0
   58.1260   31.0780   46.1440 C   0  0  0  0  0  0  0  0  0  0  0  0
   58.8555   31.3627   46.9165 H   0  0  0  0  0  0  0  0  0  0  0  0
   60.8790   33.9690   46.7480 N   0  0  0  0  0  0  0  0  0  0  0  0
   62.1020   33.9440   47.3400 C   0  0  0  0  0  0  0  0  0  0  0  0
   63.3240   33.7450   46.5000 C   0  0  0  0  0  0  0  0  0  0  0  0
   64.1982   33.6026   47.1524 H   0  0  0  0  0  0  0  0  0  0  0  0
   63.1918   32.8566   45.8650 H   0  0  0  0  0  0  0  0  0  0  0  0
   63.4805   34.6295   45.8650 H   0  0  0  0  0  0  0  0  0  0  0  0
   62.1920   34.0400   48.7330 C   0  0  0  0  0  0  0  0  0  0  0  0
   63.1679   33.9960   49.2387 H   0  0  0  0  0  0  0  0  0  0  0  0
  1  2  1  0
  2  3  1  0
  3  4  1  0
  4  5  2  0
  5  6  1  0
  6  7  2  0
  6  8  2  0
  6  9  1  0
  9 10  2  0
 10 11  1  0
 10 12  1  0
 12 13  1  0
 12 14  2  0
 14 15  1  0
 15 16  1  0
 16 17  2  0
 16 18  1  0
 18 19  1  0
 18 20  1  0
 18 21  1  0
 21 22  1  0
 21 23  1  0
 21 24  1  0
 24 25  1  0
 24 26  1  0
 24 27  1  0
 27 28  1  0
 28 29  2  0
 29 30  1  0
 29 31  1  0
 31 32  1  0
 31 33  2  0
 33 34  1  0
 33 35  1  0
 35 36  1  0
 35 37  2  0
 37 38  1  0
 38 39  1  0
 39 40  1  0
 39 41  1  0
 39 42  1  0
 42 43  1  0
 42 44  1  0
 42 45  1  0
 14 46  1  0
 46 47  1  0
 46 48  2  0
 48 49  1  0
  4 50  1  0
 50 51  2  0
 51 52  1  0
 52 53  1  0
 52 54  1  0
 52 55  1  0
 51 56  1  0
 56 57  1  0
 56  2  2  0
 48  9  1  0
 37 28  1  0
M  CHG  2   3  -1  15  -1
M  END
>  <UniqueID>  (4) 
4

>  <SMILES>  (4) 
CCOc1ccccc1OCCCC(=O)[N-]c1ccc(S(=O)(=O)/N=c2\nc(C)cc[n-]2)cc1

>  <Energy>  (4) 
60.97698180640355

>  <Genealogy>  (4) 
CCOc1ccccc1OCCCC(=O)[N-]c1ccc(S(=O)(=O)N=c2nc(C)cc[n-]2)cc1 (protonated)
CCOc1ccccc1OCCCC(=O)[N-]c1ccc(S(=O)(=O)/N=c2\nc(C)cc[n-]2)cc1 (cis-trans isomerization)
CCOc1ccccc1OCCCC(=O)[N-]c1ccc(S(=O)(=O)/N=c2\nc(C)cc[n-]2)cc1 (3D coordinates assigned)
CCOc1ccccc1OCCCC(=O)[N-]c1ccc(S(=O)(=O)/N=c2\nc(C)cc[n-]2)cc1 (optimized conformer: 60.97698180640355 kcal/mol)

>  <smiles>  (4) 
CCOc1ccccc1OCCCC(=O)Nc1ccc(S(=O)(=O)N=c2nc(C)cc[nH]2)cc1

>  <score_type>  (4) 
oracle

>  <origin>  (4) 
adg

>  <m_score__min__energy>  (4) 
-11.06

>  <m_primary>  (4) 
energy

$$$$
4:0
     RDKit          3D

 40 41  0  0  0  0  0  0  0  0999 V2000
   58.1250   26.6460   42.2370 C   0  0  0  0  0  0  0  0  0  0  0  0
   58.5730   27.2930   43.5540 C   0  0  0  0  0  0  0  0  0  0  0  0
   57.4640   27.7870   44.3970 N   0  0  0  0  0  0  0  0  0  0  0  0
   57.6790   29.1560   44.9010 C   0  0  0  0  0  0  0  0  0  0  0  0
   56.3980   29.9500   44.8800 C   0  0  0  0  0  0  0  0  0  0  0  0
   55.3020   29.3320   44.8690 O   0  0  0  0  0  0  0  0  0  0  0  0
   56.3790   31.3860   44.8620 N   0  0  0  0  0  0  0  0  0  0  0  0
   57.4650   32.2370   45.2450 C   0  0  0  0  0  0  0  0  0  0  0  0
   57.6780   33.4210   44.5300 C   0  0  0  0  0  0  0  0  0  0  0  0
   58.7570   34.2500   44.8420 C   0  0  0  0  0  0  0  0  0  0  0  0
   59.6190   33.9100   45.8860 C   0  0  0  0  0  0  0  0  0  0  0  0
   59.3960   32.7480   46.6290 C   0  0  0  0  0  0  0  0  0  0  0  0
   58.3070   31.9050   46.3260 C   0  0  0  0  0  0  0  0  0  0  0  0
   58.0270   30.7550   47.0770 O   0  0  0  0  0  0  0  0  0  0  0  0
   58.9940   30.0230   47.8250 C   0  0  0  0  0  0  0  0  0  0  0  0
   57.0330   26.6770   45.6820 S   0  0  0  0  0  0  0  0  0  0  0  0
   55.5660   26.8010   45.9820 O   0  0  0  0  0  0  0  0  0  0  0  0
   57.8040   26.9910   46.9340 O   0  0  0  0  0  0  0  0  0  0  0  0
   57.3540   25.0230   45.1950 C   0  0  0  0  0  0  0  0  0  0  0  0
   58.3430   24.2080   45.7260 C   0  0  0  0  0  0  0  0  0  0  0  0
   58.3420   22.9210   45.1770 C   0  0  0  0  0  0  0  0  0  0  0  0
   57.3500   22.7350   44.2230 C   0  0  0  0  0  0  0  0  0  0  0  0
   57.0220   21.1260   43.2570 Br  0  0  0  0  0  0  0  0  0  0  0  0
   56.4710   24.1580   44.0550 S   0  0  0  0  0  0  0  0  0  0  0  0
   57.5111   25.7594   42.4542 H   0  0  0  0  0  0  0  0  0  0  0  0
   57.5329   27.3686   41.6563 H   0  0  0  0  0  0  0  0  0  0  0  0
   59.0097   26.3460   41.6563 H   0  0  0  0  0  0  0  0  0  0  0  0
   59.1374   26.5454   44.1306 H   0  0  0  0  0  0  0  0  0  0  0  0
   59.1785   28.1707   43.2838 H   0  0  0  0  0  0  0  0  0  0  0  0
   58.0523   29.1038   45.9344 H   0  0  0  0  0  0  0  0  0  0  0  0
   58.4108   29.6567   44.2501 H   0  0  0  0  0  0  0  0  0  0  0  0
   56.9912   33.7001   43.7174 H   0  0  0  0  0  0  0  0  0  0  0  0
   58.9279   35.1710   44.2653 H   0  0  0  0  0  0  0  0  0  0  0  0
   60.4753   34.5581   46.1241 H   0  0  0  0  0  0  0  0  0  0  0  0
   60.0742   32.4891   47.4555 H   0  0  0  0  0  0  0  0  0  0  0  0
   58.8088   30.1632   48.9002 H   0  0  0  0  0  0  0  0  0  0  0  0
   58.9178   28.9542   47.5761 H   0  0  0  0  0  0  0  0  0  0  0  0
   60.0019   30.3865   47.5761 H   0  0  0  0  0  0  0  0  0  0  0  0
   59.0536   24.5388   46.4978 H   0  0  0  0  0  0  0  0  0  0  0  0
   59.0545   22.1363   45.4711 H   0  0  0  0  0  0  0  0  0  0  0  0
  1  2  1  0
  2  3  1  0
  3  4  1  0
  4  5  1  0
  5  6  2  0
  5  7  1  0
  7  8  1  0
  8  9  2  0
  9 10  1  0
 10 11  2  0
 11 12  1  0
 12 13  2  0
 13 14  1  0
 14 15  1  0
  3 16  1  0
 16 17  2  0
 16 18  2  0
 16 19  1  0
 19 20  2  0
 20 21  1  0
 21 22  2  0
 22 23  1  0
 22 24  1  0
 13  8  1  0
 24 19  1  0
  1 25  1  0
  1 26  1  0
  1 27  1  0
  2 28  1  0
  2 29  1  0
  4 30  1  0
  4 31  1  0
  9 32  1  0
 10 33  1  0
 11 34  1  0
 12 35  1  0
 15 36  1  0
 15 37  1  0
 15 38  1  0
 20 39  1  0
 21 40  1  0
M  CHG  1   7  -1
M  END
>  <UniqueID>  (5) 
5

>  <SMILES>  (5) 
CCN(CC(=O)[N-]c1ccccc1OC)S(=O)(=O)c1ccc(Br)s1

>  <Energy>  (5) 
69.91961198717351

>  <Genealogy>  (5) 
CCN(CC(=O)[N-]c1ccccc1OC)S(=O)(=O)c1ccc(Br)s1 (protonated)
CCN(CC(=O)[N-]c1ccccc1OC)S(=O)(=O)c1ccc(Br)s1 (3D coordinates assigned)
CCN(CC(=O)[N-]c1ccccc1OC)S(=O)(=O)c1ccc(Br)s1 (optimized conformer: 69.91961198717351 kcal/mol)

>  <smiles>  (5) 
CCN(CC(=O)Nc1ccccc1OC)S(=O)(=O)c1ccc(Br)s1

>  <score_type>  (5) 
oracle

>  <origin>  (5) 
adg

>  <m_score__min__energy>  (5) 
-11.42

>  <m_primary>  (5) 
energy

$$$$
5:0
     RDKit          3D

 41 42  0  0  0  0  0  0  0  0999 V2000
   57.3470   24.8740   43.8080 C   0  0  0  0  0  0  0  0  0  0  0  0
   56.8010   24.4930   45.1820 C   0  0  0  0  0  0  0  0  0  0  0  0
   56.3930   25.7240   46.0030 C   0  0  0  0  0  0  0  0  0  0  0  0
   56.8510   26.9670   45.3750 N   0  0  0  0  0  0  0  0  0  0  0  0
   57.9910   27.7370   45.8170 C   0  0  0  0  0  0  0  0  0  0  0  0
   59.0380   27.1170   46.5310 C   0  0  0  0  0  0  0  0  0  0  0  0
   60.1320   27.8570   46.9810 C   0  0  0  0  0  0  0  0  0  0  0  0
   60.2000   29.2250   46.7350 C   0  0  0  0  0  0  0  0  0  0  0  0
   59.1760   29.8590   46.0340 C   0  0  0  0  0  0  0  0  0  0  0  0
   58.0690   29.1320   45.5650 C   0  0  0  0  0  0  0  0  0  0  0  0
   56.8140   29.9890   44.6540 S   0  0  0  0  0  0  0  0  0  0  0  0
   55.5090   29.2630   44.8240 O   0  0  0  0  0  0  0  0  0  0  0  0
   57.2080   30.0320   43.2040 O   0  0  0  0  0  0  0  0  0  0  0  0
   56.6560   31.6110   45.2460 N   0  0  0  0  0  0  0  0  0  0  0  0
   57.6650   32.6350   45.3220 C   0  0  0  0  0  0  0  0  0  0  0  0
   58.0030   33.1040   46.5990 C   0  0  0  0  0  0  0  0  0  0  0  0
   58.9710   34.1030   46.7680 C   0  0  0  0  0  0  0  0  0  0  0  0
   59.3510   34.5630   48.1450 C   0  0  0  0  0  0  0  0  0  0  0  0
   59.6300   34.6200   45.6470 C   0  0  0  0  0  0  0  0  0  0  0  0
   59.3000   34.1680   44.3680 C   0  0  0  0  0  0  0  0  0  0  0  0
   58.3170   33.1830   44.1910 C   0  0  0  0  0  0  0  0  0  0  0  0
   58.0010   32.7700   42.9000 O   0  0  0  0  0  0  0  0  0  0  0  0
   58.2435   25.4996   43.9303 H   0  0  0  0  0  0  0  0  0  0  0  0
   57.6094   23.9619   43.2519 H   0  0  0  0  0  0  0  0  0  0  0  0
   56.5815   25.4350   43.2519 H   0  0  0  0  0  0  0  0  0  0  0  0
   55.9198   23.8486   45.0472 H   0  0  0  0  0  0  0  0  0  0  0  0
   57.5983   23.9695   45.7300 H   0  0  0  0  0  0  0  0  0  0  0  0
   55.2965   25.7495   46.0874 H   0  0  0  0  0  0  0  0  0  0  0  0
   56.8615   25.6467   46.9953 H   0  0  0  0  0  0  0  0  0  0  0  0
   56.2880   27.3030   44.5640 H   0  0  0  0  0  0  0  0  0  0  0  0
   58.9913   26.0372   46.7354 H   0  0  0  0  0  0  0  0  0  0  0  0
   60.9428   27.3577   47.5317 H   0  0  0  0  0  0  0  0  0  0  0  0
   61.0623   29.8060   47.0940 H   0  0  0  0  0  0  0  0  0  0  0  0
   59.2351   30.9411   45.8457 H   0  0  0  0  0  0  0  0  0  0  0  0
   57.5008   32.6815   47.4817 H   0  0  0  0  0  0  0  0  0  0  0  0
   58.8378   33.9417   48.8938 H   0  0  0  0  0  0  0  0  0  0  0  0
   60.4393   34.4702   48.2753 H   0  0  0  0  0  0  0  0  0  0  0  0
   59.0544   35.6142   48.2753 H   0  0  0  0  0  0  0  0  0  0  0  0
   60.4104   35.3848   45.7739 H   0  0  0  0  0  0  0  0  0  0  0  0
   59.8152   34.5879   43.4915 H   0  0  0  0  0  0  0  0  0  0  0  0
   57.4260   31.9540   42.7250 H   0  0  0  0  0  0  0  0  0  0  0  0
  1  2  1  0
  2  3  1  0
  3  4  1  0
  4  5  1  0
  5  6  2  0
  6  7  1  0
  7  8  2  0
  8  9  1  0
  9 10  2  0
 10 11  1  0
 11 12  2  0
 11 13  2  0
 11 14  1  0
 14 15  1  0
 15 16  2  0
 16 17  1  0
 17 18  1  0
 17 19  2  0
 19 20  1  0
 20 21  2  0
 21 22  1  0
 10  5  1  0
 21 15  1  0
  1 23  1  0
  1 24  1  0
  1 25  1  0
  2 26  1  0
  2 27  1  0
  3 28  1  0
  3 29  1  0
  4 30  1  0
  6 31  1  0
  7 32  1  0
  8 33  1  0
  9 34  1  0
 16 35  1  0
 18 36  1  0
 18 37  1  0
 18 38  1  0
 19 39  1  0
 20 40  1  0
 22 41  1  0
M  CHG  1  14  -1
M  END
>  <UniqueID>  (6) 
6

>  <SMILES>  (6) 
CCCNc1ccccc1S(=O)(=O)[N-]c1cc(C)ccc1O

>  <Energy>  (6) 
45.125789496627604

>  <Genealogy>  (6) 
CCCNc1ccccc1S(=O)(=O)[N-]c1cc(C)ccc1O (protonated)
CCCNc1ccccc1S(=O)(=O)[N-]c1cc(C)ccc1O (3D coordinates assigned)
CCCNc1ccccc1S(=O)(=O)[N-]c1cc(C)ccc1O (optimized conformer: 45.125789496627604 kcal/mol)

>  <smiles>  (6) 
CCCNc1ccccc1S(=O)(=O)Nc1cc(C)ccc1O

>  <score_type>  (6) 
oracle

>  <origin>  (6) 
adg

>  <m_score__min__energy>  (6) 
-9.2200000000000006

>  <m_primary>  (6) 
energy

$$$$
6:0
     RDKit          3D

 34 35  0  0  0  0  0  0  0  0999 V2000
   57.3740   31.8230   41.7700 C   0  0  0  0  0  0  0  0  0  0  0  0
   58.1390   32.7140   42.7440 C   0  0  0  0  0  0  0  0  0  0  0  0
   57.7740   32.4000   44.1330 N   0  0  0  0  0  0  0  0  0  0  0  0
   57.6110   33.4810   45.0720 C   0  0  0  0  0  0  0  0  0  0  0  0
   56.7130   34.3440   44.8670 O   0  0  0  0  0  0  0  0  0  0  0  0
   58.4670   33.5960   46.2760 C   0  0  0  0  0  0  0  0  0  0  0  0
   59.5680   34.4720   46.2830 C   0  0  0  0  0  0  0  0  0  0  0  0
   60.3670   34.5960   47.4220 C   0  0  0  0  0  0  0  0  0  0  0  0
   60.0720   33.8560   48.5700 C   0  0  0  0  0  0  0  0  0  0  0  0
   58.9740   32.9920   48.5790 C   0  0  0  0  0  0  0  0  0  0  0  0
   58.1720   32.8640   47.4410 C   0  0  0  0  0  0  0  0  0  0  0  0
   57.2600   31.0890   44.4560 C   0  0  0  0  0  0  0  0  0  0  0  0
   56.0120   30.9060   44.5140 O   0  0  0  0  0  0  0  0  0  0  0  0
   58.1610   29.9400   44.7160 C   0  0  0  0  0  0  0  0  0  0  0  0
   59.2700   30.0960   45.5680 C   0  0  0  0  0  0  0  0  0  0  0  0
   60.1210   29.0150   45.8240 C   0  0  0  0  0  0  0  0  0  0  0  0
   59.8680   27.7700   45.2440 C   0  0  0  0  0  0  0  0  0  0  0  0
   58.7610   27.6020   44.4090 C   0  0  0  0  0  0  0  0  0  0  0  0
   57.9080   28.6790   44.1490 C   0  0  0  0  0  0  0  0  0  0  0  0
   56.7589   31.1065   42.3342 H   0  0  0  0  0  0  0  0  0  0  0  0
   56.7244   32.4451   41.1368 H   0  0  0  0  0  0  0  0  0  0  0  0
   58.0872   31.2750   41.1368 H   0  0  0  0  0  0  0  0  0  0  0  0
   59.2187   32.5525   42.6092 H   0  0  0  0  0  0  0  0  0  0  0  0
   57.8813   33.7637   42.5396 H   0  0  0  0  0  0  0  0  0  0  0  0
   59.8012   35.0633   45.3853 H   0  0  0  0  0  0  0  0  0  0  0  0
   61.2303   35.2777   47.4152 H   0  0  0  0  0  0  0  0  0  0  0  0
   60.7034   33.9535   49.4655 H   0  0  0  0  0  0  0  0  0  0  0  0
   58.7401   32.4112   49.4834 H   0  0  0  0  0  0  0  0  0  0  0  0
   57.3052   32.1870   47.4564 H   0  0  0  0  0  0  0  0  0  0  0  0
   59.4689   31.0720   46.0348 H   0  0  0  0  0  0  0  0  0  0  0  0
   60.9914   29.1462   46.4837 H   0  0  0  0  0  0  0  0  0  0  0  0
   60.5399   26.9225   45.4446 H   0  0  0  0  0  0  0  0  0  0  0  0
   58.5598   26.6204   43.9550 H   0  0  0  0  0  0  0  0  0  0  0  0
   57.0335   28.5385   43.4967 H   0  0  0  0  0  0  0  0  0  0  0  0
  1  2  1  0
  2  3  1  0
  3  4  1  0
  4  5  2  0
  4  6  1  0
  6  7  2  0
  7  8  1  0
  8  9  2  0
  9 10  1  0
 10 11  2  0
  3 12  1  0
 12 13  2  0
 12 14  1  0
 14 15  2  0
 15 16  1  0
 16 17  2  0
 17 18  1  0
 18 19  2  0
 11  6  1  0
 19 14  1  0
  1 20  1  0
  1 21  1  0
  1 22  1  0
  2 23  1  0
  2 24  1  0
  7 25  1  0
  8 26  1  0
  9 27  1  0
 10 28  1  0
 11 29  1  0
 15 30  1  0
 16 31  1  0
 17 32  1  0
 18 33  1  0
 19 34  1  0
M  END
>  <UniqueID>  (7) 
7

>  <SMILES>  (7) 
CCN(C(=O)c1ccccc1)C(=O)c1ccccc1

>  <Energy>  (7) 
41.77750950644425

>  <Genealogy>  (7) 
CCN(C(=O)c1ccccc1)C(=O)c1ccccc1 (3D coordinates assigned)
CCN(C(=O)c1ccccc1)C(=O)c1ccccc1 (optimized conformer: 41.77750950644425 kcal/mol)

>  <smiles>  (7) 
CCN(C(=O)c1ccccc1)C(=O)c1ccccc1

>  <score_type>  (7) 
oracle

>  <origin>  (7) 
adg

>  <m_score__min__energy>  (7) 
-7.1900000000000004

>  <m_primary>  (7) 
energy

$$$$
7:0
     RDKit          3D

 58 61  0  0  0  0  0  0  0  0999 V2000
   57.9860   28.5830   43.4010 O   0  0  0  0  0  0  0  0  0  0  0  0
   57.0430   29.0390   44.1010 C   0  0  0  0  0  0  0  0  0  0  0  0
   56.1220   30.0650   43.5150 C   0  0  0  0  0  0  0  0  0  0  0  0
   57.0590   31.3180   42.5680 S   0  0  0  0  0  0  0  0  0  0  0  0
   57.6990   32.1610   44.0160 C   0  0  0  0  0  0  0  0  0  0  0  0
   58.1900   33.4550   43.9140 C   0  0  0  0  0  0  0  0  0  0  0  0
   58.6460   34.0890   45.0660 C   0  0  0  0  0  0  0  0  0  0  0  0
   59.0780   35.2690   44.9760 O   0  0  0  0  0  0  0  0  0  0  0  0
   58.6200   33.4380   46.2740 N   0  0  0  0  0  0  0  0  0  0  0  0
   59.1000   34.1170   47.4900 C   0  0  0  0  0  0  0  0  0  0  0  0
   60.5820   33.9210   47.6630 C   0  0  0  0  0  0  0  0  0  0  0  0
   61.1650   33.9820   48.9430 C   0  0  0  0  0  0  0  0  0  0  0  0
   62.5420   33.8020   49.0990 C   0  0  0  0  0  0  0  0  0  0  0  0
   63.3470   33.5640   47.9800 C   0  0  0  0  0  0  0  0  0  0  0  0
   62.7780   33.5100   46.7050 C   0  0  0  0  0  0  0  0  0  0  0  0
   61.4010   33.6920   46.5440 C   0  0  0  0  0  0  0  0  0  0  0  0
   58.1580   32.1480   46.3330 C   0  0  0  0  0  0  0  0  0  0  0  0
   58.1400   31.5160   47.4230 O   0  0  0  0  0  0  0  0  0  0  0  0
   57.7030   31.5320   45.2140 N   0  0  0  0  0  0  0  0  0  0  0  0
   56.8350   28.5680   45.4390 N   0  0  0  0  0  0  0  0  0  0  0  0
   57.8010   27.7930   46.1730 C   0  0  0  0  0  0  0  0  0  0  0  0
   59.0980   28.2940   46.3960 C   0  0  0  0  0  0  0  0  0  0  0  0
   60.0160   27.5710   47.1610 C   0  0  0  0  0  0  0  0  0  0  0  0
   59.6500   26.3500   47.7220 C   0  0  0  0  0  0  0  0  0  0  0  0
   58.3650   25.8440   47.5190 C   0  0  0  0  0  0  0  0  0  0  0  0
   57.4360   26.5550   46.7460 C   0  0  0  0  0  0  0  0  0  0  0  0
   56.1070   25.9660   46.5120 C   0  0  0  0  0  0  0  0  0  0  0  0
   55.1990   26.6730   46.0060 O   0  0  0  0  0  0  0  0  0  0  0  0
   55.8180   24.6120   46.8860 N   0  0  0  0  0  0  0  0  0  0  0  0
   56.7480   23.5040   46.7060 C   0  0  0  0  0  0  0  0  0  0  0  0
   56.7210   23.0590   45.2730 C   0  0  0  0  0  0  0  0  0  0  0  0
   55.8880   23.7010   44.3430 C   0  0  0  0  0  0  0  0  0  0  0  0
   55.8420   23.2580   43.0190 C   0  0  0  0  0  0  0  0  0  0  0  0
   56.6110   22.1620   42.6170 C   0  0  0  0  0  0  0  0  0  0  0  0
   57.4320   21.5090   43.5400 C   0  0  0  0  0  0  0  0  0  0  0  0
   57.4880   21.9530   44.8640 C   0  0  0  0  0  0  0  0  0  0  0  0
   55.4076   29.5661   42.8436 H   0  0  0  0  0  0  0  0  0  0  0  0
   55.5904   30.5695   44.3353 H   0  0  0  0  0  0  0  0  0  0  0  0
   58.2182   33.9693   42.9421 H   0  0  0  0  0  0  0  0  0  0  0  0
   58.8856   35.1930   47.4105 H   0  0  0  0  0  0  0  0  0  0  0  0
   58.5838   33.6865   48.3608 H   0  0  0  0  0  0  0  0  0  0  0  0
   60.5341   34.1721   49.8238 H   0  0  0  0  0  0  0  0  0  0  0  0
   62.9927   33.8474   50.1014 H   0  0  0  0  0  0  0  0  0  0  0  0
   64.4303   33.4190   48.1041 H   0  0  0  0  0  0  0  0  0  0  0  0
   63.4140   33.3241   45.8270 H   0  0  0  0  0  0  0  0  0  0  0  0
   60.9572   33.6558   45.5381 H   0  0  0  0  0  0  0  0  0  0  0  0
   55.9100   28.7650   45.8830 H   0  0  0  0  0  0  0  0  0  0  0  0
   59.3905   29.2625   45.9642 H   0  0  0  0  0  0  0  0  0  0  0  0
   61.0299   27.9667   47.3207 H   0  0  0  0  0  0  0  0  0  0  0  0
   60.3744   25.7837   48.3258 H   0  0  0  0  0  0  0  0  0  0  0  0
   58.0794   24.8814   47.9683 H   0  0  0  0  0  0  0  0  0  0  0  0
   57.7645   23.8314   46.9696 H   0  0  0  0  0  0  0  0  0  0  0  0
   56.4533   22.6673   47.3564 H   0  0  0  0  0  0  0  0  0  0  0  0
   55.2701   24.5549   44.6577 H   0  0  0  0  0  0  0  0  0  0  0  0
   55.1987   23.7732   42.2905 H   0  0  0  0  0  0  0  0  0  0  0  0
   56.5698   21.8138   41.5744 H   0  0  0  0  0  0  0  0  0  0  0  0
   58.0348   20.6447   43.2243 H   0  0  0  0  0  0  0  0  0  0  0  0
   58.1340   21.4358   45.5887 H   0  0  0  0  0  0  0  0  0  0  0  0
  1  2  2  0
  2  3  1  0
  3  4  1  0
  4  5  1  0
  5  6  2  0
  6  7  1  0
  7  8  2  0
  7  9  1  0
  9 10  1  0
 10 11  1  0
 11 12  2  0
 12 13  1  0
 13 14  2  0
 14 15  1  0
 15 16  2  0
  9 17  1  0
 17 18  2  0
 17 19  1  0
  2 20  1  0
 20 21  1  0
 21 22  2  0
 22 23  1  0
 23 24  2  0
 24 25  1  0
 25 26  2  0
 26 27  1  0
 27 28  2  0
 27 29  1  0
 29 30  1  0
 30 31  1  0
 31 32  2  0
 32 33  1  0
 33 34  2  0
 34 35  1  0
 35 36  2  0
 19  5  1  0
 26 21  1  0
 36 31  1  0
 16 11  1  0
  3 37  1  0
  3 38  1  0
  6 39  1  0
 10 40  1  0
 10 41  1  0
 12 42  1  0
 13 43  1  0
 14 44  1  0
 15 45  1  0
 16 46  1  0
 20 47  1  0
 22 48  1  0
 23 49  1  0
 24 50  1  0
 25 51  1  0
 30 52  1  0
 30 53  1  0
 32 54  1  0
 33 55  1  0
 34 56  1  0
 35 57  1  0
 36 58  1  0
M  CHG  2  19  -1  29  -1
M  END
>  <UniqueID>  (8) 
8

>  <SMILES>  (8) 
O=C(CSc1cc(=O)n(Cc2ccccc2)c(=O)[n-]1)Nc1ccccc1C(=O)[N-]Cc1ccccc1

>  <Energy>  (8) 
68.60004029748058

>  <Genealogy>  (8) 
O=C(CSc1cc(=O)n(Cc2ccccc2)c(=O)[n-]1)Nc1ccccc1C(=O)[N-]Cc1ccccc1 (protonated)
O=C(CSc1cc(=O)n(Cc2ccccc2)c(=O)[n-]1)Nc1ccccc1C(=O)[N-]Cc1ccccc1 (3D coordinates assigned)
O=C(CSc1cc(=O)n(Cc2ccccc2)c(=O)[n-]1)Nc1ccccc1C(=O)[N-]Cc1ccccc1 (optimized conformer: 68.60004029748058 kcal/mol)

>  <smiles>  (8) 
O=C(CSc1cc(=O)n(Cc2ccccc2)c(=O)[nH]1)Nc1ccccc1C(=O)NCc1ccccc1

>  <score_type>  (8) 
oracle

>  <origin>  (8) 
adg

>  <m_score__min__energy>  (8) 
-13.800000000000001

>  <m_primary>  (8) 
energy

$$$$
8:0
     RDKit          3D

 32 33  0  0  0  0  0  0  0  0999 V2000
   63.3920   33.7220   47.2980 C   0  0  0  0  0  0  0  0  0  0  0  0
   62.1990   33.8480   46.4710 N   0  0  0  0  0  0  0  0  0  0  0  0
   60.9260   34.2000   47.0330 C   0  0  0  0  0  0  0  0  0  0  0  0
   60.8490   34.5710   48.2330 O   0  0  0  0  0  0  0  0  0  0  0  0
   59.7400   34.2000   46.2300 N   0  0  0  0  0  0  0  0  0  0  0  0
   58.9620   33.0480   45.8770 C   0  0  0  0  0  0  0  0  0  0  0  0
   58.1360   33.0360   44.7400 C   0  0  0  0  0  0  0  0  0  0  0  0
   57.4150   31.8860   44.4050 C   0  0  0  0  0  0  0  0  0  0  0  0
   57.5270   30.7310   45.1890 C   0  0  0  0  0  0  0  0  0  0  0  0
   56.6240   29.2830   44.7510 S   0  0  0  0  0  0  0  0  0  0  0  0
   57.0270   28.8560   43.3680 O   0  0  0  0  0  0  0  0  0  0  0  0
   55.1460   29.5560   44.7680 O   0  0  0  0  0  0  0  0  0  0  0  0
   56.9740   28.0030   45.8690 N   0  0  0  0  0  0  0  0  0  0  0  0
   56.6960   26.7550   45.6470 C   0  0  0  0  0  0  0  0  0  0  0  0
   57.6060   25.9270   45.0630 N   0  0  0  0  0  0  0  0  0  0  0  0
   57.3140   24.6220   44.8240 C   0  0  0  0  0  0  0  0  0  0  0  0
   56.0650   24.1140   45.1780 C   0  0  0  0  0  0  0  0  0  0  0  0
   55.1450   24.9730   45.7750 C   0  0  0  0  0  0  0  0  0  0  0  0
   55.4750   26.2730   45.9970 N   0  0  0  0  0  0  0  0  0  0  0  0
   58.3670   30.7340   46.3100 C   0  0  0  0  0  0  0  0  0  0  0  0
   59.0880   31.8850   46.6450 C   0  0  0  0  0  0  0  0  0  0  0  0
   63.1068   33.7521   48.3600 H   0  0  0  0  0  0  0  0  0  0  0  0
   63.8906   32.7662   47.0792 H   0  0  0  0  0  0  0  0  0  0  0  0
   64.0792   34.5526   47.0792 H   0  0  0  0  0  0  0  0  0  0  0  0
   62.2910   33.7130   45.4390 H   0  0  0  0  0  0  0  0  0  0  0  0
   58.0565   33.9350   44.1112 H   0  0  0  0  0  0  0  0  0  0  0  0
   56.7578   31.8884   43.5229 H   0  0  0  0  0  0  0  0  0  0  0  0
   58.0616   23.9675   44.3521 H   0  0  0  0  0  0  0  0  0  0  0  0
   55.8119   23.0601   44.9904 H   0  0  0  0  0  0  0  0  0  0  0  0
   54.1522   24.5997   46.0666 H   0  0  0  0  0  0  0  0  0  0  0  0
   58.4599   29.8290   46.9284 H   0  0  0  0  0  0  0  0  0  0  0  0
   59.7580   31.8758   47.5174 H   0  0  0  0  0  0  0  0  0  0  0  0
  1  2  1  0
  2  3  1  0
  3  4  2  0
  3  5  1  0
  5  6  1  0
  6  7  2  0
  7  8  1  0
  8  9  2  0
  9 10  1  0
 10 11  2  0
 10 12  2  0
 10 13  1  0
 13 14  2  3
 14 15  1  0
 15 16  2  0
 16 17  1  0
 17 18  2  0
 18 19  1  0
  9 20  1  0
 20 21  2  0
 21  6  1  0
 19 14  1  0
  1 22  1  0
  1 23  1  0
  1 24  1  0
  2 25  1  0
  7 26  1  0
  8 27  1  0
 16 28  1  0
 17 29  1  0
 18 30  1  0
 20 31  1  0
 21 32  1  0
M  CHG  2   5  -1  19  -1
M  END
>  <UniqueID>  (9) 
9

>  <SMILES>  (9) 
CNC(=O)[N-]c1ccc(S(=O)(=O)N=c2nccc[n-]2)cc1

>  <Energy>  (9) 
37.46947377224136

>  <Genealogy>  (9) 
CNC(=O)[N-]c1ccc(S(=O)(=O)N=c2nccc[n-]2)cc1 (protonated)
CNC(=O)[N-]c1ccc(S(=O)(=O)N=c2nccc[n-]2)cc1 (3D coordinates assigned)
CNC(=O)[N-]c1ccc(S(=O)(=O)N=c2nccc[n-]2)cc1 (optimized conformer: 37.46947377224136 kcal/mol)

>  <smiles>  (9) 
CNC(=O)Nc1ccc(S(=O)(=O)N=c2nccc[nH]2)cc1

>  <score_type>  (9) 
oracle

>  <origin>  (9) 
adg

>  <m_score__min__energy>  (9) 
-9.7100000000000009

>  <m_primary>  (9) 
energy

$$$$
9:0
     RDKit          3D

 36 38  0  0  0  0  0  0  0  0999 V2000
   60.5910   34.1650   49.0200 C   0  0  0  0  0  0  0  0  0  0  0  0
   59.2900   34.2320   48.4470 O   0  0  0  0  0  0  0  0  0  0  0  0
   58.9910   33.9240   47.1090 C   0  0  0  0  0  0  0  0  0  0  0  0
   58.4940   32.6620   46.7270 C   0  0  0  0  0  0  0  0  0  0  0  0
   58.2040   32.3790   45.3810 C   0  0  0  0  0  0  0  0  0  0  0  0
   57.6820   31.0440   45.0080 C   0  0  0  0  0  0  0  0  0  0  0  0
   58.3840   29.8540   44.9360 C   0  0  0  0  0  0  0  0  0  0  0  0
   57.4280   28.9370   44.5490 C   0  0  0  0  0  0  0  0  0  0  0  0
   57.6440   27.5040   44.3200 C   0  0  0  0  0  0  0  0  0  0  0  0
   57.9880   27.0960   43.1780 O   0  0  0  0  0  0  0  0  0  0  0  0
   57.5120   26.5880   45.4150 N   0  0  0  0  0  0  0  0  0  0  0  0
   56.7350   25.3810   45.4330 C   0  0  0  0  0  0  0  0  0  0  0  0
   57.2980   24.1310   45.1160 C   0  0  0  0  0  0  0  0  0  0  0  0
   56.5040   22.9790   45.1200 C   0  0  0  0  0  0  0  0  0  0  0  0
   55.1440   23.0660   45.4270 C   0  0  0  0  0  0  0  0  0  0  0  0
   54.5730   24.3060   45.7200 C   0  0  0  0  0  0  0  0  0  0  0  0
   55.3620   25.4620   45.7170 C   0  0  0  0  0  0  0  0  0  0  0  0
   54.7780   26.6910   46.0030 O   0  0  0  0  0  0  0  0  0  0  0  0
   56.2410   29.5530   44.4020 N   0  0  0  0  0  0  0  0  0  0  0  0
   56.4290   30.8080   44.6850 O   0  0  0  0  0  0  0  0  0  0  0  0
   58.4140   33.3770   44.4150 C   0  0  0  0  0  0  0  0  0  0  0  0
   58.9060   34.6290   44.7870 C   0  0  0  0  0  0  0  0  0  0  0  0
   59.1950   34.9080   46.1250 C   0  0  0  0  0  0  0  0  0  0  0  0
   59.6850   36.1710   46.4590 O   0  0  0  0  0  0  0  0  0  0  0  0
   60.5092   34.1692   50.1169 H   0  0  0  0  0  0  0  0  0  0  0  0
   61.0885   33.2400   48.6930 H   0  0  0  0  0  0  0  0  0  0  0  0
   61.1809   35.0340   48.6930 H   0  0  0  0  0  0  0  0  0  0  0  0
   58.3309   31.8884   47.4919 H   0  0  0  0  0  0  0  0  0  0  0  0
   59.4510   29.6800   45.1391 H   0  0  0  0  0  0  0  0  0  0  0  0
   58.3664   24.0593   44.8641 H   0  0  0  0  0  0  0  0  0  0  0  0
   56.9515   22.0030   44.8810 H   0  0  0  0  0  0  0  0  0  0  0  0
   54.5232   22.1580   45.4379 H   0  0  0  0  0  0  0  0  0  0  0  0
   53.5003   24.3745   45.9538 H   0  0  0  0  0  0  0  0  0  0  0  0
   58.1892   33.1704   43.3582 H   0  0  0  0  0  0  0  0  0  0  0  0
   59.0674   35.4018   44.0210 H   0  0  0  0  0  0  0  0  0  0  0  0
   59.6460   36.5330   47.4050 H   0  0  0  0  0  0  0  0  0  0  0  0
  1  2  1  0
  2  3  1  0
  3  4  2  0
  4  5  1  0
  5  6  1  0
  6  7  2  0
  7  8  1  0
  8  9  1  0
  9 10  2  0
  9 11  1  0
 11 12  1  0
 12 13  2  0
 13 14  1  0
 14 15  2  0
 15 16  1  0
 16 17  2  0
 17 18  1  0
  8 19  2  0
 19 20  1  0
  5 21  2  0
 21 22  1  0
 22 23  2  0
 23 24  1  0
 23  3  1  0
 20  6  1  0
 17 12  1  0
  1 25  1  0
  1 26  1  0
  1 27  1  0
  4 28  1  0
  7 29  1  0
 13 30  1  0
 14 31  1  0
 15 32  1  0
 16 33  1  0
 21 34  1  0
 22 35  1  0
 24 36  1  0
M  CHG  2  11  -1  18  -1
M  END
>  <UniqueID>  (10) 
10

>  <SMILES>  (10) 
COc1cc(-c2cc(C(=O)[N-]c3ccccc3[O-])no2)ccc1O

>  <Energy>  (10) 
72.60428109893898

>  <Genealogy>  (10) 
COc1cc(-c2cc(C(=O)[N-]c3ccccc3[O-])no2)ccc1O (protonated)
COc1cc(-c2cc(C(=O)[N-]c3ccccc3[O-])no2)ccc1O (3D coordinates assigned)
COc1cc(-c2cc(C(=O)[N-]c3ccccc3[O-])no2)ccc1O (optimized conformer: 72.60428109893898 kcal/mol)

>  <smiles>  (10) 
COc1cc(-c2cc(C(=O)Nc3ccccc3O)no2)ccc1O

>  <score_type>  (10) 
oracle

>  <origin>  (10) 
adg

>  <m_score__min__energy>  (10) 
-13.050000000000001

>  <m_primary>  (10) 
energy

$$$$
10:0
     RDKit          3D

 49 51  0  0  0  0  0  0  0  0999 V2000
   53.2130   22.9970   45.9930 C   0  0  0  0  0  0  0  0  0  0  0  0
   53.9060   23.3900   44.8140 O   0  0  0  0  0  0  0  0  0  0  0  0
   55.2990   23.3130   44.6440 C   0  0  0  0  0  0  0  0  0  0  0  0
   55.9070   22.2250   43.9840 C   0  0  0  0  0  0  0  0  0  0  0  0
   57.2960   22.1600   43.8610 C   0  0  0  0  0  0  0  0  0  0  0  0
   58.0940   23.1710   44.3960 C   0  0  0  0  0  0  0  0  0  0  0  0
   57.5060   24.2560   45.0460 C   0  0  0  0  0  0  0  0  0  0  0  0
   56.1100   24.3450   45.1590 C   0  0  0  0  0  0  0  0  0  0  0  0
   55.5160   25.5080   45.8520 C   0  0  0  0  0  0  0  0  0  0  0  0
   54.3110   25.7980   45.6300 O   0  0  0  0  0  0  0  0  0  0  0  0
   56.2610   26.3110   46.7760 N   0  0  0  0  0  0  0  0  0  0  0  0
   57.3730   27.1950   46.4280 C   0  0  0  0  0  0  0  0  0  0  0  0
   57.0990   27.8900   45.0920 C   0  0  0  0  0  0  0  0  0  0  0  0
   56.6700   29.3240   45.2750 C   0  0  0  0  0  0  0  0  0  0  0  0
   55.5640   29.7090   44.8120 O   0  0  0  0  0  0  0  0  0  0  0  0
   57.5030   30.2750   45.9500 N   0  0  0  0  0  0  0  0  0  0  0  0
   57.8630   31.5760   45.4620 C   0  0  0  0  0  0  0  0  0  0  0  0
   57.7580   31.8890   44.0950 C   0  0  0  0  0  0  0  0  0  0  0  0
   58.1530   33.1450   43.6260 C   0  0  0  0  0  0  0  0  0  0  0  0
   58.6700   34.0920   44.5120 C   0  0  0  0  0  0  0  0  0  0  0  0
   58.7980   33.7840   45.8690 C   0  0  0  0  0  0  0  0  0  0  0  0
   58.4000   32.5290   46.3480 C   0  0  0  0  0  0  0  0  0  0  0  0
   58.5590   32.1720   48.1020 S   0  0  0  0  0  0  0  0  0  0  0  0
   60.2810   32.6720   48.1410 C   0  0  0  0  0  0  0  0  0  0  0  0
   61.2440   31.9260   47.4480 C   0  0  0  0  0  0  0  0  0  0  0  0
   62.5850   32.3230   47.4690 C   0  0  0  0  0  0  0  0  0  0  0  0
   62.9670   33.4610   48.1860 C   0  0  0  0  0  0  0  0  0  0  0  0
   62.0080   34.2040   48.8820 C   0  0  0  0  0  0  0  0  0  0  0  0
   60.6670   33.8080   48.8640 C   0  0  0  0  0  0  0  0  0  0  0  0
   53.7819   23.3196   46.8775 H   0  0  0  0  0  0  0  0  0  0  0  0
   52.2176   23.4650   46.0065 H   0  0  0  0  0  0  0  0  0  0  0  0
   53.1037   21.9025   46.0065 H   0  0  0  0  0  0  0  0  0  0  0  0
   55.2829   21.4227   43.5636 H   0  0  0  0  0  0  0  0  0  0  0  0
   57.7620   21.3099   43.3412 H   0  0  0  0  0  0  0  0  0  0  0  0
   59.1887   23.1126   44.3052 H   0  0  0  0  0  0  0  0  0  0  0  0
   58.1404   25.0468   45.4727 H   0  0  0  0  0  0  0  0  0  0  0  0
   57.4930   27.9545   47.2146 H   0  0  0  0  0  0  0  0  0  0  0  0
   58.2920   26.5971   46.3392 H   0  0  0  0  0  0  0  0  0  0  0  0
   58.0172   27.8692   44.4867 H   0  0  0  0  0  0  0  0  0  0  0  0
   56.2791   27.3526   44.5930 H   0  0  0  0  0  0  0  0  0  0  0  0
   57.3630   31.1415   43.3913 H   0  0  0  0  0  0  0  0  0  0  0  0
   58.0564   33.3876   42.5575 H   0  0  0  0  0  0  0  0  0  0  0  0
   58.9768   35.0813   44.1416 H   0  0  0  0  0  0  0  0  0  0  0  0
   59.2127   34.5295   46.5635 H   0  0  0  0  0  0  0  0  0  0  0  0
   60.9451   31.0280   46.8874 H   0  0  0  0  0  0  0  0  0  0  0  0
   63.3396   31.7396   46.9211 H   0  0  0  0  0  0  0  0  0  0  0  0
   64.0220   33.7720   48.2027 H   0  0  0  0  0  0  0  0  0  0  0  0
   62.3088   35.1005   49.4439 H   0  0  0  0  0  0  0  0  0  0  0  0
   59.9148   34.3889   49.4179 H   0  0  0  0  0  0  0  0  0  0  0  0
  1  2  1  0
  2  3  1  0
  3  4  2  0
  4  5  1  0
  5  6  2  0
  6  7  1  0
  7  8  2  0
  8  9  1  0
  9 10  2  0
  9 11  1  0
 11 12  1  0
 12 13  1  0
 13 14  1  0
 14 15  2  0
 14 16  1  0
 16 17  1  0
 17 18  2  0
 18 19  1  0
 19 20  2  0
 20 21  1  0
 21 22  2  0
 22 23  1  0
 23 24  1  0
 24 25  2  0
 25 26  1  0
 26 27  2  0
 27 28  1  0
 28 29  2  0
  8  3  1  0
 22 17  1  0
 29 24  1  0
  1 30  1  0
  1 31  1  0
  1 32  1  0
  4 33  1  0
  5 34  1  0
  6 35  1  0
  7 36  1  0
 12 37  1  0
 12 38  1  0
 13 39  1  0
 13 40  1  0
 18 41  1  0
 19 42  1  0
 20 43  1  0
 21 44  1  0
 25 45  1  0
 26 46  1  0
 27 47  1  0
 28 48  1  0
 29 49  1  0
M  CHG  2  11  -1  16  -1
M  END
>  <UniqueID>  (11) 
11

>  <SMILES>  (11) 
COc1ccccc1C(=O)[N-]CCC(=O)[N-]c1ccccc1Sc1ccccc1

>  <Energy>  (11) 
53.479677159840215

>  <Genealogy>  (11) 
COc1ccccc1C(=O)[N-]CCC(=O)[N-]c1ccccc1Sc1ccccc1 (protonated)
COc1ccccc1C(=O)[N-]CCC(=O)[N-]c1ccccc1Sc1ccccc1 (3D coordinates assigned)
COc1ccccc1C(=O)[N-]CCC(=O)[N-]c1ccccc1Sc1ccccc1 (optimized conformer: 53.479677159840215 kcal/mol)

>  <smiles>  (11) 
COc1ccccc1C(=O)NCCC(=O)Nc1ccccc1Sc1ccccc1

>  <score_type>  (11) 
oracle

>  <origin>  (11) 
adg

>  <m_score__min__energy>  (11) 
-12.880000000000001

>  <m_primary>  (11) 
energy

$$$$
11:0
     RDKit          3D

 50 53  0  0  0  0  0  0  0  0999 V2000
   58.2056   32.8170   42.1620 H   0  0  0  0  0  0  0  0  0  0  0  0
   57.7760   32.3510   43.0610 C   0  0  0  0  0  0  0  0  0  0  0  0
   57.0450   31.2370   42.8930 C   0  0  0  0  0  0  0  0  0  0  0  0
   56.5842   31.0704   41.9082 H   0  0  0  0  0  0  0  0  0  0  0  0
   56.8180   30.2230   43.9370 C   0  0  0  0  0  0  0  0  0  0  0  0
   55.6020   29.7080   44.2300 N   0  0  0  0  0  0  0  0  0  0  0  0
   55.7270   28.8430   45.2330 N   0  0  0  0  0  0  0  0  0  0  0  0
   57.0290   28.8020   45.5670 C   0  0  0  0  0  0  0  0  0  0  0  0
   57.6290   28.0360   46.5620 C   0  0  0  0  0  0  0  0  0  0  0  0
   57.0317   27.3647   47.1965 H   0  0  0  0  0  0  0  0  0  0  0  0
   59.0270   28.1450   46.7340 C   0  0  0  0  0  0  0  0  0  0  0  0
   59.6730   27.3730   47.7600 N   0  0  0  0  0  0  0  0  0  0  0  0
   59.5870   26.3310   47.7120 H   0  0  0  0  0  0  0  0  0  0  0  0
   60.4210   27.9340   48.8540 C   0  0  0  0  0  0  0  0  0  0  0  0
   60.7450   27.1250   49.9520 C   0  0  0  0  0  0  0  0  0  0  0  0
   60.4441   26.0670   49.9595 H   0  0  0  0  0  0  0  0  0  0  0  0
   61.4480   27.6550   51.0370 C   0  0  0  0  0  0  0  0  0  0  0  0
   61.6972   27.0139   51.8954 H   0  0  0  0  0  0  0  0  0  0  0  0
   61.8350   28.9970   51.0340 C   0  0  0  0  0  0  0  0  0  0  0  0
   62.3875   29.4089   51.8913 H   0  0  0  0  0  0  0  0  0  0  0  0
   61.5230   29.8220   49.9440 C   0  0  0  0  0  0  0  0  0  0  0  0
   61.9240   31.2020   49.9670 N   0  0  0  0  0  0  0  0  0  0  0  0
   61.9520   31.6910   50.8910 H   0  0  0  0  0  0  0  0  0  0  0  0
   62.4480   31.9020   48.8260 C   0  0  0  0  0  0  0  0  0  0  0  0
   62.7140   31.2840   47.7590 O   0  0  0  0  0  0  0  0  0  0  0  0
   62.7760   33.3600   48.9280 C   0  0  0  0  0  0  0  0  0  0  0  0
   63.3551   33.6628   48.0432 H   0  0  0  0  0  0  0  0  0  0  0  0
   63.3627   33.5278   49.8432 H   0  0  0  0  0  0  0  0  0  0  0  0
   61.5020   34.1940   49.0020 C   0  0  0  0  0  0  0  0  0  0  0  0
   61.2377   34.3670   50.0557 H   0  0  0  0  0  0  0  0  0  0  0  0
   61.6664   35.1598   48.5019 H   0  0  0  0  0  0  0  0  0  0  0  0
   60.6826   33.6569   48.5019 H   0  0  0  0  0  0  0  0  0  0  0  0
   60.7800   29.2950   48.8740 C   0  0  0  0  0  0  0  0  0  0  0  0
   60.4764   29.9514   48.0452 H   0  0  0  0  0  0  0  0  0  0  0  0
   59.7780   28.9720   45.8530 C   0  0  0  0  0  0  0  0  0  0  0  0
   60.8729   29.0148   45.9493 H   0  0  0  0  0  0  0  0  0  0  0  0
   59.1380   29.7350   44.8610 C   0  0  0  0  0  0  0  0  0  0  0  0
   59.7110   30.3839   44.1823 H   0  0  0  0  0  0  0  0  0  0  0  0
   57.7500   29.6390   44.7690 C   0  0  0  0  0  0  0  0  0  0  0  0
   58.0480   33.0000   44.3640 C   0  0  0  0  0  0  0  0  0  0  0  0
   57.1790   32.8410   45.4610 C   0  0  0  0  0  0  0  0  0  0  0  0
   56.2751   32.2225   45.3590 H   0  0  0  0  0  0  0  0  0  0  0  0
   57.4610   33.4660   46.6780 C   0  0  0  0  0  0  0  0  0  0  0  0
   56.7892   33.3229   47.5372 H   0  0  0  0  0  0  0  0  0  0  0  0
   58.5940   34.2720   46.8060 C   0  0  0  0  0  0  0  0  0  0  0  0
   58.8173   34.7576   47.7674 H   0  0  0  0  0  0  0  0  0  0  0  0
   59.4440   34.4620   45.7140 C   0  0  0  0  0  0  0  0  0  0  0  0
   60.3319   35.1037   45.8137 H   0  0  0  0  0  0  0  0  0  0  0  0
   59.1670   33.8370   44.4940 C   0  0  0  0  0  0  0  0  0  0  0  0
   59.8297   34.0023   43.6317 H   0  0  0  0  0  0  0  0  0  0  0  0
  1  2  1  0
  2  3  2  0
  3  4  1  0
  3  5  1  0
  5  6  1  0
  6  7  1  0
  7  8  2  0
  8  9  1  0
  9 10  1  0
  9 11  2  0
 11 12  1  0
 12 13  1  0
 12 14  1  0
 14 15  2  0
 15 16  1  0
 15 17  1  0
 17 18  1  0
 17 19  2  0
 19 20  1  0
 19 21  1  0
 21 22  1  0
 22 23  1  0
 22 24  1  0
 24 25  2  0
 24 26  1  0
 26 27  1  0
 26 28  1  0
 26 29  1  0
 29 30  1  0
 29 31  1  0
 29 32  1  0
 21 33  2  0
 33 34  1  0
 11 35  1  0
 35 36  1  0
 35 37  2  0
 37 38  1  0
 37 39  1  0
  2 40  1  0
 40 41  2  0
 41 42  1  0
 41 43  1  0
 43 44  1  0
 43 45  2  0
 45 46  1  0
 45 47  1  0
 47 48  1  0
 47 49  2  0
 49 50  1  0
 39  5  2  0
 49 40  1  0
 39  8  1  0
 33 14  1  0
M  CHG  1   6  -1
M  END
>  <UniqueID>  (12) 
12

>  <SMILES>  (12) 
CCC(=O)Nc1cccc(Nc2ccc3c(/C=C\c4ccccc4)[n-]nc3c2)c1

>  <Energy>  (12) 
103.2817311399088

>  <Genealogy>  (12) 
CCC(=O)Nc1cccc(Nc2ccc3c(C=Cc4ccccc4)[n-]nc3c2)c1 (protonated)
CCC(=O)Nc1cccc(Nc2ccc3c(/C=C\c4ccccc4)[n-]nc3c2)c1 (cis-trans isomerization)
CCC(=O)Nc1cccc(Nc2ccc3c(/C=C\c4ccccc4)[n-]nc3c2)c1 (3D coordinates assigned)
CCC(=O)Nc1cccc(Nc2ccc3c(/C=C\c4ccccc4)[n-]nc3c2)c1 (optimized conformer: 103.2817311399088 kcal/mol)

>  <smiles>  (12) 
CCC(=O)Nc1cccc(Nc2ccc3c(C=Cc4ccccc4)[nH]nc3c2)c1

>  <score_type>  (12) 
oracle

>  <origin>  (12) 
adg

>  <m_score__min__energy>  (12) 
-11.460000000000001

>  <m_primary>  (12) 
energy

$$$$
12:0
     RDKit          3D

 35 36  0  0  0  0  0  0  0  0999 V2000
   59.4200   30.3760   47.9590 C   0  0  0  0  0  0  0  0  0  0  0  0
   58.4480   31.0740   47.1880 O   0  0  0  0  0  0  0  0  0  0  0  0
   58.6950   32.2650   46.4880 C   0  0  0  0  0  0  0  0  0  0  0  0
   59.8290   33.0620   46.7420 C   0  0  0  0  0  0  0  0  0  0  0  0
   60.0350   34.2440   46.0240 C   0  0  0  0  0  0  0  0  0  0  0  0
   59.1170   34.6410   45.0500 C   0  0  0  0  0  0  0  0  0  0  0  0
   57.9920   33.8560   44.7890 C   0  0  0  0  0  0  0  0  0  0  0  0
   57.7810   32.6700   45.5000 C   0  0  0  0  0  0  0  0  0  0  0  0
   56.6450   31.8610   45.1940 N   0  0  0  0  0  0  0  0  0  0  0  0
   56.7350   30.6320   43.9790 S   0  0  0  0  0  0  0  0  0  0  0  0
   57.3080   31.2130   42.7170 O   0  0  0  0  0  0  0  0  0  0  0  0
   55.3530   30.1200   43.6900 O   0  0  0  0  0  0  0  0  0  0  0  0
   57.7460   29.3070   44.5460 C   0  0  0  0  0  0  0  0  0  0  0  0
   59.1420   29.4340   44.5310 C   0  0  0  0  0  0  0  0  0  0  0  0
   59.9460   28.4120   45.0390 C   0  0  0  0  0  0  0  0  0  0  0  0
   59.3610   27.2610   45.5750 C   0  0  0  0  0  0  0  0  0  0  0  0
   57.9670   27.1280   45.6050 C   0  0  0  0  0  0  0  0  0  0  0  0
   57.2360   25.6850   46.2990 S   0  0  0  0  0  0  0  0  0  0  0  0
   55.5310   25.7150   46.0220 N   0  0  0  0  0  0  0  0  0  0  0  0
   57.5020   25.6360   47.7780 O   0  0  0  0  0  0  0  0  0  0  0  0
   57.8330   24.4620   45.6620 O   0  0  0  0  0  0  0  0  0  0  0  0
   57.1610   28.1500   45.0810 C   0  0  0  0  0  0  0  0  0  0  0  0
   59.2141   30.5239   49.0294 H   0  0  0  0  0  0  0  0  0  0  0  0
   59.3746   29.3029   47.7217 H   0  0  0  0  0  0  0  0  0  0  0  0
   60.4224   30.7619   47.7217 H   0  0  0  0  0  0  0  0  0  0  0  0
   60.5552   32.7530   47.5083 H   0  0  0  0  0  0  0  0  0  0  0  0
   60.9219   34.8622   46.2269 H   0  0  0  0  0  0  0  0  0  0  0  0
   59.2799   35.5724   44.4880 H   0  0  0  0  0  0  0  0  0  0  0  0
   57.2694   34.1713   44.0219 H   0  0  0  0  0  0  0  0  0  0  0  0
   59.6054   30.3419   44.1176 H   0  0  0  0  0  0  0  0  0  0  0  0
   61.0412   28.5125   45.0175 H   0  0  0  0  0  0  0  0  0  0  0  0
   59.9973   26.4575   45.9743 H   0  0  0  0  0  0  0  0  0  0  0  0
   55.3790   26.1790   45.1000 H   0  0  0  0  0  0  0  0  0  0  0  0
   55.1150   26.3420   46.7470 H   0  0  0  0  0  0  0  0  0  0  0  0
   56.0662   28.0434   45.0898 H   0  0  0  0  0  0  0  0  0  0  0  0
  1  2  1  0
  2  3  1  0
  3  4  2  0
  4  5  1  0
  5  6  2  0
  6  7  1  0
  7  8  2  0
  8  9  1  0
  9 10  1  0
 10 11  2  0
 10 12  2  0
 10 13  1  0
 13 14  2  0
 14 15  1  0
 15 16  2  0
 16 17  1  0
 17 18  1  0
 18 19  1  0
 18 20  2  0
 18 21  2  0
 17 22  2  0
  8  3  1  0
 22 13  1  0
  1 23  1  0
  1 24  1  0
  1 25  1  0
  4 26  1  0
  5 27  1  0
  6 28  1  0
  7 29  1  0
 14 30  1  0
 15 31  1  0
 16 32  1  0
 19 33  1  0
 19 34  1  0
 22 35  1  0
M  CHG  1   9  -1
M  END
>  <UniqueID>  (13) 
13

>  <SMILES>  (13) 
COc1ccccc1[N-]S(=O)(=O)c1cccc(S(N)(=O)=O)c1

>  <Energy>  (13) 
41.021586056315655

>  <Genealogy>  (13) 
COc1ccccc1[N-]S(=O)(=O)c1cccc(S(N)(=O)=O)c1 (protonated)
COc1ccccc1[N-]S(=O)(=O)c1cccc(S(N)(=O)=O)c1 (3D coordinates assigned)
COc1ccccc1[N-]S(=O)(=O)c1cccc(S(N)(=O)=O)c1 (optimized conformer: 41.021586056315655 kcal/mol)

>  <smiles>  (13) 
COc1ccccc1NS(=O)(=O)c1cccc(S(N)(=O)=O)c1

>  <score_type>  (13) 
oracle

>  <origin>  (13) 
adg

>  <m_score__min__energy>  (13) 
-9.5999999999999996

>  <m_primary>  (13) 
energy

$$$$
13:0
     RDKit          3D

 44 46  0  0  0  0  0  0  0  0999 V2000
   60.7600   29.7490   50.1620 C   0  0  0  0  0  0  0  0  0  0  0  0
   60.7670   29.6090   48.6910 N   0  0  0  0  0  0  0  0  0  0  0  0
   59.9250   28.4660   48.2790 C   0  0  0  0  0  0  0  0  0  0  0  0
   59.3590   28.7010   46.9140 C   0  0  0  0  0  0  0  0  0  0  0  0
   58.1000   29.1400   46.6970 N   0  0  0  0  0  0  0  0  0  0  0  0
   57.8160   29.2360   45.3700 C   0  0  0  0  0  0  0  0  0  0  0  0
   56.5080   29.7140   44.9000 C   0  0  0  0  0  0  0  0  0  0  0  0
   55.5190   28.9340   44.8700 O   0  0  0  0  0  0  0  0  0  0  0  0
   56.3690   31.0720   44.4720 N   0  0  0  0  0  0  0  0  0  0  0  0
   57.4690   31.8460   43.9170 C   0  0  0  0  0  0  0  0  0  0  0  0
   57.9980   32.7790   44.9680 C   0  0  0  0  0  0  0  0  0  0  0  0
   57.6980   32.5700   46.3250 C   0  0  0  0  0  0  0  0  0  0  0  0
   58.2230   33.4240   47.3000 C   0  0  0  0  0  0  0  0  0  0  0  0
   59.0590   34.4810   46.9300 C   0  0  0  0  0  0  0  0  0  0  0  0
   59.5710   35.3060   47.8780 F   0  0  0  0  0  0  0  0  0  0  0  0
   59.3720   34.6870   45.5830 C   0  0  0  0  0  0  0  0  0  0  0  0
   58.8460   33.8380   44.6040 C   0  0  0  0  0  0  0  0  0  0  0  0
   58.8530   28.8600   44.5170 C   0  0  0  0  0  0  0  0  0  0  0  0
   60.1590   28.3960   45.4690 S   0  0  0  0  0  0  0  0  0  0  0  0
   60.2990   30.8580   48.0520 C   0  0  0  0  0  0  0  0  0  0  0  0
   61.3990   31.8940   48.0460 C   0  0  0  0  0  0  0  0  0  0  0  0
   62.4810   31.7710   47.1620 C   0  0  0  0  0  0  0  0  0  0  0  0
   63.4880   32.7370   47.1490 C   0  0  0  0  0  0  0  0  0  0  0  0
   63.4040   33.8230   48.0200 C   0  0  0  0  0  0  0  0  0  0  0  0
   62.3490   33.9360   48.8700 N   0  0  0  0  0  0  0  0  0  0  0  0
   61.3530   33.0090   48.9050 C   0  0  0  0  0  0  0  0  0  0  0  0
   60.3960   33.1610   49.7080 O   0  0  0  0  0  0  0  0  0  0  0  0
   60.8098   28.7526   50.6254 H   0  0  0  0  0  0  0  0  0  0  0  0
   61.6295   30.3442   50.4778 H   0  0  0  0  0  0  0  0  0  0  0  0
   59.8355   30.2545   50.4778 H   0  0  0  0  0  0  0  0  0  0  0  0
   60.5364   27.5516   48.2655 H   0  0  0  0  0  0  0  0  0  0  0  0
   59.0970   28.3562   48.9948 H   0  0  0  0  0  0  0  0  0  0  0  0
   58.2702   31.1657   43.5924 H   0  0  0  0  0  0  0  0  0  0  0  0
   57.1125   32.4270   43.0536 H   0  0  0  0  0  0  0  0  0  0  0  0
   57.0488   31.7328   46.6209 H   0  0  0  0  0  0  0  0  0  0  0  0
   57.9775   33.2635   48.3602 H   0  0  0  0  0  0  0  0  0  0  0  0
   60.0325   35.5175   45.2930 H   0  0  0  0  0  0  0  0  0  0  0  0
   59.0972   34.0001   43.5454 H   0  0  0  0  0  0  0  0  0  0  0  0
   58.8222   28.8659   43.4174 H   0  0  0  0  0  0  0  0  0  0  0  0
   59.9979   30.6437   47.0159 H   0  0  0  0  0  0  0  0  0  0  0  0
   59.4440   31.2504   48.6220 H   0  0  0  0  0  0  0  0  0  0  0  0
   62.5359   30.9115   46.4777 H   0  0  0  0  0  0  0  0  0  0  0  0
   64.3393   32.6429   46.4588 H   0  0  0  0  0  0  0  0  0  0  0  0
   64.1929   34.5896   48.0192 H   0  0  0  0  0  0  0  0  0  0  0  0
  1  2  1  0
  2  3  1  0
  3  4  1  0
  4  5  2  0
  5  6  1  0
  6  7  1  0
  7  8  2  0
  7  9  1  0
  9 10  1  0
 10 11  1  0
 11 12  2  0
 12 13  1  0
 13 14  2  0
 14 15  1  0
 14 16  1  0
 16 17  2  0
  6 18  2  0
 18 19  1  0
  2 20  1  0
 20 21  1  0
 21 22  2  0
 22 23  1  0
 23 24  2  0
 24 25  1  0
 25 26  1  0
 26 27  2  0
 19  4  1  0
 26 21  1  0
 17 11  1  0
  1 28  1  0
  1 29  1  0
  1 30  1  0
  3 31  1  0
  3 32  1  0
 10 33  1  0
 10 34  1  0
 12 35  1  0
 13 36  1  0
 16 37  1  0
 17 38  1  0
 18 39  1  0
 20 40  1  0
 20 41  1  0
 22 42  1  0
 23 43  1  0
 24 44  1  0
M  CHG  2   9  -1  25  -1
M  END
>  <UniqueID>  (14) 
14

>  <SMILES>  (14) 
CN(Cc1nc(C(=O)[N-]Cc2ccc(F)cc2)cs1)Cc1ccc[n-]c1=O

>  <Energy>  (14) 
73.63053215548999

>  <Genealogy>  (14) 
CN(Cc1nc(C(=O)[N-]Cc2ccc(F)cc2)cs1)Cc1ccc[n-]c1=O (protonated)
CN(Cc1nc(C(=O)[N-]Cc2ccc(F)cc2)cs1)Cc1ccc[n-]c1=O (3D coordinates assigned)
CN(Cc1nc(C(=O)[N-]Cc2ccc(F)cc2)cs1)Cc1ccc[n-]c1=O (optimized conformer: 73.63053215548999 kcal/mol)

>  <smiles>  (14) 
CN(Cc1nc(C(=O)NCc2ccc(F)cc2)cs1)Cc1ccc[nH]c1=O

>  <score_type>  (14) 
oracle

>  <origin>  (14) 
adg

>  <m_score__min__energy>  (14) 
-11.27

>  <m_primary>  (14) 
energy

$$$$
14:0
     RDKit          3D

 41 43  0  0  0  0  0  0  0  0999 V2000
   57.8200   27.8380   43.7070 O   0  0  0  0  0  0  0  0  0  0  0  0
   57.2030   27.8160   44.8070 C   0  0  0  0  0  0  0  0  0  0  0  0
   56.5310   28.9970   45.2640 N   0  0  0  0  0  0  0  0  0  0  0  0
   56.9030   30.3530   44.8680 C   0  0  0  0  0  0  0  0  0  0  0  0
   58.3180   30.6950   45.3470 C   0  0  0  0  0  0  0  0  0  0  0  0
   58.4770   32.1700   45.6440 C   0  0  0  0  0  0  0  0  0  0  0  0
   58.0410   33.0970   44.6810 C   0  0  0  0  0  0  0  0  0  0  0  0
   58.2460   34.4650   44.8650 C   0  0  0  0  0  0  0  0  0  0  0  0
   58.9010   34.9260   46.0080 C   0  0  0  0  0  0  0  0  0  0  0  0
   59.3420   34.0200   46.9730 C   0  0  0  0  0  0  0  0  0  0  0  0
   59.1240   32.6450   46.8130 C   0  0  0  0  0  0  0  0  0  0  0  0
   59.7150   31.5370   48.1050 S   0  0  0  0  0  0  0  0  0  0  0  0
   61.3340   32.3080   48.1790 C   0  0  0  0  0  0  0  0  0  0  0  0
   62.2790   32.0450   47.1770 C   0  0  0  0  0  0  0  0  0  0  0  0
   63.5410   32.6440   47.2290 C   0  0  0  0  0  0  0  0  0  0  0  0
   63.8660   33.5010   48.2830 C   0  0  0  0  0  0  0  0  0  0  0  0
   62.9310   33.7570   49.2910 C   0  0  0  0  0  0  0  0  0  0  0  0
   61.6680   33.1590   49.2410 C   0  0  0  0  0  0  0  0  0  0  0  0
   57.1810   26.5830   45.6340 C   0  0  0  0  0  0  0  0  0  0  0  0
   58.3720   25.8710   45.8660 C   0  0  0  0  0  0  0  0  0  0  0  0
   58.3630   24.7030   46.6280 C   0  0  0  0  0  0  0  0  0  0  0  0
   57.1580   24.2430   47.1590 C   0  0  0  0  0  0  0  0  0  0  0  0
   57.1300   23.1920   47.8500 O   0  0  0  0  0  0  0  0  0  0  0  0
   56.0100   24.9310   46.9300 N   0  0  0  0  0  0  0  0  0  0  0  0
   55.9850   26.0730   46.1910 C   0  0  0  0  0  0  0  0  0  0  0  0
   54.7690   26.7160   45.9960 O   0  0  0  0  0  0  0  0  0  0  0  0
   56.8656   30.4308   43.7714 H   0  0  0  0  0  0  0  0  0  0  0  0
   56.1964   31.0594   45.3282 H   0  0  0  0  0  0  0  0  0  0  0  0
   58.5303   30.1238   46.2628 H   0  0  0  0  0  0  0  0  0  0  0  0
   59.0207   30.4337   44.5420 H   0  0  0  0  0  0  0  0  0  0  0  0
   57.5329   32.7401   43.7730 H   0  0  0  0  0  0  0  0  0  0  0  0
   57.8911   35.1805   44.1087 H   0  0  0  0  0  0  0  0  0  0  0  0
   59.0696   36.0039   46.1480 H   0  0  0  0  0  0  0  0  0  0  0  0
   59.8656   34.3884   47.8675 H   0  0  0  0  0  0  0  0  0  0  0  0
   62.0269   31.3663   46.3488 H   0  0  0  0  0  0  0  0  0  0  0  0
   64.2789   32.4402   46.4390 H   0  0  0  0  0  0  0  0  0  0  0  0
   64.8580   33.9749   48.3202 H   0  0  0  0  0  0  0  0  0  0  0  0
   63.1891   34.4287   50.1230 H   0  0  0  0  0  0  0  0  0  0  0  0
   60.9351   33.3570   50.0370 H   0  0  0  0  0  0  0  0  0  0  0  0
   59.3184   26.2387   45.4428 H   0  0  0  0  0  0  0  0  0  0  0  0
   59.2967   24.1501   46.8084 H   0  0  0  0  0  0  0  0  0  0  0  0
  1  2  2  0
  2  3  1  0
  3  4  1  0
  4  5  1  0
  5  6  1  0
  6  7  2  0
  7  8  1  0
  8  9  2  0
  9 10  1  0
 10 11  2  0
 11 12  1  0
 12 13  1  0
 13 14  2  0
 14 15  1  0
 15 16  2  0
 16 17  1  0
 17 18  2  0
  2 19  1  0
 19 20  1  0
 20 21  2  0
 21 22  1  0
 22 23  2  0
 22 24  1  0
 24 25  1  0
 25 26  1  0
 11  6  1  0
 18 13  1  0
 25 19  2  0
  4 27  1  0
  4 28  1  0
  5 29  1  0
  5 30  1  0
  7 31  1  0
  8 32  1  0
  9 33  1  0
 10 34  1  0
 14 35  1  0
 15 36  1  0
 16 37  1  0
 17 38  1  0
 18 39  1  0
 20 40  1  0
 21 41  1  0
M  CHG  3   3  -1  24  -1  26  -1
M  END
>  <UniqueID>  (15) 
15

>  <SMILES>  (15) 
O=C([N-]CCc1ccccc1Sc1ccccc1)c1ccc(=O)[n-]c1[O-]

>  <Energy>  (15) 
39.10541630843801

>  <Genealogy>  (15) 
O=C([N-]CCc1ccccc1Sc1ccccc1)c1ccc(=O)[n-]c1[O-] (protonated)
O=C([N-]CCc1ccccc1Sc1ccccc1)c1ccc(=O)[n-]c1[O-] (3D coordinates assigned)
O=C([N-]CCc1ccccc1Sc1ccccc1)c1ccc(=O)[n-]c1[O-] (optimized conformer: 39.10541630843801 kcal/mol)

>  <smiles>  (15) 
O=C(NCCc1ccccc1Sc1ccccc1)c1ccc(=O)[nH]c1O

>  <score_type>  (15) 
oracle

>  <origin>  (15) 
adg

>  <m_score__min__energy>  (15) 
-16.32

>  <m_primary>  (15) 
energy

$$$$
15:0
     RDKit          3D

 56 59  0  0  0  0  0  0  0  0999 V2000
   59.6980   27.5630   44.7660 O   0  0  0  0  0  0  0  0  0  0  0  0
   58.4870   27.7070   45.0970 C   0  0  0  0  0  0  0  0  0  0  0  0
   57.7490   26.5730   45.5940 N   0  0  0  0  0  0  0  0  0  0  0  0
   58.3900   25.2920   45.8840 C   0  0  0  0  0  0  0  0  0  0  0  0
   57.8450   24.2160   44.9840 C   0  0  0  0  0  0  0  0  0  0  0  0
   58.4310   22.9370   44.9600 C   0  0  0  0  0  0  0  0  0  0  0  0
   57.9020   21.9360   44.1390 C   0  0  0  0  0  0  0  0  0  0  0  0
   56.7860   22.2020   43.3410 C   0  0  0  0  0  0  0  0  0  0  0  0
   56.2720   21.2300   42.5490 F   0  0  0  0  0  0  0  0  0  0  0  0
   56.1960   23.4700   43.3620 C   0  0  0  0  0  0  0  0  0  0  0  0
   56.7200   24.4740   44.1830 C   0  0  0  0  0  0  0  0  0  0  0  0
   57.8500   29.0390   44.9510 C   0  0  0  0  0  0  0  0  0  0  0  0
   56.6870   29.1750   44.1760 C   0  0  0  0  0  0  0  0  0  0  0  0
   56.0910   30.4270   44.0360 C   0  0  0  0  0  0  0  0  0  0  0  0
   56.6370   31.5130   44.6410 N   0  0  0  0  0  0  0  0  0  0  0  0
   57.7700   31.4390   45.3960 C   0  0  0  0  0  0  0  0  0  0  0  0
   58.3010   32.6390   46.0160 N   0  0  0  0  0  0  0  0  0  0  0  0
   57.8350   33.0540   47.3520 C   0  0  0  0  0  0  0  0  0  0  0  0
   59.0220   33.5430   48.1950 C   0  0  0  0  0  0  0  0  0  0  0  0
   59.9430   34.5900   47.4840 C   0  0  0  0  0  0  0  0  0  0  0  0
   61.3690   34.1480   47.5790 N   0  0  0  0  0  0  0  0  0  0  0  0
   61.9670   34.3270   48.9270 C   0  0  0  0  0  0  0  0  0  0  0  0
   63.2930   33.5480   49.0680 C   0  0  0  0  0  0  0  0  0  0  0  0
   63.8360   33.2600   47.7960 O   0  0  0  0  0  0  0  0  0  0  0  0
   62.9970   32.3410   47.1120 C   0  0  0  0  0  0  0  0  0  0  0  0
   61.5040   32.7270   47.1890 C   0  0  0  0  0  0  0  0  0  0  0  0
   59.4560   34.8380   46.0270 C   0  0  0  0  0  0  0  0  0  0  0  0
   59.2250   33.5210   45.2800 C   0  0  0  0  0  0  0  0  0  0  0  0
   58.3980   30.1860   45.5550 C   0  0  0  0  0  0  0  0  0  0  0  0
   56.7080   26.6210   45.6720 H   0  0  0  0  0  0  0  0  0  0  0  0
   59.4741   25.3846   45.7225 H   0  0  0  0  0  0  0  0  0  0  0  0
   58.1851   25.0196   46.9298 H   0  0  0  0  0  0  0  0  0  0  0  0
   59.3079   22.7238   45.5889 H   0  0  0  0  0  0  0  0  0  0  0  0
   58.3648   20.9383   44.1214 H   0  0  0  0  0  0  0  0  0  0  0  0
   55.3186   23.6780   42.7320 H   0  0  0  0  0  0  0  0  0  0  0  0
   56.2499   25.4683   44.2015 H   0  0  0  0  0  0  0  0  0  0  0  0
   56.2478   28.2963   43.6810 H   0  0  0  0  0  0  0  0  0  0  0  0
   55.1766   30.5356   43.4343 H   0  0  0  0  0  0  0  0  0  0  0  0
   57.1037   33.8688   47.2457 H   0  0  0  0  0  0  0  0  0  0  0  0
   57.3663   32.1945   47.8535 H   0  0  0  0  0  0  0  0  0  0  0  0
   58.6245   34.0031   49.1117 H   0  0  0  0  0  0  0  0  0  0  0  0
   59.6487   32.6602   48.3900 H   0  0  0  0  0  0  0  0  0  0  0  0
   59.8802   35.5644   47.9906 H   0  0  0  0  0  0  0  0  0  0  0  0
   62.1621   35.3969   49.0919 H   0  0  0  0  0  0  0  0  0  0  0  0
   61.2581   33.9378   49.6726 H   0  0  0  0  0  0  0  0  0  0  0  0
   64.0107   34.1556   49.6387 H   0  0  0  0  0  0  0  0  0  0  0  0
   63.0953   32.6016   49.5927 H   0  0  0  0  0  0  0  0  0  0  0  0
   63.2983   32.3091   46.0545 H   0  0  0  0  0  0  0  0  0  0  0  0
   63.1124   31.3606   47.5973 H   0  0  0  0  0  0  0  0  0  0  0  0
   61.0366   32.5731   46.2052 H   0  0  0  0  0  0  0  0  0  0  0  0
   61.0061   32.0970   47.9408 H   0  0  0  0  0  0  0  0  0  0  0  0
   58.5122   35.4022   46.0569 H   0  0  0  0  0  0  0  0  0  0  0  0
   60.2344   35.4044   45.4948 H   0  0  0  0  0  0  0  0  0  0  0  0
   58.7976   33.7411   44.2906 H   0  0  0  0  0  0  0  0  0  0  0  0
   60.1914   33.0049   45.1821 H   0  0  0  0  0  0  0  0  0  0  0  0
   59.3181   30.1052   46.1524 H   0  0  0  0  0  0  0  0  0  0  0  0
  1  2  2  0
  2  3  1  0
  3  4  1  0
  4  5  1  0
  5  6  2  0
  6  7  1  0
  7  8  2  0
  8  9  1  0
  8 10  1  0
 10 11  2  0
  2 12  1  0
 12 13  2  0
 13 14  1  0
 14 15  2  0
 15 16  1  0
 16 17  1  0
 17 18  1  0
 18 19  1  0
 19 20  1  0
 20 21  1  0
 21 22  1  0
 22 23  1  0
 23 24  1  0
 24 25  1  0
 25 26  1  0
 20 27  1  0
 27 28  1  0
 16 29  2  0
 11  5  1  0
 29 12  1  0
 28 17  1  0
 26 21  1  0
  3 30  1  0
  4 31  1  0
  4 32  1  0
  6 33  1  0
  7 34  1  0
 10 35  1  0
 11 36  1  0
 13 37  1  0
 14 38  1  0
 18 39  1  0
 18 40  1  0
 19 41  1  0
 19 42  1  0
 20 43  1  0
 22 44  1  0
 22 45  1  0
 23 46  1  0
 23 47  1  0
 25 48  1  0
 25 49  1  0
 26 50  1  0
 26 51  1  0
 27 52  1  0
 27 53  1  0
 28 54  1  0
 28 55  1  0
 29 56  1  0
M  END
>  <UniqueID>  (16) 
16

>  <SMILES>  (16) 
O=C(NCc1ccc(F)cc1)c1ccnc(N2CCC(N3CCOCC3)CC2)c1

>  <Energy>  (16) 
79.52154069850332

>  <Genealogy>  (16) 
O=C(NCc1ccc(F)cc1)c1ccnc(N2CCC(N3CCOCC3)CC2)c1 (3D coordinates assigned)
O=C(NCc1ccc(F)cc1)c1ccnc(N2CCC(N3CCOCC3)CC2)c1 (nonaromatic ring conformer: 79.52154069850332 kcal/mol)

>  <smiles>  (16) 
O=C(NCc1ccc(F)cc1)c1ccnc(N2CCC(N3CCOCC3)CC2)c1

>  <score_type>  (16) 
oracle

>  <origin>  (16) 
adg

>  <m_score__min__energy>  (16) 
-9.3399999999999999

>  <m_primary>  (16) 
energy

$$$$
16:0
     RDKit          3D

 56 58  0  0  0  0  0  0  0  0999 V2000
   55.5210   29.7930   44.2390 C   0  0  0  0  0  0  0  0  0  0  0  0
   56.5100   29.7280   43.3520 C   0  0  0  0  0  0  0  0  0  0  0  0
   56.9260   30.9200   42.5890 C   0  0  0  0  0  0  0  0  0  0  0  0
   57.7860   31.8380   43.0510 C   0  0  0  0  0  0  0  0  0  0  0  0
   58.0130   32.0790   44.4530 N   0  0  0  0  0  0  0  0  0  0  0  0
   57.5550   33.2470   44.9790 C   0  0  0  0  0  0  0  0  0  0  0  0
   57.8050   33.5640   46.3030 C   0  0  0  0  0  0  0  0  0  0  0  0
   58.5430   32.6770   47.0920 C   0  0  0  0  0  0  0  0  0  0  0  0
   58.7980   33.0450   48.5060 C   0  0  0  0  0  0  0  0  0  0  0  0
   59.9520   33.5560   48.9590 C   0  0  0  0  0  0  0  0  0  0  0  0
   61.2660   33.3990   48.2960 C   0  0  0  0  0  0  0  0  0  0  0  0
   62.3490   32.7690   48.9390 C   0  0  0  0  0  0  0  0  0  0  0  0
   63.5830   32.6530   48.2920 C   0  0  0  0  0  0  0  0  0  0  0  0
   63.7530   33.1810   47.0090 C   0  0  0  0  0  0  0  0  0  0  0  0
   62.6930   33.8340   46.3750 C   0  0  0  0  0  0  0  0  0  0  0  0
   61.4560   33.9510   47.0190 C   0  0  0  0  0  0  0  0  0  0  0  0
   58.9910   31.4900   46.5520 N   0  0  0  0  0  0  0  0  0  0  0  0
   59.7490   30.5180   47.3750 C   0  0  0  0  0  0  0  0  0  0  0  0
   58.8740   29.3710   47.9270 C   0  0  0  0  0  0  0  0  0  0  0  0
   59.5220   27.9760   47.8720 C   0  0  0  0  0  0  0  0  0  0  0  0
   58.5440   26.9510   47.5200 N   0  0  0  0  0  0  0  0  0  0  0  0
   57.6380   27.0550   46.4150 C   0  0  0  0  0  0  0  0  0  0  0  0
   57.3830   28.1850   45.9160 O   0  0  0  0  0  0  0  0  0  0  0  0
   57.0510   25.8360   45.8150 C   0  0  0  0  0  0  0  0  0  0  0  0
   57.8980   24.7830   45.4220 C   0  0  0  0  0  0  0  0  0  0  0  0
   57.3650   23.5960   44.9130 C   0  0  0  0  0  0  0  0  0  0  0  0
   55.9840   23.4450   44.7860 C   0  0  0  0  0  0  0  0  0  0  0  0
   55.1310   24.4860   45.1590 C   0  0  0  0  0  0  0  0  0  0  0  0
   55.6550   25.6810   45.6670 C   0  0  0  0  0  0  0  0  0  0  0  0
   54.7800   26.7060   46.0040 O   0  0  0  0  0  0  0  0  0  0  0  0
   58.7520   31.2180   45.2220 C   0  0  0  0  0  0  0  0  0  0  0  0
   59.2250   30.1700   44.6970 O   0  0  0  0  0  0  0  0  0  0  0  0
   55.2243   28.8938   44.7988 H   0  0  0  0  0  0  0  0  0  0  0  0
   54.9998   30.7460   44.4127 H   0  0  0  0  0  0  0  0  0  0  0  0
   57.0256   28.7708   43.1848 H   0  0  0  0  0  0  0  0  0  0  0  0
   56.5060   31.0636   41.5826 H   0  0  0  0  0  0  0  0  0  0  0  0
   58.3482   32.4392   42.3213 H   0  0  0  0  0  0  0  0  0  0  0  0
   56.9827   33.9435   44.3486 H   0  0  0  0  0  0  0  0  0  0  0  0
   57.4267   34.5045   46.7300 H   0  0  0  0  0  0  0  0  0  0  0  0
   57.9862   32.8883   49.2316 H   0  0  0  0  0  0  0  0  0  0  0  0
   59.9197   34.1354   49.8935 H   0  0  0  0  0  0  0  0  0  0  0  0
   62.2235   32.3663   49.9549 H   0  0  0  0  0  0  0  0  0  0  0  0
   64.4207   32.1458   48.7930 H   0  0  0  0  0  0  0  0  0  0  0  0
   64.7221   33.0823   46.4981 H   0  0  0  0  0  0  0  0  0  0  0  0
   62.8308   34.2565   45.3688 H   0  0  0  0  0  0  0  0  0  0  0  0
   60.6282   34.4782   46.5222 H   0  0  0  0  0  0  0  0  0  0  0  0
   60.5457   30.0817   46.7546 H   0  0  0  0  0  0  0  0  0  0  0  0
   60.1503   31.0666   48.2398 H   0  0  0  0  0  0  0  0  0  0  0  0
   58.6379   29.5967   48.9774 H   0  0  0  0  0  0  0  0  0  0  0  0
   57.9851   29.3234   47.2808 H   0  0  0  0  0  0  0  0  0  0  0  0
   60.3223   27.9820   47.1174 H   0  0  0  0  0  0  0  0  0  0  0  0
   59.9278   27.7419   48.8673 H   0  0  0  0  0  0  0  0  0  0  0  0
   58.9882   24.8954   45.5163 H   0  0  0  0  0  0  0  0  0  0  0  0
   58.0362   22.7783   44.6116 H   0  0  0  0  0  0  0  0  0  0  0  0
   55.5671   22.5063   44.3922 H   0  0  0  0  0  0  0  0  0  0  0  0
   54.0426   24.3666   45.0532 H   0  0  0  0  0  0  0  0  0  0  0  0
  1  2  2  0
  2  3  1  0
  3  4  2  3
  4  5  1  0
  5  6  1  0
  6  7  2  0
  7  8  1  0
  8  9  1  0
  9 10  2  3
 10 11  1  0
 11 12  2  0
 12 13  1  0
 13 14  2  0
 14 15  1  0
 15 16  2  0
  8 17  2  0
 17 18  1  0
 18 19  1  0
 19 20  1  0
 20 21  1  0
 21 22  1  0
 22 23  2  0
 22 24  1  0
 24 25  2  0
 25 26  1  0
 26 27  2  0
 27 28  1  0
 28 29  2  0
 29 30  1  0
 17 31  1  0
 31 32  2  0
 31  5  1  0
 16 11  1  0
 29 24  1  0
  1 33  1  0
  1 34  1  0
  2 35  1  0
  3 36  1  0
  4 37  1  0
  6 38  1  0
  7 39  1  0
  9 40  1  0
 10 41  1  0
 12 42  1  0
 13 43  1  0
 14 44  1  0
 15 45  1  0
 16 46  1  0
 18 47  1  0
 18 48  1  0
 19 49  1  0
 19 50  1  0
 20 51  1  0
 20 52  1  0
 25 53  1  0
 26 54  1  0
 27 55  1  0
 28 56  1  0
M  CHG  3  17   1  21  -1  30  -1
M  END
>  <UniqueID>  (17) 
17

>  <SMILES>  (17) 
C=CC=Cn1ccc(C=Cc2ccccc2)[n+](CCC[N-]C(=O)c2ccccc2[O-])c1=O

>  <Energy>  (17) 
74.11943287658328

>  <Genealogy>  (17) 
C=CC=Cn1ccc(C=Cc2ccccc2)[n+](CCC[N-]C(=O)c2ccccc2[O-])c1=O (protonated)
C=CC=Cn1ccc(C=Cc2ccccc2)[n+](CCC[N-]C(=O)c2ccccc2[O-])c1=O (3D coordinates assigned)
C=CC=Cn1ccc(C=Cc2ccccc2)[n+](CCC[N-]C(=O)c2ccccc2[O-])c1=O (optimized conformer: 74.11943287658328 kcal/mol)

>  <smiles>  (17) 
C=CC=Cn1ccc(C=Cc2ccccc2)[n+](CCCNC(=O)c2ccccc2O)c1=O

>  <score_type>  (17) 
oracle

>  <origin>  (17) 
adg

>  <m_score__min__energy>  (17) 
-13.44

>  <m_primary>  (17) 
energy

$$$$
17:0
     RDKit          3D

 43 46  0  0  0  0  0  0  0  0999 V2000
   62.7830   30.6830   51.1410 C   0  0  0  0  0  0  0  0  0  0  0  0
   64.1040   30.8770   51.0200 C   0  0  0  0  0  0  0  0  0  0  0  0
   64.9880   29.9430   51.4810 N   0  0  0  0  0  0  0  0  0  0  0  0
   66.2730   30.2980   51.2810 C   0  0  0  0  0  0  0  0  0  0  0  0
   67.5530   29.3830   51.7240 S   0  0  0  0  0  0  0  0  0  0  0  0
   66.3880   31.7840   50.5190 S   0  0  0  0  0  0  0  0  0  0  0  0
   64.7110   32.0100   50.4310 C   0  0  0  0  0  0  0  0  0  0  0  0
   64.0890   33.0740   49.8850 C   0  0  0  0  0  0  0  0  0  0  0  0
   63.2350   33.0130   48.6820 C   0  0  0  0  0  0  0  0  0  0  0  0
   63.3340   33.8690   47.6040 C   0  0  0  0  0  0  0  0  0  0  0  0
   62.3600   33.4700   46.7120 C   0  0  0  0  0  0  0  0  0  0  0  0
   61.7250   32.3880   47.3030 C   0  0  0  0  0  0  0  0  0  0  0  0
   60.6030   31.5960   46.7480 C   0  0  0  0  0  0  0  0  0  0  0  0
   60.6340   30.1930   46.8390 C   0  0  0  0  0  0  0  0  0  0  0  0
   59.5870   29.4240   46.3250 C   0  0  0  0  0  0  0  0  0  0  0  0
   58.4890   30.0460   45.7160 C   0  0  0  0  0  0  0  0  0  0  0  0
   57.1560   29.0920   45.0740 S   0  0  0  0  0  0  0  0  0  0  0  0
   55.9360   29.9650   44.9860 O   0  0  0  0  0  0  0  0  0  0  0  0
   57.4760   28.5710   43.6990 O   0  0  0  0  0  0  0  0  0  0  0  0
   56.8200   27.7530   46.1310 N   0  0  0  0  0  0  0  0  0  0  0  0
   56.4410   26.5600   45.7760 C   0  0  0  0  0  0  0  0  0  0  0  0
   57.3190   25.6260   45.1850 C   0  0  0  0  0  0  0  0  0  0  0  0
   56.8410   24.3630   44.8310 C   0  0  0  0  0  0  0  0  0  0  0  0
   55.5060   24.0330   45.0620 C   0  0  0  0  0  0  0  0  0  0  0  0
   54.6630   24.9770   45.6470 C   0  0  0  0  0  0  0  0  0  0  0  0
   55.1440   26.2020   45.9870 N   0  0  0  0  0  0  0  0  0  0  0  0
   58.4510   31.4420   45.6220 C   0  0  0  0  0  0  0  0  0  0  0  0
   59.4990   32.2130   46.1330 C   0  0  0  0  0  0  0  0  0  0  0  0
   62.2730   32.1450   48.4730 O   0  0  0  0  0  0  0  0  0  0  0  0
   62.0792   31.4410   50.7666 H   0  0  0  0  0  0  0  0  0  0  0  0
   62.4029   29.7658   51.6146 H   0  0  0  0  0  0  0  0  0  0  0  0
   64.7080   29.0470   51.9420 H   0  0  0  0  0  0  0  0  0  0  0  0
   64.2268   34.0528   50.3677 H   0  0  0  0  0  0  0  0  0  0  0  0
   64.0444   34.6998   47.4811 H   0  0  0  0  0  0  0  0  0  0  0  0
   62.1336   33.9180   45.7332 H   0  0  0  0  0  0  0  0  0  0  0  0
   61.4902   29.6967   47.3191 H   0  0  0  0  0  0  0  0  0  0  0  0
   59.6247   28.3271   46.3986 H   0  0  0  0  0  0  0  0  0  0  0  0
   58.3713   25.8912   45.0048 H   0  0  0  0  0  0  0  0  0  0  0  0
   57.5174   23.6282   44.3699 H   0  0  0  0  0  0  0  0  0  0  0  0
   55.1225   23.0397   44.7860 H   0  0  0  0  0  0  0  0  0  0  0  0
   53.6074   24.7301   45.8336 H   0  0  0  0  0  0  0  0  0  0  0  0
   57.5919   31.9350   45.1435 H   0  0  0  0  0  0  0  0  0  0  0  0
   59.4599   33.3094   46.0536 H   0  0  0  0  0  0  0  0  0  0  0  0
  1  2  2  0
  2  3  1  0
  3  4  1  0
  4  5  2  0
  4  6  1  0
  6  7  1  0
  7  8  2  3
  8  9  1  0
  9 10  2  0
 10 11  1  0
 11 12  2  0
 12 13  1  0
 13 14  2  0
 14 15  1  0
 15 16  2  0
 16 17  1  0
 17 18  2  0
 17 19  2  0
 17 20  1  0
 20 21  2  3
 21 22  1  0
 22 23  2  0
 23 24  1  0
 24 25  2  0
 25 26  1  0
 16 27  1  0
 27 28  2  0
 12 29  1  0
  7  2  1  0
 29  9  1  0
 28 13  1  0
 26 21  1  0
  1 30  1  0
  1 31  1  0
  3 32  1  0
  8 33  1  0
 10 34  1  0
 11 35  1  0
 14 36  1  0
 15 37  1  0
 22 38  1  0
 23 39  1  0
 24 40  1  0
 25 41  1  0
 27 42  1  0
 28 43  1  0
M  CHG  1  26  -1
M  END
>  <UniqueID>  (18) 
18

>  <SMILES>  (18) 
C=c1[nH]c(=S)sc1=Cc1ccc(-c2ccc(S(=O)(=O)N=c3cccc[n-]3)cc2)o1

>  <Energy>  (18) 
114.43352250805555

>  <Genealogy>  (18) 
C=c1[nH]c(=S)sc1=Cc1ccc(-c2ccc(S(=O)(=O)N=c3cccc[n-]3)cc2)o1 (protonated)
C=c1[nH]c(=S)sc1=Cc1ccc(-c2ccc(S(=O)(=O)N=c3cccc[n-]3)cc2)o1 (3D coordinates assigned)
C=c1[nH]c(=S)sc1=Cc1ccc(-c2ccc(S(=O)(=O)N=c3cccc[n-]3)cc2)o1 (optimized conformer: 114.43352250805555 kcal/mol)

>  <smiles>  (18) 
C=c1[nH]c(=S)sc1=Cc1ccc(-c2ccc(S(=O)(=O)N=c3cccc[nH]3)cc2)o1

>  <score_type>  (18) 
oracle

>  <origin>  (18) 
adg

>  <m_score__min__energy>  (18) 
-10.68

>  <m_primary>  (18) 
energy

$$$$
18:0
     RDKit          3D

 53 55  0  0  0  0  0  0  0  0999 V2000
   62.5760   32.0830   48.5560 C   0  0  0  0  0  0  0  0  0  0  0  0
   61.7170   33.1440   47.8320 C   0  0  0  0  0  0  0  0  0  0  0  0
   62.5790   33.8060   46.7400 C   0  0  0  0  0  0  0  0  0  0  0  0
   61.2950   34.2140   48.8590 C   0  0  0  0  0  0  0  0  0  0  0  0
   60.4580   32.5710   47.1810 C   0  0  0  0  0  0  0  0  0  0  0  0
   59.1920   33.1880   47.2560 C   0  0  0  0  0  0  0  0  0  0  0  0
   58.1060   32.5970   46.6110 C   0  0  0  0  0  0  0  0  0  0  0  0
   56.9740   33.1470   46.6660 O   0  0  0  0  0  0  0  0  0  0  0  0
   58.2860   31.4020   45.9080 C   0  0  0  0  0  0  0  0  0  0  0  0
   57.2330   30.8100   45.2080 O   0  0  0  0  0  0  0  0  0  0  0  0
   59.5640   30.8160   45.8990 C   0  0  0  0  0  0  0  0  0  0  0  0
   59.8180   29.6140   45.2250 O   0  0  0  0  0  0  0  0  0  0  0  0
   58.9730   28.4940   45.2290 C   0  0  0  0  0  0  0  0  0  0  0  0
   58.4310   28.0660   46.4450 C   0  0  0  0  0  0  0  0  0  0  0  0
   57.5820   26.9570   46.4910 C   0  0  0  0  0  0  0  0  0  0  0  0
   57.2610   26.2660   45.3170 C   0  0  0  0  0  0  0  0  0  0  0  0
   56.1780   24.8810   45.3930 S   0  0  0  0  0  0  0  0  0  0  0  0
   55.9550   24.3510   44.0050 O   0  0  0  0  0  0  0  0  0  0  0  0
   54.8490   25.2690   45.9810 O   0  0  0  0  0  0  0  0  0  0  0  0
   56.8970   23.6460   46.3700 N   0  0  0  0  0  0  0  0  0  0  0  0
   56.3050   23.1960   47.5900 C   0  0  0  0  0  0  0  0  0  0  0  0
   57.0320   22.9080   48.5800 O   0  0  0  0  0  0  0  0  0  0  0  0
   54.8080   23.0640   47.6810 C   0  0  2  0  0  0  0  0  0  0  0  0
   54.3370   22.5310   49.0230 C   0  0  0  0  0  0  0  0  0  0  0  0
   53.1600   21.7780   48.8300 O   0  0  0  0  0  0  0  0  0  0  0  0
   52.9920   21.5900   47.4410 C   0  0  0  0  0  0  0  0  0  0  0  0
   54.2430   22.0550   46.7150 C   0  0  1  0  0  0  0  0  0  0  0  0
   53.9170   22.6410   45.4820 O   0  0  0  0  0  0  0  0  0  0  0  0
   57.7810   26.7030   44.0910 C   0  0  0  0  0  0  0  0  0  0  0  0
   58.6310   27.8130   44.0450 C   0  0  0  0  0  0  0  0  0  0  0  0
   60.5770   31.4250   46.5080 O   0  0  0  0  0  0  0  0  0  0  0  0
   62.4741   32.2089   49.6440 H   0  0  0  0  0  0  0  0  0  0  0  0
   62.2347   31.0773   48.2697 H   0  0  0  0  0  0  0  0  0  0  0  0
   63.6308   32.2076   48.2697 H   0  0  0  0  0  0  0  0  0  0  0  0
   63.3671   34.4113   47.2117 H   0  0  0  0  0  0  0  0  0  0  0  0
   63.0397   33.0274   46.1143 H   0  0  0  0  0  0  0  0  0  0  0  0
   61.9456   34.4520   46.1143 H   0  0  0  0  0  0  0  0  0  0  0  0
   61.4481   33.8259   49.8768 H   0  0  0  0  0  0  0  0  0  0  0  0
   61.9035   35.1192   48.7164 H   0  0  0  0  0  0  0  0  0  0  0  0
   60.2324   34.4602   48.7164 H   0  0  0  0  0  0  0  0  0  0  0  0
   59.0626   34.1252   47.8172 H   0  0  0  0  0  0  0  0  0  0  0  0
   56.2880   31.1720   45.2490 H   0  0  0  0  0  0  0  0  0  0  0  0
   58.6747   28.6061   47.3718 H   0  0  0  0  0  0  0  0  0  0  0  0
   57.1645   26.6260   47.4533 H   0  0  0  0  0  0  0  0  0  0  0  0
   54.4677   24.0907   47.4807 H   0  0  0  0  0  0  0  0  0  0  0  0
   55.1172   21.8904   49.4599 H   0  0  0  0  0  0  0  0  0  0  0  0
   54.1344   23.3694   49.7057 H   0  0  0  0  0  0  0  0  0  0  0  0
   52.8217   20.5234   47.2328 H   0  0  0  0  0  0  0  0  0  0  0  0
   52.1265   22.1729   47.0929 H   0  0  0  0  0  0  0  0  0  0  0  0
   54.9470   21.2472   46.4663 H   0  0  0  0  0  0  0  0  0  0  0  0
   54.6670   23.2540   45.2600 H   0  0  0  0  0  0  0  0  0  0  0  0
   57.5203   26.1722   43.1635 H   0  0  0  0  0  0  0  0  0  0  0  0
   59.0337   28.1551   43.0802 H   0  0  0  0  0  0  0  0  0  0  0  0
  1  2  1  0
  2  3  1  0
  2  4  1  0
  2  5  1  0
  5  6  2  0
  6  7  1  0
  7  8  2  0
  7  9  1  0
  9 10  1  0
  9 11  2  0
 11 12  1  0
 12 13  1  0
 13 14  2  0
 14 15  1  0
 15 16  2  0
 16 17  1  0
 17 18  2  0
 17 19  2  0
 17 20  1  0
 20 21  1  0
 21 22  2  0
 21 23  1  0
 23 24  1  0
 24 25  1  0
 25 26  1  0
 26 27  1  0
 27 28  1  0
 16 29  1  0
 29 30  2  0
 11 31  1  0
 31  5  1  0
 30 13  1  0
 27 23  1  0
  1 32  1  0
  1 33  1  0
  1 34  1  0
  3 35  1  0
  3 36  1  0
  3 37  1  0
  4 38  1  0
  4 39  1  0
  4 40  1  0
  6 41  1  0
 10 42  1  0
 14 43  1  0
 15 44  1  0
 23 45  1  6
 24 46  1  0
 24 47  1  0
 26 48  1  0
 26 49  1  0
 27 50  1  6
 28 51  1  0
 29 52  1  0
 30 53  1  0
M  CHG  1  20  -1
M  END
>  <UniqueID>  (19) 
19

>  <SMILES>  (19) 
CC(C)(C)c1cc(=O)c(O)c(Oc2ccc(S(=O)(=O)[N-]C(=O)[C@@H]3COC[C@H]3O)cc2)o1

>  <Energy>  (19) 
65.36967353807536

>  <Genealogy>  (19) 
CC(C)(C)c1cc(=O)c(O)c(Oc2ccc(S(=O)(=O)[N-]C(=O)C3COCC3O)cc2)o1 (protonated)
CC(C)(C)c1cc(=O)c(O)c(Oc2ccc(S(=O)(=O)[N-]C(=O)[C@@H]3COC[C@H]3O)cc2)o1 (chirality)
CC(C)(C)c1cc(=O)c(O)c(Oc2ccc(S(=O)(=O)[N-]C(=O)[C@@H]3COC[C@H]3O)cc2)o1 (3D coordinates assigned)
CC(C)(C)c1cc(=O)c(O)c(Oc2ccc(S(=O)(=O)[N-]C(=O)[C@@H]3COC[C@H]3O)cc2)o1 (nonaromatic ring conformer: 65.36967353807536 kcal/mol)

>  <smiles>  (19) 
CC(C)(C)c1cc(=O)c(O)c(Oc2ccc(S(=O)(=O)NC(=O)C3COCC3O)cc2)o1

>  <score_type>  (19) 
oracle

>  <origin>  (19) 
adg

>  <m_score__min__energy>  (19) 
-10.35

>  <m_primary>  (19) 
energy

$$$$
19:0
     RDKit          3D

 49 52  0  0  0  0  0  0  0  0999 V2000
   55.1390   26.3790   47.1000 H   0  0  0  0  0  0  0  0  0  0  0  0
   54.7780   26.3280   46.1550 O   0  0  0  0  0  0  0  0  0  0  0  0
   54.3430   25.1240   45.6070 C   0  0  0  0  0  0  0  0  0  0  0  0
   53.0500   24.8450   45.3750 N   0  0  0  0  0  0  0  0  0  0  0  0
   53.1010   23.5950   44.8660 C   0  0  0  0  0  0  0  0  0  0  0  0
   52.0710   22.9620   44.5180 O   0  0  0  0  0  0  0  0  0  0  0  0
   54.3430   23.0750   44.7700 N   0  0  0  0  0  0  0  0  0  0  0  0
   55.1340   24.0630   45.2240 C   0  0  0  0  0  0  0  0  0  0  0  0
   56.5910   23.9470   45.4310 C   0  0  0  0  0  0  0  0  0  0  0  0
   57.0454   22.9583   45.2695 H   0  0  0  0  0  0  0  0  0  0  0  0
   57.4090   24.9470   45.8000 C   0  0  0  0  0  0  0  0  0  0  0  0
   57.8890   25.8340   44.9020 N   0  0  0  0  0  0  0  0  0  0  0  0
   58.6820   26.6840   45.5900 C   0  0  0  0  0  0  0  0  0  0  0  0
   59.3680   27.6600   44.9930 C   0  0  0  0  0  0  0  0  0  0  0  0
   60.0028   28.3310   45.5904 H   0  0  0  0  0  0  0  0  0  0  0  0
   59.2989   27.7938   43.9034 H   0  0  0  0  0  0  0  0  0  0  0  0
   58.7160   26.3490   46.9390 C   0  0  0  0  0  0  0  0  0  0  0  0
   59.4670   26.9990   48.0330 C   0  0  0  0  0  0  0  0  0  0  0  0
   59.9780   26.2800   48.9360 O   0  0  0  0  0  0  0  0  0  0  0  0
   59.6210   28.4280   48.0930 N   0  0  0  0  0  0  0  0  0  0  0  0
   60.8540   28.9880   48.6610 C   0  0  0  0  0  0  0  0  0  0  0  0
   60.8749   28.7886   49.7426 H   0  0  0  0  0  0  0  0  0  0  0  0
   61.7148   28.5151   48.1656 H   0  0  0  0  0  0  0  0  0  0  0  0
   60.9270   30.4990   48.4290 C   0  0  0  0  0  0  0  0  0  0  0  0
   60.3507   31.0205   49.2074 H   0  0  0  0  0  0  0  0  0  0  0  0
   61.9742   30.8329   48.4726 H   0  0  0  0  0  0  0  0  0  0  0  0
   60.3590   30.8060   47.1030 N   0  0  0  0  0  0  0  0  0  0  0  0
   60.6830   32.1830   46.6820 C   0  0  0  0  0  0  0  0  0  0  0  0
   61.0952   32.1638   45.6623 H   0  0  0  0  0  0  0  0  0  0  0  0
   59.7663   32.7905   46.7049 H   0  0  0  0  0  0  0  0  0  0  0  0
   61.7010   32.7900   47.6210 C   0  0  0  0  0  0  0  0  0  0  0  0
   63.0600   32.4900   47.4170 C   0  0  0  0  0  0  0  0  0  0  0  0
   63.3549   31.8387   46.5810 H   0  0  0  0  0  0  0  0  0  0  0  0
   64.0390   33.0120   48.2670 C   0  0  0  0  0  0  0  0  0  0  0  0
   65.0992   32.7727   48.0975 H   0  0  0  0  0  0  0  0  0  0  0  0
   63.6710   33.8370   49.3310 C   0  0  0  0  0  0  0  0  0  0  0  0
   64.4421   34.2499   49.9980 H   0  0  0  0  0  0  0  0  0  0  0  0
   62.3250   34.1390   49.5500 C   0  0  0  0  0  0  0  0  0  0  0  0
   62.0404   34.7869   50.3921 H   0  0  0  0  0  0  0  0  0  0  0  0
   61.3350   33.6220   48.7040 C   0  0  0  0  0  0  0  0  0  0  0  0
   59.6590   34.0340   49.0500 Cl  0  0  0  0  0  0  0  0  0  0  0  0
   58.8930   30.5970   47.1060 C   0  0  0  0  0  0  0  0  0  0  0  0
   58.4164   31.4585   47.5966 H   0  0  0  0  0  0  0  0  0  0  0  0
   58.5717   30.4935   46.0591 H   0  0  0  0  0  0  0  0  0  0  0  0
   58.4720   29.3110   47.8500 C   0  0  0  0  0  0  0  0  0  0  0  0
   58.0233   29.5874   48.8155 H   0  0  0  0  0  0  0  0  0  0  0  0
   57.7485   28.7705   47.2220 H   0  0  0  0  0  0  0  0  0  0  0  0
   57.9240   25.2280   47.0590 C   0  0  0  0  0  0  0  0  0  0  0  0
   57.7340   24.5060   48.2320 O   0  0  0  0  0  0  0  0  0  0  0  0
  1  2  1  0
  2  3  1  0
  3  4  1  0
  4  5  1  0
  5  6  2  0
  5  7  1  0
  7  8  1  0
  8  9  1  0
  9 10  1  0
  9 11  2  0
 11 12  1  0
 12 13  1  0
 13 14  2  0
 14 15  1  0
 14 16  1  0
 13 17  1  0
 17 18  1  0
 18 19  2  0
 18 20  1  0
 20 21  1  0
 21 22  1  0
 21 23  1  0
 21 24  1  0
 24 25  1  0
 24 26  1  0
 24 27  1  0
 27 28  1  0
 28 29  1  0
 28 30  1  0
 28 31  1  0
 31 32  2  0
 32 33  1  0
 32 34  1  0
 34 35  1  0
 34 36  2  0
 36 37  1  0
 36 38  1  0
 38 39  1  0
 38 40  2  0
 40 41  1  0
 27 42  1  0
 42 43  1  0
 42 44  1  0
 42 45  1  0
 45 46  1  0
 45 47  1  0
 17 48  2  0
 48 49  1  0
  8  3  2  0
 48 11  1  0
 45 20  1  0
 40 31  1  0
M  CHG  4   4  -1   7  -1  12  -1  49  -1
M  END
>  <UniqueID>  (20) 
20

>  <SMILES>  (20) 
C=c1[n-]/c(=C/c2[n-]c(=O)[n-]c2O)c([O-])c1C(=O)N1CCN(Cc2ccccc2Cl)CC1

>  <Energy>  (20) 
126.2533041924362

>  <Genealogy>  (20) 
C=c1[n-]c(=Cc2[n-]c(=O)[n-]c2O)c([O-])c1C(=O)N1CCN(Cc2ccccc2Cl)CC1 (protonated)
C=c1[n-]/c(=C/c2[n-]c(=O)[n-]c2O)c([O-])c1C(=O)N1CCN(Cc2ccccc2Cl)CC1 (cis-trans isomerization)
C=c1[n-]/c(=C/c2[n-]c(=O)[n-]c2O)c([O-])c1C(=O)N1CCN(Cc2ccccc2Cl)CC1 (3D coordinates assigned)
C=c1[n-]/c(=C/c2[n-]c(=O)[n-]c2O)c([O-])c1C(=O)N1CCN(Cc2ccccc2Cl)CC1 (nonaromatic ring conformer: 126.2533041924362 kcal/mol)

>  <smiles>  (20) 
C=c1[nH]c(=Cc2[nH]c(=O)[nH]c2O)c(O)c1C(=O)N1CCN(Cc2ccccc2Cl)CC1

>  <score_type>  (20) 
oracle

>  <origin>  (20) 
adg

>  <m_score__min__energy>  (20) 
-16.91

>  <m_primary>  (20) 
energy

$$$$
20:0
     RDKit          3D

 46 49  0  0  0  0  0  0  0  0999 V2000
   57.1625   29.7581   42.3856 H   0  0  0  0  0  0  0  0  0  0  0  0
   57.0310   29.3560   43.4010 C   0  0  0  0  0  0  0  0  0  0  0  0
   56.0570   30.0330   44.2780 C   0  0  0  0  0  0  0  0  0  0  0  0
   55.2010   29.3370   44.8880 O   0  0  0  0  0  0  0  0  0  0  0  0
   56.1520   31.4420   44.5260 N   0  0  0  0  0  0  0  0  0  0  0  0
   57.2830   32.1400   45.0630 C   0  0  0  0  0  0  0  0  0  0  0  0
   57.3860   33.5530   45.0060 C   0  0  0  0  0  0  0  0  0  0  0  0
   56.5677   34.1415   44.5656 H   0  0  0  0  0  0  0  0  0  0  0  0
   58.5240   34.2090   45.5070 C   0  0  0  0  0  0  0  0  0  0  0  0
   58.5984   35.3060   45.4734 H   0  0  0  0  0  0  0  0  0  0  0  0
   59.5560   33.4440   46.0470 C   0  0  0  0  0  0  0  0  0  0  0  0
   60.7060   33.9570   46.5540 N   0  0  0  0  0  0  0  0  0  0  0  0
   61.5180   32.9660   46.9950 C   0  0  0  0  0  0  0  0  0  0  0  0
   63.1200   33.2680   47.7310 S   0  0  0  0  0  0  0  0  0  0  0  0
   62.4170   34.0320   49.2280 C   0  0  0  0  0  0  0  0  0  0  0  0
   62.0219   35.0282   48.9801 H   0  0  0  0  0  0  0  0  0  0  0  0
   63.2015   34.1282   49.9931 H   0  0  0  0  0  0  0  0  0  0  0  0
   61.3070   33.1710   49.7560 C   0  0  0  0  0  0  0  0  0  0  0  0
   61.5540   31.8330   50.1040 C   0  0  0  0  0  0  0  0  0  0  0  0
   62.5705   31.4224   50.0137 H   0  0  0  0  0  0  0  0  0  0  0  0
   60.5130   31.0200   50.5650 C   0  0  0  0  0  0  0  0  0  0  0  0
   60.7142   29.9755   50.8452 H   0  0  0  0  0  0  0  0  0  0  0  0
   59.2150   31.5350   50.6700 C   0  0  0  0  0  0  0  0  0  0  0  0
   58.1430   30.6980   51.1430 C   0  0  0  0  0  0  0  0  0  0  0  0
   57.2820   30.0250   51.5230 N   0  0  0  0  0  0  0  0  0  0  0  0
   58.9610   32.8650   50.3100 C   0  0  0  0  0  0  0  0  0  0  0  0
   57.9416   33.2705   50.3896 H   0  0  0  0  0  0  0  0  0  0  0  0
   60.0010   33.6770   49.8500 C   0  0  0  0  0  0  0  0  0  0  0  0
   59.7953   34.7180   49.5601 H   0  0  0  0  0  0  0  0  0  0  0  0
   60.8520   31.4270   46.7690 S   0  0  0  0  0  0  0  0  0  0  0  0
   59.4600   32.0630   46.0810 C   0  0  0  0  0  0  0  0  0  0  0  0
   58.3460   31.3870   45.5930 C   0  0  0  0  0  0  0  0  0  0  0  0
   58.2979   30.2884   45.6211 H   0  0  0  0  0  0  0  0  0  0  0  0
   57.7700   28.2880   43.7430 C   0  0  0  0  0  0  0  0  0  0  0  0
   57.8294   27.4605   43.0207 H   0  0  0  0  0  0  0  0  0  0  0  0
   58.5100   28.1370   45.0140 C   0  0  0  0  0  0  0  0  0  0  0  0
   57.8340   27.9630   46.2360 C   0  0  0  0  0  0  0  0  0  0  0  0
   56.7350   27.9197   46.2533 H   0  0  0  0  0  0  0  0  0  0  0  0
   58.5550   27.8450   47.4280 C   0  0  0  0  0  0  0  0  0  0  0  0
   58.0238   27.6883   48.3784 H   0  0  0  0  0  0  0  0  0  0  0  0
   59.9500   27.9260   47.4130 C   0  0  0  0  0  0  0  0  0  0  0  0
   60.5164   27.8252   48.3505 H   0  0  0  0  0  0  0  0  0  0  0  0
   60.6260   28.1350   46.2080 C   0  0  0  0  0  0  0  0  0  0  0  0
   61.7234   28.2099   46.1992 H   0  0  0  0  0  0  0  0  0  0  0  0
   59.9080   28.2490   45.0130 C   0  0  0  0  0  0  0  0  0  0  0  0
   60.4423   28.4273   44.0681 H   0  0  0  0  0  0  0  0  0  0  0  0
  1  2  1  0
  2  3  1  0
  3  4  2  0
  3  5  1  0
  5  6  1  0
  6  7  2  0
  7  8  1  0
  7  9  1  0
  9 10  1  0
  9 11  2  0
 11 12  1  0
 12 13  2  0
 13 14  1  0
 14 15  1  0
 15 16  1  0
 15 17  1  0
 15 18  1  0
 18 19  2  0
 19 20  1  0
 19 21  1  0
 21 22  1  0
 21 23  2  0
 23 24  1  0
 24 25  3  0
 23 26  1  0
 26 27  1  0
 26 28  2  0
 28 29  1  0
 13 30  1  0
 30 31  1  0
 31 32  2  0
 32 33  1  0
  2 34  2  0
 34 35  1  0
 34 36  1  0
 36 37  2  0
 37 38  1  0
 37 39  1  0
 39 40  1  0
 39 41  2  0
 41 42  1  0
 41 43  1  0
 43 44  1  0
 43 45  2  0
 45 46  1  0
 32  6  1  0
 45 36  1  0
 31 11  1  0
 28 18  1  0
M  CHG  1   5  -1
M  END
>  <UniqueID>  (21) 
21

>  <SMILES>  (21) 
N#Cc1ccc(CSc2nc3ccc([N-]C(=O)/C=C\c4ccccc4)cc3s2)cc1

>  <Energy>  (21) 
89.89553826475847

>  <Genealogy>  (21) 
N#Cc1ccc(CSc2nc3ccc([N-]C(=O)C=Cc4ccccc4)cc3s2)cc1 (protonated)
N#Cc1ccc(CSc2nc3ccc([N-]C(=O)/C=C\c4ccccc4)cc3s2)cc1 (cis-trans isomerization)
N#Cc1ccc(CSc2nc3ccc([N-]C(=O)/C=C\c4ccccc4)cc3s2)cc1 (3D coordinates assigned)
N#Cc1ccc(CSc2nc3ccc([N-]C(=O)/C=C\c4ccccc4)cc3s2)cc1 (optimized conformer: 89.89553826475847 kcal/mol)

>  <smiles>  (21) 
N#Cc1ccc(CSc2nc3ccc(NC(=O)C=Cc4ccccc4)cc3s2)cc1

>  <score_type>  (21) 
oracle

>  <origin>  (21) 
adg

>  <m_score__min__energy>  (21) 
-11.140000000000001

>  <m_primary>  (21) 
energy

$$$$
21:0
     RDKit          3D

 23 24  0  0  0  0  0  0  0  0999 V2000
   57.8130   27.3750   45.2870 O   0  0  0  0  0  0  0  0  0  0  0  0
   57.2240   28.4490   44.9690 C   0  0  0  0  0  0  0  0  0  0  0  0
   57.8980   29.6080   44.6520 C   0  0  0  0  0  0  0  0  0  0  0  0
   56.8920   30.5360   44.3670 C   0  0  0  0  0  0  0  0  0  0  0  0
   57.0750   31.9510   43.9680 C   0  0  0  0  0  0  0  0  0  0  0  0
   57.8010   32.7460   44.9740 C   0  0  0  0  0  0  0  0  0  0  0  0
   57.7640   32.4150   46.3170 C   0  0  0  0  0  0  0  0  0  0  0  0
   58.4680   33.2030   47.2120 C   0  0  0  0  0  0  0  0  0  0  0  0
   59.2010   34.3030   46.8140 C   0  0  0  0  0  0  0  0  0  0  0  0
   59.2360   34.6330   45.4730 C   0  0  0  0  0  0  0  0  0  0  0  0
   58.5390   33.8550   44.5700 C   0  0  0  0  0  0  0  0  0  0  0  0
   55.6960   29.9170   44.5190 N   0  0  0  0  0  0  0  0  0  0  0  0
   55.8810   28.6570   44.8820 N   0  0  0  0  0  0  0  0  0  0  0  0
   58.9861   29.7677   44.6284 H   0  0  0  0  0  0  0  0  0  0  0  0
   57.6409   31.9785   43.0251 H   0  0  0  0  0  0  0  0  0  0  0  0
   56.0737   32.3936   43.8605 H   0  0  0  0  0  0  0  0  0  0  0  0
   57.1881   31.5452   46.6660 H   0  0  0  0  0  0  0  0  0  0  0  0
   58.4422   32.9426   48.2804 H   0  0  0  0  0  0  0  0  0  0  0  0
   59.7483   34.9070   47.5527 H   0  0  0  0  0  0  0  0  0  0  0  0
   59.8120   35.5047   45.1289 H   0  0  0  0  0  0  0  0  0  0  0  0
   58.5677   34.1187   43.5025 H   0  0  0  0  0  0  0  0  0  0  0  0
   54.7670   30.3530   44.3750 H   0  0  0  0  0  0  0  0  0  0  0  0
   55.1460   27.9190   45.0770 H   0  0  0  0  0  0  0  0  0  0  0  0
  1  2  2  0
  2  3  1  0
  3  4  2  0
  4  5  1  0
  5  6  1  0
  6  7  2  0
  7  8  1  0
  8  9  2  0
  9 10  1  0
 10 11  2  0
  4 12  1  0
 12 13  1  0
 13  2  1  0
 11  6  1  0
  3 14  1  0
  5 15  1  0
  5 16  1  0
  7 17  1  0
  8 18  1  0
  9 19  1  0
 10 20  1  0
 11 21  1  0
 12 22  1  0
 13 23  1  0
M  END
>  <smiles>  (22) 
O=c1cc(Cc2ccccc2)[nH][nH]1

>  <score_type>  (22) 
oracle

>  <origin>  (22) 
adg

>  <m_score__min__energy>  (22) 
-6.1799999999999997

>  <m_primary>  (22) 
energy

$$$$
22:0
     RDKit          3D

 35 37  0  0  0  0  0  0  0  0999 V2000
   61.9320   31.6210   46.7980 H   0  0  0  0  0  0  0  0  0  0  0  0
   62.8580   31.5960   47.2090 O   0  0  0  0  0  0  0  0  0  0  0  0
   63.1860   32.3650   48.3260 C   0  0  0  0  0  0  0  0  0  0  0  0
   64.2400   31.9580   49.1540 C   0  0  0  0  0  0  0  0  0  0  0  0
   64.7963   31.0393   48.9160 H   0  0  0  0  0  0  0  0  0  0  0  0
   64.5910   32.7070   50.2780 C   0  0  0  0  0  0  0  0  0  0  0  0
   65.4195   32.3752   50.9210 H   0  0  0  0  0  0  0  0  0  0  0  0
   63.8900   33.8830   50.5910 C   0  0  0  0  0  0  0  0  0  0  0  0
   64.2040   34.6730   51.7070 O   0  0  0  0  0  0  0  0  0  0  0  0
   65.4930   34.7340   52.3100 C   0  0  0  0  0  0  0  0  0  0  0  0
   65.3863   34.7289   53.4048 H   0  0  0  0  0  0  0  0  0  0  0  0
   66.0866   33.8629   51.9954 H   0  0  0  0  0  0  0  0  0  0  0  0
   66.0016   35.6572   51.9954 H   0  0  0  0  0  0  0  0  0  0  0  0
   62.8370   34.2920   49.7650 C   0  0  0  0  0  0  0  0  0  0  0  0
   62.2865   35.2130   50.0074 H   0  0  0  0  0  0  0  0  0  0  0  0
   62.4700   33.5460   48.6300 C   0  0  0  0  0  0  0  0  0  0  0  0
   61.3440   34.0410   47.8020 C   0  0  0  0  0  0  0  0  0  0  0  0
   60.6417   34.7716   48.2299 H   0  0  0  0  0  0  0  0  0  0  0  0
   61.1690   33.6300   46.5810 N   0  0  0  0  0  0  0  0  0  0  0  0
   60.0230   32.9320   46.0670 C   0  0  0  0  0  0  0  0  0  0  0  0
   59.7870   31.7050   46.5220 O   0  0  0  0  0  0  0  0  0  0  0  0
   58.7600   30.9630   46.1160 C   0  0  0  0  0  0  0  0  0  0  0  0
   58.5780   29.6820   46.6480 C   0  0  0  0  0  0  0  0  0  0  0  0
   59.2838   29.2933   47.3968 H   0  0  0  0  0  0  0  0  0  0  0  0
   57.5010   28.8950   46.2300 C   0  0  0  0  0  0  0  0  0  0  0  0
   57.3615   27.8883   46.6508 H   0  0  0  0  0  0  0  0  0  0  0  0
   56.6000   29.3840   45.2780 C   0  0  0  0  0  0  0  0  0  0  0  0
   55.5320   28.5960   44.8660 O   0  0  0  0  0  0  0  0  0  0  0  0
   56.7730   30.6630   44.7390 C   0  0  0  0  0  0  0  0  0  0  0  0
   56.0633   31.0444   43.9901 H   0  0  0  0  0  0  0  0  0  0  0  0
   57.8540   31.4620   45.1540 C   0  0  0  0  0  0  0  0  0  0  0  0
   58.0750   32.7500   44.6410 C   0  0  0  0  0  0  0  0  0  0  0  0
   57.3070   33.2450   43.7730 O   0  0  0  0  0  0  0  0  0  0  0  0
   59.1680   33.4910   45.0970 C   0  0  0  0  0  0  0  0  0  0  0  0
   59.3589   34.5001   44.7029 H   0  0  0  0  0  0  0  0  0  0  0  0
  1  2  1  0
  2  3  1  0
  3  4  2  0
  4  5  1  0
  4  6  1  0
  6  7  1  0
  6  8  2  0
  8  9  1  0
  9 10  1  0
 10 11  1  0
 10 12  1  0
 10 13  1  0
  8 14  1  0
 14 15  1  0
 14 16  2  0
 16 17  1  0
 17 18  1  0
 17 19  2  0
 19 20  1  0
 20 21  1  0
 21 22  1  0
 22 23  2  0
 23 24  1  0
 23 25  1  0
 25 26  1  0
 25 27  2  0
 27 28  1  0
 27 29  1  0
 29 30  1  0
 29 31  2  0
 31 32  1  0
 32 33  2  0
 32 34  1  0
 34 35  1  0
 16  3  1  0
 34 20  2  0
 31 22  1  0
M  CHG  1  28  -1
M  END
>  <UniqueID>  (23) 
22

>  <SMILES>  (23) 
COc1ccc(O)c(/C=N/c2cc(=O)c3cc([O-])ccc3o2)c1

>  <Energy>  (23) 
46.86745508235994

>  <Genealogy>  (23) 
COc1ccc(O)c(C=Nc2cc(=O)c3cc([O-])ccc3o2)c1 (protonated)
COc1ccc(O)c(/C=N/c2cc(=O)c3cc([O-])ccc3o2)c1 (cis-trans isomerization)
COc1ccc(O)c(/C=N/c2cc(=O)c3cc([O-])ccc3o2)c1 (3D coordinates assigned)
COc1ccc(O)c(/C=N/c2cc(=O)c3cc([O-])ccc3o2)c1 (optimized conformer: 46.86745508235994 kcal/mol)

>  <smiles>  (23) 
COc1ccc(O)c(C=Nc2cc(=O)c3cc(O)ccc3o2)c1

>  <score_type>  (23) 
oracle

>  <origin>  (23) 
adg

>  <m_score__min__energy>  (23) 
-9.3599999999999994

>  <m_primary>  (23) 
energy

$$$$
23:0
     RDKit          3D

 45 47  0  0  0  0  0  0  0  0999 V2000
   57.7490   25.8390   44.0170 C   0  0  0  0  0  0  0  0  0  0  0  0
   58.1430   27.0050   43.1580 C   0  0  0  0  0  0  0  0  0  0  0  0
   58.2750   26.8420   41.9520 O   0  0  0  0  0  0  0  0  0  0  0  0
   58.3520   28.3130   43.7490 N   0  0  0  0  0  0  0  0  0  0  0  0
   57.0510   28.9460   44.0810 C   0  0  0  0  0  0  0  0  0  0  0  0
   57.1630   30.0610   45.1450 C   0  0  0  0  0  0  0  0  0  0  0  0
   58.5400   30.5510   45.2710 N   0  0  0  0  0  0  0  0  0  0  0  0
   58.7960   31.9590   45.3970 C   0  0  0  0  0  0  0  0  0  0  0  0
   59.3550   32.4480   46.5850 C   0  0  0  0  0  0  0  0  0  0  0  0
   59.6420   33.8160   46.7340 C   0  0  0  0  0  0  0  0  0  0  0  0
   60.2030   34.3330   47.9540 N   0  0  0  0  0  0  0  0  0  0  0  0
   61.5310   34.0430   48.4240 C   0  0  0  0  0  0  0  0  0  0  0  0
   61.8810   34.2110   49.7770 C   0  0  0  0  0  0  0  0  0  0  0  0
   63.1720   33.9000   50.2140 C   0  0  0  0  0  0  0  0  0  0  0  0
   64.1170   33.4050   49.3130 C   0  0  0  0  0  0  0  0  0  0  0  0
   63.7700   33.2130   47.9730 C   0  0  0  0  0  0  0  0  0  0  0  0
   62.4800   33.5230   47.5310 C   0  0  0  0  0  0  0  0  0  0  0  0
   59.3180   34.6990   45.6960 C   0  0  0  0  0  0  0  0  0  0  0  0
   58.7520   34.2220   44.5110 C   0  0  0  0  0  0  0  0  0  0  0  0
   58.4920   32.8550   44.3510 C   0  0  0  0  0  0  0  0  0  0  0  0
   57.8800   32.3950   43.1300 C   0  0  0  0  0  0  0  0  0  0  0  0
   57.3890   32.0260   42.1490 N   0  0  0  0  0  0  0  0  0  0  0  0
   59.6550   29.6080   45.3880 C   0  0  0  0  0  0  0  0  0  0  0  0
   59.2300   28.2070   44.9300 C   0  0  0  0  0  0  0  0  0  0  0  0
   57.8428   26.1165   45.0773 H   0  0  0  0  0  0  0  0  0  0  0  0
   56.7069   25.5605   43.8016 H   0  0  0  0  0  0  0  0  0  0  0  0
   58.4086   24.9855   43.8016 H   0  0  0  0  0  0  0  0  0  0  0  0
   58.8320   28.9190   43.0390 H   0  0  0  0  0  0  0  0  0  0  0  0
   56.6312   29.3819   43.1624 H   0  0  0  0  0  0  0  0  0  0  0  0
   56.4063   28.1602   44.5017 H   0  0  0  0  0  0  0  0  0  0  0  0
   56.5113   30.8983   44.8546 H   0  0  0  0  0  0  0  0  0  0  0  0
   56.8566   29.6428   46.1151 H   0  0  0  0  0  0  0  0  0  0  0  0
   59.5717   31.7537   47.4103 H   0  0  0  0  0  0  0  0  0  0  0  0
   59.6050   34.9610   48.5380 H   0  0  0  0  0  0  0  0  0  0  0  0
   61.1361   34.5883   50.4930 H   0  0  0  0  0  0  0  0  0  0  0  0
   63.4440   34.0455   51.2699 H   0  0  0  0  0  0  0  0  0  0  0  0
   65.1339   33.1663   49.6578 H   0  0  0  0  0  0  0  0  0  0  0  0
   64.5128   32.8174   47.2647 H   0  0  0  0  0  0  0  0  0  0  0  0
   62.2080   33.3583   46.4780 H   0  0  0  0  0  0  0  0  0  0  0  0
   59.5105   35.7755   45.8146 H   0  0  0  0  0  0  0  0  0  0  0  0
   58.5093   34.9237   43.6994 H   0  0  0  0  0  0  0  0  0  0  0  0
   60.4892   29.9554   44.7608 H   0  0  0  0  0  0  0  0  0  0  0  0
   59.9658   29.5566   46.4419 H   0  0  0  0  0  0  0  0  0  0  0  0
   60.1237   27.6211   44.6694 H   0  0  0  0  0  0  0  0  0  0  0  0
   58.6848   27.7080   45.7447 H   0  0  0  0  0  0  0  0  0  0  0  0
  1  2  1  0
  2  3  2  0
  2  4  1  0
  4  5  1  0
  5  6  1  0
  6  7  1  0
  7  8  1  0
  8  9  2  0
  9 10  1  0
 10 11  1  0
 11 12  1  0
 12 13  2  0
 13 14  1  0
 14 15  2  0
 15 16  1  0
 16 17  2  0
 10 18  2  0
 18 19  1  0
 19 20  2  0
 20 21  1  0
 21 22  3  0
  7 23  1  0
 23 24  1  0
 24  4  1  0
 20  8  1  0
 17 12  1  0
  1 25  1  0
  1 26  1  0
  1 27  1  0
  4 28  1  0
  5 29  1  0
  5 30  1  0
  6 31  1  0
  6 32  1  0
  9 33  1  0
 11 34  1  0
 13 35  1  0
 14 36  1  0
 15 37  1  0
 16 38  1  0
 17 39  1  0
 18 40  1  0
 19 41  1  0
 23 42  1  0
 23 43  1  0
 24 44  1  0
 24 45  1  0
M  CHG  1   4   1
M  END
>  <UniqueID>  (24) 
23

>  <SMILES>  (24) 
CC(=O)[NH+]1CCN(c2cc(Nc3ccccc3)ccc2C#N)CC1

>  <Energy>  (24) 
61.438370961119745

>  <Genealogy>  (24) 
CC(=O)[NH+]1CCN(c2cc(Nc3ccccc3)ccc2C#N)CC1 (protonated)
CC(=O)[NH+]1CCN(c2cc(Nc3ccccc3)ccc2C#N)CC1 (3D coordinates assigned)
CC(=O)[NH+]1CCN(c2cc(Nc3ccccc3)ccc2C#N)CC1 (nonaromatic ring conformer: 61.438370961119745 kcal/mol)

>  <smiles>  (24) 
CC(=O)N1CCN(c2cc(Nc3ccccc3)ccc2C#N)CC1

>  <score_type>  (24) 
oracle

>  <origin>  (24) 
adg

>  <m_score__min__energy>  (24) 
-6.4699999999999998

>  <m_primary>  (24) 
energy

$$$$
24:0
     RDKit          3D

 60 63  0  0  0  0  0  0  0  0999 V2000
   65.0960   33.0810   50.0420 C   0  0  0  0  0  0  0  0  0  0  0  0
   63.9690   33.2430   51.0150 C   0  0  0  0  0  0  0  0  0  0  0  0
   64.1890   33.8370   52.2630 C   0  0  0  0  0  0  0  0  0  0  0  0
   63.1220   33.9750   53.1500 C   0  0  0  0  0  0  0  0  0  0  0  0
   61.8490   33.5150   52.7980 C   0  0  0  0  0  0  0  0  0  0  0  0
   60.7950   33.7260   53.6910 O   0  0  0  0  0  0  0  0  0  0  0  0
   61.6690   32.8840   51.5470 C   0  0  0  0  0  0  0  0  0  0  0  0
   60.3760   32.2780   51.1570 C   0  0  0  0  0  0  0  0  0  0  0  0
   59.3200   32.9230   51.4040 O   0  0  0  0  0  0  0  0  0  0  0  0
   60.2900   30.9780   50.5240 N   0  0  0  0  0  0  0  0  0  0  0  0
   61.4560   30.0860   50.4590 C   0  0  0  0  0  0  0  0  0  0  0  0
   61.1420   28.8080   49.6790 C   0  0  0  0  0  0  0  0  0  0  0  0
   60.4500   29.1600   48.4310 N   0  0  0  0  0  0  0  0  0  0  0  0
   60.4090   28.0630   47.4360 C   0  0  0  0  0  0  0  0  0  0  0  0
   59.0090   27.7020   46.9630 C   0  0  0  0  0  0  0  0  0  0  0  0
   58.3450   28.5390   46.0490 C   0  0  0  0  0  0  0  0  0  0  0  0
   57.0460   28.2410   45.5930 C   0  0  0  0  0  0  0  0  0  0  0  0
   56.3750   29.1560   44.6310 C   0  0  0  0  0  0  0  0  0  0  0  0
   55.1370   29.3830   44.7190 O   0  0  0  0  0  0  0  0  0  0  0  0
   57.1280   29.7810   43.5860 N   0  0  0  0  0  0  0  0  0  0  0  0
   57.1460   31.2230   43.3770 C   0  0  0  0  0  0  0  0  0  0  0  0
   57.6970   31.8990   44.6010 C   0  0  0  0  0  0  0  0  0  0  0  0
   57.0050   32.9680   45.2000 C   0  0  0  0  0  0  0  0  0  0  0  0
   57.5130   33.5760   46.3530 C   0  0  0  0  0  0  0  0  0  0  0  0
   58.7060   33.1170   46.9210 C   0  0  0  0  0  0  0  0  0  0  0  0
   59.1920   33.7060   48.0400 F   0  0  0  0  0  0  0  0  0  0  0  0
   59.3910   32.0460   46.3370 C   0  0  0  0  0  0  0  0  0  0  0  0
   58.8880   31.4360   45.1830 C   0  0  0  0  0  0  0  0  0  0  0  0
   56.4190   27.0640   46.0560 C   0  0  0  0  0  0  0  0  0  0  0  0
   55.1380   26.7170   45.6420 O   0  0  0  0  0  0  0  0  0  0  0  0
   57.0890   26.2130   46.9370 C   0  0  0  0  0  0  0  0  0  0  0  0
   58.3790   26.5130   47.3780 C   0  0  0  0  0  0  0  0  0  0  0  0
   59.0290   25.6140   48.2150 O   0  0  0  0  0  0  0  0  0  0  0  0
   59.1480   29.8390   48.6330 C   0  0  0  0  0  0  0  0  0  0  0  0
   58.9970   30.4860   50.0240 C   0  0  0  0  0  0  0  0  0  0  0  0
   62.7330   32.7700   50.7030 N   0  0  0  0  0  0  0  0  0  0  0  0
   66.0388   32.9455   50.5922 H   0  0  0  0  0  0  0  0  0  0  0  0
   64.9107   32.2003   49.4096 H   0  0  0  0  0  0  0  0  0  0  0  0
   65.1663   33.9783   49.4096 H   0  0  0  0  0  0  0  0  0  0  0  0
   65.1926   34.1911   52.5411 H   0  0  0  0  0  0  0  0  0  0  0  0
   63.2821   34.4475   54.1304 H   0  0  0  0  0  0  0  0  0  0  0  0
   59.8260   33.5760   53.4460 H   0  0  0  0  0  0  0  0  0  0  0  0
   62.2827   30.6142   49.9615 H   0  0  0  0  0  0  0  0  0  0  0  0
   61.7325   29.8043   51.4858 H   0  0  0  0  0  0  0  0  0  0  0  0
   62.0786   28.2811   49.4441 H   0  0  0  0  0  0  0  0  0  0  0  0
   60.4988   28.1538   50.2859 H   0  0  0  0  0  0  0  0  0  0  0  0
   61.0007   28.3690   46.5606 H   0  0  0  0  0  0  0  0  0  0  0  0
   60.8146   27.1697   47.9335 H   0  0  0  0  0  0  0  0  0  0  0  0
   58.8501   29.4449   45.6826 H   0  0  0  0  0  0  0  0  0  0  0  0
   57.7803   31.4601   42.5101 H   0  0  0  0  0  0  0  0  0  0  0  0
   56.1223   31.5796   43.1903 H   0  0  0  0  0  0  0  0  0  0  0  0
   56.0624   33.3264   44.7606 H   0  0  0  0  0  0  0  0  0  0  0  0
   56.9733   34.4165   46.8137 H   0  0  0  0  0  0  0  0  0  0  0  0
   60.3271   31.6828   46.7862 H   0  0  0  0  0  0  0  0  0  0  0  0
   59.4272   30.5910   44.7301 H   0  0  0  0  0  0  0  0  0  0  0  0
   56.5945   25.2952   47.2878 H   0  0  0  0  0  0  0  0  0  0  0  0
   59.0443   30.6254   47.8709 H   0  0  0  0  0  0  0  0  0  0  0  0
   58.3670   29.0689   48.5496 H   0  0  0  0  0  0  0  0  0  0  0  0
   58.2949   31.3298   49.9531 H   0  0  0  0  0  0  0  0  0  0  0  0
   58.6193   29.7255   50.7232 H   0  0  0  0  0  0  0  0  0  0  0  0
  1  2  1  0
  2  3  2  0
  3  4  1  0
  4  5  2  0
  5  6  1  0
  5  7  1  0
  7  8  1  0
  8  9  2  0
  8 10  1  0
 10 11  1  0
 11 12  1  0
 12 13  1  0
 13 14  1  0
 14 15  1  0
 15 16  2  0
 16 17  1  0
 17 18  1  0
 18 19  2  0
 18 20  1  0
 20 21  1  0
 21 22  1  0
 22 23  2  0
 23 24  1  0
 24 25  2  0
 25 26  1  0
 25 27  1  0
 27 28  2  0
 17 29  2  0
 29 30  1  0
 29 31  1  0
 31 32  2  0
 32 33  1  0
 13 34  1  0
 34 35  1  0
  7 36  2  0
 36  2  1  0
 35 10  1  0
 32 15  1  0
 28 22  1  0
  1 37  1  0
  1 38  1  0
  1 39  1  0
  3 40  1  0
  4 41  1  0
  6 42  1  0
 11 43  1  0
 11 44  1  0
 12 45  1  0
 12 46  1  0
 14 47  1  0
 14 48  1  0
 16 49  1  0
 21 50  1  0
 21 51  1  0
 23 52  1  0
 24 53  1  0
 27 54  1  0
 28 55  1  0
 31 56  1  0
 34 57  1  0
 34 58  1  0
 35 59  1  0
 35 60  1  0
M  CHG  3  20  -1  30  -1  33  -1
M  END
>  <UniqueID>  (25) 
24

>  <SMILES>  (25) 
Cc1ccc(O)c(C(=O)N2CCN(Cc3cc(C(=O)[N-]Cc4ccc(F)cc4)c([O-])cc3[O-])CC2)n1

>  <Energy>  (25) 
80.1520205377548

>  <Genealogy>  (25) 
Cc1ccc(O)c(C(=O)N2CCN(Cc3cc(C(=O)[N-]Cc4ccc(F)cc4)c([O-])cc3[O-])CC2)n1 (protonated)
Cc1ccc(O)c(C(=O)N2CCN(Cc3cc(C(=O)[N-]Cc4ccc(F)cc4)c([O-])cc3[O-])CC2)n1 (3D coordinates assigned)
Cc1ccc(O)c(C(=O)N2CCN(Cc3cc(C(=O)[N-]Cc4ccc(F)cc4)c([O-])cc3[O-])CC2)n1 (nonaromatic ring conformer: 80.1520205377548 kcal/mol)

>  <smiles>  (25) 
Cc1ccc(O)c(C(=O)N2CCN(Cc3cc(C(=O)NCc4ccc(F)cc4)c(O)cc3O)CC2)n1

>  <score_type>  (25) 
oracle

>  <origin>  (25) 
adg

>  <m_score__min__energy>  (25) 
-15.67

>  <m_primary>  (25) 
energy

$$$$
25:0
     RDKit          3D

 32 34  0  0  0  0  0  0  0  0999 V2000
   57.8210   32.3140   50.1900 C   0  0  0  0  0  0  0  0  0  0  0  0
   58.1670   31.1040   51.0170 C   0  0  0  0  0  0  0  0  0  0  0  0
   59.4880   30.6170   51.0520 C   0  0  0  0  0  0  0  0  0  0  0  0
   60.5020   31.2640   50.3540 O   0  0  0  0  0  0  0  0  0  0  0  0
   59.7960   29.4690   51.7900 C   0  0  0  0  0  0  0  0  0  0  0  0
   58.7970   28.7930   52.4930 C   0  0  0  0  0  0  0  0  0  0  0  0
   57.4740   29.2560   52.4530 C   0  0  0  0  0  0  0  0  0  0  0  0
   57.1550   30.3960   51.6950 C   0  0  0  0  0  0  0  0  0  0  0  0
   55.8230   30.8240   51.6220 O   0  0  0  0  0  0  0  0  0  0  0  0
   54.7250   29.9790   51.9850 C   0  0  2  0  0  0  0  0  0  0  0  0
   53.4470   30.8020   51.9990 C   0  0  0  0  0  0  0  0  0  0  0  0
   52.8610   31.0990   53.2450 C   0  0  0  0  0  0  0  0  0  0  0  0
   51.6970   31.8670   53.3220 C   0  0  0  0  0  0  0  0  0  0  0  0
   51.1050   32.3620   52.1580 C   0  0  0  0  0  0  0  0  0  0  0  0
   49.9450   33.1250   52.2420 O   0  0  0  0  0  0  0  0  0  0  0  0
   51.6800   32.0900   50.9130 C   0  0  0  0  0  0  0  0  0  0  0  0
   51.0980   32.5870   49.7520 O   0  0  0  0  0  0  0  0  0  0  0  0
   52.8470   31.3210   50.8310 C   0  0  0  0  0  0  0  0  0  0  0  0
   55.0460   29.2440   53.3020 C   0  0  0  0  0  0  0  0  0  0  0  0
   56.3960   28.5930   53.2150 C   0  0  0  0  0  0  0  0  0  0  0  0
   56.6150   27.5220   53.8440 O   0  0  0  0  0  0  0  0  0  0  0  0
   57.5802   33.1562   50.8553 H   0  0  0  0  0  0  0  0  0  0  0  0
   58.6786   32.5818   49.5553 H   0  0  0  0  0  0  0  0  0  0  0  0
   56.9515   32.0879   49.5553 H   0  0  0  0  0  0  0  0  0  0  0  0
   60.8309   29.0970   51.8165 H   0  0  0  0  0  0  0  0  0  0  0  0
   59.0480   27.8964   53.0788 H   0  0  0  0  0  0  0  0  0  0  0  0
   54.5620   29.1830   51.2435 H   0  0  0  0  0  0  0  0  0  0  0  0
   53.3255   30.7217   54.1680 H   0  0  0  0  0  0  0  0  0  0  0  0
   51.2455   32.0825   54.3017 H   0  0  0  0  0  0  0  0  0  0  0  0
   53.3000   31.1196   49.8491 H   0  0  0  0  0  0  0  0  0  0  0  0
   55.0435   29.9664   54.1315 H   0  0  0  0  0  0  0  0  0  0  0  0
   54.2842   28.4700   53.4767 H   0  0  0  0  0  0  0  0  0  0  0  0
  1  2  1  0
  2  3  2  0
  3  4  1  0
  3  5  1  0
  5  6  2  0
  6  7  1  0
  7  8  2  0
  8  9  1  0
  9 10  1  0
 10 11  1  0
 11 12  2  0
 12 13  1  0
 13 14  2  0
 14 15  1  0
 14 16  1  0
 16 17  1  0
 16 18  2  0
 10 19  1  0
 19 20  1  0
 20 21  2  0
  8  2  1  0
 18 11  1  0
 20  7  1  0
  1 22  1  0
  1 23  1  0
  1 24  1  0
  5 25  1  0
  6 26  1  0
 10 27  1  6
 12 28  1  0
 13 29  1  0
 18 30  1  0
 19 31  1  0
 19 32  1  0
M  CHG  3   4  -1  15  -1  17  -1
M  END
>  <UniqueID>  (26) 
25

>  <SMILES>  (26) 
Cc1c([O-])ccc2c1O[C@H](c1ccc([O-])c([O-])c1)CC2=O

>  <Energy>  (26) 
39.857628650406255

>  <Genealogy>  (26) 
Cc1c([O-])ccc2c1OC(c1ccc([O-])c([O-])c1)CC2=O (protonated)
Cc1c([O-])ccc2c1O[C@H](c1ccc([O-])c([O-])c1)CC2=O (chirality)
Cc1c([O-])ccc2c1O[C@H](c1ccc([O-])c([O-])c1)CC2=O (3D coordinates assigned)
Cc1c([O-])ccc2c1O[C@H](c1ccc([O-])c([O-])c1)CC2=O (nonaromatic ring conformer: 39.857628650406255 kcal/mol)

>  <smiles>  (26) 
Cc1c(O)ccc2c1OC(c1ccc(O)c(O)c1)CC2=O

>  <score_type>  (26) 
oracle

>  <origin>  (26) 
adg

>  <m_score__min__energy>  (26) 
-15.529999999999999

>  <m_primary>  (26) 
energy

$$$$
26:0
     RDKit          3D

 62 65  0  0  0  0  0  0  0  0999 V2000
   55.5210   26.1690   45.9840 O   0  0  0  0  0  0  0  0  0  0  0  0
   56.2720   27.1830   45.9870 C   0  0  0  0  0  0  0  0  0  0  0  0
   55.8970   28.3450   45.2430 N   0  0  0  0  0  0  0  0  0  0  0  0
   56.9250   29.0470   44.0380 S   0  0  0  0  0  0  0  0  0  0  0  0
   56.0790   29.7110   42.9890 O   0  0  0  0  0  0  0  0  0  0  0  0
   57.7490   27.9740   43.3820 O   0  0  0  0  0  0  0  0  0  0  0  0
   57.9640   30.2430   44.8050 C   0  0  0  0  0  0  0  0  0  0  0  0
   59.2000   29.8600   45.3330 C   0  0  0  0  0  0  0  0  0  0  0  0
   59.9790   30.7770   46.0360 C   0  0  0  0  0  0  0  0  0  0  0  0
   59.5340   32.0970   46.2270 C   0  0  0  0  0  0  0  0  0  0  0  0
   60.3640   33.0410   46.9290 N   0  0  0  0  0  0  0  0  0  0  0  0
   61.6310   32.6620   47.5470 C   0  0  0  0  0  0  0  0  0  0  0  0
   61.5480   32.8230   49.0660 C   0  0  0  0  0  0  0  0  0  0  0  0
   60.2430   34.0170   49.5300 S   0  0  0  0  0  0  0  0  0  0  0  0
   59.2110   32.8030   50.3660 C   0  0  0  0  0  0  0  0  0  0  0  0
   59.0040   31.5460   49.7860 C   0  0  0  0  0  0  0  0  0  0  0  0
   58.1770   30.6100   50.4170 C   0  0  0  0  0  0  0  0  0  0  0  0
   57.5600   30.9270   51.6300 C   0  0  0  0  0  0  0  0  0  0  0  0
   57.7780   32.1760   52.2200 C   0  0  0  0  0  0  0  0  0  0  0  0
   58.6110   33.1100   51.5950 C   0  0  0  0  0  0  0  0  0  0  0  0
   58.2820   32.4920   45.6970 C   0  0  0  0  0  0  0  0  0  0  0  0
   57.7440   33.8030   45.9450 N   0  0  0  0  0  0  0  0  0  0  0  0
   57.0820   34.3900   45.0610 O   0  0  0  0  0  0  0  0  0  0  0  0
   58.1300   34.5070   47.0620 O   0  0  0  0  0  0  0  0  0  0  0  0
   57.5140   31.5580   44.9790 C   0  0  0  0  0  0  0  0  0  0  0  0
   57.5480   27.1520   46.7390 C   0  0  0  0  0  0  0  0  0  0  0  0
   57.9330   28.2490   47.5310 C   0  0  0  0  0  0  0  0  0  0  0  0
   59.1060   28.2010   48.2880 C   0  0  0  0  0  0  0  0  0  0  0  0
   59.9090   27.0490   48.2770 C   0  0  0  0  0  0  0  0  0  0  0  0
   61.0970   26.9530   49.0750 N   0  0  0  0  0  0  0  0  0  0  0  0
   61.1480   26.9790   50.5100 C   0  0  0  0  0  0  0  0  0  0  0  0
   61.1880   25.8850   51.1350 O   0  0  0  0  0  0  0  0  0  0  0  0
   61.1240   28.2460   51.2750 C   0  0  0  0  0  0  0  0  0  0  0  0
   61.8920   29.3380   50.8380 C   0  0  0  0  0  0  0  0  0  0  0  0
   61.8500   30.5540   51.5270 C   0  0  0  0  0  0  0  0  0  0  0  0
   61.0520   30.6840   52.6690 C   0  0  0  0  0  0  0  0  0  0  0  0
   60.3000   29.5980   53.1220 C   0  0  0  0  0  0  0  0  0  0  0  0
   60.3380   28.3790   52.4380 C   0  0  0  0  0  0  0  0  0  0  0  0
   59.6370   27.3260   52.9300 F   0  0  0  0  0  0  0  0  0  0  0  0
   59.5550   25.9750   47.4540 C   0  0  0  0  0  0  0  0  0  0  0  0
   58.3800   26.0190   46.6970 C   0  0  0  0  0  0  0  0  0  0  0  0
   59.5596   28.8299   45.1930 H   0  0  0  0  0  0  0  0  0  0  0  0
   60.9512   30.4652   46.4453 H   0  0  0  0  0  0  0  0  0  0  0  0
   60.0370   34.0270   47.0430 H   0  0  0  0  0  0  0  0  0  0  0  0
   61.8537   31.6124   47.3047 H   0  0  0  0  0  0  0  0  0  0  0  0
   62.4278   33.3144   47.1603 H   0  0  0  0  0  0  0  0  0  0  0  0
   61.3197   31.8469   49.5190 H   0  0  0  0  0  0  0  0  0  0  0  0
   62.5142   33.2015   49.4309 H   0  0  0  0  0  0  0  0  0  0  0  0
   59.4920   31.2936   48.8330 H   0  0  0  0  0  0  0  0  0  0  0  0
   58.0125   29.6240   49.9578 H   0  0  0  0  0  0  0  0  0  0  0  0
   56.9028   30.1941   52.1208 H   0  0  0  0  0  0  0  0  0  0  0  0
   57.2941   32.4242   53.1762 H   0  0  0  0  0  0  0  0  0  0  0  0
   58.7952   34.0858   52.0682 H   0  0  0  0  0  0  0  0  0  0  0  0
   56.5487   31.8637   44.5491 H   0  0  0  0  0  0  0  0  0  0  0  0
   57.3052   29.1520   47.5544 H   0  0  0  0  0  0  0  0  0  0  0  0
   59.4019   29.0692   48.8952 H   0  0  0  0  0  0  0  0  0  0  0  0
   62.5305   29.2358   49.9481 H   0  0  0  0  0  0  0  0  0  0  0  0
   62.4444   31.4085   51.1712 H   0  0  0  0  0  0  0  0  0  0  0  0
   61.0170   31.6413   53.2097 H   0  0  0  0  0  0  0  0  0  0  0  0
   59.6748   29.7020   54.0211 H   0  0  0  0  0  0  0  0  0  0  0  0
   60.2054   25.0894   47.4018 H   0  0  0  0  0  0  0  0  0  0  0  0
   58.1048   25.1620   46.0647 H   0  0  0  0  0  0  0  0  0  0  0  0
  1  2  2  0
  2  3  1  0
  3  4  1  0
  4  5  2  0
  4  6  2  0
  4  7  1  0
  7  8  2  0
  8  9  1  0
  9 10  2  0
 10 11  1  0
 11 12  1  0
 12 13  1  0
 13 14  1  0
 14 15  1  0
 15 16  2  0
 16 17  1  0
 17 18  2  0
 18 19  1  0
 19 20  2  0
 10 21  1  0
 21 22  1  0
 22 23  2  0
 22 24  1  0
 21 25  2  0
  2 26  1  0
 26 27  2  0
 27 28  1  0
 28 29  2  0
 29 30  1  0
 30 31  1  0
 31 32  2  0
 31 33  1  0
 33 34  2  0
 34 35  1  0
 35 36  2  0
 36 37  1  0
 37 38  2  0
 38 39  1  0
 29 40  1  0
 40 41  2  0
 25  7  1  0
 41 26  1  0
 20 15  1  0
 38 33  1  0
  8 42  1  0
  9 43  1  0
 11 44  1  0
 12 45  1  0
 12 46  1  0
 13 47  1  0
 13 48  1  0
 16 49  1  0
 17 50  1  0
 18 51  1  0
 19 52  1  0
 20 53  1  0
 25 54  1  0
 27 55  1  0
 28 56  1  0
 34 57  1  0
 35 58  1  0
 36 59  1  0
 37 60  1  0
 40 61  1  0
 41 62  1  0
M  CHG  4   3  -1  22   1  24  -1  30  -1
M  END
>  <UniqueID>  (27) 
26

>  <SMILES>  (27) 
O=C([N-]S(=O)(=O)c1ccc(NCCSc2ccccc2)c([N+](=O)[O-])c1)c1ccc([N-]C(=O)c2ccccc2F)cc1

>  <Energy>  (27) 
77.97636649161545

>  <Genealogy>  (27) 
O=C([N-]S(=O)(=O)c1ccc(NCCSc2ccccc2)c([N+](=O)[O-])c1)c1ccc([N-]C(=O)c2ccccc2F)cc1 (protonated)
O=C([N-]S(=O)(=O)c1ccc(NCCSc2ccccc2)c([N+](=O)[O-])c1)c1ccc([N-]C(=O)c2ccccc2F)cc1 (3D coordinates assigned)
O=C([N-]S(=O)(=O)c1ccc(NCCSc2ccccc2)c([N+](=O)[O-])c1)c1ccc([N-]C(=O)c2ccccc2F)cc1 (optimized conformer: 77.97636649161545 kcal/mol)

>  <smiles>  (27) 
O=C(NS(=O)(=O)c1ccc(NCCSc2ccccc2)c([N+](=O)[O-])c1)c1ccc(NC(=O)c2ccccc2F)cc1

>  <score_type>  (27) 
oracle

>  <origin>  (27) 
adg

>  <m_score__min__energy>  (27) 
-12.48

>  <m_primary>  (27) 
energy

$$$$
27:0
     RDKit          3D

 56 59  0  0  0  0  0  0  0  0999 V2000
   61.2700   34.5240   48.1220 O   0  0  0  0  0  0  0  0  0  0  0  0
   61.0710   33.4580   47.4800 C   0  0  0  0  0  0  0  0  0  0  0  0
   61.9900   32.3590   47.5910 N   0  0  0  0  0  0  0  0  0  0  0  0
   63.0100   32.2610   48.6000 C   0  0  0  0  0  0  0  0  0  0  0  0
   64.1400   33.1000   48.5850 C   0  0  0  0  0  0  0  0  0  0  0  0
   65.1070   32.9980   49.5910 C   0  0  0  0  0  0  0  0  0  0  0  0
   64.9490   32.0710   50.6230 C   0  0  0  0  0  0  0  0  0  0  0  0
   63.8200   31.2490   50.6590 C   0  0  0  0  0  0  0  0  0  0  0  0
   63.6620   30.3560   51.6650 F   0  0  0  0  0  0  0  0  0  0  0  0
   62.8500   31.3490   49.6550 C   0  0  0  0  0  0  0  0  0  0  0  0
   59.9110   33.3580   46.5820 C   0  0  0  0  0  0  0  0  0  0  0  0
   59.1170   34.4060   46.1610 C   0  0  0  0  0  0  0  0  0  0  0  0
   58.1590   33.8470   45.3420 C   0  0  0  0  0  0  0  0  0  0  0  0
   58.4300   32.4870   45.3130 C   0  0  0  0  0  0  0  0  0  0  0  0
   57.6840   31.4400   44.5740 C   0  0  0  0  0  0  0  0  0  0  0  0
   57.4870   31.5230   43.1830 C   0  0  0  0  0  0  0  0  0  0  0  0
   56.7810   30.5250   42.5100 C   0  0  0  0  0  0  0  0  0  0  0  0
   56.2590   29.4380   43.2140 C   0  0  0  0  0  0  0  0  0  0  0  0
   56.4360   29.3360   44.5980 C   0  0  0  0  0  0  0  0  0  0  0  0
   55.8870   28.2210   45.2520 O   0  0  0  0  0  0  0  0  0  0  0  0
   56.6210   27.1010   45.7480 C   0  0  0  0  0  0  0  0  0  0  0  0
   57.9700   26.9490   45.0300 C   0  0  0  0  0  0  0  0  0  0  0  0
   59.0920   26.4620   45.9630 C   0  0  0  0  0  0  0  0  0  0  0  0
   59.8940   27.5850   46.4970 N   0  0  0  0  0  0  0  0  0  0  0  0
   60.3500   28.4900   45.4180 C   0  0  0  0  0  0  0  0  0  0  0  0
   60.8760   29.8220   45.9890 C   0  0  0  0  0  0  0  0  0  0  0  0
   61.1700   29.6940   47.3650 O   0  0  0  0  0  0  0  0  0  0  0  0
   59.9730   29.4790   48.0910 C   0  0  0  0  0  0  0  0  0  0  0  0
   59.1160   28.3400   47.4960 C   0  0  0  0  0  0  0  0  0  0  0  0
   57.1570   30.3400   45.2740 C   0  0  0  0  0  0  0  0  0  0  0  0
   59.4800   32.2320   46.0630 O   0  0  0  0  0  0  0  0  0  0  0  0
   61.9710   31.6280   46.8440 H   0  0  0  0  0  0  0  0  0  0  0  0
   64.2633   33.8387   47.7793 H   0  0  0  0  0  0  0  0  0  0  0  0
   65.9932   33.6492   49.5688 H   0  0  0  0  0  0  0  0  0  0  0  0
   65.7144   31.9878   51.4087 H   0  0  0  0  0  0  0  0  0  0  0  0
   61.9564   30.7087   49.6929 H   0  0  0  0  0  0  0  0  0  0  0  0
   59.2262   35.4683   46.4247 H   0  0  0  0  0  0  0  0  0  0  0  0
   57.3463   34.3720   44.8188 H   0  0  0  0  0  0  0  0  0  0  0  0
   57.8917   32.3791   42.6233 H   0  0  0  0  0  0  0  0  0  0  0  0
   56.6353   30.5948   41.4219 H   0  0  0  0  0  0  0  0  0  0  0  0
   55.7040   28.6554   42.6759 H   0  0  0  0  0  0  0  0  0  0  0  0
   56.8026   27.2408   46.8239 H   0  0  0  0  0  0  0  0  0  0  0  0
   56.0287   26.1922   45.5655 H   0  0  0  0  0  0  0  0  0  0  0  0
   57.8528   26.2223   44.2126 H   0  0  0  0  0  0  0  0  0  0  0  0
   58.2590   27.9422   44.6558 H   0  0  0  0  0  0  0  0  0  0  0  0
   58.6419   25.9150   46.8046 H   0  0  0  0  0  0  0  0  0  0  0  0
   59.7616   25.8128   45.3798 H   0  0  0  0  0  0  0  0  0  0  0  0
   61.1567   27.9981   44.8548 H   0  0  0  0  0  0  0  0  0  0  0  0
   59.4940   28.7073   44.7622 H   0  0  0  0  0  0  0  0  0  0  0  0
   61.7904   30.1101   45.4496 H   0  0  0  0  0  0  0  0  0  0  0  0
   60.1002   30.5916   45.8632 H   0  0  0  0  0  0  0  0  0  0  0  0
   60.2314   29.2208   49.1286 H   0  0  0  0  0  0  0  0  0  0  0  0
   59.3805   30.4044   48.0397 H   0  0  0  0  0  0  0  0  0  0  0  0
   58.8044   27.6604   48.3029 H   0  0  0  0  0  0  0  0  0  0  0  0
   58.2312   28.7745   47.0077 H   0  0  0  0  0  0  0  0  0  0  0  0
   57.3093   30.2627   46.3607 H   0  0  0  0  0  0  0  0  0  0  0  0
  1  2  2  0
  2  3  1  0
  3  4  1  0
  4  5  2  0
  5  6  1  0
  6  7  2  0
  7  8  1  0
  8  9  1  0
  8 10  2  0
  2 11  1  0
 11 12  2  0
 12 13  1  0
 13 14  2  0
 14 15  1  0
 15 16  2  0
 16 17  1  0
 17 18  2  0
 18 19  1  0
 19 20  1  0
 20 21  1  0
 21 22  1  0
 22 23  1  0
 23 24  1  0
 24 25  1  0
 25 26  1  0
 26 27  1  0
 27 28  1  0
 28 29  1  0
 19 30  2  0
 14 31  1  0
 10  4  1  0
 31 11  1  0
 30 15  1  0
 29 24  1  0
  3 32  1  0
  5 33  1  0
  6 34  1  0
  7 35  1  0
 10 36  1  0
 12 37  1  0
 13 38  1  0
 16 39  1  0
 17 40  1  0
 18 41  1  0
 21 42  1  0
 21 43  1  0
 22 44  1  0
 22 45  1  0
 23 46  1  0
 23 47  1  0
 25 48  1  0
 25 49  1  0
 26 50  1  0
 26 51  1  0
 28 52  1  0
 28 53  1  0
 29 54  1  0
 29 55  1  0
 30 56  1  0
M  END
>  <UniqueID>  (28) 
27

>  <SMILES>  (28) 
O=C(Nc1cccc(F)c1)c1ccc(-c2cccc(OCCCN3CCOCC3)c2)o1

>  <Energy>  (28) 
95.45927064307911

>  <Genealogy>  (28) 
O=C(Nc1cccc(F)c1)c1ccc(-c2cccc(OCCCN3CCOCC3)c2)o1 (3D coordinates assigned)
O=C(Nc1cccc(F)c1)c1ccc(-c2cccc(OCCCN3CCOCC3)c2)o1 (nonaromatic ring conformer: 95.45927064307911 kcal/mol)

>  <smiles>  (28) 
O=C(Nc1cccc(F)c1)c1ccc(-c2cccc(OCCCN3CCOCC3)c2)o1

>  <score_type>  (28) 
oracle

>  <origin>  (28) 
adg

>  <m_score__min__energy>  (28) 
-9.7400000000000002

>  <m_primary>  (28) 
energy

$$$$
28:0
     RDKit          3D

 33 34  0  0  0  0  0  0  0  0999 V2000
   59.3371   31.8129   43.4194 H   0  0  0  0  0  0  0  0  0  0  0  0
   58.4580   31.2210   43.7140 C   0  0  0  0  0  0  0  0  0  0  0  0
   58.4770   30.5050   44.8700 N   0  0  0  0  0  0  0  0  0  0  0  0
   57.4160   29.7550   45.2770 C   0  0  0  0  0  0  0  0  0  0  0  0
   57.4490   29.0640   46.3810 N   0  0  0  0  0  0  0  0  0  0  0  0
   58.1250   27.8280   46.6850 C   0  0  0  0  0  0  0  0  0  0  0  0
   59.2920   27.8970   47.1530 O   0  0  0  0  0  0  0  0  0  0  0  0
   57.5060   26.4620   46.5260 C   0  0  0  0  0  0  0  0  0  0  0  0
   58.2166   25.8147   45.9911 H   0  0  0  0  0  0  0  0  0  0  0  0
   57.2838   26.0809   47.5337 H   0  0  0  0  0  0  0  0  0  0  0  0
   56.1870   26.4920   45.7440 C   0  0  0  0  0  0  0  0  0  0  0  0
   55.7750   27.5114   45.7756 H   0  0  0  0  0  0  0  0  0  0  0  0
   56.3914   26.1864   44.7073 H   0  0  0  0  0  0  0  0  0  0  0  0
   55.2090   25.5650   46.3140 N   0  0  0  0  0  0  0  0  0  0  0  0
   55.3660   24.1440   46.4420 C   0  0  0  0  0  0  0  0  0  0  0  0
   54.9050   23.5790   47.4680 O   0  0  0  0  0  0  0  0  0  0  0  0
   56.0620   23.3290   45.4240 C   0  0  0  0  0  0  0  0  0  0  0  0
   55.6500   23.3720   44.0800 C   0  0  0  0  0  0  0  0  0  0  0  0
   54.8058   24.0137   43.7875 H   0  0  0  0  0  0  0  0  0  0  0  0
   56.3060   22.6050   43.1140 C   0  0  0  0  0  0  0  0  0  0  0  0
   55.9660   22.6311   42.0682 H   0  0  0  0  0  0  0  0  0  0  0  0
   57.3930   21.8050   43.4740 C   0  0  0  0  0  0  0  0  0  0  0  0
   57.9039   21.1964   42.7134 H   0  0  0  0  0  0  0  0  0  0  0  0
   57.8310   21.7780   44.8000 C   0  0  0  0  0  0  0  0  0  0  0  0
   58.6950   21.1569   45.0790 H   0  0  0  0  0  0  0  0  0  0  0  0
   57.1750   22.5380   45.7750 C   0  0  0  0  0  0  0  0  0  0  0  0
   57.6220   22.4870   47.0910 O   0  0  0  0  0  0  0  0  0  0  0  0
   56.2540   29.7270   44.4880 C   0  0  0  0  0  0  0  0  0  0  0  0
   55.1460   28.9850   44.8810 O   0  0  0  0  0  0  0  0  0  0  0  0
   56.2150   30.4540   43.2940 C   0  0  0  0  0  0  0  0  0  0  0  0
   55.3122   30.4337   42.6658 H   0  0  0  0  0  0  0  0  0  0  0  0
   57.3230   31.2050   42.9010 C   0  0  0  0  0  0  0  0  0  0  0  0
   57.3027   31.7776   41.9620 H   0  0  0  0  0  0  0  0  0  0  0  0
  1  2  1  0
  2  3  1  0
  3  4  1  0
  4  5  2  0
  5  6  1  0
  6  7  2  0
  6  8  1  0
  8  9  1  0
  8 10  1  0
  8 11  1  0
 11 12  1  0
 11 13  1  0
 11 14  1  0
 14 15  1  0
 15 16  2  0
 15 17  1  0
 17 18  2  0
 18 19  1  0
 18 20  1  0
 20 21  1  0
 20 22  2  0
 22 23  1  0
 22 24  1  0
 24 25  1  0
 24 26  2  0
 26 27  1  0
  4 28  1  0
 28 29  1  0
 28 30  2  0
 30 31  1  0
 30 32  1  0
 32 33  1  0
 32  2  2  0
 26 17  1  0
M  CHG  4   3  -1  14  -1  27  -1  29  -1
M  END
>  <UniqueID>  (29) 
28

>  <SMILES>  (29) 
O=C(CC[N-]C(=O)c1ccccc1[O-])/N=c1\[n-]cccc1[O-]

>  <Energy>  (29) 
40.2111901798869

>  <Genealogy>  (29) 
O=C(CC[N-]C(=O)c1ccccc1[O-])N=c1[n-]cccc1[O-] (protonated)
O=C(CC[N-]C(=O)c1ccccc1[O-])/N=c1\[n-]cccc1[O-] (cis-trans isomerization)
O=C(CC[N-]C(=O)c1ccccc1[O-])/N=c1\[n-]cccc1[O-] (3D coordinates assigned)
O=C(CC[N-]C(=O)c1ccccc1[O-])/N=c1\[n-]cccc1[O-] (optimized conformer: 40.2111901798869 kcal/mol)

>  <smiles>  (29) 
O=C(CCNC(=O)c1ccccc1O)N=c1[nH]cccc1O

>  <score_type>  (29) 
oracle

>  <origin>  (29) 
adg

>  <m_score__min__energy>  (29) 
-15.140000000000001

>  <m_primary>  (29) 
energy

$$$$
29:0
     RDKit          3D

 56 59  0  0  0  0  0  0  0  0999 V2000
   57.1230   31.0160   53.5740 C   0  0  0  0  0  0  0  0  0  0  0  0
   56.9770   30.2310   52.3160 C   0  0  0  0  0  0  0  0  0  0  0  0
   56.6510   29.0160   52.3790 O   0  0  0  0  0  0  0  0  0  0  0  0
   57.1740   30.8790   51.0530 N   0  0  0  0  0  0  0  0  0  0  0  0
   58.4250   31.2700   50.4650 C   0  0  0  0  0  0  0  0  0  0  0  0
   58.8300   30.8200   49.1980 C   0  0  0  0  0  0  0  0  0  0  0  0
   60.0770   31.1830   48.6720 C   0  0  0  0  0  0  0  0  0  0  0  0
   60.4990   30.6220   47.3650 C   0  0  0  0  0  0  0  0  0  0  0  0
   61.0720   31.3690   46.5270 O   0  0  0  0  0  0  0  0  0  0  0  0
   60.2790   29.2440   47.0300 N   0  0  0  0  0  0  0  0  0  0  0  0
   59.4560   28.7720   45.9530 C   0  0  0  0  0  0  0  0  0  0  0  0
   59.6520   27.5020   45.3840 C   0  0  0  0  0  0  0  0  0  0  0  0
   58.8350   27.0650   44.3400 C   0  0  0  0  0  0  0  0  0  0  0  0
   57.8060   27.8820   43.8670 C   0  0  0  0  0  0  0  0  0  0  0  0
   57.5870   29.1410   44.4400 C   0  0  0  0  0  0  0  0  0  0  0  0
   56.2840   30.1560   43.8320 S   0  0  0  0  0  0  0  0  0  0  0  0
   56.6340   30.6140   42.4430 O   0  0  0  0  0  0  0  0  0  0  0  0
   54.9860   29.3980   43.7850 O   0  0  0  0  0  0  0  0  0  0  0  0
   56.1090   31.5400   44.8610 N   0  0  0  0  0  0  0  0  0  0  0  0
   57.1730   32.4370   45.2070 C   0  0  0  0  0  0  0  0  0  0  0  0
   57.9980   33.0250   44.2340 C   0  0  0  0  0  0  0  0  0  0  0  0
   59.0300   33.8900   44.6100 C   0  0  0  0  0  0  0  0  0  0  0  0
   59.2290   34.2090   45.9590 C   0  0  0  0  0  0  0  0  0  0  0  0
   60.3330   35.1400   46.3680 C   0  0  0  0  0  0  0  0  0  0  0  0
   58.4070   33.6200   46.9340 C   0  0  0  0  0  0  0  0  0  0  0  0
   57.3940   32.7320   46.5590 C   0  0  0  0  0  0  0  0  0  0  0  0
   58.4080   29.5790   45.4900 C   0  0  0  0  0  0  0  0  0  0  0  0
   60.9220   32.0360   49.4150 C   0  0  0  0  0  0  0  0  0  0  0  0
   62.1060   32.4510   48.8880 N   0  0  0  0  0  0  0  0  0  0  0  0
   62.9560   33.2610   49.5640 C   0  0  0  0  0  0  0  0  0  0  0  0
   64.0400   33.6160   49.0280 O   0  0  0  0  0  0  0  0  0  0  0  0
   62.6320   33.6990   50.8480 C   0  0  0  0  0  0  0  0  0  0  0  0
   61.4210   33.3060   51.4390 C   0  0  0  0  0  0  0  0  0  0  0  0
   61.0980   33.7850   52.8330 C   0  0  0  0  0  0  0  0  0  0  0  0
   60.5380   32.4720   50.7070 C   0  0  0  0  0  0  0  0  0  0  0  0
   59.2910   32.0670   51.2210 C   0  0  0  0  0  0  0  0  0  0  0  0
   56.9988   30.3483   54.4393 H   0  0  0  0  0  0  0  0  0  0  0  0
   58.1220   31.4754   53.6057 H   0  0  0  0  0  0  0  0  0  0  0  0
   56.3560   31.8038   53.6057 H   0  0  0  0  0  0  0  0  0  0  0  0
   58.1600   30.1745   48.6111 H   0  0  0  0  0  0  0  0  0  0  0  0
   60.4525   26.8497   45.7629 H   0  0  0  0  0  0  0  0  0  0  0  0
   59.0020   26.0756   43.8892 H   0  0  0  0  0  0  0  0  0  0  0  0
   57.1658   27.5358   43.0422 H   0  0  0  0  0  0  0  0  0  0  0  0
   57.8310   32.8035   43.1695 H   0  0  0  0  0  0  0  0  0  0  0  0
   59.6889   34.3221   43.8425 H   0  0  0  0  0  0  0  0  0  0  0  0
   60.3867   35.1852   47.4658 H   0  0  0  0  0  0  0  0  0  0  0  0
   61.2897   34.7719   45.9690 H   0  0  0  0  0  0  0  0  0  0  0  0
   60.1317   36.1451   45.9690 H   0  0  0  0  0  0  0  0  0  0  0  0
   58.5608   33.8583   47.9968 H   0  0  0  0  0  0  0  0  0  0  0  0
   56.7664   32.2619   47.3304 H   0  0  0  0  0  0  0  0  0  0  0  0
   58.2282   30.5609   45.9522 H   0  0  0  0  0  0  0  0  0  0  0  0
   63.3256   34.3525   51.3975 H   0  0  0  0  0  0  0  0  0  0  0  0
   61.5552   33.1070   53.5688 H   0  0  0  0  0  0  0  0  0  0  0  0
   61.4963   34.8007   52.9732 H   0  0  0  0  0  0  0  0  0  0  0  0
   60.0070   33.7964   52.9732 H   0  0  0  0  0  0  0  0  0  0  0  0
   58.9935   32.3821   52.2321 H   0  0  0  0  0  0  0  0  0  0  0  0
  1  2  1  0
  2  3  2  0
  2  4  1  0
  4  5  1  0
  5  6  2  0
  6  7  1  0
  7  8  1  0
  8  9  2  0
  8 10  1  0
 10 11  1  0
 11 12  2  0
 12 13  1  0
 13 14  2  0
 14 15  1  0
 15 16  1  0
 16 17  2  0
 16 18  2  0
 16 19  1  0
 19 20  1  0
 20 21  2  0
 21 22  1  0
 22 23  2  0
 23 24  1  0
 23 25  1  0
 25 26  2  0
 15 27  2  0
  7 28  2  0
 28 29  1  0
 29 30  1  0
 30 31  2  0
 30 32  1  0
 32 33  2  0
 33 34  1  0
 33 35  1  0
 35 36  2  0
 36  5  1  0
 27 11  1  0
 35 28  1  0
 26 20  1  0
  1 37  1  0
  1 38  1  0
  1 39  1  0
  6 40  1  0
 12 41  1  0
 13 42  1  0
 14 43  1  0
 21 44  1  0
 22 45  1  0
 24 46  1  0
 24 47  1  0
 24 48  1  0
 25 49  1  0
 26 50  1  0
 27 51  1  0
 32 52  1  0
 34 53  1  0
 34 54  1  0
 34 55  1  0
 36 56  1  0
M  CHG  4   4  -1  10  -1  19  -1  29  -1
M  END
>  <UniqueID>  (30) 
29

>  <SMILES>  (30) 
CC(=O)[N-]c1cc(C(=O)[N-]c2cccc(S(=O)(=O)[N-]c3ccc(C)cc3)c2)c2[n-]c(=O)cc(C)c2c1

>  <Energy>  (30) 
75.59900280266174

>  <Genealogy>  (30) 
CC(=O)[N-]c1cc(C(=O)[N-]c2cccc(S(=O)(=O)[N-]c3ccc(C)cc3)c2)c2[n-]c(=O)cc(C)c2c1 (protonated)
CC(=O)[N-]c1cc(C(=O)[N-]c2cccc(S(=O)(=O)[N-]c3ccc(C)cc3)c2)c2[n-]c(=O)cc(C)c2c1 (3D coordinates assigned)
CC(=O)[N-]c1cc(C(=O)[N-]c2cccc(S(=O)(=O)[N-]c3ccc(C)cc3)c2)c2[n-]c(=O)cc(C)c2c1 (optimized conformer: 75.59900280266174 kcal/mol)

>  <smiles>  (30) 
CC(=O)Nc1cc(C(=O)Nc2cccc(S(=O)(=O)Nc3ccc(C)cc3)c2)c2[nH]c(=O)cc(C)c2c1

>  <score_type>  (30) 
oracle

>  <origin>  (30) 
adg

>  <m_score__min__energy>  (30) 
-15.02

>  <m_primary>  (30) 
energy

$$$$
30:0
     RDKit          3D

 55 57  0  0  0  0  0  0  0  0999 V2000
   60.2860   29.3240   45.2890 C   0  0  0  0  0  0  0  0  0  0  0  0
   60.5100   30.5220   46.0260 O   0  0  0  0  0  0  0  0  0  0  0  0
   59.8930   30.8310   47.2490 C   0  0  0  0  0  0  0  0  0  0  0  0
   59.5120   29.8300   48.1650 C   0  0  0  0  0  0  0  0  0  0  0  0
   58.9150   30.1750   49.3800 C   0  0  0  0  0  0  0  0  0  0  0  0
   58.6950   31.5170   49.6950 C   0  0  0  0  0  0  0  0  0  0  0  0
   59.0690   32.5180   48.7970 C   0  0  0  0  0  0  0  0  0  0  0  0
   59.6650   32.1820   47.5710 C   0  0  0  0  0  0  0  0  0  0  0  0
   60.0460   33.2190   46.6540 N   0  0  0  0  0  0  0  0  0  0  0  0
   61.3480   33.8670   46.7770 C   0  0  0  0  0  0  0  0  0  0  0  0
   58.8430   33.9570   45.6410 S   0  0  0  0  0  0  0  0  0  0  0  0
   59.4610   35.0370   44.7990 O   0  0  0  0  0  0  0  0  0  0  0  0
   57.7740   34.5700   46.5000 O   0  0  0  0  0  0  0  0  0  0  0  0
   58.1580   32.7340   44.5770 C   0  0  0  0  0  0  0  0  0  0  0  0
   58.1750   32.9080   43.1880 C   0  0  0  0  0  0  0  0  0  0  0  0
   57.5970   31.9470   42.3550 C   0  0  0  0  0  0  0  0  0  0  0  0
   56.9960   30.8110   42.9030 C   0  0  0  0  0  0  0  0  0  0  0  0
   56.9650   30.6230   44.2970 C   0  0  0  0  0  0  0  0  0  0  0  0
   56.3280   29.4210   44.8840 C   0  0  0  0  0  0  0  0  0  0  0  0
   55.1560   29.1020   44.5450 O   0  0  0  0  0  0  0  0  0  0  0  0
   57.0230   28.6540   45.8770 N   0  0  0  0  0  0  0  0  0  0  0  0
   57.2480   27.2370   45.8690 C   0  0  0  0  0  0  0  0  0  0  0  0
   58.5340   26.6850   45.9310 C   0  0  0  0  0  0  0  0  0  0  0  0
   58.7060   25.3000   45.9200 C   0  0  0  0  0  0  0  0  0  0  0  0
   57.5990   24.4390   45.8590 C   0  0  0  0  0  0  0  0  0  0  0  0
   57.8380   22.9520   45.8550 C   0  0  0  0  0  0  0  0  0  0  0  0
   56.2920   24.9880   45.8540 C   0  0  0  0  0  0  0  0  0  0  0  0
   54.8490   23.9550   45.8300 S   0  0  0  0  0  0  0  0  0  0  0  0
   54.6690   23.0660   47.3040 N   0  0  0  0  0  0  0  0  0  0  0  0
   53.6300   24.8110   45.6300 O   0  0  0  0  0  0  0  0  0  0  0  0
   54.9550   22.9650   44.7030 O   0  0  0  0  0  0  0  0  0  0  0  0
   56.1380   26.3850   45.8540 C   0  0  0  0  0  0  0  0  0  0  0  0
   57.5480   31.5990   45.1280 C   0  0  0  0  0  0  0  0  0  0  0  0
   60.1297   28.4881   45.9867 H   0  0  0  0  0  0  0  0  0  0  0  0
   59.3948   29.4444   44.6555 H   0  0  0  0  0  0  0  0  0  0  0  0
   61.1605   29.1143   44.6555 H   0  0  0  0  0  0  0  0  0  0  0  0
   59.6856   28.7713   47.9220 H   0  0  0  0  0  0  0  0  0  0  0  0
   58.6180   29.3883   50.0892 H   0  0  0  0  0  0  0  0  0  0  0  0
   58.2259   31.7862   50.6529 H   0  0  0  0  0  0  0  0  0  0  0  0
   58.8961   33.5743   49.0509 H   0  0  0  0  0  0  0  0  0  0  0  0
   61.5968   33.9908   47.8413 H   0  0  0  0  0  0  0  0  0  0  0  0
   62.1144   33.2452   46.2912 H   0  0  0  0  0  0  0  0  0  0  0  0
   61.3140   34.8533   46.2912 H   0  0  0  0  0  0  0  0  0  0  0  0
   58.6440   33.8024   42.7521 H   0  0  0  0  0  0  0  0  0  0  0  0
   57.6151   32.0852   41.2639 H   0  0  0  0  0  0  0  0  0  0  0  0
   56.5440   30.0585   42.2401 H   0  0  0  0  0  0  0  0  0  0  0  0
   59.4116   27.3457   45.9886 H   0  0  0  0  0  0  0  0  0  0  0  0
   59.7211   24.8781   45.9596 H   0  0  0  0  0  0  0  0  0  0  0  0
   57.8966   22.5873   46.8911 H   0  0  0  0  0  0  0  0  0  0  0  0
   57.0092   22.4488   45.3355 H   0  0  0  0  0  0  0  0  0  0  0  0
   58.7827   22.7339   45.3355 H   0  0  0  0  0  0  0  0  0  0  0  0
   55.2620   23.5310   48.0280 H   0  0  0  0  0  0  0  0  0  0  0  0
   53.6720   23.1500   47.6050 H   0  0  0  0  0  0  0  0  0  0  0  0
   55.1263   26.8166   45.8420 H   0  0  0  0  0  0  0  0  0  0  0  0
   57.5244   31.4693   46.2201 H   0  0  0  0  0  0  0  0  0  0  0  0
  1  2  1  0
  2  3  1  0
  3  4  2  0
  4  5  1  0
  5  6  2  0
  6  7  1  0
  7  8  2  0
  8  9  1  0
  9 10  1  0
  9 11  1  0
 11 12  2  0
 11 13  2  0
 11 14  1  0
 14 15  2  0
 15 16  1  0
 16 17  2  0
 17 18  1  0
 18 19  1  0
 19 20  2  0
 19 21  1  0
 21 22  1  0
 22 23  2  0
 23 24  1  0
 24 25  2  0
 25 26  1  0
 25 27  1  0
 27 28  1  0
 28 29  1  0
 28 30  2  0
 28 31  2  0
 27 32  2  0
 18 33  2  0
  8  3  1  0
 33 14  1  0
 32 22  1  0
  1 34  1  0
  1 35  1  0
  1 36  1  0
  4 37  1  0
  5 38  1  0
  6 39  1  0
  7 40  1  0
 10 41  1  0
 10 42  1  0
 10 43  1  0
 15 44  1  0
 16 45  1  0
 17 46  1  0
 23 47  1  0
 24 48  1  0
 26 49  1  0
 26 50  1  0
 26 51  1  0
 29 52  1  0
 29 53  1  0
 32 54  1  0
 33 55  1  0
M  CHG  1  21  -1
M  END
>  <UniqueID>  (31) 
30

>  <SMILES>  (31) 
COc1ccccc1N(C)S(=O)(=O)c1cccc(C(=O)[N-]c2ccc(C)c(S(N)(=O)=O)c2)c1

>  <Energy>  (31) 
67.30752091018853

>  <Genealogy>  (31) 
COc1ccccc1N(C)S(=O)(=O)c1cccc(C(=O)[N-]c2ccc(C)c(S(N)(=O)=O)c2)c1 (protonated)
COc1ccccc1N(C)S(=O)(=O)c1cccc(C(=O)[N-]c2ccc(C)c(S(N)(=O)=O)c2)c1 (3D coordinates assigned)
COc1ccccc1N(C)S(=O)(=O)c1cccc(C(=O)[N-]c2ccc(C)c(S(N)(=O)=O)c2)c1 (optimized conformer: 67.30752091018853 kcal/mol)

>  <smiles>  (31) 
COc1ccccc1N(C)S(=O)(=O)c1cccc(C(=O)Nc2ccc(C)c(S(N)(=O)=O)c2)c1

>  <score_type>  (31) 
oracle

>  <origin>  (31) 
adg

>  <m_score__min__energy>  (31) 
-11.26

>  <m_primary>  (31) 
energy

$$$$
31:0
     RDKit          3D

 44 47  0  0  0  0  0  0  0  0999 V2000
   64.1220   33.2970   48.4250 C   0  0  0  0  0  0  0  0  0  0  0  0
   63.9130   31.9670   49.6480 S   0  0  0  0  0  0  0  0  0  0  0  0
   62.4710   31.2810   48.8330 C   0  0  0  0  0  0  0  0  0  0  0  0
   62.3150   31.4180   47.4500 C   0  0  0  0  0  0  0  0  0  0  0  0
   61.1890   30.8860   46.8150 C   0  0  0  0  0  0  0  0  0  0  0  0
   60.2060   30.2150   47.5610 C   0  0  0  0  0  0  0  0  0  0  0  0
   59.0110   29.6640   46.8880 C   0  0  0  0  0  0  0  0  0  0  0  0
   58.1200   30.3690   46.0760 C   0  0  0  0  0  0  0  0  0  0  0  0
   58.0880   31.8200   45.7850 C   0  0  0  0  0  0  0  0  0  0  0  0
   58.1660   32.7610   46.8270 C   0  0  0  0  0  0  0  0  0  0  0  0
   58.1390   34.1300   46.5470 C   0  0  0  0  0  0  0  0  0  0  0  0
   58.0280   34.5720   45.2270 C   0  0  0  0  0  0  0  0  0  0  0  0
   57.9420   33.6470   44.1850 C   0  0  0  0  0  0  0  0  0  0  0  0
   57.9700   32.2750   44.4600 C   0  0  0  0  0  0  0  0  0  0  0  0
   57.2420   29.4000   45.6200 C   0  0  0  0  0  0  0  0  0  0  0  0
   56.2610   29.5930   44.8530 O   0  0  0  0  0  0  0  0  0  0  0  0
   57.5770   28.2010   46.1310 N   0  0  0  0  0  0  0  0  0  0  0  0
   58.6620   28.3530   46.8790 N   0  0  0  0  0  0  0  0  0  0  0  0
   59.3280   27.2540   47.5880 C   0  0  0  0  0  0  0  0  0  0  0  0
   58.9370   25.9020   46.9830 C   0  0  0  0  0  0  0  0  0  0  0  0
   57.4220   25.8270   46.7780 C   0  0  0  0  0  0  0  0  0  0  0  0
   56.9610   26.9140   45.8030 C   0  0  0  0  0  0  0  0  0  0  0  0
   60.3640   30.0880   48.9500 C   0  0  0  0  0  0  0  0  0  0  0  0
   61.4910   30.6200   49.5830 C   0  0  0  0  0  0  0  0  0  0  0  0
   64.2724   34.2540   48.9461 H   0  0  0  0  0  0  0  0  0  0  0  0
   64.9973   33.0812   47.7946 H   0  0  0  0  0  0  0  0  0  0  0  0
   63.2228   33.3601   47.7946 H   0  0  0  0  0  0  0  0  0  0  0  0
   63.0797   31.9453   46.8608 H   0  0  0  0  0  0  0  0  0  0  0  0
   61.0723   30.9933   45.7265 H   0  0  0  0  0  0  0  0  0  0  0  0
   58.2488   32.4176   47.8687 H   0  0  0  0  0  0  0  0  0  0  0  0
   58.2052   34.8600   47.3672 H   0  0  0  0  0  0  0  0  0  0  0  0
   58.0083   35.6498   45.0081 H   0  0  0  0  0  0  0  0  0  0  0  0
   57.8521   33.9970   43.1461 H   0  0  0  0  0  0  0  0  0  0  0  0
   57.8994   31.5497   43.6360 H   0  0  0  0  0  0  0  0  0  0  0  0
   60.4177   27.3824   47.5105 H   0  0  0  0  0  0  0  0  0  0  0  0
   59.0149   27.2729   48.6423 H   0  0  0  0  0  0  0  0  0  0  0  0
   59.4405   25.7800   46.0126 H   0  0  0  0  0  0  0  0  0  0  0  0
   59.2439   25.1009   47.6716 H   0  0  0  0  0  0  0  0  0  0  0  0
   57.1598   24.8395   46.3703 H   0  0  0  0  0  0  0  0  0  0  0  0
   56.9228   25.9809   47.7461 H   0  0  0  0  0  0  0  0  0  0  0  0
   57.2479   26.6268   44.7806 H   0  0  0  0  0  0  0  0  0  0  0  0
   55.8684   27.0161   45.8793 H   0  0  0  0  0  0  0  0  0  0  0  0
   59.5975   29.5675   49.5430 H   0  0  0  0  0  0  0  0  0  0  0  0
   61.6080   30.5191   50.6721 H   0  0  0  0  0  0  0  0  0  0  0  0
  1  2  1  0
  2  3  1  0
  3  4  2  0
  4  5  1  0
  5  6  2  0
  6  7  1  0
  7  8  2  0
  8  9  1  0
  9 10  2  0
 10 11  1  0
 11 12  2  0
 12 13  1  0
 13 14  2  0
  8 15  1  0
 15 16  2  0
 15 17  1  0
 17 18  1  0
 18 19  1  0
 19 20  1  0
 20 21  1  0
 21 22  1  0
  6 23  1  0
 23 24  2  0
 24  3  1  0
 18  7  1  0
 14  9  1  0
 22 17  1  0
  1 25  1  0
  1 26  1  0
  1 27  1  0
  4 28  1  0
  5 29  1  0
 10 30  1  0
 11 31  1  0
 12 32  1  0
 13 33  1  0
 14 34  1  0
 19 35  1  0
 19 36  1  0
 20 37  1  0
 20 38  1  0
 21 39  1  0
 21 40  1  0
 22 41  1  0
 22 42  1  0
 23 43  1  0
 24 44  1  0
M  END
>  <UniqueID>  (32) 
31

>  <SMILES>  (32) 
CSc1ccc(-c2c(-c3ccccc3)c(=O)n3n2CCCC3)cc1

>  <Energy>  (32) 
83.8039587379468

>  <Genealogy>  (32) 
CSc1ccc(-c2c(-c3ccccc3)c(=O)n3n2CCCC3)cc1 (3D coordinates assigned)
CSc1ccc(-c2c(-c3ccccc3)c(=O)n3n2CCCC3)cc1 (nonaromatic ring conformer: 83.8039587379468 kcal/mol)

>  <smiles>  (32) 
CSc1ccc(-c2c(-c3ccccc3)c(=O)n3n2CCCC3)cc1

>  <score_type>  (32) 
oracle

>  <origin>  (32) 
adg

>  <m_score__min__energy>  (32) 
-7.7800000000000002

>  <m_primary>  (32) 
energy

$$$$
32:0
     RDKit          3D

 58 61  0  0  0  0  0  0  0  0999 V2000
   55.3796   22.2850   42.4394 H   0  0  0  0  0  0  0  0  0  0  0  0
   55.9870   22.7360   43.2380 C   0  0  0  0  0  0  0  0  0  0  0  0
   57.2710   22.2510   43.4950 C   0  0  0  0  0  0  0  0  0  0  0  0
   57.6734   21.4172   42.9010 H   0  0  0  0  0  0  0  0  0  0  0  0
   58.0450   22.8260   44.5080 C   0  0  0  0  0  0  0  0  0  0  0  0
   59.6540   22.2130   44.8340 Cl  0  0  0  0  0  0  0  0  0  0  0  0
   57.5320   23.8840   45.2670 C   0  0  0  0  0  0  0  0  0  0  0  0
   58.1459   24.3342   46.0610 H   0  0  0  0  0  0  0  0  0  0  0  0
   56.2370   24.3760   45.0220 C   0  0  0  0  0  0  0  0  0  0  0  0
   55.6780   25.4700   45.8510 C   0  0  0  0  0  0  0  0  0  0  0  0
   54.5050   25.8800   45.6370 O   0  0  0  0  0  0  0  0  0  0  0  0
   56.4950   26.1010   46.8500 N   0  0  0  0  0  0  0  0  0  0  0  0
   57.6070   26.7680   46.6900 C   0  0  0  0  0  0  0  0  0  0  0  0
   58.8340   26.3690   47.2540 C   0  0  0  0  0  0  0  0  0  0  0  0
   58.8876   25.4684   47.8833 H   0  0  0  0  0  0  0  0  0  0  0  0
   59.9810   27.1240   47.0090 C   0  0  0  0  0  0  0  0  0  0  0  0
   60.9400   26.8186   47.4530 H   0  0  0  0  0  0  0  0  0  0  0  0
   59.9240   28.2330   46.2270 N   0  0  0  0  0  0  0  0  0  0  0  0
   60.8060   28.7690   46.0750 H   0  0  0  0  0  0  0  0  0  0  0  0
   58.7520   28.6370   45.6490 C   0  0  0  0  0  0  0  0  0  0  0  0
   58.6880   29.7720   44.8300 O   0  0  0  0  0  0  0  0  0  0  0  0
   58.5760   31.0720   45.3290 C   0  0  0  0  0  0  0  0  0  0  0  0
   59.6640   31.6530   45.9880 C   0  0  0  0  0  0  0  0  0  0  0  0
   60.6035   31.0904   46.0916 H   0  0  0  0  0  0  0  0  0  0  0  0
   59.5660   32.9460   46.5170 C   0  0  0  0  0  0  0  0  0  0  0  0
   60.7490   33.5600   47.2160 C   0  0  0  0  0  0  0  0  0  0  0  0
   60.9083   34.5795   46.8350 H   0  0  0  0  0  0  0  0  0  0  0  0
   60.5523   33.5924   48.2978 H   0  0  0  0  0  0  0  0  0  0  0  0
   61.9610   32.7490   46.9670 N   0  0  0  0  0  0  0  0  0  0  0  0
   63.1850   33.5760   46.7930 C   0  0  0  0  0  0  0  0  0  0  0  0
   63.6953   33.2488   45.8751 H   0  0  0  0  0  0  0  0  0  0  0  0
   62.8552   34.6243   46.7454 H   0  0  0  0  0  0  0  0  0  0  0  0
   64.1850   33.4770   47.9650 C   0  0  0  0  0  0  0  0  0  0  0  0
   64.8027   32.5761   47.8353 H   0  0  0  0  0  0  0  0  0  0  0  0
   64.8137   34.3796   47.9655 H   0  0  0  0  0  0  0  0  0  0  0  0
   63.4550   33.3930   49.3040 C   0  0  0  0  0  0  0  0  0  0  0  0
   64.1979   33.2823   50.1077 H   0  0  0  0  0  0  0  0  0  0  0  0
   62.8681   34.3147   49.4307 H   0  0  0  0  0  0  0  0  0  0  0  0
   62.4850   32.1990   49.3550 C   0  0  0  0  0  0  0  0  0  0  0  0
   62.9561   31.3880   49.9297 H   0  0  0  0  0  0  0  0  0  0  0  0
   61.5552   32.5482   49.8278 H   0  0  0  0  0  0  0  0  0  0  0  0
   62.1210   31.6640   47.9570 C   0  0  0  0  0  0  0  0  0  0  0  0
   62.9206   30.9895   47.6169 H   0  0  0  0  0  0  0  0  0  0  0  0
   61.1589   31.1368   48.0378 H   0  0  0  0  0  0  0  0  0  0  0  0
   58.3680   33.6610   46.3680 C   0  0  0  0  0  0  0  0  0  0  0  0
   58.2833   34.6784   46.7775 H   0  0  0  0  0  0  0  0  0  0  0  0
   57.2820   33.0870   45.7020 C   0  0  0  0  0  0  0  0  0  0  0  0
   56.3475   33.6560   45.5881 H   0  0  0  0  0  0  0  0  0  0  0  0
   57.3770   31.7850   45.1760 C   0  0  0  0  0  0  0  0  0  0  0  0
   56.3120   31.1690   44.5010 O   0  0  0  0  0  0  0  0  0  0  0  0
   56.4390   30.4570   43.2760 C   0  0  0  0  0  0  0  0  0  0  0  0
   56.6286   29.3943   43.4875 H   0  0  0  0  0  0  0  0  0  0  0  0
   55.5091   30.5554   42.6966 H   0  0  0  0  0  0  0  0  0  0  0  0
   57.2775   30.8708   42.6966 H   0  0  0  0  0  0  0  0  0  0  0  0
   57.5830   27.9040   45.8690 C   0  0  0  0  0  0  0  0  0  0  0  0
   56.6410   28.2193   45.3965 H   0  0  0  0  0  0  0  0  0  0  0  0
   55.4720   23.7930   43.9930 C   0  0  0  0  0  0  0  0  0  0  0  0
   54.4614   24.1727   43.7821 H   0  0  0  0  0  0  0  0  0  0  0  0
  1  2  1  0
  2  3  2  0
  3  4  1  0
  3  5  1  0
  5  6  1  0
  5  7  2  0
  7  8  1  0
  7  9  1  0
  9 10  1  0
 10 11  2  0
 10 12  1  0
 12 13  2  0
 13 14  1  0
 14 15  1  0
 14 16  2  0
 16 17  1  0
 16 18  1  0
 18 19  1  0
 18 20  1  0
 20 21  1  0
 21 22  1  0
 22 23  2  0
 23 24  1  0
 23 25  1  0
 25 26  1  0
 26 27  1  0
 26 28  1  0
 26 29  1  0
 29 30  1  0
 30 31  1  0
 30 32  1  0
 30 33  1  0
 33 34  1  0
 33 35  1  0
 33 36  1  0
 36 37  1  0
 36 38  1  0
 36 39  1  0
 39 40  1  0
 39 41  1  0
 39 42  1  0
 42 43  1  0
 42 44  1  0
 25 45  2  0
 45 46  1  0
 45 47  1  0
 47 48  1  0
 47 49  2  0
 49 50  1  0
 50 51  1  0
 51 52  1  0
 51 53  1  0
 51 54  1  0
 20 55  2  0
 55 56  1  0
  9 57  2  0
 57 58  1  0
 57  2  1  0
 55 13  1  0
 49 22  1  0
 42 29  1  0
M  END
>  <UniqueID>  (33) 
32

>  <SMILES>  (33) 
COc1ccc(CN2CCCCC2)cc1Oc1c/c(=N/C(=O)c2cccc(Cl)c2)cc[nH]1

>  <Energy>  (33) 
85.63974641918547

>  <Genealogy>  (33) 
COc1ccc(CN2CCCCC2)cc1Oc1c/c(=N/C(=O)c2cccc(Cl)c2)cc[nH]1 (cis-trans isomerization)
COc1ccc(CN2CCCCC2)cc1Oc1c/c(=N/C(=O)c2cccc(Cl)c2)cc[nH]1 (3D coordinates assigned)
COc1ccc(CN2CCCCC2)cc1Oc1c/c(=N/C(=O)c2cccc(Cl)c2)cc[nH]1 (nonaromatic ring conformer: 85.63974641918547 kcal/mol)

>  <smiles>  (33) 
COc1ccc(CN2CCCCC2)cc1Oc1cc(=NC(=O)c2cccc(Cl)c2)cc[nH]1

>  <score_type>  (33) 
oracle

>  <origin>  (33) 
adg

>  <m_score__min__energy>  (33) 
-10.07

>  <m_primary>  (33) 
energy

$$$$
33:0
     RDKit          3D

 62 65  0  0  0  0  0  0  0  0999 V2000
   56.1530   22.0300   48.0280 C   0  0  0  0  0  0  0  0  0  0  0  0
   57.3420   22.5660   47.4570 O   0  0  0  0  0  0  0  0  0  0  0  0
   57.4290   23.8260   46.8440 C   0  0  0  0  0  0  0  0  0  0  0  0
   56.5130   24.8550   47.1260 C   0  0  0  0  0  0  0  0  0  0  0  0
   56.5980   26.0780   46.4600 C   0  0  0  0  0  0  0  0  0  0  0  0
   57.6030   26.2990   45.5090 C   0  0  0  0  0  0  0  0  0  0  0  0
   57.5950   27.5560   44.6790 C   0  0  0  0  0  0  0  0  0  0  0  0
   56.7280   28.5770   45.2690 N   0  0  0  0  0  0  0  0  0  0  0  0
   56.5460   29.8750   44.6930 C   0  0  0  0  0  0  0  0  0  0  0  0
   55.7030   30.0290   43.7700 O   0  0  0  0  0  0  0  0  0  0  0  0
   57.3470   31.0280   45.1610 C   0  0  0  0  0  0  0  0  0  0  0  0
   56.9240   32.3330   44.8690 C   0  0  0  0  0  0  0  0  0  0  0  0
   57.7170   33.3950   45.1630 N   0  0  0  0  0  0  0  0  0  0  0  0
   58.9260   33.2440   45.7630 C   0  0  0  0  0  0  0  0  0  0  0  0
   59.7230   34.3660   46.0160 C   0  0  0  0  0  0  0  0  0  0  0  0
   60.9720   34.2170   46.6240 C   0  0  0  0  0  0  0  0  0  0  0  0
   61.4350   32.9470   46.9900 C   0  0  0  0  0  0  0  0  0  0  0  0
   63.0090   32.7820   47.7640 S   0  0  0  0  0  0  0  0  0  0  0  0
   63.8120   34.0390   47.5760 O   0  0  0  0  0  0  0  0  0  0  0  0
   63.7620   31.6450   47.1320 O   0  0  0  0  0  0  0  0  0  0  0  0
   62.7920   32.4830   49.4620 N   0  0  0  0  0  0  0  0  0  0  0  0
   63.9490   32.3280   50.3420 C   0  0  0  0  0  0  0  0  0  0  0  0
   61.4740   32.2690   49.9820 C   0  0  0  0  0  0  0  0  0  0  0  0
   60.8370   31.0340   49.8040 C   0  0  0  0  0  0  0  0  0  0  0  0
   59.5560   30.8230   50.3220 C   0  0  0  0  0  0  0  0  0  0  0  0
   58.9070   31.8430   51.0230 C   0  0  0  0  0  0  0  0  0  0  0  0
   59.5270   33.0900   51.1930 C   0  0  0  0  0  0  0  0  0  0  0  0
   58.8520   34.1650   51.9910 C   0  0  0  0  0  0  0  0  0  0  0  0
   60.8150   33.2940   50.6740 C   0  0  0  0  0  0  0  0  0  0  0  0
   60.6400   31.8190   46.7430 C   0  0  0  0  0  0  0  0  0  0  0  0
   59.3830   31.9570   46.1240 C   0  0  0  0  0  0  0  0  0  0  0  0
   58.5730   30.8440   45.8300 C   0  0  0  0  0  0  0  0  0  0  0  0
   58.9440   29.6830   46.1610 O   0  0  0  0  0  0  0  0  0  0  0  0
   58.5440   25.2910   45.2560 C   0  0  0  0  0  0  0  0  0  0  0  0
   58.4530   24.0450   45.9090 C   0  0  0  0  0  0  0  0  0  0  0  0
   59.3430   22.9950   45.6360 O   0  0  0  0  0  0  0  0  0  0  0  0
   59.2240   22.1080   44.5280 C   0  0  0  0  0  0  0  0  0  0  0  0
   56.2260   22.0629   49.1251 H   0  0  0  0  0  0  0  0  0  0  0  0
   55.2881   22.6253   47.7000 H   0  0  0  0  0  0  0  0  0  0  0  0
   56.0263   20.9877   47.7000 H   0  0  0  0  0  0  0  0  0  0  0  0
   55.7247   24.6947   47.8762 H   0  0  0  0  0  0  0  0  0  0  0  0
   55.8717   26.8735   46.6828 H   0  0  0  0  0  0  0  0  0  0  0  0
   58.6201   27.9497   44.6150 H   0  0  0  0  0  0  0  0  0  0  0  0
   57.2099   27.3092   43.6786 H   0  0  0  0  0  0  0  0  0  0  0  0
   55.9432   32.4971   44.3987 H   0  0  0  0  0  0  0  0  0  0  0  0
   59.3653   35.3677   45.7355 H   0  0  0  0  0  0  0  0  0  0  0  0
   61.5955   35.1026   46.8164 H   0  0  0  0  0  0  0  0  0  0  0  0
   63.6204   32.3720   51.3909 H   0  0  0  0  0  0  0  0  0  0  0  0
   64.4293   31.3575   50.1487 H   0  0  0  0  0  0  0  0  0  0  0  0
   64.6678   33.1379   50.1487 H   0  0  0  0  0  0  0  0  0  0  0  0
   61.3463   30.2282   49.2551 H   0  0  0  0  0  0  0  0  0  0  0  0
   59.0581   29.8528   50.1777 H   0  0  0  0  0  0  0  0  0  0  0  0
   57.9057   31.6674   51.4433 H   0  0  0  0  0  0  0  0  0  0  0  0
   58.9805   33.9604   53.0642 H   0  0  0  0  0  0  0  0  0  0  0  0
   59.3008   35.1392   51.7472 H   0  0  0  0  0  0  0  0  0  0  0  0
   57.7795   34.1840   51.7472 H   0  0  0  0  0  0  0  0  0  0  0  0
   61.3111   34.2661   50.8115 H   0  0  0  0  0  0  0  0  0  0  0  0
   61.0001   30.8212   47.0342 H   0  0  0  0  0  0  0  0  0  0  0  0
   59.3604   25.4740   44.5418 H   0  0  0  0  0  0  0  0  0  0  0  0
   59.0861   21.0800   44.8944 H   0  0  0  0  0  0  0  0  0  0  0  0
   58.3568   22.3989   43.9169 H   0  0  0  0  0  0  0  0  0  0  0  0
   60.1372   22.1600   43.9169 H   0  0  0  0  0  0  0  0  0  0  0  0
  1  2  1  0
  2  3  1  0
  3  4  2  0
  4  5  1  0
  5  6  2  0
  6  7  1  0
  7  8  1  0
  8  9  1  0
  9 10  2  0
  9 11  1  0
 11 12  2  0
 12 13  1  0
 13 14  1  0
 14 15  2  0
 15 16  1  0
 16 17  2  0
 17 18  1  0
 18 19  2  0
 18 20  2  0
 18 21  1  0
 21 22  1  0
 21 23  1  0
 23 24  2  0
 24 25  1  0
 25 26  2  0
 26 27  1  0
 27 28  1  0
 27 29  2  0
 17 30  1  0
 30 31  2  0
 31 32  1  0
 32 33  2  0
  6 34  1  0
 34 35  2  0
 35 36  1  0
 36 37  1  0
 35  3  1  0
 32 11  1  0
 31 14  1  0
 29 23  1  0
  1 38  1  0
  1 39  1  0
  1 40  1  0
  4 41  1  0
  5 42  1  0
  7 43  1  0
  7 44  1  0
 12 45  1  0
 15 46  1  0
 16 47  1  0
 22 48  1  0
 22 49  1  0
 22 50  1  0
 24 51  1  0
 25 52  1  0
 26 53  1  0
 28 54  1  0
 28 55  1  0
 28 56  1  0
 29 57  1  0
 30 58  1  0
 34 59  1  0
 37 60  1  0
 37 61  1  0
 37 62  1  0
M  CHG  2   8  -1  13  -1
M  END
>  <UniqueID>  (34) 
33

>  <SMILES>  (34) 
COc1ccc(C[N-]C(=O)c2c[n-]c3ccc(S(=O)(=O)N(C)c4cccc(C)c4)cc3c2=O)cc1OC

>  <Energy>  (34) 
73.96285354842529

>  <Genealogy>  (34) 
COc1ccc(C[N-]C(=O)c2c[n-]c3ccc(S(=O)(=O)N(C)c4cccc(C)c4)cc3c2=O)cc1OC (protonated)
COc1ccc(C[N-]C(=O)c2c[n-]c3ccc(S(=O)(=O)N(C)c4cccc(C)c4)cc3c2=O)cc1OC (3D coordinates assigned)
COc1ccc(C[N-]C(=O)c2c[n-]c3ccc(S(=O)(=O)N(C)c4cccc(C)c4)cc3c2=O)cc1OC (optimized conformer: 73.96285354842529 kcal/mol)

>  <smiles>  (34) 
COc1ccc(CNC(=O)c2c[nH]c3ccc(S(=O)(=O)N(C)c4cccc(C)c4)cc3c2=O)cc1OC

>  <score_type>  (34) 
oracle

>  <origin>  (34) 
adg

>  <m_score__min__energy>  (34) 
-12.08

>  <m_primary>  (34) 
energy

$$$$
34:0
     RDKit          3D

 44 45  0  0  0  0  0  0  0  0999 V2000
   54.7720   27.1040   45.2000 H   0  0  0  0  0  0  0  0  0  0  0  0
   54.7270   26.2810   45.7880 O   0  0  0  0  0  0  0  0  0  0  0  0
   55.4890   25.1370   45.5390 C   0  0  0  0  0  0  0  0  0  0  0  0
   54.8840   23.8650   45.6010 C   0  0  0  0  0  0  0  0  0  0  0  0
   53.5050   23.7810   45.8480 O   0  0  0  0  0  0  0  0  0  0  0  0
   52.4920   24.1300   44.9100 C   0  0  0  0  0  0  0  0  0  0  0  0
   51.5853   24.4424   45.4488 H   0  0  0  0  0  0  0  0  0  0  0  0
   52.8467   24.9578   44.2783 H   0  0  0  0  0  0  0  0  0  0  0  0
   52.2615   23.2594   44.2783 H   0  0  0  0  0  0  0  0  0  0  0  0
   55.6750   22.7140   45.4200 C   0  0  0  0  0  0  0  0  0  0  0  0
   55.2083   21.7185   45.4531 H   0  0  0  0  0  0  0  0  0  0  0  0
   57.0470   22.8300   45.1990 C   0  0  0  0  0  0  0  0  0  0  0  0
   57.6610   21.9256   45.0764 H   0  0  0  0  0  0  0  0  0  0  0  0
   57.6420   24.0870   45.1330 C   0  0  0  0  0  0  0  0  0  0  0  0
   58.7278   24.1671   44.9764 H   0  0  0  0  0  0  0  0  0  0  0  0
   56.8720   25.2530   45.2640 C   0  0  0  0  0  0  0  0  0  0  0  0
   57.5720   26.5550   45.1620 C   0  0  0  0  0  0  0  0  0  0  0  0
   57.5483   27.0848   44.1983 H   0  0  0  0  0  0  0  0  0  0  0  0
   58.2330   27.1220   46.1820 C   0  0  0  0  0  0  0  0  0  0  0  0
   58.9560   26.5155   46.7472 H   0  0  0  0  0  0  0  0  0  0  0  0
   58.0260   28.5300   46.5740 C   0  0  0  0  0  0  0  0  0  0  0  0
   58.1360   28.8440   47.7890 O   0  0  0  0  0  0  0  0  0  0  0  0
   57.6890   29.5810   45.5900 C   0  0  0  0  0  0  0  0  0  0  0  0
   56.4510   29.5470   44.9240 C   0  0  0  0  0  0  0  0  0  0  0  0
   55.5330   28.5360   45.1870 O   0  0  0  0  0  0  0  0  0  0  0  0
   56.1250   30.5400   43.9960 C   0  0  0  0  0  0  0  0  0  0  0  0
   55.1543   30.5116   43.4794 H   0  0  0  0  0  0  0  0  0  0  0  0
   57.0290   31.5670   43.7240 C   0  0  0  0  0  0  0  0  0  0  0  0
   56.7649   32.3517   42.9997 H   0  0  0  0  0  0  0  0  0  0  0  0
   58.2670   31.6030   44.3670 C   0  0  0  0  0  0  0  0  0  0  0  0
   58.9753   32.4143   44.1433 H   0  0  0  0  0  0  0  0  0  0  0  0
   58.6160   30.6070   45.3010 C   0  0  0  0  0  0  0  0  0  0  0  0
   59.8710   30.5810   45.9360 O   0  0  0  0  0  0  0  0  0  0  0  0
   60.2840   31.4380   47.0010 C   0  0  0  0  0  0  0  0  0  0  0  0
   61.2179   31.9433   46.7138 H   0  0  0  0  0  0  0  0  0  0  0  0
   60.4366   30.8262   47.9024 H   0  0  0  0  0  0  0  0  0  0  0  0
   59.2200   32.4910   47.3040 C   0  0  0  0  0  0  0  0  0  0  0  0
   59.4988   33.0440   48.2131 H   0  0  0  0  0  0  0  0  0  0  0  0
   58.2486   31.9989   47.4599 H   0  0  0  0  0  0  0  0  0  0  0  0
   59.1270   33.3870   46.2170 O   0  0  0  0  0  0  0  0  0  0  0  0
   59.8660   34.5530   46.5100 C   0  0  0  0  0  0  0  0  0  0  0  0
   59.9427   34.6741   47.6006 H   0  0  0  0  0  0  0  0  0  0  0  0
   60.8743   34.4661   46.0789 H   0  0  0  0  0  0  0  0  0  0  0  0
   59.3570   35.4277   46.0789 H   0  0  0  0  0  0  0  0  0  0  0  0
  1  2  1  0
  2  3  1  0
  3  4  2  0
  4  5  1  0
  5  6  1  0
  6  7  1  0
  6  8  1  0
  6  9  1  0
  4 10  1  0
 10 11  1  0
 10 12  2  0
 12 13  1  0
 12 14  1  0
 14 15  1  0
 14 16  2  0
 16 17  1  0
 17 18  1  0
 17 19  2  0
 19 20  1  0
 19 21  1  0
 21 22  2  0
 21 23  1  0
 23 24  2  0
 24 25  1  0
 24 26  1  0
 26 27  1  0
 26 28  2  0
 28 29  1  0
 28 30  1  0
 30 31  1  0
 30 32  2  0
 32 33  1  0
 33 34  1  0
 34 35  1  0
 34 36  1  0
 34 37  1  0
 37 38  1  0
 37 39  1  0
 37 40  1  0
 40 41  1  0
 41 42  1  0
 41 43  1  0
 41 44  1  0
 16  3  1  0
 32 23  1  0
M  CHG  1  25  -1
M  END
>  <UniqueID>  (35) 
34

>  <SMILES>  (35) 
COCCOc1cccc([O-])c1C(=O)/C=C/c1cccc(OC)c1O

>  <Energy>  (35) 
53.29340789523322

>  <Genealogy>  (35) 
COCCOc1cccc([O-])c1C(=O)C=Cc1cccc(OC)c1O (protonated)
COCCOc1cccc([O-])c1C(=O)/C=C/c1cccc(OC)c1O (cis-trans isomerization)
COCCOc1cccc([O-])c1C(=O)/C=C/c1cccc(OC)c1O (3D coordinates assigned)
COCCOc1cccc([O-])c1C(=O)/C=C/c1cccc(OC)c1O (optimized conformer: 53.29340789523322 kcal/mol)

>  <smiles>  (35) 
COCCOc1cccc(O)c1C(=O)C=Cc1cccc(OC)c1O

>  <score_type>  (35) 
oracle

>  <origin>  (35) 
adg

>  <m_score__min__energy>  (35) 
-10.69

>  <m_primary>  (35) 
energy

$$$$
35:0
     RDKit          3D

 45 48  0  0  0  0  0  0  0  0999 V2000
   55.6890   29.3320   42.6800 O   0  0  0  0  0  0  0  0  0  0  0  0
   56.1080   29.5960   43.8380 C   0  0  0  0  0  0  0  0  0  0  0  0
   55.7250   28.7360   44.9210 N   0  0  0  0  0  0  0  0  0  0  0  0
   56.5690   27.7860   45.5890 C   0  0  0  0  0  0  0  0  0  0  0  0
   57.9500   28.0120   45.7350 C   0  0  0  0  0  0  0  0  0  0  0  0
   58.7520   27.0880   46.4150 C   0  0  0  0  0  0  0  0  0  0  0  0
   60.4640   27.4220   46.6410 S   0  0  0  0  0  0  0  0  0  0  0  0
   60.8820   28.5080   45.6900 O   0  0  0  0  0  0  0  0  0  0  0  0
   61.2640   26.1740   46.3870 O   0  0  0  0  0  0  0  0  0  0  0  0
   60.7140   27.9350   48.2800 N   0  0  0  0  0  0  0  0  0  0  0  0
   60.3410   29.2110   48.8140 C   0  0  0  0  0  0  0  0  0  0  0  0
   59.1250   29.4170   49.4940 C   0  0  0  0  0  0  0  0  0  0  0  0
   58.8100   30.6810   50.0020 C   0  0  0  0  0  0  0  0  0  0  0  0
   59.7000   31.7460   49.8350 C   0  0  0  0  0  0  0  0  0  0  0  0
   60.9070   31.5470   49.1590 C   0  0  0  0  0  0  0  0  0  0  0  0
   61.2250   30.2860   48.6510 C   0  0  0  0  0  0  0  0  0  0  0  0
   58.1850   25.9030   46.9030 C   0  0  0  0  0  0  0  0  0  0  0  0
   56.8210   25.6550   46.7250 C   0  0  0  0  0  0  0  0  0  0  0  0
   56.0140   26.5930   46.0710 C   0  0  0  0  0  0  0  0  0  0  0  0
   54.6570   26.3360   45.9110 O   0  0  0  0  0  0  0  0  0  0  0  0
   56.9470   30.8000   44.0490 C   0  0  0  0  0  0  0  0  0  0  0  0
   57.3190   31.6150   42.9670 C   0  0  0  0  0  0  0  0  0  0  0  0
   58.0870   32.7640   43.1730 C   0  0  0  0  0  0  0  0  0  0  0  0
   58.5050   33.1110   44.4640 C   0  0  0  0  0  0  0  0  0  0  0  0
   59.2710   34.2670   44.6800 C   0  0  0  0  0  0  0  0  0  0  0  0
   59.6790   34.6050   45.9740 C   0  0  0  0  0  0  0  0  0  0  0  0
   59.3290   33.7930   47.0560 C   0  0  0  0  0  0  0  0  0  0  0  0
   58.5670   32.6380   46.8530 C   0  0  0  0  0  0  0  0  0  0  0  0
   58.1500   32.2880   45.5600 C   0  0  0  0  0  0  0  0  0  0  0  0
   57.3800   31.1350   45.3430 C   0  0  0  0  0  0  0  0  0  0  0  0
   58.4025   28.9210   45.3119 H   0  0  0  0  0  0  0  0  0  0  0  0
   58.4215   28.5817   49.6257 H   0  0  0  0  0  0  0  0  0  0  0  0
   57.8601   30.8377   50.5341 H   0  0  0  0  0  0  0  0  0  0  0  0
   59.4506   32.7398   50.2353 H   0  0  0  0  0  0  0  0  0  0  0  0
   61.6073   32.3849   49.0270 H   0  0  0  0  0  0  0  0  0  0  0  0
   62.1760   30.1353   48.1192 H   0  0  0  0  0  0  0  0  0  0  0  0
   58.8137   25.1676   47.4264 H   0  0  0  0  0  0  0  0  0  0  0  0
   56.3804   24.7195   47.1002 H   0  0  0  0  0  0  0  0  0  0  0  0
   57.0028   31.3462   41.9483 H   0  0  0  0  0  0  0  0  0  0  0  0
   58.3643   33.3983   42.3182 H   0  0  0  0  0  0  0  0  0  0  0  0
   59.5506   34.9076   43.8306 H   0  0  0  0  0  0  0  0  0  0  0  0
   60.2773   35.5129   46.1407 H   0  0  0  0  0  0  0  0  0  0  0  0
   59.6541   34.0633   48.0715 H   0  0  0  0  0  0  0  0  0  0  0  0
   58.2941   32.0028   47.7086 H   0  0  0  0  0  0  0  0  0  0  0  0
   57.1135   30.4887   46.1923 H   0  0  0  0  0  0  0  0  0  0  0  0
  1  2  2  0
  2  3  1  0
  3  4  1  0
  4  5  2  0
  5  6  1  0
  6  7  1  0
  7  8  2  0
  7  9  2  0
  7 10  1  0
 10 11  1  0
 11 12  2  0
 12 13  1  0
 13 14  2  0
 14 15  1  0
 15 16  2  0
  6 17  2  0
 17 18  1  0
 18 19  2  0
 19 20  1  0
  2 21  1  0
 21 22  2  0
 22 23  1  0
 23 24  2  0
 24 25  1  0
 25 26  2  0
 26 27  1  0
 27 28  2  0
 28 29  1  0
 29 30  2  0
 19  4  1  0
 30 21  1  0
 16 11  1  0
 29 24  1  0
  5 31  1  0
 12 32  1  0
 13 33  1  0
 14 34  1  0
 15 35  1  0
 16 36  1  0
 17 37  1  0
 18 38  1  0
 22 39  1  0
 23 40  1  0
 25 41  1  0
 26 42  1  0
 27 43  1  0
 28 44  1  0
 30 45  1  0
M  CHG  3   3  -1  10  -1  20  -1
M  END
>  <UniqueID>  (36) 
35

>  <SMILES>  (36) 
O=C([N-]c1cc(S(=O)(=O)[N-]c2ccccc2)ccc1[O-])c1ccc2ccccc2c1

>  <Energy>  (36) 
60.988887584035496

>  <Genealogy>  (36) 
O=C([N-]c1cc(S(=O)(=O)[N-]c2ccccc2)ccc1[O-])c1ccc2ccccc2c1 (protonated)
O=C([N-]c1cc(S(=O)(=O)[N-]c2ccccc2)ccc1[O-])c1ccc2ccccc2c1 (3D coordinates assigned)
O=C([N-]c1cc(S(=O)(=O)[N-]c2ccccc2)ccc1[O-])c1ccc2ccccc2c1 (optimized conformer: 60.988887584035496 kcal/mol)

>  <smiles>  (36) 
O=C(Nc1cc(S(=O)(=O)Nc2ccccc2)ccc1O)c1ccc2ccccc2c1

>  <score_type>  (36) 
oracle

>  <origin>  (36) 
adg

>  <m_score__min__energy>  (36) 
-16.329999999999998

>  <m_primary>  (36) 
energy

$$$$
36:0
     RDKit          3D

 39 40  0  0  0  0  0  0  0  0999 V2000
   65.1740   32.7350   49.6300 C   0  0  0  0  0  0  0  0  0  0  0  0
   63.7510   33.1800   48.6600 S   0  0  0  0  0  0  0  0  0  0  0  0
   63.1420   34.4530   49.1790 O   0  0  0  0  0  0  0  0  0  0  0  0
   64.1860   33.3990   47.2390 O   0  0  0  0  0  0  0  0  0  0  0  0
   62.5760   31.9060   48.6910 N   0  0  0  0  0  0  0  0  0  0  0  0
   61.1640   32.0590   48.4930 C   0  0  0  0  0  0  0  0  0  0  0  0
   60.2330   31.1070   48.9450 C   0  0  0  0  0  0  0  0  0  0  0  0
   58.8680   31.2930   48.7130 C   0  0  0  0  0  0  0  0  0  0  0  0
   58.4170   32.4310   48.0410 C   0  0  0  0  0  0  0  0  0  0  0  0
   59.3320   33.3970   47.5990 C   0  0  0  0  0  0  0  0  0  0  0  0
   58.8610   34.5840   46.8040 C   0  0  0  0  0  0  0  0  0  0  0  0
   58.9960   34.2970   45.3800 N   0  0  0  0  0  0  0  0  0  0  0  0
   57.8980   33.7720   44.6250 C   0  0  0  0  0  0  0  0  0  0  0  0
   56.7180   34.1270   44.8890 O   0  0  0  0  0  0  0  0  0  0  0  0
   58.1420   32.7160   43.5930 C   0  0  0  0  0  0  0  0  0  0  0  0
   57.9250   31.3620   44.2110 C   0  0  0  0  0  0  0  0  0  0  0  0
   58.9750   30.7080   44.8760 C   0  0  0  0  0  0  0  0  0  0  0  0
   58.7520   29.4800   45.5070 C   0  0  0  0  0  0  0  0  0  0  0  0
   57.4800   28.9040   45.4880 C   0  0  0  0  0  0  0  0  0  0  0  0
   56.4240   29.5580   44.8470 C   0  0  0  0  0  0  0  0  0  0  0  0
   55.1560   28.9910   44.8430 O   0  0  0  0  0  0  0  0  0  0  0  0
   56.6440   30.7850   44.2120 C   0  0  0  0  0  0  0  0  0  0  0  0
   60.7040   33.1970   47.8150 C   0  0  0  0  0  0  0  0  0  0  0  0
   64.9276   32.8121   50.6993 H   0  0  0  0  0  0  0  0  0  0  0  0
   65.4692   31.7017   49.3953 H   0  0  0  0  0  0  0  0  0  0  0  0
   66.0053   33.4161   49.3953 H   0  0  0  0  0  0  0  0  0  0  0  0
   60.5807   30.2128   49.4831 H   0  0  0  0  0  0  0  0  0  0  0  0
   58.1456   30.5400   49.0611 H   0  0  0  0  0  0  0  0  0  0  0  0
   57.3413   32.5699   47.8580 H   0  0  0  0  0  0  0  0  0  0  0  0
   57.8059   34.7880   47.0390 H   0  0  0  0  0  0  0  0  0  0  0  0
   59.4693   35.4637   47.0611 H   0  0  0  0  0  0  0  0  0  0  0  0
   59.9620   34.1790   45.0000 H   0  0  0  0  0  0  0  0  0  0  0  0
   57.4445   32.8535   42.7536 H   0  0  0  0  0  0  0  0  0  0  0  0
   59.1750   32.7923   43.2228 H   0  0  0  0  0  0  0  0  0  0  0  0
   59.9761   31.1632   44.9006 H   0  0  0  0  0  0  0  0  0  0  0  0
   59.5796   28.9672   46.0189 H   0  0  0  0  0  0  0  0  0  0  0  0
   57.3088   27.9342   45.9782 H   0  0  0  0  0  0  0  0  0  0  0  0
   55.8108   31.3000   43.7115 H   0  0  0  0  0  0  0  0  0  0  0  0
   61.4265   33.9410   47.4485 H   0  0  0  0  0  0  0  0  0  0  0  0
  1  2  1  0
  2  3  2  0
  2  4  2  0
  2  5  1  0
  5  6  1  0
  6  7  2  0
  7  8  1  0
  8  9  2  0
  9 10  1  0
 10 11  1  0
 11 12  1  0
 12 13  1  0
 13 14  2  0
 13 15  1  0
 15 16  1  0
 16 17  2  0
 17 18  1  0
 18 19  2  0
 19 20  1  0
 20 21  1  0
 20 22  2  0
 10 23  2  0
 23  6  1  0
 22 16  1  0
  1 24  1  0
  1 25  1  0
  1 26  1  0
  7 27  1  0
  8 28  1  0
  9 29  1  0
 11 30  1  0
 11 31  1  0
 12 32  1  0
 15 33  1  0
 15 34  1  0
 17 35  1  0
 18 36  1  0
 19 37  1  0
 22 38  1  0
 23 39  1  0
M  CHG  2   5  -1  21  -1
M  END
>  <UniqueID>  (37) 
36

>  <SMILES>  (37) 
CS(=O)(=O)[N-]c1cccc(CNC(=O)Cc2cccc([O-])c2)c1

>  <Energy>  (37) 
29.79328951467437

>  <Genealogy>  (37) 
CS(=O)(=O)[N-]c1cccc(CNC(=O)Cc2cccc([O-])c2)c1 (protonated)
CS(=O)(=O)[N-]c1cccc(CNC(=O)Cc2cccc([O-])c2)c1 (3D coordinates assigned)
CS(=O)(=O)[N-]c1cccc(CNC(=O)Cc2cccc([O-])c2)c1 (optimized conformer: 29.79328951467437 kcal/mol)

>  <smiles>  (37) 
CS(=O)(=O)Nc1cccc(CNC(=O)Cc2cccc(O)c2)c1

>  <score_type>  (37) 
oracle

>  <origin>  (37) 
adg

>  <m_score__min__energy>  (37) 
-12.710000000000001

>  <m_primary>  (37) 
energy

$$$$
37:0
     RDKit          3D

 53 55  0  0  0  0  0  0  0  0999 V2000
   53.9970   28.9660   44.5030 H   0  0  0  0  0  0  0  0  0  0  0  0
   54.7560   29.3570   43.9600 O   0  0  0  0  0  0  0  0  0  0  0  0
   56.0430   29.5030   44.4770 C   0  0  0  0  0  0  0  0  0  0  0  0
   56.7860   30.6330   44.1250 C   0  0  0  0  0  0  0  0  0  0  0  0
   56.3475   31.3892   43.4573 H   0  0  0  0  0  0  0  0  0  0  0  0
   58.0800   30.8080   44.6150 C   0  0  0  0  0  0  0  0  0  0  0  0
   58.6499   31.7102   44.3482 H   0  0  0  0  0  0  0  0  0  0  0  0
   58.6570   29.8370   45.4470 C   0  0  0  0  0  0  0  0  0  0  0  0
   60.0280   30.0010   45.9670 C   0  0  0  0  0  0  0  0  0  0  0  0
   60.5028   30.9857   45.8447 H   0  0  0  0  0  0  0  0  0  0  0  0
   60.7410   29.0410   46.5780 C   0  0  0  0  0  0  0  0  0  0  0  0
   61.6644   28.7074   46.0820 H   0  0  0  0  0  0  0  0  0  0  0  0
   60.3910   28.3950   47.8590 C   0  0  0  0  0  0  0  0  0  0  0  0
   60.1890   27.1500   47.8760 O   0  0  0  0  0  0  0  0  0  0  0  0
   60.3240   29.1330   49.0430 O   0  0  0  0  0  0  0  0  0  0  0  0
   59.1010   29.5830   49.6080 C   0  0  0  0  0  0  0  0  0  0  0  0
   58.2575   29.1231   49.0723 H   0  0  0  0  0  0  0  0  0  0  0  0
   59.0583   29.2972   50.6694 H   0  0  0  0  0  0  0  0  0  0  0  0
   59.0180   31.0750   49.4860 C   0  0  0  0  0  0  0  0  0  0  0  0
   58.1460   31.7010   50.1440 O   0  0  0  0  0  0  0  0  0  0  0  0
   59.8550   31.8000   48.5770 N   0  0  0  0  0  0  0  0  0  0  0  0
   59.3610   32.7500   47.6280 C   0  0  0  0  0  0  0  0  0  0  0  0
   58.0090   32.7040   47.2680 C   0  0  0  0  0  0  0  0  0  0  0  0
   57.3398   31.9750   47.7483 H   0  0  0  0  0  0  0  0  0  0  0  0
   57.5050   33.5780   46.3030 C   0  0  0  0  0  0  0  0  0  0  0  0
   56.4437   33.5302   46.0178 H   0  0  0  0  0  0  0  0  0  0  0  0
   58.3490   34.5130   45.7000 C   0  0  0  0  0  0  0  0  0  0  0  0
   57.9544   35.1921   44.9299 H   0  0  0  0  0  0  0  0  0  0  0  0
   59.6950   34.5880   46.0730 C   0  0  0  0  0  0  0  0  0  0  0  0
   60.3532   35.3314   45.5996 H   0  0  0  0  0  0  0  0  0  0  0  0
   60.2110   33.7190   47.0490 C   0  0  0  0  0  0  0  0  0  0  0  0
   61.5670   33.8870   47.5010 N   0  0  0  0  0  0  0  0  0  0  0  0
   61.8570   34.1110   48.9230 C   0  0  0  0  0  0  0  0  0  0  0  0
   62.1316   35.1659   49.0708 H   0  0  0  0  0  0  0  0  0  0  0  0
   60.9584   33.8574   49.5046 H   0  0  0  0  0  0  0  0  0  0  0  0
   63.0220   33.2140   49.4080 C   0  0  0  0  0  0  0  0  0  0  0  0
   63.7332   33.8422   49.9643 H   0  0  0  0  0  0  0  0  0  0  0  0
   62.5763   32.4239   50.0301 H   0  0  0  0  0  0  0  0  0  0  0  0
   63.7260   32.5630   48.3620 O   0  0  0  0  0  0  0  0  0  0  0  0
   63.9770   33.4600   47.3030 C   0  0  0  0  0  0  0  0  0  0  0  0
   64.3701   34.4048   47.7064 H   0  0  0  0  0  0  0  0  0  0  0  0
   64.7163   33.0229   46.6157 H   0  0  0  0  0  0  0  0  0  0  0  0
   62.6730   33.7280   46.5520 C   0  0  0  0  0  0  0  0  0  0  0  0
   62.7778   34.6481   45.9584 H   0  0  0  0  0  0  0  0  0  0  0  0
   62.4584   32.8766   45.8893 H   0  0  0  0  0  0  0  0  0  0  0  0
   57.9010   28.7240   45.8340 C   0  0  0  0  0  0  0  0  0  0  0  0
   58.3306   27.9878   46.5293 H   0  0  0  0  0  0  0  0  0  0  0  0
   56.5940   28.5390   45.3400 C   0  0  0  0  0  0  0  0  0  0  0  0
   55.8260   27.4140   45.6770 O   0  0  0  0  0  0  0  0  0  0  0  0
   56.3700   26.1550   46.0620 C   0  0  0  0  0  0  0  0  0  0  0  0
   56.3988   26.0882   47.1596 H   0  0  0  0  0  0  0  0  0  0  0  0
   55.7411   25.3460   45.6619 H   0  0  0  0  0  0  0  0  0  0  0  0
   57.3901   26.0585   45.6619 H   0  0  0  0  0  0  0  0  0  0  0  0
  1  2  1  0
  2  3  1  0
  3  4  2  0
  4  5  1  0
  4  6  1  0
  6  7  1  0
  6  8  2  0
  8  9  1  0
  9 10  1  0
  9 11  2  0
 11 12  1  0
 11 13  1  0
 13 14  2  0
 13 15  1  0
 15 16  1  0
 16 17  1  0
 16 18  1  0
 16 19  1  0
 19 20  2  0
 19 21  1  0
 21 22  1  0
 22 23  2  0
 23 24  1  0
 23 25  1  0
 25 26  1  0
 25 27  2  0
 27 28  1  0
 27 29  1  0
 29 30  1  0
 29 31  2  0
 31 32  1  0
 32 33  1  0
 33 34  1  0
 33 35  1  0
 33 36  1  0
 36 37  1  0
 36 38  1  0
 36 39  1  0
 39 40  1  0
 40 41  1  0
 40 42  1  0
 40 43  1  0
 43 44  1  0
 43 45  1  0
  8 46  1  0
 46 47  1  0
 46 48  2  0
 48 49  1  0
 49 50  1  0
 50 51  1  0
 50 52  1  0
 50 53  1  0
 48  3  1  0
 31 22  1  0
 43 32  1  0
M  CHG  1  21  -1
M  END
>  <UniqueID>  (38) 
37

>  <SMILES>  (38) 
COc1cc(/C=C\C(=O)OCC(=O)[N-]c2ccccc2N2CCOCC2)ccc1O

>  <Energy>  (38) 
72.12541175307173

>  <Genealogy>  (38) 
COc1cc(C=CC(=O)OCC(=O)[N-]c2ccccc2N2CCOCC2)ccc1O (protonated)
COc1cc(/C=C\C(=O)OCC(=O)[N-]c2ccccc2N2CCOCC2)ccc1O (cis-trans isomerization)
COc1cc(/C=C\C(=O)OCC(=O)[N-]c2ccccc2N2CCOCC2)ccc1O (3D coordinates assigned)
COc1cc(/C=C\C(=O)OCC(=O)[N-]c2ccccc2N2CCOCC2)ccc1O (nonaromatic ring conformer: 72.12541175307173 kcal/mol)

>  <smiles>  (38) 
COc1cc(C=CC(=O)OCC(=O)Nc2ccccc2N2CCOCC2)ccc1O

>  <score_type>  (38) 
oracle

>  <origin>  (38) 
adg

>  <m_score__min__energy>  (38) 
-10.130000000000001

>  <m_primary>  (38) 
energy

$$$$
38:0
     RDKit          3D

 43 44  0  0  0  0  0  0  0  0999 V2000
   51.0180   32.3410   51.0150 N   0  0  0  0  0  0  0  0  0  0  0  0
   51.7000   31.1380   50.6430 C   0  0  0  0  0  0  0  0  0  0  0  0
   51.3970   30.5720   49.5600 O   0  0  0  0  0  0  0  0  0  0  0  0
   52.7360   30.5450   51.5230 C   0  0  0  0  0  0  0  0  0  0  0  0
   52.3980   29.5090   52.4250 C   0  0  0  0  0  0  0  0  0  0  0  0
   53.3880   28.9110   53.2190 C   0  0  0  0  0  0  0  0  0  0  0  0
   54.7140   29.3490   53.1400 C   0  0  0  0  0  0  0  0  0  0  0  0
   55.0560   30.4090   52.2870 C   0  0  0  0  0  0  0  0  0  0  0  0
   56.7390   30.9390   52.1920 S   0  0  0  0  0  0  0  0  0  0  0  0
   56.8280   32.3610   51.6920 O   0  0  0  0  0  0  0  0  0  0  0  0
   57.3470   30.8740   53.5680 O   0  0  0  0  0  0  0  0  0  0  0  0
   57.6070   29.8750   51.1270 N   0  0  0  0  0  0  0  0  0  0  0  0
   59.0430   30.1580   51.1810 C   0  0  0  0  0  0  0  0  0  0  0  0
   59.8340   28.8620   51.0070 C   0  0  0  0  0  0  0  0  0  0  0  0
   59.8540   28.4390   49.5640 C   0  0  0  0  0  0  0  0  0  0  0  0
   60.7990   27.7110   49.1400 O   0  0  0  0  0  0  0  0  0  0  0  0
   58.7840   28.8250   48.6850 N   0  0  0  0  0  0  0  0  0  0  0  0
   58.9170   28.9620   47.2560 C   0  0  0  0  0  0  0  0  0  0  0  0
   60.1550   28.7710   46.6000 C   0  0  0  0  0  0  0  0  0  0  0  0
   60.2500   28.9380   45.2160 C   0  0  0  0  0  0  0  0  0  0  0  0
   59.1340   29.3390   44.4800 C   0  0  0  0  0  0  0  0  0  0  0  0
   57.9040   29.5770   45.1230 C   0  0  0  0  0  0  0  0  0  0  0  0
   56.4930   30.0950   44.1960 S   0  0  0  0  0  0  0  0  0  0  0  0
   55.1570   29.0530   44.5530 N   0  0  0  0  0  0  0  0  0  0  0  0
   56.1440   31.5080   44.5610 O   0  0  0  0  0  0  0  0  0  0  0  0
   56.7870   30.0370   42.7220 O   0  0  0  0  0  0  0  0  0  0  0  0
   57.7980   29.3750   46.5060 C   0  0  0  0  0  0  0  0  0  0  0  0
   54.0720   30.9980   51.4710 C   0  0  0  0  0  0  0  0  0  0  0  0
   50.0000   32.3250   51.2550 H   0  0  0  0  0  0  0  0  0  0  0  0
   51.3543   29.1708   52.5042 H   0  0  0  0  0  0  0  0  0  0  0  0
   53.1205   28.0947   53.9061 H   0  0  0  0  0  0  0  0  0  0  0  0
   55.4903   28.8613   53.7479 H   0  0  0  0  0  0  0  0  0  0  0  0
   59.3076   30.8581   50.3749 H   0  0  0  0  0  0  0  0  0  0  0  0
   59.2883   30.6046   52.1559 H   0  0  0  0  0  0  0  0  0  0  0  0
   60.8668   29.0208   51.3507 H   0  0  0  0  0  0  0  0  0  0  0  0
   59.3508   28.0714   51.5998 H   0  0  0  0  0  0  0  0  0  0  0  0
   57.8600   29.0570   49.1210 H   0  0  0  0  0  0  0  0  0  0  0  0
   61.0459   28.4901   47.1809 H   0  0  0  0  0  0  0  0  0  0  0  0
   61.2066   28.7530   44.7053 H   0  0  0  0  0  0  0  0  0  0  0  0
   59.2158   29.4699   43.3909 H   0  0  0  0  0  0  0  0  0  0  0  0
   54.6800   29.4500   45.3990 H   0  0  0  0  0  0  0  0  0  0  0  0
   56.8341   29.5401   47.0095 H   0  0  0  0  0  0  0  0  0  0  0  0
   54.3457   31.8162   50.7886 H   0  0  0  0  0  0  0  0  0  0  0  0
  1  2  1  0
  2  3  2  0
  2  4  1  0
  4  5  2  0
  5  6  1  0
  6  7  2  0
  7  8  1  0
  8  9  1  0
  9 10  2  0
  9 11  2  0
  9 12  1  0
 12 13  1  0
 13 14  1  0
 14 15  1  0
 15 16  2  0
 15 17  1  0
 17 18  1  0
 18 19  2  0
 19 20  1  0
 20 21  2  0
 21 22  1  0
 22 23  1  0
 23 24  1  0
 23 25  2  0
 23 26  2  0
 22 27  2  0
  8 28  2  0
 28  4  1  0
 27 18  1  0
  1 29  1  0
  5 30  1  0
  6 31  1  0
  7 32  1  0
 13 33  1  0
 13 34  1  0
 14 35  1  0
 14 36  1  0
 17 37  1  0
 19 38  1  0
 20 39  1  0
 21 40  1  0
 24 41  1  0
 27 42  1  0
 28 43  1  0
M  CHG  3   1  -1  12  -1  24  -1
M  END
>  <UniqueID>  (39) 
38

>  <SMILES>  (39) 
[NH-]C(=O)c1cccc(S(=O)(=O)[N-]CCC(=O)Nc2cccc(S([NH-])(=O)=O)c2)c1

>  <Energy>  (39) 
38.0157336509477

>  <Genealogy>  (39) 
[NH-]C(=O)c1cccc(S(=O)(=O)[N-]CCC(=O)Nc2cccc(S([NH-])(=O)=O)c2)c1 (protonated)
[NH-]C(=O)c1cccc(S(=O)(=O)[N-]CCC(=O)Nc2cccc(S([NH-])(=O)=O)c2)c1 (3D coordinates assigned)
[NH-]C(=O)c1cccc(S(=O)(=O)[N-]CCC(=O)Nc2cccc(S([NH-])(=O)=O)c2)c1 (optimized conformer: 38.0157336509477 kcal/mol)

>  <smiles>  (39) 
NC(=O)c1cccc(S(=O)(=O)NCCC(=O)Nc2cccc(S(N)(=O)=O)c2)c1

>  <score_type>  (39) 
oracle

>  <origin>  (39) 
adg

>  <m_score__min__energy>  (39) 
-16.559999999999999

>  <m_primary>  (39) 
energy

$$$$
39:0
     RDKit          3D

 47 49  0  0  0  0  0  0  0  0999 V2000
   65.1164   33.2032   48.5478 H   0  0  0  0  0  0  0  0  0  0  0  0
   64.0510   33.4330   48.3990 C   0  0  0  0  0  0  0  0  0  0  0  0
   63.4910   33.3520   47.1220 C   0  0  0  0  0  0  0  0  0  0  0  0
   64.1172   33.0639   46.2647 H   0  0  0  0  0  0  0  0  0  0  0  0
   62.1340   33.6370   46.9320 C   0  0  0  0  0  0  0  0  0  0  0  0
   61.6992   33.5819   45.9231 H   0  0  0  0  0  0  0  0  0  0  0  0
   61.3270   33.9920   48.0200 C   0  0  0  0  0  0  0  0  0  0  0  0
   59.9740   34.2830   47.7890 O   0  0  0  0  0  0  0  0  0  0  0  0
   59.1180   33.5560   46.9480 C   0  0  0  0  0  0  0  0  0  0  0  0
   58.2570   34.1900   46.0360 C   0  0  0  0  0  0  0  0  0  0  0  0
   58.2492   35.2876   45.9635 H   0  0  0  0  0  0  0  0  0  0  0  0
   57.4110   33.4340   45.2210 C   0  0  0  0  0  0  0  0  0  0  0  0
   56.7465   33.9386   44.5042 H   0  0  0  0  0  0  0  0  0  0  0  0
   57.4050   32.0290   45.3130 C   0  0  0  0  0  0  0  0  0  0  0  0
   56.5820   31.2180   44.5130 O   0  0  0  0  0  0  0  0  0  0  0  0
   56.9550   30.6350   43.2630 C   0  0  0  0  0  0  0  0  0  0  0  0
   58.0056   30.8805   43.0485 H   0  0  0  0  0  0  0  0  0  0  0  0
   56.3022   31.0375   42.4744 H   0  0  0  0  0  0  0  0  0  0  0  0
   56.7930   29.1130   43.3100 C   0  0  0  0  0  0  0  0  0  0  0  0
   57.0809   28.6893   42.3366 H   0  0  0  0  0  0  0  0  0  0  0  0
   55.7424   28.8766   43.5343 H   0  0  0  0  0  0  0  0  0  0  0  0
   57.6400   28.5320   44.3570 N   0  0  0  0  0  0  0  0  0  0  0  0
   57.1610   27.9110   45.5520 C   0  0  0  0  0  0  0  0  0  0  0  0
   55.9780   27.3550   45.6180 N   0  0  0  0  0  0  0  0  0  0  0  0
   55.1490   27.9320   45.3700 H   0  0  0  0  0  0  0  0  0  0  0  0
   55.7160   25.9920   46.0100 C   0  0  0  0  0  0  0  0  0  0  0  0
   56.5700   25.3290   46.6550 O   0  0  0  0  0  0  0  0  0  0  0  0
   54.4570   25.3740   45.7160 N   0  0  0  0  0  0  0  0  0  0  0  0
   54.3070   24.0240   45.1920 C   0  0  0  0  0  0  0  0  0  0  0  0
   54.2280   23.3130   46.0276 H   0  0  0  0  0  0  0  0  0  0  0  0
   53.3972   23.9687   44.5762 H   0  0  0  0  0  0  0  0  0  0  0  0
   55.1825   23.7703   44.5762 H   0  0  0  0  0  0  0  0  0  0  0  0
   58.4240   27.7260   46.8040 S   0  0  0  0  0  0  0  0  0  0  0  0
   59.6630   27.8360   45.4720 C   0  0  0  0  0  0  0  0  0  0  0  0
   60.5841   28.2969   45.8583 H   0  0  0  0  0  0  0  0  0  0  0  0
   59.9023   26.8311   45.0939 H   0  0  0  0  0  0  0  0  0  0  0  0
   59.0860   28.6980   44.3470 C   0  0  0  0  0  0  0  0  0  0  0  0
   59.3427   29.7543   44.5156 H   0  0  0  0  0  0  0  0  0  0  0  0
   59.5015   28.3911   43.3758 H   0  0  0  0  0  0  0  0  0  0  0  0
   58.2430   31.4040   46.2440 C   0  0  0  0  0  0  0  0  0  0  0  0
   58.2353   30.3078   46.3353 H   0  0  0  0  0  0  0  0  0  0  0  0
   59.0900   32.1620   47.0590 C   0  0  0  0  0  0  0  0  0  0  0  0
   59.7380   31.6588   47.7917 H   0  0  0  0  0  0  0  0  0  0  0  0
   61.9020   34.0910   49.3020 C   0  0  0  0  0  0  0  0  0  0  0  0
   61.2825   34.3934   50.1592 H   0  0  0  0  0  0  0  0  0  0  0  0
   63.2580   33.8060   49.4880 C   0  0  0  0  0  0  0  0  0  0  0  0
   63.7013   33.8754   50.4923 H   0  0  0  0  0  0  0  0  0  0  0  0
  1  2  1  0
  2  3  2  0
  3  4  1  0
  3  5  1  0
  5  6  1  0
  5  7  2  0
  7  8  1  0
  8  9  1  0
  9 10  2  0
 10 11  1  0
 10 12  1  0
 12 13  1  0
 12 14  2  0
 14 15  1  0
 15 16  1  0
 16 17  1  0
 16 18  1  0
 16 19  1  0
 19 20  1  0
 19 21  1  0
 19 22  1  0
 22 23  1  0
 23 24  2  0
 24 25  1  0
 24 26  1  0
 26 27  2  0
 26 28  1  0
 28 29  1  0
 29 30  1  0
 29 31  1  0
 29 32  1  0
 23 33  1  0
 33 34  1  0
 34 35  1  0
 34 36  1  0
 34 37  1  0
 37 38  1  0
 37 39  1  0
 14 40  1  0
 40 41  1  0
 40 42  2  0
 42 43  1  0
  7 44  1  0
 44 45  1  0
 44 46  2  0
 46 47  1  0
 46  2  1  0
 42  9  1  0
 37 22  1  0
M  CHG  2  24   1  28  -1
M  END
>  <UniqueID>  (40) 
39

>  <SMILES>  (40) 
C[N-]C(=O)/[NH+]=C1\SCCN1CCOc1ccc(Oc2ccccc2)cc1

>  <Energy>  (40) 
59.24728623056238

>  <Genealogy>  (40) 
C[N-]C(=O)[NH+]=C1SCCN1CCOc1ccc(Oc2ccccc2)cc1 (protonated)
C[N-]C(=O)/[NH+]=C1\SCCN1CCOc1ccc(Oc2ccccc2)cc1 (cis-trans isomerization)
C[N-]C(=O)/[NH+]=C1\SCCN1CCOc1ccc(Oc2ccccc2)cc1 (3D coordinates assigned)
C[N-]C(=O)/[NH+]=C1\SCCN1CCOc1ccc(Oc2ccccc2)cc1 (nonaromatic ring conformer: 59.24728623056238 kcal/mol)

>  <smiles>  (40) 
CNC(=O)N=C1SCCN1CCOc1ccc(Oc2ccccc2)cc1

>  <score_type>  (40) 
oracle

>  <origin>  (40) 
adg

>  <m_score__min__energy>  (40) 
-8.6600000000000001

>  <m_primary>  (40) 
energy

$$$$
40:0
     RDKit          3D

 58 62  0  0  0  0  0  0  0  0999 V2000
   57.7510   32.1060   51.4170 C   0  0  0  0  0  0  0  0  0  0  0  0
   58.6240   31.1910   52.1440 N   0  0  0  0  0  0  0  0  0  0  0  0
   58.2820   29.8090   52.3270 C   0  0  0  0  0  0  0  0  0  0  0  0
   57.1450   29.3920   51.9770 O   0  0  0  0  0  0  0  0  0  0  0  0
   59.2010   28.8860   52.9230 N   0  0  0  0  0  0  0  0  0  0  0  0
   60.4340   28.4120   52.3030 C   0  0  0  0  0  0  0  0  0  0  0  0
   60.5900   29.0050   50.9280 C   0  0  0  0  0  0  0  0  0  0  0  0
   61.5980   29.9440   50.6610 C   0  0  0  0  0  0  0  0  0  0  0  0
   61.7360   30.4780   49.3770 C   0  0  0  0  0  0  0  0  0  0  0  0
   60.8720   30.0820   48.3510 C   0  0  0  0  0  0  0  0  0  0  0  0
   59.8550   29.1450   48.6000 C   0  0  0  0  0  0  0  0  0  0  0  0
   58.9540   28.7130   47.5070 C   0  0  0  0  0  0  0  0  0  0  0  0
   58.1510   27.6260   47.5880 N   0  0  0  0  0  0  0  0  0  0  0  0
   57.3710   27.4620   46.4850 C   0  0  0  0  0  0  0  0  0  0  0  0
   56.4560   26.3070   46.3310 C   0  0  0  0  0  0  0  0  0  0  0  0
   55.2270   26.5430   46.1440 O   0  0  0  0  0  0  0  0  0  0  0  0
   56.9120   24.9380   46.3950 N   0  0  0  0  0  0  0  0  0  0  0  0
   56.3550   24.0570   47.4410 C   0  0  0  0  0  0  0  0  0  0  0  0
   56.3740   22.6020   46.9860 C   0  0  0  0  0  0  0  0  0  0  0  0
   57.7320   22.2220   46.6440 N   0  0  0  0  0  0  0  0  0  0  0  0
   58.5730   23.1420   45.9520 C   0  0  0  0  0  0  0  0  0  0  0  0
   59.7380   22.7960   45.6280 O   0  0  0  0  0  0  0  0  0  0  0  0
   58.0630   24.5020   45.5720 C   0  0  0  0  0  0  0  0  0  0  0  0
   57.5760   28.4380   45.5050 C   0  0  0  0  0  0  0  0  0  0  0  0
   56.8560   28.5970   44.2820 N   0  0  0  0  0  0  0  0  0  0  0  0
   56.2740   29.8170   43.8050 C   0  0  0  0  0  0  0  0  0  0  0  0
   55.0430   29.8380   43.5490 O   0  0  0  0  0  0  0  0  0  0  0  0
   57.0750   31.0290   43.5620 C   0  0  0  0  0  0  0  0  0  0  0  0
   57.5030   31.5640   42.3470 C   0  0  0  0  0  0  0  0  0  0  0  0
   58.1260   32.7550   42.5530 N   0  0  0  0  0  0  0  0  0  0  0  0
   58.0920   32.9820   43.8540 N   0  0  0  0  0  0  0  0  0  0  0  0
   58.5590   34.0780   44.5070 C   0  0  0  0  0  0  0  0  0  0  0  0
   58.3870   34.1380   45.8970 C   0  0  0  0  0  0  0  0  0  0  0  0
   57.7340   33.0620   46.5440 C   0  0  0  0  0  0  0  0  0  0  0  0
   57.2790   31.9900   45.8260 N   0  0  0  0  0  0  0  0  0  0  0  0
   57.4730   31.9750   44.4820 C   0  0  0  0  0  0  0  0  0  0  0  0
   58.7480   29.5120   46.0340 S   0  0  0  0  0  0  0  0  0  0  0  0
   59.7240   28.6090   49.8940 C   0  0  0  0  0  0  0  0  0  0  0  0
   57.1748   32.7100   52.1334 H   0  0  0  0  0  0  0  0  0  0  0  0
   58.3598   32.7690   50.7847 H   0  0  0  0  0  0  0  0  0  0  0  0
   57.0601   31.5290   50.7847 H   0  0  0  0  0  0  0  0  0  0  0  0
   59.4980   31.5730   52.5610 H   0  0  0  0  0  0  0  0  0  0  0  0
   61.2907   28.7094   52.9256 H   0  0  0  0  0  0  0  0  0  0  0  0
   60.3925   27.3161   52.2170 H   0  0  0  0  0  0  0  0  0  0  0  0
   62.2806   30.2602   51.4636 H   0  0  0  0  0  0  0  0  0  0  0  0
   62.5280   31.2134   49.1723 H   0  0  0  0  0  0  0  0  0  0  0  0
   60.9893   30.5066   47.3431 H   0  0  0  0  0  0  0  0  0  0  0  0
   56.9574   24.1572   48.3560 H   0  0  0  0  0  0  0  0  0  0  0  0
   55.3137   24.3533   47.6355 H   0  0  0  0  0  0  0  0  0  0  0  0
   56.0064   21.9584   47.7988 H   0  0  0  0  0  0  0  0  0  0  0  0
   55.7263   22.4840   46.1048 H   0  0  0  0  0  0  0  0  0  0  0  0
   58.8785   25.2297   45.6961 H   0  0  0  0  0  0  0  0  0  0  0  0
   57.7192   24.4452   44.5286 H   0  0  0  0  0  0  0  0  0  0  0  0
   57.3576   31.0910   41.3646 H   0  0  0  0  0  0  0  0  0  0  0  0
   59.0568   34.8934   43.9617 H   0  0  0  0  0  0  0  0  0  0  0  0
   58.7514   35.0021   46.4719 H   0  0  0  0  0  0  0  0  0  0  0  0
   57.5909   33.0878   47.6344 H   0  0  0  0  0  0  0  0  0  0  0  0
   58.9344   27.8711   50.0992 H   0  0  0  0  0  0  0  0  0  0  0  0
  1  2  1  0
  2  3  1  0
  3  4  2  0
  3  5  1  0
  5  6  1  0
  6  7  1  0
  7  8  2  0
  8  9  1  0
  9 10  2  0
 10 11  1  0
 11 12  1  0
 12 13  2  0
 13 14  1  0
 14 15  1  0
 15 16  2  0
 15 17  1  0
 17 18  1  0
 18 19  1  0
 19 20  1  0
 20 21  1  0
 21 22  2  0
 21 23  1  0
 14 24  2  0
 24 25  1  0
 25 26  1  0
 26 27  2  0
 26 28  1  0
 28 29  1  0
 29 30  2  0
 30 31  1  0
 31 32  1  0
 32 33  2  0
 33 34  1  0
 34 35  2  0
 35 36  1  0
 24 37  1  0
 11 38  2  0
 38  7  1  0
 37 12  1  0
 23 17  1  0
 36 28  2  0
 36 31  1  0
  1 39  1  0
  1 40  1  0
  1 41  1  0
  2 42  1  0
  6 43  1  0
  6 44  1  0
  8 45  1  0
  9 46  1  0
 10 47  1  0
 18 48  1  0
 18 49  1  0
 19 50  1  0
 19 51  1  0
 23 52  1  0
 23 53  1  0
 29 54  1  0
 32 55  1  0
 33 56  1  0
 34 57  1  0
 38 58  1  0
M  CHG  3   5  -1  20  -1  25  -1
M  END
>  <UniqueID>  (41) 
40

>  <SMILES>  (41) 
CNC(=O)[N-]Cc1cccc(-c2nc(C(=O)N3CC[N-]C(=O)C3)c([N-]C(=O)c3cnn4cccnc34)s2)c1

>  <Energy>  (41) 
136.65464113019414

>  <Genealogy>  (41) 
CNC(=O)[N-]Cc1cccc(-c2nc(C(=O)N3CC[N-]C(=O)C3)c([N-]C(=O)c3cnn4cccnc34)s2)c1 (protonated)
CNC(=O)[N-]Cc1cccc(-c2nc(C(=O)N3CC[N-]C(=O)C3)c([N-]C(=O)c3cnn4cccnc34)s2)c1 (3D coordinates assigned)
CNC(=O)[N-]Cc1cccc(-c2nc(C(=O)N3CC[N-]C(=O)C3)c([N-]C(=O)c3cnn4cccnc34)s2)c1 (nonaromatic ring conformer: 136.65464113019414 kcal/mol)

>  <smiles>  (41) 
CNC(=O)NCc1cccc(-c2nc(C(=O)N3CCNC(=O)C3)c(NC(=O)c3cnn4cccnc34)s2)c1

>  <score_type>  (41) 
oracle

>  <origin>  (41) 
adg

>  <m_score__min__energy>  (41) 
-14.35

>  <m_primary>  (41) 
energy

$$$$
41:0
     RDKit          3D

 53 56  0  0  0  0  0  0  0  0999 V2000
   57.0750   28.7750   43.0410 N   0  0  0  0  0  0  0  0  0  0  0  0
   56.3350   29.8670   44.1590 S   0  0  0  0  0  0  0  0  0  0  0  0
   56.3680   29.2760   45.5410 O   0  0  0  0  0  0  0  0  0  0  0  0
   54.9070   30.0900   43.7570 O   0  0  0  0  0  0  0  0  0  0  0  0
   57.2170   31.3870   44.1530 C   0  0  0  0  0  0  0  0  0  0  0  0
   57.7780   31.8880   42.9740 C   0  0  0  0  0  0  0  0  0  0  0  0
   58.5120   33.0790   42.9990 C   0  0  0  0  0  0  0  0  0  0  0  0
   58.6900   33.7690   44.2020 C   0  0  0  0  0  0  0  0  0  0  0  0
   58.1300   33.2730   45.3880 C   0  0  0  0  0  0  0  0  0  0  0  0
   58.3640   33.9870   46.6100 N   0  0  0  0  0  0  0  0  0  0  0  0
   59.7870   33.8300   47.5920 S   0  0  0  0  0  0  0  0  0  0  0  0
   60.9740   34.3300   46.8200 O   0  0  0  0  0  0  0  0  0  0  0  0
   59.6220   34.6630   48.8330 O   0  0  0  0  0  0  0  0  0  0  0  0
   60.0500   32.1400   48.0120 C   0  0  0  0  0  0  0  0  0  0  0  0
   60.7200   31.7990   49.1950 C   0  0  0  0  0  0  0  0  0  0  0  0
   60.9080   30.4570   49.5320 C   0  0  0  0  0  0  0  0  0  0  0  0
   60.4270   29.4480   48.6940 C   0  0  0  0  0  0  0  0  0  0  0  0
   59.7490   29.7740   47.5060 C   0  0  0  0  0  0  0  0  0  0  0  0
   59.2410   28.7040   46.6130 C   0  0  0  0  0  0  0  0  0  0  0  0
   59.5750   28.6920   45.2500 C   0  0  0  0  0  0  0  0  0  0  0  0
   59.0720   27.7330   44.4280 N   0  0  0  0  0  0  0  0  0  0  0  0
   58.2470   26.7560   44.8850 C   0  0  0  0  0  0  0  0  0  0  0  0
   57.8050   25.8920   44.0810 O   0  0  0  0  0  0  0  0  0  0  0  0
   57.9020   26.7040   46.2430 C   0  0  0  0  0  0  0  0  0  0  0  0
   57.0270   25.6710   46.7180 N   0  0  0  0  0  0  0  0  0  0  0  0
   55.9910   25.0490   45.9490 C   0  0  0  0  0  0  0  0  0  0  0  0
   54.8380   25.5560   45.9730 O   0  0  0  0  0  0  0  0  0  0  0  0
   56.2570   23.8750   45.0790 C   0  0  0  0  0  0  0  0  0  0  0  0
   55.5970   23.7510   43.8410 C   0  0  0  0  0  0  0  0  0  0  0  0
   55.8820   22.6780   42.9910 C   0  0  0  0  0  0  0  0  0  0  0  0
   56.8240   21.7170   43.3660 C   0  0  0  0  0  0  0  0  0  0  0  0
   57.4890   21.8300   44.5900 C   0  0  0  0  0  0  0  0  0  0  0  0
   57.2140   22.9060   45.4400 C   0  0  0  0  0  0  0  0  0  0  0  0
   58.3990   27.6940   47.1050 C   0  0  0  0  0  0  0  0  0  0  0  0
   59.5670   31.1290   47.1700 C   0  0  0  0  0  0  0  0  0  0  0  0
   57.3790   32.0880   45.3530 C   0  0  0  0  0  0  0  0  0  0  0  0
   57.0330   27.8250   43.4730 H   0  0  0  0  0  0  0  0  0  0  0  0
   58.0880   29.0260   42.9930 H   0  0  0  0  0  0  0  0  0  0  0  0
   57.6422   31.3456   42.0267 H   0  0  0  0  0  0  0  0  0  0  0  0
   58.9500   33.4733   42.0702 H   0  0  0  0  0  0  0  0  0  0  0  0
   59.2707   34.7031   44.2181 H   0  0  0  0  0  0  0  0  0  0  0  0
   61.0984   32.5900   49.8592 H   0  0  0  0  0  0  0  0  0  0  0  0
   61.4364   30.1935   50.4601 H   0  0  0  0  0  0  0  0  0  0  0  0
   60.5795   28.3929   48.9650 H   0  0  0  0  0  0  0  0  0  0  0  0
   60.2473   29.4625   44.8446 H   0  0  0  0  0  0  0  0  0  0  0  0
   54.8525   24.5031   43.5409 H   0  0  0  0  0  0  0  0  0  0  0  0
   55.3633   22.5904   42.0249 H   0  0  0  0  0  0  0  0  0  0  0  0
   57.0424   20.8711   42.6977 H   0  0  0  0  0  0  0  0  0  0  0  0
   58.2294   21.0719   44.8851 H   0  0  0  0  0  0  0  0  0  0  0  0
   57.7486   22.9964   46.3971 H   0  0  0  0  0  0  0  0  0  0  0  0
   58.1276   27.6785   48.1709 H   0  0  0  0  0  0  0  0  0  0  0  0
   59.0424   31.3959   46.2407 H   0  0  0  0  0  0  0  0  0  0  0  0
   56.9147   31.7078   46.2749 H   0  0  0  0  0  0  0  0  0  0  0  0
  1  2  1  0
  2  3  2  0
  2  4  2  0
  2  5  1  0
  5  6  2  0
  6  7  1  0
  7  8  2  0
  8  9  1  0
  9 10  1  0
 10 11  1  0
 11 12  2  0
 11 13  2  0
 11 14  1  0
 14 15  2  0
 15 16  1  0
 16 17  2  0
 17 18  1  0
 18 19  1  0
 19 20  2  0
 20 21  1  0
 21 22  1  0
 22 23  2  0
 22 24  1  0
 24 25  1  0
 25 26  1  0
 26 27  2  0
 26 28  1  0
 28 29  2  0
 29 30  1  0
 30 31  2  0
 31 32  1  0
 32 33  2  0
 24 34  2  0
 18 35  2  0
  9 36  2  0
 36  5  1  0
 35 14  1  0
 34 19  1  0
 33 28  1  0
  1 37  1  0
  1 38  1  0
  6 39  1  0
  7 40  1  0
  8 41  1  0
 15 42  1  0
 16 43  1  0
 17 44  1  0
 20 45  1  0
 29 46  1  0
 30 47  1  0
 31 48  1  0
 32 49  1  0
 33 50  1  0
 34 51  1  0
 35 52  1  0
 36 53  1  0
M  CHG  3  10  -1  21  -1  25  -1
M  END
>  <UniqueID>  (42) 
41

>  <SMILES>  (42) 
NS(=O)(=O)c1cccc([N-]S(=O)(=O)c2cccc(-c3c[n-]c(=O)c([N-]C(=O)c4ccccc4)c3)c2)c1

>  <Energy>  (42) 
67.11012593392505

>  <Genealogy>  (42) 
NS(=O)(=O)c1cccc([N-]S(=O)(=O)c2cccc(-c3c[n-]c(=O)c([N-]C(=O)c4ccccc4)c3)c2)c1 (protonated)
NS(=O)(=O)c1cccc([N-]S(=O)(=O)c2cccc(-c3c[n-]c(=O)c([N-]C(=O)c4ccccc4)c3)c2)c1 (3D coordinates assigned)
NS(=O)(=O)c1cccc([N-]S(=O)(=O)c2cccc(-c3c[n-]c(=O)c([N-]C(=O)c4ccccc4)c3)c2)c1 (optimized conformer: 67.11012593392505 kcal/mol)

>  <smiles>  (42) 
NS(=O)(=O)c1cccc(NS(=O)(=O)c2cccc(-c3c[nH]c(=O)c(NC(=O)c4ccccc4)c3)c2)c1

>  <score_type>  (42) 
oracle

>  <origin>  (42) 
adg

>  <m_score__min__energy>  (42) 
-15

>  <m_primary>  (42) 
energy

$$$$
42:0
     RDKit          3D

 53 56  0  0  0  0  0  0  0  0999 V2000
   59.0690   24.5030   46.2700 O   0  0  0  0  0  0  0  0  0  0  0  0
   58.6990   25.4960   46.9520 C   0  0  0  0  0  0  0  0  0  0  0  0
   57.3070   25.7160   47.2380 N   0  0  0  0  0  0  0  0  0  0  0  0
   56.3010   25.1860   46.6090 C   0  0  0  0  0  0  0  0  0  0  0  0
   55.1860   25.8560   46.2470 N   0  0  0  0  0  0  0  0  0  0  0  0
   54.3020   25.0420   45.6090 C   0  0  0  0  0  0  0  0  0  0  0  0
   54.7160   23.7220   45.4640 C   0  0  0  0  0  0  0  0  0  0  0  0
   56.2410   23.5700   46.1620 S   0  0  0  0  0  0  0  0  0  0  0  0
   59.6860   26.4350   47.3930 N   0  0  0  0  0  0  0  0  0  0  0  0
   59.5100   27.8550   47.5080 C   0  0  0  0  0  0  0  0  0  0  0  0
   58.8850   28.5430   46.4600 C   0  0  0  0  0  0  0  0  0  0  0  0
   58.7160   29.9280   46.5250 C   0  0  0  0  0  0  0  0  0  0  0  0
   59.1970   30.6480   47.6280 C   0  0  0  0  0  0  0  0  0  0  0  0
   58.9840   32.4000   47.7060 S   0  0  0  0  0  0  0  0  0  0  0  0
   57.5140   32.7090   47.7200 O   0  0  0  0  0  0  0  0  0  0  0  0
   59.5660   32.9070   48.9960 O   0  0  0  0  0  0  0  0  0  0  0  0
   59.7470   33.2280   46.3650 N   0  0  0  0  0  0  0  0  0  0  0  0
   60.7040   34.2450   46.8340 C   0  0  0  0  0  0  0  0  0  0  0  0
   61.8510   33.5970   47.5630 C   0  0  0  0  0  0  0  0  0  0  0  0
   62.3930   34.2100   48.7060 C   0  0  0  0  0  0  0  0  0  0  0  0
   63.4550   33.6110   49.3890 C   0  0  0  0  0  0  0  0  0  0  0  0
   63.9760   32.3930   48.9450 C   0  0  0  0  0  0  0  0  0  0  0  0
   63.4330   31.7700   47.8180 C   0  0  0  0  0  0  0  0  0  0  0  0
   62.3720   32.3650   47.1310 C   0  0  0  0  0  0  0  0  0  0  0  0
   58.5360   33.9800   45.3590 S   0  0  0  0  0  0  0  0  0  0  0  0
   57.4410   34.5760   46.2010 O   0  0  0  0  0  0  0  0  0  0  0  0
   59.1570   35.0640   44.5230 O   0  0  0  0  0  0  0  0  0  0  0  0
   57.8270   32.7470   44.3200 C   0  0  0  0  0  0  0  0  0  0  0  0
   58.1200   32.7060   42.9480 C   0  0  0  0  0  0  0  0  0  0  0  0
   57.5750   31.6970   42.1460 C   0  0  0  0  0  0  0  0  0  0  0  0
   56.7400   30.7270   42.7090 C   0  0  0  0  0  0  0  0  0  0  0  0
   56.4480   30.7650   44.0750 C   0  0  0  0  0  0  0  0  0  0  0  0
   56.9920   31.7710   44.8810 C   0  0  0  0  0  0  0  0  0  0  0  0
   59.8380   29.9660   48.6700 C   0  0  0  0  0  0  0  0  0  0  0  0
   60.0050   28.5790   48.6070 C   0  0  0  0  0  0  0  0  0  0  0  0
   53.3317   25.4012   45.2355 H   0  0  0  0  0  0  0  0  0  0  0  0
   54.1459   22.9168   44.9776 H   0  0  0  0  0  0  0  0  0  0  0  0
   58.5251   27.9891   45.5804 H   0  0  0  0  0  0  0  0  0  0  0  0
   58.2034   30.4562   45.7075 H   0  0  0  0  0  0  0  0  0  0  0  0
   61.0936   34.8011   45.9686 H   0  0  0  0  0  0  0  0  0  0  0  0
   60.1862   34.9281   47.5234 H   0  0  0  0  0  0  0  0  0  0  0  0
   61.9798   35.1645   49.0641 H   0  0  0  0  0  0  0  0  0  0  0  0
   63.8814   34.0993   50.2777 H   0  0  0  0  0  0  0  0  0  0  0  0
   64.8136   31.9244   49.4825 H   0  0  0  0  0  0  0  0  0  0  0  0
   63.8417   30.8094   47.4713 H   0  0  0  0  0  0  0  0  0  0  0  0
   61.9427   31.8676   46.2488 H   0  0  0  0  0  0  0  0  0  0  0  0
   58.7780   33.4670   42.5031 H   0  0  0  0  0  0  0  0  0  0  0  0
   57.8040   31.6669   41.0705 H   0  0  0  0  0  0  0  0  0  0  0  0
   56.3132   29.9344   42.0769 H   0  0  0  0  0  0  0  0  0  0  0  0
   55.7895   30.0029   44.5173 H   0  0  0  0  0  0  0  0  0  0  0  0
   56.7640   31.7960   45.9568 H   0  0  0  0  0  0  0  0  0  0  0  0
   60.2116   30.5237   49.5415 H   0  0  0  0  0  0  0  0  0  0  0  0
   60.5256   28.0524   49.4204 H   0  0  0  0  0  0  0  0  0  0  0  0
  1  2  2  0
  2  3  1  0
  3  4  2  3
  4  5  1  0
  5  6  1  0
  6  7  2  0
  7  8  1  0
  2  9  1  0
  9 10  1  0
 10 11  2  0
 11 12  1  0
 12 13  2  0
 13 14  1  0
 14 15  2  0
 14 16  2  0
 14 17  1  0
 17 18  1  0
 18 19  1  0
 19 20  2  0
 20 21  1  0
 21 22  2  0
 22 23  1  0
 23 24  2  0
 17 25  1  0
 25 26  2  0
 25 27  2  0
 25 28  1  0
 28 29  2  0
 29 30  1  0
 30 31  2  0
 31 32  1  0
 32 33  2  0
 13 34  1  0
 34 35  2  0
  8  4  1  0
 35 10  1  0
 24 19  1  0
 33 28  1  0
  6 36  1  0
  7 37  1  0
 11 38  1  0
 12 39  1  0
 18 40  1  0
 18 41  1  0
 20 42  1  0
 21 43  1  0
 22 44  1  0
 23 45  1  0
 24 46  1  0
 29 47  1  0
 30 48  1  0
 31 49  1  0
 32 50  1  0
 33 51  1  0
 34 52  1  0
 35 53  1  0
M  CHG  2   5  -1   9  -1
M  END
>  <UniqueID>  (43) 
42

>  <SMILES>  (43) 
O=C(N=c1[n-]ccs1)[N-]c1ccc(S(=O)(=O)N(Cc2ccccc2)S(=O)(=O)c2ccccc2)cc1

>  <Energy>  (43) 
90.46007979127869

>  <Genealogy>  (43) 
O=C(N=c1[n-]ccs1)[N-]c1ccc(S(=O)(=O)N(Cc2ccccc2)S(=O)(=O)c2ccccc2)cc1 (protonated)
O=C(N=c1[n-]ccs1)[N-]c1ccc(S(=O)(=O)N(Cc2ccccc2)S(=O)(=O)c2ccccc2)cc1 (3D coordinates assigned)
O=C(N=c1[n-]ccs1)[N-]c1ccc(S(=O)(=O)N(Cc2ccccc2)S(=O)(=O)c2ccccc2)cc1 (optimized conformer: 90.46007979127869 kcal/mol)

>  <smiles>  (43) 
O=C(N=c1[nH]ccs1)Nc1ccc(S(=O)(=O)N(Cc2ccccc2)S(=O)(=O)c2ccccc2)cc1

>  <score_type>  (43) 
oracle

>  <origin>  (43) 
adg

>  <m_score__min__energy>  (43) 
-12.77

>  <m_primary>  (43) 
energy

$$$$
43:0
     RDKit          3D

 42 44  0  0  0  0  0  0  0  0999 V2000
   57.7237   19.8796   45.4114 H   0  0  0  0  0  0  0  0  0  0  0  0
   57.3000   20.7420   44.8760 C   0  0  0  0  0  0  0  0  0  0  0  0
   55.7750   21.4070   45.1290 S   0  0  0  0  0  0  0  0  0  0  0  0
   55.9030   22.6060   43.9570 C   0  0  0  0  0  0  0  0  0  0  0  0
   54.8800   23.6610   43.6860 C   0  0  0  0  0  0  0  0  0  0  0  0
   54.2666   23.3611   42.8236 H   0  0  0  0  0  0  0  0  0  0  0  0
   55.3891   24.6114   43.4680 H   0  0  0  0  0  0  0  0  0  0  0  0
   54.0010   23.8370   44.8820 C   0  0  0  0  0  0  0  0  0  0  0  0
   52.8390   23.3460   44.8770 O   0  0  0  0  0  0  0  0  0  0  0  0
   54.4790   24.6060   45.9960 N   0  0  0  0  0  0  0  0  0  0  0  0
   55.5410   25.3550   46.0120 C   0  0  0  0  0  0  0  0  0  0  0  0
   55.5270   26.7040   45.9270 N   0  0  0  0  0  0  0  0  0  0  0  0
   56.7480   27.2360   45.9530 N   0  0  0  0  0  0  0  0  0  0  0  0
   57.7270   26.3110   46.0550 C   0  0  0  0  0  0  0  0  0  0  0  0
   59.4710   26.7110   46.1110 S   0  0  0  0  0  0  0  0  0  0  0  0
   59.3620   27.7210   47.6320 C   0  0  0  0  0  0  0  0  0  0  0  0
   60.2160   27.4810   48.2825 H   0  0  0  0  0  0  0  0  0  0  0  0
   58.4108   27.4888   48.1333 H   0  0  0  0  0  0  0  0  0  0  0  0
   59.3840   29.1880   47.3200 C   0  0  0  0  0  0  0  0  0  0  0  0
   60.0840   29.9570   48.0320 O   0  0  0  0  0  0  0  0  0  0  0  0
   58.5790   29.7100   46.2540 N   0  0  0  0  0  0  0  0  0  0  0  0
   57.9220   29.0580   45.7690 H   0  0  0  0  0  0  0  0  0  0  0  0
   58.4720   31.1150   45.9660 C   0  0  0  0  0  0  0  0  0  0  0  0
   59.4660   32.0090   46.3990 C   0  0  0  0  0  0  0  0  0  0  0  0
   60.3263   31.6346   46.9732 H   0  0  0  0  0  0  0  0  0  0  0  0
   59.3670   33.3700   46.1040 C   0  0  0  0  0  0  0  0  0  0  0  0
   60.1451   34.0654   46.4518 H   0  0  0  0  0  0  0  0  0  0  0  0
   58.2830   33.8490   45.3690 C   0  0  0  0  0  0  0  0  0  0  0  0
   58.2060   34.9223   45.1408 H   0  0  0  0  0  0  0  0  0  0  0  0
   57.2950   32.9690   44.9220 C   0  0  0  0  0  0  0  0  0  0  0  0
   56.4444   33.3519   44.3390 H   0  0  0  0  0  0  0  0  0  0  0  0
   57.3820   31.5930   45.2140 C   0  0  0  0  0  0  0  0  0  0  0  0
   56.4030   30.6790   44.7900 O   0  0  0  0  0  0  0  0  0  0  0  0
   56.5440   29.8060   43.6750 C   0  0  0  0  0  0  0  0  0  0  0  0
   56.7099   28.7789   44.0322 H   0  0  0  0  0  0  0  0  0  0  0  0
   55.6289   29.8389   43.0655 H   0  0  0  0  0  0  0  0  0  0  0  0
   57.4022   30.1254   43.0655 H   0  0  0  0  0  0  0  0  0  0  0  0
   57.1040   24.7460   46.1290 S   0  0  0  0  0  0  0  0  0  0  0  0
   57.1570   22.5160   43.3650 C   0  0  0  0  0  0  0  0  0  0  0  0
   57.5048   23.1986   42.5757 H   0  0  0  0  0  0  0  0  0  0  0  0
   57.9320   21.4690   43.8750 C   0  0  0  0  0  0  0  0  0  0  0  0
   58.9471   21.2425   43.5169 H   0  0  0  0  0  0  0  0  0  0  0  0
  1  2  1  0
  2  3  1  0
  3  4  1  0
  4  5  1  0
  5  6  1  0
  5  7  1  0
  5  8  1  0
  8  9  2  0
  8 10  1  0
 10 11  2  0
 11 12  1  0
 12 13  1  0
 13 14  2  0
 14 15  1  0
 15 16  1  0
 16 17  1  0
 16 18  1  0
 16 19  1  0
 19 20  2  0
 19 21  1  0
 21 22  1  0
 21 23  1  0
 23 24  2  0
 24 25  1  0
 24 26  1  0
 26 27  1  0
 26 28  2  0
 28 29  1  0
 28 30  1  0
 30 31  1  0
 30 32  2  0
 32 33  1  0
 33 34  1  0
 34 35  1  0
 34 36  1  0
 34 37  1  0
 14 38  1  0
  4 39  2  0
 39 40  1  0
 39 41  1  0
 41 42  1  0
 41  2  2  0
 38 11  1  0
 32 23  1  0
M  CHG  1  12  -1
M  END
>  <UniqueID>  (44) 
43

>  <SMILES>  (44) 
COc1ccccc1NC(=O)CSc1n[n-]/c(=N\C(=O)Cc2cccs2)s1

>  <Energy>  (44) 
101.61368399476385

>  <Genealogy>  (44) 
COc1ccccc1NC(=O)CSc1n[n-]c(=NC(=O)Cc2cccs2)s1 (protonated)
COc1ccccc1NC(=O)CSc1n[n-]/c(=N\C(=O)Cc2cccs2)s1 (cis-trans isomerization)
COc1ccccc1NC(=O)CSc1n[n-]/c(=N\C(=O)Cc2cccs2)s1 (3D coordinates assigned)
COc1ccccc1NC(=O)CSc1n[n-]/c(=N\C(=O)Cc2cccs2)s1 (optimized conformer: 101.61368399476385 kcal/mol)

>  <smiles>  (44) 
COc1ccccc1NC(=O)CSc1n[nH]c(=NC(=O)Cc2cccs2)s1

>  <score_type>  (44) 
oracle

>  <origin>  (44) 
adg

>  <m_score__min__energy>  (44) 
-10.19

>  <m_primary>  (44) 
energy

$$$$
44:0
     RDKit          3D

 53 56  0  0  0  0  0  0  0  0999 V2000
   56.3720   29.4400   43.0090 O   0  0  0  0  0  0  0  0  0  0  0  0
   56.5700   29.7150   44.2230 C   0  0  0  0  0  0  0  0  0  0  0  0
   56.0610   28.8510   45.2510 N   0  0  0  0  0  0  0  0  0  0  0  0
   56.6410   27.6170   45.6980 C   0  0  0  0  0  0  0  0  0  0  0  0
   55.8630   26.4750   45.9560 C   0  0  0  0  0  0  0  0  0  0  0  0
   56.4750   25.2800   46.3450 C   0  0  0  0  0  0  0  0  0  0  0  0
   57.8660   25.2070   46.4690 C   0  0  0  0  0  0  0  0  0  0  0  0
   58.4590   24.0020   46.8340 O   0  0  0  0  0  0  0  0  0  0  0  0
   58.6500   26.3410   46.2100 C   0  0  0  0  0  0  0  0  0  0  0  0
   60.4390   26.2700   46.3550 S   0  0  0  0  0  0  0  0  0  0  0  0
   60.5140   27.6860   47.4570 C   0  0  0  0  0  0  0  0  0  0  0  0
   60.7810   28.9550   46.9300 C   0  0  0  0  0  0  0  0  0  0  0  0
   60.8420   30.0770   47.7640 C   0  0  0  0  0  0  0  0  0  0  0  0
   61.1120   31.3570   47.1760 N   0  0  0  0  0  0  0  0  0  0  0  0
   62.6350   32.1840   47.2450 S   0  0  0  0  0  0  0  0  0  0  0  0
   63.7200   31.2970   46.7050 O   0  0  0  0  0  0  0  0  0  0  0  0
   62.5680   33.4530   46.4400 O   0  0  0  0  0  0  0  0  0  0  0  0
   63.0000   32.5970   48.9410 C   0  0  0  0  0  0  0  0  0  0  0  0
   61.7470   33.0240   49.6580 C   0  0  0  0  0  0  0  0  0  0  0  0
   60.7880   33.8160   49.0030 C   0  0  0  0  0  0  0  0  0  0  0  0
   59.6350   34.2250   49.6770 C   0  0  0  0  0  0  0  0  0  0  0  0
   59.4340   33.8540   51.0100 C   0  0  0  0  0  0  0  0  0  0  0  0
   60.3860   33.0750   51.6710 C   0  0  0  0  0  0  0  0  0  0  0  0
   61.5390   32.6590   51.0000 C   0  0  0  0  0  0  0  0  0  0  0  0
   60.6270   29.9200   49.1450 C   0  0  0  0  0  0  0  0  0  0  0  0
   60.3750   28.6510   49.6760 C   0  0  0  0  0  0  0  0  0  0  0  0
   60.3280   27.5330   48.8390 C   0  0  0  0  0  0  0  0  0  0  0  0
   60.1130   26.2750   49.3880 O   0  0  0  0  0  0  0  0  0  0  0  0
   58.0360   27.5340   45.8100 C   0  0  0  0  0  0  0  0  0  0  0  0
   57.2930   30.9560   44.5900 C   0  0  0  0  0  0  0  0  0  0  0  0
   57.4790   31.9830   43.6460 C   0  0  0  0  0  0  0  0  0  0  0  0
   58.1700   33.1480   43.9920 C   0  0  0  0  0  0  0  0  0  0  0  0
   58.6870   33.3000   45.2810 C   0  0  0  0  0  0  0  0  0  0  0  0
   58.5130   32.2870   46.2250 C   0  0  0  0  0  0  0  0  0  0  0  0
   57.8220   31.1190   45.8850 C   0  0  0  0  0  0  0  0  0  0  0  0
   54.7690   26.5219   45.8514 H   0  0  0  0  0  0  0  0  0  0  0  0
   55.8595   24.3928   46.5546 H   0  0  0  0  0  0  0  0  0  0  0  0
   60.9446   29.0715   45.8485 H   0  0  0  0  0  0  0  0  0  0  0  0
   63.4241   31.7162   49.4454 H   0  0  0  0  0  0  0  0  0  0  0  0
   63.7220   33.4267   48.9590 H   0  0  0  0  0  0  0  0  0  0  0  0
   60.9461   34.1147   47.9562 H   0  0  0  0  0  0  0  0  0  0  0  0
   58.8843   34.8396   49.1586 H   0  0  0  0  0  0  0  0  0  0  0  0
   58.5248   34.1762   51.5387 H   0  0  0  0  0  0  0  0  0  0  0  0
   60.2281   32.7885   52.7212 H   0  0  0  0  0  0  0  0  0  0  0  0
   62.2862   32.0442   51.5232 H   0  0  0  0  0  0  0  0  0  0  0  0
   60.6571   30.7968   49.8086 H   0  0  0  0  0  0  0  0  0  0  0  0
   60.2130   28.5324   50.7575 H   0  0  0  0  0  0  0  0  0  0  0  0
   58.6541   28.4147   45.5814 H   0  0  0  0  0  0  0  0  0  0  0  0
   57.0777   31.8682   42.6283 H   0  0  0  0  0  0  0  0  0  0  0  0
   58.3069   33.9465   43.2479 H   0  0  0  0  0  0  0  0  0  0  0  0
   59.2307   34.2172   45.5515 H   0  0  0  0  0  0  0  0  0  0  0  0
   58.9205   32.4073   47.2396 H   0  0  0  0  0  0  0  0  0  0  0  0
   57.6911   30.3235   46.6334 H   0  0  0  0  0  0  0  0  0  0  0  0
  1  2  2  0
  2  3  1  0
  3  4  1  0
  4  5  2  0
  5  6  1  0
  6  7  2  0
  7  8  1  0
  7  9  1  0
  9 10  1  0
 10 11  1  0
 11 12  2  0
 12 13  1  0
 13 14  1  0
 14 15  1  0
 15 16  2  0
 15 17  2  0
 15 18  1  0
 18 19  1  0
 19 20  2  0
 20 21  1  0
 21 22  2  0
 22 23  1  0
 23 24  2  0
 13 25  2  0
 25 26  1  0
 26 27  2  0
 27 28  1  0
  9 29  2  0
  2 30  1  0
 30 31  2  0
 31 32  1  0
 32 33  2  0
 33 34  1  0
 34 35  2  0
 29  4  1  0
 35 30  1  0
 27 11  1  0
 24 19  1  0
  5 36  1  0
  6 37  1  0
 12 38  1  0
 18 39  1  0
 18 40  1  0
 20 41  1  0
 21 42  1  0
 22 43  1  0
 23 44  1  0
 24 45  1  0
 25 46  1  0
 26 47  1  0
 29 48  1  0
 31 49  1  0
 32 50  1  0
 33 51  1  0
 34 52  1  0
 35 53  1  0
M  CHG  4   3  -1   8  -1  14  -1  28  -1
M  END
>  <UniqueID>  (45) 
44

>  <SMILES>  (45) 
O=C([N-]c1ccc([O-])c(Sc2cc([N-]S(=O)(=O)Cc3ccccc3)ccc2[O-])c1)c1ccccc1

>  <Energy>  (45) 
57.50000864190591

>  <Genealogy>  (45) 
O=C([N-]c1ccc([O-])c(Sc2cc([N-]S(=O)(=O)Cc3ccccc3)ccc2[O-])c1)c1ccccc1 (protonated)
O=C([N-]c1ccc([O-])c(Sc2cc([N-]S(=O)(=O)Cc3ccccc3)ccc2[O-])c1)c1ccccc1 (3D coordinates assigned)
O=C([N-]c1ccc([O-])c(Sc2cc([N-]S(=O)(=O)Cc3ccccc3)ccc2[O-])c1)c1ccccc1 (optimized conformer: 57.50000864190591 kcal/mol)

>  <smiles>  (45) 
O=C(Nc1ccc(O)c(Sc2cc(NS(=O)(=O)Cc3ccccc3)ccc2O)c1)c1ccccc1

>  <score_type>  (45) 
oracle

>  <origin>  (45) 
adg

>  <m_score__min__energy>  (45) 
-15.69

>  <m_primary>  (45) 
energy

$$$$
45:0
     RDKit          3D

 28 29  0  0  0  0  0  0  0  0999 V2000
   53.9173   24.5674   46.2111 H   0  0  0  0  0  0  0  0  0  0  0  0
   54.7690   24.2780   45.5780 C   0  0  0  0  0  0  0  0  0  0  0  0
   54.8160   22.9960   45.0230 C   0  0  0  0  0  0  0  0  0  0  0  0
   53.9930   22.2901   45.2088 H   0  0  0  0  0  0  0  0  0  0  0  0
   55.9020   22.6040   44.2330 C   0  0  0  0  0  0  0  0  0  0  0  0
   55.9030   21.3080   43.6960 O   0  0  0  0  0  0  0  0  0  0  0  0
   56.9980   20.7300   42.9920 C   0  0  0  0  0  0  0  0  0  0  0  0
   57.7332   20.3419   43.7123 H   0  0  0  0  0  0  0  0  0  0  0  0
   56.6340   19.9066   42.3600 H   0  0  0  0  0  0  0  0  0  0  0  0
   57.4725   21.4951   42.3600 H   0  0  0  0  0  0  0  0  0  0  0  0
   56.9530   23.5140   44.0110 C   0  0  0  0  0  0  0  0  0  0  0  0
   57.8163   23.2148   43.3985 H   0  0  0  0  0  0  0  0  0  0  0  0
   56.9040   24.7970   44.5660 C   0  0  0  0  0  0  0  0  0  0  0  0
   57.7360   25.4972   44.4002 H   0  0  0  0  0  0  0  0  0  0  0  0
   55.7960   25.1960   45.3350 C   0  0  0  0  0  0  0  0  0  0  0  0
   55.7220   26.4930   45.9510 N   0  0  0  0  0  0  0  0  0  0  0  0
   56.4270   27.5440   45.6490 C   0  0  0  0  0  0  0  0  0  0  0  0
   57.7880   27.5250   45.7120 N   0  0  0  0  0  0  0  0  0  0  0  0
   58.5270   28.6160   45.3750 C   0  0  0  0  0  0  0  0  0  0  0  0
   60.0190   28.5560   45.4500 C   0  0  0  0  0  0  0  0  0  0  0  0
   60.3329   28.5434   46.5042 H   0  0  0  0  0  0  0  0  0  0  0  0
   60.3748   27.6428   44.9505 H   0  0  0  0  0  0  0  0  0  0  0  0
   60.4470   29.4377   44.9505 H   0  0  0  0  0  0  0  0  0  0  0  0
   57.8830   29.7780   44.9380 C   0  0  0  0  0  0  0  0  0  0  0  0
   58.4611   30.6704   44.6563 H   0  0  0  0  0  0  0  0  0  0  0  0
   56.4890   29.7780   44.8680 C   0  0  0  0  0  0  0  0  0  0  0  0
   55.8760   30.8050   44.4780 O   0  0  0  0  0  0  0  0  0  0  0  0
   55.7920   28.6660   45.2210 N   0  0  0  0  0  0  0  0  0  0  0  0
  1  2  1  0
  2  3  2  0
  3  4  1  0
  3  5  1  0
  5  6  1  0
  6  7  1  0
  7  8  1  0
  7  9  1  0
  7 10  1  0
  5 11  2  0
 11 12  1  0
 11 13  1  0
 13 14  1  0
 13 15  2  0
 15 16  1  0
 16 17  2  0
 17 18  1  0
 18 19  1  0
 19 20  1  0
 20 21  1  0
 20 22  1  0
 20 23  1  0
 19 24  2  0
 24 25  1  0
 24 26  1  0
 26 27  2  0
 26 28  1  0
 15  2  1  0
 28 17  1  0
M  CHG  2  18  -1  28  -1
M  END
>  <UniqueID>  (46) 
45

>  <SMILES>  (46) 
COc1ccc(/N=c2\[n-]c(C)cc(=O)[n-]2)cc1

>  <Energy>  (46) 
33.830019109136614

>  <Genealogy>  (46) 
COc1ccc(N=c2[n-]c(C)cc(=O)[n-]2)cc1 (protonated)
COc1ccc(/N=c2\[n-]c(C)cc(=O)[n-]2)cc1 (cis-trans isomerization)
COc1ccc(/N=c2\[n-]c(C)cc(=O)[n-]2)cc1 (3D coordinates assigned)
COc1ccc(/N=c2\[n-]c(C)cc(=O)[n-]2)cc1 (optimized conformer: 33.830019109136614 kcal/mol)

>  <smiles>  (46) 
COc1ccc(N=c2[nH]c(C)cc(=O)[nH]2)cc1

>  <score_type>  (46) 
oracle

>  <origin>  (46) 
adg

>  <m_score__min__energy>  (46) 
-9.8200000000000003

>  <m_primary>  (46) 
energy

$$$$
46:0
     RDKit          3D

 51 54  0  0  0  0  0  0  0  0999 V2000
   57.0460   22.9040   48.5060 O   0  0  0  0  0  0  0  0  0  0  0  0
   56.2950   23.3910   47.6190 C   0  0  0  0  0  0  0  0  0  0  0  0
   55.4190   22.4860   46.8090 C   0  0  0  0  0  0  0  0  0  0  0  0
   55.8620   22.4670   45.3690 C   0  0  0  0  0  0  0  0  0  0  0  0
   56.8020   21.5180   44.9300 C   0  0  0  0  0  0  0  0  0  0  0  0
   57.1880   21.4800   43.5840 C   0  0  0  0  0  0  0  0  0  0  0  0
   56.6380   22.3820   42.6700 C   0  0  0  0  0  0  0  0  0  0  0  0
   55.6960   23.3240   43.0990 C   0  0  0  0  0  0  0  0  0  0  0  0
   55.3060   23.3670   44.4420 C   0  0  0  0  0  0  0  0  0  0  0  0
   56.2180   24.8080   47.4180 N   0  0  0  0  0  0  0  0  0  0  0  0
   57.1360   25.6060   46.6600 C   0  0  0  0  0  0  0  0  0  0  0  0
   58.4920   25.2590   46.5260 C   0  0  0  0  0  0  0  0  0  0  0  0
   59.3450   26.0440   45.7450 C   0  0  0  0  0  0  0  0  0  0  0  0
   58.8560   27.1740   45.0880 C   0  0  0  0  0  0  0  0  0  0  0  0
   57.5090   27.5410   45.2200 C   0  0  0  0  0  0  0  0  0  0  0  0
   57.0210   28.7060   44.5320 N   0  0  0  0  0  0  0  0  0  0  0  0
   57.5270   30.0380   44.7450 C   0  0  0  0  0  0  0  0  0  0  0  0
   57.6550   30.9460   43.6800 C   0  0  0  0  0  0  0  0  0  0  0  0
   58.1450   32.2340   43.9060 C   0  0  0  0  0  0  0  0  0  0  0  0
   58.5140   32.6360   45.2020 C   0  0  0  0  0  0  0  0  0  0  0  0
   59.0120   33.9580   45.4540 N   0  0  0  0  0  0  0  0  0  0  0  0
   59.8560   34.3380   46.5490 C   0  0  0  0  0  0  0  0  0  0  0  0
   59.4720   35.2530   47.3240 O   0  0  0  0  0  0  0  0  0  0  0  0
   61.1320   33.6520   46.8270 C   0  0  0  0  0  0  0  0  0  0  0  0
   62.3880   34.0370   46.3950 C   0  0  0  0  0  0  0  0  0  0  0  0
   63.2580   33.0860   46.8850 C   0  0  0  0  0  0  0  0  0  0  0  0
   62.4820   32.1810   47.5810 C   0  0  0  0  0  0  0  0  0  0  0  0
   61.2210   32.5420   47.5230 O   0  0  0  0  0  0  0  0  0  0  0  0
   58.3350   31.7530   46.2750 C   0  0  0  0  0  0  0  0  0  0  0  0
   58.6570   32.1610   47.5690 O   0  0  0  0  0  0  0  0  0  0  0  0
   57.8420   30.4590   46.0440 C   0  0  0  0  0  0  0  0  0  0  0  0
   56.6490   26.7330   45.9850 C   0  0  0  0  0  0  0  0  0  0  0  0
   55.4762   21.4665   47.2181 H   0  0  0  0  0  0  0  0  0  0  0  0
   54.3850   22.8581   46.8566 H   0  0  0  0  0  0  0  0  0  0  0  0
   57.2354   20.8036   45.6454 H   0  0  0  0  0  0  0  0  0  0  0  0
   57.9262   20.7379   43.2458 H   0  0  0  0  0  0  0  0  0  0  0  0
   56.9450   22.3519   41.6141 H   0  0  0  0  0  0  0  0  0  0  0  0
   55.2611   24.0324   42.3785 H   0  0  0  0  0  0  0  0  0  0  0  0
   54.5625   24.1067   44.7738 H   0  0  0  0  0  0  0  0  0  0  0  0
   58.8828   24.3669   47.0374 H   0  0  0  0  0  0  0  0  0  0  0  0
   60.4059   25.7700   45.6478 H   0  0  0  0  0  0  0  0  0  0  0  0
   59.5300   27.7793   44.4640 H   0  0  0  0  0  0  0  0  0  0  0  0
   56.2600   28.5770   43.8260 H   0  0  0  0  0  0  0  0  0  0  0  0
   57.3677   30.6405   42.6631 H   0  0  0  0  0  0  0  0  0  0  0  0
   58.2428   32.9376   43.0661 H   0  0  0  0  0  0  0  0  0  0  0  0
   62.6405   34.9183   45.7871 H   0  0  0  0  0  0  0  0  0  0  0  0
   64.3491   33.0548   46.7489 H   0  0  0  0  0  0  0  0  0  0  0  0
   62.8626   31.2918   48.1050 H   0  0  0  0  0  0  0  0  0  0  0  0
   59.0880   33.0590   47.7500 H   0  0  0  0  0  0  0  0  0  0  0  0
   57.7018   29.7698   46.8897 H   0  0  0  0  0  0  0  0  0  0  0  0
   55.5814   26.9888   46.0542 H   0  0  0  0  0  0  0  0  0  0  0  0
  1  2  2  0
  2  3  1  0
  3  4  1  0
  4  5  2  0
  5  6  1  0
  6  7  2  0
  7  8  1  0
  8  9  2  0
  2 10  1  0
 10 11  1  0
 11 12  2  0
 12 13  1  0
 13 14  2  0
 14 15  1  0
 15 16  1  0
 16 17  1  0
 17 18  2  0
 18 19  1  0
 19 20  2  0
 20 21  1  0
 21 22  1  0
 22 23  2  0
 22 24  1  0
 24 25  2  0
 25 26  1  0
 26 27  2  0
 27 28  1  0
 20 29  1  0
 29 30  1  0
 29 31  2  0
 15 32  2  0
  9  4  1  0
 32 11  1  0
 31 17  1  0
 28 24  1  0
  3 33  1  0
  3 34  1  0
  5 35  1  0
  6 36  1  0
  7 37  1  0
  8 38  1  0
  9 39  1  0
 12 40  1  0
 13 41  1  0
 14 42  1  0
 16 43  1  0
 18 44  1  0
 19 45  1  0
 25 46  1  0
 26 47  1  0
 27 48  1  0
 30 49  1  0
 31 50  1  0
 32 51  1  0
M  CHG  2  10  -1  21  -1
M  END
>  <UniqueID>  (47) 
46

>  <SMILES>  (47) 
O=C(Cc1ccccc1)[N-]c1cccc(Nc2ccc([N-]C(=O)c3ccco3)c(O)c2)c1

>  <Energy>  (47) 
93.57307586547287

>  <Genealogy>  (47) 
O=C(Cc1ccccc1)[N-]c1cccc(Nc2ccc([N-]C(=O)c3ccco3)c(O)c2)c1 (protonated)
O=C(Cc1ccccc1)[N-]c1cccc(Nc2ccc([N-]C(=O)c3ccco3)c(O)c2)c1 (3D coordinates assigned)
O=C(Cc1ccccc1)[N-]c1cccc(Nc2ccc([N-]C(=O)c3ccco3)c(O)c2)c1 (optimized conformer: 93.57307586547287 kcal/mol)

>  <smiles>  (47) 
O=C(Cc1ccccc1)Nc1cccc(Nc2ccc(NC(=O)c3ccco3)c(O)c2)c1

>  <score_type>  (47) 
oracle

>  <origin>  (47) 
adg

>  <m_score__min__energy>  (47) 
-12.65

>  <m_primary>  (47) 
energy

$$$$
47:0
     RDKit          3D

 51 53  0  0  0  0  0  0  0  0999 V2000
   60.5541   30.1535   49.9565 H   0  0  0  0  0  0  0  0  0  0  0  0
   60.3970   29.7150   48.9600 C   0  0  0  0  0  0  0  0  0  0  0  0
   59.6450   28.5910   48.8270 N   0  0  0  0  0  0  0  0  0  0  0  0
   59.4230   28.0050   47.6160 C   0  0  0  0  0  0  0  0  0  0  0  0
   58.7030   26.9250   47.5080 N   0  0  0  0  0  0  0  0  0  0  0  0
   58.3690   26.2270   46.2960 C   0  0  0  0  0  0  0  0  0  0  0  0
   58.8930   25.1150   46.0150 O   0  0  0  0  0  0  0  0  0  0  0  0
   57.3400   26.8070   45.3780 C   0  0  0  0  0  0  0  0  0  0  0  0
   56.4271   26.1950   45.4246 H   0  0  0  0  0  0  0  0  0  0  0  0
   57.7402   26.8133   44.3534 H   0  0  0  0  0  0  0  0  0  0  0  0
   57.0050   28.2440   45.7880 C   0  0  0  0  0  0  0  0  0  0  0  0
   57.9212   28.8520   45.7576 H   0  0  0  0  0  0  0  0  0  0  0  0
   56.5890   28.2356   46.8063 H   0  0  0  0  0  0  0  0  0  0  0  0
   56.0170   28.8180   44.8790 N   0  0  0  0  0  0  0  0  0  0  0  0
   56.3540   29.5190   43.6740 C   0  0  0  0  0  0  0  0  0  0  0  0
   56.0200   29.0370   42.5570 O   0  0  0  0  0  0  0  0  0  0  0  0
   57.0860   30.8060   43.7390 C   0  0  0  0  0  0  0  0  0  0  0  0
   57.4220   31.4980   42.5620 C   0  0  0  0  0  0  0  0  0  0  0  0
   57.1363   31.0840   41.5837 H   0  0  0  0  0  0  0  0  0  0  0  0
   58.1170   32.7090   42.6280 C   0  0  0  0  0  0  0  0  0  0  0  0
   58.3804   33.2408   41.7018 H   0  0  0  0  0  0  0  0  0  0  0  0
   58.4780   33.2460   43.8650 C   0  0  0  0  0  0  0  0  0  0  0  0
   59.0222   34.2009   43.9112 H   0  0  0  0  0  0  0  0  0  0  0  0
   58.1490   32.5720   45.0460 C   0  0  0  0  0  0  0  0  0  0  0  0
   58.6070   33.2360   46.6140 S   0  0  0  0  0  0  0  0  0  0  0  0
   58.6950   32.1170   47.6150 O   0  0  0  0  0  0  0  0  0  0  0  0
   57.5630   34.2120   47.0870 O   0  0  0  0  0  0  0  0  0  0  0  0
   60.1500   34.0270   46.5070 N   0  0  0  0  0  0  0  0  0  0  0  0
   60.7150   33.5010   45.8020 H   0  0  0  0  0  0  0  0  0  0  0  0
   59.9740   35.3900   46.0090 C   0  0  0  0  0  0  0  0  0  0  0  0
   59.8846   36.0823   46.8591 H   0  0  0  0  0  0  0  0  0  0  0  0
   60.8432   35.6717   45.3966 H   0  0  0  0  0  0  0  0  0  0  0  0
   59.0617   35.4417   45.3966 H   0  0  0  0  0  0  0  0  0  0  0  0
   57.4600   31.3530   44.9810 C   0  0  0  0  0  0  0  0  0  0  0  0
   57.2092   30.8188   45.9093 H   0  0  0  0  0  0  0  0  0  0  0  0
   59.9840   28.5710   46.4690 C   0  0  0  0  0  0  0  0  0  0  0  0
   59.8191   28.1058   45.4859 H   0  0  0  0  0  0  0  0  0  0  0  0
   60.7550   29.7300   46.5760 C   0  0  0  0  0  0  0  0  0  0  0  0
   61.1918   30.1827   45.6736 H   0  0  0  0  0  0  0  0  0  0  0  0
   60.9750   30.3200   47.8310 C   0  0  0  0  0  0  0  0  0  0  0  0
   61.7990   31.5490   47.9620 C   0  0  0  0  0  0  0  0  0  0  0  0
   62.9460   31.7310   47.1630 C   0  0  0  0  0  0  0  0  0  0  0  0
   63.2354   30.9564   46.4375 H   0  0  0  0  0  0  0  0  0  0  0  0
   63.7180   32.8900   47.2870 C   0  0  0  0  0  0  0  0  0  0  0  0
   64.6106   33.0243   46.6583 H   0  0  0  0  0  0  0  0  0  0  0  0
   63.3590   33.8780   48.2070 C   0  0  0  0  0  0  0  0  0  0  0  0
   63.9705   34.7871   48.3047 H   0  0  0  0  0  0  0  0  0  0  0  0
   62.2230   33.7110   49.0030 C   0  0  0  0  0  0  0  0  0  0  0  0
   61.9391   34.4906   49.7252 H   0  0  0  0  0  0  0  0  0  0  0  0
   61.4460   32.5540   48.8830 C   0  0  0  0  0  0  0  0  0  0  0  0
   60.5528   32.4284   49.5126 H   0  0  0  0  0  0  0  0  0  0  0  0
  1  2  1  0
  2  3  1  0
  3  4  1  0
  4  5  2  0
  5  6  1  0
  6  7  2  0
  6  8  1  0
  8  9  1  0
  8 10  1  0
  8 11  1  0
 11 12  1  0
 11 13  1  0
 11 14  1  0
 14 15  1  0
 15 16  2  0
 15 17  1  0
 17 18  2  0
 18 19  1  0
 18 20  1  0
 20 21  1  0
 20 22  2  0
 22 23  1  0
 22 24  1  0
 24 25  1  0
 25 26  2  0
 25 27  2  0
 25 28  1  0
 28 29  1  0
 28 30  1  0
 30 31  1  0
 30 32  1  0
 30 33  1  0
 24 34  2  0
 34 35  1  0
  4 36  1  0
 36 37  1  0
 36 38  2  0
 38 39  1  0
 38 40  1  0
 40 41  1  0
 41 42  2  0
 42 43  1  0
 42 44  1  0
 44 45  1  0
 44 46  2  0
 46 47  1  0
 46 48  1  0
 48 49  1  0
 48 50  2  0
 50 51  1  0
 40  2  2  0
 50 41  1  0
 34 17  1  0
M  CHG  2   3  -1  14  -1
M  END
>  <UniqueID>  (48) 
47

>  <SMILES>  (48) 
CNS(=O)(=O)c1cccc(C(=O)[N-]CCC(=O)/N=c2/ccc(-c3ccccc3)c[n-]2)c1

>  <Energy>  (48) 
54.83518136665553

>  <Genealogy>  (48) 
CNS(=O)(=O)c1cccc(C(=O)[N-]CCC(=O)N=c2ccc(-c3ccccc3)c[n-]2)c1 (protonated)
CNS(=O)(=O)c1cccc(C(=O)[N-]CCC(=O)/N=c2/ccc(-c3ccccc3)c[n-]2)c1 (cis-trans isomerization)
CNS(=O)(=O)c1cccc(C(=O)[N-]CCC(=O)/N=c2/ccc(-c3ccccc3)c[n-]2)c1 (3D coordinates assigned)
CNS(=O)(=O)c1cccc(C(=O)[N-]CCC(=O)/N=c2/ccc(-c3ccccc3)c[n-]2)c1 (optimized conformer: 54.83518136665553 kcal/mol)

>  <smiles>  (48) 
CNS(=O)(=O)c1cccc(C(=O)NCCC(=O)N=c2ccc(-c3ccccc3)c[nH]2)c1

>  <score_type>  (48) 
oracle

>  <origin>  (48) 
adg

>  <m_score__min__energy>  (48) 
-12.300000000000001

>  <m_primary>  (48) 
energy

$$$$
48:0
     RDKit          3D

 59 62  0  0  0  0  0  0  0  0999 V2000
   55.5000   26.7250   46.0430 N   0  0  0  0  0  0  0  0  0  0  0  0
   57.1820   27.1220   46.1320 S   0  0  0  0  0  0  0  0  0  0  0  0
   57.9850   26.0980   45.3790 O   0  0  0  0  0  0  0  0  0  0  0  0
   57.6150   27.1000   47.5710 O   0  0  0  0  0  0  0  0  0  0  0  0
   57.4500   28.7350   45.4470 C   0  0  0  0  0  0  0  0  0  0  0  0
   56.8110   29.0690   44.2410 C   0  0  0  0  0  0  0  0  0  0  0  0
   56.9550   30.3430   43.6910 C   0  0  0  0  0  0  0  0  0  0  0  0
   57.7370   31.3000   44.3380 C   0  0  0  0  0  0  0  0  0  0  0  0
   58.3870   30.9840   45.5320 C   0  0  0  0  0  0  0  0  0  0  0  0
   58.2650   29.7020   46.0900 C   0  0  0  0  0  0  0  0  0  0  0  0
   58.9910   29.4090   47.3430 C   0  0  0  0  0  0  0  0  0  0  0  0
   60.1480   28.6260   47.3220 C   0  0  0  0  0  0  0  0  0  0  0  0
   60.8340   28.3590   48.5060 C   0  0  0  0  0  0  0  0  0  0  0  0
   60.3470   28.8780   49.7270 C   0  0  0  0  0  0  0  0  0  0  0  0
   60.9640   28.6930   50.8610 N   0  0  0  0  0  0  0  0  0  0  0  0
   62.2630   29.1760   51.2400 C   0  0  0  0  0  0  0  0  0  0  0  0
   63.0070   28.5020   52.0050 O   0  0  0  0  0  0  0  0  0  0  0  0
   62.7320   30.5000   50.7290 C   0  0  0  0  0  0  0  0  0  0  0  0
   61.7780   31.5750   51.1710 C   0  0  0  0  0  0  0  0  0  0  0  0
   61.6300   31.8770   52.5330 C   0  0  0  0  0  0  0  0  0  0  0  0
   60.7030   32.8380   52.9430 C   0  0  0  0  0  0  0  0  0  0  0  0
   59.9040   33.4910   52.0030 C   0  0  0  0  0  0  0  0  0  0  0  0
   60.0220   33.1780   50.6350 C   0  0  0  0  0  0  0  0  0  0  0  0
   59.2230   33.7750   49.6470 O   0  0  0  0  0  0  0  0  0  0  0  0
   58.6920   33.1170   48.4960 C   0  0  0  0  0  0  0  0  0  0  0  0
   59.4480   33.5130   47.2220 C   0  0  0  0  0  0  0  0  0  0  0  0
   60.9050   33.1380   47.3050 C   0  0  0  0  0  0  0  0  0  0  0  0
   61.3080   31.8050   47.1080 C   0  0  0  0  0  0  0  0  0  0  0  0
   62.6600   31.4580   47.2090 C   0  0  0  0  0  0  0  0  0  0  0  0
   63.6160   32.4340   47.5150 C   0  0  0  0  0  0  0  0  0  0  0  0
   63.2200   33.7570   47.7230 C   0  0  0  0  0  0  0  0  0  0  0  0
   61.8700   34.1110   47.6200 C   0  0  0  0  0  0  0  0  0  0  0  0
   60.9680   32.2300   50.2310 C   0  0  0  0  0  0  0  0  0  0  0  0
   59.2130   29.6390   49.7160 N   0  0  0  0  0  0  0  0  0  0  0  0
   58.5270   29.8970   48.5700 C   0  0  0  0  0  0  0  0  0  0  0  0
   55.1420   27.1000   45.1350 H   0  0  0  0  0  0  0  0  0  0  0  0
   56.1919   28.3196   43.7261 H   0  0  0  0  0  0  0  0  0  0  0  0
   56.4512   30.5933   42.7457 H   0  0  0  0  0  0  0  0  0  0  0  0
   57.8416   32.3062   43.9061 H   0  0  0  0  0  0  0  0  0  0  0  0
   58.9989   31.7447   46.0390 H   0  0  0  0  0  0  0  0  0  0  0  0
   60.5184   28.2194   46.3694 H   0  0  0  0  0  0  0  0  0  0  0  0
   61.7487   27.7481   48.4899 H   0  0  0  0  0  0  0  0  0  0  0  0
   63.7346   30.7128   51.1284 H   0  0  0  0  0  0  0  0  0  0  0  0
   62.7724   30.4752   49.6300 H   0  0  0  0  0  0  0  0  0  0  0  0
   62.2459   31.3554   53.2804 H   0  0  0  0  0  0  0  0  0  0  0  0
   60.6022   33.0812   54.0110 H   0  0  0  0  0  0  0  0  0  0  0  0
   59.1806   34.2518   52.3315 H   0  0  0  0  0  0  0  0  0  0  0  0
   58.7744   32.0291   48.6367 H   0  0  0  0  0  0  0  0  0  0  0  0
   57.6406   33.4191   48.3808 H   0  0  0  0  0  0  0  0  0  0  0  0
   58.9947   32.9974   46.3626 H   0  0  0  0  0  0  0  0  0  0  0  0
   59.3788   34.6046   47.1050 H   0  0  0  0  0  0  0  0  0  0  0  0
   60.5592   31.0339   46.8741 H   0  0  0  0  0  0  0  0  0  0  0  0
   62.9724   30.4157   47.0475 H   0  0  0  0  0  0  0  0  0  0  0  0
   64.6783   32.1590   47.5915 H   0  0  0  0  0  0  0  0  0  0  0  0
   63.9709   34.5225   47.9683 H   0  0  0  0  0  0  0  0  0  0  0  0
   61.5627   35.1541   47.7860 H   0  0  0  0  0  0  0  0  0  0  0  0
   61.0783   31.9949   49.1621 H   0  0  0  0  0  0  0  0  0  0  0  0
   58.8470   30.0350   50.6140 H   0  0  0  0  0  0  0  0  0  0  0  0
   57.6028   30.4923   48.6078 H   0  0  0  0  0  0  0  0  0  0  0  0
  1  2  1  0
  2  3  2  0
  2  4  2  0
  2  5  1  0
  5  6  2  0
  6  7  1  0
  7  8  2  0
  8  9  1  0
  9 10  2  0
 10 11  1  0
 11 12  1  0
 12 13  2  0
 13 14  1  0
 14 15  2  3
 15 16  1  0
 16 17  2  0
 16 18  1  0
 18 19  1  0
 19 20  2  0
 20 21  1  0
 21 22  2  0
 22 23  1  0
 23 24  1  0
 24 25  1  0
 25 26  1  0
 26 27  1  0
 27 28  2  0
 28 29  1  0
 29 30  2  0
 30 31  1  0
 31 32  2  0
 23 33  2  0
 14 34  1  0
 34 35  1  0
 10  5  1  0
 35 11  2  0
 33 19  1  0
 32 27  1  0
  1 36  1  0
  6 37  1  0
  7 38  1  0
  8 39  1  0
  9 40  1  0
 12 41  1  0
 13 42  1  0
 18 43  1  0
 18 44  1  0
 20 45  1  0
 21 46  1  0
 22 47  1  0
 25 48  1  0
 25 49  1  0
 26 50  1  0
 26 51  1  0
 28 52  1  0
 29 53  1  0
 30 54  1  0
 31 55  1  0
 32 56  1  0
 33 57  1  0
 34 58  1  0
 35 59  1  0
M  CHG  1   1  -1
M  END
>  <UniqueID>  (49) 
48

>  <SMILES>  (49) 
[NH-]S(=O)(=O)c1ccccc1-c1ccc(=NC(=O)Cc2cccc(OCCc3ccccc3)c2)[nH]c1

>  <Energy>  (49) 
73.67429901782819

>  <Genealogy>  (49) 
[NH-]S(=O)(=O)c1ccccc1-c1ccc(=NC(=O)Cc2cccc(OCCc3ccccc3)c2)[nH]c1 (protonated)
[NH-]S(=O)(=O)c1ccccc1-c1ccc(=NC(=O)Cc2cccc(OCCc3ccccc3)c2)[nH]c1 (3D coordinates assigned)
[NH-]S(=O)(=O)c1ccccc1-c1ccc(=NC(=O)Cc2cccc(OCCc3ccccc3)c2)[nH]c1 (optimized conformer: 73.67429901782819 kcal/mol)

>  <smiles>  (49) 
NS(=O)(=O)c1ccccc1-c1ccc(=NC(=O)Cc2cccc(OCCc3ccccc3)c2)[nH]c1

>  <score_type>  (49) 
oracle

>  <origin>  (49) 
adg

>  <m_score__min__energy>  (49) 
-11.539999999999999

>  <m_primary>  (49) 
energy

$$$$
49:0
     RDKit          3D

 48 50  0  0  0  0  0  0  0  0999 V2000
   62.1000   33.7980   48.6160 C   0  0  0  0  0  0  0  0  0  0  0  0
   60.6860   33.9590   48.6920 O   0  0  0  0  0  0  0  0  0  0  0  0
   59.8270   33.1430   49.4490 C   0  0  0  0  0  0  0  0  0  0  0  0
   59.3100   33.5500   50.6920 C   0  0  0  0  0  0  0  0  0  0  0  0
   58.4450   32.7190   51.4040 C   0  0  0  0  0  0  0  0  0  0  0  0
   58.0600   31.4730   50.8800 C   0  0  0  0  0  0  0  0  0  0  0  0
   57.1330   30.5910   51.6260 C   0  0  0  0  0  0  0  0  0  0  0  0
   57.3440   29.3480   51.6470 O   0  0  0  0  0  0  0  0  0  0  0  0
   56.0210   31.1060   52.3700 N   0  0  0  0  0  0  0  0  0  0  0  0
   54.6520   30.6970   52.2320 C   0  0  0  0  0  0  0  0  0  0  0  0
   54.3140   29.3680   52.5040 C   0  0  0  0  0  0  0  0  0  0  0  0
   52.9940   28.9360   52.3780 C   0  0  0  0  0  0  0  0  0  0  0  0
   52.0030   29.8250   51.9600 C   0  0  0  0  0  0  0  0  0  0  0  0
   52.3230   31.1600   51.6560 C   0  0  0  0  0  0  0  0  0  0  0  0
   51.2690   32.1000   51.1990 C   0  0  0  0  0  0  0  0  0  0  0  0
   51.0240   32.2950   49.8070 N   0  0  0  0  0  0  0  0  0  0  0  0
   50.5770   32.7410   52.0400 O   0  0  0  0  0  0  0  0  0  0  0  0
   53.6580   31.5880   51.7880 C   0  0  0  0  0  0  0  0  0  0  0  0
   58.5900   31.0590   49.6470 C   0  0  0  0  0  0  0  0  0  0  0  0
   59.4810   31.8850   48.9300 C   0  0  0  0  0  0  0  0  0  0  0  0
   60.0470   31.4880   47.7080 O   0  0  0  0  0  0  0  0  0  0  0  0
   59.8380   32.1600   46.4670 C   0  0  0  0  0  0  0  0  0  0  0  0
   58.5470   31.7000   45.8570 C   0  0  0  0  0  0  0  0  0  0  0  0
   57.5540   32.4690   45.2770 C   0  0  0  0  0  0  0  0  0  0  0  0
   57.5110   33.9610   45.1870 C   0  0  0  0  0  0  0  0  0  0  0  0
   56.5720   31.6630   44.8220 N   0  0  0  0  0  0  0  0  0  0  0  0
   56.9300   30.4400   45.0900 O   0  0  0  0  0  0  0  0  0  0  0  0
   58.0950   30.4020   45.6990 C   0  0  0  0  0  0  0  0  0  0  0  0
   58.7670   29.1500   46.1580 C   0  0  0  0  0  0  0  0  0  0  0  0
   62.5187   33.7503   49.6321 H   0  0  0  0  0  0  0  0  0  0  0  0
   62.3347   32.8673   48.0786 H   0  0  0  0  0  0  0  0  0  0  0  0
   62.5379   34.6521   48.0786 H   0  0  0  0  0  0  0  0  0  0  0  0
   59.5896   34.5302   51.1055 H   0  0  0  0  0  0  0  0  0  0  0  0
   58.0612   33.0414   52.3832 H   0  0  0  0  0  0  0  0  0  0  0  0
   55.0937   28.6590   52.8192 H   0  0  0  0  0  0  0  0  0  0  0  0
   52.7336   27.8924   52.6086 H   0  0  0  0  0  0  0  0  0  0  0  0
   50.9631   29.4786   51.8676 H   0  0  0  0  0  0  0  0  0  0  0  0
   51.5390   33.0280   49.2680 H   0  0  0  0  0  0  0  0  0  0  0  0
   53.9255   32.6263   51.5422 H   0  0  0  0  0  0  0  0  0  0  0  0
   58.3070   30.0789   49.2354 H   0  0  0  0  0  0  0  0  0  0  0  0
   59.7945   33.2453   46.6411 H   0  0  0  0  0  0  0  0  0  0  0  0
   60.6679   31.9299   45.7826 H   0  0  0  0  0  0  0  0  0  0  0  0
   57.4987   34.3892   46.2001 H   0  0  0  0  0  0  0  0  0  0  0  0
   58.3991   34.3215   44.6473 H   0  0  0  0  0  0  0  0  0  0  0  0
   56.6036   34.2698   44.6473 H   0  0  0  0  0  0  0  0  0  0  0  0
   58.7812   29.1235   47.2576 H   0  0  0  0  0  0  0  0  0  0  0  0
   58.2160   28.2774   45.7773 H   0  0  0  0  0  0  0  0  0  0  0  0
   59.7987   29.1269   45.7773 H   0  0  0  0  0  0  0  0  0  0  0  0
  1  2  1  0
  2  3  1  0
  3  4  2  0
  4  5  1  0
  5  6  2  0
  6  7  1  0
  7  8  2  0
  7  9  1  0
  9 10  1  0
 10 11  2  0
 11 12  1  0
 12 13  2  0
 13 14  1  0
 14 15  1  0
 15 16  1  0
 15 17  2  0
 14 18  2  0
  6 19  1  0
 19 20  2  0
 20 21  1  0
 21 22  1  0
 22 23  1  0
 23 24  1  0
 24 25  1  0
 24 26  2  0
 26 27  1  0
 27 28  1  0
 28 29  1  0
 20  3  1  0
 28 23  2  0
 18 10  1  0
  1 30  1  0
  1 31  1  0
  1 32  1  0
  4 33  1  0
  5 34  1  0
 11 35  1  0
 12 36  1  0
 13 37  1  0
 16 38  1  0
 18 39  1  0
 19 40  1  0
 22 41  1  0
 22 42  1  0
 25 43  1  0
 25 44  1  0
 25 45  1  0
 29 46  1  0
 29 47  1  0
 29 48  1  0
M  CHG  2   9  -1  16  -1
M  END
>  <UniqueID>  (50) 
49

>  <SMILES>  (50) 
COc1ccc(C(=O)[N-]c2cccc(C([NH-])=O)c2)cc1OCc1c(C)noc1C

>  <Energy>  (50) 
84.041354550305

>  <Genealogy>  (50) 
COc1ccc(C(=O)[N-]c2cccc(C([NH-])=O)c2)cc1OCc1c(C)noc1C (protonated)
COc1ccc(C(=O)[N-]c2cccc(C([NH-])=O)c2)cc1OCc1c(C)noc1C (3D coordinates assigned)
COc1ccc(C(=O)[N-]c2cccc(C([NH-])=O)c2)cc1OCc1c(C)noc1C (optimized conformer: 84.041354550305 kcal/mol)

>  <smiles>  (50) 
COc1ccc(C(=O)Nc2cccc(C(N)=O)c2)cc1OCc1c(C)noc1C

>  <score_type>  (50) 
oracle

>  <origin>  (50) 
adg

>  <m_score__min__energy>  (50) 
-13.869999999999999

>  <m_primary>  (50) 
energy

$$$$
50:0
     RDKit          3D

 62 64  0  0  0  0  0  0  0  0999 V2000
   56.4430   22.8080   42.9910 C   0  0  0  0  0  0  0  0  0  0  0  0
   56.6830   24.1020   43.7700 C   0  0  0  0  0  0  0  0  0  0  0  0
   56.1070   24.0510   45.1940 C   0  0  0  0  0  0  0  0  0  0  0  0
   56.2670   25.6040   46.0670 S   0  0  0  0  0  0  0  0  0  0  0  0
   54.9660   26.3500   46.0040 O   0  0  0  0  0  0  0  0  0  0  0  0
   56.5930   25.3190   47.5060 O   0  0  0  0  0  0  0  0  0  0  0  0
   57.5480   26.5550   45.3850 N   0  0  0  0  0  0  0  0  0  0  0  0
   57.8730   27.8720   45.8410 C   0  0  0  0  0  0  0  0  0  0  0  0
   57.3940   28.9620   45.1130 C   0  0  0  0  0  0  0  0  0  0  0  0
   57.6660   30.2670   45.5150 C   0  0  0  0  0  0  0  0  0  0  0  0
   57.1680   31.3180   44.7310 O   0  0  0  0  0  0  0  0  0  0  0  0
   56.6320   32.5350   45.2430 C   0  0  0  0  0  0  0  0  0  0  0  0
   57.7670   33.4480   45.6070 C   0  0  0  0  0  0  0  0  0  0  0  0
   58.5290   34.0500   44.5990 C   0  0  0  0  0  0  0  0  0  0  0  0
   59.6420   34.8260   44.9300 C   0  0  0  0  0  0  0  0  0  0  0  0
   60.0070   35.0050   46.2670 C   0  0  0  0  0  0  0  0  0  0  0  0
   59.2470   34.4120   47.2970 C   0  0  0  0  0  0  0  0  0  0  0  0
   59.5550   34.5370   48.6970 N   0  0  0  0  0  0  0  0  0  0  0  0
   59.9890   33.5950   49.6900 C   0  0  0  0  0  0  0  0  0  0  0  0
   61.1620   33.1420   49.6140 O   0  0  0  0  0  0  0  0  0  0  0  0
   59.1380   33.1190   50.7790 C   0  0  0  0  0  0  0  0  0  0  0  0
   58.9990   33.8690   51.9070 N   0  0  0  0  0  0  0  0  0  0  0  0
   58.2300   33.4370   52.9410 C   0  0  0  0  0  0  0  0  0  0  0  0
   57.5850   32.2020   52.8580 C   0  0  0  0  0  0  0  0  0  0  0  0
   57.7560   31.4320   51.7060 C   0  0  0  0  0  0  0  0  0  0  0  0
   57.1320   30.1860   51.6100 O   0  0  0  0  0  0  0  0  0  0  0  0
   56.9910   29.3060   52.7210 C   0  0  0  0  0  0  0  0  0  0  0  0
   58.5310   31.9060   50.6890 N   0  0  0  0  0  0  0  0  0  0  0  0
   58.1370   33.6280   46.9500 C   0  0  0  0  0  0  0  0  0  0  0  0
   58.4220   30.4830   46.6780 C   0  0  0  0  0  0  0  0  0  0  0  0
   58.9020   29.3980   47.4420 C   0  0  0  0  0  0  0  0  0  0  0  0
   59.6670   29.6160   48.6000 O   0  0  0  0  0  0  0  0  0  0  0  0
   60.8990   30.3250   48.6440 C   0  0  0  0  0  0  0  0  0  0  0  0
   58.6040   28.0730   47.0280 C   0  0  0  0  0  0  0  0  0  0  0  0
   58.9800   26.9290   47.7560 O   0  0  0  0  0  0  0  0  0  0  0  0
   60.2080   26.7190   48.4450 C   0  0  0  0  0  0  0  0  0  0  0  0
   56.2891   21.9784   43.6967 H   0  0  0  0  0  0  0  0  0  0  0  0
   55.5505   22.9212   42.3580 H   0  0  0  0  0  0  0  0  0  0  0  0
   57.3167   22.5937   42.3580 H   0  0  0  0  0  0  0  0  0  0  0  0
   57.7669   24.2783   43.8346 H   0  0  0  0  0  0  0  0  0  0  0  0
   56.1709   24.9138   43.2327 H   0  0  0  0  0  0  0  0  0  0  0  0
   55.0397   23.7920   45.1316 H   0  0  0  0  0  0  0  0  0  0  0  0
   56.6797   23.2973   45.7544 H   0  0  0  0  0  0  0  0  0  0  0  0
   56.7928   28.7876   44.2085 H   0  0  0  0  0  0  0  0  0  0  0  0
   56.0037   33.0134   44.4772 H   0  0  0  0  0  0  0  0  0  0  0  0
   56.0185   32.3284   46.1323 H   0  0  0  0  0  0  0  0  0  0  0  0
   58.2506   33.9116   43.5438 H   0  0  0  0  0  0  0  0  0  0  0  0
   60.2349   35.2992   44.1334 H   0  0  0  0  0  0  0  0  0  0  0  0
   60.8904   35.6107   46.5173 H   0  0  0  0  0  0  0  0  0  0  0  0
   58.1162   34.0591   53.8410 H   0  0  0  0  0  0  0  0  0  0  0  0
   56.9542   31.8423   53.6842 H   0  0  0  0  0  0  0  0  0  0  0  0
   57.0827   29.8782   53.6560 H   0  0  0  0  0  0  0  0  0  0  0  0
   56.0039   28.8222   52.6825 H   0  0  0  0  0  0  0  0  0  0  0  0
   57.7775   28.5380   52.6825 H   0  0  0  0  0  0  0  0  0  0  0  0
   57.5463   33.1460   47.7429 H   0  0  0  0  0  0  0  0  0  0  0  0
   58.6432   31.5119   46.9981 H   0  0  0  0  0  0  0  0  0  0  0  0
   61.1888   30.4918   49.6919 H   0  0  0  0  0  0  0  0  0  0  0  0
   61.6785   29.7374   48.1370 H   0  0  0  0  0  0  0  0  0  0  0  0
   60.7826   31.2942   48.1370 H   0  0  0  0  0  0  0  0  0  0  0  0
   60.0295   26.7495   49.5300 H   0  0  0  0  0  0  0  0  0  0  0  0
   60.6202   25.7373   48.1687 H   0  0  0  0  0  0  0  0  0  0  0  0
   60.9230   27.5079   48.1687 H   0  0  0  0  0  0  0  0  0  0  0  0
  1  2  1  0
  2  3  1  0
  3  4  1  0
  4  5  2  0
  4  6  2  0
  4  7  1  0
  7  8  1  0
  8  9  2  0
  9 10  1  0
 10 11  1  0
 11 12  1  0
 12 13  1  0
 13 14  2  0
 14 15  1  0
 15 16  2  0
 16 17  1  0
 17 18  1  0
 18 19  1  0
 19 20  2  0
 19 21  1  0
 21 22  2  0
 22 23  1  0
 23 24  2  0
 24 25  1  0
 25 26  1  0
 26 27  1  0
 25 28  2  0
 17 29  2  0
 10 30  2  0
 30 31  1  0
 31 32  1  0
 32 33  1  0
 31 34  2  0
 34 35  1  0
 35 36  1  0
 34  8  1  0
 29 13  1  0
 28 21  1  0
  1 37  1  0
  1 38  1  0
  1 39  1  0
  2 40  1  0
  2 41  1  0
  3 42  1  0
  3 43  1  0
  9 44  1  0
 12 45  1  0
 12 46  1  0
 14 47  1  0
 15 48  1  0
 16 49  1  0
 23 50  1  0
 24 51  1  0
 27 52  1  0
 27 53  1  0
 27 54  1  0
 29 55  1  0
 30 56  1  0
 33 57  1  0
 33 58  1  0
 33 59  1  0
 36 60  1  0
 36 61  1  0
 36 62  1  0
M  CHG  2   7  -1  18  -1
M  END
>  <UniqueID>  (51) 
50

>  <SMILES>  (51) 
CCCS(=O)(=O)[N-]c1cc(OCc2cccc([N-]C(=O)c3nccc(OC)n3)c2)cc(OC)c1OC

>  <Energy>  (51) 
78.46967078275217

>  <Genealogy>  (51) 
CCCS(=O)(=O)[N-]c1cc(OCc2cccc([N-]C(=O)c3nccc(OC)n3)c2)cc(OC)c1OC (protonated)
CCCS(=O)(=O)[N-]c1cc(OCc2cccc([N-]C(=O)c3nccc(OC)n3)c2)cc(OC)c1OC (3D coordinates assigned)
CCCS(=O)(=O)[N-]c1cc(OCc2cccc([N-]C(=O)c3nccc(OC)n3)c2)cc(OC)c1OC (optimized conformer: 78.46967078275217 kcal/mol)

>  <smiles>  (51) 
CCCS(=O)(=O)Nc1cc(OCc2cccc(NC(=O)c3nccc(OC)n3)c2)cc(OC)c1OC

>  <score_type>  (51) 
oracle

>  <origin>  (51) 
adg

>  <m_score__min__energy>  (51) 
-11.43

>  <m_primary>  (51) 
energy

$$$$
51:0
     RDKit          3D

 65 67  0  0  0  0  0  0  0  0999 V2000
   63.7690   32.9210   47.2280 C   0  0  0  0  0  0  0  0  0  0  0  0
   63.9850   33.7810   48.3850 N   0  0  0  0  0  0  0  0  0  0  0  0
   63.3210   33.6710   49.6510 C   0  0  0  0  0  0  0  0  0  0  0  0
   62.4570   34.5390   49.9490 O   0  0  0  0  0  0  0  0  0  0  0  0
   63.5840   32.5370   50.6170 C   0  0  2  0  0  0  0  0  0  0  0  0
   64.6930   31.6160   50.0790 C   0  0  0  0  0  0  0  0  0  0  0  0
   66.0530   31.9780   50.6140 C   0  0  0  0  0  0  0  0  0  0  0  0
   66.7360   33.1030   50.1220 C   0  0  0  0  0  0  0  0  0  0  0  0
   67.9920   33.4430   50.6350 C   0  0  0  0  0  0  0  0  0  0  0  0
   68.5710   32.6690   51.6450 C   0  0  0  0  0  0  0  0  0  0  0  0
   67.8940   31.5540   52.1460 C   0  0  0  0  0  0  0  0  0  0  0  0
   66.6390   31.2080   51.6340 C   0  0  0  0  0  0  0  0  0  0  0  0
   62.3700   31.7330   50.7670 N   0  0  0  0  0  0  0  0  0  0  0  0
   61.4720   31.2370   49.7620 C   0  0  0  0  0  0  0  0  0  0  0  0
   61.6480   31.6220   48.5750 O   0  0  0  0  0  0  0  0  0  0  0  0
   60.3390   30.2730   50.0360 C   0  0  2  0  0  0  0  0  0  0  0  0
   60.5240   28.9550   49.2730 C   0  0  0  0  0  0  0  0  0  0  0  0
   59.8590   29.0090   47.9210 C   0  0  0  0  0  0  0  0  0  0  0  0
   58.7020   28.2540   47.6710 C   0  0  0  0  0  0  0  0  0  0  0  0
   58.0590   28.3370   46.4320 C   0  0  0  0  0  0  0  0  0  0  0  0
   58.5540   29.1770   45.4220 C   0  0  0  0  0  0  0  0  0  0  0  0
   57.8620   29.2430   44.1620 N   0  0  0  0  0  0  0  0  0  0  0  0
   56.2610   29.8850   43.9690 S   0  0  0  0  0  0  0  0  0  0  0  0
   56.2300   31.3000   44.4800 O   0  0  0  0  0  0  0  0  0  0  0  0
   55.8840   29.8780   42.5120 O   0  0  0  0  0  0  0  0  0  0  0  0
   55.1660   28.9620   44.8500 O   0  0  0  0  0  0  0  0  0  0  0  0
   59.7090   29.9400   45.6780 C   0  0  0  0  0  0  0  0  0  0  0  0
   60.3480   29.8610   46.9190 C   0  0  0  0  0  0  0  0  0  0  0  0
   59.0430   30.8700   49.7230 N   0  0  0  0  0  0  0  0  0  0  0  0
   58.6560   32.1840   50.1340 C   0  0  0  0  0  0  0  0  0  0  0  0
   57.7180   32.3400   50.9660 O   0  0  0  0  0  0  0  0  0  0  0  0
   59.3190   33.3710   49.4950 C   0  0  0  0  0  0  0  0  0  0  0  0
   59.0060   33.4770   48.0210 C   0  0  0  0  0  0  0  0  0  0  0  0
   57.7490   33.0650   47.5440 C   0  0  0  0  0  0  0  0  0  0  0  0
   57.4460   33.1520   46.1820 C   0  0  0  0  0  0  0  0  0  0  0  0
   58.3930   33.6470   45.2840 C   0  0  0  0  0  0  0  0  0  0  0  0
   59.6540   34.0420   45.7440 C   0  0  0  0  0  0  0  0  0  0  0  0
   59.9650   33.9630   47.1090 C   0  0  0  0  0  0  0  0  0  0  0  0
   61.2270   34.3560   47.5590 O   0  0  0  0  0  0  0  0  0  0  0  0
   63.5142   31.9063   47.5678 H   0  0  0  0  0  0  0  0  0  0  0  0
   62.9438   33.3226   46.6215 H   0  0  0  0  0  0  0  0  0  0  0  0
   64.6860   32.8851   46.6215 H   0  0  0  0  0  0  0  0  0  0  0  0
   63.8912   32.9700   51.5804 H   0  0  0  0  0  0  0  0  0  0  0  0
   64.4636   30.5803   50.3701 H   0  0  0  0  0  0  0  0  0  0  0  0
   64.7223   31.7316   48.9855 H   0  0  0  0  0  0  0  0  0  0  0  0
   66.2817   33.7180   49.3312 H   0  0  0  0  0  0  0  0  0  0  0  0
   68.5254   34.3214   50.2428 H   0  0  0  0  0  0  0  0  0  0  0  0
   69.5597   32.9378   52.0454 H   0  0  0  0  0  0  0  0  0  0  0  0
   68.3483   30.9479   52.9436 H   0  0  0  0  0  0  0  0  0  0  0  0
   66.1085   30.3300   52.0310 H   0  0  0  0  0  0  0  0  0  0  0  0
   60.3602   30.0477   51.1125 H   0  0  0  0  0  0  0  0  0  0  0  0
   61.5993   28.7674   49.1366 H   0  0  0  0  0  0  0  0  0  0  0  0
   60.0599   28.1466   49.8571 H   0  0  0  0  0  0  0  0  0  0  0  0
   58.2994   27.5940   48.4535 H   0  0  0  0  0  0  0  0  0  0  0  0
   57.1555   27.7376   46.2468 H   0  0  0  0  0  0  0  0  0  0  0  0
   58.3530   28.9250   43.2960 H   0  0  0  0  0  0  0  0  0  0  0  0
   60.1111   30.6022   44.8971 H   0  0  0  0  0  0  0  0  0  0  0  0
   61.2421   30.4722   47.1116 H   0  0  0  0  0  0  0  0  0  0  0  0
   58.9693   34.2848   49.9976 H   0  0  0  0  0  0  0  0  0  0  0  0
   60.4068   33.2463   49.6002 H   0  0  0  0  0  0  0  0  0  0  0  0
   56.9996   32.6719   48.2468 H   0  0  0  0  0  0  0  0  0  0  0  0
   56.4595   32.8298   45.8174 H   0  0  0  0  0  0  0  0  0  0  0  0
   58.1479   33.7266   44.2146 H   0  0  0  0  0  0  0  0  0  0  0  0
   60.4044   34.4160   45.0320 H   0  0  0  0  0  0  0  0  0  0  0  0
   61.8200   33.7300   48.0920 H   0  0  0  0  0  0  0  0  0  0  0  0
  1  2  1  0
  2  3  1  0
  3  4  2  0
  3  5  1  0
  5  6  1  0
  6  7  1  0
  7  8  2  0
  8  9  1  0
  9 10  2  0
 10 11  1  0
 11 12  2  0
  5 13  1  0
 13 14  1  0
 14 15  2  0
 14 16  1  0
 16 17  1  0
 17 18  1  0
 18 19  2  0
 19 20  1  0
 20 21  2  0
 21 22  1  0
 22 23  1  0
 23 24  2  0
 23 25  2  0
 23 26  1  0
 21 27  1  0
 27 28  2  0
 16 29  1  0
 29 30  1  0
 30 31  2  0
 30 32  1  0
 32 33  1  0
 33 34  2  0
 34 35  1  0
 35 36  2  0
 36 37  1  0
 37 38  2  0
 38 39  1  0
 12  7  1  0
 28 18  1  0
 38 33  1  0
  1 40  1  0
  1 41  1  0
  1 42  1  0
  5 43  1  1
  6 44  1  0
  6 45  1  0
  8 46  1  0
  9 47  1  0
 10 48  1  0
 11 49  1  0
 12 50  1  0
 16 51  1  1
 17 52  1  0
 17 53  1  0
 19 54  1  0
 20 55  1  0
 22 56  1  0
 27 57  1  0
 28 58  1  0
 32 59  1  0
 32 60  1  0
 34 61  1  0
 35 62  1  0
 36 63  1  0
 37 64  1  0
 39 65  1  0
M  CHG  4   2  -1  13  -1  26  -1  29  -1
M  END
>  <UniqueID>  (52) 
51

>  <SMILES>  (52) 
C[N-]C(=O)[C@H](Cc1ccccc1)[N-]C(=O)[C@H](Cc1ccc(NS(=O)(=O)[O-])cc1)[N-]C(=O)Cc1ccccc1O

>  <Energy>  (52) 
58.63148381986508

>  <Genealogy>  (52) 
C[N-]C(=O)C(Cc1ccccc1)[N-]C(=O)C(Cc1ccc(NS(=O)(=O)[O-])cc1)[N-]C(=O)Cc1ccccc1O (protonated)
C[N-]C(=O)[C@H](Cc1ccccc1)[N-]C(=O)[C@H](Cc1ccc(NS(=O)(=O)[O-])cc1)[N-]C(=O)Cc1ccccc1O (chirality)
C[N-]C(=O)[C@H](Cc1ccccc1)[N-]C(=O)[C@H](Cc1ccc(NS(=O)(=O)[O-])cc1)[N-]C(=O)Cc1ccccc1O (3D coordinates assigned)
C[N-]C(=O)[C@H](Cc1ccccc1)[N-]C(=O)[C@H](Cc1ccc(NS(=O)(=O)[O-])cc1)[N-]C(=O)Cc1ccccc1O (optimized conformer: 58.63148381986508 kcal/mol)

>  <smiles>  (52) 
CNC(=O)C(Cc1ccccc1)NC(=O)C(Cc1ccc(NS(=O)(=O)O)cc1)NC(=O)Cc1ccccc1O

>  <score_type>  (52) 
oracle

>  <origin>  (52) 
adg

>  <m_score__min__energy>  (52) 
-15.65

>  <m_primary>  (52) 
energy

$$$$
52:0
     RDKit          3D

 49 51  0  0  0  0  0  0  0  0999 V2000
   55.1470   29.3500   44.9660 N   0  0  0  0  0  0  0  0  0  0  0  0
   56.4990   29.7160   43.9500 S   0  0  0  0  0  0  0  0  0  0  0  0
   57.3520   28.4850   43.8130 O   0  0  0  0  0  0  0  0  0  0  0  0
   56.0120   30.1390   42.5920 O   0  0  0  0  0  0  0  0  0  0  0  0
   57.4290   31.0240   44.6720 C   0  0  0  0  0  0  0  0  0  0  0  0
   57.8160   32.1360   43.9060 C   0  0  0  0  0  0  0  0  0  0  0  0
   58.5690   33.1600   44.4860 C   0  0  0  0  0  0  0  0  0  0  0  0
   58.9270   33.0950   45.8430 C   0  0  0  0  0  0  0  0  0  0  0  0
   59.8160   34.1510   46.4380 C   0  0  0  0  0  0  0  0  0  0  0  0
   61.2120   33.7710   46.2540 N   0  0  0  0  0  0  0  0  0  0  0  0
   62.1550   33.7300   47.3310 C   0  0  0  0  0  0  0  0  0  0  0  0
   63.3920   33.7890   47.0930 O   0  0  0  0  0  0  0  0  0  0  0  0
   61.6860   33.6640   48.7230 C   0  0  0  0  0  0  0  0  0  0  0  0
   62.2600   34.3160   49.8000 C   0  0  0  0  0  0  0  0  0  0  0  0
   61.5980   33.8650   50.9250 C   0  0  0  0  0  0  0  0  0  0  0  0
   60.6510   32.9600   50.4820 C   0  0  0  0  0  0  0  0  0  0  0  0
   59.8120   32.0820   51.3610 C   0  0  0  0  0  0  0  0  0  0  0  0
   59.9750   30.6430   50.9580 C   0  0  0  0  0  0  0  0  0  0  0  0
   60.4450   29.8220   51.7920 O   0  0  0  0  0  0  0  0  0  0  0  0
   59.6340   30.1870   49.5920 C   0  0  0  0  0  0  0  0  0  0  0  0
   58.6340   30.6820   49.0030 O   0  0  0  0  0  0  0  0  0  0  0  0
   60.4780   29.2410   48.9140 N   0  0  0  0  0  0  0  0  0  0  0  0
   60.2100   28.7300   47.5970 C   0  0  0  0  0  0  0  0  0  0  0  0
   60.6620   29.4480   46.4770 C   0  0  0  0  0  0  0  0  0  0  0  0
   60.4330   28.9620   45.1860 C   0  0  0  0  0  0  0  0  0  0  0  0
   59.7580   27.7530   45.0030 C   0  0  0  0  0  0  0  0  0  0  0  0
   59.3280   27.0190   46.1080 C   0  0  0  0  0  0  0  0  0  0  0  0
   59.5540   27.5010   47.4030 C   0  0  0  0  0  0  0  0  0  0  0  0
   60.7040   32.8440   49.1420 N   0  0  0  0  0  0  0  0  0  0  0  0
   58.5290   31.9850   46.6100 C   0  0  0  0  0  0  0  0  0  0  0  0
   57.7840   30.9580   46.0280 C   0  0  0  0  0  0  0  0  0  0  0  0
   55.4500   28.5950   45.6240 H   0  0  0  0  0  0  0  0  0  0  0  0
   57.5255   32.2007   42.8470 H   0  0  0  0  0  0  0  0  0  0  0  0
   58.8829   34.0209   43.8775 H   0  0  0  0  0  0  0  0  0  0  0  0
   59.6287   35.1126   45.9377 H   0  0  0  0  0  0  0  0  0  0  0  0
   59.6010   34.2488   47.5123 H   0  0  0  0  0  0  0  0  0  0  0  0
   63.0804   35.0480   49.7668 H   0  0  0  0  0  0  0  0  0  0  0  0
   61.7865   34.1658   51.9661 H   0  0  0  0  0  0  0  0  0  0  0  0
   60.1287   32.2052   52.4072 H   0  0  0  0  0  0  0  0  0  0  0  0
   58.7555   32.3689   51.2542 H   0  0  0  0  0  0  0  0  0  0  0  0
   61.4120   29.0280   49.3340 H   0  0  0  0  0  0  0  0  0  0  0  0
   61.1990   30.3978   46.6165 H   0  0  0  0  0  0  0  0  0  0  0  0
   60.7848   29.5324   44.3137 H   0  0  0  0  0  0  0  0  0  0  0  0
   59.5654   27.3795   43.9864 H   0  0  0  0  0  0  0  0  0  0  0  0
   58.8103   26.0595   45.9620 H   0  0  0  0  0  0  0  0  0  0  0  0
   59.2173   26.9164   48.2718 H   0  0  0  0  0  0  0  0  0  0  0  0
   60.1400   32.1920   48.5500 H   0  0  0  0  0  0  0  0  0  0  0  0
   58.8060   31.9261   47.6729 H   0  0  0  0  0  0  0  0  0  0  0  0
   57.4742   30.0941   46.6343 H   0  0  0  0  0  0  0  0  0  0  0  0
  1  2  1  0
  2  3  2  0
  2  4  2  0
  2  5  1  0
  5  6  2  0
  6  7  1  0
  7  8  2  0
  8  9  1  0
  9 10  1  0
 10 11  1  0
 11 12  2  0
 11 13  1  0
 13 14  2  0
 14 15  1  0
 15 16  2  0
 16 17  1  0
 17 18  1  0
 18 19  2  0
 18 20  1  0
 20 21  2  0
 20 22  1  0
 22 23  1  0
 23 24  2  0
 24 25  1  0
 25 26  2  0
 26 27  1  0
 27 28  2  0
 16 29  1  0
  8 30  1  0
 30 31  2  0
 31  5  1  0
 29 13  1  0
 28 23  1  0
  1 32  1  0
  6 33  1  0
  7 34  1  0
  9 35  1  0
  9 36  1  0
 14 37  1  0
 15 38  1  0
 17 39  1  0
 17 40  1  0
 22 41  1  0
 24 42  1  0
 25 43  1  0
 26 44  1  0
 27 45  1  0
 28 46  1  0
 29 47  1  0
 30 48  1  0
 31 49  1  0
M  CHG  2   1  -1  10  -1
M  END
>  <UniqueID>  (53) 
52

>  <SMILES>  (53) 
[NH-]S(=O)(=O)c1ccc(C[N-]C(=O)c2ccc(CC(=O)C(=O)Nc3ccccc3)[nH]2)cc1

>  <Energy>  (53) 
74.27544856374028

>  <Genealogy>  (53) 
[NH-]S(=O)(=O)c1ccc(C[N-]C(=O)c2ccc(CC(=O)C(=O)Nc3ccccc3)[nH]2)cc1 (protonated)
[NH-]S(=O)(=O)c1ccc(C[N-]C(=O)c2ccc(CC(=O)C(=O)Nc3ccccc3)[nH]2)cc1 (3D coordinates assigned)
[NH-]S(=O)(=O)c1ccc(C[N-]C(=O)c2ccc(CC(=O)C(=O)Nc3ccccc3)[nH]2)cc1 (optimized conformer: 74.27544856374028 kcal/mol)

>  <smiles>  (53) 
NS(=O)(=O)c1ccc(CNC(=O)c2ccc(CC(=O)C(=O)Nc3ccccc3)[nH]2)cc1

>  <score_type>  (53) 
oracle

>  <origin>  (53) 
adg

>  <m_score__min__energy>  (53) 
-11.58

>  <m_primary>  (53) 
energy

$$$$
53:0
     RDKit          3D

 33 35  0  0  0  0  0  0  0  0999 V2000
   55.2990   26.5660   45.9950 O   0  0  0  0  0  0  0  0  0  0  0  0
   56.5240   26.8540   45.9720 C   0  0  0  0  0  0  0  0  0  0  0  0
   57.4840   25.7900   46.0230 N   0  0  0  0  0  0  0  0  0  0  0  0
   57.4480   24.5890   45.2400 C   0  0  0  0  0  0  0  0  0  0  0  0
   58.2220   23.4650   45.5800 C   0  0  0  0  0  0  0  0  0  0  0  0
   58.1520   22.3030   44.8050 C   0  0  0  0  0  0  0  0  0  0  0  0
   57.3000   22.2490   43.6990 C   0  0  0  0  0  0  0  0  0  0  0  0
   56.5070   23.3530   43.3730 C   0  0  0  0  0  0  0  0  0  0  0  0
   56.5750   24.5170   44.1470 C   0  0  0  0  0  0  0  0  0  0  0  0
   56.9370   28.2230   45.8260 N   0  0  0  0  0  0  0  0  0  0  0  0
   58.0610   28.7220   46.3060 N   0  0  0  0  0  0  0  0  0  0  0  0
   58.0810   30.0200   45.9310 C   0  0  0  0  0  0  0  0  0  0  0  0
   59.1690   30.9560   46.2870 C   0  0  0  0  0  0  0  0  0  0  0  0
   60.3910   30.4710   46.7820 C   0  0  0  0  0  0  0  0  0  0  0  0
   61.4180   31.3550   47.1230 C   0  0  0  0  0  0  0  0  0  0  0  0
   61.2460   32.7420   46.9760 C   0  0  0  0  0  0  0  0  0  0  0  0
   62.3060   33.6490   47.3280 N   0  0  0  0  0  0  0  0  0  0  0  0
   62.2880   34.2600   48.4170 O   0  0  0  0  0  0  0  0  0  0  0  0
   63.3610   33.8590   46.4680 O   0  0  0  0  0  0  0  0  0  0  0  0
   60.0210   33.2250   46.4820 C   0  0  0  0  0  0  0  0  0  0  0  0
   58.9940   32.3420   46.1410 C   0  0  0  0  0  0  0  0  0  0  0  0
   56.9920   30.3700   45.2050 N   0  0  0  0  0  0  0  0  0  0  0  0
   56.3100   29.2110   45.1630 C   0  0  0  0  0  0  0  0  0  0  0  0
   55.2060   29.0780   44.5720 O   0  0  0  0  0  0  0  0  0  0  0  0
   58.8841   23.5000   46.4577 H   0  0  0  0  0  0  0  0  0  0  0  0
   58.7685   21.4304   45.0665 H   0  0  0  0  0  0  0  0  0  0  0  0
   57.2532   21.3377   43.0848 H   0  0  0  0  0  0  0  0  0  0  0  0
   55.8293   23.3069   42.5078 H   0  0  0  0  0  0  0  0  0  0  0  0
   55.9399   25.3793   43.8958 H   0  0  0  0  0  0  0  0  0  0  0  0
   60.5404   29.3878   46.9020 H   0  0  0  0  0  0  0  0  0  0  0  0
   62.3696   30.9617   47.5100 H   0  0  0  0  0  0  0  0  0  0  0  0
   59.8703   34.3081   46.3631 H   0  0  0  0  0  0  0  0  0  0  0  0
   58.0416   32.7347   45.7554 H   0  0  0  0  0  0  0  0  0  0  0  0
  1  2  2  0
  2  3  1  0
  3  4  1  0
  4  5  2  0
  5  6  1  0
  6  7  2  0
  7  8  1  0
  8  9  2  0
  2 10  1  0
 10 11  1  0
 11 12  2  0
 12 13  1  0
 13 14  2  0
 14 15  1  0
 15 16  2  0
 16 17  1  0
 17 18  2  0
 17 19  1  0
 16 20  1  0
 20 21  2  0
 12 22  1  0
 22 23  1  0
 23 24  2  0
  9  4  1  0
 23 10  1  0
 21 13  1  0
  5 25  1  0
  6 26  1  0
  7 27  1  0
  8 28  1  0
  9 29  1  0
 14 30  1  0
 15 31  1  0
 20 32  1  0
 21 33  1  0
M  CHG  4   3  -1  17   1  19  -1  22  -1
M  END
>  <UniqueID>  (54) 
53

>  <SMILES>  (54) 
O=C([N-]c1ccccc1)n1nc(-c2ccc([N+](=O)[O-])cc2)[n-]c1=O

>  <Energy>  (54) 
76.85246121952765

>  <Genealogy>  (54) 
O=C([N-]c1ccccc1)n1nc(-c2ccc([N+](=O)[O-])cc2)[n-]c1=O (protonated)
O=C([N-]c1ccccc1)n1nc(-c2ccc([N+](=O)[O-])cc2)[n-]c1=O (3D coordinates assigned)
O=C([N-]c1ccccc1)n1nc(-c2ccc([N+](=O)[O-])cc2)[n-]c1=O (optimized conformer: 76.85246121952765 kcal/mol)

>  <smiles>  (54) 
O=C(Nc1ccccc1)n1nc(-c2ccc([N+](=O)[O-])cc2)[nH]c1=O

>  <score_type>  (54) 
oracle

>  <origin>  (54) 
adg

>  <m_score__min__energy>  (54) 
-10.050000000000001

>  <m_primary>  (54) 
energy

$$$$
54:0
     RDKit          3D

 41 43  0  0  0  0  0  0  0  0999 V2000
   58.5240   32.5410   48.2730 C   0  0  0  0  0  0  0  0  0  0  0  0
   58.2300   32.4760   46.8020 C   0  0  0  0  0  0  0  0  0  0  0  0
   58.0210   33.6540   46.0710 C   0  0  0  0  0  0  0  0  0  0  0  0
   57.7660   33.5940   44.6990 C   0  0  0  0  0  0  0  0  0  0  0  0
   57.7400   32.3600   44.0440 C   0  0  0  0  0  0  0  0  0  0  0  0
   57.9900   31.1750   44.7510 C   0  0  0  0  0  0  0  0  0  0  0  0
   57.9470   29.9180   44.0560 N   0  0  0  0  0  0  0  0  0  0  0  0
   57.7670   28.6480   44.7060 C   0  0  0  0  0  0  0  0  0  0  0  0
   58.8750   27.8650   45.0280 C   0  0  0  0  0  0  0  0  0  0  0  0
   58.6770   26.6490   45.6810 C   0  0  0  0  0  0  0  0  0  0  0  0
   59.6760   25.9250   45.9410 O   0  0  0  0  0  0  0  0  0  0  0  0
   57.4100   26.2440   46.0190 N   0  0  0  0  0  0  0  0  0  0  0  0
   57.1950   25.0040   46.7210 C   0  0  0  0  0  0  0  0  0  0  0  0
   56.3610   24.9580   47.6640 O   0  0  0  0  0  0  0  0  0  0  0  0
   57.9830   23.7700   46.3730 C   0  0  0  0  0  0  0  0  0  0  0  0
   57.4760   23.1700   45.0900 C   0  0  0  0  0  0  0  0  0  0  0  0
   58.0200   21.9660   44.6110 C   0  0  0  0  0  0  0  0  0  0  0  0
   57.5840   21.4320   43.3950 C   0  0  0  0  0  0  0  0  0  0  0  0
   56.6120   22.0980   42.6440 C   0  0  0  0  0  0  0  0  0  0  0  0
   56.0750   23.3020   43.1080 C   0  0  0  0  0  0  0  0  0  0  0  0
   56.5060   23.8400   44.3240 C   0  0  0  0  0  0  0  0  0  0  0  0
   56.3380   27.0350   45.6950 C   0  0  0  0  0  0  0  0  0  0  0  0
   55.1640   26.6860   46.0000 O   0  0  0  0  0  0  0  0  0  0  0  0
   56.5260   28.2170   45.0540 N   0  0  0  0  0  0  0  0  0  0  0  0
   58.2220   31.2390   46.1380 C   0  0  0  0  0  0  0  0  0  0  0  0
   57.6037   32.3375   48.8402 H   0  0  0  0  0  0  0  0  0  0  0  0
   59.2857   31.7896   48.5282 H   0  0  0  0  0  0  0  0  0  0  0  0
   58.8979   33.5435   48.5282 H   0  0  0  0  0  0  0  0  0  0  0  0
   58.0580   34.6286   46.5796 H   0  0  0  0  0  0  0  0  0  0  0  0
   57.5853   34.5198   44.1332 H   0  0  0  0  0  0  0  0  0  0  0  0
   57.5220   32.3178   42.9666 H   0  0  0  0  0  0  0  0  0  0  0  0
   58.1430   29.9210   43.0300 H   0  0  0  0  0  0  0  0  0  0  0  0
   59.8901   28.2016   44.7707 H   0  0  0  0  0  0  0  0  0  0  0  0
   59.0431   24.0383   46.2539 H   0  0  0  0  0  0  0  0  0  0  0  0
   57.8688   23.0332   47.1817 H   0  0  0  0  0  0  0  0  0  0  0  0
   58.7913   21.4422   45.1948 H   0  0  0  0  0  0  0  0  0  0  0  0
   58.0071   20.4851   43.0284 H   0  0  0  0  0  0  0  0  0  0  0  0
   56.2696   21.6749   41.6881 H   0  0  0  0  0  0  0  0  0  0  0  0
   55.3117   23.8273   42.5151 H   0  0  0  0  0  0  0  0  0  0  0  0
   56.0848   24.7907   44.6828 H   0  0  0  0  0  0  0  0  0  0  0  0
   58.3983   30.3133   46.7055 H   0  0  0  0  0  0  0  0  0  0  0  0
  1  2  1  0
  2  3  2  0
  3  4  1  0
  4  5  2  0
  5  6  1  0
  6  7  1  0
  7  8  1  0
  8  9  2  0
  9 10  1  0
 10 11  2  0
 10 12  1  0
 12 13  1  0
 13 14  2  0
 13 15  1  0
 15 16  1  0
 16 17  2  0
 17 18  1  0
 18 19  2  0
 19 20  1  0
 20 21  2  0
 12 22  1  0
 22 23  2  0
 22 24  1  0
  6 25  2  0
 25  2  1  0
 24  8  1  0
 21 16  1  0
  1 26  1  0
  1 27  1  0
  1 28  1  0
  3 29  1  0
  4 30  1  0
  5 31  1  0
  7 32  1  0
  9 33  1  0
 15 34  1  0
 15 35  1  0
 17 36  1  0
 18 37  1  0
 19 38  1  0
 20 39  1  0
 21 40  1  0
 25 41  1  0
M  CHG  1  24  -1
M  END
>  <UniqueID>  (55) 
54

>  <SMILES>  (55) 
Cc1cccc(Nc2cc(=O)n(C(=O)Cc3ccccc3)c(=O)[n-]2)c1

>  <Energy>  (55) 
54.2468912316631

>  <Genealogy>  (55) 
Cc1cccc(Nc2cc(=O)n(C(=O)Cc3ccccc3)c(=O)[n-]2)c1 (protonated)
Cc1cccc(Nc2cc(=O)n(C(=O)Cc3ccccc3)c(=O)[n-]2)c1 (3D coordinates assigned)
Cc1cccc(Nc2cc(=O)n(C(=O)Cc3ccccc3)c(=O)[n-]2)c1 (optimized conformer: 54.2468912316631 kcal/mol)

>  <smiles>  (55) 
Cc1cccc(Nc2cc(=O)n(C(=O)Cc3ccccc3)c(=O)[nH]2)c1

>  <score_type>  (55) 
oracle

>  <origin>  (55) 
adg

>  <m_score__min__energy>  (55) 
-9.9900000000000002

>  <m_primary>  (55) 
energy

$$$$
55:0
     RDKit          3D

 52 51  0  0  0  0  0  0  0  0999 V2000
   57.3917   27.6010   46.6958 H   0  0  0  0  0  0  0  0  0  0  0  0
   57.0910   26.8200   45.9820 C   0  0  0  0  0  0  0  0  0  0  0  0
   55.9150   26.0000   46.3390 C   0  0  0  0  0  0  0  0  0  0  0  0
   56.0610   25.0260   47.1220 O   0  0  0  0  0  0  0  0  0  0  0  0
   54.6360   26.3210   45.8950 O   0  0  0  0  0  0  0  0  0  0  0  0
   57.8250   26.6980   44.8660 C   0  0  0  0  0  0  0  0  0  0  0  0
   57.8894   25.7015   44.4047 H   0  0  0  0  0  0  0  0  0  0  0  0
   58.5520   27.8020   44.2120 C   0  0  0  0  0  0  0  0  0  0  0  0
   58.1822   28.2042   43.2573 H   0  0  0  0  0  0  0  0  0  0  0  0
   59.6520   28.3200   44.7620 C   0  0  0  0  0  0  0  0  0  0  0  0
   60.2914   28.9786   44.1558 H   0  0  0  0  0  0  0  0  0  0  0  0
   60.0440   28.0320   46.1820 C   0  0  0  0  0  0  0  0  0  0  0  0
   61.1118   28.2600   46.3156 H   0  0  0  0  0  0  0  0  0  0  0  0
   59.8523   26.9699   46.3944 H   0  0  0  0  0  0  0  0  0  0  0  0
   59.2360   28.8710   47.1350 C   0  0  0  0  0  0  0  0  0  0  0  0
   58.2005   28.5560   47.3311 H   0  0  0  0  0  0  0  0  0  0  0  0
   59.6740   29.9710   47.7650 C   0  0  0  0  0  0  0  0  0  0  0  0
   59.5310   30.0276   48.8542 H   0  0  0  0  0  0  0  0  0  0  0  0
   60.3350   31.1120   47.0990 C   0  0  0  0  0  0  0  0  0  0  0  0
   59.7268   31.8584   46.5670 H   0  0  0  0  0  0  0  0  0  0  0  0
   61.6640   31.2470   47.1360 C   0  0  0  0  0  0  0  0  0  0  0  0
   62.2947   30.5028   46.6277 H   0  0  0  0  0  0  0  0  0  0  0  0
   62.3150   32.3920   47.8560 C   0  0  0  0  0  0  0  0  0  0  0  0
   63.0850   32.8360   47.2079 H   0  0  0  0  0  0  0  0  0  0  0  0
   62.7704   32.0153   48.7838 H   0  0  0  0  0  0  0  0  0  0  0  0
   61.2980   33.4420   48.2060 C   0  0  0  0  0  0  0  0  0  0  0  0
   60.8799   33.4660   49.2232 H   0  0  0  0  0  0  0  0  0  0  0  0
   60.8880   34.3500   47.3090 C   0  0  0  0  0  0  0  0  0  0  0  0
   61.6308   34.9253   46.7369 H   0  0  0  0  0  0  0  0  0  0  0  0
   59.4210   34.5890   47.0780 C   0  0  0  0  0  0  0  0  0  0  0  0
   59.1136   35.4981   47.6157 H   0  0  0  0  0  0  0  0  0  0  0  0
   58.8572   33.7198   47.4476 H   0  0  0  0  0  0  0  0  0  0  0  0
   59.1380   34.7630   45.6090 C   0  0  0  0  0  0  0  0  0  0  0  0
   59.5319   35.6668   45.1212 H   0  0  0  0  0  0  0  0  0  0  0  0
   58.4410   33.9000   44.8450 C   0  0  0  0  0  0  0  0  0  0  0  0
   58.6926   33.8533   43.7752 H   0  0  0  0  0  0  0  0  0  0  0  0
   57.3420   32.9920   45.3410 C   0  0  0  0  0  0  0  0  0  0  0  0
   56.4228   33.2179   44.7806 H   0  0  0  0  0  0  0  0  0  0  0  0
   57.2265   33.1786   46.4189 H   0  0  0  0  0  0  0  0  0  0  0  0
   57.6640   31.4980   45.1690 C   0  0  0  0  0  0  0  0  0  0  0  0
   56.8231   30.9128   45.5694 H   0  0  0  0  0  0  0  0  0  0  0  0
   58.6026   31.3063   45.7097 H   0  0  0  0  0  0  0  0  0  0  0  0
   57.8940   31.0800   43.7020 C   0  0  0  0  0  0  0  0  0  0  0  0
   58.7047   30.3372   43.6708 H   0  0  0  0  0  0  0  0  0  0  0  0
   58.1506   31.9869   43.1348 H   0  0  0  0  0  0  0  0  0  0  0  0
   56.6420   30.4680   43.0560 C   0  0  0  0  0  0  0  0  0  0  0  0
   56.9511   29.7375   42.2939 H   0  0  0  0  0  0  0  0  0  0  0  0
   56.0531   31.2767   42.5987 H   0  0  0  0  0  0  0  0  0  0  0  0
   55.7750   29.7650   44.0990 C   0  0  0  0  0  0  0  0  0  0  0  0
   56.1169   30.0422   45.1071 H   0  0  0  0  0  0  0  0  0  0  0  0
   54.7262   30.0709   43.9705 H   0  0  0  0  0  0  0  0  0  0  0  0
   55.8576   28.6757   43.9705 H   0  0  0  0  0  0  0  0  0  0  0  0
  1  2  1  0
  2  3  1  0
  3  4  2  0
  3  5  1  0
  2  6  2  3
  6  7  1  0
  6  8  1  0
  8  9  1  0
  8 10  2  3
 10 11  1  0
 10 12  1  0
 12 13  1  0
 12 14  1  0
 12 15  1  0
 15 16  1  0
 15 17  2  0
 17 18  1  0
 17 19  1  0
 19 20  1  0
 19 21  2  0
 21 22  1  0
 21 23  1  0
 23 24  1  0
 23 25  1  0
 23 26  1  0
 26 27  1  0
 26 28  2  3
 28 29  1  0
 28 30  1  0
 30 31  1  0
 30 32  1  0
 30 33  1  0
 33 34  1  0
 33 35  2  3
 35 36  1  0
 35 37  1  0
 37 38  1  0
 37 39  1  0
 37 40  1  0
 40 41  1  0
 40 42  1  0
 40 43  1  0
 43 44  1  0
 43 45  1  0
 43 46  1  0
 46 47  1  0
 46 48  1  0
 46 49  1  0
 49 50  1  0
 49 51  1  0
 49 52  1  0
M  CHG  1   5  -1
M  END
>  <UniqueID>  (56) 
55

>  <SMILES>  (56) 
CCCCCC=CCC=CC/C=C/C=C\CC=CC=CC(=O)[O-]

>  <Energy>  (56) 
26.332794825713933

>  <Genealogy>  (56) 
CCCCCC=CCC=CCC=CC=CCC=CC=CC(=O)[O-] (protonated)
CCCCCC=CCC=CC/C=C/C=C\CC=CC=CC(=O)[O-] (cis-trans isomerization)
CCCCCC=CCC=CC/C=C/C=C\CC=CC=CC(=O)[O-] (3D coordinates assigned)
CCCCCC=CCC=CC/C=C/C=C\CC=CC=CC(=O)[O-] (optimized conformer: 26.332794825713933 kcal/mol)

>  <smiles>  (56) 
CCCCCC=CCC=CCC=CC=CCC=CC=CC(=O)O

>  <score_type>  (56) 
oracle

>  <origin>  (56) 
adg

>  <m_score__min__energy>  (56) 
-10.49

>  <m_primary>  (56) 
energy

$$$$
56:0
     RDKit          3D

 36 37  0  0  0  0  0  0  0  0999 V2000
   54.3210   23.8910   45.7480 C   0  0  0  0  0  0  0  0  0  0  0  0
   55.4230   24.5810   46.4040 N   0  0  0  0  0  0  0  0  0  0  0  0
   56.1070   25.7140   45.8550 C   0  0  0  0  0  0  0  0  0  0  0  0
   57.2050   25.5260   45.2690 O   0  0  0  0  0  0  0  0  0  0  0  0
   55.5530   27.0380   45.9560 N   0  0  0  0  0  0  0  0  0  0  0  0
   56.2420   28.1880   45.5170 N   0  0  0  0  0  0  0  0  0  0  0  0
   55.8310   28.9670   44.5290 N   0  0  0  0  0  0  0  0  0  0  0  0
   56.7640   29.9230   44.3500 C   0  0  0  0  0  0  0  0  0  0  0  0
   56.6900   30.9390   43.2570 C   0  0  0  0  0  0  0  0  0  0  0  0
   57.8130   29.7310   45.2410 C   0  0  0  0  0  0  0  0  0  0  0  0
   59.1120   30.4890   45.2920 C   0  0  0  0  0  0  0  0  0  0  0  0
   58.8910   31.8880   45.8000 C   0  0  0  0  0  0  0  0  0  0  0  0
   58.5040   32.9130   44.9190 C   0  0  0  0  0  0  0  0  0  0  0  0
   58.3290   34.2180   45.3890 C   0  0  0  0  0  0  0  0  0  0  0  0
   58.5410   34.5110   46.7390 C   0  0  0  0  0  0  0  0  0  0  0  0
   58.9280   33.4990   47.6210 C   0  0  0  0  0  0  0  0  0  0  0  0
   59.1040   32.1920   47.1560 C   0  0  0  0  0  0  0  0  0  0  0  0
   57.4390   28.6140   45.9780 C   0  0  0  0  0  0  0  0  0  0  0  0
   58.2370   27.9180   47.0420 C   0  0  0  0  0  0  0  0  0  0  0  0
   53.6476   23.4694   46.5088 H   0  0  0  0  0  0  0  0  0  0  0  0
   53.7649   24.6025   45.1199 H   0  0  0  0  0  0  0  0  0  0  0  0
   54.7181   23.0800   45.1199 H   0  0  0  0  0  0  0  0  0  0  0  0
   54.6040   27.1500   46.3730 H   0  0  0  0  0  0  0  0  0  0  0  0
   56.6167   31.9450   43.6959 H   0  0  0  0  0  0  0  0  0  0  0  0
   57.5952   30.8752   42.6352 H   0  0  0  0  0  0  0  0  0  0  0  0
   55.8036   30.7448   42.6352 H   0  0  0  0  0  0  0  0  0  0  0  0
   59.8089   29.9666   45.9639 H   0  0  0  0  0  0  0  0  0  0  0  0
   59.5303   30.5433   44.2761 H   0  0  0  0  0  0  0  0  0  0  0  0
   58.3382   32.6872   43.8553 H   0  0  0  0  0  0  0  0  0  0  0  0
   58.0240   35.0153   44.6953 H   0  0  0  0  0  0  0  0  0  0  0  0
   58.4032   35.5384   47.1071 H   0  0  0  0  0  0  0  0  0  0  0  0
   59.0946   33.7308   48.6833 H   0  0  0  0  0  0  0  0  0  0  0  0
   59.4103   31.3987   47.8538 H   0  0  0  0  0  0  0  0  0  0  0  0
   57.8779   28.2312   48.0335 H   0  0  0  0  0  0  0  0  0  0  0  0
   58.1186   26.8295   46.9361 H   0  0  0  0  0  0  0  0  0  0  0  0
   59.2993   28.1833   46.9361 H   0  0  0  0  0  0  0  0  0  0  0  0
  1  2  1  0
  2  3  1  0
  3  4  2  0
  3  5  1  0
  5  6  1  0
  6  7  1  0
  7  8  2  0
  8  9  1  0
  8 10  1  0
 10 11  1  0
 11 12  1  0
 12 13  2  0
 13 14  1  0
 14 15  2  0
 15 16  1  0
 16 17  2  0
 10 18  2  0
 18 19  1  0
 18  6  1  0
 17 12  1  0
  1 20  1  0
  1 21  1  0
  1 22  1  0
  5 23  1  0
  9 24  1  0
  9 25  1  0
  9 26  1  0
 11 27  1  0
 11 28  1  0
 13 29  1  0
 14 30  1  0
 15 31  1  0
 16 32  1  0
 17 33  1  0
 19 34  1  0
 19 35  1  0
 19 36  1  0
M  CHG  1   2  -1
M  END
>  <UniqueID>  (57) 
56

>  <SMILES>  (57) 
C[N-]C(=O)Nn1nc(C)c(Cc2ccccc2)c1C

>  <Energy>  (57) 
61.335019182886896

>  <Genealogy>  (57) 
C[N-]C(=O)Nn1nc(C)c(Cc2ccccc2)c1C (protonated)
C[N-]C(=O)Nn1nc(C)c(Cc2ccccc2)c1C (3D coordinates assigned)
C[N-]C(=O)Nn1nc(C)c(Cc2ccccc2)c1C (optimized conformer: 61.335019182886896 kcal/mol)

>  <smiles>  (57) 
CNC(=O)Nn1nc(C)c(Cc2ccccc2)c1C

>  <score_type>  (57) 
oracle

>  <origin>  (57) 
adg

>  <m_score__min__energy>  (57) 
-9.5800000000000001

>  <m_primary>  (57) 
energy

$$$$
57:0
     RDKit          3D

 48 50  0  0  0  0  0  0  0  0999 V2000
   57.7800   27.4710   43.8280 C   0  0  0  0  0  0  0  0  0  0  0  0
   56.9450   27.8810   44.9600 N   0  0  0  0  0  0  0  0  0  0  0  0
   56.0890   29.0730   44.8560 C   0  0  0  0  0  0  0  0  0  0  0  0
   56.7840   30.1480   44.0630 C   0  0  0  0  0  0  0  0  0  0  0  0
   57.8050   30.9190   44.6460 C   0  0  0  0  0  0  0  0  0  0  0  0
   58.4330   31.9270   43.9060 C   0  0  0  0  0  0  0  0  0  0  0  0
   58.0470   32.1730   42.5860 C   0  0  0  0  0  0  0  0  0  0  0  0
   57.0310   31.4120   42.0020 C   0  0  0  0  0  0  0  0  0  0  0  0
   56.4000   30.4030   42.7370 C   0  0  0  0  0  0  0  0  0  0  0  0
   56.9370   27.0820   46.1590 C   0  0  0  0  0  0  0  0  0  0  0  0
   55.9500   26.3410   46.4160 O   0  0  0  0  0  0  0  0  0  0  0  0
   58.0310   27.1660   47.0820 N   0  0  0  0  0  0  0  0  0  0  0  0
   58.9820   28.2360   47.1860 C   0  0  0  0  0  0  0  0  0  0  0  0
   59.8110   28.5050   46.0920 C   0  0  0  0  0  0  0  0  0  0  0  0
   60.7670   29.5230   46.1570 C   0  0  0  0  0  0  0  0  0  0  0  0
   60.9190   30.2840   47.3320 C   0  0  0  0  0  0  0  0  0  0  0  0
   61.8910   31.3410   47.4340 N   0  0  0  0  0  0  0  0  0  0  0  0
   61.5020   32.9810   47.8450 S   0  0  0  0  0  0  0  0  0  0  0  0
   61.3490   33.1000   49.3350 O   0  0  0  0  0  0  0  0  0  0  0  0
   62.6220   33.8790   47.4000 O   0  0  0  0  0  0  0  0  0  0  0  0
   59.9810   33.4340   47.0810 C   0  0  0  0  0  0  0  0  0  0  0  0
   59.9960   34.2970   45.9770 C   0  0  0  0  0  0  0  0  0  0  0  0
   58.7960   34.6860   45.3750 C   0  0  0  0  0  0  0  0  0  0  0  0
   57.5760   34.2140   45.8720 C   0  0  0  0  0  0  0  0  0  0  0  0
   57.5590   33.3450   46.9680 C   0  0  0  0  0  0  0  0  0  0  0  0
   58.7580   32.9520   47.5720 C   0  0  0  0  0  0  0  0  0  0  0  0
   60.1040   29.9920   48.4370 C   0  0  0  0  0  0  0  0  0  0  0  0
   59.1470   28.9750   48.3700 C   0  0  0  0  0  0  0  0  0  0  0  0
   58.7082   27.0152   44.2032 H   0  0  0  0  0  0  0  0  0  0  0  0
   57.2335   26.7388   43.2155 H   0  0  0  0  0  0  0  0  0  0  0  0
   58.0252   28.3512   43.2155 H   0  0  0  0  0  0  0  0  0  0  0  0
   55.1488   28.8018   44.3535 H   0  0  0  0  0  0  0  0  0  0  0  0
   55.8800   29.4527   45.8670 H   0  0  0  0  0  0  0  0  0  0  0  0
   58.1106   30.7295   45.6856 H   0  0  0  0  0  0  0  0  0  0  0  0
   59.2326   32.5272   44.3647 H   0  0  0  0  0  0  0  0  0  0  0  0
   58.5429   32.9657   42.0065 H   0  0  0  0  0  0  0  0  0  0  0  0
   56.7270   31.6067   40.9629 H   0  0  0  0  0  0  0  0  0  0  0  0
   55.5997   29.8069   42.2742 H   0  0  0  0  0  0  0  0  0  0  0  0
   59.7098   27.9102   45.1722 H   0  0  0  0  0  0  0  0  0  0  0  0
   61.4044   29.7308   45.2849 H   0  0  0  0  0  0  0  0  0  0  0  0
   62.9030   31.1090   47.3210 H   0  0  0  0  0  0  0  0  0  0  0  0
   60.9536   34.6688   45.5836 H   0  0  0  0  0  0  0  0  0  0  0  0
   58.8107   35.3643   44.5091 H   0  0  0  0  0  0  0  0  0  0  0  0
   56.6318   34.5258   45.4015 H   0  0  0  0  0  0  0  0  0  0  0  0
   56.6005   32.9698   47.3559 H   0  0  0  0  0  0  0  0  0  0  0  0
   58.7421   32.2655   48.4314 H   0  0  0  0  0  0  0  0  0  0  0  0
   60.2196   30.5697   49.3659 H   0  0  0  0  0  0  0  0  0  0  0  0
   58.5212   28.7525   49.2468 H   0  0  0  0  0  0  0  0  0  0  0  0
  1  2  1  0
  2  3  1  0
  3  4  1  0
  4  5  2  0
  5  6  1  0
  6  7  2  0
  7  8  1  0
  8  9  2  0
  2 10  1  0
 10 11  2  0
 10 12  1  0
 12 13  1  0
 13 14  2  0
 14 15  1  0
 15 16  2  0
 16 17  1  0
 17 18  1  0
 18 19  2  0
 18 20  2  0
 18 21  1  0
 21 22  2  0
 22 23  1  0
 23 24  2  0
 24 25  1  0
 25 26  2  0
 16 27  1  0
 27 28  2  0
  9  4  1  0
 28 13  1  0
 26 21  1  0
  1 29  1  0
  1 30  1  0
  1 31  1  0
  3 32  1  0
  3 33  1  0
  5 34  1  0
  6 35  1  0
  7 36  1  0
  8 37  1  0
  9 38  1  0
 14 39  1  0
 15 40  1  0
 17 41  1  0
 22 42  1  0
 23 43  1  0
 24 44  1  0
 25 45  1  0
 26 46  1  0
 27 47  1  0
 28 48  1  0
M  CHG  1  12  -1
M  END
>  <UniqueID>  (58) 
57

>  <SMILES>  (58) 
CN(Cc1ccccc1)C(=O)[N-]c1ccc(NS(=O)(=O)c2ccccc2)cc1

>  <Energy>  (58) 
53.37298096201574

>  <Genealogy>  (58) 
CN(Cc1ccccc1)C(=O)[N-]c1ccc(NS(=O)(=O)c2ccccc2)cc1 (protonated)
CN(Cc1ccccc1)C(=O)[N-]c1ccc(NS(=O)(=O)c2ccccc2)cc1 (3D coordinates assigned)
CN(Cc1ccccc1)C(=O)[N-]c1ccc(NS(=O)(=O)c2ccccc2)cc1 (optimized conformer: 53.37298096201574 kcal/mol)

>  <smiles>  (58) 
CN(Cc1ccccc1)C(=O)Nc1ccc(NS(=O)(=O)c2ccccc2)cc1

>  <score_type>  (58) 
oracle

>  <origin>  (58) 
adg

>  <m_score__min__energy>  (58) 
-10.470000000000001

>  <m_primary>  (58) 
energy

$$$$
58:0
     RDKit          3D

 44 46  0  0  0  0  0  0  0  0999 V2000
   59.4870   27.9260   45.2590 O   0  0  0  0  0  0  0  0  0  0  0  0
   58.3870   27.5460   44.7730 C   0  0  0  0  0  0  0  0  0  0  0  0
   57.4170   28.5200   44.3400 N   0  0  0  0  0  0  0  0  0  0  0  0
   57.5710   29.9380   44.5220 C   0  0  0  0  0  0  0  0  0  0  0  0
   57.7780   30.4450   45.8130 C   0  0  0  0  0  0  0  0  0  0  0  0
   57.9550   31.8170   46.0150 C   0  0  0  0  0  0  0  0  0  0  0  0
   57.9610   32.7020   44.9250 C   0  0  0  0  0  0  0  0  0  0  0  0
   58.1320   34.1920   45.1450 C   0  0  0  0  0  0  0  0  0  0  0  0
   59.2340   34.5680   46.0600 N   0  0  0  0  0  0  0  0  0  0  0  0
   60.4390   33.7440   45.9690 C   0  0  0  0  0  0  0  0  0  0  0  0
   61.2220   34.0110   47.2460 C   0  0  0  0  0  0  0  0  0  0  0  0
   60.2090   34.5820   48.2320 C   0  0  0  0  0  0  0  0  0  0  0  0
   58.8870   34.6220   47.4800 C   0  0  0  0  0  0  0  0  0  0  0  0
   57.7550   32.1930   43.6320 C   0  0  0  0  0  0  0  0  0  0  0  0
   57.5770   30.8220   43.4290 C   0  0  0  0  0  0  0  0  0  0  0  0
   58.1210   26.0910   44.6530 C   0  0  0  0  0  0  0  0  0  0  0  0
   58.4940   25.1910   45.6670 C   0  0  0  0  0  0  0  0  0  0  0  0
   58.2280   23.8250   45.5360 C   0  0  0  0  0  0  0  0  0  0  0  0
   57.5960   23.3280   44.3850 C   0  0  0  0  0  0  0  0  0  0  0  0
   57.2660   21.8600   44.2670 C   0  0  0  0  0  0  0  0  0  0  0  0
   57.9070   21.1680   45.2780 F   0  0  0  0  0  0  0  0  0  0  0  0
   55.9020   21.6560   44.3740 F   0  0  0  0  0  0  0  0  0  0  0  0
   57.6840   21.3630   43.0450 F   0  0  0  0  0  0  0  0  0  0  0  0
   57.1870   24.2310   43.3900 C   0  0  0  0  0  0  0  0  0  0  0  0
   57.4500   25.5970   43.5210 C   0  0  0  0  0  0  0  0  0  0  0  0
   56.5720   28.2010   43.8180 H   0  0  0  0  0  0  0  0  0  0  0  0
   57.8013   29.7587   46.6723 H   0  0  0  0  0  0  0  0  0  0  0  0
   58.0905   32.2059   47.0350 H   0  0  0  0  0  0  0  0  0  0  0  0
   58.3242   34.6611   44.1688 H   0  0  0  0  0  0  0  0  0  0  0  0
   57.2042   34.5403   45.6224 H   0  0  0  0  0  0  0  0  0  0  0  0
   60.1706   32.6795   45.8999 H   0  0  0  0  0  0  0  0  0  0  0  0
   61.0296   33.9884   45.0737 H   0  0  0  0  0  0  0  0  0  0  0  0
   61.6531   33.0768   47.6352 H   0  0  0  0  0  0  0  0  0  0  0  0
   62.0597   34.7030   47.0743 H   0  0  0  0  0  0  0  0  0  0  0  0
   60.1279   33.9348   49.1177 H   0  0  0  0  0  0  0  0  0  0  0  0
   60.5052   35.5792   48.5895 H   0  0  0  0  0  0  0  0  0  0  0  0
   58.2637   33.7584   47.7550 H   0  0  0  0  0  0  0  0  0  0  0  0
   58.3111   35.5275   47.7217 H   0  0  0  0  0  0  0  0  0  0  0  0
   57.7337   32.8791   42.7725 H   0  0  0  0  0  0  0  0  0  0  0  0
   57.4409   30.4327   42.4092 H   0  0  0  0  0  0  0  0  0  0  0  0
   58.9989   25.5647   46.5700 H   0  0  0  0  0  0  0  0  0  0  0  0
   58.5163   23.1336   46.3415 H   0  0  0  0  0  0  0  0  0  0  0  0
   56.6557   23.8601   42.5011 H   0  0  0  0  0  0  0  0  0  0  0  0
   57.1291   26.2921   42.7311 H   0  0  0  0  0  0  0  0  0  0  0  0
  1  2  2  0
  2  3  1  0
  3  4  1  0
  4  5  2  0
  5  6  1  0
  6  7  2  0
  7  8  1  0
  8  9  1  0
  9 10  1  0
 10 11  1  0
 11 12  1  0
 12 13  1  0
  7 14  1  0
 14 15  2  0
  2 16  1  0
 16 17  2  0
 17 18  1  0
 18 19  2  0
 19 20  1  0
 20 21  1  0
 20 22  1  0
 20 23  1  0
 19 24  1  0
 24 25  2  0
 15  4  1  0
 25 16  1  0
 13  9  1  0
  3 26  1  0
  5 27  1  0
  6 28  1  0
  8 29  1  0
  8 30  1  0
 10 31  1  0
 10 32  1  0
 11 33  1  0
 11 34  1  0
 12 35  1  0
 12 36  1  0
 13 37  1  0
 13 38  1  0
 14 39  1  0
 15 40  1  0
 17 41  1  0
 18 42  1  0
 24 43  1  0
 25 44  1  0
M  END
>  <UniqueID>  (59) 
58

>  <SMILES>  (59) 
O=C(Nc1ccc(CN2CCCC2)cc1)c1ccc(C(F)(F)F)cc1

>  <Energy>  (59) 
59.496820637193146

>  <Genealogy>  (59) 
O=C(Nc1ccc(CN2CCCC2)cc1)c1ccc(C(F)(F)F)cc1 (3D coordinates assigned)
O=C(Nc1ccc(CN2CCCC2)cc1)c1ccc(C(F)(F)F)cc1 (nonaromatic ring conformer: 59.496820637193146 kcal/mol)

>  <smiles>  (59) 
O=C(Nc1ccc(CN2CCCC2)cc1)c1ccc(C(F)(F)F)cc1

>  <score_type>  (59) 
oracle

>  <origin>  (59) 
adg

>  <m_score__min__energy>  (59) 
-7.1500000000000004

>  <m_primary>  (59) 
energy

$$$$
59:0
     RDKit          3D

 39 41  0  0  0  0  0  0  0  0999 V2000
   55.6920   23.9370   48.2980 O   0  0  0  0  0  0  0  0  0  0  0  0
   55.9500   24.4480   47.1770 C   0  0  0  0  0  0  0  0  0  0  0  0
   56.1940   25.8600   47.1070 N   0  0  0  0  0  0  0  0  0  0  0  0
   57.2360   26.5060   46.3580 C   0  0  0  0  0  0  0  0  0  0  0  0
   58.5820   26.1270   46.4990 C   0  0  0  0  0  0  0  0  0  0  0  0
   59.5730   26.7630   45.7490 C   0  0  0  0  0  0  0  0  0  0  0  0
   59.2310   27.7690   44.8430 C   0  0  0  0  0  0  0  0  0  0  0  0
   57.8860   28.1430   44.6710 C   0  0  0  0  0  0  0  0  0  0  0  0
   57.4950   29.1630   43.7420 N   0  0  0  0  0  0  0  0  0  0  0  0
   56.8310   30.7060   44.1680 S   0  0  0  0  0  0  0  0  0  0  0  0
   56.7320   31.5570   42.9330 O   0  0  0  0  0  0  0  0  0  0  0  0
   55.4700   30.5280   44.7790 O   0  0  0  0  0  0  0  0  0  0  0  0
   57.8860   31.4890   45.3390 C   0  0  0  0  0  0  0  0  0  0  0  0
   58.4980   30.7370   46.3540 C   0  0  0  0  0  0  0  0  0  0  0  0
   59.3450   31.3620   47.2750 C   0  0  0  0  0  0  0  0  0  0  0  0
   59.5860   32.7350   47.1860 C   0  0  0  0  0  0  0  0  0  0  0  0
   58.9840   33.4860   46.1730 C   0  0  0  0  0  0  0  0  0  0  0  0
   58.1380   32.8650   45.2490 C   0  0  0  0  0  0  0  0  0  0  0  0
   56.8930   27.5010   45.4290 C   0  0  0  0  0  0  0  0  0  0  0  0
   55.5590   27.8600   45.2640 O   0  0  0  0  0  0  0  0  0  0  0  0
   56.0640   23.5730   45.9840 C   0  0  0  0  0  0  0  0  0  0  0  0
   55.3160   23.8600   44.8270 C   0  0  0  0  0  0  0  0  0  0  0  0
   55.4180   23.0450   43.6970 C   0  0  0  0  0  0  0  0  0  0  0  0
   56.2750   21.9420   43.7020 C   0  0  0  0  0  0  0  0  0  0  0  0
   56.3750   21.1340   42.5770 O   0  0  0  0  0  0  0  0  0  0  0  0
   57.0310   21.6520   44.8410 C   0  0  0  0  0  0  0  0  0  0  0  0
   56.9320   22.4610   45.9790 C   0  0  0  0  0  0  0  0  0  0  0  0
   57.6850   22.1390   47.1040 O   0  0  0  0  0  0  0  0  0  0  0  0
   58.8555   25.3268   47.2025 H   0  0  0  0  0  0  0  0  0  0  0  0
   60.6263   26.4708   45.8721 H   0  0  0  0  0  0  0  0  0  0  0  0
   60.0174   28.2716   44.2608 H   0  0  0  0  0  0  0  0  0  0  0  0
   58.3113   29.6553   46.4251 H   0  0  0  0  0  0  0  0  0  0  0  0
   59.8222   30.7713   48.0708 H   0  0  0  0  0  0  0  0  0  0  0  0
   60.2498   33.2251   47.9135 H   0  0  0  0  0  0  0  0  0  0  0  0
   59.1758   34.5668   46.1024 H   0  0  0  0  0  0  0  0  0  0  0  0
   57.6691   33.4576   44.4496 H   0  0  0  0  0  0  0  0  0  0  0  0
   54.6462   24.7324   44.8123 H   0  0  0  0  0  0  0  0  0  0  0  0
   54.8219   23.2725   42.8010 H   0  0  0  0  0  0  0  0  0  0  0  0
   57.7069   20.7841   44.8433 H   0  0  0  0  0  0  0  0  0  0  0  0
  1  2  2  0
  2  3  1  0
  3  4  1  0
  4  5  2  0
  5  6  1  0
  6  7  2  0
  7  8  1  0
  8  9  1  0
  9 10  1  0
 10 11  2  0
 10 12  2  0
 10 13  1  0
 13 14  2  0
 14 15  1  0
 15 16  2  0
 16 17  1  0
 17 18  2  0
  8 19  2  0
 19 20  1  0
  2 21  1  0
 21 22  2  0
 22 23  1  0
 23 24  2  0
 24 25  1  0
 24 26  1  0
 26 27  2  0
 27 28  1  0
 19  4  1  0
 27 21  1  0
 18 13  1  0
  5 29  1  0
  6 30  1  0
  7 31  1  0
 14 32  1  0
 15 33  1  0
 16 34  1  0
 17 35  1  0
 18 36  1  0
 22 37  1  0
 23 38  1  0
 26 39  1  0
M  CHG  5   3  -1   9  -1  20  -1  25  -1  28  -1
M  END
>  <UniqueID>  (60) 
59

>  <SMILES>  (60) 
O=C([N-]c1cccc([N-]S(=O)(=O)c2ccccc2)c1[O-])c1ccc([O-])cc1[O-]

>  <Energy>  (60) 
55.06574493815428

>  <Genealogy>  (60) 
O=C([N-]c1cccc([N-]S(=O)(=O)c2ccccc2)c1[O-])c1ccc([O-])cc1[O-] (protonated)
O=C([N-]c1cccc([N-]S(=O)(=O)c2ccccc2)c1[O-])c1ccc([O-])cc1[O-] (3D coordinates assigned)
O=C([N-]c1cccc([N-]S(=O)(=O)c2ccccc2)c1[O-])c1ccc([O-])cc1[O-] (optimized conformer: 55.06574493815428 kcal/mol)

>  <smiles>  (60) 
O=C(Nc1cccc(NS(=O)(=O)c2ccccc2)c1O)c1ccc(O)cc1O

>  <score_type>  (60) 
oracle

>  <origin>  (60) 
adg

>  <m_score__min__energy>  (60) 
-19.829999999999998

>  <m_primary>  (60) 
energy

$$$$
60:0
     RDKit          3D

 47 48  0  0  0  0  0  0  0  0999 V2000
   62.0080   34.2470   48.3080 H   0  0  0  0  0  0  0  0  0  0  0  0
   62.7950   33.5740   48.4470 N   0  0  0  0  0  0  0  0  0  0  0  0
   62.7300   32.3270   48.0960 C   0  0  0  0  0  0  0  0  0  0  0  0
   61.5890   31.4730   48.5190 C   0  0  0  0  0  0  0  0  0  0  0  0
   60.9100   31.7250   49.7250 C   0  0  0  0  0  0  0  0  0  0  0  0
   61.2326   32.5558   50.3697 H   0  0  0  0  0  0  0  0  0  0  0  0
   59.8290   30.9280   50.1100 C   0  0  0  0  0  0  0  0  0  0  0  0
   59.3054   31.1339   51.0552 H   0  0  0  0  0  0  0  0  0  0  0  0
   59.4110   29.8710   49.2990 C   0  0  0  0  0  0  0  0  0  0  0  0
   58.5541   29.2531   49.6055 H   0  0  0  0  0  0  0  0  0  0  0  0
   60.0780   29.5910   48.0930 C   0  0  0  0  0  0  0  0  0  0  0  0
   59.6110   28.4750   47.2330 C   0  0  0  0  0  0  0  0  0  0  0  0
   60.4600   27.7880   46.5970 O   0  0  0  0  0  0  0  0  0  0  0  0
   58.2100   28.1660   47.1060 N   0  0  0  0  0  0  0  0  0  0  0  0
   57.4960   28.8460   47.4500 H   0  0  0  0  0  0  0  0  0  0  0  0
   57.7350   26.9850   46.3840 C   0  0  0  0  0  0  0  0  0  0  0  0
   58.3461   26.8480   45.4797 H   0  0  0  0  0  0  0  0  0  0  0  0
   57.8228   26.1129   47.0486 H   0  0  0  0  0  0  0  0  0  0  0  0
   56.2960   27.1330   45.9840 C   0  0  0  0  0  0  0  0  0  0  0  0
   55.4600   26.2250   46.2500 O   0  0  0  0  0  0  0  0  0  0  0  0
   55.8930   28.2950   45.2470 N   0  0  0  0  0  0  0  0  0  0  0  0
   56.7620   29.0200   44.3260 C   0  0  0  0  0  0  0  0  0  0  0  0
   57.7823   29.0414   44.7364 H   0  0  0  0  0  0  0  0  0  0  0  0
   56.7470   28.5058   43.3537 H   0  0  0  0  0  0  0  0  0  0  0  0
   56.2730   30.4610   44.1230 C   0  0  0  0  0  0  0  0  0  0  0  0
   56.2012   30.6615   43.0438 H   0  0  0  0  0  0  0  0  0  0  0  0
   55.2940   30.5567   44.6153 H   0  0  0  0  0  0  0  0  0  0  0  0
   57.2030   31.4740   44.7440 C   0  0  0  0  0  0  0  0  0  0  0  0
   57.4170   32.7130   44.1180 C   0  0  0  0  0  0  0  0  0  0  0  0
   56.9011   32.9469   43.1751 H   0  0  0  0  0  0  0  0  0  0  0  0
   58.2850   33.6520   44.6900 C   0  0  0  0  0  0  0  0  0  0  0  0
   58.4492   34.6195   44.1929 H   0  0  0  0  0  0  0  0  0  0  0  0
   58.9450   33.3650   45.8920 C   0  0  0  0  0  0  0  0  0  0  0  0
   60.0440   34.5480   46.6000 S   0  0  0  0  0  0  0  0  0  0  0  0
   59.7220   35.9170   46.0740 O   0  0  0  0  0  0  0  0  0  0  0  0
   61.4650   34.2090   46.2340 O   0  0  0  0  0  0  0  0  0  0  0  0
   59.8720   34.5400   48.3200 N   0  0  0  0  0  0  0  0  0  0  0  0
   60.7240   34.0760   48.7000 H   0  0  0  0  0  0  0  0  0  0  0  0
   58.7090   32.1420   46.5370 C   0  0  0  0  0  0  0  0  0  0  0  0
   59.2038   31.9223   47.4945 H   0  0  0  0  0  0  0  0  0  0  0  0
   57.8450   31.2000   45.9650 C   0  0  0  0  0  0  0  0  0  0  0  0
   57.6675   30.2408   46.4733 H   0  0  0  0  0  0  0  0  0  0  0  0
   61.1650   30.4020   47.7090 C   0  0  0  0  0  0  0  0  0  0  0  0
   61.6890   30.1956   46.7641 H   0  0  0  0  0  0  0  0  0  0  0  0
   63.7710   31.7870   47.2750 N   0  0  0  0  0  0  0  0  0  0  0  0
   64.5420   32.4030   46.9310 H   0  0  0  0  0  0  0  0  0  0  0  0
   63.7990   30.7720   47.0230 H   0  0  0  0  0  0  0  0  0  0  0  0
  1  2  1  0
  2  3  2  0
  3  4  1  0
  4  5  2  0
  5  6  1  0
  5  7  1  0
  7  8  1  0
  7  9  2  0
  9 10  1  0
  9 11  1  0
 11 12  1  0
 12 13  2  0
 12 14  1  0
 14 15  1  0
 14 16  1  0
 16 17  1  0
 16 18  1  0
 16 19  1  0
 19 20  2  0
 19 21  1  0
 21 22  1  0
 22 23  1  0
 22 24  1  0
 22 25  1  0
 25 26  1  0
 25 27  1  0
 25 28  1  0
 28 29  2  0
 29 30  1  0
 29 31  1  0
 31 32  1  0
 31 33  2  0
 33 34  1  0
 34 35  2  0
 34 36  2  0
 34 37  1  0
 37 38  1  0
 33 39  1  0
 39 40  1  0
 39 41  2  0
 41 42  1  0
 11 43  2  0
 43 44  1  0
  3 45  1  0
 45 46  1  0
 45 47  1  0
 43  4  1  0
 41 28  1  0
M  CHG  2  21  -1  37  -1
M  END
>  <UniqueID>  (61) 
60

>  <SMILES>  (61) 
[H]/N=C(/N)c1cccc(C(=O)NCC(=O)[N-]CCc2ccc(S([NH-])(=O)=O)cc2)c1

>  <Energy>  (61) 
43.094177584393314

>  <Genealogy>  (61) 
N=C(N)c1cccc(C(=O)NCC(=O)[N-]CCc2ccc(S([NH-])(=O)=O)cc2)c1 (protonated)
[H]/N=C(/N)c1cccc(C(=O)NCC(=O)[N-]CCc2ccc(S([NH-])(=O)=O)cc2)c1 (cis-trans isomerization)
[H]/N=C(/N)c1cccc(C(=O)NCC(=O)[N-]CCc2ccc(S([NH-])(=O)=O)cc2)c1 (3D coordinates assigned)
[H]/N=C(/N)c1cccc(C(=O)NCC(=O)[N-]CCc2ccc(S([NH-])(=O)=O)cc2)c1 (optimized conformer: 43.094177584393314 kcal/mol)

>  <smiles>  (61) 
N=C(N)c1cccc(C(=O)NCC(=O)NCCc2ccc(S(N)(=O)=O)cc2)c1

>  <score_type>  (61) 
oracle

>  <origin>  (61) 
adg

>  <m_score__min__energy>  (61) 
-12.17

>  <m_primary>  (61) 
energy

$$$$
61:0
     RDKit          3D

 54 56  0  0  0  0  0  0  0  0999 V2000
   58.4940   31.2740   50.3630 C   0  0  0  0  0  0  0  0  0  0  0  0
   59.5750   31.8010   49.5070 N   0  0  1  0  0  0  0  0  0  0  0  0
   59.4130   33.2540   49.2490 C   0  0  0  0  0  0  0  0  0  0  0  0
   59.0480   33.5880   47.8160 C   0  0  0  0  0  0  0  0  0  0  0  0
   59.9520   34.2800   46.9920 C   0  0  0  0  0  0  0  0  0  0  0  0
   59.6170   34.5790   45.6680 C   0  0  0  0  0  0  0  0  0  0  0  0
   58.3730   34.1990   45.1580 C   0  0  0  0  0  0  0  0  0  0  0  0
   57.4610   33.5230   45.9730 C   0  0  0  0  0  0  0  0  0  0  0  0
   57.7940   33.2180   47.2960 C   0  0  0  0  0  0  0  0  0  0  0  0
   60.9150   31.4840   50.0630 C   0  0  0  0  0  0  0  0  0  0  0  0
   62.0320   32.0720   49.2190 C   0  0  0  0  0  0  0  0  0  0  0  0
   62.9790   32.8970   49.8520 C   0  0  0  0  0  0  0  0  0  0  0  0
   64.0190   33.4770   49.1270 C   0  0  0  0  0  0  0  0  0  0  0  0
   64.1260   33.2530   47.7580 C   0  0  0  0  0  0  0  0  0  0  0  0
   63.2010   32.4350   47.1100 C   0  0  0  0  0  0  0  0  0  0  0  0
   62.1600   31.8100   47.8250 C   0  0  0  0  0  0  0  0  0  0  0  0
   61.1540   30.9780   47.0550 C   0  0  0  0  0  0  0  0  0  0  0  0
   60.7950   29.7790   47.8160 N   0  0  0  0  0  0  0  0  0  0  0  0
   59.1820   29.2590   47.4160 S   0  0  0  0  0  0  0  0  0  0  0  0
   58.7480   28.2220   48.4150 O   0  0  0  0  0  0  0  0  0  0  0  0
   58.2140   30.4110   47.4630 O   0  0  0  0  0  0  0  0  0  0  0  0
   59.1580   28.5230   45.7870 C   0  0  0  0  0  0  0  0  0  0  0  0
   58.2940   29.3240   44.8540 C   0  0  0  0  0  0  0  0  0  0  0  0
   56.9830   28.9060   44.5660 C   0  0  0  0  0  0  0  0  0  0  0  0
   56.1590   29.6830   43.7440 C   0  0  0  0  0  0  0  0  0  0  0  0
   56.6360   30.8820   43.2090 C   0  0  0  0  0  0  0  0  0  0  0  0
   57.9380   31.3060   43.4920 C   0  0  0  0  0  0  0  0  0  0  0  0
   58.7660   30.5310   44.3110 C   0  0  0  0  0  0  0  0  0  0  0  0
   58.7661   31.4066   51.4205 H   0  0  0  0  0  0  0  0  0  0  0  0
   57.5616   31.8186   50.1532 H   0  0  0  0  0  0  0  0  0  0  0  0
   58.3488   30.2040   50.1532 H   0  0  0  0  0  0  0  0  0  0  0  0
   59.4780   31.3290   48.5760 H   0  0  0  0  0  0  0  0  0  0  0  0
   58.6181   33.6357   49.9065 H   0  0  0  0  0  0  0  0  0  0  0  0
   60.3879   33.7234   49.4472 H   0  0  0  0  0  0  0  0  0  0  0  0
   60.9295   34.5884   47.3913 H   0  0  0  0  0  0  0  0  0  0  0  0
   60.3335   35.1139   45.0273 H   0  0  0  0  0  0  0  0  0  0  0  0
   58.1115   34.4319   44.1152 H   0  0  0  0  0  0  0  0  0  0  0  0
   56.4791   33.2303   45.5727 H   0  0  0  0  0  0  0  0  0  0  0  0
   57.0723   32.6863   47.9335 H   0  0  0  0  0  0  0  0  0  0  0  0
   60.9841   31.8954   51.0808 H   0  0  0  0  0  0  0  0  0  0  0  0
   61.0316   30.3902   50.0685 H   0  0  0  0  0  0  0  0  0  0  0  0
   62.8981   33.0870   50.9325 H   0  0  0  0  0  0  0  0  0  0  0  0
   64.7565   34.1131   49.6384 H   0  0  0  0  0  0  0  0  0  0  0  0
   64.9408   33.7214   47.1864 H   0  0  0  0  0  0  0  0  0  0  0  0
   63.2852   32.2753   46.0249 H   0  0  0  0  0  0  0  0  0  0  0  0
   60.2495   31.5776   46.8751 H   0  0  0  0  0  0  0  0  0  0  0  0
   61.6013   30.6727   46.0975 H   0  0  0  0  0  0  0  0  0  0  0  0
   60.1836   28.4903   45.3906 H   0  0  0  0  0  0  0  0  0  0  0  0
   58.7458   27.5061   45.8648 H   0  0  0  0  0  0  0  0  0  0  0  0
   56.6033   27.9641   44.9886 H   0  0  0  0  0  0  0  0  0  0  0  0
   55.1352   29.3494   43.5191 H   0  0  0  0  0  0  0  0  0  0  0  0
   55.9869   31.4930   42.5646 H   0  0  0  0  0  0  0  0  0  0  0  0
   58.3118   32.2505   43.0699 H   0  0  0  0  0  0  0  0  0  0  0  0
   59.7899   30.8676   44.5306 H   0  0  0  0  0  0  0  0  0  0  0  0
  1  2  1  0
  2  3  1  0
  3  4  1  0
  4  5  2  0
  5  6  1  0
  6  7  2  0
  7  8  1  0
  8  9  2  0
  2 10  1  0
 10 11  1  0
 11 12  2  0
 12 13  1  0
 13 14  2  0
 14 15  1  0
 15 16  2  0
 16 17  1  0
 17 18  1  0
 18 19  1  0
 19 20  2  0
 19 21  2  0
 19 22  1  0
 22 23  1  0
 23 24  2  0
 24 25  1  0
 25 26  2  0
 26 27  1  0
 27 28  2  0
  9  4  1  0
 16 11  1  0
 28 23  1  0
  1 29  1  0
  1 30  1  0
  1 31  1  0
  2 32  1  6
  3 33  1  0
  3 34  1  0
  5 35  1  0
  6 36  1  0
  7 37  1  0
  8 38  1  0
  9 39  1  0
 10 40  1  0
 10 41  1  0
 12 42  1  0
 13 43  1  0
 14 44  1  0
 15 45  1  0
 17 46  1  0
 17 47  1  0
 22 48  1  0
 22 49  1  0
 24 50  1  0
 25 51  1  0
 26 52  1  0
 27 53  1  0
 28 54  1  0
M  CHG  2   2   1  18  -1
M  END
>  <UniqueID>  (62) 
61

>  <SMILES>  (62) 
C[N@@H+](Cc1ccccc1)Cc1ccccc1C[N-]S(=O)(=O)Cc1ccccc1

>  <Energy>  (62) 
54.42390097408776

>  <Genealogy>  (62) 
C[NH+](Cc1ccccc1)Cc1ccccc1C[N-]S(=O)(=O)Cc1ccccc1 (protonated)
C[N@@H+](Cc1ccccc1)Cc1ccccc1C[N-]S(=O)(=O)Cc1ccccc1 (chirality)
C[N@@H+](Cc1ccccc1)Cc1ccccc1C[N-]S(=O)(=O)Cc1ccccc1 (3D coordinates assigned)
C[N@@H+](Cc1ccccc1)Cc1ccccc1C[N-]S(=O)(=O)Cc1ccccc1 (optimized conformer: 54.42390097408776 kcal/mol)

>  <smiles>  (62) 
CN(Cc1ccccc1)Cc1ccccc1CNS(=O)(=O)Cc1ccccc1

>  <score_type>  (62) 
oracle

>  <origin>  (62) 
adg

>  <m_score__min__energy>  (62) 
-7.79

>  <m_primary>  (62) 
energy

$$$$
62:0
     RDKit          3D

 52 55  0  0  0  0  0  0  0  0999 V2000
   55.4720   26.1240   46.0170 O   0  0  0  0  0  0  0  0  0  0  0  0
   56.3010   27.0630   45.8600 C   0  0  0  0  0  0  0  0  0  0  0  0
   55.8840   28.2870   45.2470 N   0  0  0  0  0  0  0  0  0  0  0  0
   56.7590   29.2060   44.5840 C   0  0  0  0  0  0  0  0  0  0  0  0
   58.1130   29.0300   44.4030 C   0  0  0  0  0  0  0  0  0  0  0  0
   58.6410   30.1810   43.9410 N   0  0  0  0  0  0  0  0  0  0  0  0
   57.6540   31.0590   43.8240 N   0  0  0  0  0  0  0  0  0  0  0  0
   57.8550   32.4650   43.4920 C   0  0  0  0  0  0  0  0  0  0  0  0
   58.2450   33.2250   44.7300 C   0  0  0  0  0  0  0  0  0  0  0  0
   59.2920   34.1610   44.6890 C   0  0  0  0  0  0  0  0  0  0  0  0
   59.6010   34.9220   45.8190 C   0  0  0  0  0  0  0  0  0  0  0  0
   58.8660   34.7580   46.9960 C   0  0  0  0  0  0  0  0  0  0  0  0
   57.8180   33.8350   47.0440 C   0  0  0  0  0  0  0  0  0  0  0  0
   57.5030   33.0740   45.9130 C   0  0  0  0  0  0  0  0  0  0  0  0
   56.4920   30.5070   44.2200 C   0  0  0  0  0  0  0  0  0  0  0  0
   57.6950   26.9070   46.3300 C   0  0  0  0  0  0  0  0  0  0  0  0
   58.6000   26.0950   45.6240 C   0  0  0  0  0  0  0  0  0  0  0  0
   59.9390   26.0270   46.0130 C   0  0  0  0  0  0  0  0  0  0  0  0
   60.3980   26.7830   47.0920 C   0  0  0  0  0  0  0  0  0  0  0  0
   59.5120   27.6050   47.8050 C   0  0  0  0  0  0  0  0  0  0  0  0
   60.0190   28.4750   48.9280 C   0  0  0  0  0  0  0  0  0  0  0  0
   58.9890   29.4000   49.4100 N   0  0  0  0  0  0  0  0  0  0  0  0
   59.0060   30.9070   48.5330 S   0  0  0  0  0  0  0  0  0  0  0  0
   58.1470   31.9310   49.2230 O   0  0  0  0  0  0  0  0  0  0  0  0
   58.4630   30.6780   47.1510 O   0  0  0  0  0  0  0  0  0  0  0  0
   60.6670   31.4840   48.4010 C   0  0  0  0  0  0  0  0  0  0  0  0
   61.5170   31.3980   49.5140 C   0  0  0  0  0  0  0  0  0  0  0  0
   62.8230   31.8900   49.4410 C   0  0  0  0  0  0  0  0  0  0  0  0
   63.2880   32.4720   48.2590 C   0  0  0  0  0  0  0  0  0  0  0  0
   62.4450   32.5620   47.1470 C   0  0  0  0  0  0  0  0  0  0  0  0
   61.1370   32.0680   47.2150 C   0  0  0  0  0  0  0  0  0  0  0  0
   58.1540   27.6340   47.4430 C   0  0  0  0  0  0  0  0  0  0  0  0
   58.6712   28.1034   44.6025 H   0  0  0  0  0  0  0  0  0  0  0  0
   58.6542   32.5533   42.7413 H   0  0  0  0  0  0  0  0  0  0  0  0
   56.9212   32.8817   43.0865 H   0  0  0  0  0  0  0  0  0  0  0  0
   59.8708   34.2951   43.7633 H   0  0  0  0  0  0  0  0  0  0  0  0
   60.4238   35.6511   45.7822 H   0  0  0  0  0  0  0  0  0  0  0  0
   59.1126   35.3561   47.8857 H   0  0  0  0  0  0  0  0  0  0  0  0
   57.2404   33.7067   47.9713 H   0  0  0  0  0  0  0  0  0  0  0  0
   56.6714   32.3550   45.9504 H   0  0  0  0  0  0  0  0  0  0  0  0
   55.5107   31.0033   44.2477 H   0  0  0  0  0  0  0  0  0  0  0  0
   58.2510   25.5100   44.7603 H   0  0  0  0  0  0  0  0  0  0  0  0
   60.6354   25.3743   45.4662 H   0  0  0  0  0  0  0  0  0  0  0  0
   61.4573   26.7346   47.3846 H   0  0  0  0  0  0  0  0  0  0  0  0
   60.3368   27.8310   49.7612 H   0  0  0  0  0  0  0  0  0  0  0  0
   60.8603   29.0710   48.5446 H   0  0  0  0  0  0  0  0  0  0  0  0
   61.1543   30.9419   50.4470 H   0  0  0  0  0  0  0  0  0  0  0  0
   63.4861   31.8189   50.3158 H   0  0  0  0  0  0  0  0  0  0  0  0
   64.3162   32.8590   48.2032 H   0  0  0  0  0  0  0  0  0  0  0  0
   62.8104   33.0219   46.2170 H   0  0  0  0  0  0  0  0  0  0  0  0
   60.4770   32.1377   46.3378 H   0  0  0  0  0  0  0  0  0  0  0  0
   57.4443   28.2303   48.0353 H   0  0  0  0  0  0  0  0  0  0  0  0
  1  2  2  0
  2  3  1  0
  3  4  1  0
  4  5  1  0
  5  6  2  0
  6  7  1  0
  7  8  1  0
  8  9  1  0
  9 10  2  0
 10 11  1  0
 11 12  2  0
 12 13  1  0
 13 14  2  0
  7 15  1  0
  2 16  1  0
 16 17  2  0
 17 18  1  0
 18 19  2  0
 19 20  1  0
 20 21  1  0
 21 22  1  0
 22 23  1  0
 23 24  2  0
 23 25  2  0
 23 26  1  0
 26 27  2  0
 27 28  1  0
 28 29  2  0
 29 30  1  0
 30 31  2  0
 20 32  2  0
 15  4  2  0
 32 16  1  0
 14  9  1  0
 31 26  1  0
  5 33  1  0
  8 34  1  0
  8 35  1  0
 10 36  1  0
 11 37  1  0
 12 38  1  0
 13 39  1  0
 14 40  1  0
 15 41  1  0
 17 42  1  0
 18 43  1  0
 19 44  1  0
 21 45  1  0
 21 46  1  0
 27 47  1  0
 28 48  1  0
 29 49  1  0
 30 50  1  0
 31 51  1  0
 32 52  1  0
M  CHG  2   3  -1  22  -1
M  END
>  <UniqueID>  (63) 
62

>  <SMILES>  (63) 
O=C([N-]c1cnn(Cc2ccccc2)c1)c1cccc(C[N-]S(=O)(=O)c2ccccc2)c1

>  <Energy>  (63) 
81.86109162591816

>  <Genealogy>  (63) 
O=C([N-]c1cnn(Cc2ccccc2)c1)c1cccc(C[N-]S(=O)(=O)c2ccccc2)c1 (protonated)
O=C([N-]c1cnn(Cc2ccccc2)c1)c1cccc(C[N-]S(=O)(=O)c2ccccc2)c1 (3D coordinates assigned)
O=C([N-]c1cnn(Cc2ccccc2)c1)c1cccc(C[N-]S(=O)(=O)c2ccccc2)c1 (optimized conformer: 81.86109162591816 kcal/mol)

>  <smiles>  (63) 
O=C(Nc1cnn(Cc2ccccc2)c1)c1cccc(CNS(=O)(=O)c2ccccc2)c1

>  <score_type>  (63) 
oracle

>  <origin>  (63) 
adg

>  <m_score__min__energy>  (63) 
-13.779999999999999

>  <m_primary>  (63) 
energy

$$$$
63:0
     RDKit          3D

 67 70  0  0  0  0  0  0  0  0999 V2000
   55.6790   29.7780   43.6910 C   0  0  0  0  0  0  0  0  0  0  0  0
   56.2270   30.5100   44.8220 N   0  0  0  0  0  0  0  0  0  0  0  0
   57.6330   30.7060   45.0110 C   0  0  0  0  0  0  0  0  0  0  0  0
   58.2240   31.6480   44.4200 O   0  0  0  0  0  0  0  0  0  0  0  0
   58.4030   29.7820   45.8700 C   0  0  0  0  0  0  0  0  0  0  0  0
   58.8400   30.1110   47.1570 C   0  0  0  0  0  0  0  0  0  0  0  0
   58.5190   31.3180   47.8690 N   0  0  0  0  0  0  0  0  0  0  0  0
   59.4560   31.9690   48.7860 C   0  0  0  0  0  0  0  0  0  0  0  0
   60.5980   32.5930   48.0270 C   0  0  0  0  0  0  0  0  0  0  0  0
   61.9170   32.1570   48.2540 C   0  0  0  0  0  0  0  0  0  0  0  0
   62.9800   32.7280   47.5460 C   0  0  0  0  0  0  0  0  0  0  0  0
   62.7350   33.7370   46.6080 C   0  0  0  0  0  0  0  0  0  0  0  0
   63.7670   34.2880   45.9220 F   0  0  0  0  0  0  0  0  0  0  0  0
   61.4280   34.1800   46.3820 C   0  0  0  0  0  0  0  0  0  0  0  0
   60.3630   33.6140   47.0890 C   0  0  0  0  0  0  0  0  0  0  0  0
   59.7210   28.8270   47.7870 S   0  0  0  0  0  0  0  0  0  0  0  0
   59.5860   27.8340   46.4400 C   0  0  0  0  0  0  0  0  0  0  0  0
   60.2380   26.5170   46.3420 C   0  0  0  0  0  0  0  0  0  0  0  0
   61.4490   26.4520   46.0050 O   0  0  0  0  0  0  0  0  0  0  0  0
   59.5310   25.3070   46.6400 N   0  0  0  0  0  0  0  0  0  0  0  0
   58.2020   24.9940   46.1940 C   0  0  0  0  0  0  0  0  0  0  0  0
   57.1100   25.8240   46.4840 C   0  0  0  0  0  0  0  0  0  0  0  0
   55.8390   25.5120   45.9950 C   0  0  0  0  0  0  0  0  0  0  0  0
   55.6320   24.3660   45.2050 C   0  0  0  0  0  0  0  0  0  0  0  0
   54.2450   24.0810   44.6930 C   0  0  0  0  0  0  0  0  0  0  0  0
   56.7300   23.5100   44.9340 C   0  0  0  0  0  0  0  0  0  0  0  0
   56.6020   22.0150   43.9910 S   0  0  0  0  0  0  0  0  0  0  0  0
   55.8870   22.2150   42.6840 O   0  0  0  0  0  0  0  0  0  0  0  0
   57.9950   21.5110   43.7350 O   0  0  0  0  0  0  0  0  0  0  0  0
   55.6960   20.8790   44.9410 N   0  0  0  0  0  0  0  0  0  0  0  0
   55.1170   21.1310   46.2290 C   0  0  0  0  0  0  0  0  0  0  0  0
   53.7260   21.2550   46.4020 C   0  0  0  0  0  0  0  0  0  0  0  0
   53.1950   21.5050   47.6700 C   0  0  0  0  0  0  0  0  0  0  0  0
   54.0470   21.6420   48.7710 C   0  0  0  0  0  0  0  0  0  0  0  0
   55.4310   21.5370   48.6050 C   0  0  0  0  0  0  0  0  0  0  0  0
   55.9770   21.2890   47.3290 C   0  0  0  0  0  0  0  0  0  0  0  0
   57.3610   21.1810   47.1150 O   0  0  0  0  0  0  0  0  0  0  0  0
   58.0280   19.9880   46.7170 C   0  0  0  0  0  0  0  0  0  0  0  0
   58.0070   23.8540   45.4110 C   0  0  0  0  0  0  0  0  0  0  0  0
   58.8240   28.4910   45.4630 C   0  0  0  0  0  0  0  0  0  0  0  0
   58.4210   27.8730   44.1490 C   0  0  0  0  0  0  0  0  0  0  0  0
   55.0575   28.9479   44.0579 H   0  0  0  0  0  0  0  0  0  0  0  0
   55.0635   30.4545   43.0799 H   0  0  0  0  0  0  0  0  0  0  0  0
   56.5015   29.3780   43.0799 H   0  0  0  0  0  0  0  0  0  0  0  0
   57.5960   31.7800   47.7140 H   0  0  0  0  0  0  0  0  0  0  0  0
   58.9258   32.7518   49.3483 H   0  0  0  0  0  0  0  0  0  0  0  0
   59.8606   31.2121   49.4740 H   0  0  0  0  0  0  0  0  0  0  0  0
   62.1127   31.3642   48.9910 H   0  0  0  0  0  0  0  0  0  0  0  0
   64.0089   32.3836   47.7268 H   0  0  0  0  0  0  0  0  0  0  0  0
   61.2375   34.9754   45.6465 H   0  0  0  0  0  0  0  0  0  0  0  0
   59.3371   33.9687   46.9109 H   0  0  0  0  0  0  0  0  0  0  0  0
   57.2545   26.7245   47.0990 H   0  0  0  0  0  0  0  0  0  0  0  0
   54.9897   26.1702   46.2304 H   0  0  0  0  0  0  0  0  0  0  0  0
   53.5618   23.9406   45.5436 H   0  0  0  0  0  0  0  0  0  0  0  0
   53.8992   24.9269   44.0807 H   0  0  0  0  0  0  0  0  0  0  0  0
   54.2607   23.1673   44.0807 H   0  0  0  0  0  0  0  0  0  0  0  0
   53.0547   21.1548   45.5364 H   0  0  0  0  0  0  0  0  0  0  0  0
   52.1067   21.5941   47.8025 H   0  0  0  0  0  0  0  0  0  0  0  0
   53.6270   21.8328   49.7696 H   0  0  0  0  0  0  0  0  0  0  0  0
   56.0968   21.6483   49.4735 H   0  0  0  0  0  0  0  0  0  0  0  0
   58.3413   19.4276   47.6102 H   0  0  0  0  0  0  0  0  0  0  0  0
   57.3451   19.3690   46.1166 H   0  0  0  0  0  0  0  0  0  0  0  0
   58.9130   20.2456   46.1166 H   0  0  0  0  0  0  0  0  0  0  0  0
   58.8671   23.2145   45.1634 H   0  0  0  0  0  0  0  0  0  0  0  0
   57.8290   26.9652   44.3370 H   0  0  0  0  0  0  0  0  0  0  0  0
   57.8176   28.5920   43.5754 H   0  0  0  0  0  0  0  0  0  0  0  0
   59.3222   27.6108   43.5754 H   0  0  0  0  0  0  0  0  0  0  0  0
  1  2  1  0
  2  3  1  0
  3  4  2  0
  3  5  1  0
  5  6  2  0
  6  7  1  0
  7  8  1  0
  8  9  1  0
  9 10  2  0
 10 11  1  0
 11 12  2  0
 12 13  1  0
 12 14  1  0
 14 15  2  0
  6 16  1  0
 16 17  1  0
 17 18  1  0
 18 19  2  0
 18 20  1  0
 20 21  1  0
 21 22  2  0
 22 23  1  0
 23 24  2  0
 24 25  1  0
 24 26  1  0
 26 27  1  0
 27 28  2  0
 27 29  2  0
 27 30  1  0
 30 31  1  0
 31 32  2  0
 32 33  1  0
 33 34  2  0
 34 35  1  0
 35 36  2  0
 36 37  1  0
 37 38  1  0
 26 39  2  0
 17 40  2  0
 40 41  1  0
 40  5  1  0
 15  9  1  0
 39 21  1  0
 36 31  1  0
  1 42  1  0
  1 43  1  0
  1 44  1  0
  7 45  1  0
  8 46  1  0
  8 47  1  0
 10 48  1  0
 11 49  1  0
 14 50  1  0
 15 51  1  0
 22 52  1  0
 23 53  1  0
 25 54  1  0
 25 55  1  0
 25 56  1  0
 32 57  1  0
 33 58  1  0
 34 59  1  0
 35 60  1  0
 38 61  1  0
 38 62  1  0
 38 63  1  0
 39 64  1  0
 41 65  1  0
 41 66  1  0
 41 67  1  0
M  CHG  3   2  -1  20  -1  30  -1
M  END
>  <UniqueID>  (64) 
63

>  <SMILES>  (64) 
C[N-]C(=O)c1c(NCc2ccc(F)cc2)sc(C(=O)[N-]c2ccc(C)c(S(=O)(=O)[N-]c3ccccc3OC)c2)c1C

>  <Energy>  (64) 
113.45806868471153

>  <Genealogy>  (64) 
C[N-]C(=O)c1c(NCc2ccc(F)cc2)sc(C(=O)[N-]c2ccc(C)c(S(=O)(=O)[N-]c3ccccc3OC)c2)c1C (protonated)
C[N-]C(=O)c1c(NCc2ccc(F)cc2)sc(C(=O)[N-]c2ccc(C)c(S(=O)(=O)[N-]c3ccccc3OC)c2)c1C (3D coordinates assigned)
C[N-]C(=O)c1c(NCc2ccc(F)cc2)sc(C(=O)[N-]c2ccc(C)c(S(=O)(=O)[N-]c3ccccc3OC)c2)c1C (optimized conformer: 113.45806868471153 kcal/mol)

>  <smiles>  (64) 
CNC(=O)c1c(NCc2ccc(F)cc2)sc(C(=O)Nc2ccc(C)c(S(=O)(=O)Nc3ccccc3OC)c2)c1C

>  <score_type>  (64) 
oracle

>  <origin>  (64) 
adg

>  <m_score__min__energy>  (64) 
-13.43

>  <m_primary>  (64) 
energy

$$$$
64:0
     RDKit          3D

 50 52  0  0  0  0  0  0  0  0999 V2000
   57.4950   28.1170   43.6040 N   0  0  0  0  0  0  0  0  0  0  0  0
   56.7930   29.2910   44.6630 S   0  0  0  0  0  0  0  0  0  0  0  0
   55.3150   29.3430   44.3920 O   0  0  0  0  0  0  0  0  0  0  0  0
   57.0260   28.8780   46.0900 O   0  0  0  0  0  0  0  0  0  0  0  0
   57.5290   30.8760   44.3760 C   0  0  0  0  0  0  0  0  0  0  0  0
   57.5110   31.3900   43.0720 C   0  0  0  0  0  0  0  0  0  0  0  0
   58.0270   32.6560   42.8020 C   0  0  0  0  0  0  0  0  0  0  0  0
   58.5430   33.4350   43.8340 C   0  0  0  0  0  0  0  0  0  0  0  0
   58.5640   32.9550   45.1500 C   0  0  0  0  0  0  0  0  0  0  0  0
   59.1810   34.0460   46.4070 S   0  0  0  0  0  0  0  0  0  0  0  0
   58.1450   34.1350   47.4900 O   0  0  0  0  0  0  0  0  0  0  0  0
   59.4260   35.4310   45.8820 O   0  0  0  0  0  0  0  0  0  0  0  0
   60.6630   33.4540   47.1110 N   0  0  0  0  0  0  0  0  0  0  0  0
   61.8590   33.8340   46.3510 C   0  0  0  0  0  0  0  0  0  0  0  0
   63.1540   33.6170   47.1600 C   0  0  1  0  0  0  0  0  0  0  0  0
   62.9400   33.8620   48.6480 C   0  0  0  0  0  0  0  0  0  0  0  0
   62.6180   32.4970   49.1720 C   0  0  0  0  0  0  0  0  0  0  0  0
   63.2870   31.5740   48.1720 C   0  0  0  0  0  0  0  0  0  0  0  0
   63.6070   32.2910   47.0000 O   0  0  0  0  0  0  0  0  0  0  0  0
   58.1060   31.6410   45.4190 C   0  0  0  0  0  0  0  0  0  0  0  0
   58.2560   31.0760   46.7290 N   0  0  0  0  0  0  0  0  0  0  0  0
   59.5720   30.7850   47.2990 C   0  0  0  0  0  0  0  0  0  0  0  0
   59.9340   29.3400   47.0940 C   0  0  0  0  0  0  0  0  0  0  0  0
   59.8950   28.4410   48.1730 C   0  0  0  0  0  0  0  0  0  0  0  0
   60.1930   27.0890   47.9760 C   0  0  0  0  0  0  0  0  0  0  0  0
   60.5290   26.6250   46.7000 C   0  0  0  0  0  0  0  0  0  0  0  0
   60.5650   27.5120   45.6210 C   0  0  0  0  0  0  0  0  0  0  0  0
   60.2660   28.8640   45.8140 C   0  0  0  0  0  0  0  0  0  0  0  0
   58.0890   28.6370   42.9200 H   0  0  0  0  0  0  0  0  0  0  0  0
   56.7150   27.6940   43.0520 H   0  0  0  0  0  0  0  0  0  0  0  0
   57.0859   30.7888   42.2548 H   0  0  0  0  0  0  0  0  0  0  0  0
   58.0266   33.0406   41.7714 H   0  0  0  0  0  0  0  0  0  0  0  0
   58.9383   34.4377   43.6139 H   0  0  0  0  0  0  0  0  0  0  0  0
   61.9061   33.2251   45.4361 H   0  0  0  0  0  0  0  0  0  0  0  0
   61.7833   34.9055   46.1140 H   0  0  0  0  0  0  0  0  0  0  0  0
   63.8950   34.3351   46.7789 H   0  0  0  0  0  0  0  0  0  0  0  0
   63.8511   34.2609   49.1179 H   0  0  0  0  0  0  0  0  0  0  0  0
   62.1538   34.6026   48.8564 H   0  0  0  0  0  0  0  0  0  0  0  0
   63.0337   32.3536   50.1803 H   0  0  0  0  0  0  0  0  0  0  0  0
   61.5372   32.3165   49.2690 H   0  0  0  0  0  0  0  0  0  0  0  0
   64.2080   31.1643   48.6124 H   0  0  0  0  0  0  0  0  0  0  0  0
   62.6000   30.7529   47.9194 H   0  0  0  0  0  0  0  0  0  0  0  0
   57.4010   30.8490   47.2840 H   0  0  0  0  0  0  0  0  0  0  0  0
   60.3257   31.4188   46.8088 H   0  0  0  0  0  0  0  0  0  0  0  0
   59.5424   30.9917   48.3790 H   0  0  0  0  0  0  0  0  0  0  0  0
   59.6288   28.8023   49.1773 H   0  0  0  0  0  0  0  0  0  0  0  0
   60.1632   26.3901   48.8249 H   0  0  0  0  0  0  0  0  0  0  0  0
   60.7649   25.5617   46.5459 H   0  0  0  0  0  0  0  0  0  0  0  0
   60.8291   27.1459   44.6179 H   0  0  0  0  0  0  0  0  0  0  0  0
   60.2907   29.5578   44.9608 H   0  0  0  0  0  0  0  0  0  0  0  0
  1  2  1  0
  2  3  2  0
  2  4  2  0
  2  5  1  0
  5  6  2  0
  6  7  1  0
  7  8  2  0
  8  9  1  0
  9 10  1  0
 10 11  2  0
 10 12  2  0
 10 13  1  0
 13 14  1  0
 14 15  1  0
 15 16  1  0
 16 17  1  0
 17 18  1  0
 18 19  1  0
  9 20  2  0
 20 21  1  0
 21 22  1  0
 22 23  1  0
 23 24  2  0
 24 25  1  0
 25 26  2  0
 26 27  1  0
 27 28  2  0
 20  5  1  0
 28 23  1  0
 19 15  1  0
  1 29  1  0
  1 30  1  0
  6 31  1  0
  7 32  1  0
  8 33  1  0
 14 34  1  0
 14 35  1  0
 15 36  1  6
 16 37  1  0
 16 38  1  0
 17 39  1  0
 17 40  1  0
 18 41  1  0
 18 42  1  0
 21 43  1  0
 22 44  1  0
 22 45  1  0
 24 46  1  0
 25 47  1  0
 26 48  1  0
 27 49  1  0
 28 50  1  0
M  CHG  1  13  -1
M  END
>  <UniqueID>  (65) 
64

>  <SMILES>  (65) 
NS(=O)(=O)c1cccc(S(=O)(=O)[N-]C[C@H]2CCCO2)c1NCc1ccccc1

>  <Energy>  (65) 
54.91732982703271

>  <Genealogy>  (65) 
NS(=O)(=O)c1cccc(S(=O)(=O)[N-]CC2CCCO2)c1NCc1ccccc1 (protonated)
NS(=O)(=O)c1cccc(S(=O)(=O)[N-]C[C@H]2CCCO2)c1NCc1ccccc1 (chirality)
NS(=O)(=O)c1cccc(S(=O)(=O)[N-]C[C@H]2CCCO2)c1NCc1ccccc1 (3D coordinates assigned)
NS(=O)(=O)c1cccc(S(=O)(=O)[N-]C[C@H]2CCCO2)c1NCc1ccccc1 (nonaromatic ring conformer: 54.91732982703271 kcal/mol)

>  <smiles>  (65) 
NS(=O)(=O)c1cccc(S(=O)(=O)NCC2CCCO2)c1NCc1ccccc1

>  <score_type>  (65) 
oracle

>  <origin>  (65) 
adg

>  <m_score__min__energy>  (65) 
-9.8800000000000008

>  <m_primary>  (65) 
energy

$$$$
65:0
     RDKit          3D

 38 40  0  0  0  0  0  0  0  0999 V2000
   50.7130   32.5330   51.6160 N   0  0  0  0  0  0  0  0  0  0  0  0
   51.0630   31.4890   52.5250 C   0  0  0  0  0  0  0  0  0  0  0  0
   50.1610   30.9600   53.2290 O   0  0  0  0  0  0  0  0  0  0  0  0
   52.4670   31.0300   52.6390 C   0  0  0  0  0  0  0  0  0  0  0  0
   52.9360   30.4590   53.8360 C   0  0  0  0  0  0  0  0  0  0  0  0
   54.2600   30.0270   53.9450 C   0  0  0  0  0  0  0  0  0  0  0  0
   55.1400   30.1410   52.8590 C   0  0  0  0  0  0  0  0  0  0  0  0
   56.5020   29.7080   53.0070 N   0  0  0  0  0  0  0  0  0  0  0  0
   57.5460   29.9960   52.0630 C   0  0  0  0  0  0  0  0  0  0  0  0
   57.2740   30.4740   50.9290 O   0  0  0  0  0  0  0  0  0  0  0  0
   58.9640   29.6390   52.3870 C   0  0  0  0  0  0  0  0  0  0  0  0
   59.8300   29.8640   51.1900 C   0  0  0  0  0  0  0  0  0  0  0  0
   60.4560   31.0340   50.9460 N   0  0  0  0  0  0  0  0  0  0  0  0
   61.0710   30.8340   49.7660 C   0  0  0  0  0  0  0  0  0  0  0  0
   61.8970   31.8600   49.0830 C   0  0  0  0  0  0  0  0  0  0  0  0
   62.4230   31.5980   47.8040 C   0  0  0  0  0  0  0  0  0  0  0  0
   63.2040   32.5550   47.1470 C   0  0  0  0  0  0  0  0  0  0  0  0
   63.4690   33.7820   47.7590 C   0  0  0  0  0  0  0  0  0  0  0  0
   62.9530   34.0550   49.0270 C   0  0  0  0  0  0  0  0  0  0  0  0
   62.1720   33.1020   49.6890 C   0  0  0  0  0  0  0  0  0  0  0  0
   60.7910   29.5550   49.3240 C   0  0  0  0  0  0  0  0  0  0  0  0
   60.0000   28.9410   50.2220 N   0  0  0  0  0  0  0  0  0  0  0  0
   54.6820   30.7330   51.6700 C   0  0  0  0  0  0  0  0  0  0  0  0
   53.3570   31.1670   51.5590 C   0  0  0  0  0  0  0  0  0  0  0  0
   50.6090   32.3410   50.5950 H   0  0  0  0  0  0  0  0  0  0  0  0
   52.2548   30.3518   54.6930 H   0  0  0  0  0  0  0  0  0  0  0  0
   54.6156   29.5934   54.8913 H   0  0  0  0  0  0  0  0  0  0  0  0
   56.7300   29.0670   53.8010 H   0  0  0  0  0  0  0  0  0  0  0  0
   59.3182   30.2679   53.2171 H   0  0  0  0  0  0  0  0  0  0  0  0
   59.0140   28.5790   52.6768 H   0  0  0  0  0  0  0  0  0  0  0  0
   62.2184   30.6331   47.3171 H   0  0  0  0  0  0  0  0  0  0  0  0
   63.6098   32.3407   46.1473 H   0  0  0  0  0  0  0  0  0  0  0  0
   64.0842   34.5332   47.2420 H   0  0  0  0  0  0  0  0  0  0  0  0
   63.1612   35.0226   49.5070 H   0  0  0  0  0  0  0  0  0  0  0  0
   61.7701   33.3234   50.6887 H   0  0  0  0  0  0  0  0  0  0  0  0
   61.1568   29.1099   48.3869 H   0  0  0  0  0  0  0  0  0  0  0  0
   55.3701   30.8560   50.8207 H   0  0  0  0  0  0  0  0  0  0  0  0
   53.0082   31.6193   50.6189 H   0  0  0  0  0  0  0  0  0  0  0  0
  1  2  1  0
  2  3  2  0
  2  4  1  0
  4  5  2  0
  5  6  1  0
  6  7  2  0
  7  8  1  0
  8  9  1  0
  9 10  2  0
  9 11  1  0
 11 12  1  0
 12 13  2  0
 13 14  1  0
 14 15  1  0
 15 16  2  0
 16 17  1  0
 17 18  2  0
 18 19  1  0
 19 20  2  0
 14 21  2  0
 21 22  1  0
  7 23  1  0
 23 24  2  0
 24  4  1  0
 22 12  1  0
 20 15  1  0
  1 25  1  0
  5 26  1  0
  6 27  1  0
  8 28  1  0
 11 29  1  0
 11 30  1  0
 16 31  1  0
 17 32  1  0
 18 33  1  0
 19 34  1  0
 20 35  1  0
 21 36  1  0
 23 37  1  0
 24 38  1  0
M  CHG  2   1  -1  22  -1
M  END
>  <UniqueID>  (66) 
65

>  <SMILES>  (66) 
[NH-]C(=O)c1ccc(NC(=O)Cc2nc(-c3ccccc3)c[n-]2)cc1

>  <Energy>  (66) 
70.38203482967369

>  <Genealogy>  (66) 
[NH-]C(=O)c1ccc(NC(=O)Cc2nc(-c3ccccc3)c[n-]2)cc1 (protonated)
[NH-]C(=O)c1ccc(NC(=O)Cc2nc(-c3ccccc3)c[n-]2)cc1 (3D coordinates assigned)
[NH-]C(=O)c1ccc(NC(=O)Cc2nc(-c3ccccc3)c[n-]2)cc1 (optimized conformer: 70.38203482967369 kcal/mol)

>  <smiles>  (66) 
NC(=O)c1ccc(NC(=O)Cc2nc(-c3ccccc3)c[nH]2)cc1

>  <score_type>  (66) 
oracle

>  <origin>  (66) 
adg

>  <m_score__min__energy>  (66) 
-11.44

>  <m_primary>  (66) 
energy

$$$$
66:0
     RDKit          3D

 42 43  0  0  0  0  0  0  0  0999 V2000
   58.8290   29.2000   48.6790 C   0  0  0  0  0  0  0  0  0  0  0  0
   59.3610   28.3430   47.6730 O   0  0  0  0  0  0  0  0  0  0  0  0
   58.8170   28.1940   46.3880 C   0  0  0  0  0  0  0  0  0  0  0  0
   58.0040   29.1830   45.7990 C   0  0  0  0  0  0  0  0  0  0  0  0
   57.4910   29.0050   44.5070 C   0  0  0  0  0  0  0  0  0  0  0  0
   56.5170   30.2600   43.7440 S   0  0  0  0  0  0  0  0  0  0  0  0
   55.2380   30.4860   44.5010 O   0  0  0  0  0  0  0  0  0  0  0  0
   56.1820   29.8320   42.3440 O   0  0  0  0  0  0  0  0  0  0  0  0
   57.4150   31.7420   43.6890 N   0  0  0  0  0  0  0  0  0  0  0  0
   57.9900   32.4020   44.8270 C   0  0  0  0  0  0  0  0  0  0  0  0
   57.4510   33.6240   45.2320 C   0  0  0  0  0  0  0  0  0  0  0  0
   57.9890   34.3070   46.3240 C   0  0  0  0  0  0  0  0  0  0  0  0
   59.0890   33.7850   47.0260 C   0  0  0  0  0  0  0  0  0  0  0  0
   59.6100   34.5480   48.2150 C   0  0  0  0  0  0  0  0  0  0  0  0
   59.6320   32.5360   46.6330 C   0  0  0  0  0  0  0  0  0  0  0  0
   61.0110   31.7970   47.4730 S   0  0  0  0  0  0  0  0  0  0  0  0
   61.1810   30.1350   47.0260 N   0  0  0  0  0  0  0  0  0  0  0  0
   60.8180   31.9120   48.9590 O   0  0  0  0  0  0  0  0  0  0  0  0
   62.2810   32.5140   47.1060 O   0  0  0  0  0  0  0  0  0  0  0  0
   59.0710   31.8580   45.5390 C   0  0  0  0  0  0  0  0  0  0  0  0
   57.7840   27.8350   43.8000 C   0  0  0  0  0  0  0  0  0  0  0  0
   58.5820   26.8460   44.3770 C   0  0  0  0  0  0  0  0  0  0  0  0
   59.0960   27.0190   45.6670 C   0  0  0  0  0  0  0  0  0  0  0  0
   60.1290   25.7340   46.3810 S   0  0  0  0  0  0  0  0  0  0  0  0
   58.9500   24.4030   45.9920 C   0  0  0  0  0  0  0  0  0  0  0  0
   59.0783   28.7984   49.6722 H   0  0  0  0  0  0  0  0  0  0  0  0
   59.2620   30.2054   48.5708 H   0  0  0  0  0  0  0  0  0  0  0  0
   57.7359   29.2580   48.5708 H   0  0  0  0  0  0  0  0  0  0  0  0
   57.7703   30.1014   46.3574 H   0  0  0  0  0  0  0  0  0  0  0  0
   56.5966   34.0517   44.6870 H   0  0  0  0  0  0  0  0  0  0  0  0
   57.5473   35.2641   46.6385 H   0  0  0  0  0  0  0  0  0  0  0  0
   59.2751   34.0575   49.1409 H   0  0  0  0  0  0  0  0  0  0  0  0
   60.7095   34.5655   48.1864 H   0  0  0  0  0  0  0  0  0  0  0  0
   59.2260   35.5784   48.1864 H   0  0  0  0  0  0  0  0  0  0  0  0
   61.1460   29.5650   47.9000 H   0  0  0  0  0  0  0  0  0  0  0  0
   60.3430   29.8770   46.4560 H   0  0  0  0  0  0  0  0  0  0  0  0
   59.4849   30.8853   45.2349 H   0  0  0  0  0  0  0  0  0  0  0  0
   57.3841   27.6934   42.7851 H   0  0  0  0  0  0  0  0  0  0  0  0
   58.8077   25.9273   43.8158 H   0  0  0  0  0  0  0  0  0  0  0  0
   58.5655   23.9690   46.9268 H   0  0  0  0  0  0  0  0  0  0  0  0
   58.1137   24.8134   45.4071 H   0  0  0  0  0  0  0  0  0  0  0  0
   59.4583   23.6223   45.4071 H   0  0  0  0  0  0  0  0  0  0  0  0
  1  2  1  0
  2  3  1  0
  3  4  2  0
  4  5  1  0
  5  6  1  0
  6  7  2  0
  6  8  2  0
  6  9  1  0
  9 10  1  0
 10 11  2  0
 11 12  1  0
 12 13  2  0
 13 14  1  0
 13 15  1  0
 15 16  1  0
 16 17  1  0
 16 18  2  0
 16 19  2  0
 15 20  2  0
  5 21  2  0
 21 22  1  0
 22 23  2  0
 23 24  1  0
 24 25  1  0
 23  3  1  0
 20 10  1  0
  1 26  1  0
  1 27  1  0
  1 28  1  0
  4 29  1  0
 11 30  1  0
 12 31  1  0
 14 32  1  0
 14 33  1  0
 14 34  1  0
 17 35  1  0
 17 36  1  0
 20 37  1  0
 21 38  1  0
 22 39  1  0
 25 40  1  0
 25 41  1  0
 25 42  1  0
M  CHG  1   9  -1
M  END
>  <UniqueID>  (67) 
66

>  <SMILES>  (67) 
COc1cc(S(=O)(=O)[N-]c2ccc(C)c(S(N)(=O)=O)c2)ccc1SC

>  <Energy>  (67) 
40.54201802444178

>  <Genealogy>  (67) 
COc1cc(S(=O)(=O)[N-]c2ccc(C)c(S(N)(=O)=O)c2)ccc1SC (protonated)
COc1cc(S(=O)(=O)[N-]c2ccc(C)c(S(N)(=O)=O)c2)ccc1SC (3D coordinates assigned)
COc1cc(S(=O)(=O)[N-]c2ccc(C)c(S(N)(=O)=O)c2)ccc1SC (optimized conformer: 40.54201802444178 kcal/mol)

>  <smiles>  (67) 
COc1cc(S(=O)(=O)Nc2ccc(C)c(S(N)(=O)=O)c2)ccc1SC

>  <score_type>  (67) 
oracle

>  <origin>  (67) 
adg

>  <m_score__min__energy>  (67) 
-9.5299999999999994

>  <m_primary>  (67) 
energy

$$$$
67:0
     RDKit          3D

 49 51  0  0  0  0  0  0  0  0999 V2000
   57.9794   35.4991   46.1670 H   0  0  0  0  0  0  0  0  0  0  0  0
   58.2880   34.4650   46.3800 C   0  0  0  0  0  0  0  0  0  0  0  0
   57.4270   33.4760   46.0940 C   0  0  0  0  0  0  0  0  0  0  0  0
   56.3516   33.6713   46.2176 H   0  0  0  0  0  0  0  0  0  0  0  0
   57.8460   32.1330   45.6200 C   0  0  0  0  0  0  0  0  0  0  0  0
   57.9170   31.9030   44.2390 C   0  0  0  0  0  0  0  0  0  0  0  0
   57.6738   32.7155   43.5385 H   0  0  0  0  0  0  0  0  0  0  0  0
   58.2930   30.6540   43.7440 C   0  0  0  0  0  0  0  0  0  0  0  0
   58.3635   30.4963   42.6577 H   0  0  0  0  0  0  0  0  0  0  0  0
   58.5810   29.6010   44.6180 C   0  0  0  0  0  0  0  0  0  0  0  0
   58.9460   28.3660   44.0680 O   0  0  0  0  0  0  0  0  0  0  0  0
   58.0860   27.2660   43.9560 C   0  0  0  0  0  0  0  0  0  0  0  0
   57.8340   26.7660   42.8240 O   0  0  0  0  0  0  0  0  0  0  0  0
   57.5020   26.7150   45.1430 N   0  0  0  0  0  0  0  0  0  0  0  0
   57.5650   27.2880   46.0150 H   0  0  0  0  0  0  0  0  0  0  0  0
   56.7420   25.4940   45.1750 C   0  0  0  0  0  0  0  0  0  0  0  0
   57.3270   24.2660   44.8170 C   0  0  0  0  0  0  0  0  0  0  0  0
   58.3758   24.2363   44.4868 H   0  0  0  0  0  0  0  0  0  0  0  0
   56.5840   23.0820   44.8780 C   0  0  0  0  0  0  0  0  0  0  0  0
   57.1560   21.9040   44.5310 F   0  0  0  0  0  0  0  0  0  0  0  0
   55.2550   23.1130   45.3080 C   0  0  0  0  0  0  0  0  0  0  0  0
   54.6688   22.1831   45.3489 H   0  0  0  0  0  0  0  0  0  0  0  0
   54.6700   24.3240   45.6860 C   0  0  0  0  0  0  0  0  0  0  0  0
   53.6262   24.3443   46.0326 H   0  0  0  0  0  0  0  0  0  0  0  0
   55.4080   25.5110   45.6250 C   0  0  0  0  0  0  0  0  0  0  0  0
   54.8080   26.7070   46.0050 O   0  0  0  0  0  0  0  0  0  0  0  0
   58.5330   29.8140   46.0110 C   0  0  0  0  0  0  0  0  0  0  0  0
   58.8990   28.7650   46.8700 O   0  0  0  0  0  0  0  0  0  0  0  0
   60.1210   28.0380   46.7900 C   0  0  0  0  0  0  0  0  0  0  0  0
   60.4857   27.8210   47.8049 H   0  0  0  0  0  0  0  0  0  0  0  0
   59.9514   27.0938   46.2517 H   0  0  0  0  0  0  0  0  0  0  0  0
   60.8698   28.6376   46.2517 H   0  0  0  0  0  0  0  0  0  0  0  0
   58.1450   31.0770   46.5030 C   0  0  0  0  0  0  0  0  0  0  0  0
   58.0750   31.2396   47.5887 H   0  0  0  0  0  0  0  0  0  0  0  0
   59.6320   34.2430   46.9670 C   0  0  0  0  0  0  0  0  0  0  0  0
   60.7190   34.0480   46.1000 C   0  0  0  0  0  0  0  0  0  0  0  0
   60.5563   34.0558   45.0121 H   0  0  0  0  0  0  0  0  0  0  0  0
   62.0060   33.8440   46.6060 C   0  0  0  0  0  0  0  0  0  0  0  0
   62.8451   33.6836   45.9131 H   0  0  0  0  0  0  0  0  0  0  0  0
   62.2360   33.8420   47.9850 C   0  0  0  0  0  0  0  0  0  0  0  0
   63.5460   33.6310   48.4420 O   0  0  0  0  0  0  0  0  0  0  0  0
   64.0330   32.3880   48.9400 C   0  0  0  0  0  0  0  0  0  0  0  0
   64.0261   32.4056   50.0398 H   0  0  0  0  0  0  0  0  0  0  0  0
   63.3882   31.5717   48.5823 H   0  0  0  0  0  0  0  0  0  0  0  0
   65.0607   32.2270   48.5823 H   0  0  0  0  0  0  0  0  0  0  0  0
   61.1550   34.0530   48.8600 C   0  0  0  0  0  0  0  0  0  0  0  0
   61.3245   34.0576   49.9468 H   0  0  0  0  0  0  0  0  0  0  0  0
   59.8660   34.2570   48.3570 C   0  0  0  0  0  0  0  0  0  0  0  0
   59.0296   34.4294   49.0504 H   0  0  0  0  0  0  0  0  0  0  0  0
  1  2  1  0
  2  3  2  0
  3  4  1  0
  3  5  1  0
  5  6  2  0
  6  7  1  0
  6  8  1  0
  8  9  1  0
  8 10  2  0
 10 11  1  0
 11 12  1  0
 12 13  2  0
 12 14  1  0
 14 15  1  0
 14 16  1  0
 16 17  2  0
 17 18  1  0
 17 19  1  0
 19 20  1  0
 19 21  2  0
 21 22  1  0
 21 23  1  0
 23 24  1  0
 23 25  2  0
 25 26  1  0
 10 27  1  0
 27 28  1  0
 28 29  1  0
 29 30  1  0
 29 31  1  0
 29 32  1  0
 27 33  2  0
 33 34  1  0
  2 35  1  0
 35 36  2  0
 36 37  1  0
 36 38  1  0
 38 39  1  0
 38 40  2  0
 40 41  1  0
 41 42  1  0
 42 43  1  0
 42 44  1  0
 42 45  1  0
 40 46  1  0
 46 47  1  0
 46 48  2  0
 48 49  1  0
 33  5  1  0
 48 35  1  0
 25 16  1  0
M  CHG  1  26  -1
M  END
>  <UniqueID>  (68) 
67

>  <SMILES>  (68) 
COc1ccc(/C=C/c2ccc(OC(=O)Nc3cc(F)ccc3[O-])c(OC)c2)cc1

>  <Energy>  (68) 
65.73478468910419

>  <Genealogy>  (68) 
COc1ccc(C=Cc2ccc(OC(=O)Nc3cc(F)ccc3[O-])c(OC)c2)cc1 (protonated)
COc1ccc(/C=C/c2ccc(OC(=O)Nc3cc(F)ccc3[O-])c(OC)c2)cc1 (cis-trans isomerization)
COc1ccc(/C=C/c2ccc(OC(=O)Nc3cc(F)ccc3[O-])c(OC)c2)cc1 (3D coordinates assigned)
COc1ccc(/C=C/c2ccc(OC(=O)Nc3cc(F)ccc3[O-])c(OC)c2)cc1 (optimized conformer: 65.73478468910419 kcal/mol)

>  <smiles>  (68) 
COc1ccc(C=Cc2ccc(OC(=O)Nc3cc(F)ccc3O)c(OC)c2)cc1

>  <score_type>  (68) 
oracle

>  <origin>  (68) 
adg

>  <m_score__min__energy>  (68) 
-12.77

>  <m_primary>  (68) 
energy

$$$$
68:0
     RDKit          3D

 37 38  0  0  0  0  0  0  0  0999 V2000
   58.2280   20.2240   46.7580 N   0  0  0  0  0  0  0  0  0  0  0  0
   57.6780   21.3030   46.0020 C   0  0  0  0  0  0  0  0  0  0  0  0
   57.0970   21.0730   44.7500 C   0  0  0  0  0  0  0  0  0  0  0  0
   56.5710   22.1610   44.0510 C   0  0  0  0  0  0  0  0  0  0  0  0
   56.0390   21.9900   42.9230 O   0  0  0  0  0  0  0  0  0  0  0  0
   56.6310   23.4070   44.5890 N   0  0  0  0  0  0  0  0  0  0  0  0
   57.2030   23.6160   45.8050 C   0  0  0  0  0  0  0  0  0  0  0  0
   57.2180   24.9920   46.4050 C   0  0  0  0  0  0  0  0  0  0  0  0
   56.3200   25.9600   45.6230 C   0  0  0  0  0  0  0  0  0  0  0  0
   56.9350   27.3610   45.5070 C   0  0  0  0  0  0  0  0  0  0  0  0
   55.8950   28.3530   45.2540 N   0  0  0  0  0  0  0  0  0  0  0  0
   56.1490   29.6270   44.6520 C   0  0  0  0  0  0  0  0  0  0  0  0
   55.2060   30.4420   44.4580 O   0  0  0  0  0  0  0  0  0  0  0  0
   57.5490   30.0140   44.2990 C   0  0  0  0  0  0  0  0  0  0  0  0
   57.8480   31.3970   44.8120 C   0  0  0  0  0  0  0  0  0  0  0  0
   57.5820   32.5230   44.0120 C   0  0  0  0  0  0  0  0  0  0  0  0
   57.8260   33.8090   44.5030 C   0  0  0  0  0  0  0  0  0  0  0  0
   58.3300   33.9820   45.7960 C   0  0  0  0  0  0  0  0  0  0  0  0
   58.5870   32.8680   46.6020 C   0  0  0  0  0  0  0  0  0  0  0  0
   59.2530   33.1100   48.3760 Br  0  0  0  0  0  0  0  0  0  0  0  0
   58.3400   31.5790   46.1160 C   0  0  0  0  0  0  0  0  0  0  0  0
   57.7160   22.5670   46.5020 N   0  0  0  0  0  0  0  0  0  0  0  0
   57.9060   20.0310   47.7320 H   0  0  0  0  0  0  0  0  0  0  0  0
   58.9590   19.6060   46.3400 H   0  0  0  0  0  0  0  0  0  0  0  0
   57.0557   20.0587   44.3264 H   0  0  0  0  0  0  0  0  0  0  0  0
   56.8595   24.9325   47.4432 H   0  0  0  0  0  0  0  0  0  0  0  0
   58.2493   25.3726   46.3663 H   0  0  0  0  0  0  0  0  0  0  0  0
   56.1632   25.5578   44.6113 H   0  0  0  0  0  0  0  0  0  0  0  0
   55.3703   26.0539   46.1700 H   0  0  0  0  0  0  0  0  0  0  0  0
   57.4519   27.6089   46.4458 H   0  0  0  0  0  0  0  0  0  0  0  0
   57.6482   27.3697   44.6696 H   0  0  0  0  0  0  0  0  0  0  0  0
   58.2499   29.2981   44.7531 H   0  0  0  0  0  0  0  0  0  0  0  0
   57.6604   30.0039   43.2047 H   0  0  0  0  0  0  0  0  0  0  0  0
   57.1805   32.3912   42.9964 H   0  0  0  0  0  0  0  0  0  0  0  0
   57.6213   34.6860   43.8714 H   0  0  0  0  0  0  0  0  0  0  0  0
   58.5244   34.9945   46.1794 H   0  0  0  0  0  0  0  0  0  0  0  0
   58.5315   30.7055   46.7566 H   0  0  0  0  0  0  0  0  0  0  0  0
  1  2  1  0
  2  3  2  0
  3  4  1  0
  4  5  2  0
  4  6  1  0
  6  7  2  0
  7  8  1  0
  8  9  1  0
  9 10  1  0
 10 11  1  0
 11 12  1  0
 12 13  2  0
 12 14  1  0
 14 15  1  0
 15 16  2  0
 16 17  1  0
 17 18  2  0
 18 19  1  0
 19 20  1  0
 19 21  2  0
  7 22  1  0
 22  2  1  0
 21 15  1  0
  1 23  1  0
  1 24  1  0
  3 25  1  0
  8 26  1  0
  8 27  1  0
  9 28  1  0
  9 29  1  0
 10 30  1  0
 10 31  1  0
 14 32  1  0
 14 33  1  0
 16 34  1  0
 17 35  1  0
 18 36  1  0
 21 37  1  0
M  CHG  2  11  -1  22  -1
M  END
>  <UniqueID>  (69) 
68

>  <SMILES>  (69) 
Nc1cc(=O)nc(CCC[N-]C(=O)Cc2cccc(Br)c2)[n-]1

>  <Energy>  (69) 
28.141662379035026

>  <Genealogy>  (69) 
Nc1cc(=O)nc(CCC[N-]C(=O)Cc2cccc(Br)c2)[n-]1 (protonated)
Nc1cc(=O)nc(CCC[N-]C(=O)Cc2cccc(Br)c2)[n-]1 (3D coordinates assigned)
Nc1cc(=O)nc(CCC[N-]C(=O)Cc2cccc(Br)c2)[n-]1 (optimized conformer: 28.141662379035026 kcal/mol)

>  <smiles>  (69) 
Nc1cc(=O)nc(CCCNC(=O)Cc2cccc(Br)c2)[nH]1

>  <score_type>  (69) 
oracle

>  <origin>  (69) 
adg

>  <m_score__min__energy>  (69) 
-11.890000000000001

>  <m_primary>  (69) 
energy

$$$$
69:0
     RDKit          3D

 42 44  0  0  0  0  0  0  0  0999 V2000
   56.7710   29.2750   42.7690 N   0  0  0  0  0  0  0  0  0  0  0  0
   56.5460   29.7480   44.4160 S   0  0  0  0  0  0  0  0  0  0  0  0
   55.1830   29.3190   44.8820 O   0  0  0  0  0  0  0  0  0  0  0  0
   56.6440   31.2440   44.5210 O   0  0  0  0  0  0  0  0  0  0  0  0
   57.7750   28.9880   45.4240 C   0  0  0  0  0  0  0  0  0  0  0  0
   58.2600   27.7100   45.1160 C   0  0  0  0  0  0  0  0  0  0  0  0
   59.2220   27.1100   45.9320 C   0  0  0  0  0  0  0  0  0  0  0  0
   59.7110   27.7840   47.0530 C   0  0  0  0  0  0  0  0  0  0  0  0
   59.2450   29.0740   47.3590 C   0  0  0  0  0  0  0  0  0  0  0  0
   59.7050   29.7800   48.5200 N   0  0  0  0  0  0  0  0  0  0  0  0
   58.8870   30.4920   49.4570 C   0  0  0  0  0  0  0  0  0  0  0  0
   58.1560   29.8370   50.2450 O   0  0  0  0  0  0  0  0  0  0  0  0
   58.8360   31.9960   49.4900 C   0  0  0  0  0  0  0  0  0  0  0  0
   59.2350   32.5520   48.1870 N   0  0  0  0  0  0  0  0  0  0  0  0
   58.1960   32.8810   47.2030 C   0  0  0  0  0  0  0  0  0  0  0  0
   58.5060   34.2270   46.5530 C   0  0  0  0  0  0  0  0  0  0  0  0
   59.8610   34.1670   45.8430 C   0  0  0  0  0  0  0  0  0  0  0  0
   60.9450   33.6030   46.7310 C   0  0  0  0  0  0  0  0  0  0  0  0
   62.2880   33.8350   46.3940 C   0  0  0  0  0  0  0  0  0  0  0  0
   63.3140   33.2900   47.1670 C   0  0  0  0  0  0  0  0  0  0  0  0
   63.0090   32.4990   48.2740 C   0  0  0  0  0  0  0  0  0  0  0  0
   61.6790   32.2470   48.6130 C   0  0  0  0  0  0  0  0  0  0  0  0
   60.6270   32.7890   47.8460 C   0  0  0  0  0  0  0  0  0  0  0  0
   58.2580   29.6590   46.5560 C   0  0  0  0  0  0  0  0  0  0  0  0
   57.7720   29.4560   42.5340 H   0  0  0  0  0  0  0  0  0  0  0  0
   56.6340   28.2410   42.7260 H   0  0  0  0  0  0  0  0  0  0  0  0
   57.8825   27.1783   44.2301 H   0  0  0  0  0  0  0  0  0  0  0  0
   59.5954   26.1038   45.6909 H   0  0  0  0  0  0  0  0  0  0  0  0
   60.4623   27.3043   47.6976 H   0  0  0  0  0  0  0  0  0  0  0  0
   57.8106   32.3188   49.7230 H   0  0  0  0  0  0  0  0  0  0  0  0
   59.5313   32.3596   50.2609 H   0  0  0  0  0  0  0  0  0  0  0  0
   58.1660   32.1001   46.4289 H   0  0  0  0  0  0  0  0  0  0  0  0
   57.2214   32.9387   47.7098 H   0  0  0  0  0  0  0  0  0  0  0  0
   57.7213   34.4668   45.8203 H   0  0  0  0  0  0  0  0  0  0  0  0
   58.5406   35.0038   47.3311 H   0  0  0  0  0  0  0  0  0  0  0  0
   59.7660   33.5298   44.9514 H   0  0  0  0  0  0  0  0  0  0  0  0
   60.1464   35.1942   45.5719 H   0  0  0  0  0  0  0  0  0  0  0  0
   62.5329   34.4500   45.5155 H   0  0  0  0  0  0  0  0  0  0  0  0
   64.3640   33.4845   46.9029 H   0  0  0  0  0  0  0  0  0  0  0  0
   63.8199   32.0720   48.8824 H   0  0  0  0  0  0  0  0  0  0  0  0
   61.4490   31.6196   49.4868 H   0  0  0  0  0  0  0  0  0  0  0  0
   57.8594   30.6510   46.8151 H   0  0  0  0  0  0  0  0  0  0  0  0
  1  2  1  0
  2  3  2  0
  2  4  2  0
  2  5  1  0
  5  6  2  0
  6  7  1  0
  7  8  2  0
  8  9  1  0
  9 10  1  0
 10 11  1  0
 11 12  2  0
 11 13  1  0
 13 14  1  0
 14 15  1  0
 15 16  1  0
 16 17  1  0
 17 18  1  0
 18 19  2  0
 19 20  1  0
 20 21  2  0
 21 22  1  0
 22 23  2  0
  9 24  2  0
 24  5  1  0
 23 14  1  0
 23 18  1  0
  1 25  1  0
  1 26  1  0
  6 27  1  0
  7 28  1  0
  8 29  1  0
 13 30  1  0
 13 31  1  0
 15 32  1  0
 15 33  1  0
 16 34  1  0
 16 35  1  0
 17 36  1  0
 17 37  1  0
 19 38  1  0
 20 39  1  0
 21 40  1  0
 22 41  1  0
 24 42  1  0
M  CHG  1  10  -1
M  END
>  <UniqueID>  (70) 
69

>  <SMILES>  (70) 
NS(=O)(=O)c1cccc([N-]C(=O)CN2CCCc3ccccc32)c1

>  <Energy>  (70) 
46.69422363195378

>  <Genealogy>  (70) 
NS(=O)(=O)c1cccc([N-]C(=O)CN2CCCc3ccccc32)c1 (protonated)
NS(=O)(=O)c1cccc([N-]C(=O)CN2CCCc3ccccc32)c1 (3D coordinates assigned)
NS(=O)(=O)c1cccc([N-]C(=O)CN2CCCc3ccccc32)c1 (nonaromatic ring conformer: 46.69422363195378 kcal/mol)

>  <smiles>  (70) 
NS(=O)(=O)c1cccc(NC(=O)CN2CCCc3ccccc32)c1

>  <score_type>  (70) 
oracle

>  <origin>  (70) 
adg

>  <m_score__min__energy>  (70) 
-10.199999999999999

>  <m_primary>  (70) 
energy

$$$$
70:0
     RDKit          3D

 32 34  0  0  0  0  0  0  0  0999 V2000
   61.0810   34.1390   48.3010 O   0  0  0  0  0  0  0  0  0  0  0  0
   61.0770   32.8890   47.6960 C   0  0  0  0  0  0  0  0  0  0  0  0
   62.2660   32.1610   47.5850 C   0  0  0  0  0  0  0  0  0  0  0  0
   62.2630   30.9020   46.9780 C   0  0  0  0  0  0  0  0  0  0  0  0
   61.0700   30.3670   46.4810 C   0  0  0  0  0  0  0  0  0  0  0  0
   59.8760   31.0960   46.5850 C   0  0  0  0  0  0  0  0  0  0  0  0
   58.6110   30.5260   46.0670 C   0  0  0  0  0  0  0  0  0  0  0  0
   57.7830   31.3040   45.2230 C   0  0  0  0  0  0  0  0  0  0  0  0
   58.1600   32.7040   44.7910 C   0  0  0  0  0  0  0  0  0  0  0  0
   57.2130   33.6230   45.2610 O   0  0  0  0  0  0  0  0  0  0  0  0
   56.6080   30.7480   44.7080 C   0  0  0  0  0  0  0  0  0  0  0  0
   56.2170   29.4500   45.0330 C   0  0  0  0  0  0  0  0  0  0  0  0
   55.0320   28.9660   44.4890 O   0  0  0  0  0  0  0  0  0  0  0  0
   57.0130   28.6600   45.8880 C   0  0  0  0  0  0  0  0  0  0  0  0
   56.6400   27.3380   46.2400 C   0  0  0  0  0  0  0  0  0  0  0  0
   55.4690   26.7600   45.7590 O   0  0  0  0  0  0  0  0  0  0  0  0
   57.4490   26.5800   47.0860 C   0  0  0  0  0  0  0  0  0  0  0  0
   58.6300   27.1100   47.5960 C   0  0  0  0  0  0  0  0  0  0  0  0
   59.0170   28.4070   47.2650 C   0  0  0  0  0  0  0  0  0  0  0  0
   58.2240   29.2030   46.4100 C   0  0  0  0  0  0  0  0  0  0  0  0
   59.8820   32.3570   47.1980 C   0  0  0  0  0  0  0  0  0  0  0  0
   63.2050   32.5799   47.9760 H   0  0  0  0  0  0  0  0  0  0  0  0
   63.1995   30.3315   46.8911 H   0  0  0  0  0  0  0  0  0  0  0  0
   61.0681   29.3738   46.0082 H   0  0  0  0  0  0  0  0  0  0  0  0
   59.1485   32.9578   45.2014 H   0  0  0  0  0  0  0  0  0  0  0  0
   58.1894   32.7466   43.6922 H   0  0  0  0  0  0  0  0  0  0  0  0
   56.3400   33.3550   44.8730 H   0  0  0  0  0  0  0  0  0  0  0  0
   55.9794   31.3470   44.0327 H   0  0  0  0  0  0  0  0  0  0  0  0
   57.1511   25.5551   47.3522 H   0  0  0  0  0  0  0  0  0  0  0  0
   59.2603   26.5031   48.2627 H   0  0  0  0  0  0  0  0  0  0  0  0
   59.9522   28.8160   47.6750 H   0  0  0  0  0  0  0  0  0  0  0  0
   58.9466   32.9288   47.2876 H   0  0  0  0  0  0  0  0  0  0  0  0
  1  2  1  0
  2  3  2  0
  3  4  1  0
  4  5  2  0
  5  6  1  0
  6  7  1  0
  7  8  2  0
  8  9  1  0
  9 10  1  0
  8 11  1  0
 11 12  2  0
 12 13  1  0
 12 14  1  0
 14 15  2  0
 15 16  1  0
 15 17  1  0
 17 18  2  0
 18 19  1  0
 19 20  2  0
  6 21  2  0
 21  2  1  0
 20  7  1  0
 20 14  1  0
  3 22  1  0
  4 23  1  0
  5 24  1  0
  9 25  1  0
  9 26  1  0
 10 27  1  0
 11 28  1  0
 17 29  1  0
 18 30  1  0
 19 31  1  0
 21 32  1  0
M  CHG  3   1  -1  13  -1  16  -1
M  END
>  <UniqueID>  (71) 
70

>  <SMILES>  (71) 
[O-]c1cccc(-c2c(CO)cc([O-])c3c([O-])cccc23)c1

>  <Energy>  (71) 
51.55368492280186

>  <Genealogy>  (71) 
[O-]c1cccc(-c2c(CO)cc([O-])c3c([O-])cccc23)c1 (protonated)
[O-]c1cccc(-c2c(CO)cc([O-])c3c([O-])cccc23)c1 (3D coordinates assigned)
[O-]c1cccc(-c2c(CO)cc([O-])c3c([O-])cccc23)c1 (optimized conformer: 51.55368492280186 kcal/mol)

>  <smiles>  (71) 
OCc1cc(O)c2c(O)cccc2c1-c1cccc(O)c1

>  <score_type>  (71) 
oracle

>  <origin>  (71) 
adg

>  <m_score__min__energy>  (71) 
-12.460000000000001

>  <m_primary>  (71) 
energy

$$$$
71:0
     RDKit          3D

 54 56  0  0  0  0  0  0  0  0999 V2000
   63.1910   33.5770   48.3390 C   0  0  0  0  0  0  0  0  0  0  0  0
   63.4380   32.6850   47.1350 C   0  0  0  0  0  0  0  0  0  0  0  0
   63.1580   31.3310   47.4810 O   0  0  0  0  0  0  0  0  0  0  0  0
   61.8900   30.8500   47.8390 C   0  0  0  0  0  0  0  0  0  0  0  0
   60.8560   30.6860   46.8960 C   0  0  0  0  0  0  0  0  0  0  0  0
   59.5940   30.2220   47.2990 C   0  0  0  0  0  0  0  0  0  0  0  0
   58.4970   30.1090   46.3160 C   0  0  0  0  0  0  0  0  0  0  0  0
   57.6410   29.0120   46.1710 C   0  0  0  0  0  0  0  0  0  0  0  0
   57.6740   27.7130   46.8830 C   0  0  0  0  0  0  0  0  0  0  0  0
   57.8800   27.7050   48.1260 O   0  0  0  0  0  0  0  0  0  0  0  0
   57.4650   26.4280   46.1810 C   0  0  0  0  0  0  0  0  0  0  0  0
   58.5690   25.6640   45.7650 C   0  0  0  0  0  0  0  0  0  0  0  0
   58.3800   24.4290   45.1370 C   0  0  0  0  0  0  0  0  0  0  0  0
   57.0870   23.9540   44.9060 C   0  0  0  0  0  0  0  0  0  0  0  0
   55.9820   24.7150   45.2940 C   0  0  0  0  0  0  0  0  0  0  0  0
   56.1640   25.9500   45.9260 C   0  0  0  0  0  0  0  0  0  0  0  0
   55.0480   26.6830   46.3170 O   0  0  0  0  0  0  0  0  0  0  0  0
   56.6880   29.4020   45.2490 C   0  0  0  0  0  0  0  0  0  0  0  0
   55.6170   28.6370   44.7970 O   0  0  0  0  0  0  0  0  0  0  0  0
   56.9890   30.6880   44.8670 C   0  0  0  0  0  0  0  0  0  0  0  0
   56.2500   31.4520   43.9720 O   0  0  0  0  0  0  0  0  0  0  0  0
   58.0930   31.1240   45.5080 N   0  0  0  0  0  0  0  0  0  0  0  0
   58.6180   32.4940   45.4640 C   0  0  0  0  0  0  0  0  0  0  0  0
   58.3910   33.2160   46.7940 C   0  0  0  0  0  0  0  0  0  0  0  0
   59.5990   33.9930   47.1600 N   0  0  0  0  0  0  0  0  0  0  0  0
   59.6590   35.2690   46.4290 C   0  0  0  0  0  0  0  0  0  0  0  0
   59.6610   34.2410   48.6090 C   0  0  0  0  0  0  0  0  0  0  0  0
   59.3700   29.9050   48.6450 C   0  0  0  0  0  0  0  0  0  0  0  0
   60.3950   30.0570   49.5820 C   0  0  0  0  0  0  0  0  0  0  0  0
   61.6480   30.5300   49.1820 C   0  0  0  0  0  0  0  0  0  0  0  0
   62.6560   30.6840   50.1260 O   0  0  0  0  0  0  0  0  0  0  0  0
   63.3508   33.0000   49.2618 H   0  0  0  0  0  0  0  0  0  0  0  0
   63.8872   34.4282   48.3137 H   0  0  0  0  0  0  0  0  0  0  0  0
   62.1561   33.9489   48.3137 H   0  0  0  0  0  0  0  0  0  0  0  0
   62.7821   32.9952   46.3082 H   0  0  0  0  0  0  0  0  0  0  0  0
   64.4890   32.7737   46.8226 H   0  0  0  0  0  0  0  0  0  0  0  0
   61.0388   30.9230   45.8375 H   0  0  0  0  0  0  0  0  0  0  0  0
   59.5887   26.0402   45.9346 H   0  0  0  0  0  0  0  0  0  0  0  0
   59.2494   23.8317   44.8250 H   0  0  0  0  0  0  0  0  0  0  0  0
   56.9388   22.9794   44.4179 H   0  0  0  0  0  0  0  0  0  0  0  0
   54.9651   24.3421   45.1021 H   0  0  0  0  0  0  0  0  0  0  0  0
   55.1450   27.9850   45.4120 H   0  0  0  0  0  0  0  0  0  0  0  0
   59.6973   32.4582   45.2547 H   0  0  0  0  0  0  0  0  0  0  0  0
   58.0879   33.0452   44.6733 H   0  0  0  0  0  0  0  0  0  0  0  0
   57.5341   33.8988   46.6965 H   0  0  0  0  0  0  0  0  0  0  0  0
   58.1875   32.4727   47.5789 H   0  0  0  0  0  0  0  0  0  0  0  0
   59.6981   36.1014   47.1470 H   0  0  0  0  0  0  0  0  0  0  0  0
   60.5590   35.2874   45.7968 H   0  0  0  0  0  0  0  0  0  0  0  0
   58.7647   35.3718   45.7968 H   0  0  0  0  0  0  0  0  0  0  0  0
   59.4287   33.3120   49.1503 H   0  0  0  0  0  0  0  0  0  0  0  0
   60.6716   34.5804   48.8800 H   0  0  0  0  0  0  0  0  0  0  0  0
   58.9290   35.0160   48.8800 H   0  0  0  0  0  0  0  0  0  0  0  0
   58.3846   29.5355   48.9650 H   0  0  0  0  0  0  0  0  0  0  0  0
   60.2155   29.8038   50.6373 H   0  0  0  0  0  0  0  0  0  0  0  0
  1  2  1  0
  2  3  1  0
  3  4  1  0
  4  5  2  0
  5  6  1  0
  6  7  1  0
  7  8  2  0
  8  9  1  0
  9 10  2  0
  9 11  1  0
 11 12  2  0
 12 13  1  0
 13 14  2  0
 14 15  1  0
 15 16  2  0
 16 17  1  0
  8 18  1  0
 18 19  1  0
 18 20  2  0
 20 21  1  0
 20 22  1  0
 22 23  1  0
 23 24  1  0
 24 25  1  0
 25 26  1  0
 25 27  1  0
  6 28  2  0
 28 29  1  0
 29 30  2  0
 30 31  1  0
 30  4  1  0
 22  7  1  0
 16 11  1  0
  1 32  1  0
  1 33  1  0
  1 34  1  0
  2 35  1  0
  2 36  1  0
  5 37  1  0
 12 38  1  0
 13 39  1  0
 14 40  1  0
 15 41  1  0
 19 42  1  0
 23 43  1  0
 23 44  1  0
 24 45  1  0
 24 46  1  0
 26 47  1  0
 26 48  1  0
 26 49  1  0
 27 50  1  0
 27 51  1  0
 27 52  1  0
 28 53  1  0
 29 54  1  0
M  CHG  3  17  -1  21  -1  31  -1
M  END
>  <UniqueID>  (72) 
71

>  <SMILES>  (72) 
CCOc1cc(-c2c(C(=O)c3ccccc3[O-])c(O)c([O-])n2CCN(C)C)ccc1[O-]

>  <Energy>  (72) 
88.4881516146916

>  <Genealogy>  (72) 
CCOc1cc(-c2c(C(=O)c3ccccc3[O-])c(O)c([O-])n2CCN(C)C)ccc1[O-] (protonated)
CCOc1cc(-c2c(C(=O)c3ccccc3[O-])c(O)c([O-])n2CCN(C)C)ccc1[O-] (3D coordinates assigned)
CCOc1cc(-c2c(C(=O)c3ccccc3[O-])c(O)c([O-])n2CCN(C)C)ccc1[O-] (optimized conformer: 88.4881516146916 kcal/mol)

>  <smiles>  (72) 
CCOc1cc(-c2c(C(=O)c3ccccc3O)c(O)c(O)n2CCN(C)C)ccc1O

>  <score_type>  (72) 
oracle

>  <origin>  (72) 
adg

>  <m_score__min__energy>  (72) 
-13.34

>  <m_primary>  (72) 
energy

$$$$
72:0
     RDKit          3D

 45 47  0  0  0  0  0  0  0  0999 V2000
   57.2920   25.4300   44.7960 C   0  0  0  0  0  0  0  0  0  0  0  0
   56.6590   26.7870   45.7540 S   0  0  0  0  0  0  0  0  0  0  0  0
   55.1900   26.5780   45.9940 O   0  0  0  0  0  0  0  0  0  0  0  0
   57.3900   26.8460   47.0660 O   0  0  0  0  0  0  0  0  0  0  0  0
   56.9090   28.2600   44.8740 N   0  0  0  0  0  0  0  0  0  0  0  0
   57.4260   29.4780   45.4270 C   0  0  0  0  0  0  0  0  0  0  0  0
   58.0120   29.4390   46.6930 C   0  0  0  0  0  0  0  0  0  0  0  0
   58.5300   30.5950   47.2790 C   0  0  0  0  0  0  0  0  0  0  0  0
   58.4670   31.8410   46.6090 C   0  0  0  0  0  0  0  0  0  0  0  0
   57.8920   31.8660   45.3110 C   0  0  0  0  0  0  0  0  0  0  0  0
   57.8560   33.0640   44.5990 C   0  0  0  0  0  0  0  0  0  0  0  0
   58.3960   34.2140   45.1530 C   0  0  0  0  0  0  0  0  0  0  0  0
   58.9520   34.1770   46.4310 C   0  0  0  0  0  0  0  0  0  0  0  0
   59.4500   35.2400   46.8970 O   0  0  0  0  0  0  0  0  0  0  0  0
   58.9570   33.0120   47.1680 N   0  0  0  0  0  0  0  0  0  0  0  0
   59.5210   33.0430   48.5370 C   0  0  0  0  0  0  0  0  0  0  0  0
   61.0170   32.6720   48.5150 C   0  0  0  0  0  0  0  0  0  0  0  0
   61.8890   33.8040   48.1020 N   0  0  0  0  0  0  0  0  0  0  0  0
   62.8220   34.1960   49.1910 C   0  0  0  0  0  0  0  0  0  0  0  0
   64.1790   33.4630   49.1080 C   0  0  0  0  0  0  0  0  0  0  0  0
   64.0460   32.2320   48.4330 O   0  0  0  0  0  0  0  0  0  0  0  0
   63.7340   32.4530   47.0680 C   0  0  0  0  0  0  0  0  0  0  0  0
   62.6470   33.5350   46.8590 C   0  0  0  0  0  0  0  0  0  0  0  0
   57.3710   30.6960   44.7350 C   0  0  0  0  0  0  0  0  0  0  0  0
   57.6588   24.6436   45.4720 H   0  0  0  0  0  0  0  0  0  0  0  0
   56.4905   25.0237   44.1616 H   0  0  0  0  0  0  0  0  0  0  0  0
   58.1184   25.7830   44.1616 H   0  0  0  0  0  0  0  0  0  0  0  0
   58.0664   28.4842   47.2364 H   0  0  0  0  0  0  0  0  0  0  0  0
   58.9935   30.5374   48.2749 H   0  0  0  0  0  0  0  0  0  0  0  0
   57.3996   33.0966   43.5987 H   0  0  0  0  0  0  0  0  0  0  0  0
   58.3859   35.1557   44.5845 H   0  0  0  0  0  0  0  0  0  0  0  0
   59.4054   34.0547   48.9530 H   0  0  0  0  0  0  0  0  0  0  0  0
   58.9832   32.3125   49.1592 H   0  0  0  0  0  0  0  0  0  0  0  0
   61.3137   32.3508   49.5244 H   0  0  0  0  0  0  0  0  0  0  0  0
   61.1466   31.8688   47.7747 H   0  0  0  0  0  0  0  0  0  0  0  0
   61.2660   34.6280   47.9200 H   0  0  0  0  0  0  0  0  0  0  0  0
   63.0029   35.2791   49.1262 H   0  0  0  0  0  0  0  0  0  0  0  0
   62.3526   33.9176   50.1461 H   0  0  0  0  0  0  0  0  0  0  0  0
   64.8972   34.0954   48.5655 H   0  0  0  0  0  0  0  0  0  0  0  0
   64.5352   33.2665   50.1300 H   0  0  0  0  0  0  0  0  0  0  0  0
   64.6491   32.7714   46.5472 H   0  0  0  0  0  0  0  0  0  0  0  0
   63.3374   31.5090   46.6661 H   0  0  0  0  0  0  0  0  0  0  0  0
   63.1310   34.4661   46.5291 H   0  0  0  0  0  0  0  0  0  0  0  0
   61.9397   33.1656   46.1018 H   0  0  0  0  0  0  0  0  0  0  0  0
   56.9166   30.7355   43.7340 H   0  0  0  0  0  0  0  0  0  0  0  0
  1  2  1  0
  2  3  2  0
  2  4  2  0
  2  5  1  0
  5  6  1  0
  6  7  2  0
  7  8  1  0
  8  9  2  0
  9 10  1  0
 10 11  1  0
 11 12  2  0
 12 13  1  0
 13 14  2  0
 13 15  1  0
 15 16  1  0
 16 17  1  0
 17 18  1  0
 18 19  1  0
 19 20  1  0
 20 21  1  0
 21 22  1  0
 22 23  1  0
 10 24  2  0
 24  6  1  0
 15  9  1  0
 23 18  1  0
  1 25  1  0
  1 26  1  0
  1 27  1  0
  7 28  1  0
  8 29  1  0
 11 30  1  0
 12 31  1  0
 16 32  1  0
 16 33  1  0
 17 34  1  0
 17 35  1  0
 18 36  1  0
 19 37  1  0
 19 38  1  0
 20 39  1  0
 20 40  1  0
 22 41  1  0
 22 42  1  0
 23 43  1  0
 23 44  1  0
 24 45  1  0
M  CHG  2   5  -1  18   1
M  END
>  <UniqueID>  (73) 
72

>  <SMILES>  (73) 
CS(=O)(=O)[N-]c1ccc2c(ccc(=O)n2CC[NH+]2CCOCC2)c1

>  <Energy>  (73) 
67.81697847002746

>  <Genealogy>  (73) 
CS(=O)(=O)[N-]c1ccc2c(ccc(=O)n2CC[NH+]2CCOCC2)c1 (protonated)
CS(=O)(=O)[N-]c1ccc2c(ccc(=O)n2CC[NH+]2CCOCC2)c1 (3D coordinates assigned)
CS(=O)(=O)[N-]c1ccc2c(ccc(=O)n2CC[NH+]2CCOCC2)c1 (nonaromatic ring conformer: 67.81697847002746 kcal/mol)

>  <smiles>  (73) 
CS(=O)(=O)Nc1ccc2c(ccc(=O)n2CCN2CCOCC2)c1

>  <score_type>  (73) 
oracle

>  <origin>  (73) 
adg

>  <m_score__min__energy>  (73) 
-7.7199999999999998

>  <m_primary>  (73) 
energy

$$$$
73:0
     RDKit          3D

 56 59  0  0  0  0  0  0  0  0999 V2000
   58.1440   27.4800   43.3460 C   0  0  0  0  0  0  0  0  0  0  0  0
   57.6580   27.9620   44.6520 N   0  0  0  0  0  0  0  0  0  0  0  0
   57.2470   26.8480   45.5340 C   0  0  0  0  0  0  0  0  0  0  0  0
   58.1220   26.6950   46.7500 C   0  0  0  0  0  0  0  0  0  0  0  0
   58.8650   25.6830   46.8590 O   0  0  0  0  0  0  0  0  0  0  0  0
   58.1530   27.7400   47.7320 N   0  0  0  0  0  0  0  0  0  0  0  0
   59.0290   28.8760   47.7460 C   0  0  0  0  0  0  0  0  0  0  0  0
   59.8600   29.1950   46.6570 C   0  0  0  0  0  0  0  0  0  0  0  0
   60.7080   30.3050   46.7200 C   0  0  0  0  0  0  0  0  0  0  0  0
   60.7530   31.0970   47.8760 C   0  0  0  0  0  0  0  0  0  0  0  0
   61.8240   32.4980   47.9510 S   0  0  0  0  0  0  0  0  0  0  0  0
   62.1150   32.9690   46.5520 O   0  0  0  0  0  0  0  0  0  0  0  0
   61.1280   33.6140   48.6800 O   0  0  0  0  0  0  0  0  0  0  0  0
   63.3280   32.1290   48.7580 N   0  0  0  0  0  0  0  0  0  0  0  0
   63.0750   31.5840   50.0990 C   0  0  0  0  0  0  0  0  0  0  0  0
   64.4140   31.2470   50.7890 C   0  0  0  0  0  0  0  0  0  0  0  0
   65.5310   31.6840   50.0340 O   0  0  0  0  0  0  0  0  0  0  0  0
   65.4030   33.0620   49.7410 C   0  0  0  0  0  0  0  0  0  0  0  0
   64.1720   33.3310   48.8500 C   0  0  0  0  0  0  0  0  0  0  0  0
   59.9430   30.7650   48.9700 C   0  0  0  0  0  0  0  0  0  0  0  0
   59.0930   29.6580   48.9070 C   0  0  0  0  0  0  0  0  0  0  0  0
   56.5950   28.9770   44.4980 C   0  0  0  0  0  0  0  0  0  0  0  0
   57.1860   30.3530   44.4830 C   0  0  0  0  0  0  0  0  0  0  0  0
   57.5060   30.9410   43.3000 N   0  0  0  0  0  0  0  0  0  0  0  0
   58.0380   32.1910   43.2520 C   0  0  0  0  0  0  0  0  0  0  0  0
   58.3190   32.6990   42.1330 O   0  0  0  0  0  0  0  0  0  0  0  0
   58.2660   32.8970   44.4440 C   0  0  0  0  0  0  0  0  0  0  0  0
   58.8150   34.1910   44.4640 C   0  0  0  0  0  0  0  0  0  0  0  0
   59.0230   34.8450   45.6830 C   0  0  0  0  0  0  0  0  0  0  0  0
   58.6850   34.2160   46.8850 C   0  0  0  0  0  0  0  0  0  0  0  0
   58.1380   32.9290   46.8760 C   0  0  0  0  0  0  0  0  0  0  0  0
   57.9280   32.2670   45.6620 C   0  0  0  0  0  0  0  0  0  0  0  0
   57.3970   31.0160   45.6520 N   0  0  0  0  0  0  0  0  0  0  0  0
   58.9171   26.7133   43.5027 H   0  0  0  0  0  0  0  0  0  0  0  0
   57.3063   27.0459   42.7805 H   0  0  0  0  0  0  0  0  0  0  0  0
   58.5712   28.3213   42.7805 H   0  0  0  0  0  0  0  0  0  0  0  0
   56.2147   27.0298   45.8677 H   0  0  0  0  0  0  0  0  0  0  0  0
   57.3373   25.9204   44.9497 H   0  0  0  0  0  0  0  0  0  0  0  0
   59.8427   28.5691   45.7526 H   0  0  0  0  0  0  0  0  0  0  0  0
   61.3430   30.5581   45.8582 H   0  0  0  0  0  0  0  0  0  0  0  0
   62.5324   32.3291   50.6994 H   0  0  0  0  0  0  0  0  0  0  0  0
   62.4721   30.6682   50.0105 H   0  0  0  0  0  0  0  0  0  0  0  0
   64.4383   31.7372   51.7734 H   0  0  0  0  0  0  0  0  0  0  0  0
   64.4784   30.1530   50.8844 H   0  0  0  0  0  0  0  0  0  0  0  0
   65.2935   33.6203   50.6824 H   0  0  0  0  0  0  0  0  0  0  0  0
   66.3031   33.3880   49.1992 H   0  0  0  0  0  0  0  0  0  0  0  0
   63.5842   34.1534   49.2838 H   0  0  0  0  0  0  0  0  0  0  0  0
   64.5163   33.6013   47.8408 H   0  0  0  0  0  0  0  0  0  0  0  0
   59.9765   31.3786   49.8824 H   0  0  0  0  0  0  0  0  0  0  0  0
   58.4694   29.3984   49.7752 H   0  0  0  0  0  0  0  0  0  0  0  0
   56.0605   28.8017   43.5527 H   0  0  0  0  0  0  0  0  0  0  0  0
   55.8990   28.8966   45.3460 H   0  0  0  0  0  0  0  0  0  0  0  0
   59.0812   34.6897   43.5204 H   0  0  0  0  0  0  0  0  0  0  0  0
   59.4537   35.8571   45.6959 H   0  0  0  0  0  0  0  0  0  0  0  0
   58.8498   34.7350   47.8407 H   0  0  0  0  0  0  0  0  0  0  0  0
   57.8729   32.4374   47.8236 H   0  0  0  0  0  0  0  0  0  0  0  0
  1  2  1  0
  2  3  1  0
  3  4  1  0
  4  5  2  0
  4  6  1  0
  6  7  1  0
  7  8  2  0
  8  9  1  0
  9 10  2  0
 10 11  1  0
 11 12  2  0
 11 13  2  0
 11 14  1  0
 14 15  1  0
 15 16  1  0
 16 17  1  0
 17 18  1  0
 18 19  1  0
 10 20  1  0
 20 21  2  0
  2 22  1  0
 22 23  1  0
 23 24  2  0
 24 25  1  0
 25 26  2  0
 25 27  1  0
 27 28  2  0
 28 29  1  0
 29 30  2  0
 30 31  1  0
 31 32  2  0
 32 33  1  0
 21  7  1  0
 33 23  1  0
 19 14  1  0
 32 27  1  0
  1 34  1  0
  1 35  1  0
  1 36  1  0
  3 37  1  0
  3 38  1  0
  8 39  1  0
  9 40  1  0
 15 41  1  0
 15 42  1  0
 16 43  1  0
 16 44  1  0
 18 45  1  0
 18 46  1  0
 19 47  1  0
 19 48  1  0
 20 49  1  0
 21 50  1  0
 22 51  1  0
 22 52  1  0
 28 53  1  0
 29 54  1  0
 30 55  1  0
 31 56  1  0
M  CHG  2   6  -1  33  -1
M  END
>  <UniqueID>  (74) 
73

>  <SMILES>  (74) 
CN(CC(=O)[N-]c1ccc(S(=O)(=O)N2CCOCC2)cc1)Cc1nc(=O)c2ccccc2[n-]1

>  <Energy>  (74) 
75.70609692605439

>  <Genealogy>  (74) 
CN(CC(=O)[N-]c1ccc(S(=O)(=O)N2CCOCC2)cc1)Cc1nc(=O)c2ccccc2[n-]1 (protonated)
CN(CC(=O)[N-]c1ccc(S(=O)(=O)N2CCOCC2)cc1)Cc1nc(=O)c2ccccc2[n-]1 (3D coordinates assigned)
CN(CC(=O)[N-]c1ccc(S(=O)(=O)N2CCOCC2)cc1)Cc1nc(=O)c2ccccc2[n-]1 (nonaromatic ring conformer: 75.70609692605439 kcal/mol)

>  <smiles>  (74) 
CN(CC(=O)Nc1ccc(S(=O)(=O)N2CCOCC2)cc1)Cc1nc(=O)c2ccccc2[nH]1

>  <score_type>  (74) 
oracle

>  <origin>  (74) 
adg

>  <m_score__min__energy>  (74) 
-13.220000000000001

>  <m_primary>  (74) 
energy

$$$$
74:0
     RDKit          3D

 38 41  0  0  1  0  0  0  0  0999 V2000
   57.5110   31.3700   43.5330 C   0  0  0  0  0  0  0  0  0  0  0  0
   58.0080   32.6180   43.1750 C   0  0  0  0  0  0  0  0  0  0  0  0
   58.5220   33.4700   44.1520 C   0  0  0  0  0  0  0  0  0  0  0  0
   58.5360   33.0610   45.5040 C   0  0  0  0  0  0  0  0  0  0  0  0
   59.1230   33.8190   46.4390 N   0  0  0  0  0  0  0  0  0  0  0  0
   59.7740   33.5660   47.4480 C   0  0  0  0  0  0  0  0  0  0  0  0
   59.1200   33.2740   48.5920 N   0  0  0  0  0  0  0  0  0  0  0  0
   59.7190   32.9840   49.7500 C   0  0  0  0  0  0  0  0  0  0  0  0
   58.8910   32.6850   50.9120 C   0  0  0  0  0  0  0  0  0  0  0  0
   58.9290   33.3920   52.0840 C   0  0  0  0  0  0  0  0  0  0  0  0
   58.1210   33.0700   53.1630 C   0  0  0  0  0  0  0  0  0  0  0  0
   57.2400   32.0170   53.1000 C   0  0  0  0  0  0  0  0  0  0  0  0
   57.1830   31.2970   51.9410 C   0  0  0  0  0  0  0  0  0  0  0  0
   57.9870   31.6170   50.8710 C   0  0  0  0  0  0  0  0  0  0  0  0
   61.0420   32.9780   49.7920 N   0  0  0  0  0  0  0  0  0  0  0  0
   61.7330   33.2650   48.6720 C   0  0  0  0  0  0  0  0  0  0  0  0
   63.1040   33.2450   48.7750 C   0  0  0  0  0  0  0  0  0  0  0  0
   63.8190   33.5350   47.6410 C   0  0  0  0  0  0  0  0  0  0  0  0
   63.2860   33.8400   46.4270 C   0  0  0  0  0  0  0  0  0  0  0  0
   61.8800   33.8530   46.3530 C   0  0  0  0  0  0  0  0  0  0  0  0
   61.1360   33.5690   47.4620 C   0  0  0  0  0  0  0  0  0  0  0  0
   58.0240   31.7860   45.8410 C   0  0  0  0  0  0  0  0  0  0  0  0
   57.5180   30.9550   44.8530 C   0  0  0  0  0  0  0  0  0  0  0  0
   57.1069   30.7037   42.7567 H   0  0  0  0  0  0  0  0  0  0  0  0
   57.9958   32.9334   42.1212 H   0  0  0  0  0  0  0  0  0  0  0  0
   58.9155   34.4579   43.8706 H   0  0  0  0  0  0  0  0  0  0  0  0
   59.6221   34.2416   52.1718 H   0  0  0  0  0  0  0  0  0  0  0  0
   58.1859   33.6669   54.0847 H   0  0  0  0  0  0  0  0  0  0  0  0
   56.6000   31.7618   53.9575 H   0  0  0  0  0  0  0  0  0  0  0  0
   56.4853   30.4503   51.8617 H   0  0  0  0  0  0  0  0  0  0  0  0
   57.9170   31.0140   49.9537 H   0  0  0  0  0  0  0  0  0  0  0  0
   61.5360   32.7600   50.6650 H   0  0  0  0  0  0  0  0  0  0  0  0
   63.6052   33.0070   49.7248 H   0  0  0  0  0  0  0  0  0  0  0  0
   64.9161   33.5197   47.7198 H   0  0  0  0  0  0  0  0  0  0  0  0
   63.9168   34.0635   45.5540 H   0  0  0  0  0  0  0  0  0  0  0  0
   61.3812   34.0919   45.4021 H   0  0  0  0  0  0  0  0  0  0  0  0
   58.0273   31.4530   46.8894 H   0  0  0  0  0  0  0  0  0  0  0  0
   57.1214   29.9641   45.1191 H   0  0  0  0  0  0  0  0  0  0  0  0
  1  2  2  0
  2  3  1  0
  3  4  2  0
  4  5  1  0
  5  6  2  0
  6  7  1  0
  7  8  2  0
  8  9  1  0
  9 10  2  0
 10 11  1  0
 11 12  2  0
 12 13  1  0
 13 14  2  0
  8 15  1  0
 15 16  1  0
 16 17  2  0
 17 18  1  0
 18 19  2  0
 19 20  1  0
 20 21  2  0
  4 22  1  0
 22 23  2  0
 23  1  1  0
 21  6  1  0
 14  9  1  0
 21 16  1  0
  1 24  1  0
  2 25  1  0
  3 26  1  0
 10 27  1  0
 11 28  1  0
 12 29  1  0
 13 30  1  0
 14 31  1  0
 15 32  1  0
 17 33  1  0
 18 34  1  0
 19 35  1  0
 20 36  1  0
 22 37  1  0
 23 38  1  0
M  END
>  <smiles>  (75) 
c1ccc(N=c2nc(-c3ccccc3)[nH]c3ccccc23)cc1

>  <score_type>  (75) 
oracle

>  <origin>  (75) 
adg

>  <m_score__min__energy>  (75) 
-7.4900000000000002

>  <m_primary>  (75) 
energy

$$$$
75:0
     RDKit          3D

 49 51  0  0  0  0  0  0  0  0999 V2000
   58.4660   33.0910   51.6370 C   0  0  0  0  0  0  0  0  0  0  0  0
   58.1730   32.1600   50.7240 C   0  0  0  0  0  0  0  0  0  0  0  0
   58.3320   30.6920   51.0090 C   0  0  0  0  0  0  0  0  0  0  0  0
   59.2860   30.0470   50.0390 C   0  0  0  0  0  0  0  0  0  0  0  0
   59.4580   28.7570   50.0880 N   0  0  0  0  0  0  0  0  0  0  0  0
   60.3190   28.0720   49.1770 C   0  0  0  0  0  0  0  0  0  0  0  0
   60.5920   26.8570   49.3580 O   0  0  0  0  0  0  0  0  0  0  0  0
   60.8540   28.7690   48.0530 N   0  0  0  0  0  0  0  0  0  0  0  0
   60.4490   30.1460   47.7650 C   0  0  1  0  0  0  0  0  0  0  0  0
   59.3040   30.1770   46.7660 C   0  0  0  0  0  0  0  0  0  0  0  0
   58.5100   29.0280   46.5870 C   0  0  0  0  0  0  0  0  0  0  0  0
   57.4810   29.0150   45.6430 C   0  0  0  0  0  0  0  0  0  0  0  0
   57.2330   30.1420   44.8540 C   0  0  0  0  0  0  0  0  0  0  0  0
   55.9340   30.0850   43.6700 Cl  0  0  0  0  0  0  0  0  0  0  0  0
   58.0250   31.2930   45.0130 C   0  0  0  0  0  0  0  0  0  0  0  0
   57.7590   32.7270   44.0290 Cl  0  0  0  0  0  0  0  0  0  0  0  0
   59.0540   31.3050   45.9610 C   0  0  0  0  0  0  0  0  0  0  0  0
   60.0790   30.9070   49.0700 C   0  0  2  0  0  0  0  0  0  0  0  0
   61.3120   31.4200   49.7620 C   0  0  0  0  0  0  0  0  0  0  0  0
   62.3790   30.7450   49.7470 O   0  0  0  0  0  0  0  0  0  0  0  0
   61.2510   32.6390   50.4430 O   0  0  0  0  0  0  0  0  0  0  0  0
   61.6850   33.8660   49.8680 C   0  0  0  0  0  0  0  0  0  0  0  0
   60.9790   34.0740   48.5570 C   0  0  0  0  0  0  0  0  0  0  0  0
   59.6490   34.5270   48.5400 C   0  0  0  0  0  0  0  0  0  0  0  0
   58.9910   34.7420   47.3280 C   0  0  0  0  0  0  0  0  0  0  0  0
   59.6540   34.5120   46.1220 C   0  0  0  0  0  0  0  0  0  0  0  0
   60.9790   34.0710   46.1240 C   0  0  0  0  0  0  0  0  0  0  0  0
   61.6570   33.8530   47.3400 C   0  0  0  0  0  0  0  0  0  0  0  0
   62.9930   33.4230   47.3760 O   0  0  0  0  0  0  0  0  0  0  0  0
   63.4190   32.0870   47.1290 C   0  0  0  0  0  0  0  0  0  0  0  0
   58.3384   34.1567   51.3963 H   0  0  0  0  0  0  0  0  0  0  0  0
   58.8348   32.7915   52.6291 H   0  0  0  0  0  0  0  0  0  0  0  0
   57.8053   32.4763   49.7367 H   0  0  0  0  0  0  0  0  0  0  0  0
   58.7194   30.5652   52.0307 H   0  0  0  0  0  0  0  0  0  0  0  0
   57.3494   30.2091   50.9029 H   0  0  0  0  0  0  0  0  0  0  0  0
   61.3069   30.6633   47.3106 H   0  0  0  0  0  0  0  0  0  0  0  0
   58.7020   28.1325   47.1963 H   0  0  0  0  0  0  0  0  0  0  0  0
   56.8627   28.1136   45.5197 H   0  0  0  0  0  0  0  0  0  0  0  0
   59.6746   32.2056   46.0788 H   0  0  0  0  0  0  0  0  0  0  0  0
   59.4453   31.7523   48.7636 H   0  0  0  0  0  0  0  0  0  0  0  0
   61.4476   34.6961   50.5496 H   0  0  0  0  0  0  0  0  0  0  0  0
   62.7718   33.8324   49.7015 H   0  0  0  0  0  0  0  0  0  0  0  0
   59.1230   34.7134   49.4879 H   0  0  0  0  0  0  0  0  0  0  0  0
   57.9486   35.0932   47.3236 H   0  0  0  0  0  0  0  0  0  0  0  0
   59.1321   34.6783   45.1681 H   0  0  0  0  0  0  0  0  0  0  0  0
   61.4969   33.8926   45.1701 H   0  0  0  0  0  0  0  0  0  0  0  0
   63.5834   31.5716   48.0868 H   0  0  0  0  0  0  0  0  0  0  0  0
   62.6457   31.5558   46.5547 H   0  0  0  0  0  0  0  0  0  0  0  0
   64.3571   32.1015   46.5547 H   0  0  0  0  0  0  0  0  0  0  0  0
  1  2  2  0
  2  3  1  0
  3  4  1  0
  4  5  2  0
  5  6  1  0
  6  7  2  0
  6  8  1  0
  8  9  1  0
  9 10  1  0
 10 11  2  0
 11 12  1  0
 12 13  2  0
 13 14  1  0
 13 15  1  0
 15 16  1  0
 15 17  2  0
  9 18  1  0
 18 19  1  0
 19 20  2  0
 19 21  1  0
 21 22  1  0
 22 23  1  0
 23 24  2  0
 24 25  1  0
 25 26  2  0
 26 27  1  0
 27 28  2  0
 28 29  1  0
 29 30  1  0
 18  4  1  0
 28 23  1  0
 17 10  1  0
  1 31  1  0
  1 32  1  0
  2 33  1  0
  3 34  1  0
  3 35  1  0
  9 36  1  6
 11 37  1  0
 12 38  1  0
 17 39  1  0
 18 40  1  6
 22 41  1  0
 22 42  1  0
 24 43  1  0
 25 44  1  0
 26 45  1  0
 27 46  1  0
 30 47  1  0
 30 48  1  0
 30 49  1  0
M  CHG  1   8  -1
M  END
>  <UniqueID>  (76) 
74

>  <SMILES>  (76) 
C=CCC1=NC(=O)[N-][C@@H](c2ccc(Cl)c(Cl)c2)[C@@H]1C(=O)OCc1ccccc1OC

>  <Energy>  (76) 
44.90289257209521

>  <Genealogy>  (76) 
C=CCC1=NC(=O)[N-]C(c2ccc(Cl)c(Cl)c2)C1C(=O)OCc1ccccc1OC (protonated)
C=CCC1=NC(=O)[N-][C@@H](c2ccc(Cl)c(Cl)c2)[C@@H]1C(=O)OCc1ccccc1OC (chirality)
C=CCC1=NC(=O)[N-][C@@H](c2ccc(Cl)c(Cl)c2)[C@@H]1C(=O)OCc1ccccc1OC (3D coordinates assigned)
C=CCC1=NC(=O)[N-][C@@H](c2ccc(Cl)c(Cl)c2)[C@@H]1C(=O)OCc1ccccc1OC (nonaromatic ring conformer: 44.90289257209521 kcal/mol)

>  <smiles>  (76) 
C=CCC1=NC(=O)NC(c2ccc(Cl)c(Cl)c2)C1C(=O)OCc1ccccc1OC

>  <score_type>  (76) 
oracle

>  <origin>  (76) 
adg

>  <m_score__min__energy>  (76) 
-9.3699999999999992

>  <m_primary>  (76) 
energy

$$$$
76:0
     RDKit          3D

 64 67  0  0  0  0  0  0  0  0999 V2000
   69.0100   35.1310   50.5220 C   0  0  0  0  0  0  0  0  0  0  0  0
   68.9280   33.6310   50.8460 C   0  0  0  0  0  0  0  0  0  0  0  0
   67.5700   33.0540   50.7430 N   0  0  0  0  0  0  0  0  0  0  0  0
   66.5030   33.9740   51.1980 C   0  0  0  0  0  0  0  0  0  0  0  0
   65.1380   33.2640   51.2800 C   0  0  0  0  0  0  0  0  0  0  0  0
   65.1460   32.0720   50.4170 N   0  0  0  0  0  0  0  0  0  0  0  0
   63.7940   31.5250   50.1550 C   0  0  0  0  0  0  0  0  0  0  0  0
   63.1340   32.0850   48.9100 C   0  0  0  0  0  0  0  0  0  0  0  0
   63.5380   33.3200   48.3810 C   0  0  0  0  0  0  0  0  0  0  0  0
   62.8870   33.8550   47.2670 C   0  0  0  0  0  0  0  0  0  0  0  0
   61.8360   33.1580   46.6640 C   0  0  0  0  0  0  0  0  0  0  0  0
   61.4380   31.9060   47.1620 C   0  0  0  0  0  0  0  0  0  0  0  0
   60.3470   31.1480   46.5130 C   0  0  0  0  0  0  0  0  0  0  0  0
   60.3850   29.8870   46.5150 O   0  0  0  0  0  0  0  0  0  0  0  0
   59.2330   31.8350   45.9200 N   0  0  0  0  0  0  0  0  0  0  0  0
   58.2670   31.1900   45.0750 C   0  0  0  0  0  0  0  0  0  0  0  0
   57.9590   31.6990   43.8030 C   0  0  0  0  0  0  0  0  0  0  0  0
   57.0050   31.0640   43.0050 C   0  0  0  0  0  0  0  0  0  0  0  0
   56.3450   29.9230   43.4680 C   0  0  0  0  0  0  0  0  0  0  0  0
   56.6230   29.4200   44.7520 C   0  0  0  0  0  0  0  0  0  0  0  0
   56.0000   28.2260   45.2500 N   0  0  0  0  0  0  0  0  0  0  0  0
   56.6630   27.1220   45.8840 C   0  0  0  0  0  0  0  0  0  0  0  0
   57.3330   27.3080   46.9350 O   0  0  0  0  0  0  0  0  0  0  0  0
   56.5760   25.7690   45.2910 C   0  0  0  0  0  0  0  0  0  0  0  0
   55.5190   24.9060   45.6290 C   0  0  0  0  0  0  0  0  0  0  0  0
   55.4170   23.6420   45.0400 C   0  0  0  0  0  0  0  0  0  0  0  0
   56.3660   23.2150   44.0970 C   0  0  0  0  0  0  0  0  0  0  0  0
   56.2490   21.9190   43.4770 N   0  0  0  0  0  0  0  0  0  0  0  0
   56.1810   20.8840   44.1710 O   0  0  0  0  0  0  0  0  0  0  0  0
   56.1840   21.8040   42.1080 O   0  0  0  0  0  0  0  0  0  0  0  0
   57.4300   24.0730   43.7650 C   0  0  0  0  0  0  0  0  0  0  0  0
   57.5330   25.3360   44.3560 C   0  0  0  0  0  0  0  0  0  0  0  0
   57.5860   30.0550   45.5440 C   0  0  0  0  0  0  0  0  0  0  0  0
   62.0990   31.3720   48.2810 C   0  0  0  0  0  0  0  0  0  0  0  0
   66.1140   31.0590   50.8960 C   0  0  0  0  0  0  0  0  0  0  0  0
   67.4440   31.7080   51.3320 C   0  0  0  0  0  0  0  0  0  0  0  0
   69.0415   35.7072   51.4585 H   0  0  0  0  0  0  0  0  0  0  0  0
   69.9204   35.3307   49.9378 H   0  0  0  0  0  0  0  0  0  0  0  0
   68.1268   35.4288   49.9378 H   0  0  0  0  0  0  0  0  0  0  0  0
   69.5841   33.0922   50.1465 H   0  0  0  0  0  0  0  0  0  0  0  0
   69.2356   33.5208   51.8964 H   0  0  0  0  0  0  0  0  0  0  0  0
   66.7651   34.3596   52.1943 H   0  0  0  0  0  0  0  0  0  0  0  0
   66.4212   34.7932   50.4685 H   0  0  0  0  0  0  0  0  0  0  0  0
   64.9453   32.9613   52.3198 H   0  0  0  0  0  0  0  0  0  0  0  0
   64.3487   33.9522   50.9431 H   0  0  0  0  0  0  0  0  0  0  0  0
   63.8780   30.4341   50.0413 H   0  0  0  0  0  0  0  0  0  0  0  0
   63.1624   31.8140   51.0080 H   0  0  0  0  0  0  0  0  0  0  0  0
   64.3705   33.8690   48.8452 H   0  0  0  0  0  0  0  0  0  0  0  0
   63.2025   34.8282   46.8628 H   0  0  0  0  0  0  0  0  0  0  0  0
   61.3183   33.5917   45.7957 H   0  0  0  0  0  0  0  0  0  0  0  0
   59.0330   32.8110   46.2380 H   0  0  0  0  0  0  0  0  0  0  0  0
   58.4705   32.6003   43.4342 H   0  0  0  0  0  0  0  0  0  0  0  0
   56.7721   31.4641   42.0072 H   0  0  0  0  0  0  0  0  0  0  0  0
   55.6071   29.4174   42.8278 H   0  0  0  0  0  0  0  0  0  0  0  0
   54.7657   25.2279   46.3631 H   0  0  0  0  0  0  0  0  0  0  0  0
   54.5864   22.9764   45.3176 H   0  0  0  0  0  0  0  0  0  0  0  0
   58.1863   23.7481   43.0353 H   0  0  0  0  0  0  0  0  0  0  0  0
   58.3702   25.9969   44.0871 H   0  0  0  0  0  0  0  0  0  0  0  0
   57.8122   29.6606   46.5456 H   0  0  0  0  0  0  0  0  0  0  0  0
   61.8034   30.3859   48.6687 H   0  0  0  0  0  0  0  0  0  0  0  0
   65.6783   30.5262   51.7541 H   0  0  0  0  0  0  0  0  0  0  0  0
   66.3240   30.3648   50.0689 H   0  0  0  0  0  0  0  0  0  0  0  0
   67.4673   31.7876   52.4289 H   0  0  0  0  0  0  0  0  0  0  0  0
   68.2798   31.0836   50.9834 H   0  0  0  0  0  0  0  0  0  0  0  0
  1  2  1  0
  2  3  1  0
  3  4  1  0
  4  5  1  0
  5  6  1  0
  6  7  1  0
  7  8  1  0
  8  9  2  0
  9 10  1  0
 10 11  2  0
 11 12  1  0
 12 13  1  0
 13 14  2  0
 13 15  1  0
 15 16  1  0
 16 17  2  0
 17 18  1  0
 18 19  2  0
 19 20  1  0
 20 21  1  0
 21 22  1  0
 22 23  2  0
 22 24  1  0
 24 25  2  0
 25 26  1  0
 26 27  2  0
 27 28  1  0
 28 29  2  0
 28 30  1  0
 27 31  1  0
 31 32  2  0
 20 33  2  0
 12 34  2  0
  6 35  1  0
 35 36  1  0
 36  3  1  0
 34  8  1  0
 33 16  1  0
 32 24  1  0
  1 37  1  0
  1 38  1  0
  1 39  1  0
  2 40  1  0
  2 41  1  0
  4 42  1  0
  4 43  1  0
  5 44  1  0
  5 45  1  0
  7 46  1  0
  7 47  1  0
  9 48  1  0
 10 49  1  0
 11 50  1  0
 15 51  1  0
 17 52  1  0
 18 53  1  0
 19 54  1  0
 25 55  1  0
 26 56  1  0
 31 57  1  0
 32 58  1  0
 33 59  1  0
 34 60  1  0
 35 61  1  0
 35 62  1  0
 36 63  1  0
 36 64  1  0
M  CHG  3  21  -1  28   1  30  -1
M  END
>  <UniqueID>  (77) 
75

>  <SMILES>  (77) 
CCN1CCN(Cc2cccc(C(=O)Nc3cccc([N-]C(=O)c4ccc([N+](=O)[O-])cc4)c3)c2)CC1

>  <Energy>  (77) 
92.084811976041

>  <Genealogy>  (77) 
CCN1CCN(Cc2cccc(C(=O)Nc3cccc([N-]C(=O)c4ccc([N+](=O)[O-])cc4)c3)c2)CC1 (protonated)
CCN1CCN(Cc2cccc(C(=O)Nc3cccc([N-]C(=O)c4ccc([N+](=O)[O-])cc4)c3)c2)CC1 (3D coordinates assigned)
CCN1CCN(Cc2cccc(C(=O)Nc3cccc([N-]C(=O)c4ccc([N+](=O)[O-])cc4)c3)c2)CC1 (nonaromatic ring conformer: 92.084811976041 kcal/mol)

>  <smiles>  (77) 
CCN1CCN(Cc2cccc(C(=O)Nc3cccc(NC(=O)c4ccc([N+](=O)[O-])cc4)c3)c2)CC1

>  <score_type>  (77) 
oracle

>  <origin>  (77) 
adg

>  <m_score__min__energy>  (77) 
-12.49

>  <m_primary>  (77) 
energy

$$$$
77:0
     RDKit          3D

 28 29  0  0  0  0  0  0  0  0999 V2000
   55.9272   26.9300   46.9140 H   0  0  0  0  0  0  0  0  0  0  0  0
   56.5720   26.7410   46.0430 C   0  0  0  0  0  0  0  0  0  0  0  0
   56.7000   25.5290   45.5880 N   0  0  0  0  0  0  0  0  0  0  0  0
   55.6910   24.5030   45.5830 C   0  0  0  0  0  0  0  0  0  0  0  0
   56.0040   23.1280   45.5210 C   0  0  0  0  0  0  0  0  0  0  0  0
   57.0548   22.8079   45.4637 H   0  0  0  0  0  0  0  0  0  0  0  0
   54.9850   22.1710   45.5320 C   0  0  0  0  0  0  0  0  0  0  0  0
   55.2360   21.1015   45.4752 H   0  0  0  0  0  0  0  0  0  0  0  0
   53.6480   22.5700   45.6150 C   0  0  0  0  0  0  0  0  0  0  0  0
   52.6380   21.6160   45.6250 O   0  0  0  0  0  0  0  0  0  0  0  0
   53.3290   23.9280   45.6910 C   0  0  0  0  0  0  0  0  0  0  0  0
   52.2767   24.2411   45.7597 H   0  0  0  0  0  0  0  0  0  0  0  0
   54.3440   24.8910   45.6800 C   0  0  0  0  0  0  0  0  0  0  0  0
   54.0090   26.2380   45.7600 O   0  0  0  0  0  0  0  0  0  0  0  0
   57.2850   27.8690   45.4010 C   0  0  0  0  0  0  0  0  0  0  0  0
   58.6920   27.8850   45.3260 C   0  0  0  0  0  0  0  0  0  0  0  0
   59.2694   27.0533   45.7560 H   0  0  0  0  0  0  0  0  0  0  0  0
   59.3640   28.9500   44.7090 C   0  0  0  0  0  0  0  0  0  0  0  0
   60.8630   28.9750   44.6700 C   0  0  0  0  0  0  0  0  0  0  0  0
   61.2565   28.9816   45.6972 H   0  0  0  0  0  0  0  0  0  0  0  0
   61.2310   28.0829   44.1421 H   0  0  0  0  0  0  0  0  0  0  0  0
   61.2010   29.8789   44.1421 H   0  0  0  0  0  0  0  0  0  0  0  0
   58.6270   30.0240   44.1900 C   0  0  0  0  0  0  0  0  0  0  0  0
   59.1491   30.8747   43.7278 H   0  0  0  0  0  0  0  0  0  0  0  0
   57.2330   30.0170   44.2580 C   0  0  0  0  0  0  0  0  0  0  0  0
   56.6607   30.8572   43.8380 H   0  0  0  0  0  0  0  0  0  0  0  0
   56.5600   28.9480   44.8570 C   0  0  0  0  0  0  0  0  0  0  0  0
   55.1700   28.9710   44.9090 O   0  0  0  0  0  0  0  0  0  0  0  0
  1  2  1  0
  2  3  2  0
  3  4  1  0
  4  5  2  0
  5  6  1  0
  5  7  1  0
  7  8  1  0
  7  9  2  0
  9 10  1  0
  9 11  1  0
 11 12  1  0
 11 13  2  0
 13 14  1  0
  2 15  1  0
 15 16  2  0
 16 17  1  0
 16 18  1  0
 18 19  1  0
 19 20  1  0
 19 21  1  0
 19 22  1  0
 18 23  2  0
 23 24  1  0
 23 25  1  0
 25 26  1  0
 25 27  2  0
 27 28  1  0
 13  4  1  0
 27 15  1  0
M  CHG  3  10  -1  14  -1  28  -1
M  END
>  <UniqueID>  (78) 
76

>  <SMILES>  (78) 
Cc1ccc([O-])c(/C=N/c2ccc([O-])cc2[O-])c1

>  <Energy>  (78) 
32.22584421300094

>  <Genealogy>  (78) 
Cc1ccc([O-])c(C=Nc2ccc([O-])cc2[O-])c1 (protonated)
Cc1ccc([O-])c(/C=N/c2ccc([O-])cc2[O-])c1 (cis-trans isomerization)
Cc1ccc([O-])c(/C=N/c2ccc([O-])cc2[O-])c1 (3D coordinates assigned)
Cc1ccc([O-])c(/C=N/c2ccc([O-])cc2[O-])c1 (optimized conformer: 32.22584421300094 kcal/mol)

>  <smiles>  (78) 
Cc1ccc(O)c(C=Nc2ccc(O)cc2O)c1

>  <score_type>  (78) 
oracle

>  <origin>  (78) 
adg

>  <m_score__min__energy>  (78) 
-14.92

>  <m_primary>  (78) 
energy

$$$$
78:0
     RDKit          3D

 34 36  0  0  0  0  0  0  0  0999 V2000
   56.2720   29.7090   42.2610 C   0  0  0  0  0  0  0  0  0  0  0  0
   56.7870   30.6340   43.2810 N   0  0  0  0  0  0  0  0  0  0  0  0
   56.5420   30.3920   44.6260 C   0  0  0  0  0  0  0  0  0  0  0  0
   55.8580   29.3940   44.9830 O   0  0  0  0  0  0  0  0  0  0  0  0
   57.0410   31.2240   45.5910 N   0  0  0  0  0  0  0  0  0  0  0  0
   57.7810   32.2820   45.1950 C   0  0  0  0  0  0  0  0  0  0  0  0
   58.0620   32.5320   43.9040 C   0  0  0  0  0  0  0  0  0  0  0  0
   58.8620   33.6110   43.8530 N   0  0  0  0  0  0  0  0  0  0  0  0
   59.0610   34.0000   45.1110 N   0  0  0  0  0  0  0  0  0  0  0  0
   58.3980   33.2050   45.9480 N   0  0  0  0  0  0  0  0  0  0  0  0
   58.4570   33.2840   47.4030 C   0  0  0  0  0  0  0  0  0  0  0  0
   59.0020   31.9960   47.9600 C   0  0  0  0  0  0  0  0  0  0  0  0
   59.8930   31.2090   47.3410 C   0  0  0  0  0  0  0  0  0  0  0  0
   59.5730   29.9250   46.6910 C   0  0  0  0  0  0  0  0  0  0  0  0
   60.0120   29.6870   45.3800 C   0  0  0  0  0  0  0  0  0  0  0  0
   59.6800   28.4920   44.7320 C   0  0  0  0  0  0  0  0  0  0  0  0
   58.8910   27.5390   45.3830 C   0  0  0  0  0  0  0  0  0  0  0  0
   58.4240   27.7840   46.6770 C   0  0  0  0  0  0  0  0  0  0  0  0
   58.7540   28.9770   47.3260 C   0  0  0  0  0  0  0  0  0  0  0  0
   57.5780   31.7020   42.9070 C   0  0  0  0  0  0  0  0  0  0  0  0
   57.8650   31.9230   41.6980 O   0  0  0  0  0  0  0  0  0  0  0  0
   55.7935   28.8496   42.7535 H   0  0  0  0  0  0  0  0  0  0  0  0
   55.5338   30.2295   41.6332 H   0  0  0  0  0  0  0  0  0  0  0  0
   57.1033   29.3557   41.6332 H   0  0  0  0  0  0  0  0  0  0  0  0
   59.2780   34.0610   43.0080 H   0  0  0  0  0  0  0  0  0  0  0  0
   59.1132   34.1163   47.6976 H   0  0  0  0  0  0  0  0  0  0  0  0
   57.4450   33.4528   47.7997 H   0  0  0  0  0  0  0  0  0  0  0  0
   58.6420   31.6768   48.9492 H   0  0  0  0  0  0  0  0  0  0  0  0
   60.9399   31.5458   47.3161 H   0  0  0  0  0  0  0  0  0  0  0  0
   60.6193   30.4423   44.8597 H   0  0  0  0  0  0  0  0  0  0  0  0
   60.0400   28.3024   43.7100 H   0  0  0  0  0  0  0  0  0  0  0  0
   58.6378   26.5960   44.8764 H   0  0  0  0  0  0  0  0  0  0  0  0
   57.7962   27.0373   47.1852 H   0  0  0  0  0  0  0  0  0  0  0  0
   58.3708   29.1743   48.3381 H   0  0  0  0  0  0  0  0  0  0  0  0
  1  2  1  0
  2  3  1  0
  3  4  2  0
  3  5  1  0
  5  6  1  0
  6  7  2  0
  7  8  1  0
  8  9  2  0
  9 10  1  0
 10 11  1  0
 11 12  1  0
 12 13  2  3
 13 14  1  0
 14 15  2  0
 15 16  1  0
 16 17  2  0
 17 18  1  0
 18 19  2  0
  7 20  1  0
 20 21  2  0
 20  2  1  0
 10  6  1  0
 19 14  1  0
  1 22  1  0
  1 23  1  0
  1 24  1  0
  8 25  1  0
 11 26  1  0
 11 27  1  0
 12 28  1  0
 13 29  1  0
 15 30  1  0
 16 31  1  0
 17 32  1  0
 18 33  1  0
 19 34  1  0
M  CHG  2   5  -1   8   1
M  END
>  <UniqueID>  (79) 
77

>  <SMILES>  (79) 
Cn1c(=O)[n-]c2c([nH+]nn2CC=Cc2ccccc2)c1=O

>  <Energy>  (79) 
94.57232971201512

>  <Genealogy>  (79) 
Cn1c(=O)[n-]c2c([nH+]nn2CC=Cc2ccccc2)c1=O (protonated)
Cn1c(=O)[n-]c2c([nH+]nn2CC=Cc2ccccc2)c1=O (3D coordinates assigned)
Cn1c(=O)[n-]c2c([nH+]nn2CC=Cc2ccccc2)c1=O (optimized conformer: 94.57232971201512 kcal/mol)

>  <smiles>  (79) 
Cn1c(=O)[nH]c2c(nnn2CC=Cc2ccccc2)c1=O

>  <score_type>  (79) 
oracle

>  <origin>  (79) 
adg

>  <m_score__min__energy>  (79) 
-7.4299999999999997

>  <m_primary>  (79) 
energy

$$$$
79:0
     RDKit          3D

 49 51  0  0  0  0  0  0  0  0999 V2000
   58.2090   32.3710   41.1800 C   0  0  0  0  0  0  0  0  0  0  0  0
   56.9760   31.9140   41.7220 O   0  0  0  0  0  0  0  0  0  0  0  0
   56.8960   30.8520   42.6290 C   0  0  0  0  0  0  0  0  0  0  0  0
   56.3050   29.7850   42.3020 O   0  0  0  0  0  0  0  0  0  0  0  0
   57.5020   30.9830   43.9730 C   0  0  0  0  0  0  0  0  0  0  0  0
   57.9200   29.8420   44.6750 C   0  0  0  0  0  0  0  0  0  0  0  0
   58.4830   29.9600   45.9480 C   0  0  0  0  0  0  0  0  0  0  0  0
   58.6430   31.2190   46.5400 C   0  0  0  0  0  0  0  0  0  0  0  0
   59.2350   31.3300   47.8420 N   0  0  0  0  0  0  0  0  0  0  0  0
   58.5180   32.0510   48.8990 C   0  0  0  0  0  0  0  0  0  0  0  0
   59.2100   31.8620   50.2500 C   0  0  0  0  0  0  0  0  0  0  0  0
   59.6660   30.4660   50.3570 N   0  0  0  0  0  0  0  0  0  0  0  0
   60.0610   30.1570   51.7400 C   0  0  0  0  0  0  0  0  0  0  0  0
   60.7870   30.1950   49.4270 C   0  0  0  0  0  0  0  0  0  0  0  0
   60.6170   30.8850   48.0540 C   0  0  0  0  0  0  0  0  0  0  0  0
   58.2530   32.3740   45.8380 C   0  0  0  0  0  0  0  0  0  0  0  0
   58.4520   33.6630   46.4360 N   0  0  0  0  0  0  0  0  0  0  0  0
   59.6460   34.4530   46.3420 C   0  0  0  0  0  0  0  0  0  0  0  0
   59.6230   35.5040   45.6490 O   0  0  0  0  0  0  0  0  0  0  0  0
   60.8810   34.0910   47.0760 C   0  0  0  0  0  0  0  0  0  0  0  0
   60.9520   34.2280   48.4740 C   0  0  0  0  0  0  0  0  0  0  0  0
   62.1200   33.8800   49.1600 C   0  0  0  0  0  0  0  0  0  0  0  0
   63.2310   33.4030   48.4570 C   0  0  0  0  0  0  0  0  0  0  0  0
   64.4330   33.0460   49.1650 C   0  0  0  0  0  0  0  0  0  0  0  0
   65.3990   32.7590   49.7330 N   0  0  0  0  0  0  0  0  0  0  0  0
   63.1760   33.2810   47.0640 C   0  0  0  0  0  0  0  0  0  0  0  0
   62.0080   33.6290   46.3750 C   0  0  0  0  0  0  0  0  0  0  0  0
   57.6660   32.2470   44.5660 C   0  0  0  0  0  0  0  0  0  0  0  0
   58.8974   32.6262   41.9991 H   0  0  0  0  0  0  0  0  0  0  0  0
   58.6537   31.5780   40.5609 H   0  0  0  0  0  0  0  0  0  0  0  0
   58.0294   33.2623   40.5609 H   0  0  0  0  0  0  0  0  0  0  0  0
   57.8035   28.8475   44.2195 H   0  0  0  0  0  0  0  0  0  0  0  0
   58.8030   29.0575   46.4893 H   0  0  0  0  0  0  0  0  0  0  0  0
   58.4944   33.1228   48.6525 H   0  0  0  0  0  0  0  0  0  0  0  0
   57.4953   31.6516   48.9674 H   0  0  0  0  0  0  0  0  0  0  0  0
   60.0735   32.5397   50.3214 H   0  0  0  0  0  0  0  0  0  0  0  0
   58.5077   32.0899   51.0654 H   0  0  0  0  0  0  0  0  0  0  0  0
   59.3915   30.6807   52.4382 H   0  0  0  0  0  0  0  0  0  0  0  0
   59.9900   29.0722   51.9079 H   0  0  0  0  0  0  0  0  0  0  0  0
   61.0968   30.4870   51.9079 H   0  0  0  0  0  0  0  0  0  0  0  0
   61.7186   30.5561   49.8872 H   0  0  0  0  0  0  0  0  0  0  0  0
   60.8093   29.1099   49.2480 H   0  0  0  0  0  0  0  0  0  0  0  0
   61.2845   31.7581   48.0079 H   0  0  0  0  0  0  0  0  0  0  0  0
   60.8689   30.1569   47.2689 H   0  0  0  0  0  0  0  0  0  0  0  0
   60.0841   34.6110   49.0309 H   0  0  0  0  0  0  0  0  0  0  0  0
   62.1649   33.9816   50.2544 H   0  0  0  0  0  0  0  0  0  0  0  0
   64.0513   32.9113   46.5098 H   0  0  0  0  0  0  0  0  0  0  0  0
   61.9722   33.5403   45.2792 H   0  0  0  0  0  0  0  0  0  0  0  0
   57.3315   33.1470   44.0292 H   0  0  0  0  0  0  0  0  0  0  0  0
  1  2  1  0
  2  3  1  0
  3  4  2  0
  3  5  1  0
  5  6  2  0
  6  7  1  0
  7  8  2  0
  8  9  1  0
  9 10  1  0
 10 11  1  0
 11 12  1  0
 12 13  1  0
 12 14  1  0
 14 15  1  0
  8 16  1  0
 16 17  1  0
 17 18  1  0
 18 19  2  0
 18 20  1  0
 20 21  2  0
 21 22  1  0
 22 23  2  0
 23 24  1  0
 24 25  3  0
 23 26  1  0
 26 27  2  0
 16 28  2  0
 28  5  1  0
 15  9  1  0
 27 20  1  0
  1 29  1  0
  1 30  1  0
  1 31  1  0
  6 32  1  0
  7 33  1  0
 10 34  1  0
 10 35  1  0
 11 36  1  0
 11 37  1  0
 13 38  1  0
 13 39  1  0
 13 40  1  0
 14 41  1  0
 14 42  1  0
 15 43  1  0
 15 44  1  0
 21 45  1  0
 22 46  1  0
 26 47  1  0
 27 48  1  0
 28 49  1  0
M  CHG  1  17  -1
M  END
>  <UniqueID>  (80) 
78

>  <SMILES>  (80) 
COC(=O)c1ccc(N2CCN(C)CC2)c([N-]C(=O)c2ccc(C#N)cc2)c1

>  <Energy>  (80) 
63.81796103246868

>  <Genealogy>  (80) 
COC(=O)c1ccc(N2CCN(C)CC2)c([N-]C(=O)c2ccc(C#N)cc2)c1 (protonated)
COC(=O)c1ccc(N2CCN(C)CC2)c([N-]C(=O)c2ccc(C#N)cc2)c1 (3D coordinates assigned)
COC(=O)c1ccc(N2CCN(C)CC2)c([N-]C(=O)c2ccc(C#N)cc2)c1 (nonaromatic ring conformer: 63.81796103246868 kcal/mol)

>  <smiles>  (80) 
COC(=O)c1ccc(N2CCN(C)CC2)c(NC(=O)c2ccc(C#N)cc2)c1

>  <score_type>  (80) 
oracle

>  <origin>  (80) 
adg

>  <m_score__min__energy>  (80) 
-8.5500000000000007

>  <m_primary>  (80) 
energy

$$$$
80:0
     RDKit          3D

 61 65  0  0  0  0  0  0  0  0999 V2000
   52.0690   24.0470   44.4740 C   0  0  0  0  0  0  0  0  0  0  0  0
   53.0760   23.1290   44.8880 O   0  0  0  0  0  0  0  0  0  0  0  0
   54.4380   23.2540   44.5750 C   0  0  0  0  0  0  0  0  0  0  0  0
   54.9030   23.3440   43.2480 C   0  0  0  0  0  0  0  0  0  0  0  0
   56.2700   23.4710   42.9900 C   0  0  0  0  0  0  0  0  0  0  0  0
   57.1840   23.5110   44.0450 C   0  0  0  0  0  0  0  0  0  0  0  0
   56.7360   23.4220   45.3720 C   0  0  0  0  0  0  0  0  0  0  0  0
   57.7230   23.4970   46.5060 C   0  0  0  0  0  0  0  0  0  0  0  0
   58.8530   24.3480   46.1410 N   0  0  0  0  0  0  0  0  0  0  0  0
   59.1060   25.6090   46.7740 C   0  0  0  0  0  0  0  0  0  0  0  0
   58.3500   26.0180   47.6960 O   0  0  0  0  0  0  0  0  0  0  0  0
   60.2470   26.4630   46.2970 C   0  0  0  0  0  0  0  0  0  0  0  0
   59.7950   27.8200   45.9700 N   0  0  0  0  0  0  0  0  0  0  0  0
   59.1790   28.0150   44.7910 N   0  0  0  0  0  0  0  0  0  0  0  0
   58.6900   29.2280   44.4150 C   0  0  0  0  0  0  0  0  0  0  0  0
   58.8520   30.2860   45.2930 C   0  0  0  0  0  0  0  0  0  0  0  0
   58.4380   31.5920   45.2320 C   0  0  0  0  0  0  0  0  0  0  0  0
   57.7240   32.2840   44.2550 C   0  0  0  0  0  0  0  0  0  0  0  0
   57.4190   33.6330   44.5000 C   0  0  0  0  0  0  0  0  0  0  0  0
   57.8200   34.2490   45.7030 C   0  0  0  0  0  0  0  0  0  0  0  0
   58.5350   33.5260   46.6750 C   0  0  0  0  0  0  0  0  0  0  0  0
   58.8430   32.1830   46.4120 C   0  0  0  0  0  0  0  0  0  0  0  0
   59.5210   31.2970   47.1960 N   0  0  0  0  0  0  0  0  0  0  0  0
   60.1160   31.5510   48.5200 C   0  0  0  0  0  0  0  0  0  0  0  0
   61.4600   32.2560   48.4280 C   0  0  0  0  0  0  0  0  0  0  0  0
   62.3790   31.8160   47.4550 C   0  0  0  0  0  0  0  0  0  0  0  0
   63.6260   32.4280   47.3160 C   0  0  0  0  0  0  0  0  0  0  0  0
   63.9850   33.4760   48.1600 C   0  0  0  0  0  0  0  0  0  0  0  0
   63.1100   33.9020   49.1590 C   0  0  0  0  0  0  0  0  0  0  0  0
   61.8560   33.2870   49.3240 C   0  0  0  0  0  0  0  0  0  0  0  0
   60.9710   33.7610   50.4450 C   0  0  0  0  0  0  0  0  0  0  0  0
   59.4890   30.1250   46.4990 C   0  0  0  0  0  0  0  0  0  0  0  0
   59.9490   28.8540   46.8670 C   0  0  0  0  0  0  0  0  0  0  0  0
   60.4630   28.6500   47.9970 O   0  0  0  0  0  0  0  0  0  0  0  0
   55.3610   23.2910   45.6270 C   0  0  0  0  0  0  0  0  0  0  0  0
   51.5869   24.4865   45.3597 H   0  0  0  0  0  0  0  0  0  0  0  0
   52.5262   24.8455   43.8713 H   0  0  0  0  0  0  0  0  0  0  0  0
   51.3161   23.5181   43.8713 H   0  0  0  0  0  0  0  0  0  0  0  0
   54.1876   23.3142   42.4129 H   0  0  0  0  0  0  0  0  0  0  0  0
   56.6277   23.5397   41.9521 H   0  0  0  0  0  0  0  0  0  0  0  0
   58.2590   23.6126   43.8352 H   0  0  0  0  0  0  0  0  0  0  0  0
   57.2252   23.9159   47.3929 H   0  0  0  0  0  0  0  0  0  0  0  0
   58.0940   22.4847   46.7242 H   0  0  0  0  0  0  0  0  0  0  0  0
   59.5030   24.0190   45.3920 H   0  0  0  0  0  0  0  0  0  0  0  0
   61.0081   26.5197   47.0892 H   0  0  0  0  0  0  0  0  0  0  0  0
   60.6660   26.0074   45.3877 H   0  0  0  0  0  0  0  0  0  0  0  0
   58.1839   29.3630   43.4477 H   0  0  0  0  0  0  0  0  0  0  0  0
   57.4100   31.7902   43.3236 H   0  0  0  0  0  0  0  0  0  0  0  0
   56.8635   34.2127   43.7481 H   0  0  0  0  0  0  0  0  0  0  0  0
   57.5714   35.3053   45.8833 H   0  0  0  0  0  0  0  0  0  0  0  0
   58.8447   34.0016   47.6173 H   0  0  0  0  0  0  0  0  0  0  0  0
   59.4265   32.1803   49.1019 H   0  0  0  0  0  0  0  0  0  0  0  0
   60.2813   30.5775   49.0048 H   0  0  0  0  0  0  0  0  0  0  0  0
   62.1100   30.9780   46.7952 H   0  0  0  0  0  0  0  0  0  0  0  0
   64.3249   32.0825   46.5400 H   0  0  0  0  0  0  0  0  0  0  0  0
   64.9609   33.9689   48.0384 H   0  0  0  0  0  0  0  0  0  0  0  0
   63.4036   34.7272   49.8245 H   0  0  0  0  0  0  0  0  0  0  0  0
   61.4364   33.5117   51.4100 H   0  0  0  0  0  0  0  0  0  0  0  0
   60.8389   34.8506   50.3722 H   0  0  0  0  0  0  0  0  0  0  0  0
   59.9908   33.2671   50.3722 H   0  0  0  0  0  0  0  0  0  0  0  0
   55.0053   23.2166   46.6652 H   0  0  0  0  0  0  0  0  0  0  0  0
  1  2  1  0
  2  3  1  0
  3  4  2  0
  4  5  1  0
  5  6  2  0
  6  7  1  0
  7  8  1  0
  8  9  1  0
  9 10  1  0
 10 11  2  0
 10 12  1  0
 12 13  1  0
 13 14  1  0
 14 15  2  0
 15 16  1  0
 16 17  1  0
 17 18  2  0
 18 19  1  0
 19 20  2  0
 20 21  1  0
 21 22  2  0
 22 23  1  0
 23 24  1  0
 24 25  1  0
 25 26  2  0
 26 27  1  0
 27 28  2  0
 28 29  1  0
 29 30  2  0
 30 31  1  0
 23 32  1  0
 32 33  1  0
 33 34  2  0
  7 35  2  0
 35  3  1  0
 33 13  1  0
 32 16  2  0
 22 17  1  0
 30 25  1  0
  1 36  1  0
  1 37  1  0
  1 38  1  0
  4 39  1  0
  5 40  1  0
  6 41  1  0
  8 42  1  0
  8 43  1  0
  9 44  1  0
 12 45  1  0
 12 46  1  0
 15 47  1  0
 18 48  1  0
 19 49  1  0
 20 50  1  0
 21 51  1  0
 24 52  1  0
 24 53  1  0
 26 54  1  0
 27 55  1  0
 28 56  1  0
 29 57  1  0
 31 58  1  0
 31 59  1  0
 31 60  1  0
 35 61  1  0
M  END
>  <UniqueID>  (81) 
79

>  <SMILES>  (81) 
COc1cccc(CNC(=O)Cn2ncc3c4ccccc4n(Cc4ccccc4C)c3c2=O)c1

>  <Energy>  (81) 
111.62492262854238

>  <Genealogy>  (81) 
COc1cccc(CNC(=O)Cn2ncc3c4ccccc4n(Cc4ccccc4C)c3c2=O)c1 (3D coordinates assigned)
COc1cccc(CNC(=O)Cn2ncc3c4ccccc4n(Cc4ccccc4C)c3c2=O)c1 (optimized conformer: 111.62492262854238 kcal/mol)

>  <smiles>  (81) 
COc1cccc(CNC(=O)Cn2ncc3c4ccccc4n(Cc4ccccc4C)c3c2=O)c1

>  <score_type>  (81) 
oracle

>  <origin>  (81) 
adg

>  <m_score__min__energy>  (81) 
-10.18

>  <m_primary>  (81) 
energy

$$$$
81:0
     RDKit          3D

 49 52  0  0  0  0  0  0  0  0999 V2000
   55.1540   28.9640   44.8940 O   0  0  0  0  0  0  0  0  0  0  0  0
   56.5330   28.7750   44.9740 C   0  0  0  0  0  0  0  0  0  0  0  0
   57.4030   29.7780   44.5080 C   0  0  0  0  0  0  0  0  0  0  0  0
   56.8550   31.0460   43.8980 C   0  0  0  0  0  0  0  0  0  0  0  0
   56.9190   32.1680   44.8600 N   0  0  0  0  0  0  0  0  0  0  0  0
   57.6880   31.7970   46.0790 C   0  0  0  0  0  0  0  0  0  0  0  0
   59.1390   32.2980   46.0360 C   0  0  0  0  0  0  0  0  0  0  0  0
   59.2070   33.8530   45.9500 C   0  0  0  0  0  0  0  0  0  0  0  0
   60.3770   34.2190   45.2520 O   0  0  0  0  0  0  0  0  0  0  0  0
   59.3040   34.4440   47.3840 C   0  0  0  0  0  0  0  0  0  0  0  0
   60.4030   33.8120   48.2100 C   0  0  0  0  0  0  0  0  0  0  0  0
   61.7340   33.8400   47.7600 C   0  0  0  0  0  0  0  0  0  0  0  0
   62.7520   33.2710   48.5320 C   0  0  0  0  0  0  0  0  0  0  0  0
   62.4500   32.6700   49.7560 C   0  0  0  0  0  0  0  0  0  0  0  0
   61.1290   32.6360   50.2110 C   0  0  0  0  0  0  0  0  0  0  0  0
   60.1080   33.2020   49.4420 C   0  0  0  0  0  0  0  0  0  0  0  0
   57.9510   34.4200   45.2210 C   0  0  0  0  0  0  0  0  0  0  0  0
   57.3910   33.4160   44.2050 C   0  0  0  0  0  0  0  0  0  0  0  0
   58.7910   29.5790   44.5780 C   0  0  0  0  0  0  0  0  0  0  0  0
   59.3170   28.4000   45.1140 C   0  0  0  0  0  0  0  0  0  0  0  0
   61.0630   28.1940   45.1800 Cl  0  0  0  0  0  0  0  0  0  0  0  0
   58.4550   27.4000   45.5870 C   0  0  0  0  0  0  0  0  0  0  0  0
   58.9610   26.2490   46.1090 N   0  0  0  0  0  0  0  0  0  0  0  0
   58.1570   25.2570   46.5740 C   0  0  0  0  0  0  0  0  0  0  0  0
   56.7700   25.3980   46.5240 C   0  0  0  0  0  0  0  0  0  0  0  0
   56.2160   26.5650   45.9940 C   0  0  0  0  0  0  0  0  0  0  0  0
   57.0540   27.5850   45.5170 C   0  0  0  0  0  0  0  0  0  0  0  0
   57.4474   31.3018   43.0071 H   0  0  0  0  0  0  0  0  0  0  0  0
   55.8026   30.8775   43.6258 H   0  0  0  0  0  0  0  0  0  0  0  0
   57.1899   32.2346   46.9567 H   0  0  0  0  0  0  0  0  0  0  0  0
   57.7158   30.6988   46.1344 H   0  0  0  0  0  0  0  0  0  0  0  0
   59.6578   31.9679   46.9481 H   0  0  0  0  0  0  0  0  0  0  0  0
   59.6199   31.8825   45.1382 H   0  0  0  0  0  0  0  0  0  0  0  0
   60.9950   33.4420   45.2490 H   0  0  0  0  0  0  0  0  0  0  0  0
   59.5007   35.5234   47.3058 H   0  0  0  0  0  0  0  0  0  0  0  0
   58.3501   34.2365   47.8910 H   0  0  0  0  0  0  0  0  0  0  0  0
   61.9763   34.3116   46.7962 H   0  0  0  0  0  0  0  0  0  0  0  0
   63.7920   33.2969   48.1746 H   0  0  0  0  0  0  0  0  0  0  0  0
   63.2520   32.2233   50.3620 H   0  0  0  0  0  0  0  0  0  0  0  0
   60.8924   32.1632   51.1756 H   0  0  0  0  0  0  0  0  0  0  0  0
   59.0692   33.1700   49.8023 H   0  0  0  0  0  0  0  0  0  0  0  0
   57.1748   34.6439   45.9676 H   0  0  0  0  0  0  0  0  0  0  0  0
   58.2472   35.3306   44.6797 H   0  0  0  0  0  0  0  0  0  0  0  0
   56.5465   33.8804   43.6748 H   0  0  0  0  0  0  0  0  0  0  0  0
   58.1994   33.1500   43.5081 H   0  0  0  0  0  0  0  0  0  0  0  0
   59.4719   30.3592   44.2071 H   0  0  0  0  0  0  0  0  0  0  0  0
   58.6008   24.3408   46.9907 H   0  0  0  0  0  0  0  0  0  0  0  0
   56.1176   24.5958   46.8993 H   0  0  0  0  0  0  0  0  0  0  0  0
   55.1234   26.6849   45.9503 H   0  0  0  0  0  0  0  0  0  0  0  0
  1  2  1  0
  2  3  2  0
  3  4  1  0
  4  5  1  0
  5  6  1  0
  6  7  1  0
  7  8  1  0
  8  9  1  0
  8 10  1  0
 10 11  1  0
 11 12  2  0
 12 13  1  0
 13 14  2  0
 14 15  1  0
 15 16  2  0
  8 17  1  0
 17 18  1  0
  3 19  1  0
 19 20  2  0
 20 21  1  0
 20 22  1  0
 22 23  2  0
 23 24  1  0
 24 25  2  0
 25 26  1  0
 26 27  2  0
 27  2  1  0
 18  5  1  0
 27 22  1  0
 16 11  1  0
  4 28  1  0
  4 29  1  0
  6 30  1  0
  6 31  1  0
  7 32  1  0
  7 33  1  0
  9 34  1  0
 10 35  1  0
 10 36  1  0
 12 37  1  0
 13 38  1  0
 14 39  1  0
 15 40  1  0
 16 41  1  0
 17 42  1  0
 17 43  1  0
 18 44  1  0
 18 45  1  0
 19 46  1  0
 24 47  1  0
 25 48  1  0
 26 49  1  0
M  CHG  1   1  -1
M  END
>  <UniqueID>  (82) 
80

>  <SMILES>  (82) 
[O-]c1c(CN2CCC(O)(Cc3ccccc3)CC2)cc(Cl)c2ncccc12

>  <Energy>  (82) 
67.62629254419953

>  <Genealogy>  (82) 
[O-]c1c(CN2CCC(O)(Cc3ccccc3)CC2)cc(Cl)c2ncccc12 (protonated)
[O-]c1c(CN2CCC(O)(Cc3ccccc3)CC2)cc(Cl)c2ncccc12 (3D coordinates assigned)
[O-]c1c(CN2CCC(O)(Cc3ccccc3)CC2)cc(Cl)c2ncccc12 (nonaromatic ring conformer: 67.62629254419953 kcal/mol)

>  <smiles>  (82) 
Oc1c(CN2CCC(O)(Cc3ccccc3)CC2)cc(Cl)c2ncccc12

>  <score_type>  (82) 
oracle

>  <origin>  (82) 
adg

>  <m_score__min__energy>  (82) 
-12.779999999999999

>  <m_primary>  (82) 
energy

$$$$
82:0
     RDKit          3D

 29 31  0  0  0  0  0  0  0  0999 V2000
   59.2710   35.5680   44.7720 O   0  0  0  0  0  0  0  0  0  0  0  0
   59.2610   34.9650   45.8770 C   0  0  0  0  0  0  0  0  0  0  0  0
   59.6940   35.5380   47.0490 O   0  0  0  0  0  0  0  0  0  0  0  0
   59.6330   34.5830   48.1000 C   0  0  0  0  0  0  0  0  0  0  0  0
   59.1460   33.2710   47.4410 C   0  0  0  0  0  0  0  0  0  0  0  0
   58.8780   33.6120   46.0480 N   0  0  0  0  0  0  0  0  0  0  0  0
   58.4350   32.6750   45.0510 C   0  0  0  0  0  0  0  0  0  0  0  0
   58.1300   33.0790   43.7430 C   0  0  0  0  0  0  0  0  0  0  0  0
   57.6910   32.1190   42.8340 C   0  0  0  0  0  0  0  0  0  0  0  0
   57.5570   30.8250   43.2220 N   0  0  0  0  0  0  0  0  0  0  0  0
   57.8410   30.4390   44.4950 C   0  0  0  0  0  0  0  0  0  0  0  0
   57.6800   29.0210   44.9040 C   0  0  0  0  0  0  0  0  0  0  0  0
   58.7910   28.1560   44.9440 C   0  0  0  0  0  0  0  0  0  0  0  0
   58.6350   26.8210   45.3300 C   0  0  0  0  0  0  0  0  0  0  0  0
   57.3750   26.3340   45.6800 C   0  0  0  0  0  0  0  0  0  0  0  0
   56.2640   27.1810   45.6450 C   0  0  0  0  0  0  0  0  0  0  0  0
   55.0100   26.6940   45.9930 O   0  0  0  0  0  0  0  0  0  0  0  0
   56.4130   28.5170   45.2600 C   0  0  0  0  0  0  0  0  0  0  0  0
   58.2700   31.3680   45.3930 N   0  0  0  0  0  0  0  0  0  0  0  0
   60.6273   34.4415   48.5486 H   0  0  0  0  0  0  0  0  0  0  0  0
   58.9598   34.9078   48.9070 H   0  0  0  0  0  0  0  0  0  0  0  0
   59.9246   32.4966   47.5045 H   0  0  0  0  0  0  0  0  0  0  0  0
   58.2532   32.8689   47.9423 H   0  0  0  0  0  0  0  0  0  0  0  0
   58.2352   34.1316   43.4413 H   0  0  0  0  0  0  0  0  0  0  0  0
   57.4526   32.4099   41.8003 H   0  0  0  0  0  0  0  0  0  0  0  0
   59.7874   28.5329   44.6699 H   0  0  0  0  0  0  0  0  0  0  0  0
   59.5083   26.1527   45.3578 H   0  0  0  0  0  0  0  0  0  0  0  0
   57.2563   25.2834   45.9835 H   0  0  0  0  0  0  0  0  0  0  0  0
   55.5351   29.1793   45.2348 H   0  0  0  0  0  0  0  0  0  0  0  0
  1  2  2  0
  2  3  1  0
  3  4  1  0
  4  5  1  0
  5  6  1  0
  6  7  1  0
  7  8  2  0
  8  9  1  0
  9 10  2  0
 10 11  1  0
 11 12  1  0
 12 13  2  0
 13 14  1  0
 14 15  2  0
 15 16  1  0
 16 17  1  0
 16 18  2  0
 11 19  2  0
  6  2  1  0
 19  7  1  0
 18 12  1  0
  4 20  1  0
  4 21  1  0
  5 22  1  0
  5 23  1  0
  8 24  1  0
  9 25  1  0
 13 26  1  0
 14 27  1  0
 15 28  1  0
 18 29  1  0
M  CHG  1  17  -1
M  END
>  <UniqueID>  (83) 
81

>  <SMILES>  (83) 
O=C1OCCN1c1ccnc(-c2cccc([O-])c2)n1

>  <Energy>  (83) 
50.709876136377815

>  <Genealogy>  (83) 
O=C1OCCN1c1ccnc(-c2cccc([O-])c2)n1 (protonated)
O=C1OCCN1c1ccnc(-c2cccc([O-])c2)n1 (3D coordinates assigned)
O=C1OCCN1c1ccnc(-c2cccc([O-])c2)n1 (nonaromatic ring conformer: 50.709876136377815 kcal/mol)

>  <smiles>  (83) 
O=C1OCCN1c1ccnc(-c2cccc(O)c2)n1

>  <score_type>  (83) 
oracle

>  <origin>  (83) 
adg

>  <m_score__min__energy>  (83) 
-10.4

>  <m_primary>  (83) 
energy

$$$$
83:0
     RDKit          3D

 30 32  0  0  0  0  0  0  0  0999 V2000
   61.3720   33.5260   52.6540 N   0  0  0  0  0  0  0  0  0  0  0  0
   60.0980   32.8770   52.6130 C   0  0  0  0  0  0  0  0  0  0  0  0
   59.4910   32.4400   53.7970 C   0  0  0  0  0  0  0  0  0  0  0  0
   58.2450   31.8050   53.7590 C   0  0  0  0  0  0  0  0  0  0  0  0
   57.5890   31.5920   52.5300 C   0  0  0  0  0  0  0  0  0  0  0  0
   56.2610   30.9310   52.4580 C   0  0  0  0  0  0  0  0  0  0  0  0
   56.0920   29.5740   52.7660 C   0  0  0  0  0  0  0  0  0  0  0  0
   54.8220   29.0010   52.6840 C   0  0  0  0  0  0  0  0  0  0  0  0
   54.7120   27.7670   52.9060 O   0  0  0  0  0  0  0  0  0  0  0  0
   53.7120   29.8000   52.3220 C   0  0  0  0  0  0  0  0  0  0  0  0
   52.3650   29.3330   52.2450 C   0  0  0  0  0  0  0  0  0  0  0  0
   51.9560   28.0580   52.6500 O   0  0  0  0  0  0  0  0  0  0  0  0
   51.3660   30.1870   51.7640 C   0  0  0  0  0  0  0  0  0  0  0  0
   51.6540   31.5060   51.4150 C   0  0  0  0  0  0  0  0  0  0  0  0
   50.6430   32.3390   50.9540 O   0  0  0  0  0  0  0  0  0  0  0  0
   52.9550   31.9890   51.5350 C   0  0  0  0  0  0  0  0  0  0  0  0
   53.9810   31.1530   51.9810 C   0  0  0  0  0  0  0  0  0  0  0  0
   55.2110   31.6460   52.0690 O   0  0  0  0  0  0  0  0  0  0  0  0
   58.2000   32.0470   51.3480 C   0  0  0  0  0  0  0  0  0  0  0  0
   59.4460   32.6800   51.3890 C   0  0  0  0  0  0  0  0  0  0  0  0
   61.7740   33.8580   53.5600 H   0  0  0  0  0  0  0  0  0  0  0  0
   61.9230   33.6790   51.7800 H   0  0  0  0  0  0  0  0  0  0  0  0
   59.9963   32.5968   54.7614 H   0  0  0  0  0  0  0  0  0  0  0  0
   57.7741   31.4697   54.6948 H   0  0  0  0  0  0  0  0  0  0  0  0
   56.9554   28.9642   53.0706 H   0  0  0  0  0  0  0  0  0  0  0  0
   52.5240   27.2270   52.6010 H   0  0  0  0  0  0  0  0  0  0  0  0
   50.3373   29.8118   51.6596 H   0  0  0  0  0  0  0  0  0  0  0  0
   53.1756   33.0353   51.2769 H   0  0  0  0  0  0  0  0  0  0  0  0
   57.6931   31.9036   50.3824 H   0  0  0  0  0  0  0  0  0  0  0  0
   59.9162   33.0247   50.4562 H   0  0  0  0  0  0  0  0  0  0  0  0
  1  2  1  0
  2  3  2  0
  3  4  1  0
  4  5  2  0
  5  6  1  0
  6  7  2  0
  7  8  1  0
  8  9  2  0
  8 10  1  0
 10 11  2  0
 11 12  1  0
 11 13  1  0
 13 14  2  0
 14 15  1  0
 14 16  1  0
 16 17  2  0
 17 18  1  0
  5 19  1  0
 19 20  2  0
 20  2  1  0
 18  6  1  0
 17 10  1  0
  1 21  1  0
  1 22  1  0
  3 23  1  0
  4 24  1  0
  7 25  1  0
 12 26  1  0
 13 27  1  0
 16 28  1  0
 19 29  1  0
 20 30  1  0
M  CHG  1  15  -1
M  END
>  <UniqueID>  (84) 
82

>  <SMILES>  (84) 
Nc1ccc(-c2cc(=O)c3c(O)cc([O-])cc3o2)cc1

>  <Energy>  (84) 
46.97729342965738

>  <Genealogy>  (84) 
Nc1ccc(-c2cc(=O)c3c(O)cc([O-])cc3o2)cc1 (protonated)
Nc1ccc(-c2cc(=O)c3c(O)cc([O-])cc3o2)cc1 (3D coordinates assigned)
Nc1ccc(-c2cc(=O)c3c(O)cc([O-])cc3o2)cc1 (optimized conformer: 46.97729342965738 kcal/mol)

>  <smiles>  (84) 
Nc1ccc(-c2cc(=O)c3c(O)cc(O)cc3o2)cc1

>  <score_type>  (84) 
oracle

>  <origin>  (84) 
adg

>  <m_score__min__energy>  (84) 
-8.9299999999999997

>  <m_primary>  (84) 
energy

$$$$
84:0
     RDKit          3D

 67 70  0  0  0  0  0  0  0  0999 V2000
   58.2320   27.4060   48.1610 O   0  0  0  0  0  0  0  0  0  0  0  0
   59.1320   27.6950   47.3280 C   0  0  0  0  0  0  0  0  0  0  0  0
   60.2450   28.4980   47.7430 N   0  0  0  0  0  0  0  0  0  0  0  0
   60.2380   29.8910   48.2050 C   0  0  2  0  0  0  0  0  0  0  0  0
   61.5140   30.2460   49.0050 C   0  0  0  0  0  0  0  0  0  0  0  0
   62.1710   31.5470   48.6080 C   0  0  0  0  0  0  0  0  0  0  0  0
   62.8760   31.6420   47.3960 C   0  0  0  0  0  0  0  0  0  0  0  0
   63.4710   32.8500   47.0180 C   0  0  0  0  0  0  0  0  0  0  0  0
   63.3710   33.9700   47.8470 C   0  0  0  0  0  0  0  0  0  0  0  0
   62.6660   33.8870   49.0510 C   0  0  0  0  0  0  0  0  0  0  0  0
   62.0620   32.6840   49.4290 C   0  0  0  0  0  0  0  0  0  0  0  0
   58.9510   30.2730   48.8950 C   0  0  0  0  0  0  0  0  0  0  0  0
   58.4980   29.5710   49.8390 O   0  0  0  0  0  0  0  0  0  0  0  0
   58.1870   31.3770   48.3960 N   0  0  0  0  0  0  0  0  0  0  0  0
   58.5280   32.7720   48.6390 C   0  0  0  0  0  0  0  0  0  0  0  0
   58.7560   33.4830   47.3340 C   0  0  0  0  0  0  0  0  0  0  0  0
   59.6630   34.5520   47.2490 C   0  0  0  0  0  0  0  0  0  0  0  0
   59.8480   35.2240   46.0350 C   0  0  0  0  0  0  0  0  0  0  0  0
   59.1240   34.8380   44.9030 C   0  0  0  0  0  0  0  0  0  0  0  0
   58.2160   33.7790   44.9820 C   0  0  0  0  0  0  0  0  0  0  0  0
   58.0300   33.1030   46.1930 C   0  0  0  0  0  0  0  0  0  0  0  0
   58.9930   27.2330   45.9110 C   0  0  0  0  0  0  0  0  0  0  0  0
   58.7100   28.0630   44.8790 C   0  0  0  0  0  0  0  0  0  0  0  0
   57.4340   28.7560   44.6630 C   0  0  0  0  0  0  0  0  0  0  0  0
   57.2570   29.9460   43.9920 C   0  0  0  0  0  0  0  0  0  0  0  0
   55.9180   30.2610   44.1240 C   0  0  0  0  0  0  0  0  0  0  0  0
   55.2680   29.3380   44.8670 N   0  0  0  0  0  0  0  0  0  0  0  0
   56.2070   28.4310   45.2000 C   0  0  0  0  0  0  0  0  0  0  0  0
   55.9530   27.3170   45.9920 O   0  0  0  0  0  0  0  0  0  0  0  0
   59.0130   25.7390   45.6320 C   0  0  0  0  0  0  0  0  0  0  0  0
   57.7400   25.0660   46.0810 C   0  0  0  0  0  0  0  0  0  0  0  0
   57.3100   25.3000   47.2440 O   0  0  0  0  0  0  0  0  0  0  0  0
   56.9900   24.2050   45.2010 N   0  0  0  0  0  0  0  0  0  0  0  0
   57.6780   23.2740   44.2980 C   0  0  0  0  0  0  0  0  0  0  0  0
   56.7860   22.9520   43.0930 C   0  0  0  0  0  0  0  0  0  0  0  0
   55.5000   22.5410   43.5120 O   0  0  0  0  0  0  0  0  0  0  0  0
   54.8470   23.6120   44.1650 C   0  0  0  0  0  0  0  0  0  0  0  0
   55.5660   23.9710   45.4660 C   0  0  0  0  0  0  0  0  0  0  0  0
   60.2696   30.5262   47.3075 H   0  0  0  0  0  0  0  0  0  0  0  0
   61.2434   30.3104   50.0693 H   0  0  0  0  0  0  0  0  0  0  0  0
   62.2446   29.4525   48.7893 H   0  0  0  0  0  0  0  0  0  0  0  0
   62.9603   30.7620   46.7414 H   0  0  0  0  0  0  0  0  0  0  0  0
   64.0186   32.9183   46.0664 H   0  0  0  0  0  0  0  0  0  0  0  0
   63.8469   34.9169   47.5523 H   0  0  0  0  0  0  0  0  0  0  0  0
   62.5862   34.7698   49.7024 H   0  0  0  0  0  0  0  0  0  0  0  0
   61.4992   32.6264   50.3724 H   0  0  0  0  0  0  0  0  0  0  0  0
   57.7032   33.2593   49.1796 H   0  0  0  0  0  0  0  0  0  0  0  0
   59.4483   32.8183   49.2398 H   0  0  0  0  0  0  0  0  0  0  0  0
   60.2298   34.8622   48.1392 H   0  0  0  0  0  0  0  0  0  0  0  0
   60.5639   36.0568   45.9716 H   0  0  0  0  0  0  0  0  0  0  0  0
   59.2692   35.3680   43.9501 H   0  0  0  0  0  0  0  0  0  0  0  0
   57.6465   33.4762   44.0909 H   0  0  0  0  0  0  0  0  0  0  0  0
   57.3127   32.2711   46.2517 H   0  0  0  0  0  0  0  0  0  0  0  0
   59.5053   28.2326   44.1383 H   0  0  0  0  0  0  0  0  0  0  0  0
   58.0247   30.5268   43.4598 H   0  0  0  0  0  0  0  0  0  0  0  0
   55.4424   31.1486   43.6814 H   0  0  0  0  0  0  0  0  0  0  0  0
   56.4530   27.1760   46.8620 H   0  0  0  0  0  0  0  0  0  0  0  0
   59.1366   25.5808   44.5505 H   0  0  0  0  0  0  0  0  0  0  0  0
   59.8487   25.2981   46.1952 H   0  0  0  0  0  0  0  0  0  0  0  0
   58.6134   23.7333   43.9457 H   0  0  0  0  0  0  0  0  0  0  0  0
   57.8991   22.3433   44.8410 H   0  0  0  0  0  0  0  0  0  0  0  0
   56.6902   23.8505   42.4657 H   0  0  0  0  0  0  0  0  0  0  0  0
   57.2482   22.1325   42.5230 H   0  0  0  0  0  0  0  0  0  0  0  0
   54.8410   24.4895   43.5017 H   0  0  0  0  0  0  0  0  0  0  0  0
   53.8174   23.3062   44.4027 H   0  0  0  0  0  0  0  0  0  0  0  0
   55.1193   24.8823   45.8902 H   0  0  0  0  0  0  0  0  0  0  0  0
   55.4620   23.1397   46.1788 H   0  0  0  0  0  0  0  0  0  0  0  0
  1  2  2  0
  2  3  1  0
  3  4  1  0
  4  5  1  0
  5  6  1  0
  6  7  2  0
  7  8  1  0
  8  9  2  0
  9 10  1  0
 10 11  2  0
  4 12  1  0
 12 13  2  0
 12 14  1  0
 14 15  1  0
 15 16  1  0
 16 17  2  0
 17 18  1  0
 18 19  2  0
 19 20  1  0
 20 21  2  0
  2 22  1  0
 22 23  2  3
 23 24  1  0
 24 25  1  0
 25 26  2  0
 26 27  1  0
 27 28  1  0
 28 29  1  0
 22 30  1  0
 30 31  1  0
 31 32  2  0
 31 33  1  0
 33 34  1  0
 34 35  1  0
 35 36  1  0
 36 37  1  0
 37 38  1  0
 11  6  1  0
 21 16  1  0
 28 24  2  0
 38 33  1  0
  4 39  1  6
  5 40  1  0
  5 41  1  0
  7 42  1  0
  8 43  1  0
  9 44  1  0
 10 45  1  0
 11 46  1  0
 15 47  1  0
 15 48  1  0
 17 49  1  0
 18 50  1  0
 19 51  1  0
 20 52  1  0
 21 53  1  0
 23 54  1  0
 25 55  1  0
 26 56  1  0
 29 57  1  0
 30 58  1  0
 30 59  1  0
 34 60  1  0
 34 61  1  0
 35 62  1  0
 35 63  1  0
 37 64  1  0
 37 65  1  0
 38 66  1  0
 38 67  1  0
M  CHG  3   3  -1  14  -1  27  -1
M  END
>  <UniqueID>  (85) 
83

>  <SMILES>  (85) 
O=C([N-][C@H](Cc1ccccc1)C(=O)[N-]Cc1ccccc1)C(=Cc1cc[n-]c1O)CC(=O)N1CCOCC1

>  <Energy>  (85) 
102.28743255044695

>  <Genealogy>  (85) 
O=C([N-]C(Cc1ccccc1)C(=O)[N-]Cc1ccccc1)C(=Cc1cc[n-]c1O)CC(=O)N1CCOCC1 (protonated)
O=C([N-][C@H](Cc1ccccc1)C(=O)[N-]Cc1ccccc1)C(=Cc1cc[n-]c1O)CC(=O)N1CCOCC1 (chirality)
O=C([N-][C@H](Cc1ccccc1)C(=O)[N-]Cc1ccccc1)C(=Cc1cc[n-]c1O)CC(=O)N1CCOCC1 (3D coordinates assigned)
O=C([N-][C@H](Cc1ccccc1)C(=O)[N-]Cc1ccccc1)C(=Cc1cc[n-]c1O)CC(=O)N1CCOCC1 (nonaromatic ring conformer: 102.28743255044695 kcal/mol)

>  <smiles>  (85) 
O=C(NC(Cc1ccccc1)C(=O)NCc1ccccc1)C(=Cc1cc[nH]c1O)CC(=O)N1CCOCC1

>  <score_type>  (85) 
oracle

>  <origin>  (85) 
adg

>  <m_score__min__energy>  (85) 
-15.43

>  <m_primary>  (85) 
energy

$$$$
85:0
     RDKit          3D

 45 47  0  0  0  0  0  0  0  0999 V2000
   60.4930   29.1190   49.8890 C   0  0  0  0  0  0  0  0  0  0  0  0
   59.9520   29.3670   48.5110 C   0  0  0  0  0  0  0  0  0  0  0  0
   60.0700   28.3830   47.5220 C   0  0  0  0  0  0  0  0  0  0  0  0
   59.5210   28.5800   46.2450 C   0  0  0  0  0  0  0  0  0  0  0  0
   59.6490   27.4880   45.2190 C   0  0  0  0  0  0  0  0  0  0  0  0
   58.8790   29.8040   45.9470 C   0  0  0  0  0  0  0  0  0  0  0  0
   58.3740   30.0710   44.6310 N   0  0  0  0  0  0  0  0  0  0  0  0
   56.6700   30.1970   44.3370 S   0  0  0  0  0  0  0  0  0  0  0  0
   56.3350   29.7630   42.6460 C   0  0  0  0  0  0  0  0  0  0  0  0
   55.9210   29.2540   45.2360 O   0  0  0  0  0  0  0  0  0  0  0  0
   56.2150   31.6050   44.5970 O   0  0  0  0  0  0  0  0  0  0  0  0
   58.7460   30.7850   46.9470 C   0  0  0  0  0  0  0  0  0  0  0  0
   58.0960   32.0230   46.6360 N   0  0  0  0  0  0  0  0  0  0  0  0
   58.9450   33.4750   46.2080 S   0  0  0  0  0  0  0  0  0  0  0  0
   59.2000   33.4560   44.7260 O   0  0  0  0  0  0  0  0  0  0  0  0
   58.1320   34.6960   46.5280 O   0  0  0  0  0  0  0  0  0  0  0  0
   60.4790   33.5280   47.0850 C   0  0  0  0  0  0  0  0  0  0  0  0
   61.6900   33.5430   46.3740 C   0  0  0  0  0  0  0  0  0  0  0  0
   62.9110   33.5360   47.0520 C   0  0  0  0  0  0  0  0  0  0  0  0
   62.9440   33.5080   48.4470 C   0  0  0  0  0  0  0  0  0  0  0  0
   61.7460   33.4980   49.1760 C   0  0  0  0  0  0  0  0  0  0  0  0
   61.7530   33.4670   50.5770 C   0  0  0  0  0  0  0  0  0  0  0  0
   60.5450   33.4540   51.2770 C   0  0  0  0  0  0  0  0  0  0  0  0
   59.3420   33.4760   50.5710 C   0  0  0  0  0  0  0  0  0  0  0  0
   59.3490   33.5070   49.2120 N   0  0  0  0  0  0  0  0  0  0  0  0
   60.5070   33.5140   48.4950 C   0  0  0  0  0  0  0  0  0  0  0  0
   59.2610   30.5500   48.2290 C   0  0  0  0  0  0  0  0  0  0  0  0
   59.7597   29.4552   50.6368 H   0  0  0  0  0  0  0  0  0  0  0  0
   60.6836   28.0436   50.0200 H   0  0  0  0  0  0  0  0  0  0  0  0
   61.4322   29.6765   50.0200 H   0  0  0  0  0  0  0  0  0  0  0  0
   60.5987   27.4452   47.7480 H   0  0  0  0  0  0  0  0  0  0  0  0
   59.7626   26.5190   45.7271 H   0  0  0  0  0  0  0  0  0  0  0  0
   58.7470   27.4686   44.5897 H   0  0  0  0  0  0  0  0  0  0  0  0
   60.5311   27.6777   44.5897 H   0  0  0  0  0  0  0  0  0  0  0  0
   58.9810   29.8540   43.8100 H   0  0  0  0  0  0  0  0  0  0  0  0
   55.6631   28.8925   42.6171 H   0  0  0  0  0  0  0  0  0  0  0  0
   55.8563   30.6128   42.1373 H   0  0  0  0  0  0  0  0  0  0  0  0
   57.2783   29.5152   42.1373 H   0  0  0  0  0  0  0  0  0  0  0  0
   61.6768   33.5604   45.2742 H   0  0  0  0  0  0  0  0  0  0  0  0
   63.8523   33.5527   46.4831 H   0  0  0  0  0  0  0  0  0  0  0  0
   63.9092   33.4938   48.9744 H   0  0  0  0  0  0  0  0  0  0  0  0
   62.7074   33.4529   51.1236 H   0  0  0  0  0  0  0  0  0  0  0  0
   60.5419   33.4266   52.3767 H   0  0  0  0  0  0  0  0  0  0  0  0
   58.3860   33.4683   51.1150 H   0  0  0  0  0  0  0  0  0  0  0  0
   59.1207   31.3018   49.0197 H   0  0  0  0  0  0  0  0  0  0  0  0
  1  2  1  0
  2  3  2  0
  3  4  1  0
  4  5  1  0
  4  6  2  0
  6  7  1  0
  7  8  1  0
  8  9  1  0
  8 10  2  0
  8 11  2  0
  6 12  1  0
 12 13  1  0
 13 14  1  0
 14 15  2  0
 14 16  2  0
 14 17  1  0
 17 18  2  0
 18 19  1  0
 19 20  2  0
 20 21  1  0
 21 22  2  0
 22 23  1  0
 23 24  2  0
 24 25  1  0
 25 26  2  0
 12 27  2  0
 27  2  1  0
 26 17  1  0
 26 21  1  0
  1 28  1  0
  1 29  1  0
  1 30  1  0
  3 31  1  0
  5 32  1  0
  5 33  1  0
  5 34  1  0
  7 35  1  0
  9 36  1  0
  9 37  1  0
  9 38  1  0
 18 39  1  0
 19 40  1  0
 20 41  1  0
 22 42  1  0
 23 43  1  0
 24 44  1  0
 27 45  1  0
M  CHG  1  13  -1
M  END
>  <UniqueID>  (86) 
84

>  <SMILES>  (86) 
Cc1cc(C)c(NS(C)(=O)=O)c([N-]S(=O)(=O)c2cccc3cccnc23)c1

>  <Energy>  (86) 
56.516265332830706

>  <Genealogy>  (86) 
Cc1cc(C)c(NS(C)(=O)=O)c([N-]S(=O)(=O)c2cccc3cccnc23)c1 (protonated)
Cc1cc(C)c(NS(C)(=O)=O)c([N-]S(=O)(=O)c2cccc3cccnc23)c1 (3D coordinates assigned)
Cc1cc(C)c(NS(C)(=O)=O)c([N-]S(=O)(=O)c2cccc3cccnc23)c1 (optimized conformer: 56.516265332830706 kcal/mol)

>  <smiles>  (86) 
Cc1cc(C)c(NS(C)(=O)=O)c(NS(=O)(=O)c2cccc3cccnc23)c1

>  <score_type>  (86) 
oracle

>  <origin>  (86) 
adg

>  <m_score__min__energy>  (86) 
-10.57

>  <m_primary>  (86) 
energy

$$$$
86:0
     RDKit          3D

 56 58  0  0  0  0  0  0  0  0999 V2000
   57.0660   21.1750   43.0010 C   0  0  0  0  0  0  0  0  0  0  0  0
   55.9150   21.8710   43.4850 O   0  0  0  0  0  0  0  0  0  0  0  0
   55.7440   22.3270   44.8030 C   0  0  0  0  0  0  0  0  0  0  0  0
   55.9070   23.6910   45.1210 C   0  0  0  0  0  0  0  0  0  0  0  0
   55.7200   24.1480   46.4290 C   0  0  0  0  0  0  0  0  0  0  0  0
   55.8850   25.5330   46.7530 N   0  0  0  0  0  0  0  0  0  0  0  0
   56.9460   26.3670   46.2810 C   0  0  0  0  0  0  0  0  0  0  0  0
   58.0730   26.2900   46.8370 O   0  0  0  0  0  0  0  0  0  0  0  0
   56.7130   27.3340   45.2440 N   0  0  0  0  0  0  0  0  0  0  0  0
   57.7070   28.3610   44.8940 C   0  0  0  0  0  0  0  0  0  0  0  0
   57.2200   29.1910   43.6840 C   0  0  0  0  0  0  0  0  0  0  0  0
   56.3540   30.3820   44.1330 C   0  0  0  0  0  0  0  0  0  0  0  0
   57.0400   31.2860   45.1020 N   0  0  0  0  0  0  0  0  0  0  0  0
   57.3420   32.6100   44.5240 C   0  0  0  0  0  0  0  0  0  0  0  0
   58.1170   33.4480   45.5110 C   0  0  0  0  0  0  0  0  0  0  0  0
   59.2130   34.2120   45.0850 C   0  0  0  0  0  0  0  0  0  0  0  0
   59.9440   34.9670   46.0070 C   0  0  0  0  0  0  0  0  0  0  0  0
   59.5670   34.9560   47.3510 C   0  0  0  0  0  0  0  0  0  0  0  0
   58.5020   34.2090   47.7520 N   0  0  0  0  0  0  0  0  0  0  0  0
   57.7740   33.4650   46.8730 C   0  0  0  0  0  0  0  0  0  0  0  0
   58.2440   30.7060   45.7380 C   0  0  0  0  0  0  0  0  0  0  0  0
   57.9980   29.2450   46.1320 C   0  0  0  0  0  0  0  0  0  0  0  0
   55.4030   23.2410   47.4420 C   0  0  0  0  0  0  0  0  0  0  0  0
   55.2200   21.8760   47.1500 C   0  0  0  0  0  0  0  0  0  0  0  0
   54.8700   20.9420   48.1440 O   0  0  0  0  0  0  0  0  0  0  0  0
   53.5690   20.3970   48.3170 C   0  0  0  0  0  0  0  0  0  0  0  0
   55.3900   21.4130   45.8320 C   0  0  0  0  0  0  0  0  0  0  0  0
   55.1910   20.0340   45.6150 O   0  0  0  0  0  0  0  0  0  0  0  0
   56.1880   19.0230   45.6520 C   0  0  0  0  0  0  0  0  0  0  0  0
   57.6617   20.8148   43.8527 H   0  0  0  0  0  0  0  0  0  0  0  0
   56.7463   20.3188   42.3889 H   0  0  0  0  0  0  0  0  0  0  0  0
   57.6757   21.8559   42.3889 H   0  0  0  0  0  0  0  0  0  0  0  0
   56.1846   24.4039   44.3306 H   0  0  0  0  0  0  0  0  0  0  0  0
   55.7300   27.4600   44.9010 H   0  0  0  0  0  0  0  0  0  0  0  0
   58.6499   27.8797   44.5950 H   0  0  0  0  0  0  0  0  0  0  0  0
   58.0944   29.5708   43.1351 H   0  0  0  0  0  0  0  0  0  0  0  0
   56.6085   28.5407   43.0412 H   0  0  0  0  0  0  0  0  0  0  0  0
   56.0807   30.9685   43.2434 H   0  0  0  0  0  0  0  0  0  0  0  0
   55.4740   29.9665   44.6459 H   0  0  0  0  0  0  0  0  0  0  0  0
   57.9405   32.4791   43.6104 H   0  0  0  0  0  0  0  0  0  0  0  0
   56.3971   33.1203   44.2857 H   0  0  0  0  0  0  0  0  0  0  0  0
   59.4983   34.2173   44.0227 H   0  0  0  0  0  0  0  0  0  0  0  0
   60.8072   35.5635   45.6768 H   0  0  0  0  0  0  0  0  0  0  0  0
   60.1301   35.5505   48.0855 H   0  0  0  0  0  0  0  0  0  0  0  0
   56.9161   32.8766   47.2305 H   0  0  0  0  0  0  0  0  0  0  0  0
   59.0844   30.7524   45.0298 H   0  0  0  0  0  0  0  0  0  0  0  0
   58.4773   31.2826   46.6453 H   0  0  0  0  0  0  0  0  0  0  0  0
   58.8912   28.8584   46.6445 H   0  0  0  0  0  0  0  0  0  0  0  0
   57.1195   29.2106   46.7931 H   0  0  0  0  0  0  0  0  0  0  0  0
   55.2953   23.5961   48.4775 H   0  0  0  0  0  0  0  0  0  0  0  0
   53.3498   20.3052   49.3910 H   0  0  0  0  0  0  0  0  0  0  0  0
   52.8281   21.0604   47.8469 H   0  0  0  0  0  0  0  0  0  0  0  0
   53.5221   19.4036   47.8469 H   0  0  0  0  0  0  0  0  0  0  0  0
   56.4264   18.7813   46.6983 H   0  0  0  0  0  0  0  0  0  0  0  0
   55.8154   18.1218   45.1432 H   0  0  0  0  0  0  0  0  0  0  0  0
   57.0944   19.3830   45.1432 H   0  0  0  0  0  0  0  0  0  0  0  0
  1  2  1  0
  2  3  1  0
  3  4  2  0
  4  5  1  0
  5  6  1  0
  6  7  1  0
  7  8  2  0
  7  9  1  0
  9 10  1  0
 10 11  1  0
 11 12  1  0
 12 13  1  0
 13 14  1  0
 14 15  1  0
 15 16  2  0
 16 17  1  0
 17 18  2  0
 18 19  1  0
 19 20  2  0
 13 21  1  0
 21 22  1  0
  5 23  2  0
 23 24  1  0
 24 25  1  0
 25 26  1  0
 24 27  2  0
 27 28  1  0
 28 29  1  0
 27  3  1  0
 22 10  1  0
 20 15  1  0
  1 30  1  0
  1 31  1  0
  1 32  1  0
  4 33  1  0
  9 34  1  0
 10 35  1  0
 11 36  1  0
 11 37  1  0
 12 38  1  0
 12 39  1  0
 14 40  1  0
 14 41  1  0
 16 42  1  0
 17 43  1  0
 18 44  1  0
 20 45  1  0
 21 46  1  0
 21 47  1  0
 22 48  1  0
 22 49  1  0
 23 50  1  0
 26 51  1  0
 26 52  1  0
 26 53  1  0
 29 54  1  0
 29 55  1  0
 29 56  1  0
M  CHG  1   6  -1
M  END
>  <UniqueID>  (87) 
85

>  <SMILES>  (87) 
COc1cc([N-]C(=O)NC2CCN(Cc3cccnc3)CC2)cc(OC)c1OC

>  <Energy>  (87) 
71.21962946201752

>  <Genealogy>  (87) 
COc1cc([N-]C(=O)NC2CCN(Cc3cccnc3)CC2)cc(OC)c1OC (protonated)
COc1cc([N-]C(=O)NC2CCN(Cc3cccnc3)CC2)cc(OC)c1OC (3D coordinates assigned)
COc1cc([N-]C(=O)NC2CCN(Cc3cccnc3)CC2)cc(OC)c1OC (nonaromatic ring conformer: 71.21962946201752 kcal/mol)

>  <smiles>  (87) 
COc1cc(NC(=O)NC2CCN(Cc3cccnc3)CC2)cc(OC)c1OC

>  <score_type>  (87) 
oracle

>  <origin>  (87) 
adg

>  <m_score__min__energy>  (87) 
-9.9800000000000004

>  <m_primary>  (87) 
energy

$$$$
87:0
     RDKit          3D

 44 46  0  0  1  0  0  0  0  0999 V2000
   65.6050   33.0890   50.0480 C   0  0  0  0  0  0  0  0  0  0  0  0
   64.5710   32.0450   49.6560 C   0  0  0  0  0  0  0  0  0  0  0  0
   63.6320   32.7220   48.7060 C   0  0  0  0  0  0  0  0  0  0  0  0
   63.7670   32.9170   47.3840 N   0  0  0  0  0  0  0  0  0  0  0  0
   62.7060   33.5580   46.9260 N   0  0  0  0  0  0  0  0  0  0  0  0
   61.8830   33.7750   47.9730 C   0  0  0  0  0  0  0  0  0  0  0  0
   60.2960   34.5920   48.0080 S   0  0  0  0  0  0  0  0  0  0  0  0
   58.9430   33.3680   47.8760 C   0  0  0  0  0  0  0  0  0  0  0  0
   58.5790   33.2690   46.4480 C   0  0  0  0  0  0  0  0  0  0  0  0
   59.1280   34.0440   45.4530 C   0  0  0  0  0  0  0  0  0  0  0  0
   58.6870   33.8460   44.1460 C   0  0  0  0  0  0  0  0  0  0  0  0
   57.7530   32.9300   43.8370 N   0  0  0  0  0  0  0  0  0  0  0  0
   57.2200   32.1770   44.8020 C   0  0  0  0  0  0  0  0  0  0  0  0
   56.3350   31.3180   44.4820 N   0  0  0  0  0  0  0  0  0  0  0  0
   56.4470   29.9230   44.5840 C   0  0  0  0  0  0  0  0  0  0  0  0
   55.5250   29.1410   44.9100 O   0  0  0  0  0  0  0  0  0  0  0  0
   57.7730   29.2860   44.2840 C   0  0  0  0  0  0  0  0  0  0  0  0
   58.6180   29.2330   45.5050 C   0  0  0  0  0  0  0  0  0  0  0  0
   59.7740   30.0130   45.6160 C   0  0  0  0  0  0  0  0  0  0  0  0
   60.5180   29.9130   46.7890 C   0  0  0  0  0  0  0  0  0  0  0  0
   61.6290   30.6850   46.8500 F   0  0  0  0  0  0  0  0  0  0  0  0
   60.1510   29.0810   47.8270 C   0  0  0  0  0  0  0  0  0  0  0  0
   59.0020   28.3130   47.7040 C   0  0  0  0  0  0  0  0  0  0  0  0
   58.2290   28.3850   46.5440 C   0  0  0  0  0  0  0  0  0  0  0  0
   57.0980   27.6190   46.4420 F   0  0  0  0  0  0  0  0  0  0  0  0
   57.6130   32.3260   46.1010 C   0  0  0  0  0  0  0  0  0  0  0  0
   62.4460   33.2570   49.1020 N   0  0  0  0  0  0  0  0  0  0  0  0
   65.6662   33.1508   51.1446 H   0  0  0  0  0  0  0  0  0  0  0  0
   66.5865   32.8037   49.6415 H   0  0  0  0  0  0  0  0  0  0  0  0
   65.3102   34.0677   49.6415 H   0  0  0  0  0  0  0  0  0  0  0  0
   65.0594   31.1903   49.1651 H   0  0  0  0  0  0  0  0  0  0  0  0
   64.0388   31.6577   50.5374 H   0  0  0  0  0  0  0  0  0  0  0  0
   62.5200   33.8540   45.9360 H   0  0  0  0  0  0  0  0  0  0  0  0
   59.2828   32.3897   48.2467 H   0  0  0  0  0  0  0  0  0  0  0  0
   58.0765   33.6784   48.4784 H   0  0  0  0  0  0  0  0  0  0  0  0
   59.8940   34.7993   45.6827 H   0  0  0  0  0  0  0  0  0  0  0  0
   59.1173   34.4594   43.3407 H   0  0  0  0  0  0  0  0  0  0  0  0
   57.4480   32.8060   42.8680 H   0  0  0  0  0  0  0  0  0  0  0  0
   57.6070   28.2631   43.9150 H   0  0  0  0  0  0  0  0  0  0  0  0
   58.2900   29.8874   43.5217 H   0  0  0  0  0  0  0  0  0  0  0  0
   60.0856   30.6843   44.8022 H   0  0  0  0  0  0  0  0  0  0  0  0
   60.7617   29.0273   48.7404 H   0  0  0  0  0  0  0  0  0  0  0  0
   58.6991   27.6449   48.5237 H   0  0  0  0  0  0  0  0  0  0  0  0
   57.1627   31.6954   46.8817 H   0  0  0  0  0  0  0  0  0  0  0  0
  1  2  1  0
  2  3  1  0
  3  4  2  0
  4  5  1  0
  5  6  1  0
  6  7  1  0
  7  8  1  0
  8  9  1  0
  9 10  1  0
 10 11  2  0
 11 12  1  0
 12 13  1  0
 13 14  2  0
 14 15  1  0
 15 16  2  0
 15 17  1  0
 17 18  1  0
 18 19  2  0
 19 20  1  0
 20 21  1  0
 20 22  2  0
 22 23  1  0
 23 24  2  0
 24 25  1  0
 13 26  1  0
  6 27  2  0
 27  3  1  0
 26  9  2  0
 24 18  1  0
  1 28  1  0
  1 29  1  0
  1 30  1  0
  2 31  1  0
  2 32  1  0
  5 33  1  0
  8 34  1  0
  8 35  1  0
 10 36  1  0
 11 37  1  0
 12 38  1  0
 17 39  1  0
 17 40  1  0
 19 41  1  0
 22 42  1  0
 23 43  1  0
 26 44  1  0
M  END
>  <smiles>  (88) 
CCc1n[nH]c(SCc2cc[nH]c(=NC(=O)Cc3cc(F)ccc3F)c2)n1

>  <score_type>  (88) 
oracle

>  <origin>  (88) 
adg

>  <m_score__min__energy>  (88) 
-8.6300000000000008

>  <m_primary>  (88) 
energy

$$$$
88:0
     RDKit          3D

 30 31  0  0  0  0  0  0  0  0999 V2000
   61.3202   32.4552   47.4112 H   0  0  0  0  0  0  0  0  0  0  0  0
   60.5780   33.0380   46.8460 C   0  0  0  0  0  0  0  0  0  0  0  0
   59.6460   32.4000   46.0890 N   0  0  0  0  0  0  0  0  0  0  0  0
   58.7060   33.0820   45.3720 C   0  0  0  0  0  0  0  0  0  0  0  0
   57.8190   32.4600   44.6500 N   0  0  0  0  0  0  0  0  0  0  0  0
   57.3930   31.0940   44.7890 C   0  0  0  0  0  0  0  0  0  0  0  0
   56.2170   30.7490   44.4870 O   0  0  0  0  0  0  0  0  0  0  0  0
   58.3410   30.1150   45.2350 N   0  0  0  0  0  0  0  0  0  0  0  0
   59.3520   30.3810   45.2140 H   0  0  0  0  0  0  0  0  0  0  0  0
   58.0040   28.7650   45.5960 C   0  0  0  0  0  0  0  0  0  0  0  0
   58.9960   27.8040   45.8580 C   0  0  0  0  0  0  0  0  0  0  0  0
   60.0578   28.0869   45.8070 H   0  0  0  0  0  0  0  0  0  0  0  0
   58.6420   26.4910   46.1830 C   0  0  0  0  0  0  0  0  0  0  0  0
   59.4265   25.7500   46.3961 H   0  0  0  0  0  0  0  0  0  0  0  0
   57.2880   26.1120   46.2390 C   0  0  0  0  0  0  0  0  0  0  0  0
   56.8870   24.8080   46.5640 O   0  0  0  0  0  0  0  0  0  0  0  0
   56.1560   23.9500   45.6940 C   0  0  0  0  0  0  0  0  0  0  0  0
   55.5568   23.2467   46.2910 H   0  0  0  0  0  0  0  0  0  0  0  0
   55.4896   24.5527   45.0595 H   0  0  0  0  0  0  0  0  0  0  0  0
   56.8569   23.3878   45.0595 H   0  0  0  0  0  0  0  0  0  0  0  0
   56.3000   27.0660   45.9550 C   0  0  0  0  0  0  0  0  0  0  0  0
   54.9570   26.7100   45.9960 O   0  0  0  0  0  0  0  0  0  0  0  0
   56.6570   28.3780   45.6290 C   0  0  0  0  0  0  0  0  0  0  0  0
   55.8732   29.1138   45.3961 H   0  0  0  0  0  0  0  0  0  0  0  0
   58.6940   34.4830   45.4110 C   0  0  0  0  0  0  0  0  0  0  0  0
   57.9430   35.0473   44.8387 H   0  0  0  0  0  0  0  0  0  0  0  0
   59.6440   35.1570   46.1830 C   0  0  0  0  0  0  0  0  0  0  0  0
   59.6435   36.2564   46.2205 H   0  0  0  0  0  0  0  0  0  0  0  0
   60.5930   34.4340   46.9060 C   0  0  0  0  0  0  0  0  0  0  0  0
   61.3443   34.9567   47.5162 H   0  0  0  0  0  0  0  0  0  0  0  0
  1  2  1  0
  2  3  1  0
  3  4  1  0
  4  5  2  0
  5  6  1  0
  6  7  2  0
  6  8  1  0
  8  9  1  0
  8 10  1  0
 10 11  2  0
 11 12  1  0
 11 13  1  0
 13 14  1  0
 13 15  2  0
 15 16  1  0
 16 17  1  0
 17 18  1  0
 17 19  1  0
 17 20  1  0
 15 21  1  0
 21 22  1  0
 21 23  2  0
 23 24  1  0
  4 25  1  0
 25 26  1  0
 25 27  2  0
 27 28  1  0
 27 29  1  0
 29 30  1  0
 29  2  2  0
 23 10  1  0
M  CHG  2   3  -1  22  -1
M  END
>  <UniqueID>  (89) 
86

>  <SMILES>  (89) 
COc1ccc(NC(=O)/N=c2/cccc[n-]2)cc1[O-]

>  <Energy>  (89) 
36.82165207326056

>  <Genealogy>  (89) 
COc1ccc(NC(=O)N=c2cccc[n-]2)cc1[O-] (protonated)
COc1ccc(NC(=O)/N=c2/cccc[n-]2)cc1[O-] (cis-trans isomerization)
COc1ccc(NC(=O)/N=c2/cccc[n-]2)cc1[O-] (3D coordinates assigned)
COc1ccc(NC(=O)/N=c2/cccc[n-]2)cc1[O-] (optimized conformer: 36.82165207326056 kcal/mol)

>  <smiles>  (89) 
COc1ccc(NC(=O)N=c2cccc[nH]2)cc1O

>  <score_type>  (89) 
oracle

>  <origin>  (89) 
adg

>  <m_score__min__energy>  (89) 
-10.779999999999999

>  <m_primary>  (89) 
energy

$$$$
89:0
     RDKit          3D

 47 49  0  0  0  0  0  0  0  0999 V2000
   56.7710   26.6300   46.2100 O   0  0  0  0  0  0  0  0  0  0  0  0
   57.0680   27.8390   46.0120 C   0  0  0  0  0  0  0  0  0  0  0  0
   56.2950   28.6390   45.1090 N   0  0  0  0  0  0  0  0  0  0  0  0
   56.8000   29.6690   44.2460 C   0  0  0  0  0  0  0  0  0  0  0  0
   57.8120   30.5560   44.6600 C   0  0  0  0  0  0  0  0  0  0  0  0
   58.2560   31.5670   43.8000 C   0  0  0  0  0  0  0  0  0  0  0  0
   57.6850   31.7110   42.5330 C   0  0  0  0  0  0  0  0  0  0  0  0
   56.6640   30.8480   42.1260 C   0  0  0  0  0  0  0  0  0  0  0  0
   56.2170   29.8370   42.9830 C   0  0  0  0  0  0  0  0  0  0  0  0
   58.1530   28.4400   46.7250 N   0  0  0  0  0  0  0  0  0  0  0  0
   58.9610   27.6770   47.6750 C   0  0  0  0  0  0  0  0  0  0  0  0
   59.6350   28.6040   48.6900 C   0  0  0  0  0  0  0  0  0  0  0  0
   59.5080   29.9980   48.2790 N   0  0  0  0  0  0  0  0  0  0  0  0
   60.3760   30.6380   47.3360 C   0  0  0  0  0  0  0  0  0  0  0  0
   60.2720   30.3410   46.1130 O   0  0  0  0  0  0  0  0  0  0  0  0
   61.3630   31.6810   47.7570 C   0  0  0  0  0  0  0  0  0  0  0  0
   62.7230   31.4720   47.4400 C   0  0  0  0  0  0  0  0  0  0  0  0
   63.6910   32.4330   47.7360 C   0  0  0  0  0  0  0  0  0  0  0  0
   63.3250   33.6270   48.3470 C   0  0  0  0  0  0  0  0  0  0  0  0
   61.9930   33.8540   48.6870 C   0  0  0  0  0  0  0  0  0  0  0  0
   61.0090   32.8870   48.4310 C   0  0  0  0  0  0  0  0  0  0  0  0
   59.3400   33.2700   48.9930 S   0  0  0  0  0  0  0  0  0  0  0  0
   58.7910   33.7640   47.3560 C   0  0  0  0  0  0  0  0  0  0  0  0
   59.6400   34.4950   46.5140 C   0  0  0  0  0  0  0  0  0  0  0  0
   59.2070   34.8740   45.2390 C   0  0  0  0  0  0  0  0  0  0  0  0
   57.9250   34.5270   44.8040 C   0  0  0  0  0  0  0  0  0  0  0  0
   57.0730   33.8020   45.6450 C   0  0  0  0  0  0  0  0  0  0  0  0
   57.5040   33.4230   46.9200 C   0  0  0  0  0  0  0  0  0  0  0  0
   58.2548   30.4542   45.6618 H   0  0  0  0  0  0  0  0  0  0  0  0
   59.0561   32.2496   44.1223 H   0  0  0  0  0  0  0  0  0  0  0  0
   58.0388   32.5029   41.8565 H   0  0  0  0  0  0  0  0  0  0  0  0
   56.2112   30.9639   41.1302 H   0  0  0  0  0  0  0  0  0  0  0  0
   55.4029   29.1698   42.6635 H   0  0  0  0  0  0  0  0  0  0  0  0
   58.3730   29.4460   46.5370 H   0  0  0  0  0  0  0  0  0  0  0  0
   58.3127   26.9678   48.2105 H   0  0  0  0  0  0  0  0  0  0  0  0
   59.7426   27.1394   47.1181 H   0  0  0  0  0  0  0  0  0  0  0  0
   59.1575   28.4722   49.6721 H   0  0  0  0  0  0  0  0  0  0  0  0
   60.7033   28.3482   48.7476 H   0  0  0  0  0  0  0  0  0  0  0  0
   63.0252   30.5343   46.9506 H   0  0  0  0  0  0  0  0  0  0  0  0
   64.7455   32.2453   47.4854 H   0  0  0  0  0  0  0  0  0  0  0  0
   64.0861   34.3916   48.5617 H   0  0  0  0  0  0  0  0  0  0  0  0
   61.7089   34.8043   49.1626 H   0  0  0  0  0  0  0  0  0  0  0  0
   60.6483   34.7711   46.8562 H   0  0  0  0  0  0  0  0  0  0  0  0
   59.8758   35.4454   44.5785 H   0  0  0  0  0  0  0  0  0  0  0  0
   57.5856   34.8237   43.8006 H   0  0  0  0  0  0  0  0  0  0  0  0
   56.0636   33.5302   45.3027 H   0  0  0  0  0  0  0  0  0  0  0  0
   56.8319   32.8565   47.5814 H   0  0  0  0  0  0  0  0  0  0  0  0
  1  2  2  0
  2  3  1  0
  3  4  1  0
  4  5  2  0
  5  6  1  0
  6  7  2  0
  7  8  1  0
  8  9  2  0
  2 10  1  0
 10 11  1  0
 11 12  1  0
 12 13  1  0
 13 14  1  0
 14 15  2  0
 14 16  1  0
 16 17  2  0
 17 18  1  0
 18 19  2  0
 19 20  1  0
 20 21  2  0
 21 22  1  0
 22 23  1  0
 23 24  2  0
 24 25  1  0
 25 26  2  0
 26 27  1  0
 27 28  2  0
  9  4  1  0
 21 16  1  0
 28 23  1  0
  5 29  1  0
  6 30  1  0
  7 31  1  0
  8 32  1  0
  9 33  1  0
 10 34  1  0
 11 35  1  0
 11 36  1  0
 12 37  1  0
 12 38  1  0
 17 39  1  0
 18 40  1  0
 19 41  1  0
 20 42  1  0
 24 43  1  0
 25 44  1  0
 26 45  1  0
 27 46  1  0
 28 47  1  0
M  CHG  2   3  -1  13  -1
M  END
>  <UniqueID>  (90) 
87

>  <SMILES>  (90) 
O=C([N-]c1ccccc1)NCC[N-]C(=O)c1ccccc1Sc1ccccc1

>  <Energy>  (90) 
47.6810813862676

>  <Genealogy>  (90) 
O=C([N-]c1ccccc1)NCC[N-]C(=O)c1ccccc1Sc1ccccc1 (protonated)
O=C([N-]c1ccccc1)NCC[N-]C(=O)c1ccccc1Sc1ccccc1 (3D coordinates assigned)
O=C([N-]c1ccccc1)NCC[N-]C(=O)c1ccccc1Sc1ccccc1 (optimized conformer: 47.6810813862676 kcal/mol)

>  <smiles>  (90) 
O=C(NCCNC(=O)c1ccccc1Sc1ccccc1)Nc1ccccc1

>  <score_type>  (90) 
oracle

>  <origin>  (90) 
adg

>  <m_score__min__energy>  (90) 
-11.779999999999999

>  <m_primary>  (90) 
energy

$$$$
90:0
     RDKit          3D

 42 44  0  0  0  0  0  0  0  0999 V2000
   60.3140   21.7990   45.0700 N   0  0  0  0  0  0  0  0  0  0  0  0
   58.8900   21.8800   45.0210 C   0  0  0  0  0  0  0  0  0  0  0  0
   58.1950   21.4980   43.8700 C   0  0  0  0  0  0  0  0  0  0  0  0
   56.8020   21.6070   43.8660 C   0  0  0  0  0  0  0  0  0  0  0  0
   56.1440   21.2710   42.8480 O   0  0  0  0  0  0  0  0  0  0  0  0
   56.1570   22.0820   44.9630 N   0  0  0  0  0  0  0  0  0  0  0  0
   56.8480   22.4530   46.0720 C   0  0  0  0  0  0  0  0  0  0  0  0
   55.9770   23.1060   47.4960 S   0  0  0  0  0  0  0  0  0  0  0  0
   54.5630   23.7450   46.5320 C   0  0  0  0  0  0  0  0  0  0  0  0
   55.0130   24.7880   45.5600 C   0  0  0  0  0  0  0  0  0  0  0  0
   55.2190   24.4690   44.3580 O   0  0  0  0  0  0  0  0  0  0  0  0
   55.0960   26.1530   45.9880 N   0  0  0  0  0  0  0  0  0  0  0  0
   56.2570   26.9940   45.9740 C   0  0  0  0  0  0  0  0  0  0  0  0
   57.3950   26.5730   46.6720 C   0  0  0  0  0  0  0  0  0  0  0  0
   58.5510   27.3590   46.6860 C   0  0  0  0  0  0  0  0  0  0  0  0
   58.5840   28.5790   46.0010 C   0  0  0  0  0  0  0  0  0  0  0  0
   59.7880   29.3590   46.0290 N   0  0  0  0  0  0  0  0  0  0  0  0
   59.9180   30.6930   46.5410 C   0  0  0  0  0  0  0  0  0  0  0  0
   60.7750   30.9110   47.4380 O   0  0  0  0  0  0  0  0  0  0  0  0
   59.0460   31.8000   46.0830 C   0  0  0  0  0  0  0  0  0  0  0  0
   58.7100   32.8430   46.9650 C   0  0  0  0  0  0  0  0  0  0  0  0
   57.8840   33.8890   46.5410 C   0  0  0  0  0  0  0  0  0  0  0  0
   57.3780   33.9000   45.2390 C   0  0  0  0  0  0  0  0  0  0  0  0
   56.5780   34.9140   44.8300 F   0  0  0  0  0  0  0  0  0  0  0  0
   57.6930   32.8600   44.3600 C   0  0  0  0  0  0  0  0  0  0  0  0
   58.5170   31.8110   44.7800 C   0  0  0  0  0  0  0  0  0  0  0  0
   57.4610   28.9810   45.2570 C   0  0  0  0  0  0  0  0  0  0  0  0
   56.3040   28.1950   45.2440 C   0  0  0  0  0  0  0  0  0  0  0  0
   58.2020   22.3450   46.0980 N   0  0  0  0  0  0  0  0  0  0  0  0
   60.8960   22.6440   44.8800 H   0  0  0  0  0  0  0  0  0  0  0  0
   60.7940   20.8940   45.2810 H   0  0  0  0  0  0  0  0  0  0  0  0
   58.7323   21.1203   42.9876 H   0  0  0  0  0  0  0  0  0  0  0  0
   54.0974   22.9148   45.9807 H   0  0  0  0  0  0  0  0  0  0  0  0
   53.8385   24.1973   47.2252 H   0  0  0  0  0  0  0  0  0  0  0  0
   57.3795   25.6159   47.2139 H   0  0  0  0  0  0  0  0  0  0  0  0
   59.4389   27.0170   47.2380 H   0  0  0  0  0  0  0  0  0  0  0  0
   59.0990   32.8359   47.9939 H   0  0  0  0  0  0  0  0  0  0  0  0
   57.6322   34.7049   47.2344 H   0  0  0  0  0  0  0  0  0  0  0  0
   57.2920   32.8666   43.3357 H   0  0  0  0  0  0  0  0  0  0  0  0
   58.7527   30.9898   44.0872 H   0  0  0  0  0  0  0  0  0  0  0  0
   57.4923   29.9183   44.6822 H   0  0  0  0  0  0  0  0  0  0  0  0
   55.4285   28.5172   44.6612 H   0  0  0  0  0  0  0  0  0  0  0  0
  1  2  1  0
  2  3  2  0
  3  4  1  0
  4  5  2  0
  4  6  1  0
  6  7  1  0
  7  8  1  0
  8  9  1  0
  9 10  1  0
 10 11  2  0
 10 12  1  0
 12 13  1  0
 13 14  2  0
 14 15  1  0
 15 16  2  0
 16 17  1  0
 17 18  1  0
 18 19  2  0
 18 20  1  0
 20 21  2  0
 21 22  1  0
 22 23  2  0
 23 24  1  0
 23 25  1  0
 25 26  2  0
 16 27  1  0
 27 28  2  0
  7 29  2  0
 29  2  1  0
 28 13  1  0
 26 20  1  0
  1 30  1  0
  1 31  1  0
  3 32  1  0
  9 33  1  0
  9 34  1  0
 14 35  1  0
 15 36  1  0
 21 37  1  0
 22 38  1  0
 25 39  1  0
 26 40  1  0
 27 41  1  0
 28 42  1  0
M  CHG  3   6  -1  12  -1  17  -1
M  END
>  <UniqueID>  (91) 
88

>  <SMILES>  (91) 
Nc1cc(=O)[n-]c(SCC(=O)[N-]c2ccc([N-]C(=O)c3ccc(F)cc3)cc2)n1

>  <Energy>  (91) 
48.61221203133167

>  <Genealogy>  (91) 
Nc1cc(=O)[n-]c(SCC(=O)[N-]c2ccc([N-]C(=O)c3ccc(F)cc3)cc2)n1 (protonated)
Nc1cc(=O)[n-]c(SCC(=O)[N-]c2ccc([N-]C(=O)c3ccc(F)cc3)cc2)n1 (3D coordinates assigned)
Nc1cc(=O)[n-]c(SCC(=O)[N-]c2ccc([N-]C(=O)c3ccc(F)cc3)cc2)n1 (optimized conformer: 48.61221203133167 kcal/mol)

>  <smiles>  (91) 
Nc1cc(=O)[nH]c(SCC(=O)Nc2ccc(NC(=O)c3ccc(F)cc3)cc2)n1

>  <score_type>  (91) 
oracle

>  <origin>  (91) 
adg

>  <m_score__min__energy>  (91) 
-13.279999999999999

>  <m_primary>  (91) 
energy

$$$$
91:0
     RDKit          3D

 43 45  0  0  0  0  0  0  0  0999 V2000
   59.2250   29.9860   43.6810 H   0  0  0  0  0  0  0  0  0  0  0  0
   58.2950   29.8310   44.0460 O   0  0  0  0  0  0  0  0  0  0  0  0
   58.0090   28.9150   45.0600 C   0  0  0  0  0  0  0  0  0  0  0  0
   56.7480   28.3060   45.0530 C   0  0  0  0  0  0  0  0  0  0  0  0
   56.0035   28.6029   44.2996 H   0  0  0  0  0  0  0  0  0  0  0  0
   56.4270   27.3250   45.9940 C   0  0  0  0  0  0  0  0  0  0  0  0
   55.1740   26.7220   45.9700 O   0  0  0  0  0  0  0  0  0  0  0  0
   57.3650   26.9450   46.9530 C   0  0  0  0  0  0  0  0  0  0  0  0
   57.1163   26.1621   47.6846 H   0  0  0  0  0  0  0  0  0  0  0  0
   58.6200   27.5570   46.9860 C   0  0  0  0  0  0  0  0  0  0  0  0
   59.3554   27.2507   47.7446 H   0  0  0  0  0  0  0  0  0  0  0  0
   58.9530   28.5610   46.0590 C   0  0  0  0  0  0  0  0  0  0  0  0
   60.2700   29.2210   46.1790 C   0  0  0  0  0  0  0  0  0  0  0  0
   60.8960   29.5790   45.1430 O   0  0  0  0  0  0  0  0  0  0  0  0
   60.7580   29.5480   47.4510 O   0  0  0  0  0  0  0  0  0  0  0  0
   61.3840   30.7560   47.7970 C   0  0  0  0  0  0  0  0  0  0  0  0
   62.5340   31.1950   47.1120 C   0  0  0  0  0  0  0  0  0  0  0  0
   62.9364   30.5949   46.2826 H   0  0  0  0  0  0  0  0  0  0  0  0
   63.1680   32.3850   47.4760 C   0  0  0  0  0  0  0  0  0  0  0  0
   64.0604   32.7225   46.9285 H   0  0  0  0  0  0  0  0  0  0  0  0
   62.6700   33.1450   48.5330 C   0  0  0  0  0  0  0  0  0  0  0  0
   63.1675   34.0846   48.8153 H   0  0  0  0  0  0  0  0  0  0  0  0
   61.5420   32.7170   49.2340 C   0  0  0  0  0  0  0  0  0  0  0  0
   61.1612   33.3190   50.0722 H   0  0  0  0  0  0  0  0  0  0  0  0
   60.8870   31.5240   48.8800 C   0  0  0  0  0  0  0  0  0  0  0  0
   59.6930   31.1290   49.6650 C   0  0  0  0  0  0  0  0  0  0  0  0
   59.8309   30.5899   50.6139 H   0  0  0  0  0  0  0  0  0  0  0  0
   58.4890   31.4020   49.2630 N   0  0  0  0  0  0  0  0  0  0  0  0
   58.0880   32.6600   48.8460 O   0  0  0  0  0  0  0  0  0  0  0  0
   58.4120   33.2150   47.5990 C   0  0  0  0  0  0  0  0  0  0  0  0
   59.2560   34.3300   47.5560 C   0  0  0  0  0  0  0  0  0  0  0  0
   59.6504   34.7534   48.4915 H   0  0  0  0  0  0  0  0  0  0  0  0
   59.6010   34.9090   46.3320 C   0  0  0  0  0  0  0  0  0  0  0  0
   60.2549   35.7932   46.3078 H   0  0  0  0  0  0  0  0  0  0  0  0
   59.1170   34.3670   45.1390 C   0  0  0  0  0  0  0  0  0  0  0  0
   59.3765   34.8363   44.1785 H   0  0  0  0  0  0  0  0  0  0  0  0
   58.3010   33.2260   45.1620 C   0  0  0  0  0  0  0  0  0  0  0  0
   57.7620   32.6520   43.8850 C   0  0  0  0  0  0  0  0  0  0  0  0
   57.0260   31.8682   44.1172 H   0  0  0  0  0  0  0  0  0  0  0  0
   57.2777   33.4483   43.3007 H   0  0  0  0  0  0  0  0  0  0  0  0
   58.5871   32.2187   43.3007 H   0  0  0  0  0  0  0  0  0  0  0  0
   57.9430   32.6570   46.3960 C   0  0  0  0  0  0  0  0  0  0  0  0
   57.2924   31.7704   46.4213 H   0  0  0  0  0  0  0  0  0  0  0  0
  1  2  1  0
  2  3  1  0
  3  4  2  0
  4  5  1  0
  4  6  1  0
  6  7  1  0
  6  8  2  0
  8  9  1  0
  8 10  1  0
 10 11  1  0
 10 12  2  0
 12 13  1  0
 13 14  2  0
 13 15  1  0
 15 16  1  0
 16 17  2  0
 17 18  1  0
 17 19  1  0
 19 20  1  0
 19 21  2  0
 21 22  1  0
 21 23  1  0
 23 24  1  0
 23 25  2  0
 25 26  1  0
 26 27  1  0
 26 28  2  0
 28 29  1  0
 29 30  1  0
 30 31  2  0
 31 32  1  0
 31 33  1  0
 33 34  1  0
 33 35  2  0
 35 36  1  0
 35 37  1  0
 37 38  1  0
 38 39  1  0
 38 40  1  0
 38 41  1  0
 37 42  2  0
 42 43  1  0
 12  3  1  0
 25 16  1  0
 42 30  1  0
M  CHG  1   7  -1
M  END
>  <UniqueID>  (92) 
89

>  <SMILES>  (92) 
Cc1cccc(O/N=C/c2ccccc2OC(=O)c2ccc([O-])cc2O)c1

>  <Energy>  (92) 
62.99770885796949

>  <Genealogy>  (92) 
Cc1cccc(ON=Cc2ccccc2OC(=O)c2ccc([O-])cc2O)c1 (protonated)
Cc1cccc(O/N=C/c2ccccc2OC(=O)c2ccc([O-])cc2O)c1 (cis-trans isomerization)
Cc1cccc(O/N=C/c2ccccc2OC(=O)c2ccc([O-])cc2O)c1 (3D coordinates assigned)
Cc1cccc(O/N=C/c2ccccc2OC(=O)c2ccc([O-])cc2O)c1 (optimized conformer: 62.99770885796949 kcal/mol)

>  <smiles>  (92) 
Cc1cccc(ON=Cc2ccccc2OC(=O)c2ccc(O)cc2O)c1

>  <score_type>  (92) 
oracle

>  <origin>  (92) 
adg

>  <m_score__min__energy>  (92) 
-11.18

>  <m_primary>  (92) 
energy

$$$$
92:0
     RDKit          3D

 53 55  0  0  0  0  0  0  0  0999 V2000
   57.8670   29.4360   51.5540 N   0  0  0  0  0  0  0  0  0  0  0  0
   58.6000   30.2260   50.2010 S   0  0  0  0  0  0  0  0  0  0  0  0
   58.3330   29.4350   48.9520 O   0  0  0  0  0  0  0  0  0  0  0  0
   58.0070   31.5980   50.0420 O   0  0  0  0  0  0  0  0  0  0  0  0
   60.3360   30.3480   50.4650 C   0  0  0  0  0  0  0  0  0  0  0  0
   60.8990   29.8940   51.6630 C   0  0  0  0  0  0  0  0  0  0  0  0
   62.2770   29.9870   51.8730 C   0  0  0  0  0  0  0  0  0  0  0  0
   63.0980   30.5480   50.8970 C   0  0  0  0  0  0  0  0  0  0  0  0
   62.5440   31.0390   49.7140 C   0  0  0  0  0  0  0  0  0  0  0  0
   63.4160   31.5830   48.7200 N   0  0  0  0  0  0  0  0  0  0  0  0
   63.9590   32.9150   48.6980 C   0  0  0  0  0  0  0  0  0  0  0  0
   64.5320   33.3680   49.7300 O   0  0  0  0  0  0  0  0  0  0  0  0
   63.7480   33.8350   47.5270 C   0  0  0  0  0  0  0  0  0  0  0  0
   62.4980   33.4950   46.8430 N   0  0  0  0  0  0  0  0  0  0  0  0
   61.2170   33.8540   47.3770 C   0  0  0  0  0  0  0  0  0  0  0  0
   61.1580   34.6020   48.3860 O   0  0  0  0  0  0  0  0  0  0  0  0
   59.9590   33.3680   46.7620 C   0  0  0  0  0  0  0  0  0  0  0  0
   59.2900   32.2580   47.3150 C   0  0  0  0  0  0  0  0  0  0  0  0
   58.1430   31.7410   46.7040 C   0  0  0  0  0  0  0  0  0  0  0  0
   57.6600   32.3030   45.5180 C   0  0  0  0  0  0  0  0  0  0  0  0
   56.5590   31.6710   44.8500 N   0  0  0  0  0  0  0  0  0  0  0  0
   56.5590   30.0220   44.3190 S   0  0  0  0  0  0  0  0  0  0  0  0
   56.5310   29.9740   42.8240 O   0  0  0  0  0  0  0  0  0  0  0  0
   55.3450   29.3410   44.8590 O   0  0  0  0  0  0  0  0  0  0  0  0
   57.9760   29.1950   44.9530 C   0  0  0  0  0  0  0  0  0  0  0  0
   59.2500   29.6120   44.5490 C   0  0  0  0  0  0  0  0  0  0  0  0
   60.3850   28.9240   44.9800 C   0  0  0  0  0  0  0  0  0  0  0  0
   60.2550   27.8190   45.8210 C   0  0  0  0  0  0  0  0  0  0  0  0
   58.9820   27.3990   46.2560 C   0  0  0  0  0  0  0  0  0  0  0  0
   58.8200   26.1810   47.1300 C   0  0  0  0  0  0  0  0  0  0  0  0
   59.2910   25.0580   46.4620 F   0  0  0  0  0  0  0  0  0  0  0  0
   57.4960   25.9590   47.4640 F   0  0  0  0  0  0  0  0  0  0  0  0
   59.5240   26.3610   48.2970 F   0  0  0  0  0  0  0  0  0  0  0  0
   57.8430   28.0870   45.8050 C   0  0  0  0  0  0  0  0  0  0  0  0
   58.2950   33.4440   44.9890 C   0  0  0  0  0  0  0  0  0  0  0  0
   59.4390   33.9640   45.6000 C   0  0  0  0  0  0  0  0  0  0  0  0
   61.1610   30.9180   49.4920 C   0  0  0  0  0  0  0  0  0  0  0  0
   56.9030   29.8300   51.6590 H   0  0  0  0  0  0  0  0  0  0  0  0
   60.2540   29.4622   52.4424 H   0  0  0  0  0  0  0  0  0  0  0  0
   62.7151   29.6163   52.8115 H   0  0  0  0  0  0  0  0  0  0  0  0
   64.1845   30.6040   51.0592 H   0  0  0  0  0  0  0  0  0  0  0  0
   63.6969   34.8741   47.8844 H   0  0  0  0  0  0  0  0  0  0  0  0
   64.5867   33.7236   46.8240 H   0  0  0  0  0  0  0  0  0  0  0  0
   62.5620   33.0080   45.9190 H   0  0  0  0  0  0  0  0  0  0  0  0
   59.6733   31.7938   48.2357 H   0  0  0  0  0  0  0  0  0  0  0  0
   57.6181   30.8879   47.1587 H   0  0  0  0  0  0  0  0  0  0  0  0
   59.3567   30.4856   43.8891 H   0  0  0  0  0  0  0  0  0  0  0  0
   61.3833   29.2535   44.6561 H   0  0  0  0  0  0  0  0  0  0  0  0
   61.1519   27.2718   46.1469 H   0  0  0  0  0  0  0  0  0  0  0  0
   56.8426   27.7561   46.1208 H   0  0  0  0  0  0  0  0  0  0  0  0
   57.8877   33.9285   44.0894 H   0  0  0  0  0  0  0  0  0  0  0  0
   59.9359   34.8456   45.1688 H   0  0  0  0  0  0  0  0  0  0  0  0
   60.7258   31.2742   48.5466 H   0  0  0  0  0  0  0  0  0  0  0  0
  1  2  1  0
  2  3  2  0
  2  4  2  0
  2  5  1  0
  5  6  2  0
  6  7  1  0
  7  8  2  0
  8  9  1  0
  9 10  1  0
 10 11  1  0
 11 12  2  0
 11 13  1  0
 13 14  1  0
 14 15  1  0
 15 16  2  0
 15 17  1  0
 17 18  2  0
 18 19  1  0
 19 20  2  0
 20 21  1  0
 21 22  1  0
 22 23  2  0
 22 24  2  0
 22 25  1  0
 25 26  2  0
 26 27  1  0
 27 28  2  0
 28 29  1  0
 29 30  1  0
 30 31  1  0
 30 32  1  0
 30 33  1  0
 29 34  2  0
 20 35  1  0
 35 36  2  0
  9 37  2  0
 37  5  1  0
 36 17  1  0
 34 25  1  0
  1 38  1  0
  6 39  1  0
  7 40  1  0
  8 41  1  0
 13 42  1  0
 13 43  1  0
 14 44  1  0
 18 45  1  0
 19 46  1  0
 26 47  1  0
 27 48  1  0
 28 49  1  0
 34 50  1  0
 35 51  1  0
 36 52  1  0
 37 53  1  0
M  CHG  3   1  -1  10  -1  21  -1
M  END
>  <UniqueID>  (93) 
90

>  <SMILES>  (93) 
[NH-]S(=O)(=O)c1cccc([N-]C(=O)CNC(=O)c2ccc([N-]S(=O)(=O)c3cccc(C(F)(F)F)c3)cc2)c1

>  <Energy>  (93) 
65.77673852891085

>  <Genealogy>  (93) 
[NH-]S(=O)(=O)c1cccc([N-]C(=O)CNC(=O)c2ccc([N-]S(=O)(=O)c3cccc(C(F)(F)F)c3)cc2)c1 (protonated)
[NH-]S(=O)(=O)c1cccc([N-]C(=O)CNC(=O)c2ccc([N-]S(=O)(=O)c3cccc(C(F)(F)F)c3)cc2)c1 (3D coordinates assigned)
[NH-]S(=O)(=O)c1cccc([N-]C(=O)CNC(=O)c2ccc([N-]S(=O)(=O)c3cccc(C(F)(F)F)c3)cc2)c1 (optimized conformer: 65.77673852891085 kcal/mol)

>  <smiles>  (93) 
NS(=O)(=O)c1cccc(NC(=O)CNC(=O)c2ccc(NS(=O)(=O)c3cccc(C(F)(F)F)c3)cc2)c1

>  <score_type>  (93) 
oracle

>  <origin>  (93) 
adg

>  <m_score__min__energy>  (93) 
-13.609999999999999

>  <m_primary>  (93) 
energy

$$$$
93:0
     RDKit          3D

 51 53  0  0  0  0  0  0  0  0999 V2000
   61.5400   29.7420   50.1920 C   0  0  0  0  0  0  0  0  0  0  0  0
   60.6310   30.2760   49.1240 C   0  0  0  0  0  0  0  0  0  0  0  0
   61.0660   30.3410   47.7920 C   0  0  0  0  0  0  0  0  0  0  0  0
   60.2340   30.8730   46.8030 C   0  0  0  0  0  0  0  0  0  0  0  0
   58.9580   31.3580   47.1330 C   0  0  0  0  0  0  0  0  0  0  0  0
   58.1050   31.9100   46.1130 N   0  0  0  0  0  0  0  0  0  0  0  0
   57.7430   33.3340   46.1430 C   0  0  0  0  0  0  0  0  0  0  0  0
   58.9230   34.1940   45.8110 C   0  0  0  0  0  0  0  0  0  0  0  0
   59.1610   34.4880   44.6100 O   0  0  0  0  0  0  0  0  0  0  0  0
   59.7380   34.7050   46.8710 N   0  0  0  0  0  0  0  0  0  0  0  0
   60.9960   34.1830   47.3330 C   0  0  0  0  0  0  0  0  0  0  0  0
   62.0280   33.8490   46.4350 C   0  0  0  0  0  0  0  0  0  0  0  0
   63.2230   33.3010   46.9050 C   0  0  0  0  0  0  0  0  0  0  0  0
   63.3980   33.0640   48.2680 C   0  0  0  0  0  0  0  0  0  0  0  0
   62.3730   33.3650   49.1660 C   0  0  0  0  0  0  0  0  0  0  0  0
   61.1650   33.9160   48.7080 C   0  0  0  0  0  0  0  0  0  0  0  0
   60.0580   34.2100   49.6830 C   0  0  0  0  0  0  0  0  0  0  0  0
   57.6520   30.9100   44.7570 S   0  0  0  0  0  0  0  0  0  0  0  0
   56.1840   31.0700   44.4730 O   0  0  0  0  0  0  0  0  0  0  0  0
   58.4330   31.3460   43.5490 O   0  0  0  0  0  0  0  0  0  0  0  0
   57.9570   29.2080   45.1000 C   0  0  0  0  0  0  0  0  0  0  0  0
   59.2210   28.6650   44.8460 C   0  0  0  0  0  0  0  0  0  0  0  0
   59.4610   27.3090   45.0730 C   0  0  0  0  0  0  0  0  0  0  0  0
   58.4420   26.4860   45.5600 C   0  0  0  0  0  0  0  0  0  0  0  0
   57.1700   27.0180   45.8360 C   0  0  0  0  0  0  0  0  0  0  0  0
   56.0880   26.1430   46.3410 C   0  0  0  0  0  0  0  0  0  0  0  0
   56.3480   25.1880   47.1190 O   0  0  0  0  0  0  0  0  0  0  0  0
   54.7690   26.3690   45.9660 O   0  0  0  0  0  0  0  0  0  0  0  0
   56.9390   28.3880   45.6130 C   0  0  0  0  0  0  0  0  0  0  0  0
   58.5330   31.3110   48.4720 C   0  0  0  0  0  0  0  0  0  0  0  0
   59.3670   30.7790   49.4600 C   0  0  0  0  0  0  0  0  0  0  0  0
   61.1257   29.9854   51.1815 H   0  0  0  0  0  0  0  0  0  0  0  0
   61.6254   28.6502   50.0887 H   0  0  0  0  0  0  0  0  0  0  0  0
   62.5352   30.1990   50.0887 H   0  0  0  0  0  0  0  0  0  0  0  0
   62.0669   29.9714   47.5245 H   0  0  0  0  0  0  0  0  0  0  0  0
   60.5807   30.9121   45.7598 H   0  0  0  0  0  0  0  0  0  0  0  0
   56.9454   33.5181   45.4082 H   0  0  0  0  0  0  0  0  0  0  0  0
   57.3986   33.5871   47.1566 H   0  0  0  0  0  0  0  0  0  0  0  0
   61.8918   34.0208   45.3571 H   0  0  0  0  0  0  0  0  0  0  0  0
   64.0290   33.0554   46.1979 H   0  0  0  0  0  0  0  0  0  0  0  0
   64.3441   32.6397   48.6354 H   0  0  0  0  0  0  0  0  0  0  0  0
   62.5121   33.1694   50.2395 H   0  0  0  0  0  0  0  0  0  0  0  0
   60.4379   34.1091   50.7104 H   0  0  0  0  0  0  0  0  0  0  0  0
   59.6938   35.2360   49.5258 H   0  0  0  0  0  0  0  0  0  0  0  0
   59.2327   33.4999   49.5258 H   0  0  0  0  0  0  0  0  0  0  0  0
   60.0281   29.3087   44.4662 H   0  0  0  0  0  0  0  0  0  0  0  0
   60.4557   26.8866   44.8679 H   0  0  0  0  0  0  0  0  0  0  0  0
   58.6360   25.4164   45.7283 H   0  0  0  0  0  0  0  0  0  0  0  0
   55.9536   28.8199   45.8422 H   0  0  0  0  0  0  0  0  0  0  0  0
   57.5387   31.6949   48.7440 H   0  0  0  0  0  0  0  0  0  0  0  0
   59.0292   30.7552   50.5066 H   0  0  0  0  0  0  0  0  0  0  0  0
  1  2  1  0
  2  3  2  0
  3  4  1  0
  4  5  2  0
  5  6  1  0
  6  7  1  0
  7  8  1  0
  8  9  2  0
  8 10  1  0
 10 11  1  0
 11 12  2  0
 12 13  1  0
 13 14  2  0
 14 15  1  0
 15 16  2  0
 16 17  1  0
  6 18  1  0
 18 19  2  0
 18 20  2  0
 18 21  1  0
 21 22  2  0
 22 23  1  0
 23 24  2  0
 24 25  1  0
 25 26  1  0
 26 27  2  0
 26 28  1  0
 25 29  2  0
  5 30  1  0
 30 31  2  0
 31  2  1  0
 16 11  1  0
 29 21  1  0
  1 32  1  0
  1 33  1  0
  1 34  1  0
  3 35  1  0
  4 36  1  0
  7 37  1  0
  7 38  1  0
 12 39  1  0
 13 40  1  0
 14 41  1  0
 15 42  1  0
 17 43  1  0
 17 44  1  0
 17 45  1  0
 22 46  1  0
 23 47  1  0
 24 48  1  0
 29 49  1  0
 30 50  1  0
 31 51  1  0
M  CHG  2  10  -1  28  -1
M  END
>  <UniqueID>  (94) 
91

>  <SMILES>  (94) 
Cc1ccc(N(CC(=O)[N-]c2ccccc2C)S(=O)(=O)c2cccc(C(=O)[O-])c2)cc1

>  <Energy>  (94) 
56.42453738590903

>  <Genealogy>  (94) 
Cc1ccc(N(CC(=O)[N-]c2ccccc2C)S(=O)(=O)c2cccc(C(=O)[O-])c2)cc1 (protonated)
Cc1ccc(N(CC(=O)[N-]c2ccccc2C)S(=O)(=O)c2cccc(C(=O)[O-])c2)cc1 (3D coordinates assigned)
Cc1ccc(N(CC(=O)[N-]c2ccccc2C)S(=O)(=O)c2cccc(C(=O)[O-])c2)cc1 (optimized conformer: 56.42453738590903 kcal/mol)

>  <smiles>  (94) 
Cc1ccc(N(CC(=O)Nc2ccccc2C)S(=O)(=O)c2cccc(C(=O)O)c2)cc1

>  <score_type>  (94) 
oracle

>  <origin>  (94) 
adg

>  <m_score__min__energy>  (94) 
-13.199999999999999

>  <m_primary>  (94) 
energy

$$$$
94:0
     RDKit          3D

 32 33  0  0  0  0  0  0  0  0999 V2000
   61.4950   30.7650   47.1710 N   0  0  0  0  0  0  0  0  0  0  0  0
   60.2480   31.7370   47.8700 S   0  0  0  0  0  0  0  0  0  0  0  0
   60.8690   32.8520   48.6640 O   0  0  0  0  0  0  0  0  0  0  0  0
   59.4090   30.8980   48.7920 O   0  0  0  0  0  0  0  0  0  0  0  0
   59.2390   32.4040   46.5900 C   0  0  0  0  0  0  0  0  0  0  0  0
   59.5120   33.6750   46.0650 C   0  0  0  0  0  0  0  0  0  0  0  0
   58.7260   34.1890   45.0300 C   0  0  0  0  0  0  0  0  0  0  0  0
   57.6620   33.4410   44.5210 C   0  0  0  0  0  0  0  0  0  0  0  0
   57.3650   32.1790   45.0590 C   0  0  0  0  0  0  0  0  0  0  0  0
   56.2950   31.3860   44.5320 N   0  0  0  0  0  0  0  0  0  0  0  0
   56.2670   29.9540   44.4850 C   0  0  0  0  0  0  0  0  0  0  0  0
   55.2350   29.3560   44.8910 O   0  0  0  0  0  0  0  0  0  0  0  0
   57.3780   29.1570   43.8510 C   0  0  0  0  0  0  0  0  0  0  0  0
   58.4160   28.7250   44.8570 C   0  0  0  0  0  0  0  0  0  0  0  0
   59.7740   28.6750   44.5040 C   0  0  0  0  0  0  0  0  0  0  0  0
   60.7170   28.2580   45.4460 C   0  0  0  0  0  0  0  0  0  0  0  0
   60.3200   27.8880   46.6930 N   0  0  0  0  0  0  0  0  0  0  0  0
   59.0110   27.9090   47.0580 C   0  0  0  0  0  0  0  0  0  0  0  0
   58.0360   28.3220   46.1470 C   0  0  0  0  0  0  0  0  0  0  0  0
   58.1750   31.6530   46.0710 C   0  0  0  0  0  0  0  0  0  0  0  0
   61.1900   29.7690   47.2580 H   0  0  0  0  0  0  0  0  0  0  0  0
   62.3420   30.8750   47.7730 H   0  0  0  0  0  0  0  0  0  0  0  0
   60.3459   34.2684   46.4682 H   0  0  0  0  0  0  0  0  0  0  0  0
   58.9457   35.1840   44.6157 H   0  0  0  0  0  0  0  0  0  0  0  0
   57.0549   33.8421   43.6960 H   0  0  0  0  0  0  0  0  0  0  0  0
   56.9470   28.2613   43.3799 H   0  0  0  0  0  0  0  0  0  0  0  0
   57.8741   29.8003   43.1094 H   0  0  0  0  0  0  0  0  0  0  0  0
   60.0933   28.9626   43.4914 H   0  0  0  0  0  0  0  0  0  0  0  0
   61.7836   28.2288   45.1786 H   0  0  0  0  0  0  0  0  0  0  0  0
   58.7189   27.6002   48.0726 H   0  0  0  0  0  0  0  0  0  0  0  0
   56.9755   28.3314   46.4390 H   0  0  0  0  0  0  0  0  0  0  0  0
   57.9759   30.6442   46.4618 H   0  0  0  0  0  0  0  0  0  0  0  0
  1  2  1  0
  2  3  2  0
  2  4  2  0
  2  5  1  0
  5  6  2  0
  6  7  1  0
  7  8  2  0
  8  9  1  0
  9 10  1  0
 10 11  1  0
 11 12  2  0
 11 13  1  0
 13 14  1  0
 14 15  2  0
 15 16  1  0
 16 17  2  0
 17 18  1  0
 18 19  2  0
  9 20  2  0
 20  5  1  0
 19 14  1  0
  1 21  1  0
  1 22  1  0
  6 23  1  0
  7 24  1  0
  8 25  1  0
 13 26  1  0
 13 27  1  0
 15 28  1  0
 16 29  1  0
 18 30  1  0
 19 31  1  0
 20 32  1  0
M  CHG  1  10  -1
M  END
>  <UniqueID>  (95) 
92

>  <SMILES>  (95) 
NS(=O)(=O)c1cccc([N-]C(=O)Cc2ccncc2)c1

>  <Energy>  (95) 
36.628802677708435

>  <Genealogy>  (95) 
NS(=O)(=O)c1cccc([N-]C(=O)Cc2ccncc2)c1 (protonated)
NS(=O)(=O)c1cccc([N-]C(=O)Cc2ccncc2)c1 (3D coordinates assigned)
NS(=O)(=O)c1cccc([N-]C(=O)Cc2ccncc2)c1 (optimized conformer: 36.628802677708435 kcal/mol)

>  <smiles>  (95) 
NS(=O)(=O)c1cccc(NC(=O)Cc2ccncc2)c1

>  <score_type>  (95) 
oracle

>  <origin>  (95) 
adg

>  <m_score__min__energy>  (95) 
-9.8100000000000005

>  <m_primary>  (95) 
energy

$$$$
95:0
     RDKit          3D

 35 36  0  0  0  0  0  0  0  0999 V2000
   62.5570   31.2170   49.9080 C   0  0  0  0  0  0  0  0  0  0  0  0
   61.6590   31.0180   48.8200 O   0  0  0  0  0  0  0  0  0  0  0  0
   61.1710   32.0320   47.9820 C   0  0  0  0  0  0  0  0  0  0  0  0
   62.0560   32.9040   47.3170 C   0  0  0  0  0  0  0  0  0  0  0  0
   61.5710   33.9090   46.4820 C   0  0  0  0  0  0  0  0  0  0  0  0
   60.2010   34.0670   46.2990 C   0  0  0  0  0  0  0  0  0  0  0  0
   59.2940   33.2230   46.9570 C   0  0  0  0  0  0  0  0  0  0  0  0
   57.8110   33.4000   46.7170 C   0  0  0  0  0  0  0  0  0  0  0  0
   57.4630   33.3410   45.2480 C   0  0  0  0  0  0  0  0  0  0  0  0
   57.0190   34.3710   44.6740 O   0  0  0  0  0  0  0  0  0  0  0  0
   57.6130   32.1410   44.4700 N   0  0  0  0  0  0  0  0  0  0  0  0
   57.1400   30.9580   44.7310 C   0  0  0  0  0  0  0  0  0  0  0  0
   55.8470   30.5940   44.5750 N   0  0  0  0  0  0  0  0  0  0  0  0
   55.6260   29.3190   44.8870 N   0  0  0  0  0  0  0  0  0  0  0  0
   56.7410   28.6680   45.2820 C   0  0  0  0  0  0  0  0  0  0  0  0
   56.7630   26.9860   45.7660 S   0  0  0  0  0  0  0  0  0  0  0  0
   55.1410   26.4380   46.0070 N   0  0  0  0  0  0  0  0  0  0  0  0
   57.5410   26.8380   47.0440 O   0  0  0  0  0  0  0  0  0  0  0  0
   57.4050   26.1610   44.6850 O   0  0  0  0  0  0  0  0  0  0  0  0
   58.0900   29.6770   45.2650 S   0  0  0  0  0  0  0  0  0  0  0  0
   59.7700   32.1890   47.7950 C   0  0  0  0  0  0  0  0  0  0  0  0
   58.8070   31.3560   48.4020 O   0  0  0  0  0  0  0  0  0  0  0  0
   58.8820   29.9440   48.5610 C   0  0  0  0  0  0  0  0  0  0  0  0
   62.0149   31.0969   50.8576 H   0  0  0  0  0  0  0  0  0  0  0  0
   63.3691   30.4770   49.8532 H   0  0  0  0  0  0  0  0  0  0  0  0
   62.9804   32.2308   49.8532 H   0  0  0  0  0  0  0  0  0  0  0  0
   63.1409   32.7903   47.4584 H   0  0  0  0  0  0  0  0  0  0  0  0
   62.2739   34.5795   45.9659 H   0  0  0  0  0  0  0  0  0  0  0  0
   59.8264   34.8590   45.6339 H   0  0  0  0  0  0  0  0  0  0  0  0
   57.2685   32.6003   47.2426 H   0  0  0  0  0  0  0  0  0  0  0  0
   57.5224   34.3921   47.0943 H   0  0  0  0  0  0  0  0  0  0  0  0
   54.6980   27.0880   46.6940 H   0  0  0  0  0  0  0  0  0  0  0  0
   58.8952   29.6959   49.6326 H   0  0  0  0  0  0  0  0  0  0  0  0
   58.0075   29.4746   48.0867 H   0  0  0  0  0  0  0  0  0  0  0  0
   59.8013   29.5699   48.0867 H   0  0  0  0  0  0  0  0  0  0  0  0
  1  2  1  0
  2  3  1  0
  3  4  2  0
  4  5  1  0
  5  6  2  0
  6  7  1  0
  7  8  1  0
  8  9  1  0
  9 10  2  0
  9 11  1  0
 11 12  2  3
 12 13  1  0
 13 14  1  0
 14 15  2  0
 15 16  1  0
 16 17  1  0
 16 18  2  0
 16 19  2  0
 15 20  1  0
  7 21  2  0
 21 22  1  0
 22 23  1  0
 21  3  1  0
 20 12  1  0
  1 24  1  0
  1 25  1  0
  1 26  1  0
  4 27  1  0
  5 28  1  0
  6 29  1  0
  8 30  1  0
  8 31  1  0
 17 32  1  0
 23 33  1  0
 23 34  1  0
 23 35  1  0
M  CHG  2  13  -1  17  -1
M  END
>  <UniqueID>  (96) 
93

>  <SMILES>  (96) 
COc1cccc(CC(=O)N=c2[n-]nc(S([NH-])(=O)=O)s2)c1OC

>  <Energy>  (96) 
75.4740490601184

>  <Genealogy>  (96) 
COc1cccc(CC(=O)N=c2[n-]nc(S([NH-])(=O)=O)s2)c1OC (protonated)
COc1cccc(CC(=O)N=c2[n-]nc(S([NH-])(=O)=O)s2)c1OC (3D coordinates assigned)
COc1cccc(CC(=O)N=c2[n-]nc(S([NH-])(=O)=O)s2)c1OC (optimized conformer: 75.4740490601184 kcal/mol)

>  <smiles>  (96) 
COc1cccc(CC(=O)N=c2[nH]nc(S(N)(=O)=O)s2)c1OC

>  <score_type>  (96) 
oracle

>  <origin>  (96) 
adg

>  <m_score__min__energy>  (96) 
-11.640000000000001

>  <m_primary>  (96) 
energy

$$$$
96:0
     RDKit          3D

 24 25  0  0  0  0  0  0  0  0999 V2000
   55.5410   30.0620   43.6450 C   0  0  0  0  0  0  0  0  0  0  0  0
   56.2560   30.0790   44.8760 O   0  0  0  0  0  0  0  0  0  0  0  0
   57.3950   29.3040   45.1460 C   0  0  0  0  0  0  0  0  0  0  0  0
   58.6980   29.8280   45.0340 C   0  0  0  0  0  0  0  0  0  0  0  0
   59.8070   29.0290   45.3220 C   0  0  0  0  0  0  0  0  0  0  0  0
   59.6290   27.7090   45.7350 C   0  0  0  0  0  0  0  0  0  0  0  0
   58.3430   27.1780   45.8510 C   0  0  0  0  0  0  0  0  0  0  0  0
   57.2190   27.9640   45.5340 C   0  0  0  0  0  0  0  0  0  0  0  0
   55.8800   27.4550   45.6790 N   0  0  0  0  0  0  0  0  0  0  0  0
   55.5370   26.2420   46.0020 C   0  0  0  0  0  0  0  0  0  0  0  0
   54.3470   25.7130   45.6080 N   0  0  0  0  0  0  0  0  0  0  0  0
   54.0010   24.4550   45.9790 C   0  0  0  0  0  0  0  0  0  0  0  0
   52.9020   23.9700   45.6050 O   0  0  0  0  0  0  0  0  0  0  0  0
   54.8390   23.7210   46.7520 N   0  0  0  0  0  0  0  0  0  0  0  0
   56.0220   24.2470   47.1560 C   0  0  0  0  0  0  0  0  0  0  0  0
   56.7990   23.5690   47.8760 O   0  0  0  0  0  0  0  0  0  0  0  0
   56.3670   25.5060   46.7840 N   0  0  0  0  0  0  0  0  0  0  0  0
   54.4604   30.0363   43.8490 H   0  0  0  0  0  0  0  0  0  0  0  0
   55.7837   30.9662   43.0675 H   0  0  0  0  0  0  0  0  0  0  0  0
   55.8264   29.1704   43.0675 H   0  0  0  0  0  0  0  0  0  0  0  0
   58.8428   30.8717   44.7181 H   0  0  0  0  0  0  0  0  0  0  0  0
   60.8219   29.4415   45.2229 H   0  0  0  0  0  0  0  0  0  0  0  0
   60.5037   27.0848   45.9699 H   0  0  0  0  0  0  0  0  0  0  0  0
   58.2075   26.1409   46.1916 H   0  0  0  0  0  0  0  0  0  0  0  0
  1  2  1  0
  2  3  1  0
  3  4  2  0
  4  5  1  0
  5  6  2  0
  6  7  1  0
  7  8  2  0
  8  9  1  0
  9 10  2  3
 10 11  1  0
 11 12  1  0
 12 13  2  0
 12 14  1  0
 14 15  1  0
 15 16  2  0
 15 17  1  0
  8  3  1  0
 17 10  1  0
  1 18  1  0
  1 19  1  0
  1 20  1  0
  4 21  1  0
  5 22  1  0
  6 23  1  0
  7 24  1  0
M  CHG  3  11  -1  14  -1  17  -1
M  END
>  <UniqueID>  (97) 
94

>  <SMILES>  (97) 
COc1ccccc1N=c1[n-]c(=O)[n-]c(=O)[n-]1

>  <Energy>  (97) 
31.807107797734673

>  <Genealogy>  (97) 
COc1ccccc1N=c1[n-]c(=O)[n-]c(=O)[n-]1 (protonated)
COc1ccccc1N=c1[n-]c(=O)[n-]c(=O)[n-]1 (3D coordinates assigned)
COc1ccccc1N=c1[n-]c(=O)[n-]c(=O)[n-]1 (optimized conformer: 31.807107797734673 kcal/mol)

>  <smiles>  (97) 
COc1ccccc1N=c1[nH]c(=O)[nH]c(=O)[nH]1

>  <score_type>  (97) 
oracle

>  <origin>  (97) 
adg

>  <m_score__min__energy>  (97) 
-11.82

>  <m_primary>  (97) 
energy

$$$$
