0:0
     RDKit          3D

 32 34  0  0  1  0  0  0  0  0999 V2000
   59.6140   35.2590   46.5890 C   0  0  0  0  0  0  0  0  0  0  0  0
   58.8380   34.1680   45.9260 C   0  0  0  0  0  0  0  0  0  0  0  0
   57.9580   34.2130   44.8830 C   0  0  0  0  0  0  0  0  0  0  0  0
   57.4060   33.0500   44.4870 C   0  0  0  0  0  0  0  0  0  0  0  0
   57.7370   31.9210   45.1190 C   0  0  0  0  0  0  0  0  0  0  0  0
   57.3300   30.5280   44.9390 C   0  0  0  0  0  0  0  0  0  0  0  0
   58.0970   29.4270   44.6150 C   0  0  0  0  0  0  0  0  0  0  0  0
   57.2990   28.3210   44.5490 C   0  0  0  0  0  0  0  0  0  0  0  0
   57.5930   26.9390   44.2650 C   0  0  0  0  0  0  0  0  0  0  0  0
   58.1060   26.6570   43.1540 O   0  0  0  0  0  0  0  0  0  0  0  0
   57.3420   25.8560   45.1570 N   0  0  0  0  0  0  0  0  0  0  0  0
   57.2360   24.6430   44.6820 C   0  0  0  0  0  0  0  0  0  0  0  0
   57.6620   23.5810   45.4700 C   0  0  0  0  0  0  0  0  0  0  0  0
   57.5680   22.2850   45.0130 C   0  0  0  0  0  0  0  0  0  0  0  0
   57.0360   22.0910   43.7470 C   0  0  0  0  0  0  0  0  0  0  0  0
   56.6160   23.1490   42.9710 C   0  0  0  0  0  0  0  0  0  0  0  0
   56.7260   24.3990   43.4600 N   0  0  0  0  0  0  0  0  0  0  0  0
   56.0440   28.7560   44.8310 N   0  0  0  0  0  0  0  0  0  0  0  0
   56.0660   30.0580   45.0600 N   0  0  0  0  0  0  0  0  0  0  0  0
   58.9040   32.4270   46.3790 S   0  0  0  0  0  0  0  0  0  0  0  0
   59.5377   35.1517   47.6811 H   0  0  0  0  0  0  0  0  0  0  0  0
   60.6697   35.1937   46.2870 H   0  0  0  0  0  0  0  0  0  0  0  0
   59.2059   36.2349   46.2870 H   0  0  0  0  0  0  0  0  0  0  0  0
   57.7095   35.1621   44.3855 H   0  0  0  0  0  0  0  0  0  0  0  0
   56.6902   33.0303   43.6520 H   0  0  0  0  0  0  0  0  0  0  0  0
   59.1825   29.4388   44.4375 H   0  0  0  0  0  0  0  0  0  0  0  0
   58.0786   23.7771   46.4690 H   0  0  0  0  0  0  0  0  0  0  0  0
   57.9020   21.4366   45.6284 H   0  0  0  0  0  0  0  0  0  0  0  0
   56.9473   21.0678   43.3530 H   0  0  0  0  0  0  0  0  0  0  0  0
   56.1977   22.9756   41.9685 H   0  0  0  0  0  0  0  0  0  0  0  0
   56.4070   25.2090   42.8570 H   0  0  0  0  0  0  0  0  0  0  0  0
   55.1560   28.1940   44.8730 H   0  0  0  0  0  0  0  0  0  0  0  0
  1  2  1  0
  2  3  2  0
  3  4  1  0
  4  5  2  0
  5  6  1  0
  6  7  1  0
  7  8  2  0
  8  9  1  0
  9 10  2  0
  9 11  1  0
 11 12  2  0
 12 13  1  0
 13 14  2  0
 14 15  1  0
 15 16  2  0
 16 17  1  0
  8 18  1  0
 18 19  1  0
  5 20  1  0
 20  2  1  0
 19  6  2  0
 17 12  1  0
  1 21  1  0
  1 22  1  0
  1 23  1  0
  3 24  1  0
  4 25  1  0
  7 26  1  0
 13 27  1  0
 14 28  1  0
 15 29  1  0
 16 30  1  0
 17 31  1  0
 18 32  1  0
M  END
>  <smiles>  (1) 
Cc1ccc(-c2cc(C(=O)N=c3cccc[nH]3)[nH]n2)s1

>  <score_type>  (1) 
oracle

>  <origin>  (1) 
adg

>  <m_score__min__energy>  (1) 
-8.1899999999999995

>  <m_primary>  (1) 
energy

$$$$
1:0
     RDKit          3D

 59 64  0  0  0  0  0  0  0  0999 V2000
   57.9374   25.2354   44.0814 H   0  0  0  0  0  0  0  0  0  0  0  0
   57.4000   25.4000   45.0270 C   0  0  0  0  0  0  0  0  0  0  0  0
   56.0690   24.7870   45.1830 C   0  0  0  0  0  0  0  0  0  0  0  0
   55.8370   23.4750   45.0070 N   0  0  0  0  0  0  0  0  0  0  0  0
   54.5310   23.3410   45.3220 C   0  0  0  0  0  0  0  0  0  0  0  0
   53.9290   22.2370   45.2660 O   0  0  0  0  0  0  0  0  0  0  0  0
   53.9220   24.4810   45.7120 N   0  0  0  0  0  0  0  0  0  0  0  0
   54.9110   25.3860   45.6300 C   0  0  0  0  0  0  0  0  0  0  0  0
   54.7670   26.7150   46.0070 O   0  0  0  0  0  0  0  0  0  0  0  0
   57.9950   26.1460   45.9680 C   0  0  0  0  0  0  0  0  0  0  0  0
   58.7270   25.7420   47.0850 C   0  0  0  0  0  0  0  0  0  0  0  0
   58.9554   24.6990   47.3494 H   0  0  0  0  0  0  0  0  0  0  0  0
   59.1140   26.8300   47.7950 N   0  0  0  0  0  0  0  0  0  0  0  0
   58.6470   27.8970   47.1650 N   0  0  0  0  0  0  0  0  0  0  0  0
   58.7720   29.2160   47.4920 C   0  0  0  0  0  0  0  0  0  0  0  0
   59.4190   29.6420   48.5410 N   0  0  0  0  0  0  0  0  0  0  0  0
   60.7640   29.2820   48.9910 C   0  0  1  0  0  0  0  0  0  0  0  0
   61.1375   28.5207   48.2904 H   0  0  0  0  0  0  0  0  0  0  0  0
   61.5970   30.5060   49.0590 C   0  0  0  0  0  0  0  0  0  0  0  0
   61.9880   31.3110   47.9860 C   0  0  0  0  0  0  0  0  0  0  0  0
   61.6857   31.0583   46.9590 H   0  0  0  0  0  0  0  0  0  0  0  0
   62.7730   32.4480   48.2390 C   0  0  0  0  0  0  0  0  0  0  0  0
   63.3140   33.5600   46.7790 Br  0  0  0  0  0  0  0  0  0  0  0  0
   63.1520   32.7610   49.5610 C   0  0  0  0  0  0  0  0  0  0  0  0
   63.9260   33.8860   49.8210 O   0  0  0  0  0  0  0  0  0  0  0  0
   62.7470   31.9380   50.6230 C   0  0  0  0  0  0  0  0  0  0  0  0
   63.0366   32.1755   51.6573 H   0  0  0  0  0  0  0  0  0  0  0  0
   61.9690   30.8110   50.3430 C   0  0  0  0  0  0  0  0  0  0  0  0
   61.4430   29.8370   51.3240 C   0  0  0  0  0  0  0  0  0  0  0  0
   60.7204   30.3151   52.0017 H   0  0  0  0  0  0  0  0  0  0  0  0
   62.2292   29.4162   51.9681 H   0  0  0  0  0  0  0  0  0  0  0  0
   60.7540   28.7700   50.4520 C   0  0  0  0  0  0  0  0  0  0  0  0
   59.7179   28.6210   50.7902 H   0  0  0  0  0  0  0  0  0  0  0  0
   61.2828   27.8084   50.5281 H   0  0  0  0  0  0  0  0  0  0  0  0
   58.1870   30.1280   46.6700 N   0  0  0  0  0  0  0  0  0  0  0  0
   57.4980   29.7410   45.5530 C   0  0  0  0  0  0  0  0  0  0  0  0
   56.9550   30.6170   44.7580 N   0  0  0  0  0  0  0  0  0  0  0  0
   57.5800   31.8220   44.1920 C   0  0  1  0  0  0  0  0  0  0  0  0
   58.6583   31.7507   44.3975 H   0  0  0  0  0  0  0  0  0  0  0  0
   57.3950   31.8800   42.6710 C   0  0  0  0  0  0  0  0  0  0  0  0
   56.3691   32.2016   42.4384 H   0  0  0  0  0  0  0  0  0  0  0  0
   58.1103   32.5970   42.2417 H   0  0  0  0  0  0  0  0  0  0  0  0
   57.5729   30.8830   42.2417 H   0  0  0  0  0  0  0  0  0  0  0  0
   57.0900   33.1160   44.8750 C   0  0  0  0  0  0  0  0  0  0  0  0
   56.9256   33.8850   44.1059 H   0  0  0  0  0  0  0  0  0  0  0  0
   56.1564   32.8892   45.4107 H   0  0  0  0  0  0  0  0  0  0  0  0
   58.0940   33.6320   45.8760 C   0  0  0  0  0  0  0  0  0  0  0  0
   58.1140   33.1290   47.1880 C   0  0  0  0  0  0  0  0  0  0  0  0
   57.3777   32.3720   47.4960 H   0  0  0  0  0  0  0  0  0  0  0  0
   59.0660   33.5870   48.1030 C   0  0  0  0  0  0  0  0  0  0  0  0
   59.0764   33.1916   49.1294 H   0  0  0  0  0  0  0  0  0  0  0  0
   60.0050   34.5470   47.7150 C   0  0  0  0  0  0  0  0  0  0  0  0
   60.7523   34.9082   48.4369 H   0  0  0  0  0  0  0  0  0  0  0  0
   59.9950   35.0480   46.4110 C   0  0  0  0  0  0  0  0  0  0  0  0
   60.7351   35.8027   46.1067 H   0  0  0  0  0  0  0  0  0  0  0  0
   59.0450   34.5910   45.4920 C   0  0  0  0  0  0  0  0  0  0  0  0
   59.0428   34.9842   44.4647 H   0  0  0  0  0  0  0  0  0  0  0  0
   57.3870   28.4170   45.2510 N   0  0  0  0  0  0  0  0  0  0  0  0
   57.9710   27.5180   46.0770 C   0  0  0  0  0  0  0  0  0  0  0  0
  1  2  1  0
  2  3  1  0
  3  4  1  0
  4  5  1  0
  5  6  2  0
  5  7  1  0
  7  8  1  0
  8  9  1  0
  2 10  2  3
 10 11  1  0
 11 12  1  0
 11 13  2  0
 13 14  1  0
 14 15  1  0
 15 16  2  3
 16 17  1  0
 17 18  1  6
 17 19  1  0
 19 20  2  0
 20 21  1  0
 20 22  1  0
 22 23  1  0
 22 24  2  0
 24 25  1  0
 24 26  1  0
 26 27  1  0
 26 28  2  0
 28 29  1  0
 29 30  1  0
 29 31  1  0
 29 32  1  0
 32 33  1  0
 32 34  1  0
 15 35  1  0
 35 36  1  0
 36 37  2  0
 37 38  1  0
 38 39  1  6
 38 40  1  0
 40 41  1  0
 40 42  1  0
 40 43  1  0
 38 44  1  0
 44 45  1  0
 44 46  1  0
 44 47  1  0
 47 48  2  0
 48 49  1  0
 48 50  1  0
 50 51  1  0
 50 52  2  0
 52 53  1  0
 52 54  1  0
 54 55  1  0
 54 56  2  0
 56 57  1  0
 36 58  1  0
 58 59  2  0
  8  3  2  0
 59 10  1  0
 59 14  1  0
 32 17  1  0
 56 47  1  0
 28 19  1  0
M  CHG  5   4  -1   7  -1   9  -1  25  -1  35  -1
M  END
>  <UniqueID>  (2) 
1

>  <SMILES>  (2) 
C[C@@H](Cc1ccccc1)/N=c1/nc2c(=Cc3[n-]c(=O)[n-]c3[O-])cnn2c(=N[C@@H]2CCc3cc([O-])c(Br)cc32)[n-]1

>  <Energy>  (2) 
148.92466245349033

>  <Genealogy>  (2) 
CC(Cc1ccccc1)N=c1nc2c(=Cc3[n-]c(=O)[n-]c3[O-])cnn2c(=NC2CCc3cc([O-])c(Br)cc32)[n-]1 (protonated)
C[C@@H](Cc1ccccc1)N=c1nc2c(=Cc3[n-]c(=O)[n-]c3[O-])cnn2c(=N[C@@H]2CCc3cc([O-])c(Br)cc32)[n-]1 (chirality)
C[C@@H](Cc1ccccc1)/N=c1/nc2c(=Cc3[n-]c(=O)[n-]c3[O-])cnn2c(=N[C@@H]2CCc3cc([O-])c(Br)cc32)[n-]1 (cis-trans isomerization)
C[C@@H](Cc1ccccc1)/N=c1/nc2c(=Cc3[n-]c(=O)[n-]c3[O-])cnn2c(=N[C@@H]2CCc3cc([O-])c(Br)cc32)[n-]1 (3D coordinates assigned)
C[C@@H](Cc1ccccc1)/N=c1/nc2c(=Cc3[n-]c(=O)[n-]c3[O-])cnn2c(=N[C@@H]2CCc3cc([O-])c(Br)cc32)[n-]1 (nonaromatic ring conformer: 148.92466245349033 kcal/mol)

>  <smiles>  (2) 
CC(Cc1ccccc1)N=c1nc2c(=Cc3[nH]c(=O)[nH]c3O)cnn2c(=NC2CCc3cc(O)c(Br)cc32)[nH]1

>  <score_type>  (2) 
oracle

>  <origin>  (2) 
adg

>  <m_score__min__energy>  (2) 
-20.84

>  <m_primary>  (2) 
energy

$$$$
2:0
     RDKit          3D

 36 37  0  0  0  0  0  0  0  0999 V2000
   63.2150   33.3980   46.7510 C   0  0  0  0  0  0  0  0  0  0  0  0
   62.0460   34.2010   46.6150 O   0  0  0  0  0  0  0  0  0  0  0  0
   60.7340   33.7570   46.8390 C   0  0  0  0  0  0  0  0  0  0  0  0
   59.7860   33.7510   45.7950 C   0  0  0  0  0  0  0  0  0  0  0  0
   58.4740   33.3180   46.0160 C   0  0  0  0  0  0  0  0  0  0  0  0
   57.4450   33.4390   44.9240 C   0  0  0  0  0  0  0  0  0  0  0  0
   56.6150   32.2390   44.8660 N   0  0  0  0  0  0  0  0  0  0  0  0
   56.9450   31.1270   44.0290 C   0  0  0  0  0  0  0  0  0  0  0  0
   56.8210   31.2420   42.7810 O   0  0  0  0  0  0  0  0  0  0  0  0
   57.4110   29.8590   44.6320 C   0  0  0  0  0  0  0  0  0  0  0  0
   58.7510   29.6630   44.7850 N   0  0  0  0  0  0  0  0  0  0  0  0
   59.2640   28.5090   45.2860 C   0  0  0  0  0  0  0  0  0  0  0  0
   58.4110   27.4730   45.6670 C   0  0  0  0  0  0  0  0  0  0  0  0
   59.1240   25.8400   46.3520 Br  0  0  0  0  0  0  0  0  0  0  0  0
   57.0320   27.6440   45.5340 C   0  0  0  0  0  0  0  0  0  0  0  0
   56.5210   28.8360   45.0150 C   0  0  0  0  0  0  0  0  0  0  0  0
   55.1440   28.9810   44.8710 O   0  0  0  0  0  0  0  0  0  0  0  0
   58.1010   32.8780   47.2890 C   0  0  0  0  0  0  0  0  0  0  0  0
   59.0220   32.8730   48.3370 C   0  0  0  0  0  0  0  0  0  0  0  0
   58.5980   32.4330   49.5920 O   0  0  0  0  0  0  0  0  0  0  0  0
   60.3440   33.3140   48.1310 C   0  0  0  0  0  0  0  0  0  0  0  0
   61.2100   33.2960   49.2420 O   0  0  0  0  0  0  0  0  0  0  0  0
   62.0100   32.2030   49.6770 C   0  0  0  0  0  0  0  0  0  0  0  0
   63.4342   33.2474   47.8184 H   0  0  0  0  0  0  0  0  0  0  0  0
   63.0481   32.4230   46.2698 H   0  0  0  0  0  0  0  0  0  0  0  0
   64.0652   33.9036   46.2698 H   0  0  0  0  0  0  0  0  0  0  0  0
   60.0824   34.0918   44.7920 H   0  0  0  0  0  0  0  0  0  0  0  0
   56.8058   34.3115   45.1244 H   0  0  0  0  0  0  0  0  0  0  0  0
   57.9621   33.5599   43.9607 H   0  0  0  0  0  0  0  0  0  0  0  0
   60.3526   28.3915   45.3913 H   0  0  0  0  0  0  0  0  0  0  0  0
   56.3468   26.8391   45.8383 H   0  0  0  0  0  0  0  0  0  0  0  0
   57.0718   32.5325   47.4663 H   0  0  0  0  0  0  0  0  0  0  0  0
   59.2130   32.4070   50.3960 H   0  0  0  0  0  0  0  0  0  0  0  0
   62.0289   32.1772   50.7765 H   0  0  0  0  0  0  0  0  0  0  0  0
   61.5851   31.2629   49.2954 H   0  0  0  0  0  0  0  0  0  0  0  0
   63.0346   32.3238   49.2954 H   0  0  0  0  0  0  0  0  0  0  0  0
  1  2  1  0
  2  3  1  0
  3  4  2  0
  4  5  1  0
  5  6  1  0
  6  7  1  0
  7  8  1  0
  8  9  2  0
  8 10  1  0
 10 11  2  0
 11 12  1  0
 12 13  2  0
 13 14  1  0
 13 15  1  0
 15 16  2  0
 16 17  1  0
  5 18  2  0
 18 19  1  0
 19 20  1  0
 19 21  2  0
 21 22  1  0
 22 23  1  0
 21  3  1  0
 16 10  1  0
  1 24  1  0
  1 25  1  0
  1 26  1  0
  4 27  1  0
  6 28  1  0
  6 29  1  0
 12 30  1  0
 15 31  1  0
 18 32  1  0
 20 33  1  0
 23 34  1  0
 23 35  1  0
 23 36  1  0
M  CHG  2   7  -1  17  -1
M  END
>  <UniqueID>  (3) 
2

>  <SMILES>  (3) 
COc1cc(C[N-]C(=O)c2ncc(Br)cc2[O-])cc(O)c1OC

>  <Energy>  (3) 
44.1112214279217

>  <Genealogy>  (3) 
COc1cc(C[N-]C(=O)c2ncc(Br)cc2[O-])cc(O)c1OC (protonated)
COc1cc(C[N-]C(=O)c2ncc(Br)cc2[O-])cc(O)c1OC (3D coordinates assigned)
COc1cc(C[N-]C(=O)c2ncc(Br)cc2[O-])cc(O)c1OC (optimized conformer: 44.1112214279217 kcal/mol)

>  <smiles>  (3) 
COc1cc(CNC(=O)c2ncc(Br)cc2O)cc(O)c1OC

>  <score_type>  (3) 
oracle

>  <origin>  (3) 
adg

>  <m_score__min__energy>  (3) 
-11.789999999999999

>  <m_primary>  (3) 
energy

$$$$
3:0
     RDKit          3D

 42 44  0  0  0  0  0  0  0  0999 V2000
   55.3160   29.3910   44.8980 O   0  0  0  0  0  0  0  0  0  0  0  0
   56.3390   29.9580   44.4310 C   0  0  0  0  0  0  0  0  0  0  0  0
   57.3960   29.1270   43.7550 C   0  0  0  0  0  0  0  0  0  0  0  0
   58.3650   28.5520   44.7420 C   0  0  0  0  0  0  0  0  0  0  0  0
   59.7200   28.8520   44.8150 C   0  0  0  0  0  0  0  0  0  0  0  0
   60.3920   28.1320   45.8100 C   0  0  0  0  0  0  0  0  0  0  0  0
   59.5750   27.2550   46.5110 C   0  0  0  0  0  0  0  0  0  0  0  0
   58.0160   27.3750   45.8920 S   0  0  0  0  0  0  0  0  0  0  0  0
   56.4300   31.3870   44.4950 N   0  0  0  0  0  0  0  0  0  0  0  0
   57.4100   32.1070   45.2510 C   0  0  0  0  0  0  0  0  0  0  0  0
   58.1290   31.4800   46.2770 C   0  0  0  0  0  0  0  0  0  0  0  0
   59.0930   32.1890   46.9970 C   0  0  0  0  0  0  0  0  0  0  0  0
   59.3540   33.5370   46.6980 C   0  0  0  0  0  0  0  0  0  0  0  0
   60.4230   34.3050   47.4550 C   0  0  0  0  0  0  0  0  0  0  0  0
   61.4630   33.4540   48.0940 N   0  0  0  0  0  0  0  0  0  0  0  0
   62.2470   34.1820   49.1210 C   0  0  0  0  0  0  0  0  0  0  0  0
   63.5620   33.4440   49.4230 C   0  0  0  0  0  0  0  0  0  0  0  0
   64.4210   33.3170   48.2950 O   0  0  0  0  0  0  0  0  0  0  0  0
   63.7380   33.3410   47.0490 C   0  0  0  0  0  0  0  0  0  0  0  0
   62.3250   32.7350   47.1180 C   0  0  0  0  0  0  0  0  0  0  0  0
   58.5720   34.1810   45.7230 C   0  0  0  0  0  0  0  0  0  0  0  0
   57.6060   33.4690   45.0060 C   0  0  0  0  0  0  0  0  0  0  0  0
   56.9089   28.3033   43.2126 H   0  0  0  0  0  0  0  0  0  0  0  0
   57.9544   29.7775   43.0658 H   0  0  0  0  0  0  0  0  0  0  0  0
   60.2147   29.5817   44.1572 H   0  0  0  0  0  0  0  0  0  0  0  0
   61.4659   28.2499   46.0169 H   0  0  0  0  0  0  0  0  0  0  0  0
   59.8932   26.5946   47.3311 H   0  0  0  0  0  0  0  0  0  0  0  0
   57.9333   30.4244   46.5166 H   0  0  0  0  0  0  0  0  0  0  0  0
   59.6511   31.6895   47.8026 H   0  0  0  0  0  0  0  0  0  0  0  0
   60.9223   34.9843   46.7485 H   0  0  0  0  0  0  0  0  0  0  0  0
   59.9080   34.8329   48.2712 H   0  0  0  0  0  0  0  0  0  0  0  0
   60.9300   32.7130   48.6100 H   0  0  0  0  0  0  0  0  0  0  0  0
   62.4763   35.1924   48.7516 H   0  0  0  0  0  0  0  0  0  0  0  0
   61.6530   34.2400   50.0450 H   0  0  0  0  0  0  0  0  0  0  0  0
   64.0987   33.9982   50.2071 H   0  0  0  0  0  0  0  0  0  0  0  0
   63.2928   32.4248   49.7374 H   0  0  0  0  0  0  0  0  0  0  0  0
   63.6538   34.3863   46.7170 H   0  0  0  0  0  0  0  0  0  0  0  0
   64.3213   32.7286   46.3457 H   0  0  0  0  0  0  0  0  0  0  0  0
   61.8624   32.7958   46.1219 H   0  0  0  0  0  0  0  0  0  0  0  0
   62.4169   31.6897   47.4479 H   0  0  0  0  0  0  0  0  0  0  0  0
   58.7213   35.2523   45.5231 H   0  0  0  0  0  0  0  0  0  0  0  0
   56.9981   33.9824   44.2465 H   0  0  0  0  0  0  0  0  0  0  0  0
  1  2  2  0
  2  3  1  0
  3  4  1  0
  4  5  2  0
  5  6  1  0
  6  7  2  0
  7  8  1  0
  2  9  1  0
  9 10  1  0
 10 11  2  0
 11 12  1  0
 12 13  2  0
 13 14  1  0
 14 15  1  0
 15 16  1  0
 16 17  1  0
 17 18  1  0
 18 19  1  0
 19 20  1  0
 13 21  1  0
 21 22  2  0
  8  4  1  0
 22 10  1  0
 20 15  1  0
  3 23  1  0
  3 24  1  0
  5 25  1  0
  6 26  1  0
  7 27  1  0
 11 28  1  0
 12 29  1  0
 14 30  1  0
 14 31  1  0
 15 32  1  0
 16 33  1  0
 16 34  1  0
 17 35  1  0
 17 36  1  0
 19 37  1  0
 19 38  1  0
 20 39  1  0
 20 40  1  0
 21 41  1  0
 22 42  1  0
M  CHG  2   9  -1  15   1
M  END
>  <UniqueID>  (4) 
3

>  <SMILES>  (4) 
O=C(Cc1cccs1)[N-]c1ccc(C[NH+]2CCOCC2)cc1

>  <Energy>  (4) 
89.13777888216184

>  <Genealogy>  (4) 
O=C(Cc1cccs1)[N-]c1ccc(C[NH+]2CCOCC2)cc1 (protonated)
O=C(Cc1cccs1)[N-]c1ccc(C[NH+]2CCOCC2)cc1 (3D coordinates assigned)
O=C(Cc1cccs1)[N-]c1ccc(C[NH+]2CCOCC2)cc1 (nonaromatic ring conformer: 89.13777888216184 kcal/mol)

>  <smiles>  (4) 
O=C(Cc1cccs1)Nc1ccc(CN2CCOCC2)cc1

>  <score_type>  (4) 
oracle

>  <origin>  (4) 
adg

>  <m_score__min__energy>  (4) 
-8.1999999999999993

>  <m_primary>  (4) 
energy

$$$$
4:0
     RDKit          3D

 32 33  0  0  0  0  0  0  0  0999 V2000
   57.6240   30.4160   43.5670 O   0  0  0  0  0  0  0  0  0  0  0  0
   57.8150   30.1990   44.7950 C   0  0  0  0  0  0  0  0  0  0  0  0
   58.2810   31.2650   45.6330 N   0  0  0  0  0  0  0  0  0  0  0  0
   57.6110   32.5550   45.7520 C   0  0  0  0  0  0  0  0  0  0  0  0
   58.2530   33.3910   46.8610 C   0  0  0  0  0  0  0  0  0  0  0  0
   59.7100   33.0420   47.0120 C   0  0  0  0  0  0  0  0  0  0  0  0
   60.6930   33.8270   46.3870 C   0  0  0  0  0  0  0  0  0  0  0  0
   62.0440   33.4850   46.5000 C   0  0  0  0  0  0  0  0  0  0  0  0
   62.4240   32.3500   47.2290 C   0  0  0  0  0  0  0  0  0  0  0  0
   63.7670   31.9990   47.3480 O   0  0  0  0  0  0  0  0  0  0  0  0
   61.4470   31.5580   47.8400 C   0  0  0  0  0  0  0  0  0  0  0  0
   60.0950   31.8990   47.7290 C   0  0  0  0  0  0  0  0  0  0  0  0
   57.5650   28.8420   45.3530 C   0  0  0  0  0  0  0  0  0  0  0  0
   58.6490   28.0890   45.8460 C   0  0  0  0  0  0  0  0  0  0  0  0
   58.4500   26.8120   46.3790 C   0  0  0  0  0  0  0  0  0  0  0  0
   59.5310   26.0850   46.8620 O   0  0  0  0  0  0  0  0  0  0  0  0
   57.1680   26.2670   46.4260 C   0  0  0  0  0  0  0  0  0  0  0  0
   56.0800   26.9940   45.9410 C   0  0  0  0  0  0  0  0  0  0  0  0
   54.8060   26.4390   45.9930 O   0  0  0  0  0  0  0  0  0  0  0  0
   56.2680   28.2750   45.4050 C   0  0  0  0  0  0  0  0  0  0  0  0
   55.1590   28.9660   44.9260 O   0  0  0  0  0  0  0  0  0  0  0  0
   57.6934   33.0953   44.7974 H   0  0  0  0  0  0  0  0  0  0  0  0
   56.5531   32.3852   46.0011 H   0  0  0  0  0  0  0  0  0  0  0  0
   58.1611   34.4577   46.6088 H   0  0  0  0  0  0  0  0  0  0  0  0
   57.7373   33.1783   47.8091 H   0  0  0  0  0  0  0  0  0  0  0  0
   60.3989   34.7139   45.8066 H   0  0  0  0  0  0  0  0  0  0  0  0
   62.8102   34.1081   46.0157 H   0  0  0  0  0  0  0  0  0  0  0  0
   64.4870   32.4720   46.8160 H   0  0  0  0  0  0  0  0  0  0  0  0
   61.7424   30.6644   48.4095 H   0  0  0  0  0  0  0  0  0  0  0  0
   59.3303   31.2683   48.2059 H   0  0  0  0  0  0  0  0  0  0  0  0
   59.6642   28.5110   45.8111 H   0  0  0  0  0  0  0  0  0  0  0  0
   57.0136   25.2622   46.8461 H   0  0  0  0  0  0  0  0  0  0  0  0
  1  2  2  0
  2  3  1  0
  3  4  1  0
  4  5  1  0
  5  6  1  0
  6  7  2  0
  7  8  1  0
  8  9  2  0
  9 10  1  0
  9 11  1  0
 11 12  2  0
  2 13  1  0
 13 14  2  0
 14 15  1  0
 15 16  1  0
 15 17  2  0
 17 18  1  0
 18 19  1  0
 18 20  2  0
 20 21  1  0
 12  6  1  0
 20 13  1  0
  4 22  1  0
  4 23  1  0
  5 24  1  0
  5 25  1  0
  7 26  1  0
  8 27  1  0
 10 28  1  0
 11 29  1  0
 12 30  1  0
 14 31  1  0
 17 32  1  0
M  CHG  4   3  -1  16  -1  19  -1  21  -1
M  END
>  <UniqueID>  (5) 
4

>  <SMILES>  (5) 
O=C([N-]CCc1ccc(O)cc1)c1cc([O-])cc([O-])c1[O-]

>  <Energy>  (5) 
31.27772804757384

>  <Genealogy>  (5) 
O=C([N-]CCc1ccc(O)cc1)c1cc([O-])cc([O-])c1[O-] (protonated)
O=C([N-]CCc1ccc(O)cc1)c1cc([O-])cc([O-])c1[O-] (3D coordinates assigned)
O=C([N-]CCc1ccc(O)cc1)c1cc([O-])cc([O-])c1[O-] (optimized conformer: 31.27772804757384 kcal/mol)

>  <smiles>  (5) 
O=C(NCCc1ccc(O)cc1)c1cc(O)cc(O)c1O

>  <score_type>  (5) 
oracle

>  <origin>  (5) 
adg

>  <m_score__min__energy>  (5) 
-16.25

>  <m_primary>  (5) 
energy

$$$$
5:0
     RDKit          3D

 53 55  0  0  0  0  0  0  0  0999 V2000
   55.3630   26.2810   46.0150 N   0  0  0  0  0  0  0  0  0  0  0  0
   57.0110   26.4630   45.5300 S   0  0  0  0  0  0  0  0  0  0  0  0
   57.9170   26.0550   46.6580 O   0  0  0  0  0  0  0  0  0  0  0  0
   57.2850   25.5760   44.3470 O   0  0  0  0  0  0  0  0  0  0  0  0
   57.3140   28.1440   45.1020 C   0  0  0  0  0  0  0  0  0  0  0  0
   58.6270   28.6150   44.9680 C   0  0  0  0  0  0  0  0  0  0  0  0
   58.8640   29.9460   44.6110 C   0  0  0  0  0  0  0  0  0  0  0  0
   57.7880   30.8180   44.3800 C   0  0  0  0  0  0  0  0  0  0  0  0
   58.0470   32.2520   44.0000 C   0  0  0  0  0  0  0  0  0  0  0  0
   57.6510   33.1720   45.0720 N   0  0  0  0  0  0  0  0  0  0  0  0
   59.0020   33.6010   46.0850 S   0  0  0  0  0  0  0  0  0  0  0  0
   60.0670   34.2290   45.2300 O   0  0  0  0  0  0  0  0  0  0  0  0
   58.5540   34.6160   47.0950 O   0  0  0  0  0  0  0  0  0  0  0  0
   59.6590   32.1890   46.9330 C   0  0  0  0  0  0  0  0  0  0  0  0
   58.7770   31.1790   47.3530 C   0  0  0  0  0  0  0  0  0  0  0  0
   59.2410   30.0970   48.1030 C   0  0  0  0  0  0  0  0  0  0  0  0
   60.5900   30.0120   48.4490 C   0  0  0  0  0  0  0  0  0  0  0  0
   61.4800   31.0040   48.0340 C   0  0  0  0  0  0  0  0  0  0  0  0
   61.0330   32.0820   47.2550 C   0  0  0  0  0  0  0  0  0  0  0  0
   62.2360   33.3340   46.7620 S   0  0  0  0  0  0  0  0  0  0  0  0
   62.2610   34.2100   48.3670 C   0  0  0  0  0  0  0  0  0  0  0  0
   62.9420   33.3880   49.4100 C   0  0  0  0  0  0  0  0  0  0  0  0
   64.1680   33.1150   49.2950 O   0  0  0  0  0  0  0  0  0  0  0  0
   62.1970   32.9280   50.5420 N   0  0  0  0  0  0  0  0  0  0  0  0
   61.2970   33.7760   51.3150 C   0  0  0  0  0  0  0  0  0  0  0  0
   59.9790   33.0800   51.5200 C   0  0  0  0  0  0  0  0  0  0  0  0
   58.9180   33.7580   52.1410 C   0  0  0  0  0  0  0  0  0  0  0  0
   57.6790   33.1300   52.3040 C   0  0  0  0  0  0  0  0  0  0  0  0
   57.4900   31.8210   51.8480 C   0  0  0  0  0  0  0  0  0  0  0  0
   55.9320   31.0390   52.0450 Cl  0  0  0  0  0  0  0  0  0  0  0  0
   58.5410   31.1410   51.2240 C   0  0  0  0  0  0  0  0  0  0  0  0
   59.7820   31.7680   51.0560 C   0  0  0  0  0  0  0  0  0  0  0  0
   56.4730   30.3430   44.5100 C   0  0  0  0  0  0  0  0  0  0  0  0
   56.2390   29.0110   44.8680 C   0  0  0  0  0  0  0  0  0  0  0  0
   54.7740   26.7000   45.2590 H   0  0  0  0  0  0  0  0  0  0  0  0
   59.4739   27.9355   45.1442 H   0  0  0  0  0  0  0  0  0  0  0  0
   59.8968   30.3111   44.5108 H   0  0  0  0  0  0  0  0  0  0  0  0
   59.1206   32.3799   43.7976 H   0  0  0  0  0  0  0  0  0  0  0  0
   57.4496   32.4856   43.1064 H   0  0  0  0  0  0  0  0  0  0  0  0
   57.7111   31.2416   47.0884 H   0  0  0  0  0  0  0  0  0  0  0  0
   58.5418   29.3099   48.4218 H   0  0  0  0  0  0  0  0  0  0  0  0
   60.9520   29.1637   49.0485 H   0  0  0  0  0  0  0  0  0  0  0  0
   62.5403   30.9401   48.3200 H   0  0  0  0  0  0  0  0  0  0  0  0
   62.7997   35.1619   48.2497 H   0  0  0  0  0  0  0  0  0  0  0  0
   61.2238   34.3930   48.6845 H   0  0  0  0  0  0  0  0  0  0  0  0
   61.7508   33.9911   52.2936 H   0  0  0  0  0  0  0  0  0  0  0  0
   61.1270   34.7143   50.7667 H   0  0  0  0  0  0  0  0  0  0  0  0
   59.0618   34.7875   52.5009 H   0  0  0  0  0  0  0  0  0  0  0  0
   56.8516   33.6663   52.7916 H   0  0  0  0  0  0  0  0  0  0  0  0
   58.3926   30.1120   50.8646 H   0  0  0  0  0  0  0  0  0  0  0  0
   60.6046   31.2323   50.5597 H   0  0  0  0  0  0  0  0  0  0  0  0
   55.6248   31.0199   44.3299 H   0  0  0  0  0  0  0  0  0  0  0  0
   55.2070   28.6432   44.9661 H   0  0  0  0  0  0  0  0  0  0  0  0
  1  2  1  0
  2  3  2  0
  2  4  2  0
  2  5  1  0
  5  6  2  0
  6  7  1  0
  7  8  2  0
  8  9  1  0
  9 10  1  0
 10 11  1  0
 11 12  2  0
 11 13  2  0
 11 14  1  0
 14 15  2  0
 15 16  1  0
 16 17  2  0
 17 18  1  0
 18 19  2  0
 19 20  1  0
 20 21  1  0
 21 22  1  0
 22 23  2  0
 22 24  1  0
 24 25  1  0
 25 26  1  0
 26 27  2  0
 27 28  1  0
 28 29  2  0
 29 30  1  0
 29 31  1  0
 31 32  2  0
  8 33  1  0
 33 34  2  0
 34  5  1  0
 19 14  1  0
 32 26  1  0
  1 35  1  0
  6 36  1  0
  7 37  1  0
  9 38  1  0
  9 39  1  0
 15 40  1  0
 16 41  1  0
 17 42  1  0
 18 43  1  0
 21 44  1  0
 21 45  1  0
 25 46  1  0
 25 47  1  0
 27 48  1  0
 28 49  1  0
 31 50  1  0
 32 51  1  0
 33 52  1  0
 34 53  1  0
M  CHG  3   1  -1  10  -1  24  -1
M  END
>  <UniqueID>  (6) 
5

>  <SMILES>  (6) 
[NH-]S(=O)(=O)c1ccc(C[N-]S(=O)(=O)c2ccccc2SCC(=O)[N-]Cc2ccc(Cl)cc2)cc1

>  <Energy>  (6) 
48.1389093958548

>  <Genealogy>  (6) 
[NH-]S(=O)(=O)c1ccc(C[N-]S(=O)(=O)c2ccccc2SCC(=O)[N-]Cc2ccc(Cl)cc2)cc1 (protonated)
[NH-]S(=O)(=O)c1ccc(C[N-]S(=O)(=O)c2ccccc2SCC(=O)[N-]Cc2ccc(Cl)cc2)cc1 (3D coordinates assigned)
[NH-]S(=O)(=O)c1ccc(C[N-]S(=O)(=O)c2ccccc2SCC(=O)[N-]Cc2ccc(Cl)cc2)cc1 (optimized conformer: 48.1389093958548 kcal/mol)

>  <smiles>  (6) 
NS(=O)(=O)c1ccc(CNS(=O)(=O)c2ccccc2SCC(=O)NCc2ccc(Cl)cc2)cc1

>  <score_type>  (6) 
oracle

>  <origin>  (6) 
adg

>  <m_score__min__energy>  (6) 
-13.789999999999999

>  <m_primary>  (6) 
energy

$$$$
6:0
     RDKit          3D

 46 48  0  0  1  0  0  0  0  0999 V2000
   62.6430   34.5370   49.9130 C   0  0  0  0  0  0  0  0  0  0  0  0
   61.8650   33.4190   49.3930 N   0  0  0  0  0  0  0  0  0  0  0  0
   62.1410   32.1020   49.8510 C   0  0  0  0  0  0  0  0  0  0  0  0
   63.0320   31.8290   50.6950 O   0  0  0  0  0  0  0  0  0  0  0  0
   61.3640   30.9620   49.3360 C   0  0  0  0  0  0  0  0  0  0  0  0
   61.0520   29.9130   50.1760 C   0  0  0  0  0  0  0  0  0  0  0  0
   60.3330   28.9010   49.6280 N   0  0  0  0  0  0  0  0  0  0  0  0
   59.9510   28.9330   48.3240 C   0  0  0  0  0  0  0  0  0  0  0  0
   59.2820   27.9450   47.8940 N   0  0  0  0  0  0  0  0  0  0  0  0
   58.7800   27.8430   46.5650 C   0  0  0  0  0  0  0  0  0  0  0  0
   59.1980   26.7900   45.7750 C   0  0  0  0  0  0  0  0  0  0  0  0
   58.6920   26.7120   44.4890 C   0  0  0  0  0  0  0  0  0  0  0  0
   57.7900   27.6760   44.0250 C   0  0  0  0  0  0  0  0  0  0  0  0
   57.3850   28.7210   44.8320 C   0  0  0  0  0  0  0  0  0  0  0  0
   56.2440   29.8710   44.1570 S   0  0  0  0  0  0  0  0  0  0  0  0
   56.5290   29.9230   42.4360 N   0  0  0  0  0  0  0  0  0  0  0  0
   54.8620   29.3440   44.3700 O   0  0  0  0  0  0  0  0  0  0  0  0
   56.4570   31.2330   44.7520 O   0  0  0  0  0  0  0  0  0  0  0  0
   57.8800   28.8050   46.1010 C   0  0  0  0  0  0  0  0  0  0  0  0
   60.2550   29.9550   47.5050 N   0  0  0  0  0  0  0  0  0  0  0  0
   60.9650   30.9720   48.0160 C   0  0  0  0  0  0  0  0  0  0  0  0
   61.2720   31.9610   47.2560 N   0  0  0  0  0  0  0  0  0  0  0  0
   60.2890   32.8550   46.7440 C   0  0  0  0  0  0  0  0  0  0  0  0
   58.9990   32.3700   46.5980 C   0  0  0  0  0  0  0  0  0  0  0  0
   58.0170   33.2040   46.1060 C   0  0  0  0  0  0  0  0  0  0  0  0
   58.3100   34.5080   45.7610 C   0  0  0  0  0  0  0  0  0  0  0  0
   59.5920   35.0000   45.9010 C   0  0  0  0  0  0  0  0  0  0  0  0
   60.5810   34.1630   46.3950 C   0  0  0  0  0  0  0  0  0  0  0  0
   62.6274   34.5146   51.0127 H   0  0  0  0  0  0  0  0  0  0  0  0
   63.6815   34.4570   49.5593 H   0  0  0  0  0  0  0  0  0  0  0  0
   62.2071   35.4830   49.5593 H   0  0  0  0  0  0  0  0  0  0  0  0
   61.1230   33.6160   48.6930 H   0  0  0  0  0  0  0  0  0  0  0  0
   61.3679   29.8978   51.2295 H   0  0  0  0  0  0  0  0  0  0  0  0
   60.0700   28.0800   50.2210 H   0  0  0  0  0  0  0  0  0  0  0  0
   59.9077   26.0401   46.1543 H   0  0  0  0  0  0  0  0  0  0  0  0
   59.0004   25.8882   43.8285 H   0  0  0  0  0  0  0  0  0  0  0  0
   57.3970   27.6002   43.0004 H   0  0  0  0  0  0  0  0  0  0  0  0
   55.8170   29.3590   41.9150 H   0  0  0  0  0  0  0  0  0  0  0  0
   57.5050   29.7170   42.1850 H   0  0  0  0  0  0  0  0  0  0  0  0
   57.5701   29.6306   46.7586 H   0  0  0  0  0  0  0  0  0  0  0  0
   59.9310   29.9330   46.4950 H   0  0  0  0  0  0  0  0  0  0  0  0
   58.7610   31.3315   46.8715 H   0  0  0  0  0  0  0  0  0  0  0  0
   56.9906   32.8265   45.9874 H   0  0  0  0  0  0  0  0  0  0  0  0
   57.5150   35.1607   45.3712 H   0  0  0  0  0  0  0  0  0  0  0  0
   59.8253   36.0390   45.6252 H   0  0  0  0  0  0  0  0  0  0  0  0
   61.6073   34.5416   46.5108 H   0  0  0  0  0  0  0  0  0  0  0  0
  1  2  1  0
  2  3  1  0
  3  4  2  0
  3  5  1  0
  5  6  2  0
  6  7  1  0
  7  8  1  0
  8  9  2  0
  9 10  1  0
 10 11  2  0
 11 12  1  0
 12 13  2  0
 13 14  1  0
 14 15  1  0
 15 16  1  0
 15 17  2  0
 15 18  2  0
 14 19  2  0
  8 20  1  0
 20 21  1  0
 21 22  2  0
 22 23  1  0
 23 24  2  0
 24 25  1  0
 25 26  2  0
 26 27  1  0
 27 28  2  0
 21  5  1  0
 28 23  1  0
 19 10  1  0
  1 29  1  0
  1 30  1  0
  1 31  1  0
  2 32  1  0
  6 33  1  0
  7 34  1  0
 11 35  1  0
 12 36  1  0
 13 37  1  0
 16 38  1  0
 16 39  1  0
 19 40  1  0
 20 41  1  0
 24 42  1  0
 25 43  1  0
 26 44  1  0
 27 45  1  0
 28 46  1  0
M  END
>  <smiles>  (7) 
CNC(=O)c1c[nH]c(=Nc2cccc(S(N)(=O)=O)c2)[nH]c1=Nc1ccccc1

>  <score_type>  (7) 
oracle

>  <origin>  (7) 
adg

>  <m_score__min__energy>  (7) 
-9.1099999999999994

>  <m_primary>  (7) 
energy

$$$$
7:0
     RDKit          3D

 34 36  0  0  0  0  0  0  0  0999 V2000
   55.9160   24.8730   47.6300 O   0  0  0  0  0  0  0  0  0  0  0  0
   56.9870   25.2520   47.0890 C   0  0  0  0  0  0  0  0  0  0  0  0
   58.1180   24.3710   47.0820 N   0  0  0  0  0  0  0  0  0  0  0  0
   58.7870   23.8790   45.8790 C   0  0  0  0  0  0  0  0  0  0  0  0
   58.0070   22.7540   45.2510 C   0  0  0  0  0  0  0  0  0  0  0  0
   58.0010   21.4760   45.8370 C   0  0  0  0  0  0  0  0  0  0  0  0
   57.3170   20.4230   45.2230 C   0  0  0  0  0  0  0  0  0  0  0  0
   56.6280   20.6370   44.0280 C   0  0  0  0  0  0  0  0  0  0  0  0
   56.6130   21.9070   43.4420 C   0  0  0  0  0  0  0  0  0  0  0  0
   55.9230   22.1060   42.2500 O   0  0  0  0  0  0  0  0  0  0  0  0
   57.2980   22.9650   44.0560 C   0  0  0  0  0  0  0  0  0  0  0  0
   57.0440   26.5850   46.4560 C   0  0  0  0  0  0  0  0  0  0  0  0
   55.8960   27.0980   45.8360 C   0  0  0  0  0  0  0  0  0  0  0  0
   54.7280   26.3450   45.7770 O   0  0  0  0  0  0  0  0  0  0  0  0
   55.9110   28.3390   45.2850 N   0  0  0  0  0  0  0  0  0  0  0  0
   57.0120   29.1320   45.3100 C   0  0  0  0  0  0  0  0  0  0  0  0
   56.9540   30.2760   44.7850 O   0  0  0  0  0  0  0  0  0  0  0  0
   58.1960   28.6740   45.9180 C   0  0  0  0  0  0  0  0  0  0  0  0
   59.3460   29.4830   45.9800 C   0  0  0  0  0  0  0  0  0  0  0  0
   60.5020   29.0160   46.6070 C   0  0  0  0  0  0  0  0  0  0  0  0
   60.5290   27.7430   47.1730 C   0  0  0  0  0  0  0  0  0  0  0  0
   59.3990   26.9240   47.1160 C   0  0  0  0  0  0  0  0  0  0  0  0
   58.2160   27.3760   46.4930 C   0  0  0  0  0  0  0  0  0  0  0  0
   58.8774   24.7023   45.1551 H   0  0  0  0  0  0  0  0  0  0  0  0
   59.7817   23.5025   46.1597 H   0  0  0  0  0  0  0  0  0  0  0  0
   58.5366   21.3042   46.7823 H   0  0  0  0  0  0  0  0  0  0  0  0
   57.3217   19.4236   45.6824 H   0  0  0  0  0  0  0  0  0  0  0  0
   56.0952   19.8043   43.5456 H   0  0  0  0  0  0  0  0  0  0  0  0
   56.2700   22.7360   41.5360 H   0  0  0  0  0  0  0  0  0  0  0  0
   57.2804   23.9658   43.5999 H   0  0  0  0  0  0  0  0  0  0  0  0
   59.3336   30.4877   45.5323 H   0  0  0  0  0  0  0  0  0  0  0  0
   61.3957   29.6556   46.6546 H   0  0  0  0  0  0  0  0  0  0  0  0
   61.4434   27.3818   47.6664 H   0  0  0  0  0  0  0  0  0  0  0  0
   59.4314   25.9183   47.5604 H   0  0  0  0  0  0  0  0  0  0  0  0
  1  2  2  0
  2  3  1  0
  3  4  1  0
  4  5  1  0
  5  6  2  0
  6  7  1  0
  7  8  2  0
  8  9  1  0
  9 10  1  0
  9 11  2  0
  2 12  1  0
 12 13  2  0
 13 14  1  0
 13 15  1  0
 15 16  1  0
 16 17  2  0
 16 18  1  0
 18 19  2  0
 19 20  1  0
 20 21  2  0
 21 22  1  0
 22 23  2  0
 11  5  1  0
 23 12  1  0
 23 18  1  0
  4 24  1  0
  4 25  1  0
  6 26  1  0
  7 27  1  0
  8 28  1  0
 10 29  1  0
 11 30  1  0
 19 31  1  0
 20 32  1  0
 21 33  1  0
 22 34  1  0
M  CHG  3   3  -1  14  -1  15  -1
M  END
>  <UniqueID>  (8) 
6

>  <SMILES>  (8) 
O=C([N-]Cc1cccc(O)c1)c1c([O-])[n-]c(=O)c2ccccc12

>  <Energy>  (8) 
44.9115299795592

>  <Genealogy>  (8) 
O=C([N-]Cc1cccc(O)c1)c1c([O-])[n-]c(=O)c2ccccc12 (protonated)
O=C([N-]Cc1cccc(O)c1)c1c([O-])[n-]c(=O)c2ccccc12 (3D coordinates assigned)
O=C([N-]Cc1cccc(O)c1)c1c([O-])[n-]c(=O)c2ccccc12 (optimized conformer: 44.9115299795592 kcal/mol)

>  <smiles>  (8) 
O=C(NCc1cccc(O)c1)c1c(O)[nH]c(=O)c2ccccc12

>  <score_type>  (8) 
oracle

>  <origin>  (8) 
adg

>  <m_score__min__energy>  (8) 
-15.550000000000001

>  <m_primary>  (8) 
energy

$$$$
8:0
     RDKit          3D

 46 48  0  0  0  0  0  0  0  0999 V2000
   60.1850   34.2090   49.5120 C   0  0  0  0  0  0  0  0  0  0  0  0
   59.2480   33.3950   48.7300 N   0  0  0  0  0  0  0  0  0  0  0  0
   58.5250   32.3060   49.4000 C   0  0  0  0  0  0  0  0  0  0  0  0
   59.0430   33.6580   47.3170 C   0  0  0  0  0  0  0  0  0  0  0  0
   59.4950   34.8590   46.7350 C   0  0  0  0  0  0  0  0  0  0  0  0
   59.2980   35.1110   45.3780 C   0  0  0  0  0  0  0  0  0  0  0  0
   58.6470   34.1750   44.5740 C   0  0  0  0  0  0  0  0  0  0  0  0
   58.1840   32.9680   45.1220 C   0  0  0  0  0  0  0  0  0  0  0  0
   57.4890   31.9730   44.2710 C   0  0  0  0  0  0  0  0  0  0  0  0
   57.4090   32.1560   43.0260 O   0  0  0  0  0  0  0  0  0  0  0  0
   56.8640   30.8280   44.8690 N   0  0  0  0  0  0  0  0  0  0  0  0
   57.4130   29.5060   44.9680 C   0  0  0  0  0  0  0  0  0  0  0  0
   58.7210   29.2080   44.5450 C   0  0  0  0  0  0  0  0  0  0  0  0
   59.2280   27.9140   44.6920 C   0  0  0  0  0  0  0  0  0  0  0  0
   58.4420   26.9110   45.2630 C   0  0  0  0  0  0  0  0  0  0  0  0
   57.1320   27.1950   45.6890 C   0  0  0  0  0  0  0  0  0  0  0  0
   56.3020   26.2050   46.3140 N   0  0  0  0  0  0  0  0  0  0  0  0
   55.4970   25.2210   45.6490 C   0  0  0  0  0  0  0  0  0  0  0  0
   54.2400   25.2830   45.7160 O   0  0  0  0  0  0  0  0  0  0  0  0
   56.1440   24.1000   44.9270 C   0  0  0  0  0  0  0  0  0  0  0  0
   55.6810   23.7050   43.6560 C   0  0  0  0  0  0  0  0  0  0  0  0
   56.2940   22.6490   42.9760 C   0  0  0  0  0  0  0  0  0  0  0  0
   57.3710   21.9730   43.5530 C   0  0  0  0  0  0  0  0  0  0  0  0
   57.8390   22.3540   44.8130 C   0  0  0  0  0  0  0  0  0  0  0  0
   57.2310   23.4110   45.4990 C   0  0  0  0  0  0  0  0  0  0  0  0
   56.6400   28.5010   45.5630 C   0  0  0  0  0  0  0  0  0  0  0  0
   58.3850   32.7190   46.4940 C   0  0  0  0  0  0  0  0  0  0  0  0
   60.0019   34.0499   50.5849 H   0  0  0  0  0  0  0  0  0  0  0  0
   61.2169   33.9157   49.2687 H   0  0  0  0  0  0  0  0  0  0  0  0
   60.0389   35.2718   49.2687 H   0  0  0  0  0  0  0  0  0  0  0  0
   58.6062   32.4283   50.4902 H   0  0  0  0  0  0  0  0  0  0  0  0
   57.4654   32.3339   49.1058 H   0  0  0  0  0  0  0  0  0  0  0  0
   58.9619   31.3403   49.1058 H   0  0  0  0  0  0  0  0  0  0  0  0
   60.0088   35.6058   47.3581 H   0  0  0  0  0  0  0  0  0  0  0  0
   59.6579   36.0531   44.9388 H   0  0  0  0  0  0  0  0  0  0  0  0
   58.4956   34.3838   43.5047 H   0  0  0  0  0  0  0  0  0  0  0  0
   59.3460   29.9949   44.0977 H   0  0  0  0  0  0  0  0  0  0  0  0
   60.2502   27.6847   44.3566 H   0  0  0  0  0  0  0  0  0  0  0  0
   58.8486   25.8956   45.3800 H   0  0  0  0  0  0  0  0  0  0  0  0
   54.8316   24.2312   43.1961 H   0  0  0  0  0  0  0  0  0  0  0  0
   55.9269   22.3495   41.9833 H   0  0  0  0  0  0  0  0  0  0  0  0
   57.8505   21.1413   43.0160 H   0  0  0  0  0  0  0  0  0  0  0  0
   58.6878   21.8215   45.2669 H   0  0  0  0  0  0  0  0  0  0  0  0
   57.6042   23.7056   46.4909 H   0  0  0  0  0  0  0  0  0  0  0  0
   55.6333   28.7401   45.9364 H   0  0  0  0  0  0  0  0  0  0  0  0
   58.0230   31.7768   46.9312 H   0  0  0  0  0  0  0  0  0  0  0  0
  1  2  1  0
  2  3  1  0
  2  4  1  0
  4  5  2  0
  5  6  1  0
  6  7  2  0
  7  8  1  0
  8  9  1  0
  9 10  2  0
  9 11  1  0
 11 12  1  0
 12 13  2  0
 13 14  1  0
 14 15  2  0
 15 16  1  0
 16 17  1  0
 17 18  1  0
 18 19  2  0
 18 20  1  0
 20 21  2  0
 21 22  1  0
 22 23  2  0
 23 24  1  0
 24 25  2  0
 16 26  2  0
  8 27  2  0
 27  4  1  0
 26 12  1  0
 25 20  1  0
  1 28  1  0
  1 29  1  0
  1 30  1  0
  3 31  1  0
  3 32  1  0
  3 33  1  0
  5 34  1  0
  6 35  1  0
  7 36  1  0
 13 37  1  0
 14 38  1  0
 15 39  1  0
 21 40  1  0
 22 41  1  0
 23 42  1  0
 24 43  1  0
 25 44  1  0
 26 45  1  0
 27 46  1  0
M  CHG  2  11  -1  17  -1
M  END
>  <UniqueID>  (9) 
7

>  <SMILES>  (9) 
CN(C)c1cccc(C(=O)[N-]c2cccc([N-]C(=O)c3ccccc3)c2)c1

>  <Energy>  (9) 
58.92578031856201

>  <Genealogy>  (9) 
CN(C)c1cccc(C(=O)[N-]c2cccc([N-]C(=O)c3ccccc3)c2)c1 (protonated)
CN(C)c1cccc(C(=O)[N-]c2cccc([N-]C(=O)c3ccccc3)c2)c1 (3D coordinates assigned)
CN(C)c1cccc(C(=O)[N-]c2cccc([N-]C(=O)c3ccccc3)c2)c1 (optimized conformer: 58.92578031856201 kcal/mol)

>  <smiles>  (9) 
CN(C)c1cccc(C(=O)Nc2cccc(NC(=O)c3ccccc3)c2)c1

>  <score_type>  (9) 
oracle

>  <origin>  (9) 
adg

>  <m_score__min__energy>  (9) 
-12.369999999999999

>  <m_primary>  (9) 
energy

$$$$
9:0
     RDKit          3D

 52 55  0  0  0  0  0  0  0  0999 V2000
   50.0724   21.3165   46.5874 H   0  0  0  0  0  0  0  0  0  0  0  0
   50.7650   22.0600   46.1660 C   0  0  0  0  0  0  0  0  0  0  0  0
   50.3080   22.9800   45.2190 C   0  0  0  0  0  0  0  0  0  0  0  0
   49.2538   22.9657   44.9052 H   0  0  0  0  0  0  0  0  0  0  0  0
   51.1890   23.9220   44.6670 C   0  0  0  0  0  0  0  0  0  0  0  0
   50.6890   24.9380   43.6830 C   0  0  0  0  0  0  0  0  0  0  0  0
   50.2664   25.7967   44.2253 H   0  0  0  0  0  0  0  0  0  0  0  0
   51.5228   25.2777   43.0511 H   0  0  0  0  0  0  0  0  0  0  0  0
   49.9111   24.4846   43.0511 H   0  0  0  0  0  0  0  0  0  0  0  0
   52.5240   23.9540   45.0990 C   0  0  0  0  0  0  0  0  0  0  0  0
   53.2120   24.7089   44.6907 H   0  0  0  0  0  0  0  0  0  0  0  0
   52.9880   23.0290   46.0490 C   0  0  0  0  0  0  0  0  0  0  0  0
   54.4200   23.0820   46.5130 C   0  0  0  0  0  0  0  0  0  0  0  0
   54.4724   23.6359   47.4619 H   0  0  0  0  0  0  0  0  0  0  0  0
   54.7863   22.0541   46.6520 H   0  0  0  0  0  0  0  0  0  0  0  0
   55.2580   23.7510   45.5190 N   0  0  0  0  0  0  0  0  0  0  0  0
   56.1470   24.6630   45.7880 C   0  0  0  0  0  0  0  0  0  0  0  0
   57.4700   24.3520   45.8670 N   0  0  0  0  0  0  0  0  0  0  0  0
   58.3920   25.2750   46.1430 N   0  0  0  0  0  0  0  0  0  0  0  0
   58.0610   26.5790   46.3520 C   0  0  0  0  0  0  0  0  0  0  0  0
   59.0910   27.5340   46.6700 N   0  0  0  0  0  0  0  0  0  0  0  0
   60.0210   28.0320   45.6460 C   0  0  0  0  0  0  0  0  0  0  0  0
   61.0246   27.6261   45.8410 H   0  0  0  0  0  0  0  0  0  0  0  0
   59.6656   27.7086   44.6565 H   0  0  0  0  0  0  0  0  0  0  0  0
   60.0830   29.5680   45.6730 C   0  0  0  0  0  0  0  0  0  0  0  0
   61.0354   29.8875   45.2249 H   0  0  0  0  0  0  0  0  0  0  0  0
   59.2156   29.9404   45.1083 H   0  0  0  0  0  0  0  0  0  0  0  0
   59.9890   30.1590   47.1080 C   0  0  0  0  0  0  0  0  0  0  0  0
   58.9485   30.4904   47.2404 H   0  0  0  0  0  0  0  0  0  0  0  0
   60.8900   31.3690   47.2740 C   0  0  0  0  0  0  0  0  0  0  0  0
   62.2860   31.2320   47.1640 C   0  0  0  0  0  0  0  0  0  0  0  0
   62.7233   30.2438   46.9586 H   0  0  0  0  0  0  0  0  0  0  0  0
   63.1210   32.3430   47.3140 C   0  0  0  0  0  0  0  0  0  0  0  0
   64.2113   32.2262   47.2265 H   0  0  0  0  0  0  0  0  0  0  0  0
   62.5730   33.6020   47.5750 C   0  0  0  0  0  0  0  0  0  0  0  0
   63.2320   34.4750   47.6915 H   0  0  0  0  0  0  0  0  0  0  0  0
   61.1890   33.7520   47.6880 C   0  0  0  0  0  0  0  0  0  0  0  0
   60.6590   34.9730   47.9450 F   0  0  0  0  0  0  0  0  0  0  0  0
   60.3490   32.6420   47.5390 C   0  0  0  0  0  0  0  0  0  0  0  0
   59.2596   32.7649   47.6295 H   0  0  0  0  0  0  0  0  0  0  0  0
   60.2690   29.1050   48.1990 C   0  0  0  0  0  0  0  0  0  0  0  0
   61.2956   28.7269   48.0843 H   0  0  0  0  0  0  0  0  0  0  0  0
   60.1494   29.5711   49.1882 H   0  0  0  0  0  0  0  0  0  0  0  0
   59.2810   27.9370   48.0720 C   0  0  0  0  0  0  0  0  0  0  0  0
   59.6691   27.0787   48.6400 H   0  0  0  0  0  0  0  0  0  0  0  0
   58.3091   28.2658   48.4686 H   0  0  0  0  0  0  0  0  0  0  0  0
   56.7120   26.9490   46.2980 C   0  0  0  0  0  0  0  0  0  0  0  0
   56.4154   27.9923   46.4812 H   0  0  0  0  0  0  0  0  0  0  0  0
   55.7470   25.9840   46.0100 C   0  0  0  0  0  0  0  0  0  0  0  0
   54.4040   26.3410   45.9520 O   0  0  0  0  0  0  0  0  0  0  0  0
   52.0990   22.0820   46.5790 C   0  0  0  0  0  0  0  0  0  0  0  0
   52.4541   21.3537   47.3230 H   0  0  0  0  0  0  0  0  0  0  0  0
  1  2  1  0
  2  3  2  0
  3  4  1  0
  3  5  1  0
  5  6  1  0
  6  7  1  0
  6  8  1  0
  6  9  1  0
  5 10  2  0
 10 11  1  0
 10 12  1  0
 12 13  1  0
 13 14  1  0
 13 15  1  0
 13 16  1  0
 16 17  2  0
 17 18  1  0
 18 19  1  0
 19 20  2  0
 20 21  1  0
 21 22  1  0
 22 23  1  0
 22 24  1  0
 22 25  1  0
 25 26  1  0
 25 27  1  0
 25 28  1  0
 28 29  1  0
 28 30  1  0
 30 31  2  0
 31 32  1  0
 31 33  1  0
 33 34  1  0
 33 35  2  0
 35 36  1  0
 35 37  1  0
 37 38  1  0
 37 39  2  0
 39 40  1  0
 28 41  1  0
 41 42  1  0
 41 43  1  0
 41 44  1  0
 44 45  1  0
 44 46  1  0
 20 47  1  0
 47 48  1  0
 47 49  2  0
 49 50  1  0
 12 51  2  0
 51 52  1  0
 51  2  1  0
 49 17  1  0
 44 21  1  0
 39 30  1  0
M  CHG  2  18  -1  50  -1
M  END
>  <UniqueID>  (10) 
8

>  <SMILES>  (10) 
Cc1cccc(C/N=c2\[n-]nc(N3CCC(c4cccc(F)c4)CC3)cc2[O-])c1

>  <Energy>  (10) 
61.790991167009594

>  <Genealogy>  (10) 
Cc1cccc(CN=c2[n-]nc(N3CCC(c4cccc(F)c4)CC3)cc2[O-])c1 (protonated)
Cc1cccc(C/N=c2\[n-]nc(N3CCC(c4cccc(F)c4)CC3)cc2[O-])c1 (cis-trans isomerization)
Cc1cccc(C/N=c2\[n-]nc(N3CCC(c4cccc(F)c4)CC3)cc2[O-])c1 (3D coordinates assigned)
Cc1cccc(C/N=c2\[n-]nc(N3CCC(c4cccc(F)c4)CC3)cc2[O-])c1 (nonaromatic ring conformer: 61.790991167009594 kcal/mol)

>  <smiles>  (10) 
Cc1cccc(CN=c2[nH]nc(N3CCC(c4cccc(F)c4)CC3)cc2O)c1

>  <score_type>  (10) 
oracle

>  <origin>  (10) 
adg

>  <m_score__min__energy>  (10) 
-13.32

>  <m_primary>  (10) 
energy

$$$$
10:0
     RDKit          3D

 37 39  0  0  0  0  0  0  0  0999 V2000
   59.3810   30.1350   49.3840 N   0  0  0  0  0  0  0  0  0  0  0  0
   60.1210   29.1910   48.1380 S   0  0  0  0  0  0  0  0  0  0  0  0
   61.0440   28.1790   48.7550 O   0  0  0  0  0  0  0  0  0  0  0  0
   60.9110   30.1040   47.2420 O   0  0  0  0  0  0  0  0  0  0  0  0
   58.8800   28.3580   47.2080 C   0  0  0  0  0  0  0  0  0  0  0  0
   58.7730   26.9620   47.2780 C   0  0  0  0  0  0  0  0  0  0  0  0
   57.7820   26.2970   46.5540 C   0  0  0  0  0  0  0  0  0  0  0  0
   56.9020   27.0200   45.7420 C   0  0  0  0  0  0  0  0  0  0  0  0
   57.0200   28.4110   45.6350 C   0  0  0  0  0  0  0  0  0  0  0  0
   56.0800   29.1280   44.8220 N   0  0  0  0  0  0  0  0  0  0  0  0
   56.3970   30.0930   43.8110 C   0  0  0  0  0  0  0  0  0  0  0  0
   55.8360   29.9880   42.6890 O   0  0  0  0  0  0  0  0  0  0  0  0
   57.3830   31.1750   44.0730 C   0  0  0  0  0  0  0  0  0  0  0  0
   57.1400   32.3220   44.7290 C   0  0  0  0  0  0  0  0  0  0  0  0
   58.0420   32.9560   45.7070 C   0  0  0  0  0  0  0  0  0  0  0  0
   58.6750   34.1800   45.3780 C   0  0  0  0  0  0  0  0  0  0  0  0
   59.5000   34.8320   46.3140 C   0  0  0  0  0  0  0  0  0  0  0  0
   59.6470   34.2490   47.5680 C   0  0  0  0  0  0  0  0  0  0  0  0
   59.0210   33.0910   47.9000 C   0  0  0  0  0  0  0  0  0  0  0  0
   58.1990   32.4130   47.0040 C   0  0  0  0  0  0  0  0  0  0  0  0
   59.3370   32.7530   49.2020 O   0  0  0  0  0  0  0  0  0  0  0  0
   60.2190   33.7600   49.7190 C   0  0  0  0  0  0  0  0  0  0  0  0
   60.3900   34.6950   48.6440 O   0  0  0  0  0  0  0  0  0  0  0  0
   57.9990   29.0810   46.3900 C   0  0  0  0  0  0  0  0  0  0  0  0
   58.6350   30.7080   48.9300 H   0  0  0  0  0  0  0  0  0  0  0  0
   60.1030   30.8020   49.7340 H   0  0  0  0  0  0  0  0  0  0  0  0
   59.4719   26.3891   47.9052 H   0  0  0  0  0  0  0  0  0  0  0  0
   57.6930   25.2027   46.6221 H   0  0  0  0  0  0  0  0  0  0  0  0
   56.1134   26.4931   45.1848 H   0  0  0  0  0  0  0  0  0  0  0  0
   58.4047   31.0222   43.6951 H   0  0  0  0  0  0  0  0  0  0  0  0
   56.1877   32.8307   44.5184 H   0  0  0  0  0  0  0  0  0  0  0  0
   58.5207   34.6243   44.3836 H   0  0  0  0  0  0  0  0  0  0  0  0
   60.0119   35.7723   46.0616 H   0  0  0  0  0  0  0  0  0  0  0  0
   57.6874   31.4838   47.2954 H   0  0  0  0  0  0  0  0  0  0  0  0
   59.7703   34.2545   50.5932 H   0  0  0  0  0  0  0  0  0  0  0  0
   61.1776   33.3362   50.0530 H   0  0  0  0  0  0  0  0  0  0  0  0
   58.0744   30.1772   46.3390 H   0  0  0  0  0  0  0  0  0  0  0  0
  1  2  1  0
  2  3  2  0
  2  4  2  0
  2  5  1  0
  5  6  2  0
  6  7  1  0
  7  8  2  0
  8  9  1  0
  9 10  1  0
 10 11  1  0
 11 12  2  0
 11 13  1  0
 13 14  2  3
 14 15  1  0
 15 16  2  0
 16 17  1  0
 17 18  2  0
 18 19  1  0
 19 20  2  0
 19 21  1  0
 21 22  1  0
 22 23  1  0
  9 24  2  0
 24  5  1  0
 20 15  1  0
 23 18  1  0
  1 25  1  0
  1 26  1  0
  6 27  1  0
  7 28  1  0
  8 29  1  0
 13 30  1  0
 14 31  1  0
 16 32  1  0
 17 33  1  0
 20 34  1  0
 22 35  1  0
 22 36  1  0
 24 37  1  0
M  CHG  1  10  -1
M  END
>  <UniqueID>  (11) 
9

>  <SMILES>  (11) 
NS(=O)(=O)c1cccc([N-]C(=O)C=Cc2ccc3c(c2)OCO3)c1

>  <Energy>  (11) 
78.96254318677613

>  <Genealogy>  (11) 
NS(=O)(=O)c1cccc([N-]C(=O)C=Cc2ccc3c(c2)OCO3)c1 (protonated)
NS(=O)(=O)c1cccc([N-]C(=O)C=Cc2ccc3c(c2)OCO3)c1 (3D coordinates assigned)
NS(=O)(=O)c1cccc([N-]C(=O)C=Cc2ccc3c(c2)OCO3)c1 (nonaromatic ring conformer: 78.96254318677613 kcal/mol)

>  <smiles>  (11) 
NS(=O)(=O)c1cccc(NC(=O)C=Cc2ccc3c(c2)OCO3)c1

>  <score_type>  (11) 
oracle

>  <origin>  (11) 
adg

>  <m_score__min__energy>  (11) 
-10.130000000000001

>  <m_primary>  (11) 
energy

$$$$
11:0
     RDKit          3D

 42 44  0  0  0  0  0  0  0  0999 V2000
   51.2910   32.3540   51.1360 N   0  0  0  0  0  0  0  0  0  0  0  0
   51.7850   30.7140   51.3550 S   0  0  0  0  0  0  0  0  0  0  0  0
   51.9080   30.0360   50.0190 O   0  0  0  0  0  0  0  0  0  0  0  0
   50.7590   29.9890   52.1810 O   0  0  0  0  0  0  0  0  0  0  0  0
   53.3340   30.6750   52.1730 C   0  0  0  0  0  0  0  0  0  0  0  0
   54.5510   31.0280   51.6100 C   0  0  0  0  0  0  0  0  0  0  0  0
   55.6170   30.9010   52.5100 C   0  0  0  0  0  0  0  0  0  0  0  0
   57.2820   31.2630   52.0840 S   0  0  0  0  0  0  0  0  0  0  0  0
   57.4010   32.6970   51.6500 O   0  0  0  0  0  0  0  0  0  0  0  0
   58.1580   31.0320   53.2830 O   0  0  0  0  0  0  0  0  0  0  0  0
   57.7830   30.2160   50.7920 N   0  0  0  0  0  0  0  0  0  0  0  0
   59.1970   29.8610   50.9480 C   0  0  0  0  0  0  0  0  0  0  0  0
   60.0230   30.5080   49.8380 C   0  0  0  0  0  0  0  0  0  0  0  0
   59.4220   31.7810   49.4330 N   0  0  0  0  0  0  0  0  0  0  0  0
   59.9790   32.6420   48.4210 C   0  0  0  0  0  0  0  0  0  0  0  0
   61.3510   32.9530   48.4440 C   0  0  0  0  0  0  0  0  0  0  0  0
   61.9270   33.7260   47.4370 C   0  0  0  0  0  0  0  0  0  0  0  0
   61.1490   34.2030   46.3860 C   0  0  0  0  0  0  0  0  0  0  0  0
   59.7790   33.9170   46.3350 C   0  0  0  0  0  0  0  0  0  0  0  0
   59.0000   34.4090   45.2760 C   0  0  0  0  0  0  0  0  0  0  0  0
   57.6300   34.1470   45.2290 C   0  0  0  0  0  0  0  0  0  0  0  0
   57.0260   33.4000   46.2390 C   0  0  0  0  0  0  0  0  0  0  0  0
   57.7870   32.9010   47.3000 C   0  0  0  0  0  0  0  0  0  0  0  0
   59.1770   33.1370   47.3590 C   0  0  0  0  0  0  0  0  0  0  0  0
   55.2430   30.4560   53.7720 C   0  0  0  0  0  0  0  0  0  0  0  0
   53.5780   30.2150   53.7710 S   0  0  0  0  0  0  0  0  0  0  0  0
   50.2740   32.3370   50.8950 H   0  0  0  0  0  0  0  0  0  0  0  0
   54.6667   31.3701   50.5710 H   0  0  0  0  0  0  0  0  0  0  0  0
   57.2150   29.3410   50.8610 H   0  0  0  0  0  0  0  0  0  0  0  0
   59.5565   30.2173   51.9246 H   0  0  0  0  0  0  0  0  0  0  0  0
   59.3039   28.7679   50.8876 H   0  0  0  0  0  0  0  0  0  0  0  0
   61.0443   30.6892   50.2043 H   0  0  0  0  0  0  0  0  0  0  0  0
   60.0481   29.8322   48.9705 H   0  0  0  0  0  0  0  0  0  0  0  0
   58.5410   32.0640   49.9170 H   0  0  0  0  0  0  0  0  0  0  0  0
   61.9778   32.5811   49.2679 H   0  0  0  0  0  0  0  0  0  0  0  0
   63.0012   33.9601   47.4732 H   0  0  0  0  0  0  0  0  0  0  0  0
   61.6122   34.8072   45.5921 H   0  0  0  0  0  0  0  0  0  0  0  0
   59.4714   35.0037   44.4797 H   0  0  0  0  0  0  0  0  0  0  0  0
   57.0259   34.5306   44.3936 H   0  0  0  0  0  0  0  0  0  0  0  0
   55.9446   33.2021   46.2009 H   0  0  0  0  0  0  0  0  0  0  0  0
   57.2983   32.3195   48.0956 H   0  0  0  0  0  0  0  0  0  0  0  0
   55.9185   30.2900   54.6241 H   0  0  0  0  0  0  0  0  0  0  0  0
  1  2  1  0
  2  3  2  0
  2  4  2  0
  2  5  1  0
  5  6  2  0
  6  7  1  0
  7  8  1  0
  8  9  2  0
  8 10  2  0
  8 11  1  0
 11 12  1  0
 12 13  1  0
 13 14  1  0
 14 15  1  0
 15 16  2  0
 16 17  1  0
 17 18  2  0
 18 19  1  0
 19 20  2  0
 20 21  1  0
 21 22  2  0
 22 23  1  0
 23 24  2  0
  7 25  2  0
 25 26  1  0
 26  5  1  0
 24 15  1  0
 24 19  1  0
  1 27  1  0
  6 28  1  0
 11 29  1  0
 12 30  1  0
 12 31  1  0
 13 32  1  0
 13 33  1  0
 14 34  1  0
 16 35  1  0
 17 36  1  0
 18 37  1  0
 20 38  1  0
 21 39  1  0
 22 40  1  0
 23 41  1  0
 25 42  1  0
M  CHG  1   1  -1
M  END
>  <UniqueID>  (12) 
10

>  <SMILES>  (12) 
[NH-]S(=O)(=O)c1cc(S(=O)(=O)NCCNc2cccc3ccccc23)cs1

>  <Energy>  (12) 
72.08950055793939

>  <Genealogy>  (12) 
[NH-]S(=O)(=O)c1cc(S(=O)(=O)NCCNc2cccc3ccccc23)cs1 (protonated)
[NH-]S(=O)(=O)c1cc(S(=O)(=O)NCCNc2cccc3ccccc23)cs1 (3D coordinates assigned)
[NH-]S(=O)(=O)c1cc(S(=O)(=O)NCCNc2cccc3ccccc23)cs1 (optimized conformer: 72.08950055793939 kcal/mol)

>  <smiles>  (12) 
NS(=O)(=O)c1cc(S(=O)(=O)NCCNc2cccc3ccccc23)cs1

>  <score_type>  (12) 
oracle

>  <origin>  (12) 
adg

>  <m_score__min__energy>  (12) 
-11.960000000000001

>  <m_primary>  (12) 
energy

$$$$
12:0
     RDKit          3D

 37 38  0  0  0  0  0  0  0  0999 V2000
   55.1460   27.5030   45.5120 H   0  0  0  0  0  0  0  0  0  0  0  0
   55.1100   26.6630   46.0730 O   0  0  0  0  0  0  0  0  0  0  0  0
   56.1920   25.7890   46.2000 C   0  0  0  0  0  0  0  0  0  0  0  0
   55.9300   24.4400   46.4680 C   0  0  0  0  0  0  0  0  0  0  0  0
   54.8926   24.1024   46.6086 H   0  0  0  0  0  0  0  0  0  0  0  0
   56.9770   23.5200   46.5580 C   0  0  0  0  0  0  0  0  0  0  0  0
   56.7070   22.1850   46.8320 O   0  0  0  0  0  0  0  0  0  0  0  0
   58.2950   23.9400   46.3660 C   0  0  0  0  0  0  0  0  0  0  0  0
   59.1174   23.2115   46.4212 H   0  0  0  0  0  0  0  0  0  0  0  0
   58.5700   25.2840   46.1040 C   0  0  0  0  0  0  0  0  0  0  0  0
   59.6077   25.6061   45.9326 H   0  0  0  0  0  0  0  0  0  0  0  0
   57.5300   26.2270   46.0580 C   0  0  0  0  0  0  0  0  0  0  0  0
   57.8820   27.6480   45.8610 C   0  0  0  0  0  0  0  0  0  0  0  0
   58.4732   28.1404   46.6472 H   0  0  0  0  0  0  0  0  0  0  0  0
   57.5330   28.3830   44.7920 C   0  0  0  0  0  0  0  0  0  0  0  0
   57.8446   28.0136   43.8038 H   0  0  0  0  0  0  0  0  0  0  0  0
   56.7640   29.6490   44.8310 C   0  0  0  0  0  0  0  0  0  0  0  0
   55.5060   29.5820   44.8170 O   0  0  0  0  0  0  0  0  0  0  0  0
   57.4060   30.9840   44.8630 C   0  0  0  0  0  0  0  0  0  0  0  0
   57.3590   31.7890   43.7140 C   0  0  0  0  0  0  0  0  0  0  0  0
   56.8959   31.4009   42.7948 H   0  0  0  0  0  0  0  0  0  0  0  0
   57.8950   33.0780   43.7280 C   0  0  0  0  0  0  0  0  0  0  0  0
   57.8391   33.7040   42.8252 H   0  0  0  0  0  0  0  0  0  0  0  0
   58.5050   33.5790   44.8890 C   0  0  0  0  0  0  0  0  0  0  0  0
   59.0430   34.8730   44.9570 O   0  0  0  0  0  0  0  0  0  0  0  0
   59.6470   35.4320   46.1190 C   0  0  0  0  0  0  0  0  0  0  0  0
   59.1814   35.0011   47.0176 H   0  0  0  0  0  0  0  0  0  0  0  0
   60.7232   35.2042   46.1185 H   0  0  0  0  0  0  0  0  0  0  0  0
   59.5030   36.5225   46.1185 H   0  0  0  0  0  0  0  0  0  0  0  0
   58.5880   32.7660   46.0240 C   0  0  0  0  0  0  0  0  0  0  0  0
   59.0792   33.1489   46.9307 H   0  0  0  0  0  0  0  0  0  0  0  0
   58.0510   31.4630   46.0220 C   0  0  0  0  0  0  0  0  0  0  0  0
   58.1440   30.6260   47.1470 O   0  0  0  0  0  0  0  0  0  0  0  0
   59.3650   30.1640   47.7140 C   0  0  0  0  0  0  0  0  0  0  0  0
   59.2931   30.1912   48.8113 H   0  0  0  0  0  0  0  0  0  0  0  0
   59.5549   29.1319   47.3844 H   0  0  0  0  0  0  0  0  0  0  0  0
   60.1906   30.8119   47.3844 H   0  0  0  0  0  0  0  0  0  0  0  0
  1  2  1  0
  2  3  1  0
  3  4  2  0
  4  5  1  0
  4  6  1  0
  6  7  1  0
  6  8  2  0
  8  9  1  0
  8 10  1  0
 10 11  1  0
 10 12  2  0
 12 13  1  0
 13 14  1  0
 13 15  2  0
 15 16  1  0
 15 17  1  0
 17 18  2  0
 17 19  1  0
 19 20  2  0
 20 21  1  0
 20 22  1  0
 22 23  1  0
 22 24  2  0
 24 25  1  0
 25 26  1  0
 26 27  1  0
 26 28  1  0
 26 29  1  0
 24 30  1  0
 30 31  1  0
 30 32  2  0
 32 33  1  0
 33 34  1  0
 34 35  1  0
 34 36  1  0
 34 37  1  0
 12  3  1  0
 32 19  1  0
M  CHG  1   7  -1
M  END
>  <UniqueID>  (13) 
11

>  <SMILES>  (13) 
COc1ccc(C(=O)/C=C\c2ccc([O-])cc2O)c(OC)c1

>  <Energy>  (13) 
48.31617594756421

>  <Genealogy>  (13) 
COc1ccc(C(=O)C=Cc2ccc([O-])cc2O)c(OC)c1 (protonated)
COc1ccc(C(=O)/C=C\c2ccc([O-])cc2O)c(OC)c1 (cis-trans isomerization)
COc1ccc(C(=O)/C=C\c2ccc([O-])cc2O)c(OC)c1 (3D coordinates assigned)
COc1ccc(C(=O)/C=C\c2ccc([O-])cc2O)c(OC)c1 (optimized conformer: 48.31617594756421 kcal/mol)

>  <smiles>  (13) 
COc1ccc(C(=O)C=Cc2ccc(O)cc2O)c(OC)c1

>  <score_type>  (13) 
oracle

>  <origin>  (13) 
adg

>  <m_score__min__energy>  (13) 
-9.9100000000000001

>  <m_primary>  (13) 
energy

$$$$
13:0
     RDKit          3D

 43 45  0  0  0  0  0  0  0  0999 V2000
   60.6370   30.1560   46.8150 C   0  0  0  0  0  0  0  0  0  0  0  0
   59.1290   30.2850   46.6300 C   0  0  0  0  0  0  0  0  0  0  0  0
   58.6550   29.4380   45.4740 C   0  0  0  0  0  0  0  0  0  0  0  0
   59.2420   28.1790   45.2580 C   0  0  0  0  0  0  0  0  0  0  0  0
   58.8110   27.3670   44.2060 C   0  0  0  0  0  0  0  0  0  0  0  0
   57.7900   27.8020   43.3620 C   0  0  0  0  0  0  0  0  0  0  0  0
   57.1850   29.0430   43.5730 C   0  0  0  0  0  0  0  0  0  0  0  0
   57.5910   29.8610   44.6440 C   0  0  0  0  0  0  0  0  0  0  0  0
   56.9860   31.1440   44.8700 N   0  0  0  0  0  0  0  0  0  0  0  0
   57.4760   32.4110   44.4200 C   0  0  0  0  0  0  0  0  0  0  0  0
   57.9660   32.5420   43.2650 O   0  0  0  0  0  0  0  0  0  0  0  0
   57.3590   33.6030   45.3160 C   0  0  0  0  0  0  0  0  0  0  0  0
   58.2600   33.4550   46.4710 N   0  0  0  0  0  0  0  0  0  0  0  0
   57.7300   33.0910   47.6850 C   0  0  0  0  0  0  0  0  0  0  0  0
   58.5300   32.9280   48.7730 N   0  0  0  0  0  0  0  0  0  0  0  0
   59.8620   33.1080   48.6430 C   0  0  0  0  0  0  0  0  0  0  0  0
   61.0020   32.9840   49.8560 S   0  0  0  0  0  0  0  0  0  0  0  0
   62.3190   33.3640   48.8620 C   0  0  0  0  0  0  0  0  0  0  0  0
   63.7000   33.5150   49.3720 C   0  0  0  0  0  0  0  0  0  0  0  0
   64.8070   32.9920   48.6370 N   0  0  0  0  0  0  0  0  0  0  0  0
   63.9110   34.0730   50.4820 O   0  0  0  0  0  0  0  0  0  0  0  0
   61.8620   33.5650   47.5410 C   0  0  0  0  0  0  0  0  0  0  0  0
   62.7650   33.8590   46.3730 C   0  0  0  0  0  0  0  0  0  0  0  0
   60.4540   33.4450   47.4440 C   0  0  0  0  0  0  0  0  0  0  0  0
   59.6180   33.6320   46.3290 C   0  0  0  0  0  0  0  0  0  0  0  0
   60.1020   33.9700   45.2150 O   0  0  0  0  0  0  0  0  0  0  0  0
   60.8743   30.1357   47.8889 H   0  0  0  0  0  0  0  0  0  0  0  0
   60.9858   29.2247   46.3448 H   0  0  0  0  0  0  0  0  0  0  0  0
   61.1389   31.0145   46.3448 H   0  0  0  0  0  0  0  0  0  0  0  0
   58.6236   29.9550   47.5496 H   0  0  0  0  0  0  0  0  0  0  0  0
   58.8892   31.3372   46.4170 H   0  0  0  0  0  0  0  0  0  0  0  0
   60.0466   27.8306   45.9222 H   0  0  0  0  0  0  0  0  0  0  0  0
   59.2773   26.3841   44.0435 H   0  0  0  0  0  0  0  0  0  0  0  0
   57.4600   27.1659   42.5275 H   0  0  0  0  0  0  0  0  0  0  0  0
   56.3861   29.3833   42.8978 H   0  0  0  0  0  0  0  0  0  0  0  0
   57.6320   34.5088   44.7548 H   0  0  0  0  0  0  0  0  0  0  0  0
   56.3224   33.6847   45.6748 H   0  0  0  0  0  0  0  0  0  0  0  0
   56.6459   32.9294   47.7784 H   0  0  0  0  0  0  0  0  0  0  0  0
   65.7750   33.0680   49.0220 H   0  0  0  0  0  0  0  0  0  0  0  0
   64.6780   32.5560   47.6960 H   0  0  0  0  0  0  0  0  0  0  0  0
   63.7501   34.1797   46.7428 H   0  0  0  0  0  0  0  0  0  0  0  0
   62.8804   32.9520   45.7614 H   0  0  0  0  0  0  0  0  0  0  0  0
   62.3243   34.6601   45.7614 H   0  0  0  0  0  0  0  0  0  0  0  0
  1  2  1  0
  2  3  1  0
  3  4  2  0
  4  5  1  0
  5  6  2  0
  6  7  1  0
  7  8  2  0
  8  9  1  0
  9 10  1  0
 10 11  2  0
 10 12  1  0
 12 13  1  0
 13 14  1  0
 14 15  2  0
 15 16  1  0
 16 17  1  0
 17 18  1  0
 18 19  1  0
 19 20  1  0
 19 21  2  0
 18 22  2  0
 22 23  1  0
 22 24  1  0
 24 25  1  0
 25 26  2  0
  8  3  1  0
 25 13  1  0
 24 16  2  0
  1 27  1  0
  1 28  1  0
  1 29  1  0
  2 30  1  0
  2 31  1  0
  4 32  1  0
  5 33  1  0
  6 34  1  0
  7 35  1  0
 12 36  1  0
 12 37  1  0
 14 38  1  0
 20 39  1  0
 20 40  1  0
 23 41  1  0
 23 42  1  0
 23 43  1  0
M  CHG  1   9  -1
M  END
>  <UniqueID>  (14) 
12

>  <SMILES>  (14) 
CCc1ccccc1[N-]C(=O)Cn1cnc2sc(C(N)=O)c(C)c2c1=O

>  <Energy>  (14) 
82.54787814436762

>  <Genealogy>  (14) 
CCc1ccccc1[N-]C(=O)Cn1cnc2sc(C(N)=O)c(C)c2c1=O (protonated)
CCc1ccccc1[N-]C(=O)Cn1cnc2sc(C(N)=O)c(C)c2c1=O (3D coordinates assigned)
CCc1ccccc1[N-]C(=O)Cn1cnc2sc(C(N)=O)c(C)c2c1=O (optimized conformer: 82.54787814436762 kcal/mol)

>  <smiles>  (14) 
CCc1ccccc1NC(=O)Cn1cnc2sc(C(N)=O)c(C)c2c1=O

>  <score_type>  (14) 
oracle

>  <origin>  (14) 
adg

>  <m_score__min__energy>  (14) 
-9.6099999999999994

>  <m_primary>  (14) 
energy

$$$$
14:0
     RDKit          3D

 36 37  0  0  0  0  0  0  0  0999 V2000
   56.9960   29.2220   42.9850 N   0  0  0  0  0  0  0  0  0  0  0  0
   56.6420   29.8000   44.5500 S   0  0  0  0  0  0  0  0  0  0  0  0
   56.5710   31.3140   44.4960 O   0  0  0  0  0  0  0  0  0  0  0  0
   55.3010   29.3200   45.0280 O   0  0  0  0  0  0  0  0  0  0  0  0
   57.8200   29.2900   45.7380 C   0  0  0  0  0  0  0  0  0  0  0  0
   58.0930   27.9440   45.8770 C   0  0  0  0  0  0  0  0  0  0  0  0
   59.0210   27.4930   46.8070 C   0  0  0  0  0  0  0  0  0  0  0  0
   59.6980   28.3720   47.6170 C   0  0  0  0  0  0  0  0  0  0  0  0
   59.4220   29.7160   47.4750 C   0  0  0  0  0  0  0  0  0  0  0  0
   60.0690   30.7110   48.2660 N   0  0  0  0  0  0  0  0  0  0  0  0
   61.3020   31.3230   47.8340 C   0  0  0  0  0  0  0  0  0  0  0  0
   61.8460   30.9950   46.7370 O   0  0  0  0  0  0  0  0  0  0  0  0
   61.8910   32.3480   48.7350 C   0  0  0  0  0  0  0  0  0  0  0  0
   61.3440   33.6890   48.3020 C   0  0  0  0  0  0  0  0  0  0  0  0
   60.1120   33.5650   47.4750 C   0  0  0  0  0  0  0  0  0  0  0  0
   60.1280   33.7600   46.1370 N   0  0  0  0  0  0  0  0  0  0  0  0
   58.9890   33.6400   45.4180 C   0  0  0  0  0  0  0  0  0  0  0  0
   58.9940   33.8210   44.1650 O   0  0  0  0  0  0  0  0  0  0  0  0
   57.8270   33.3200   46.0560 N   0  0  0  0  0  0  0  0  0  0  0  0
   57.8010   33.1250   47.3730 N   0  0  0  0  0  0  0  0  0  0  0  0
   58.9240   33.2390   48.1210 C   0  0  0  0  0  0  0  0  0  0  0  0
   58.8740   33.0530   49.3460 O   0  0  0  0  0  0  0  0  0  0  0  0
   58.5000   30.1660   46.5510 C   0  0  0  0  0  0  0  0  0  0  0  0
   57.9730   29.4000   42.6720 H   0  0  0  0  0  0  0  0  0  0  0  0
   56.6790   28.2490   42.8000 H   0  0  0  0  0  0  0  0  0  0  0  0
   57.5671   27.2168   45.2410 H   0  0  0  0  0  0  0  0  0  0  0  0
   59.2170   26.4143   46.8963 H   0  0  0  0  0  0  0  0  0  0  0  0
   60.4343   28.0166   48.3529 H   0  0  0  0  0  0  0  0  0  0  0  0
   59.6270   30.9810   49.1650 H   0  0  0  0  0  0  0  0  0  0  0  0
   61.6053   32.1429   49.7773 H   0  0  0  0  0  0  0  0  0  0  0  0
   62.9893   32.3360   48.6758 H   0  0  0  0  0  0  0  0  0  0  0  0
   61.1079   34.2796   49.1995 H   0  0  0  0  0  0  0  0  0  0  0  0
   62.1118   34.1783   47.6847 H   0  0  0  0  0  0  0  0  0  0  0  0
   56.9390   33.2260   45.4910 H   0  0  0  0  0  0  0  0  0  0  0  0
   56.8670   32.8800   47.8040 H   0  0  0  0  0  0  0  0  0  0  0  0
   58.3059   31.2452   46.4636 H   0  0  0  0  0  0  0  0  0  0  0  0
  1  2  1  0
  2  3  2  0
  2  4  2  0
  2  5  1  0
  5  6  2  0
  6  7  1  0
  7  8  2  0
  8  9  1  0
  9 10  1  0
 10 11  1  0
 11 12  2  0
 11 13  1  0
 13 14  1  0
 14 15  1  0
 15 16  2  0
 16 17  1  0
 17 18  2  0
 17 19  1  0
 19 20  1  0
 20 21  1  0
 21 22  2  0
  9 23  2  0
 23  5  1  0
 21 15  1  0
  1 24  1  0
  1 25  1  0
  6 26  1  0
  7 27  1  0
  8 28  1  0
 10 29  1  0
 13 30  1  0
 13 31  1  0
 14 32  1  0
 14 33  1  0
 19 34  1  0
 20 35  1  0
 23 36  1  0
M  END
>  <smiles>  (15) 
NS(=O)(=O)c1cccc(NC(=O)CCc2nc(=O)[nH][nH]c2=O)c1

>  <score_type>  (15) 
oracle

>  <origin>  (15) 
adg

>  <m_score__min__energy>  (15) 
-8.5199999999999996

>  <m_primary>  (15) 
energy

$$$$
15:0
     RDKit          3D

 38 39  0  0  0  0  0  0  0  0999 V2000
   61.4550   30.8550   48.7920 C   0  0  0  0  0  0  0  0  0  0  0  0
   61.5700   30.9910   47.2790 C   0  0  0  0  0  0  0  0  0  0  0  0
   60.8870   32.2070   46.8260 N   0  0  0  0  0  0  0  0  0  0  0  0
   59.6540   32.1710   46.3160 N   0  0  0  0  0  0  0  0  0  0  0  0
   59.1950   33.3810   45.9280 C   0  0  0  0  0  0  0  0  0  0  0  0
   57.5540   33.6680   45.2630 S   0  0  0  0  0  0  0  0  0  0  0  0
   57.5680   32.2150   44.1530 C   0  0  0  0  0  0  0  0  0  0  0  0
   57.0190   31.0060   44.8390 C   0  0  0  0  0  0  0  0  0  0  0  0
   55.8930   30.5550   44.5000 O   0  0  0  0  0  0  0  0  0  0  0  0
   57.7340   30.4500   45.9500 N   0  0  0  0  0  0  0  0  0  0  0  0
   58.1590   29.0910   46.1110 C   0  0  0  0  0  0  0  0  0  0  0  0
   59.0420   28.7900   47.1560 C   0  0  0  0  0  0  0  0  0  0  0  0
   59.4720   27.4740   47.3700 C   0  0  0  0  0  0  0  0  0  0  0  0
   60.4230   27.1650   48.4880 C   0  0  0  0  0  0  0  0  0  0  0  0
   59.0570   26.4600   46.4950 C   0  0  0  0  0  0  0  0  0  0  0  0
   58.2090   26.7560   45.4170 C   0  0  0  0  0  0  0  0  0  0  0  0
   57.7450   25.6640   44.4990 C   0  0  0  0  0  0  0  0  0  0  0  0
   57.7510   28.0700   45.2360 C   0  0  0  0  0  0  0  0  0  0  0  0
   60.3490   34.5820   46.1840 S   0  0  0  0  0  0  0  0  0  0  0  0
   61.4260   33.4560   46.8230 C   0  0  0  0  0  0  0  0  0  0  0  0
   62.9220   33.8430   47.3690 S   0  0  0  0  0  0  0  0  0  0  0  0
   62.0924   31.6088   49.2774 H   0  0  0  0  0  0  0  0  0  0  0  0
   60.4090   31.0089   49.0955 H   0  0  0  0  0  0  0  0  0  0  0  0
   61.7806   29.8491   49.0955 H   0  0  0  0  0  0  0  0  0  0  0  0
   62.6323   31.0453   46.9989 H   0  0  0  0  0  0  0  0  0  0  0  0
   61.1001   30.1174   46.8036 H   0  0  0  0  0  0  0  0  0  0  0  0
   59.0930   31.2930   46.2360 H   0  0  0  0  0  0  0  0  0  0  0  0
   56.9544   32.4344   43.2668 H   0  0  0  0  0  0  0  0  0  0  0  0
   58.6086   32.0084   43.8625 H   0  0  0  0  0  0  0  0  0  0  0  0
   59.4011   29.5945   47.8147 H   0  0  0  0  0  0  0  0  0  0  0  0
   59.9203   27.3283   49.4527 H   0  0  0  0  0  0  0  0  0  0  0  0
   60.7455   26.1158   48.4156 H   0  0  0  0  0  0  0  0  0  0  0  0
   61.3006   27.8242   48.4156 H   0  0  0  0  0  0  0  0  0  0  0  0
   59.3982   25.4265   46.6546 H   0  0  0  0  0  0  0  0  0  0  0  0
   57.3834   24.8130   45.0949 H   0  0  0  0  0  0  0  0  0  0  0  0
   56.9291   26.0404   43.8645 H   0  0  0  0  0  0  0  0  0  0  0  0
   58.5823   25.3379   43.8645 H   0  0  0  0  0  0  0  0  0  0  0  0
   57.0690   28.3020   44.4047 H   0  0  0  0  0  0  0  0  0  0  0  0
  1  2  1  0
  2  3  1  0
  3  4  1  0
  4  5  2  0
  5  6  1  0
  6  7  1  0
  7  8  1  0
  8  9  2  0
  8 10  1  0
 10 11  1  0
 11 12  2  0
 12 13  1  0
 13 14  1  0
 13 15  2  0
 15 16  1  0
 16 17  1  0
 16 18  2  0
  5 19  1  0
 19 20  1  0
 20 21  2  0
 20  3  1  0
 18 11  1  0
  1 22  1  0
  1 23  1  0
  1 24  1  0
  2 25  1  0
  2 26  1  0
  4 27  1  0
  7 28  1  0
  7 29  1  0
 12 30  1  0
 14 31  1  0
 14 32  1  0
 14 33  1  0
 15 34  1  0
 17 35  1  0
 17 36  1  0
 17 37  1  0
 18 38  1  0
M  CHG  2   4   1  10  -1
M  END
>  <UniqueID>  (16) 
13

>  <SMILES>  (16) 
CCn1[nH+]c(SCC(=O)[N-]c2cc(C)cc(C)c2)sc1=S

>  <Energy>  (16) 
64.4515498583595

>  <Genealogy>  (16) 
CCn1[nH+]c(SCC(=O)[N-]c2cc(C)cc(C)c2)sc1=S (protonated)
CCn1[nH+]c(SCC(=O)[N-]c2cc(C)cc(C)c2)sc1=S (3D coordinates assigned)
CCn1[nH+]c(SCC(=O)[N-]c2cc(C)cc(C)c2)sc1=S (optimized conformer: 64.4515498583595 kcal/mol)

>  <smiles>  (16) 
CCn1nc(SCC(=O)Nc2cc(C)cc(C)c2)sc1=S

>  <score_type>  (16) 
oracle

>  <origin>  (16) 
adg

>  <m_score__min__energy>  (16) 
-8.2799999999999994

>  <m_primary>  (16) 
energy

$$$$
16:0
     RDKit          3D

 61 64  0  0  0  0  0  0  0  0999 V2000
   58.5060   34.1230   52.3910 C   0  0  0  0  0  0  0  0  0  0  0  0
   57.9510   32.8560   52.0520 O   0  0  0  0  0  0  0  0  0  0  0  0
   58.5980   31.8900   51.2650 C   0  0  0  0  0  0  0  0  0  0  0  0
   59.8920   32.0920   50.7470 C   0  0  0  0  0  0  0  0  0  0  0  0
   60.5000   31.1100   49.9640 C   0  0  0  0  0  0  0  0  0  0  0  0
   59.8220   29.9180   49.6720 C   0  0  0  0  0  0  0  0  0  0  0  0
   60.4320   28.8820   48.8920 N   0  0  0  0  0  0  0  0  0  0  0  0
   59.9890   28.4110   47.6120 C   0  0  0  0  0  0  0  0  0  0  0  0
   59.1510   27.4730   47.5670 O   0  0  0  0  0  0  0  0  0  0  0  0
   60.4490   29.0430   46.3240 C   0  0  0  0  0  0  0  0  0  0  0  0
   59.6380   30.2400   46.0210 N   0  0  0  0  0  0  0  0  0  0  0  0
   60.0360   31.4270   46.5760 C   0  0  0  0  0  0  0  0  0  0  0  0
   59.3350   32.6120   46.3450 C   0  0  0  0  0  0  0  0  0  0  0  0
   59.9080   34.1220   47.0600 S   0  0  0  0  0  0  0  0  0  0  0  0
   58.9450   34.6080   48.1080 O   0  0  0  0  0  0  0  0  0  0  0  0
   60.0120   35.1790   45.9960 O   0  0  0  0  0  0  0  0  0  0  0  0
   61.4770   33.8340   47.8040 C   0  0  0  0  0  0  0  0  0  0  0  0
   62.5230   33.2740   47.0640 C   0  0  0  0  0  0  0  0  0  0  0  0
   63.7560   33.0240   47.6700 C   0  0  0  0  0  0  0  0  0  0  0  0
   63.9600   33.3230   49.0280 C   0  0  0  0  0  0  0  0  0  0  0  0
   65.3030   33.0460   49.6500 C   0  0  0  0  0  0  0  0  0  0  0  0
   62.9060   33.9000   49.7760 C   0  0  0  0  0  0  0  0  0  0  0  0
   63.0740   34.2320   51.2360 C   0  0  0  0  0  0  0  0  0  0  0  0
   61.6680   34.1390   49.1550 C   0  0  0  0  0  0  0  0  0  0  0  0
   58.2150   32.5930   45.5080 C   0  0  0  0  0  0  0  0  0  0  0  0
   57.5870   33.6630   45.2770 O   0  0  0  0  0  0  0  0  0  0  0  0
   57.8030   31.3850   44.9220 C   0  0  0  0  0  0  0  0  0  0  0  0
   56.6800   31.3430   44.0710 C   0  0  0  0  0  0  0  0  0  0  0  0
   56.2850   30.1450   43.4790 C   0  0  0  0  0  0  0  0  0  0  0  0
   57.0020   28.9770   43.7210 C   0  0  0  0  0  0  0  0  0  0  0  0
   58.1170   28.9950   44.5610 C   0  0  0  0  0  0  0  0  0  0  0  0
   58.5380   30.1950   45.1840 C   0  0  0  0  0  0  0  0  0  0  0  0
   58.5490   29.7020   50.2080 C   0  0  0  0  0  0  0  0  0  0  0  0
   57.9250   30.6870   50.9970 C   0  0  0  0  0  0  0  0  0  0  0  0
   56.6400   30.5090   51.5330 O   0  0  0  0  0  0  0  0  0  0  0  0
   56.3550   30.3870   52.9230 C   0  0  0  0  0  0  0  0  0  0  0  0
   58.5498   34.2231   53.4856 H   0  0  0  0  0  0  0  0  0  0  0  0
   59.5211   34.2019   51.9746 H   0  0  0  0  0  0  0  0  0  0  0  0
   57.8757   34.9226   51.9746 H   0  0  0  0  0  0  0  0  0  0  0  0
   60.4265   33.0293   50.9609 H   0  0  0  0  0  0  0  0  0  0  0  0
   61.5158   31.2718   49.5741 H   0  0  0  0  0  0  0  0  0  0  0  0
   61.5051   29.3353   46.4203 H   0  0  0  0  0  0  0  0  0  0  0  0
   60.3318   28.3157   45.5071 H   0  0  0  0  0  0  0  0  0  0  0  0
   60.9286   31.4472   47.2186 H   0  0  0  0  0  0  0  0  0  0  0  0
   62.3742   33.0298   46.0018 H   0  0  0  0  0  0  0  0  0  0  0  0
   64.5753   32.5889   47.0789 H   0  0  0  0  0  0  0  0  0  0  0  0
   65.2105   33.0651   50.7459 H   0  0  0  0  0  0  0  0  0  0  0  0
   65.6584   32.0556   49.3292 H   0  0  0  0  0  0  0  0  0  0  0  0
   66.0213   33.8149   49.3292 H   0  0  0  0  0  0  0  0  0  0  0  0
   62.6611   33.4161   51.8474 H   0  0  0  0  0  0  0  0  0  0  0  0
   64.1431   34.3556   51.4633 H   0  0  0  0  0  0  0  0  0  0  0  0
   62.5404   35.1667   51.4633 H   0  0  0  0  0  0  0  0  0  0  0  0
   60.8409   34.5704   49.7379 H   0  0  0  0  0  0  0  0  0  0  0  0
   56.1110   32.2633   43.8727 H   0  0  0  0  0  0  0  0  0  0  0  0
   55.4050   30.1224   42.8193 H   0  0  0  0  0  0  0  0  0  0  0  0
   56.6885   28.0347   43.2479 H   0  0  0  0  0  0  0  0  0  0  0  0
   58.6758   28.0648   44.7413 H   0  0  0  0  0  0  0  0  0  0  0  0
   58.0295   28.7526   50.0112 H   0  0  0  0  0  0  0  0  0  0  0  0
   57.2122   30.7539   53.5066 H   0  0  0  0  0  0  0  0  0  0  0  0
   55.4629   30.9821   53.1680 H   0  0  0  0  0  0  0  0  0  0  0  0
   56.1698   29.3307   53.1680 H   0  0  0  0  0  0  0  0  0  0  0  0
  1  2  1  0
  2  3  1  0
  3  4  2  0
  4  5  1  0
  5  6  2  0
  6  7  1  0
  7  8  1  0
  8  9  2  0
  8 10  1  0
 10 11  1  0
 11 12  1  0
 12 13  2  0
 13 14  1  0
 14 15  2  0
 14 16  2  0
 14 17  1  0
 17 18  2  0
 18 19  1  0
 19 20  2  0
 20 21  1  0
 20 22  1  0
 22 23  1  0
 22 24  2  0
 13 25  1  0
 25 26  2  0
 25 27  1  0
 27 28  2  0
 28 29  1  0
 29 30  2  0
 30 31  1  0
 31 32  2  0
  6 33  1  0
 33 34  2  0
 34 35  1  0
 35 36  1  0
 34  3  1  0
 32 11  1  0
 24 17  1  0
 32 27  1  0
  1 37  1  0
  1 38  1  0
  1 39  1  0
  4 40  1  0
  5 41  1  0
 10 42  1  0
 10 43  1  0
 12 44  1  0
 18 45  1  0
 19 46  1  0
 21 47  1  0
 21 48  1  0
 21 49  1  0
 23 50  1  0
 23 51  1  0
 23 52  1  0
 24 53  1  0
 28 54  1  0
 29 55  1  0
 30 56  1  0
 31 57  1  0
 33 58  1  0
 36 59  1  0
 36 60  1  0
 36 61  1  0
M  CHG  1   7  -1
M  END
>  <UniqueID>  (17) 
14

>  <SMILES>  (17) 
COc1ccc([N-]C(=O)Cn2cc(S(=O)(=O)c3ccc(C)c(C)c3)c(=O)c3ccccc32)cc1OC

>  <Energy>  (17) 
79.95839679957625

>  <Genealogy>  (17) 
COc1ccc([N-]C(=O)Cn2cc(S(=O)(=O)c3ccc(C)c(C)c3)c(=O)c3ccccc32)cc1OC (protonated)
COc1ccc([N-]C(=O)Cn2cc(S(=O)(=O)c3ccc(C)c(C)c3)c(=O)c3ccccc32)cc1OC (3D coordinates assigned)
COc1ccc([N-]C(=O)Cn2cc(S(=O)(=O)c3ccc(C)c(C)c3)c(=O)c3ccccc32)cc1OC (optimized conformer: 79.95839679957625 kcal/mol)

>  <smiles>  (17) 
COc1ccc(NC(=O)Cn2cc(S(=O)(=O)c3ccc(C)c(C)c3)c(=O)c3ccccc32)cc1OC

>  <score_type>  (17) 
oracle

>  <origin>  (17) 
adg

>  <m_score__min__energy>  (17) 
-11.98

>  <m_primary>  (17) 
energy

$$$$
17:0
     RDKit          3D

 56 58  0  0  0  0  0  0  0  0999 V2000
   58.5110   31.9570   50.5380 C   0  0  0  0  0  0  0  0  0  0  0  0
   58.8430   31.6080   49.1990 O   0  0  0  0  0  0  0  0  0  0  0  0
   60.0700   31.8970   48.5810 C   0  0  0  0  0  0  0  0  0  0  0  0
   60.8530   33.0060   48.9580 C   0  0  0  0  0  0  0  0  0  0  0  0
   62.0630   33.2700   48.3120 C   0  0  0  0  0  0  0  0  0  0  0  0
   62.5070   32.4330   47.2870 C   0  0  0  0  0  0  0  0  0  0  0  0
   61.7410   31.3290   46.9050 C   0  0  0  0  0  0  0  0  0  0  0  0
   60.5240   31.0530   47.5490 C   0  0  0  0  0  0  0  0  0  0  0  0
   59.7530   29.9120   47.1480 N   0  0  0  0  0  0  0  0  0  0  0  0
   59.3810   29.7240   45.7420 C   0  0  0  0  0  0  0  0  0  0  0  0
   57.8840   29.6540   45.5790 C   0  0  0  0  0  0  0  0  0  0  0  0
   57.3090   28.5340   45.6240 O   0  0  0  0  0  0  0  0  0  0  0  0
   57.0660   30.8290   45.4560 N   0  0  0  0  0  0  0  0  0  0  0  0
   57.2330   31.9730   44.5560 C   0  0  2  0  0  0  0  0  0  0  0  0
   57.7620   31.5090   43.1930 C   0  0  0  0  0  0  0  0  0  0  0  0
   58.0080   33.0990   45.2240 C   0  0  0  0  0  0  0  0  0  0  0  0
   57.8140   33.3190   46.6010 C   0  0  0  0  0  0  0  0  0  0  0  0
   58.5200   34.3250   47.2680 C   0  0  0  0  0  0  0  0  0  0  0  0
   59.4280   35.1230   46.5720 C   0  0  0  0  0  0  0  0  0  0  0  0
   59.6270   34.9230   45.2040 C   0  0  0  0  0  0  0  0  0  0  0  0
   58.9240   33.9200   44.5300 C   0  0  0  0  0  0  0  0  0  0  0  0
   59.4200   28.6500   48.2960 S   0  0  0  0  0  0  0  0  0  0  0  0
   60.5730   28.5350   49.2510 O   0  0  0  0  0  0  0  0  0  0  0  0
   58.1770   28.9670   49.0790 O   0  0  0  0  0  0  0  0  0  0  0  0
   59.1800   27.1290   47.4390 C   0  0  0  0  0  0  0  0  0  0  0  0
   57.9100   26.5410   47.4050 C   0  0  0  0  0  0  0  0  0  0  0  0
   57.6970   25.3680   46.6770 C   0  0  0  0  0  0  0  0  0  0  0  0
   58.7500   24.7770   45.9620 C   0  0  0  0  0  0  0  0  0  0  0  0
   58.5310   23.5040   45.2010 C   0  0  0  0  0  0  0  0  0  0  0  0
   60.0270   25.3560   46.0170 C   0  0  0  0  0  0  0  0  0  0  0  0
   60.2400   26.5290   46.7460 C   0  0  0  0  0  0  0  0  0  0  0  0
   59.0981   31.3399   51.2341 H   0  0  0  0  0  0  0  0  0  0  0  0
   58.7399   33.0195   50.7075 H   0  0  0  0  0  0  0  0  0  0  0  0
   57.4384   31.7814   50.7075 H   0  0  0  0  0  0  0  0  0  0  0  0
   60.5092   33.6682   49.7663 H   0  0  0  0  0  0  0  0  0  0  0  0
   62.6671   34.1391   48.6116 H   0  0  0  0  0  0  0  0  0  0  0  0
   63.4603   32.6428   46.7799 H   0  0  0  0  0  0  0  0  0  0  0  0
   62.0929   30.6725   46.0956 H   0  0  0  0  0  0  0  0  0  0  0  0
   59.7670   30.5688   45.1526 H   0  0  0  0  0  0  0  0  0  0  0  0
   59.8144   28.7760   45.3907 H   0  0  0  0  0  0  0  0  0  0  0  0
   56.2548   32.4265   44.3383 H   0  0  0  0  0  0  0  0  0  0  0  0
   58.5812   30.7904   43.3429 H   0  0  0  0  0  0  0  0  0  0  0  0
   56.9498   31.0267   42.6293 H   0  0  0  0  0  0  0  0  0  0  0  0
   58.1343   32.3771   42.6293 H   0  0  0  0  0  0  0  0  0  0  0  0
   57.1003   32.6936   47.1574 H   0  0  0  0  0  0  0  0  0  0  0  0
   58.3590   34.4874   48.3440 H   0  0  0  0  0  0  0  0  0  0  0  0
   59.9871   35.9094   47.1002 H   0  0  0  0  0  0  0  0  0  0  0  0
   60.3392   35.5567   44.6552 H   0  0  0  0  0  0  0  0  0  0  0  0
   59.0853   33.7693   43.4524 H   0  0  0  0  0  0  0  0  0  0  0  0
   57.0767   27.0044   47.9536 H   0  0  0  0  0  0  0  0  0  0  0  0
   56.6991   24.9054   46.6641 H   0  0  0  0  0  0  0  0  0  0  0  0
   58.3882   22.6739   45.9084 H   0  0  0  0  0  0  0  0  0  0  0  0
   57.6369   23.6043   44.5681 H   0  0  0  0  0  0  0  0  0  0  0  0
   59.4072   23.2998   44.5681 H   0  0  0  0  0  0  0  0  0  0  0  0
   60.8650   24.8839   45.4833 H   0  0  0  0  0  0  0  0  0  0  0  0
   61.2418   26.9823   46.7759 H   0  0  0  0  0  0  0  0  0  0  0  0
  1  2  1  0
  2  3  1  0
  3  4  2  0
  4  5  1  0
  5  6  2  0
  6  7  1  0
  7  8  2  0
  8  9  1  0
  9 10  1  0
 10 11  1  0
 11 12  2  0
 11 13  1  0
 13 14  1  0
 14 15  1  0
 14 16  1  0
 16 17  2  0
 17 18  1  0
 18 19  2  0
 19 20  1  0
 20 21  2  0
  9 22  1  0
 22 23  2  0
 22 24  2  0
 22 25  1  0
 25 26  2  0
 26 27  1  0
 27 28  2  0
 28 29  1  0
 28 30  1  0
 30 31  2  0
  8  3  1  0
 21 16  1  0
 31 25  1  0
  1 32  1  0
  1 33  1  0
  1 34  1  0
  4 35  1  0
  5 36  1  0
  6 37  1  0
  7 38  1  0
 10 39  1  0
 10 40  1  0
 14 41  1  6
 15 42  1  0
 15 43  1  0
 15 44  1  0
 17 45  1  0
 18 46  1  0
 19 47  1  0
 20 48  1  0
 21 49  1  0
 26 50  1  0
 27 51  1  0
 29 52  1  0
 29 53  1  0
 29 54  1  0
 30 55  1  0
 31 56  1  0
M  CHG  1  13  -1
M  END
>  <UniqueID>  (18) 
15

>  <SMILES>  (18) 
COc1ccccc1N(CC(=O)[N-][C@H](C)c1ccccc1)S(=O)(=O)c1ccc(C)cc1

>  <Energy>  (18) 
61.45263787959824

>  <Genealogy>  (18) 
COc1ccccc1N(CC(=O)[N-]C(C)c1ccccc1)S(=O)(=O)c1ccc(C)cc1 (protonated)
COc1ccccc1N(CC(=O)[N-][C@H](C)c1ccccc1)S(=O)(=O)c1ccc(C)cc1 (chirality)
COc1ccccc1N(CC(=O)[N-][C@H](C)c1ccccc1)S(=O)(=O)c1ccc(C)cc1 (3D coordinates assigned)
COc1ccccc1N(CC(=O)[N-][C@H](C)c1ccccc1)S(=O)(=O)c1ccc(C)cc1 (optimized conformer: 61.45263787959824 kcal/mol)

>  <smiles>  (18) 
COc1ccccc1N(CC(=O)NC(C)c1ccccc1)S(=O)(=O)c1ccc(C)cc1

>  <score_type>  (18) 
oracle

>  <origin>  (18) 
adg

>  <m_score__min__energy>  (18) 
-10.720000000000001

>  <m_primary>  (18) 
energy

$$$$
18:0
     RDKit          3D

 27 28  0  0  1  0  0  0  0  0999 V2000
   59.7010   35.5790   46.5690 O   0  0  0  0  0  0  0  0  0  0  0  0
   58.9940   34.5980   46.1900 C   0  0  0  0  0  0  0  0  0  0  0  0
   58.2190   34.7100   45.0700 N   0  0  0  0  0  0  0  0  0  0  0  0
   57.4640   33.7170   44.6360 N   0  0  0  0  0  0  0  0  0  0  0  0
   57.4110   32.5120   45.2800 C   0  0  0  0  0  0  0  0  0  0  0  0
   56.6740   31.5450   44.8570 N   0  0  0  0  0  0  0  0  0  0  0  0
   57.2330   30.6700   43.8490 C   0  0  0  0  0  0  0  0  0  0  0  0
   57.6460   29.3670   44.4290 C   0  0  0  0  0  0  0  0  0  0  0  0
   58.9280   28.8700   44.3160 C   0  0  0  0  0  0  0  0  0  0  0  0
   59.2110   27.6510   44.8880 C   0  0  0  0  0  0  0  0  0  0  0  0
   58.2300   26.9490   45.5610 C   0  0  0  0  0  0  0  0  0  0  0  0
   56.9370   27.4250   45.6900 C   0  0  0  0  0  0  0  0  0  0  0  0
   56.6440   28.6650   45.1080 C   0  0  0  0  0  0  0  0  0  0  0  0
   55.3440   29.1900   45.2120 O   0  0  0  0  0  0  0  0  0  0  0  0
   58.2030   32.4030   46.4210 C   0  0  0  0  0  0  0  0  0  0  0  0
   58.1630   31.3000   47.0260 O   0  0  0  0  0  0  0  0  0  0  0  0
   58.9700   33.4240   46.8550 N   0  0  0  0  0  0  0  0  0  0  0  0
   58.2220   35.6160   44.5290 H   0  0  0  0  0  0  0  0  0  0  0  0
   56.8950   33.8700   43.7770 H   0  0  0  0  0  0  0  0  0  0  0  0
   56.4761   30.4913   43.0710 H   0  0  0  0  0  0  0  0  0  0  0  0
   58.1233   31.1568   43.4242 H   0  0  0  0  0  0  0  0  0  0  0  0
   59.7057   29.4350   43.7812 H   0  0  0  0  0  0  0  0  0  0  0  0
   60.2253   27.2327   44.8088 H   0  0  0  0  0  0  0  0  0  0  0  0
   58.4855   25.9778   46.0100 H   0  0  0  0  0  0  0  0  0  0  0  0
   56.1686   26.8515   46.2290 H   0  0  0  0  0  0  0  0  0  0  0  0
   55.1880   30.0960   45.6210 H   0  0  0  0  0  0  0  0  0  0  0  0
   59.5600   33.3340   47.7140 H   0  0  0  0  0  0  0  0  0  0  0  0
  1  2  2  0
  2  3  1  0
  3  4  1  0
  4  5  1  0
  5  6  2  0
  6  7  1  0
  7  8  1  0
  8  9  2  0
  9 10  1  0
 10 11  2  0
 11 12  1  0
 12 13  2  0
 13 14  1  0
  5 15  1  0
 15 16  2  0
 15 17  1  0
 17  2  1  0
 13  8  1  0
  3 18  1  0
  4 19  1  0
  7 20  1  0
  7 21  1  0
  9 22  1  0
 10 23  1  0
 11 24  1  0
 12 25  1  0
 14 26  1  0
 17 27  1  0
M  END
>  <smiles>  (19) 
O=c1[nH][nH]c(=NCc2ccccc2O)c(=O)[nH]1

>  <score_type>  (19) 
oracle

>  <origin>  (19) 
adg

>  <m_score__min__energy>  (19) 
-7.1399999999999997

>  <m_primary>  (19) 
energy

$$$$
19:0
     RDKit          3D

 49 52  0  0  0  0  0  0  0  0999 V2000
   57.5600   27.7640   42.9400 O   0  0  0  0  0  0  0  0  0  0  0  0
   58.6820   27.6390   43.7670 C   0  0  0  0  0  0  0  0  0  0  0  0
   58.3330   26.8430   45.0040 C   0  0  0  0  0  0  0  0  0  0  0  0
   57.6590   25.6180   44.8370 C   0  0  0  0  0  0  0  0  0  0  0  0
   57.2240   24.8860   45.9390 C   0  0  0  0  0  0  0  0  0  0  0  0
   57.4340   25.3710   47.2260 C   0  0  0  0  0  0  0  0  0  0  0  0
   58.1140   26.5740   47.4180 C   0  0  0  0  0  0  0  0  0  0  0  0
   58.6160   27.3040   46.3240 C   0  0  0  0  0  0  0  0  0  0  0  0
   59.4160   28.5750   46.5990 C   0  0  0  0  0  0  0  0  0  0  0  0
   58.6070   29.8250   46.6870 N   0  0  0  0  0  0  0  0  0  0  0  0
   58.5930   30.6270   45.4450 C   0  0  0  0  0  0  0  0  0  0  0  0
   57.3650   30.3240   44.6430 C   0  0  0  0  0  0  0  0  0  0  0  0
   57.1420   30.6750   43.3320 C   0  0  0  0  0  0  0  0  0  0  0  0
   55.9110   30.2700   42.9780 N   0  0  0  0  0  0  0  0  0  0  0  0
   55.4230   29.6870   44.0940 C   0  0  0  0  0  0  0  0  0  0  0  0
   56.2810   29.7030   45.1360 N   0  0  0  0  0  0  0  0  0  0  0  0
   58.8980   30.6590   47.8760 C   0  0  0  0  0  0  0  0  0  0  0  0
   59.4370   32.0230   47.4890 C   0  0  0  0  0  0  0  0  0  0  0  0
   58.5170   33.0560   47.2370 C   0  0  0  0  0  0  0  0  0  0  0  0
   58.9510   34.3240   46.8530 C   0  0  0  0  0  0  0  0  0  0  0  0
   60.3110   34.5880   46.7130 C   0  0  0  0  0  0  0  0  0  0  0  0
   61.2560   33.5830   46.9600 C   0  0  0  0  0  0  0  0  0  0  0  0
   62.6250   33.8600   46.8170 C   0  0  0  0  0  0  0  0  0  0  0  0
   63.5720   32.8660   47.0650 C   0  0  0  0  0  0  0  0  0  0  0  0
   63.1650   31.5920   47.4590 C   0  0  0  0  0  0  0  0  0  0  0  0
   61.8070   31.3020   47.6060 C   0  0  0  0  0  0  0  0  0  0  0  0
   60.8280   32.2870   47.3560 C   0  0  0  0  0  0  0  0  0  0  0  0
   56.9120   28.3290   43.4370 H   0  0  0  0  0  0  0  0  0  0  0  0
   59.4830   27.1233   43.2171 H   0  0  0  0  0  0  0  0  0  0  0  0
   59.0189   28.6417   44.0687 H   0  0  0  0  0  0  0  0  0  0  0  0
   57.4737   25.2342   43.8229 H   0  0  0  0  0  0  0  0  0  0  0  0
   56.7136   23.9228   45.7916 H   0  0  0  0  0  0  0  0  0  0  0  0
   57.0634   24.8051   48.0934 H   0  0  0  0  0  0  0  0  0  0  0  0
   58.2599   26.9575   48.4386 H   0  0  0  0  0  0  0  0  0  0  0  0
   59.9460   28.4442   47.5540 H   0  0  0  0  0  0  0  0  0  0  0  0
   60.0891   28.7055   45.7388 H   0  0  0  0  0  0  0  0  0  0  0  0
   58.6026   31.6961   45.7036 H   0  0  0  0  0  0  0  0  0  0  0  0
   59.4813   30.3753   44.8471 H   0  0  0  0  0  0  0  0  0  0  0  0
   57.8549   31.2012   42.6801 H   0  0  0  0  0  0  0  0  0  0  0  0
   54.4192   29.2404   44.1489 H   0  0  0  0  0  0  0  0  0  0  0  0
   57.9708   30.7930   48.4525 H   0  0  0  0  0  0  0  0  0  0  0  0
   59.6649   30.1455   48.4745 H   0  0  0  0  0  0  0  0  0  0  0  0
   57.4398   32.8609   47.3443 H   0  0  0  0  0  0  0  0  0  0  0  0
   58.2160   35.1193   46.6598 H   0  0  0  0  0  0  0  0  0  0  0  0
   60.6453   35.5903   46.4070 H   0  0  0  0  0  0  0  0  0  0  0  0
   62.9519   34.8640   46.5084 H   0  0  0  0  0  0  0  0  0  0  0  0
   64.6431   33.0881   46.9493 H   0  0  0  0  0  0  0  0  0  0  0  0
   63.9162   30.8127   47.6547 H   0  0  0  0  0  0  0  0  0  0  0  0
   61.4969   30.2945   47.9202 H   0  0  0  0  0  0  0  0  0  0  0  0
  1  2  1  0
  2  3  1  0
  3  4  2  0
  4  5  1  0
  5  6  2  0
  6  7  1  0
  7  8  2  0
  8  9  1  0
  9 10  1  0
 10 11  1  0
 11 12  1  0
 12 13  2  0
 13 14  1  0
 14 15  1  0
 15 16  2  0
 10 17  1  0
 17 18  1  0
 18 19  2  0
 19 20  1  0
 20 21  2  0
 21 22  1  0
 22 23  2  0
 23 24  1  0
 24 25  2  0
 25 26  1  0
 26 27  2  0
  8  3  1  0
 16 12  1  0
 27 18  1  0
 27 22  1  0
  1 28  1  0
  2 29  1  0
  2 30  1  0
  4 31  1  0
  5 32  1  0
  6 33  1  0
  7 34  1  0
  9 35  1  0
  9 36  1  0
 11 37  1  0
 11 38  1  0
 13 39  1  0
 15 40  1  0
 17 41  1  0
 17 42  1  0
 19 43  1  0
 20 44  1  0
 21 45  1  0
 23 46  1  0
 24 47  1  0
 25 48  1  0
 26 49  1  0
M  CHG  1  14  -1
M  END
>  <UniqueID>  (20) 
16

>  <SMILES>  (20) 
OCc1ccccc1CN(Cc1c[n-]cn1)Cc1cccc2ccccc12

>  <Energy>  (20) 
95.0895270866215

>  <Genealogy>  (20) 
OCc1ccccc1CN(Cc1c[n-]cn1)Cc1cccc2ccccc12 (protonated)
OCc1ccccc1CN(Cc1c[n-]cn1)Cc1cccc2ccccc12 (3D coordinates assigned)
OCc1ccccc1CN(Cc1c[n-]cn1)Cc1cccc2ccccc12 (optimized conformer: 95.0895270866215 kcal/mol)

>  <smiles>  (20) 
OCc1ccccc1CN(Cc1c[nH]cn1)Cc1cccc2ccccc12

>  <score_type>  (20) 
oracle

>  <origin>  (20) 
adg

>  <m_score__min__energy>  (20) 
-9.7100000000000009

>  <m_primary>  (20) 
energy

$$$$
20:0
     RDKit          3D

 54 56  0  0  0  0  0  0  0  0999 V2000
   58.2680   33.7180   52.7820 C   0  0  0  0  0  0  0  0  0  0  0  0
   59.5310   33.7600   51.9850 C   0  0  0  0  0  0  0  0  0  0  0  0
   60.5860   34.2090   52.5110 O   0  0  0  0  0  0  0  0  0  0  0  0
   59.5480   33.2560   50.6430 N   0  0  0  0  0  0  0  0  0  0  0  0
   60.7470   33.2330   49.8530 C   0  0  0  0  0  0  0  0  0  0  0  0
   60.7720   33.6990   48.5210 C   0  0  0  0  0  0  0  0  0  0  0  0
   59.4730   34.1280   47.8480 C   0  0  0  0  0  0  0  0  0  0  0  0
   58.4230   33.2070   48.1380 O   0  0  0  0  0  0  0  0  0  0  0  0
   58.5670   31.8190   48.0290 C   0  0  0  0  0  0  0  0  0  0  0  0
   58.7600   31.1240   49.0640 O   0  0  0  0  0  0  0  0  0  0  0  0
   58.5210   31.1840   46.6910 C   0  0  0  0  0  0  0  0  0  0  0  0
   57.8350   31.8500   45.6580 C   0  0  0  0  0  0  0  0  0  0  0  0
   57.7780   31.3070   44.3730 C   0  0  0  0  0  0  0  0  0  0  0  0
   58.3990   30.0890   44.1000 C   0  0  0  0  0  0  0  0  0  0  0  0
   59.0690   29.4050   45.1140 C   0  0  0  0  0  0  0  0  0  0  0  0
   59.1280   29.9310   46.4130 C   0  0  0  0  0  0  0  0  0  0  0  0
   59.9390   28.9370   47.6780 S   0  0  0  0  0  0  0  0  0  0  0  0
   59.3200   27.3940   47.0030 C   0  0  0  0  0  0  0  0  0  0  0  0
   60.2120   26.4270   46.5290 C   0  0  0  0  0  0  0  0  0  0  0  0
   59.7290   25.2220   46.0130 C   0  0  0  0  0  0  0  0  0  0  0  0
   58.3540   24.9810   45.9650 C   0  0  0  0  0  0  0  0  0  0  0  0
   57.4440   25.9490   46.4300 C   0  0  0  0  0  0  0  0  0  0  0  0
   55.9860   25.7000   46.3790 C   0  0  0  0  0  0  0  0  0  0  0  0
   55.5160   24.5760   46.7000 O   0  0  0  0  0  0  0  0  0  0  0  0
   55.1150   26.7050   45.9740 O   0  0  0  0  0  0  0  0  0  0  0  0
   57.9400   27.1590   46.9460 C   0  0  0  0  0  0  0  0  0  0  0  0
   61.9630   33.6960   47.8290 N   0  0  0  0  0  0  0  0  0  0  0  0
   62.0360   34.1930   46.4390 C   0  0  0  0  0  0  0  0  0  0  0  0
   63.0910   33.1530   48.3980 C   0  0  0  0  0  0  0  0  0  0  0  0
   64.1580   33.0700   47.7230 O   0  0  0  0  0  0  0  0  0  0  0  0
   63.0750   32.6890   49.6870 N   0  0  0  0  0  0  0  0  0  0  0  0
   64.2930   32.0960   50.2720 C   0  0  0  0  0  0  0  0  0  0  0  0
   61.9140   32.7070   50.4070 C   0  0  0  0  0  0  0  0  0  0  0  0
   61.8820   32.2500   51.5830 O   0  0  0  0  0  0  0  0  0  0  0  0
   58.5110   33.7261   53.8548 H   0  0  0  0  0  0  0  0  0  0  0  0
   57.6517   34.5961   52.5390 H   0  0  0  0  0  0  0  0  0  0  0  0
   57.7114   32.8008   52.5390 H   0  0  0  0  0  0  0  0  0  0  0  0
   58.7160   32.7250   50.2980 H   0  0  0  0  0  0  0  0  0  0  0  0
   59.1892   35.1254   48.2150 H   0  0  0  0  0  0  0  0  0  0  0  0
   59.6310   34.1506   46.7596 H   0  0  0  0  0  0  0  0  0  0  0  0
   57.3381   32.8092   45.8655 H   0  0  0  0  0  0  0  0  0  0  0  0
   57.2421   31.8412   43.5745 H   0  0  0  0  0  0  0  0  0  0  0  0
   58.3605   29.6675   43.0847 H   0  0  0  0  0  0  0  0  0  0  0  0
   59.5559   28.4437   44.8930 H   0  0  0  0  0  0  0  0  0  0  0  0
   61.2952   26.6154   46.5625 H   0  0  0  0  0  0  0  0  0  0  0  0
   60.4328   24.4615   45.6438 H   0  0  0  0  0  0  0  0  0  0  0  0
   57.9799   24.0286   45.5612 H   0  0  0  0  0  0  0  0  0  0  0  0
   57.2398   27.9265   47.3075 H   0  0  0  0  0  0  0  0  0  0  0  0
   62.1958   35.2813   46.4466 H   0  0  0  0  0  0  0  0  0  0  0  0
   62.8719   33.7033   45.9179 H   0  0  0  0  0  0  0  0  0  0  0  0
   61.0946   33.9643   45.9179 H   0  0  0  0  0  0  0  0  0  0  0  0
   64.2260   32.1286   51.3695 H   0  0  0  0  0  0  0  0  0  0  0  0
   64.3873   31.0511   49.9413 H   0  0  0  0  0  0  0  0  0  0  0  0
   65.1736   32.6662   49.9413 H   0  0  0  0  0  0  0  0  0  0  0  0
  1  2  1  0
  2  3  2  0
  2  4  1  0
  4  5  1  0
  5  6  2  0
  6  7  1  0
  7  8  1  0
  8  9  1  0
  9 10  2  0
  9 11  1  0
 11 12  2  0
 12 13  1  0
 13 14  2  0
 14 15  1  0
 15 16  2  0
 16 17  1  0
 17 18  1  0
 18 19  2  0
 19 20  1  0
 20 21  2  0
 21 22  1  0
 22 23  1  0
 23 24  2  0
 23 25  1  0
 22 26  2  0
  6 27  1  0
 27 28  1  0
 27 29  1  0
 29 30  2  0
 29 31  1  0
 31 32  1  0
 31 33  1  0
 33 34  2  0
 33  5  1  0
 16 11  1  0
 26 18  1  0
  1 35  1  0
  1 36  1  0
  1 37  1  0
  4 38  1  0
  7 39  1  0
  7 40  1  0
 12 41  1  0
 13 42  1  0
 14 43  1  0
 15 44  1  0
 19 45  1  0
 20 46  1  0
 21 47  1  0
 26 48  1  0
 28 49  1  0
 28 50  1  0
 28 51  1  0
 32 52  1  0
 32 53  1  0
 32 54  1  0
M  CHG  1  25  -1
M  END
>  <UniqueID>  (21) 
17

>  <SMILES>  (21) 
CC(=O)Nc1c(COC(=O)c2ccccc2Sc2cccc(C(=O)[O-])c2)n(C)c(=O)n(C)c1=O

>  <Energy>  (21) 
69.4783647162644

>  <Genealogy>  (21) 
CC(=O)Nc1c(COC(=O)c2ccccc2Sc2cccc(C(=O)[O-])c2)n(C)c(=O)n(C)c1=O (protonated)
CC(=O)Nc1c(COC(=O)c2ccccc2Sc2cccc(C(=O)[O-])c2)n(C)c(=O)n(C)c1=O (3D coordinates assigned)
CC(=O)Nc1c(COC(=O)c2ccccc2Sc2cccc(C(=O)[O-])c2)n(C)c(=O)n(C)c1=O (optimized conformer: 69.4783647162644 kcal/mol)

>  <smiles>  (21) 
CC(=O)Nc1c(COC(=O)c2ccccc2Sc2cccc(C(=O)O)c2)n(C)c(=O)n(C)c1=O

>  <score_type>  (21) 
oracle

>  <origin>  (21) 
adg

>  <m_score__min__energy>  (21) 
-11.279999999999999

>  <m_primary>  (21) 
energy

$$$$
21:0
     RDKit          3D

 48 50  0  0  0  0  0  0  0  0999 V2000
   58.1630   32.7120   48.0370 C   0  0  0  0  0  0  0  0  0  0  0  0
   58.6450   33.0340   46.6940 N   0  0  0  0  0  0  0  0  0  0  0  0
   58.0150   32.4500   45.5430 C   0  0  0  0  0  0  0  0  0  0  0  0
   57.3500   33.1860   44.7630 O   0  0  0  0  0  0  0  0  0  0  0  0
   58.1260   31.0030   45.2550 C   0  0  0  0  0  0  0  0  0  0  0  0
   59.3490   30.3330   45.4150 C   0  0  0  0  0  0  0  0  0  0  0  0
   59.4540   28.9720   45.1210 C   0  0  0  0  0  0  0  0  0  0  0  0
   58.3450   28.2610   44.6360 C   0  0  0  0  0  0  0  0  0  0  0  0
   58.4630   26.7880   44.3210 C   0  0  0  0  0  0  0  0  0  0  0  0
   58.1300   25.8990   45.4570 N   0  0  0  0  0  0  0  0  0  0  0  0
   58.3320   24.4530   45.2480 C   0  0  0  0  0  0  0  0  0  0  0  0
   57.1240   23.7530   44.5990 C   0  0  0  0  0  0  0  0  0  0  0  0
   55.8540   24.2170   45.1490 N   0  0  0  0  0  0  0  0  0  0  0  0
   55.7160   25.4980   45.7640 C   0  0  0  0  0  0  0  0  0  0  0  0
   54.5670   25.9640   45.9860 O   0  0  0  0  0  0  0  0  0  0  0  0
   56.9240   26.2510   46.2290 C   0  0  0  0  0  0  0  0  0  0  0  0
   57.1190   28.9290   44.4860 C   0  0  0  0  0  0  0  0  0  0  0  0
   57.0150   30.2900   44.7790 C   0  0  0  0  0  0  0  0  0  0  0  0
   59.7890   34.3260   46.4900 S   0  0  0  0  0  0  0  0  0  0  0  0
   59.2470   35.5730   47.1290 O   0  0  0  0  0  0  0  0  0  0  0  0
   60.0190   34.5900   45.0280 O   0  0  0  0  0  0  0  0  0  0  0  0
   61.3250   33.8640   47.2220 C   0  0  0  0  0  0  0  0  0  0  0  0
   62.4170   33.5090   46.4180 C   0  0  0  0  0  0  0  0  0  0  0  0
   63.6380   33.1600   47.0040 C   0  0  0  0  0  0  0  0  0  0  0  0
   63.7740   33.1650   48.3940 C   0  0  0  0  0  0  0  0  0  0  0  0
   62.6890   33.5210   49.2010 C   0  0  0  0  0  0  0  0  0  0  0  0
   61.4670   33.8710   48.6200 C   0  0  0  0  0  0  0  0  0  0  0  0
   60.4260   34.2180   49.4180 F   0  0  0  0  0  0  0  0  0  0  0  0
   58.8339   33.1602   48.7846 H   0  0  0  0  0  0  0  0  0  0  0  0
   57.1474   33.1136   48.1682 H   0  0  0  0  0  0  0  0  0  0  0  0
   58.1452   31.6200   48.1682 H   0  0  0  0  0  0  0  0  0  0  0  0
   60.2307   30.8838   45.7744 H   0  0  0  0  0  0  0  0  0  0  0  0
   60.4125   28.4533   45.2705 H   0  0  0  0  0  0  0  0  0  0  0  0
   57.7808   26.5567   43.4897 H   0  0  0  0  0  0  0  0  0  0  0  0
   59.5174   26.6006   44.0697 H   0  0  0  0  0  0  0  0  0  0  0  0
   59.2069   24.3141   44.5959 H   0  0  0  0  0  0  0  0  0  0  0  0
   58.4754   23.9991   46.2397 H   0  0  0  0  0  0  0  0  0  0  0  0
   57.1365   23.9556   43.5179 H   0  0  0  0  0  0  0  0  0  0  0  0
   57.2074   22.6760   44.8067 H   0  0  0  0  0  0  0  0  0  0  0  0
   54.9900   23.6840   44.9030 H   0  0  0  0  0  0  0  0  0  0  0  0
   56.7342   27.3288   46.1180 H   0  0  0  0  0  0  0  0  0  0  0  0
   57.1054   25.9831   47.2803 H   0  0  0  0  0  0  0  0  0  0  0  0
   56.2349   28.3764   44.1354 H   0  0  0  0  0  0  0  0  0  0  0  0
   56.0549   30.8074   44.6357 H   0  0  0  0  0  0  0  0  0  0  0  0
   62.3133   33.5049   45.3229 H   0  0  0  0  0  0  0  0  0  0  0  0
   64.4922   32.8813   46.3694 H   0  0  0  0  0  0  0  0  0  0  0  0
   64.7344   32.8890   48.8538 H   0  0  0  0  0  0  0  0  0  0  0  0
   62.7975   33.5256   50.2956 H   0  0  0  0  0  0  0  0  0  0  0  0
  1  2  1  0
  2  3  1  0
  3  4  2  0
  3  5  1  0
  5  6  2  0
  6  7  1  0
  7  8  2  0
  8  9  1  0
  9 10  1  0
 10 11  1  0
 11 12  1  0
 12 13  1  0
 13 14  1  0
 14 15  2  0
 14 16  1  0
  8 17  1  0
 17 18  2  0
  2 19  1  0
 19 20  2  0
 19 21  2  0
 19 22  1  0
 22 23  2  0
 23 24  1  0
 24 25  2  0
 25 26  1  0
 26 27  2  0
 27 28  1  0
 18  5  1  0
 27 22  1  0
 16 10  1  0
  1 29  1  0
  1 30  1  0
  1 31  1  0
  6 32  1  0
  7 33  1  0
  9 34  1  0
  9 35  1  0
 11 36  1  0
 11 37  1  0
 12 38  1  0
 12 39  1  0
 13 40  1  0
 16 41  1  0
 16 42  1  0
 17 43  1  0
 18 44  1  0
 23 45  1  0
 24 46  1  0
 25 47  1  0
 26 48  1  0
M  END
>  <UniqueID>  (22) 
18

>  <SMILES>  (22) 
CN(C(=O)c1ccc(CN2CCNC(=O)C2)cc1)S(=O)(=O)c1ccccc1F

>  <Energy>  (22) 
63.61699653548592

>  <Genealogy>  (22) 
CN(C(=O)c1ccc(CN2CCNC(=O)C2)cc1)S(=O)(=O)c1ccccc1F (3D coordinates assigned)
CN(C(=O)c1ccc(CN2CCNC(=O)C2)cc1)S(=O)(=O)c1ccccc1F (nonaromatic ring conformer: 63.61699653548592 kcal/mol)

>  <smiles>  (22) 
CN(C(=O)c1ccc(CN2CCNC(=O)C2)cc1)S(=O)(=O)c1ccccc1F

>  <score_type>  (22) 
oracle

>  <origin>  (22) 
adg

>  <m_score__min__energy>  (22) 
-9.2799999999999994

>  <m_primary>  (22) 
energy

$$$$
22:0
     RDKit          3D

 36 38  0  0  0  0  0  0  0  0999 V2000
   64.6330   32.6960   46.7190 H   0  0  0  0  0  0  0  0  0  0  0  0
   63.7600   33.0780   46.3750 O   0  0  0  0  0  0  0  0  0  0  0  0
   62.7250   33.4240   47.2410 C   0  0  0  0  0  0  0  0  0  0  0  0
   62.9290   33.3490   48.6230 C   0  0  0  0  0  0  0  0  0  0  0  0
   63.9035   33.0247   49.0170 H   0  0  0  0  0  0  0  0  0  0  0  0
   61.8980   33.6850   49.5040 C   0  0  0  0  0  0  0  0  0  0  0  0
   62.1020   33.6020   50.8760 O   0  0  0  0  0  0  0  0  0  0  0  0
   60.6590   34.1030   49.0060 C   0  0  0  0  0  0  0  0  0  0  0  0
   59.8472   34.3605   49.7022 H   0  0  0  0  0  0  0  0  0  0  0  0
   60.4480   34.1950   47.6210 C   0  0  0  0  0  0  0  0  0  0  0  0
   59.1040   34.6060   47.0850 C   0  0  0  0  0  0  0  0  0  0  0  0
   59.1731   35.6217   46.6684 H   0  0  0  0  0  0  0  0  0  0  0  0
   58.3681   34.5873   47.9024 H   0  0  0  0  0  0  0  0  0  0  0  0
   58.6700   33.6590   46.0120 C   0  0  0  0  0  0  0  0  0  0  0  0
   58.6200   31.9820   46.1570 S   0  0  0  0  0  0  0  0  0  0  0  0
   57.9530   31.7870   44.6270 C   0  0  0  0  0  0  0  0  0  0  0  0
   57.6590   30.6280   44.1190 N   0  0  0  0  0  0  0  0  0  0  0  0
   56.3740   29.9840   44.1600 C   0  0  0  0  0  0  0  0  0  0  0  0
   55.5230   30.1820   43.2520 O   0  0  0  0  0  0  0  0  0  0  0  0
   56.0640   29.0570   45.2050 N   0  0  0  0  0  0  0  0  0  0  0  0
   56.8400   27.9080   45.5770 C   0  0  0  0  0  0  0  0  0  0  0  0
   58.2470   27.9420   45.5960 C   0  0  0  0  0  0  0  0  0  0  0  0
   58.7773   28.8599   45.3025 H   0  0  0  0  0  0  0  0  0  0  0  0
   58.9730   26.8120   45.9870 C   0  0  0  0  0  0  0  0  0  0  0  0
   60.0727   26.8390   45.9864 H   0  0  0  0  0  0  0  0  0  0  0  0
   58.3050   25.6500   46.3780 C   0  0  0  0  0  0  0  0  0  0  0  0
   58.8784   24.7605   46.6782 H   0  0  0  0  0  0  0  0  0  0  0  0
   56.9080   25.6170   46.3880 C   0  0  0  0  0  0  0  0  0  0  0  0
   56.3828   24.7039   46.7047 H   0  0  0  0  0  0  0  0  0  0  0  0
   56.1760   26.7430   45.9960 C   0  0  0  0  0  0  0  0  0  0  0  0
   54.7870   26.7000   46.0190 O   0  0  0  0  0  0  0  0  0  0  0  0
   57.7470   32.9690   44.0030 N   0  0  0  0  0  0  0  0  0  0  0  0
   58.1400   34.0160   44.7750 C   0  0  0  0  0  0  0  0  0  0  0  0
   58.0468   35.0623   44.4486 H   0  0  0  0  0  0  0  0  0  0  0  0
   61.4850   33.8430   46.7410 C   0  0  0  0  0  0  0  0  0  0  0  0
   61.3227   33.8966   45.6544 H   0  0  0  0  0  0  0  0  0  0  0  0
  1  2  1  0
  2  3  1  0
  3  4  2  0
  4  5  1  0
  4  6  1  0
  6  7  1  0
  6  8  2  0
  8  9  1  0
  8 10  1  0
 10 11  1  0
 11 12  1  0
 11 13  1  0
 11 14  1  0
 14 15  1  0
 15 16  1  0
 16 17  2  0
 17 18  1  0
 18 19  2  0
 18 20  1  0
 20 21  1  0
 21 22  2  0
 22 23  1  0
 22 24  1  0
 24 25  1  0
 24 26  2  0
 26 27  1  0
 26 28  1  0
 28 29  1  0
 28 30  2  0
 30 31  1  0
 16 32  1  0
 32 33  1  0
 33 34  1  0
 10 35  2  0
 35 36  1  0
 35  3  1  0
 33 14  2  0
 30 21  1  0
M  CHG  4   7  -1  20  -1  31  -1  32  -1
M  END
>  <UniqueID>  (23) 
19

>  <SMILES>  (23) 
O=C(/N=c1\[n-]cc(Cc2cc([O-])cc(O)c2)s1)[N-]c1ccccc1[O-]

>  <Energy>  (23) 
72.178658165175

>  <Genealogy>  (23) 
O=C(N=c1[n-]cc(Cc2cc([O-])cc(O)c2)s1)[N-]c1ccccc1[O-] (protonated)
O=C(/N=c1\[n-]cc(Cc2cc([O-])cc(O)c2)s1)[N-]c1ccccc1[O-] (cis-trans isomerization)
O=C(/N=c1\[n-]cc(Cc2cc([O-])cc(O)c2)s1)[N-]c1ccccc1[O-] (3D coordinates assigned)
O=C(/N=c1\[n-]cc(Cc2cc([O-])cc(O)c2)s1)[N-]c1ccccc1[O-] (optimized conformer: 72.178658165175 kcal/mol)

>  <smiles>  (23) 
O=C(N=c1[nH]cc(Cc2cc(O)cc(O)c2)s1)Nc1ccccc1O

>  <score_type>  (23) 
oracle

>  <origin>  (23) 
adg

>  <m_score__min__energy>  (23) 
-15.69

>  <m_primary>  (23) 
energy

$$$$
23:0
     RDKit          3D

 32 33  0  0  0  0  0  0  0  0999 V2000
   54.7820   26.2880   45.9880 N   0  0  0  0  0  0  0  0  0  0  0  0
   56.4020   25.6900   45.9880 S   0  0  0  0  0  0  0  0  0  0  0  0
   56.6910   25.0290   47.3070 O   0  0  0  0  0  0  0  0  0  0  0  0
   56.5630   24.6710   44.8950 O   0  0  0  0  0  0  0  0  0  0  0  0
   57.5220   27.0240   45.7320 C   0  0  0  0  0  0  0  0  0  0  0  0
   58.9030   26.8010   45.7800 C   0  0  0  0  0  0  0  0  0  0  0  0
   59.7910   27.8560   45.5590 C   0  0  0  0  0  0  0  0  0  0  0  0
   59.3070   29.1390   45.2900 C   0  0  0  0  0  0  0  0  0  0  0  0
   57.9210   29.3810   45.2400 C   0  0  0  0  0  0  0  0  0  0  0  0
   57.3890   30.7330   44.9430 C   0  0  0  0  0  0  0  0  0  0  0  0
   56.2090   30.8490   44.5130 O   0  0  0  0  0  0  0  0  0  0  0  0
   58.1880   31.9110   45.1490 N   0  0  0  0  0  0  0  0  0  0  0  0
   57.7270   33.2450   44.7720 C   0  0  0  0  0  0  0  0  0  0  0  0
   58.8760   34.2520   44.8540 C   0  0  0  0  0  0  0  0  0  0  0  0
   59.5470   34.1760   46.1890 C   0  0  0  0  0  0  0  0  0  0  0  0
   59.2720   34.9670   47.2800 C   0  0  0  0  0  0  0  0  0  0  0  0
   60.0300   34.5600   48.3130 N   0  0  0  0  0  0  0  0  0  0  0  0
   60.7370   33.5240   47.8140 C   0  0  0  0  0  0  0  0  0  0  0  0
   60.4640   33.2520   46.5210 N   0  0  0  0  0  0  0  0  0  0  0  0
   57.0350   28.3090   45.4510 C   0  0  0  0  0  0  0  0  0  0  0  0
   54.7520   27.0850   46.6630 H   0  0  0  0  0  0  0  0  0  0  0  0
   59.2895   25.7932   45.9921 H   0  0  0  0  0  0  0  0  0  0  0  0
   60.8756   27.6763   45.5968 H   0  0  0  0  0  0  0  0  0  0  0  0
   60.0129   29.9645   45.1163 H   0  0  0  0  0  0  0  0  0  0  0  0
   59.1280   31.8330   45.5980 H   0  0  0  0  0  0  0  0  0  0  0  0
   57.3426   33.2174   43.7417 H   0  0  0  0  0  0  0  0  0  0  0  0
   56.9315   33.5556   45.4653 H   0  0  0  0  0  0  0  0  0  0  0  0
   59.6106   34.0275   44.0666 H   0  0  0  0  0  0  0  0  0  0  0  0
   58.4705   35.2654   44.7175 H   0  0  0  0  0  0  0  0  0  0  0  0
   58.5501   35.7967   47.3035 H   0  0  0  0  0  0  0  0  0  0  0  0
   61.4680   32.9543   48.4066 H   0  0  0  0  0  0  0  0  0  0  0  0
   55.9498   28.4801   45.3951 H   0  0  0  0  0  0  0  0  0  0  0  0
  1  2  1  0
  2  3  2  0
  2  4  2  0
  2  5  1  0
  5  6  2  0
  6  7  1  0
  7  8  2  0
  8  9  1  0
  9 10  1  0
 10 11  2  0
 10 12  1  0
 12 13  1  0
 13 14  1  0
 14 15  1  0
 15 16  2  0
 16 17  1  0
 17 18  1  0
 18 19  2  0
  9 20  2  0
 20  5  1  0
 19 15  1  0
  1 21  1  0
  6 22  1  0
  7 23  1  0
  8 24  1  0
 12 25  1  0
 13 26  1  0
 13 27  1  0
 14 28  1  0
 14 29  1  0
 16 30  1  0
 18 31  1  0
 20 32  1  0
M  CHG  2   1  -1  17  -1
M  END
>  <UniqueID>  (24) 
20

>  <SMILES>  (24) 
[NH-]S(=O)(=O)c1cccc(C(=O)NCCc2c[n-]cn2)c1

>  <Energy>  (24) 
56.95022098035366

>  <Genealogy>  (24) 
[NH-]S(=O)(=O)c1cccc(C(=O)NCCc2c[n-]cn2)c1 (protonated)
[NH-]S(=O)(=O)c1cccc(C(=O)NCCc2c[n-]cn2)c1 (3D coordinates assigned)
[NH-]S(=O)(=O)c1cccc(C(=O)NCCc2c[n-]cn2)c1 (optimized conformer: 56.95022098035366 kcal/mol)

>  <smiles>  (24) 
NS(=O)(=O)c1cccc(C(=O)NCCc2c[nH]cn2)c1

>  <score_type>  (24) 
oracle

>  <origin>  (24) 
adg

>  <m_score__min__energy>  (24) 
-11.15

>  <m_primary>  (24) 
energy

$$$$
24:0
     RDKit          3D

 30 32  0  0  0  0  0  0  0  0999 V2000
   58.6533   33.7923   44.3866 H   0  0  0  0  0  0  0  0  0  0  0  0
   58.1650   32.8860   43.9990 C   0  0  0  0  0  0  0  0  0  0  0  0
   58.0060   32.7210   42.6590 N   0  0  0  0  0  0  0  0  0  0  0  0
   57.4120   31.6120   42.1440 C   0  0  0  0  0  0  0  0  0  0  0  0
   57.3002   31.5045   41.0550 H   0  0  0  0  0  0  0  0  0  0  0  0
   56.9430   30.6080   42.9960 C   0  0  0  0  0  0  0  0  0  0  0  0
   56.4810   29.7004   42.5803 H   0  0  0  0  0  0  0  0  0  0  0  0
   57.0650   30.7650   44.3810 C   0  0  0  0  0  0  0  0  0  0  0  0
   56.6270   29.7040   45.2440 N   0  0  0  0  0  0  0  0  0  0  0  0
   57.3100   28.6510   45.5950 C   0  0  0  0  0  0  0  0  0  0  0  0
   58.3740   28.7650   46.6200 C   0  0  0  0  0  0  0  0  0  0  0  0
   58.5380   29.9380   47.3810 C   0  0  0  0  0  0  0  0  0  0  0  0
   57.8693   30.7956   47.2158 H   0  0  0  0  0  0  0  0  0  0  0  0
   59.5460   30.0180   48.3450 C   0  0  0  0  0  0  0  0  0  0  0  0
   59.6653   30.9360   48.9392 H   0  0  0  0  0  0  0  0  0  0  0  0
   60.4020   28.9360   48.5560 C   0  0  0  0  0  0  0  0  0  0  0  0
   61.1961   29.0038   49.3141 H   0  0  0  0  0  0  0  0  0  0  0  0
   60.2520   27.7670   47.8060 C   0  0  0  0  0  0  0  0  0  0  0  0
   60.9367   26.9215   47.9683 H   0  0  0  0  0  0  0  0  0  0  0  0
   59.2320   27.6650   46.8460 C   0  0  0  0  0  0  0  0  0  0  0  0
   59.1250   26.4200   45.9970 C   0  0  0  0  0  0  0  0  0  0  0  0
   59.7580   26.5385   45.1053 H   0  0  0  0  0  0  0  0  0  0  0  0
   59.4568   25.5600   46.5972 H   0  0  0  0  0  0  0  0  0  0  0  0
   57.6790   26.1730   45.5540 C   0  0  0  0  0  0  0  0  0  0  0  0
   57.6588   25.3555   44.8183 H   0  0  0  0  0  0  0  0  0  0  0  0
   57.0753   25.9019   46.4327 H   0  0  0  0  0  0  0  0  0  0  0  0
   57.1250   27.3800   44.9490 N   0  0  0  0  0  0  0  0  0  0  0  0
   56.6930   27.3180   44.0010 H   0  0  0  0  0  0  0  0  0  0  0  0
   57.7090   31.9060   44.8850 C   0  0  0  0  0  0  0  0  0  0  0  0
   57.8536   32.0278   45.9686 H   0  0  0  0  0  0  0  0  0  0  0  0
  1  2  1  0
  2  3  2  0
  3  4  1  0
  4  5  1  0
  4  6  2  0
  6  7  1  0
  6  8  1  0
  8  9  1  0
  9 10  2  0
 10 11  1  0
 11 12  2  0
 12 13  1  0
 12 14  1  0
 14 15  1  0
 14 16  2  0
 16 17  1  0
 16 18  1  0
 18 19  1  0
 18 20  2  0
 20 21  1  0
 21 22  1  0
 21 23  1  0
 21 24  1  0
 24 25  1  0
 24 26  1  0
 24 27  1  0
 27 28  1  0
  8 29  2  0
 29 30  1  0
 29  2  1  0
 27 10  1  0
 20 11  1  0
M  END
>  <UniqueID>  (25) 
21

>  <SMILES>  (25) 
c1ccc2c(c1)CCN/C2=N\c1ccncc1

>  <Energy>  (25) 
40.358930659238226

>  <Genealogy>  (25) 
c1ccc2c(c1)CCN/C2=N\c1ccncc1 (cis-trans isomerization)
c1ccc2c(c1)CCN/C2=N\c1ccncc1 (3D coordinates assigned)
c1ccc2c(c1)CCN/C2=N\c1ccncc1 (nonaromatic ring conformer: 40.358930659238226 kcal/mol)

>  <smiles>  (25) 
c1ccc2c(c1)CCNC2=Nc1ccncc1

>  <score_type>  (25) 
oracle

>  <origin>  (25) 
adg

>  <m_score__min__energy>  (25) 
-6.1600000000000001

>  <m_primary>  (25) 
energy

$$$$
25:0
     RDKit          3D

 40 42  0  0  0  0  0  0  0  0999 V2000
   58.7920   30.0060   47.3920 C   0  0  0  0  0  0  0  0  0  0  0  0
   58.2840   31.1750   46.5820 C   0  0  0  0  0  0  0  0  0  0  0  0
   58.2870   32.4710   47.1460 C   0  0  0  0  0  0  0  0  0  0  0  0
   58.7530   32.6650   48.4920 N   0  0  0  0  0  0  0  0  0  0  0  0
   59.8310   33.5170   48.9000 C   0  0  0  0  0  0  0  0  0  0  0  0
   59.6100   34.3900   49.7810 O   0  0  0  0  0  0  0  0  0  0  0  0
   61.1640   33.4440   48.2600 C   0  0  0  0  0  0  0  0  0  0  0  0
   61.3630   33.9170   46.9520 C   0  0  0  0  0  0  0  0  0  0  0  0
   62.6310   33.8210   46.3740 C   0  0  0  0  0  0  0  0  0  0  0  0
   63.6830   33.2530   47.0930 C   0  0  0  0  0  0  0  0  0  0  0  0
   63.4490   32.7830   48.3860 C   0  0  0  0  0  0  0  0  0  0  0  0
   62.2090   32.8850   48.9340 N   0  0  0  0  0  0  0  0  0  0  0  0
   57.9000   33.5710   46.3620 C   0  0  0  0  0  0  0  0  0  0  0  0
   57.4690   33.3870   45.0490 C   0  0  0  0  0  0  0  0  0  0  0  0
   57.4100   32.1050   44.5060 C   0  0  0  0  0  0  0  0  0  0  0  0
   57.7820   30.9930   45.2680 C   0  0  0  0  0  0  0  0  0  0  0  0
   57.6740   29.6960   44.6680 N   0  0  0  0  0  0  0  0  0  0  0  0
   56.6950   28.7180   45.0380 C   0  0  0  0  0  0  0  0  0  0  0  0
   55.4700   28.9850   44.8950 O   0  0  0  0  0  0  0  0  0  0  0  0
   57.1050   27.3850   45.5560 C   0  0  0  0  0  0  0  0  0  0  0  0
   58.4730   27.0480   45.5900 C   0  0  0  0  0  0  0  0  0  0  0  0
   58.8910   25.8040   46.0700 C   0  0  0  0  0  0  0  0  0  0  0  0
   57.9530   24.8770   46.5230 C   0  0  0  0  0  0  0  0  0  0  0  0
   56.5940   25.1900   46.4940 C   0  0  0  0  0  0  0  0  0  0  0  0
   56.1630   26.4320   46.0140 C   0  0  0  0  0  0  0  0  0  0  0  0
   54.7970   26.6970   45.9950 O   0  0  0  0  0  0  0  0  0  0  0  0
   58.6936   30.2323   48.4640 H   0  0  0  0  0  0  0  0  0  0  0  0
   58.2025   29.1091   47.1510 H   0  0  0  0  0  0  0  0  0  0  0  0
   59.8499   29.8251   47.1510 H   0  0  0  0  0  0  0  0  0  0  0  0
   60.5280   34.3588   46.3884 H   0  0  0  0  0  0  0  0  0  0  0  0
   62.7999   34.1930   45.3527 H   0  0  0  0  0  0  0  0  0  0  0  0
   64.6852   33.1765   46.6460 H   0  0  0  0  0  0  0  0  0  0  0  0
   64.2688   32.3295   48.9625 H   0  0  0  0  0  0  0  0  0  0  0  0
   57.9374   34.5847   46.7874 H   0  0  0  0  0  0  0  0  0  0  0  0
   57.1751   34.2551   44.4407 H   0  0  0  0  0  0  0  0  0  0  0  0
   57.0681   31.9666   43.4697 H   0  0  0  0  0  0  0  0  0  0  0  0
   59.2204   27.7726   45.2346 H   0  0  0  0  0  0  0  0  0  0  0  0
   59.9624   25.5555   46.0905 H   0  0  0  0  0  0  0  0  0  0  0  0
   58.2846   23.8994   46.9030 H   0  0  0  0  0  0  0  0  0  0  0  0
   55.8564   24.4560   46.8507 H   0  0  0  0  0  0  0  0  0  0  0  0
  1  2  1  0
  2  3  2  0
  3  4  1  0
  4  5  1  0
  5  6  2  0
  5  7  1  0
  7  8  2  0
  8  9  1  0
  9 10  2  0
 10 11  1  0
 11 12  2  0
  3 13  1  0
 13 14  2  0
 14 15  1  0
 15 16  2  0
 16 17  1  0
 17 18  1  0
 18 19  2  0
 18 20  1  0
 20 21  2  0
 21 22  1  0
 22 23  2  0
 23 24  1  0
 24 25  2  0
 25 26  1  0
 16  2  1  0
 25 20  1  0
 12  7  1  0
  1 27  1  0
  1 28  1  0
  1 29  1  0
  8 30  1  0
  9 31  1  0
 10 32  1  0
 11 33  1  0
 13 34  1  0
 14 35  1  0
 15 36  1  0
 21 37  1  0
 22 38  1  0
 23 39  1  0
 24 40  1  0
M  CHG  3   4  -1  17  -1  26  -1
M  END
>  <UniqueID>  (26) 
22

>  <SMILES>  (26) 
Cc1c([N-]C(=O)c2ccccn2)cccc1[N-]C(=O)c1ccccc1[O-]

>  <Energy>  (26) 
60.11479981977595

>  <Genealogy>  (26) 
Cc1c([N-]C(=O)c2ccccn2)cccc1[N-]C(=O)c1ccccc1[O-] (protonated)
Cc1c([N-]C(=O)c2ccccn2)cccc1[N-]C(=O)c1ccccc1[O-] (3D coordinates assigned)
Cc1c([N-]C(=O)c2ccccn2)cccc1[N-]C(=O)c1ccccc1[O-] (optimized conformer: 60.11479981977595 kcal/mol)

>  <smiles>  (26) 
Cc1c(NC(=O)c2ccccn2)cccc1NC(=O)c1ccccc1O

>  <score_type>  (26) 
oracle

>  <origin>  (26) 
adg

>  <m_score__min__energy>  (26) 
-15.01

>  <m_primary>  (26) 
energy

$$$$
26:0
     RDKit          3D

 50 52  0  0  0  0  0  0  0  0999 V2000
   63.7120   30.2020   51.5950 N   0  0  0  0  0  0  0  0  0  0  0  0
   63.7850   31.2190   50.5860 C   0  0  0  0  0  0  0  0  0  0  0  0
   64.9920   31.9190   50.4120 C   0  0  0  0  0  0  0  0  0  0  0  0
   65.1280   32.8420   49.3710 C   0  0  0  0  0  0  0  0  0  0  0  0
   64.0710   33.0670   48.4910 C   0  0  0  0  0  0  0  0  0  0  0  0
   62.8620   32.3860   48.6600 C   0  0  0  0  0  0  0  0  0  0  0  0
   62.7000   31.4840   49.7210 C   0  0  0  0  0  0  0  0  0  0  0  0
   61.4170   30.8660   49.8970 N   0  0  0  0  0  0  0  0  0  0  0  0
   61.1060   29.5010   49.5840 C   0  0  0  0  0  0  0  0  0  0  0  0
   61.4320   28.6050   50.4070 O   0  0  0  0  0  0  0  0  0  0  0  0
   60.4280   29.1170   48.3230 C   0  0  0  0  0  0  0  0  0  0  0  0
   60.5650   29.9160   47.1750 C   0  0  0  0  0  0  0  0  0  0  0  0
   59.9460   29.5500   45.9770 C   0  0  0  0  0  0  0  0  0  0  0  0
   59.1700   28.3830   45.9070 C   0  0  0  0  0  0  0  0  0  0  0  0
   58.4980   27.9760   44.6270 C   0  0  0  0  0  0  0  0  0  0  0  0
   57.0590   28.1680   44.7510 N   0  0  0  0  0  0  0  0  0  0  0  0
   56.4060   29.4400   44.6680 C   0  0  0  0  0  0  0  0  0  0  0  0
   55.1610   29.4950   44.8590 O   0  0  0  0  0  0  0  0  0  0  0  0
   57.1680   30.6850   44.2960 C   0  0  0  0  0  0  0  0  0  0  0  0
   56.5640   31.8850   44.8760 N   0  0  0  0  0  0  0  0  0  0  0  0
   57.6730   33.2300   44.8880 S   0  0  0  0  0  0  0  0  0  0  0  0
   56.9180   34.4930   44.5840 O   0  0  0  0  0  0  0  0  0  0  0  0
   58.7620   33.0450   43.8670 O   0  0  0  0  0  0  0  0  0  0  0  0
   58.3940   33.3650   46.4870 C   0  0  0  0  0  0  0  0  0  0  0  0
   59.2280   34.4500   46.7950 C   0  0  0  0  0  0  0  0  0  0  0  0
   59.8040   34.5560   48.0650 C   0  0  0  0  0  0  0  0  0  0  0  0
   59.5550   33.5760   49.0320 C   0  0  0  0  0  0  0  0  0  0  0  0
   60.2880   33.7040   50.6230 Cl  0  0  0  0  0  0  0  0  0  0  0  0
   58.7260   32.4910   48.7280 C   0  0  0  0  0  0  0  0  0  0  0  0
   58.1500   32.3830   47.4580 C   0  0  0  0  0  0  0  0  0  0  0  0
   58.9990   27.6040   47.0620 C   0  0  0  0  0  0  0  0  0  0  0  0
   59.6150   27.9730   48.2610 C   0  0  0  0  0  0  0  0  0  0  0  0
   62.8850   29.5770   51.6810 H   0  0  0  0  0  0  0  0  0  0  0  0
   64.5440   29.9840   52.1830 H   0  0  0  0  0  0  0  0  0  0  0  0
   65.8329   31.7395   51.0980 H   0  0  0  0  0  0  0  0  0  0  0  0
   66.0722   33.3924   49.2460 H   0  0  0  0  0  0  0  0  0  0  0  0
   64.1882   33.7812   47.6626 H   0  0  0  0  0  0  0  0  0  0  0  0
   62.0337   32.5587   47.9571 H   0  0  0  0  0  0  0  0  0  0  0  0
   61.1645   30.8372   47.2200 H   0  0  0  0  0  0  0  0  0  0  0  0
   60.0677   30.1803   45.0837 H   0  0  0  0  0  0  0  0  0  0  0  0
   58.8802   28.5926   43.8002 H   0  0  0  0  0  0  0  0  0  0  0  0
   58.7100   26.9161   44.4227 H   0  0  0  0  0  0  0  0  0  0  0  0
   58.2009   30.5933   44.6629 H   0  0  0  0  0  0  0  0  0  0  0  0
   57.1451   30.7857   43.2009 H   0  0  0  0  0  0  0  0  0  0  0  0
   59.4296   35.2197   46.0354 H   0  0  0  0  0  0  0  0  0  0  0  0
   60.4536   35.4109   48.3039 H   0  0  0  0  0  0  0  0  0  0  0  0
   58.5269   31.7218   49.4887 H   0  0  0  0  0  0  0  0  0  0  0  0
   57.5037   31.5253   47.2201 H   0  0  0  0  0  0  0  0  0  0  0  0
   58.3766   26.6979   47.0232 H   0  0  0  0  0  0  0  0  0  0  0  0
   59.4620   27.3628   49.1634 H   0  0  0  0  0  0  0  0  0  0  0  0
  1  2  1  0
  2  3  2  0
  3  4  1  0
  4  5  2  0
  5  6  1  0
  6  7  2  0
  7  8  1  0
  8  9  1  0
  9 10  2  0
  9 11  1  0
 11 12  2  0
 12 13  1  0
 13 14  2  0
 14 15  1  0
 15 16  1  0
 16 17  1  0
 17 18  2  0
 17 19  1  0
 19 20  1  0
 20 21  1  0
 21 22  2  0
 21 23  2  0
 21 24  1  0
 24 25  2  0
 25 26  1  0
 26 27  2  0
 27 28  1  0
 27 29  1  0
 29 30  2  0
 14 31  1  0
 31 32  2  0
  7  2  1  0
 32 11  1  0
 30 24  1  0
  1 33  1  0
  1 34  1  0
  3 35  1  0
  4 36  1  0
  5 37  1  0
  6 38  1  0
 12 39  1  0
 13 40  1  0
 15 41  1  0
 15 42  1  0
 19 43  1  0
 19 44  1  0
 25 45  1  0
 26 46  1  0
 29 47  1  0
 30 48  1  0
 31 49  1  0
 32 50  1  0
M  CHG  3   8  -1  16  -1  20  -1
M  END
>  <UniqueID>  (27) 
23

>  <SMILES>  (27) 
Nc1ccccc1[N-]C(=O)c1ccc(C[N-]C(=O)C[N-]S(=O)(=O)c2ccc(Cl)cc2)cc1

>  <Energy>  (27) 
60.82028811514132

>  <Genealogy>  (27) 
Nc1ccccc1[N-]C(=O)c1ccc(C[N-]C(=O)C[N-]S(=O)(=O)c2ccc(Cl)cc2)cc1 (protonated)
Nc1ccccc1[N-]C(=O)c1ccc(C[N-]C(=O)C[N-]S(=O)(=O)c2ccc(Cl)cc2)cc1 (3D coordinates assigned)
Nc1ccccc1[N-]C(=O)c1ccc(C[N-]C(=O)C[N-]S(=O)(=O)c2ccc(Cl)cc2)cc1 (optimized conformer: 60.82028811514132 kcal/mol)

>  <smiles>  (27) 
Nc1ccccc1NC(=O)c1ccc(CNC(=O)CNS(=O)(=O)c2ccc(Cl)cc2)cc1

>  <score_type>  (27) 
oracle

>  <origin>  (27) 
adg

>  <m_score__min__energy>  (27) 
-13.17

>  <m_primary>  (27) 
energy

$$$$
27:0
     RDKit          3D

 38 40  0  0  0  0  0  0  0  0999 V2000
   54.9310   26.3680   46.0300 N   0  0  0  0  0  0  0  0  0  0  0  0
   55.9550   25.3840   46.1470 C   0  0  0  0  0  0  0  0  0  0  0  0
   56.1760   24.8350   47.2600 O   0  0  0  0  0  0  0  0  0  0  0  0
   56.7840   25.0210   44.9570 C   0  0  0  0  0  0  0  0  0  0  0  0
   58.5390   25.4570   45.2270 S   0  0  0  0  0  0  0  0  0  0  0  0
   58.2500   27.2370   45.2930 C   0  0  0  0  0  0  0  0  0  0  0  0
   57.6050   27.8290   44.2050 C   0  0  0  0  0  0  0  0  0  0  0  0
   57.3990   29.2040   44.1630 C   0  0  0  0  0  0  0  0  0  0  0  0
   57.8360   30.0260   45.2090 C   0  0  0  0  0  0  0  0  0  0  0  0
   57.7120   31.4930   45.0310 C   0  0  0  0  0  0  0  0  0  0  0  0
   56.5650   32.0020   44.9220 O   0  0  0  0  0  0  0  0  0  0  0  0
   58.8590   32.3520   44.9830 N   0  0  0  0  0  0  0  0  0  0  0  0
   59.4390   33.0520   46.0950 C   0  0  0  0  0  0  0  0  0  0  0  0
   58.6650   33.8670   46.9400 C   0  0  0  0  0  0  0  0  0  0  0  0
   59.2650   34.5430   48.0070 C   0  0  0  0  0  0  0  0  0  0  0  0
   60.6330   34.3950   48.2500 C   0  0  0  0  0  0  0  0  0  0  0  0
   61.4030   33.5620   47.4310 C   0  0  0  0  0  0  0  0  0  0  0  0
   63.1180   33.3690   47.7410 Cl  0  0  0  0  0  0  0  0  0  0  0  0
   60.8040   32.8860   46.3610 C   0  0  0  0  0  0  0  0  0  0  0  0
   58.4250   29.4390   46.3590 C   0  0  0  0  0  0  0  0  0  0  0  0
   58.7810   30.2140   47.4850 C   0  0  0  0  0  0  0  0  0  0  0  0
   59.3820   29.6220   48.5960 C   0  0  0  0  0  0  0  0  0  0  0  0
   59.6240   28.2520   48.6150 C   0  0  0  0  0  0  0  0  0  0  0  0
   59.2550   27.4580   47.5300 C   0  0  0  0  0  0  0  0  0  0  0  0
   58.6450   28.0310   46.3950 C   0  0  0  0  0  0  0  0  0  0  0  0
   55.1620   27.3860   46.0160 H   0  0  0  0  0  0  0  0  0  0  0  0
   56.7050   23.9382   44.7798 H   0  0  0  0  0  0  0  0  0  0  0  0
   56.4127   25.5809   44.0860 H   0  0  0  0  0  0  0  0  0  0  0  0
   57.2560   27.2010   43.3720 H   0  0  0  0  0  0  0  0  0  0  0  0
   56.8869   29.6508   43.2981 H   0  0  0  0  0  0  0  0  0  0  0  0
   57.5848   33.9731   46.7612 H   0  0  0  0  0  0  0  0  0  0  0  0
   58.6591   35.1923   48.6561 H   0  0  0  0  0  0  0  0  0  0  0  0
   61.1046   34.9334   49.0853 H   0  0  0  0  0  0  0  0  0  0  0  0
   61.4085   32.2214   45.7263 H   0  0  0  0  0  0  0  0  0  0  0  0
   58.5822   31.2959   47.4858 H   0  0  0  0  0  0  0  0  0  0  0  0
   59.6656   30.2406   49.4602 H   0  0  0  0  0  0  0  0  0  0  0  0
   60.1085   27.7934   49.4897 H   0  0  0  0  0  0  0  0  0  0  0  0
   59.4415   26.3743   47.5596 H   0  0  0  0  0  0  0  0  0  0  0  0
  1  2  1  0
  2  3  2  0
  2  4  1  0
  4  5  1  0
  5  6  1  0
  6  7  2  0
  7  8  1  0
  8  9  2  0
  9 10  1  0
 10 11  2  0
 10 12  1  0
 12 13  1  0
 13 14  2  0
 14 15  1  0
 15 16  2  0
 16 17  1  0
 17 18  1  0
 17 19  2  0
  9 20  1  0
 20 21  2  0
 21 22  1  0
 22 23  2  0
 23 24  1  0
 24 25  2  0
 25  6  1  0
 19 13  1  0
 25 20  1  0
  1 26  1  0
  4 27  1  0
  4 28  1  0
  7 29  1  0
  8 30  1  0
 14 31  1  0
 15 32  1  0
 16 33  1  0
 19 34  1  0
 21 35  1  0
 22 36  1  0
 23 37  1  0
 24 38  1  0
M  CHG  2   1  -1  12  -1
M  END
>  <UniqueID>  (28) 
24

>  <SMILES>  (28) 
[NH-]C(=O)CSc1ccc(C(=O)[N-]c2cccc(Cl)c2)c2ccccc12

>  <Energy>  (28) 
49.489730539080824

>  <Genealogy>  (28) 
[NH-]C(=O)CSc1ccc(C(=O)[N-]c2cccc(Cl)c2)c2ccccc12 (protonated)
[NH-]C(=O)CSc1ccc(C(=O)[N-]c2cccc(Cl)c2)c2ccccc12 (3D coordinates assigned)
[NH-]C(=O)CSc1ccc(C(=O)[N-]c2cccc(Cl)c2)c2ccccc12 (optimized conformer: 49.489730539080824 kcal/mol)

>  <smiles>  (28) 
NC(=O)CSc1ccc(C(=O)Nc2cccc(Cl)c2)c2ccccc12

>  <score_type>  (28) 
oracle

>  <origin>  (28) 
adg

>  <m_score__min__energy>  (28) 
-12.99

>  <m_primary>  (28) 
energy

$$$$
28:0
     RDKit          3D

 28 29  0  0  0  0  0  0  0  0999 V2000
   58.1260   25.5850   46.6870 C   0  0  0  0  0  0  0  0  0  0  0  0
   57.9150   26.8500   45.9740 N   0  0  0  0  0  0  0  0  0  0  0  0
   58.9720   27.5490   45.5370 N   0  0  0  0  0  0  0  0  0  0  0  0
   58.8300   28.7280   44.8730 C   0  0  0  0  0  0  0  0  0  0  0  0
   59.8580   29.3480   44.4840 O   0  0  0  0  0  0  0  0  0  0  0  0
   57.5480   29.2440   44.6270 C   0  0  0  0  0  0  0  0  0  0  0  0
   57.3620   30.5710   43.9230 C   0  0  0  0  0  0  0  0  0  0  0  0
   57.7500   31.7100   44.8300 C   0  0  0  0  0  0  0  0  0  0  0  0
   58.0830   31.4660   46.1750 C   0  0  0  0  0  0  0  0  0  0  0  0
   58.4120   32.5280   47.0230 C   0  0  0  0  0  0  0  0  0  0  0  0
   58.4080   33.8400   46.5390 C   0  0  0  0  0  0  0  0  0  0  0  0
   58.0740   34.0910   45.2060 C   0  0  0  0  0  0  0  0  0  0  0  0
   57.7440   33.0330   44.3540 C   0  0  0  0  0  0  0  0  0  0  0  0
   56.4430   28.5170   45.0900 C   0  0  0  0  0  0  0  0  0  0  0  0
   55.1470   28.9820   44.8800 O   0  0  0  0  0  0  0  0  0  0  0  0
   56.6430   27.3120   45.7650 C   0  0  0  0  0  0  0  0  0  0  0  0
   55.6460   26.6590   46.1810 O   0  0  0  0  0  0  0  0  0  0  0  0
   58.0958   25.7660   47.7716 H   0  0  0  0  0  0  0  0  0  0  0  0
   57.3343   24.8726   46.4120 H   0  0  0  0  0  0  0  0  0  0  0  0
   59.1061   25.1681   46.4120 H   0  0  0  0  0  0  0  0  0  0  0  0
   59.9400   27.1910   45.7050 H   0  0  0  0  0  0  0  0  0  0  0  0
   57.9933   30.5944   43.0225 H   0  0  0  0  0  0  0  0  0  0  0  0
   56.3029   30.6814   43.6473 H   0  0  0  0  0  0  0  0  0  0  0  0
   58.0845   30.4359   46.5609 H   0  0  0  0  0  0  0  0  0  0  0  0
   58.6745   32.3310   48.0729 H   0  0  0  0  0  0  0  0  0  0  0  0
   58.6677   34.6740   47.2076 H   0  0  0  0  0  0  0  0  0  0  0  0
   58.0707   35.1233   44.8260 H   0  0  0  0  0  0  0  0  0  0  0  0
   57.4784   33.2365   43.3061 H   0  0  0  0  0  0  0  0  0  0  0  0
  1  2  1  0
  2  3  1  0
  3  4  1  0
  4  5  2  0
  4  6  1  0
  6  7  1  0
  7  8  1  0
  8  9  2  0
  9 10  1  0
 10 11  2  0
 11 12  1  0
 12 13  2  0
  6 14  2  0
 14 15  1  0
 14 16  1  0
 16 17  2  0
 16  2  1  0
 13  8  1  0
  1 18  1  0
  1 19  1  0
  1 20  1  0
  3 21  1  0
  7 22  1  0
  7 23  1  0
  9 24  1  0
 10 25  1  0
 11 26  1  0
 12 27  1  0
 13 28  1  0
M  CHG  1  15  -1
M  END
>  <UniqueID>  (29) 
25

>  <SMILES>  (29) 
Cn1[nH]c(=O)c(Cc2ccccc2)c([O-])c1=O

>  <Energy>  (29) 
31.308173264705133

>  <Genealogy>  (29) 
Cn1[nH]c(=O)c(Cc2ccccc2)c([O-])c1=O (protonated)
Cn1[nH]c(=O)c(Cc2ccccc2)c([O-])c1=O (3D coordinates assigned)
Cn1[nH]c(=O)c(Cc2ccccc2)c([O-])c1=O (optimized conformer: 31.308173264705133 kcal/mol)

>  <smiles>  (29) 
Cn1[nH]c(=O)c(Cc2ccccc2)c(O)c1=O

>  <score_type>  (29) 
oracle

>  <origin>  (29) 
adg

>  <m_score__min__energy>  (29) 
-10.16

>  <m_primary>  (29) 
energy

$$$$
29:0
     RDKit          3D

 53 57  0  0  0  0  0  0  0  0999 V2000
   55.0601   30.4366   52.2690 H   0  0  0  0  0  0  0  0  0  0  0  0
   56.1180   30.6720   52.0810 C   0  0  0  0  0  0  0  0  0  0  0  0
   56.6170   31.9290   52.0660 N   0  0  0  0  0  0  0  0  0  0  0  0
   57.9220   31.7200   51.8020 C   0  0  0  0  0  0  0  0  0  0  0  0
   58.6738   32.5178   51.7108 H   0  0  0  0  0  0  0  0  0  0  0  0
   58.1840   30.4110   51.6650 N   0  0  0  0  0  0  0  0  0  0  0  0
   59.4810   29.7960   51.4020 C   0  0  0  0  0  0  0  0  0  0  0  0
   59.3650   28.7028   51.3638 H   0  0  0  0  0  0  0  0  0  0  0  0
   60.1802   30.0684   52.2063 H   0  0  0  0  0  0  0  0  0  0  0  0
   60.0230   30.2850   50.0900 C   0  0  0  0  0  0  0  0  0  0  0  0
   60.0260   29.5590   48.9110 C   0  0  0  0  0  0  0  0  0  0  0  0
   59.6095   28.5524   48.7583 H   0  0  0  0  0  0  0  0  0  0  0  0
   60.6550   30.3460   47.9620 C   0  0  0  0  0  0  0  0  0  0  0  0
   60.8399   30.0913   46.9080 H   0  0  0  0  0  0  0  0  0  0  0  0
   61.0030   31.5150   48.6070 C   0  0  0  0  0  0  0  0  0  0  0  0
   60.6490   31.4650   49.9020 N   0  0  0  0  0  0  0  0  0  0  0  0
   60.8370   32.5590   50.8540 C   0  0  0  0  0  0  0  0  0  0  0  0
   61.2241   32.1532   51.8003 H   0  0  0  0  0  0  0  0  0  0  0  0
   59.8697   33.0550   51.0224 H   0  0  0  0  0  0  0  0  0  0  0  0
   61.8380   33.5920   50.2970 C   0  0  0  0  0  0  0  0  0  0  0  0
   62.8572   33.1960   50.4173 H   0  0  0  0  0  0  0  0  0  0  0  0
   61.6991   34.5281   50.8577 H   0  0  0  0  0  0  0  0  0  0  0  0
   61.6090   33.8880   48.8620 N   0  0  0  0  0  0  0  0  0  0  0  0
   60.3130   34.5650   48.6350 C   0  0  0  0  0  0  0  0  0  0  0  0
   60.4943   35.6211   48.3863 H   0  0  0  0  0  0  0  0  0  0  0  0
   59.7066   34.4910   49.5498 H   0  0  0  0  0  0  0  0  0  0  0  0
   59.5700   33.9090   47.5020 C   0  0  0  0  0  0  0  0  0  0  0  0
   59.8750   34.2230   46.1690 C   0  0  0  0  0  0  0  0  0  0  0  0
   60.6755   34.9437   45.9457 H   0  0  0  0  0  0  0  0  0  0  0  0
   59.1660   33.6240   45.1230 C   0  0  0  0  0  0  0  0  0  0  0  0
   59.4183   33.8704   44.0811 H   0  0  0  0  0  0  0  0  0  0  0  0
   58.1340   32.7100   45.3930 C   0  0  0  0  0  0  0  0  0  0  0  0
   57.3780   32.0850   44.2780 C   0  0  0  0  0  0  0  0  0  0  0  0
   57.4370   32.5930   43.1270 O   0  0  0  0  0  0  0  0  0  0  0  0
   56.6390   30.8660   44.4540 N   0  0  0  0  0  0  0  0  0  0  0  0
   57.1100   29.7080   44.8210 C   0  0  0  0  0  0  0  0  0  0  0  0
   56.2300   28.7460   45.2150 N   0  0  0  0  0  0  0  0  0  0  0  0
   56.6340   27.5120   45.6190 C   0  0  0  0  0  0  0  0  0  0  0  0
   55.8889   26.7628   45.9249 H   0  0  0  0  0  0  0  0  0  0  0  0
   57.9930   27.1950   45.6460 C   0  0  0  0  0  0  0  0  0  0  0  0
   58.5240   25.6060   46.1650 Cl  0  0  0  0  0  0  0  0  0  0  0  0
   58.9260   28.1620   45.2630 C   0  0  0  0  0  0  0  0  0  0  0  0
   60.0009   27.9291   45.2838 H   0  0  0  0  0  0  0  0  0  0  0  0
   58.4920   29.4240   44.8540 C   0  0  0  0  0  0  0  0  0  0  0  0
   59.2223   30.1920   44.5594 H   0  0  0  0  0  0  0  0  0  0  0  0
   57.8390   32.3900   46.7300 C   0  0  0  0  0  0  0  0  0  0  0  0
   57.0438   31.6640   46.9548 H   0  0  0  0  0  0  0  0  0  0  0  0
   58.5480   32.9870   47.7750 C   0  0  0  0  0  0  0  0  0  0  0  0
   58.3040   32.7331   48.8171 H   0  0  0  0  0  0  0  0  0  0  0  0
   61.7640   32.6700   48.0290 C   0  0  0  0  0  0  0  0  0  0  0  0
   62.8304   32.4057   47.9754 H   0  0  0  0  0  0  0  0  0  0  0  0
   61.3650   32.8819   47.0261 H   0  0  0  0  0  0  0  0  0  0  0  0
   57.0610   29.7400   51.8400 N   0  0  0  0  0  0  0  0  0  0  0  0
  1  2  1  0
  2  3  1  0
  3  4  2  0
  4  5  1  0
  4  6  1  0
  6  7  1  0
  7  8  1  0
  7  9  1  0
  7 10  1  0
 10 11  2  0
 11 12  1  0
 11 13  1  0
 13 14  1  0
 13 15  2  0
 15 16  1  0
 16 17  1  0
 17 18  1  0
 17 19  1  0
 17 20  1  0
 20 21  1  0
 20 22  1  0
 20 23  1  0
 23 24  1  0
 24 25  1  0
 24 26  1  0
 24 27  1  0
 27 28  2  0
 28 29  1  0
 28 30  1  0
 30 31  1  0
 30 32  2  0
 32 33  1  0
 33 34  2  0
 33 35  1  0
 35 36  2  0
 36 37  1  0
 37 38  1  0
 38 39  1  0
 38 40  2  0
 40 41  1  0
 40 42  1  0
 42 43  1  0
 42 44  2  0
 44 45  1  0
 32 46  1  0
 46 47  1  0
 46 48  2  0
 48 49  1  0
 23 50  1  0
 50 51  1  0
 50 52  1  0
  6 53  1  0
 53  2  2  0
 16 10  1  0
 48 27  1  0
 50 15  1  0
 44 36  1  0
M  CHG  1  37  -1
M  END
>  <UniqueID>  (30) 
26

>  <SMILES>  (30) 
O=C(/N=c1\ccc(Cl)c[n-]1)c1ccc(CN2CCn3c(ccc3Cn3cncn3)C2)cc1

>  <Energy>  (30) 
131.2521474757478

>  <Genealogy>  (30) 
O=C(N=c1ccc(Cl)c[n-]1)c1ccc(CN2CCn3c(ccc3Cn3cncn3)C2)cc1 (protonated)
O=C(/N=c1\ccc(Cl)c[n-]1)c1ccc(CN2CCn3c(ccc3Cn3cncn3)C2)cc1 (cis-trans isomerization)
O=C(/N=c1\ccc(Cl)c[n-]1)c1ccc(CN2CCn3c(ccc3Cn3cncn3)C2)cc1 (3D coordinates assigned)
O=C(/N=c1\ccc(Cl)c[n-]1)c1ccc(CN2CCn3c(ccc3Cn3cncn3)C2)cc1 (nonaromatic ring conformer: 131.2521474757478 kcal/mol)

>  <smiles>  (30) 
O=C(N=c1ccc(Cl)c[nH]1)c1ccc(CN2CCn3c(ccc3Cn3cncn3)C2)cc1

>  <score_type>  (30) 
oracle

>  <origin>  (30) 
adg

>  <m_score__min__energy>  (30) 
-10.859999999999999

>  <m_primary>  (30) 
energy

$$$$
30:0
     RDKit          3D

 53 56  0  0  0  0  0  0  0  0999 V2000
   55.1430   27.3810   46.0430 H   0  0  0  0  0  0  0  0  0  0  0  0
   54.9220   26.3610   46.0030 N   0  0  0  0  0  0  0  0  0  0  0  0
   56.4260   25.5160   46.0390 S   0  0  0  0  0  0  0  0  0  0  0  0
   56.4920   24.6730   47.2810 O   0  0  0  0  0  0  0  0  0  0  0  0
   56.5290   24.6180   44.8380 O   0  0  0  0  0  0  0  0  0  0  0  0
   57.7520   26.6720   46.0210 C   0  0  0  0  0  0  0  0  0  0  0  0
   58.4350   26.9350   44.8270 C   0  0  0  0  0  0  0  0  0  0  0  0
   58.1175   26.4453   43.8946 H   0  0  0  0  0  0  0  0  0  0  0  0
   59.5180   27.8170   44.8160 C   0  0  0  0  0  0  0  0  0  0  0  0
   60.0504   28.0204   43.8752 H   0  0  0  0  0  0  0  0  0  0  0  0
   59.9270   28.4420   45.9980 C   0  0  0  0  0  0  0  0  0  0  0  0
   60.7854   29.1297   45.9855 H   0  0  0  0  0  0  0  0  0  0  0  0
   59.2460   28.1950   47.2010 C   0  0  0  0  0  0  0  0  0  0  0  0
   59.6730   28.8390   48.4650 C   0  0  0  0  0  0  0  0  0  0  0  0
   59.5860   28.1940   49.5450 O   0  0  0  0  0  0  0  0  0  0  0  0
   60.1750   30.1830   48.5050 N   0  0  0  0  0  0  0  0  0  0  0  0
   59.8080   31.2110   49.4420 C   0  0  0  0  0  0  0  0  0  0  0  0
   58.9840   30.8450   50.5160 C   0  0  0  0  0  0  0  0  0  0  0  0
   58.6842   29.7937   50.6379 H   0  0  0  0  0  0  0  0  0  0  0  0
   58.5400   31.8000   51.4320 C   0  0  0  0  0  0  0  0  0  0  0  0
   57.8823   31.5013   52.2615 H   0  0  0  0  0  0  0  0  0  0  0  0
   58.9290   33.1320   51.2970 C   0  0  0  0  0  0  0  0  0  0  0  0
   58.5578   33.8877   52.0049 H   0  0  0  0  0  0  0  0  0  0  0  0
   59.7900   33.5070   50.2630 C   0  0  0  0  0  0  0  0  0  0  0  0
   60.1067   34.5566   50.1731 H   0  0  0  0  0  0  0  0  0  0  0  0
   60.2570   32.5580   49.3350 C   0  0  0  0  0  0  0  0  0  0  0  0
   61.2240   33.0150   48.3010 C   0  0  0  0  0  0  0  0  0  0  0  0
   62.6010   32.9680   48.5910 C   0  0  0  0  0  0  0  0  0  0  0  0
   62.9427   32.5768   49.5606 H   0  0  0  0  0  0  0  0  0  0  0  0
   63.5370   33.4160   47.6530 C   0  0  0  0  0  0  0  0  0  0  0  0
   64.6105   33.3851   47.8911 H   0  0  0  0  0  0  0  0  0  0  0  0
   63.1120   33.9020   46.4160 C   0  0  0  0  0  0  0  0  0  0  0  0
   63.8505   34.2605   45.6838 H   0  0  0  0  0  0  0  0  0  0  0  0
   61.7510   33.9340   46.1060 C   0  0  0  0  0  0  0  0  0  0  0  0
   61.4223   34.3113   45.1264 H   0  0  0  0  0  0  0  0  0  0  0  0
   60.7960   33.4860   47.0400 C   0  0  0  0  0  0  0  0  0  0  0  0
   59.4040   33.4360   46.6900 N   0  0  0  0  0  0  0  0  0  0  0  0
   58.9580   33.6160   45.4840 C   0  0  0  0  0  0  0  0  0  0  0  0
   59.0977   34.5911   44.9945 H   0  0  0  0  0  0  0  0  0  0  0  0
   58.2680   32.5340   44.7620 C   0  0  0  0  0  0  0  0  0  0  0  0
   58.0550   32.6700   43.3810 C   0  0  0  0  0  0  0  0  0  0  0  0
   58.3989   33.5765   42.8614 H   0  0  0  0  0  0  0  0  0  0  0  0
   57.4090   31.6610   42.6630 C   0  0  0  0  0  0  0  0  0  0  0  0
   57.2255   31.7844   41.5854 H   0  0  0  0  0  0  0  0  0  0  0  0
   56.9960   30.4960   43.3120 C   0  0  0  0  0  0  0  0  0  0  0  0
   56.5023   29.6955   42.7415 H   0  0  0  0  0  0  0  0  0  0  0  0
   57.2080   30.3450   44.6820 C   0  0  0  0  0  0  0  0  0  0  0  0
   56.8799   29.4256   45.1891 H   0  0  0  0  0  0  0  0  0  0  0  0
   57.8380   31.3610   45.4160 C   0  0  0  0  0  0  0  0  0  0  0  0
   58.0450   31.1960   46.7850 O   0  0  0  0  0  0  0  0  0  0  0  0
   58.9430   31.3860   47.2130 H   0  0  0  0  0  0  0  0  0  0  0  0
   58.1440   27.3250   47.1990 C   0  0  0  0  0  0  0  0  0  0  0  0
   57.5830   27.1539   48.1296 H   0  0  0  0  0  0  0  0  0  0  0  0
  1  2  1  0
  2  3  1  0
  3  4  2  0
  3  5  2  0
  3  6  1  0
  6  7  2  0
  7  8  1  0
  7  9  1  0
  9 10  1  0
  9 11  2  0
 11 12  1  0
 11 13  1  0
 13 14  1  0
 14 15  2  0
 14 16  1  0
 16 17  1  0
 17 18  2  0
 18 19  1  0
 18 20  1  0
 20 21  1  0
 20 22  2  0
 22 23  1  0
 22 24  1  0
 24 25  1  0
 24 26  2  0
 26 27  1  0
 27 28  2  0
 28 29  1  0
 28 30  1  0
 30 31  1  0
 30 32  2  0
 32 33  1  0
 32 34  1  0
 34 35  1  0
 34 36  2  0
 36 37  1  0
 37 38  2  0
 38 39  1  0
 38 40  1  0
 40 41  2  0
 41 42  1  0
 41 43  1  0
 43 44  1  0
 43 45  2  0
 45 46  1  0
 45 47  1  0
 47 48  1  0
 47 49  2  0
 49 50  1  0
 50 51  1  0
 13 52  2  0
 52 53  1  0
 52  6  1  0
 26 17  1  0
 36 27  1  0
 49 40  1  0
M  CHG  2   2  -1  16  -1
M  END
>  <UniqueID>  (31) 
27

>  <SMILES>  (31) 
[NH-]S(=O)(=O)c1cccc(C(=O)[N-]c2ccccc2-c2ccccc2/N=C/c2ccccc2O)c1

>  <Energy>  (31) 
76.10572184643007

>  <Genealogy>  (31) 
[NH-]S(=O)(=O)c1cccc(C(=O)[N-]c2ccccc2-c2ccccc2N=Cc2ccccc2O)c1 (protonated)
[NH-]S(=O)(=O)c1cccc(C(=O)[N-]c2ccccc2-c2ccccc2/N=C/c2ccccc2O)c1 (cis-trans isomerization)
[NH-]S(=O)(=O)c1cccc(C(=O)[N-]c2ccccc2-c2ccccc2/N=C/c2ccccc2O)c1 (3D coordinates assigned)
[NH-]S(=O)(=O)c1cccc(C(=O)[N-]c2ccccc2-c2ccccc2/N=C/c2ccccc2O)c1 (optimized conformer: 76.10572184643007 kcal/mol)

>  <smiles>  (31) 
NS(=O)(=O)c1cccc(C(=O)Nc2ccccc2-c2ccccc2N=Cc2ccccc2O)c1

>  <score_type>  (31) 
oracle

>  <origin>  (31) 
adg

>  <m_score__min__energy>  (31) 
-13.800000000000001

>  <m_primary>  (31) 
energy

$$$$
31:0
     RDKit          3D

 44 46  0  0  0  0  0  0  0  0999 V2000
   56.9690   31.9990   44.9820 N   0  0  0  0  0  0  0  0  0  0  0  0
   56.6360   30.5080   44.1730 S   0  0  0  0  0  0  0  0  0  0  0  0
   55.2280   30.0760   44.4780 O   0  0  0  0  0  0  0  0  0  0  0  0
   56.7690   30.7010   42.6890 O   0  0  0  0  0  0  0  0  0  0  0  0
   57.7700   29.2740   44.7160 C   0  0  0  0  0  0  0  0  0  0  0  0
   57.8980   28.0740   44.0060 C   0  0  0  0  0  0  0  0  0  0  0  0
   58.7790   27.0850   44.4530 C   0  0  0  0  0  0  0  0  0  0  0  0
   59.5390   27.2920   45.6070 C   0  0  0  0  0  0  0  0  0  0  0  0
   59.4310   28.5010   46.3190 C   0  0  0  0  0  0  0  0  0  0  0  0
   60.1690   28.7430   47.5240 N   0  0  0  0  0  0  0  0  0  0  0  0
   60.5660   30.0220   48.0430 C   0  0  0  0  0  0  0  0  0  0  0  0
   61.5370   30.6310   47.5200 O   0  0  0  0  0  0  0  0  0  0  0  0
   59.7980   30.6390   49.1620 C   0  0  0  0  0  0  0  0  0  0  0  0
   60.0570   30.2130   50.4820 C   0  0  0  0  0  0  0  0  0  0  0  0
   59.3710   30.7680   51.5620 C   0  0  0  0  0  0  0  0  0  0  0  0
   58.4130   31.7550   51.3480 C   0  0  0  0  0  0  0  0  0  0  0  0
   58.1360   32.1920   50.0520 C   0  0  0  0  0  0  0  0  0  0  0  0
   58.8190   31.6460   48.9480 C   0  0  0  0  0  0  0  0  0  0  0  0
   58.5290   32.0940   47.6140 N   0  0  0  0  0  0  0  0  0  0  0  0
   59.2830   33.4310   46.8050 S   0  0  0  0  0  0  0  0  0  0  0  0
   58.5190   34.6880   47.1160 O   0  0  0  0  0  0  0  0  0  0  0  0
   59.2490   33.1910   45.3230 O   0  0  0  0  0  0  0  0  0  0  0  0
   60.9600   33.5780   47.3190 C   0  0  0  0  0  0  0  0  0  0  0  0
   61.2630   33.7890   48.6720 C   0  0  0  0  0  0  0  0  0  0  0  0
   62.5940   33.9150   49.0820 C   0  0  0  0  0  0  0  0  0  0  0  0
   63.6270   33.8270   48.1440 C   0  0  0  0  0  0  0  0  0  0  0  0
   63.3300   33.6120   46.7950 C   0  0  0  0  0  0  0  0  0  0  0  0
   62.0000   33.4860   46.3820 C   0  0  0  0  0  0  0  0  0  0  0  0
   58.5270   29.4760   45.8790 C   0  0  0  0  0  0  0  0  0  0  0  0
   57.6630   31.7890   45.7340 H   0  0  0  0  0  0  0  0  0  0  0  0
   57.4510   32.6190   44.2920 H   0  0  0  0  0  0  0  0  0  0  0  0
   57.3042   27.9092   43.0948 H   0  0  0  0  0  0  0  0  0  0  0  0
   58.8741   26.1418   43.8950 H   0  0  0  0  0  0  0  0  0  0  0  0
   60.2241   26.5072   45.9602 H   0  0  0  0  0  0  0  0  0  0  0  0
   60.8106   29.4321   50.6617 H   0  0  0  0  0  0  0  0  0  0  0  0
   59.5873   30.4252   52.5846 H   0  0  0  0  0  0  0  0  0  0  0  0
   57.8735   32.1911   52.2017 H   0  0  0  0  0  0  0  0  0  0  0  0
   57.3763   32.9710   49.8910 H   0  0  0  0  0  0  0  0  0  0  0  0
   60.4520   33.8555   49.4122 H   0  0  0  0  0  0  0  0  0  0  0  0
   62.8284   34.0835   50.1434 H   0  0  0  0  0  0  0  0  0  0  0  0
   64.6736   33.9270   48.4675 H   0  0  0  0  0  0  0  0  0  0  0  0
   64.1433   33.5419   46.0577 H   0  0  0  0  0  0  0  0  0  0  0  0
   61.7688   33.3144   45.3204 H   0  0  0  0  0  0  0  0  0  0  0  0
   58.4098   30.4084   46.4507 H   0  0  0  0  0  0  0  0  0  0  0  0
  1  2  1  0
  2  3  2  0
  2  4  2  0
  2  5  1  0
  5  6  2  0
  6  7  1  0
  7  8  2  0
  8  9  1  0
  9 10  1  0
 10 11  1  0
 11 12  2  0
 11 13  1  0
 13 14  2  0
 14 15  1  0
 15 16  2  0
 16 17  1  0
 17 18  2  0
 18 19  1  0
 19 20  1  0
 20 21  2  0
 20 22  2  0
 20 23  1  0
 23 24  2  0
 24 25  1  0
 25 26  2  0
 26 27  1  0
 27 28  2  0
  9 29  2  0
 29  5  1  0
 18 13  1  0
 28 23  1  0
  1 30  1  0
  1 31  1  0
  6 32  1  0
  7 33  1  0
  8 34  1  0
 14 35  1  0
 15 36  1  0
 16 37  1  0
 17 38  1  0
 24 39  1  0
 25 40  1  0
 26 41  1  0
 27 42  1  0
 28 43  1  0
 29 44  1  0
M  CHG  2  10  -1  19  -1
M  END
>  <UniqueID>  (32) 
28

>  <SMILES>  (32) 
NS(=O)(=O)c1cccc([N-]C(=O)c2ccccc2[N-]S(=O)(=O)c2ccccc2)c1

>  <Energy>  (32) 
55.391970724152486

>  <Genealogy>  (32) 
NS(=O)(=O)c1cccc([N-]C(=O)c2ccccc2[N-]S(=O)(=O)c2ccccc2)c1 (protonated)
NS(=O)(=O)c1cccc([N-]C(=O)c2ccccc2[N-]S(=O)(=O)c2ccccc2)c1 (3D coordinates assigned)
NS(=O)(=O)c1cccc([N-]C(=O)c2ccccc2[N-]S(=O)(=O)c2ccccc2)c1 (optimized conformer: 55.391970724152486 kcal/mol)

>  <smiles>  (32) 
NS(=O)(=O)c1cccc(NC(=O)c2ccccc2NS(=O)(=O)c2ccccc2)c1

>  <score_type>  (32) 
oracle

>  <origin>  (32) 
adg

>  <m_score__min__energy>  (32) 
-12.9

>  <m_primary>  (32) 
energy

$$$$
32:0
     RDKit          3D

 42 44  0  0  0  0  0  0  0  0999 V2000
   57.3470   30.8050   44.9900 O   0  0  0  0  0  0  0  0  0  0  0  0
   58.2060   30.2430   45.7210 C   0  0  0  0  0  0  0  0  0  0  0  0
   58.1200   28.8340   45.9880 N   0  0  0  0  0  0  0  0  0  0  0  0
   57.0170   28.0100   45.5760 C   0  0  0  0  0  0  0  0  0  0  0  0
   55.9360   28.5410   45.2030 O   0  0  0  0  0  0  0  0  0  0  0  0
   57.1130   26.5330   45.6350 C   0  0  0  0  0  0  0  0  0  0  0  0
   58.3790   25.9220   45.5790 C   0  0  0  0  0  0  0  0  0  0  0  0
   58.4990   24.5310   45.6230 C   0  0  0  0  0  0  0  0  0  0  0  0
   57.3600   23.7330   45.7290 C   0  0  0  0  0  0  0  0  0  0  0  0
   56.0970   24.3240   45.8040 C   0  0  0  0  0  0  0  0  0  0  0  0
   55.9650   25.7210   45.7680 C   0  0  0  0  0  0  0  0  0  0  0  0
   54.7000   26.2960   45.8920 O   0  0  0  0  0  0  0  0  0  0  0  0
   59.3100   30.9950   46.2470 N   0  0  0  0  0  0  0  0  0  0  0  0
   59.3990   32.4310   46.1970 C   0  0  0  0  0  0  0  0  0  0  0  0
   58.2620   33.2140   45.9240 C   0  0  0  0  0  0  0  0  0  0  0  0
   58.3520   34.6080   45.9030 C   0  0  0  0  0  0  0  0  0  0  0  0
   59.5720   35.2350   46.1570 C   0  0  0  0  0  0  0  0  0  0  0  0
   60.7030   34.4700   46.4480 C   0  0  0  0  0  0  0  0  0  0  0  0
   60.6220   33.0660   46.4900 C   0  0  0  0  0  0  0  0  0  0  0  0
   61.7530   32.2790   46.7630 O   0  0  0  0  0  0  0  0  0  0  0  0
   62.5970   32.4260   47.8730 C   0  0  0  0  0  0  0  0  0  0  0  0
   62.2670   31.7620   49.0610 C   0  0  0  0  0  0  0  0  0  0  0  0
   63.0750   31.8960   50.1950 C   0  0  0  0  0  0  0  0  0  0  0  0
   64.2140   32.7050   50.1510 C   0  0  0  0  0  0  0  0  0  0  0  0
   64.5410   33.3870   48.9750 C   0  0  0  0  0  0  0  0  0  0  0  0
   63.7350   33.2550   47.8410 C   0  0  0  0  0  0  0  0  0  0  0  0
   58.8850   28.3990   46.5500 H   0  0  0  0  0  0  0  0  0  0  0  0
   59.2821   26.5450   45.4999 H   0  0  0  0  0  0  0  0  0  0  0  0
   59.4938   24.0640   45.5740 H   0  0  0  0  0  0  0  0  0  0  0  0
   57.4566   22.6375   45.7535 H   0  0  0  0  0  0  0  0  0  0  0  0
   55.2012   23.6917   45.8917 H   0  0  0  0  0  0  0  0  0  0  0  0
   54.3840   26.7050   46.7650 H   0  0  0  0  0  0  0  0  0  0  0  0
   60.1260   30.4620   46.6220 H   0  0  0  0  0  0  0  0  0  0  0  0
   57.2965   32.7255   45.7259 H   0  0  0  0  0  0  0  0  0  0  0  0
   57.4590   35.2124   45.6857 H   0  0  0  0  0  0  0  0  0  0  0  0
   59.6429   36.3323   46.1280 H   0  0  0  0  0  0  0  0  0  0  0  0
   61.6636   34.9681   46.6457 H   0  0  0  0  0  0  0  0  0  0  0  0
   61.3668   31.1312   49.1027 H   0  0  0  0  0  0  0  0  0  0  0  0
   62.8139   31.3644   51.1219 H   0  0  0  0  0  0  0  0  0  0  0  0
   64.8527   32.8051   51.0410 H   0  0  0  0  0  0  0  0  0  0  0  0
   65.4340   34.0284   48.9424 H   0  0  0  0  0  0  0  0  0  0  0  0
   63.9903   33.8004   46.9205 H   0  0  0  0  0  0  0  0  0  0  0  0
  1  2  2  0
  2  3  1  0
  3  4  1  0
  4  5  2  0
  4  6  1  0
  6  7  2  0
  7  8  1  0
  8  9  2  0
  9 10  1  0
 10 11  2  0
 11 12  1  0
  2 13  1  0
 13 14  1  0
 14 15  2  0
 15 16  1  0
 16 17  2  0
 17 18  1  0
 18 19  2  0
 19 20  1  0
 20 21  1  0
 21 22  2  0
 22 23  1  0
 23 24  2  0
 24 25  1  0
 25 26  2  0
 11  6  1  0
 19 14  1  0
 26 21  1  0
  3 27  1  0
  7 28  1  0
  8 29  1  0
  9 30  1  0
 10 31  1  0
 12 32  1  0
 13 33  1  0
 15 34  1  0
 16 35  1  0
 17 36  1  0
 18 37  1  0
 22 38  1  0
 23 39  1  0
 24 40  1  0
 25 41  1  0
 26 42  1  0
M  END
>  <UniqueID>  (33) 
29

>  <SMILES>  (33) 
O=C(NC(=O)c1ccccc1O)Nc1ccccc1Oc1ccccc1

>  <Energy>  (33) 
59.14313458427206

>  <Genealogy>  (33) 
O=C(NC(=O)c1ccccc1O)Nc1ccccc1Oc1ccccc1 (3D coordinates assigned)
O=C(NC(=O)c1ccccc1O)Nc1ccccc1Oc1ccccc1 (optimized conformer: 59.14313458427206 kcal/mol)

>  <smiles>  (33) 
O=C(NC(=O)c1ccccc1O)Nc1ccccc1Oc1ccccc1

>  <score_type>  (33) 
oracle

>  <origin>  (33) 
adg

>  <m_score__min__energy>  (33) 
-9.9900000000000002

>  <m_primary>  (33) 
energy

$$$$
33:0
     RDKit          3D

 32 33  0  0  0  0  0  0  0  0999 V2000
   57.7728   29.1231   43.1954 H   0  0  0  0  0  0  0  0  0  0  0  0
   57.3310   29.9560   43.7620 C   0  0  0  0  0  0  0  0  0  0  0  0
   56.0780   29.6720   44.4930 C   0  0  0  0  0  0  0  0  0  0  0  0
   55.1670   30.5430   44.4900 O   0  0  0  0  0  0  0  0  0  0  0  0
   55.8980   28.4590   45.2260 N   0  0  0  0  0  0  0  0  0  0  0  0
   57.2150   27.4380   45.6950 S   0  0  0  0  0  0  0  0  0  0  0  0
   56.7540   26.5620   46.8270 O   0  0  0  0  0  0  0  0  0  0  0  0
   57.6360   26.5730   44.5390 O   0  0  0  0  0  0  0  0  0  0  0  0
   58.5600   28.4220   46.2430 C   0  0  0  0  0  0  0  0  0  0  0  0
   60.0190   28.6170   45.4250 S   0  0  0  0  0  0  0  0  0  0  0  0
   60.6790   29.7200   46.5130 C   0  0  0  0  0  0  0  0  0  0  0  0
   61.6695   30.1913   46.4303 H   0  0  0  0  0  0  0  0  0  0  0  0
   59.7580   29.9340   47.5350 C   0  0  0  0  0  0  0  0  0  0  0  0
   59.9457   30.6124   48.3803 H   0  0  0  0  0  0  0  0  0  0  0  0
   58.5720   29.2070   47.3880 C   0  0  0  0  0  0  0  0  0  0  0  0
   57.7377   29.2525   48.1035 H   0  0  0  0  0  0  0  0  0  0  0  0
   57.9850   31.1300   43.7200 C   0  0  0  0  0  0  0  0  0  0  0  0
   59.0432   31.1000   43.4211 H   0  0  0  0  0  0  0  0  0  0  0  0
   57.4050   32.4850   44.0440 C   0  0  0  0  0  0  0  0  0  0  0  0
   57.4780   33.1215   43.1498 H   0  0  0  0  0  0  0  0  0  0  0  0
   56.3601   32.3329   44.3523 H   0  0  0  0  0  0  0  0  0  0  0  0
   58.1210   33.1710   45.1850 C   0  0  0  0  0  0  0  0  0  0  0  0
   58.9650   34.2710   44.9490 C   0  0  0  0  0  0  0  0  0  0  0  0
   59.1281   34.6250   43.9204 H   0  0  0  0  0  0  0  0  0  0  0  0
   59.5980   34.9170   46.0160 C   0  0  0  0  0  0  0  0  0  0  0  0
   60.2672   35.7684   45.8230 H   0  0  0  0  0  0  0  0  0  0  0  0
   59.3820   34.4830   47.3270 C   0  0  0  0  0  0  0  0  0  0  0  0
   59.8909   34.9842   48.1636 H   0  0  0  0  0  0  0  0  0  0  0  0
   58.5200   33.4130   47.5740 C   0  0  0  0  0  0  0  0  0  0  0  0
   58.3407   33.0797   48.6069 H   0  0  0  0  0  0  0  0  0  0  0  0
   57.8840   32.7640   46.5110 C   0  0  0  0  0  0  0  0  0  0  0  0
   57.1947   31.9308   46.7125 H   0  0  0  0  0  0  0  0  0  0  0  0
  1  2  1  0
  2  3  1  0
  3  4  2  0
  3  5  1  0
  5  6  1  0
  6  7  2  0
  6  8  2  0
  6  9  1  0
  9 10  1  0
 10 11  1  0
 11 12  1  0
 11 13  2  0
 13 14  1  0
 13 15  1  0
 15 16  1  0
  2 17  2  0
 17 18  1  0
 17 19  1  0
 19 20  1  0
 19 21  1  0
 19 22  1  0
 22 23  2  0
 23 24  1  0
 23 25  1  0
 25 26  1  0
 25 27  2  0
 27 28  1  0
 27 29  1  0
 29 30  1  0
 29 31  2  0
 31 32  1  0
 15  9  2  0
 31 22  1  0
M  CHG  1   5  -1
M  END
>  <UniqueID>  (34) 
30

>  <SMILES>  (34) 
O=C(/C=C\Cc1ccccc1)[N-]S(=O)(=O)c1cccs1

>  <Energy>  (34) 
58.58760174156128

>  <Genealogy>  (34) 
O=C(C=CCc1ccccc1)[N-]S(=O)(=O)c1cccs1 (protonated)
O=C(/C=C\Cc1ccccc1)[N-]S(=O)(=O)c1cccs1 (cis-trans isomerization)
O=C(/C=C\Cc1ccccc1)[N-]S(=O)(=O)c1cccs1 (3D coordinates assigned)
O=C(/C=C\Cc1ccccc1)[N-]S(=O)(=O)c1cccs1 (optimized conformer: 58.58760174156128 kcal/mol)

>  <smiles>  (34) 
O=C(C=CCc1ccccc1)NS(=O)(=O)c1cccs1

>  <score_type>  (34) 
oracle

>  <origin>  (34) 
adg

>  <m_score__min__energy>  (34) 
-9.5600000000000005

>  <m_primary>  (34) 
energy

$$$$
34:0
     RDKit          3D

 52 55  0  0  0  0  0  0  0  0999 V2000
   58.5090   33.4790   43.7680 O   0  0  0  0  0  0  0  0  0  0  0  0
   57.7530   32.5130   44.0620 C   0  0  0  0  0  0  0  0  0  0  0  0
   57.7570   31.2870   43.2010 C   0  0  0  0  0  0  0  0  0  0  0  0
   57.4750   30.0640   44.0340 C   0  0  0  0  0  0  0  0  0  0  0  0
   58.5150   29.2760   44.4270 N   0  0  0  0  0  0  0  0  0  0  0  0
   58.3230   28.1730   45.1960 C   0  0  0  0  0  0  0  0  0  0  0  0
   59.4030   27.3730   45.5780 C   0  0  0  0  0  0  0  0  0  0  0  0
   59.1840   26.2330   46.3590 C   0  0  0  0  0  0  0  0  0  0  0  0
   57.8890   25.8990   46.7680 C   0  0  0  0  0  0  0  0  0  0  0  0
   56.8060   26.7080   46.4040 C   0  0  0  0  0  0  0  0  0  0  0  0
   57.0190   27.8420   45.6140 C   0  0  0  0  0  0  0  0  0  0  0  0
   55.9790   28.6310   45.2360 N   0  0  0  0  0  0  0  0  0  0  0  0
   56.1720   29.7310   44.4600 C   0  0  0  0  0  0  0  0  0  0  0  0
   55.1800   30.4360   44.1330 O   0  0  0  0  0  0  0  0  0  0  0  0
   56.9430   32.5590   45.2450 N   0  0  0  0  0  0  0  0  0  0  0  0
   57.1720   33.5330   46.3100 C   0  0  0  0  0  0  0  0  0  0  0  0
   58.5760   33.3910   46.8300 C   0  0  0  0  0  0  0  0  0  0  0  0
   59.2720   34.5170   47.2990 C   0  0  0  0  0  0  0  0  0  0  0  0
   60.5480   34.3770   47.8490 C   0  0  0  0  0  0  0  0  0  0  0  0
   61.1330   33.1120   47.9540 C   0  0  0  0  0  0  0  0  0  0  0  0
   60.4470   31.9780   47.4950 C   0  0  0  0  0  0  0  0  0  0  0  0
   61.0460   30.6060   47.6390 C   0  0  0  0  0  0  0  0  0  0  0  0
   60.6950   30.0460   48.9390 N   0  0  0  0  0  0  0  0  0  0  0  0
   59.3510   29.9440   49.4220 C   0  0  0  0  0  0  0  0  0  0  0  0
   58.6000   29.0200   49.0040 O   0  0  0  0  0  0  0  0  0  0  0  0
   58.8420   30.9240   50.4040 C   0  0  0  0  0  0  0  0  0  0  0  0
   57.6910   30.6420   51.1630 C   0  0  0  0  0  0  0  0  0  0  0  0
   57.1960   31.5830   52.0710 C   0  0  0  0  0  0  0  0  0  0  0  0
   57.8460   32.8100   52.2340 C   0  0  0  0  0  0  0  0  0  0  0  0
   58.9940   33.0960   51.4910 C   0  0  0  0  0  0  0  0  0  0  0  0
   59.4930   32.1580   50.5800 C   0  0  0  0  0  0  0  0  0  0  0  0
   59.1670   32.1230   46.9360 C   0  0  0  0  0  0  0  0  0  0  0  0
   56.9825   31.3850   42.4260 H   0  0  0  0  0  0  0  0  0  0  0  0
   58.7466   31.1812   42.7325 H   0  0  0  0  0  0  0  0  0  0  0  0
   60.4235   27.6390   45.2653 H   0  0  0  0  0  0  0  0  0  0  0  0
   60.0328   25.5977   46.6522 H   0  0  0  0  0  0  0  0  0  0  0  0
   57.7210   24.9986   47.3771 H   0  0  0  0  0  0  0  0  0  0  0  0
   55.7898   26.4522   46.7387 H   0  0  0  0  0  0  0  0  0  0  0  0
   56.2770   31.7740   45.4340 H   0  0  0  0  0  0  0  0  0  0  0  0
   57.0294   34.5492   45.9137 H   0  0  0  0  0  0  0  0  0  0  0  0
   56.4593   33.3537   47.1285 H   0  0  0  0  0  0  0  0  0  0  0  0
   58.8102   35.5132   47.2329 H   0  0  0  0  0  0  0  0  0  0  0  0
   61.0942   35.2648   48.2005 H   0  0  0  0  0  0  0  0  0  0  0  0
   62.1339   33.0055   48.3977 H   0  0  0  0  0  0  0  0  0  0  0  0
   60.6577   29.9530   46.8435 H   0  0  0  0  0  0  0  0  0  0  0  0
   62.1407   30.6782   47.5590 H   0  0  0  0  0  0  0  0  0  0  0  0
   57.1782   29.6765   51.0413 H   0  0  0  0  0  0  0  0  0  0  0  0
   56.2935   31.3575   52.6581 H   0  0  0  0  0  0  0  0  0  0  0  0
   57.4536   33.5500   52.9471 H   0  0  0  0  0  0  0  0  0  0  0  0
   59.5067   34.0603   51.6223 H   0  0  0  0  0  0  0  0  0  0  0  0
   60.3985   32.3871   49.9990 H   0  0  0  0  0  0  0  0  0  0  0  0
   58.6237   31.2358   46.5786 H   0  0  0  0  0  0  0  0  0  0  0  0
  1  2  2  0
  2  3  1  0
  3  4  1  0
  4  5  2  0
  5  6  1  0
  6  7  2  0
  7  8  1  0
  8  9  2  0
  9 10  1  0
 10 11  2  0
 11 12  1  0
 12 13  1  0
 13 14  2  0
  2 15  1  0
 15 16  1  0
 16 17  1  0
 17 18  2  0
 18 19  1  0
 19 20  2  0
 20 21  1  0
 21 22  1  0
 22 23  1  0
 23 24  1  0
 24 25  2  0
 24 26  1  0
 26 27  2  0
 27 28  1  0
 28 29  2  0
 29 30  1  0
 30 31  2  0
 21 32  2  0
 13  4  1  0
 32 17  1  0
 11  6  1  0
 31 26  1  0
  3 33  1  0
  3 34  1  0
  7 35  1  0
  8 36  1  0
  9 37  1  0
 10 38  1  0
 15 39  1  0
 16 40  1  0
 16 41  1  0
 18 42  1  0
 19 43  1  0
 20 44  1  0
 22 45  1  0
 22 46  1  0
 27 47  1  0
 28 48  1  0
 29 49  1  0
 30 50  1  0
 31 51  1  0
 32 52  1  0
M  CHG  2  12  -1  23  -1
M  END
>  <UniqueID>  (35) 
31

>  <SMILES>  (35) 
O=C(Cc1nc2ccccc2[n-]c1=O)NCc1cccc(C[N-]C(=O)c2ccccc2)c1

>  <Energy>  (35) 
47.149687538890085

>  <Genealogy>  (35) 
O=C(Cc1nc2ccccc2[n-]c1=O)NCc1cccc(C[N-]C(=O)c2ccccc2)c1 (protonated)
O=C(Cc1nc2ccccc2[n-]c1=O)NCc1cccc(C[N-]C(=O)c2ccccc2)c1 (3D coordinates assigned)
O=C(Cc1nc2ccccc2[n-]c1=O)NCc1cccc(C[N-]C(=O)c2ccccc2)c1 (optimized conformer: 47.149687538890085 kcal/mol)

>  <smiles>  (35) 
O=C(Cc1nc2ccccc2[nH]c1=O)NCc1cccc(CNC(=O)c2ccccc2)c1

>  <score_type>  (35) 
oracle

>  <origin>  (35) 
adg

>  <m_score__min__energy>  (35) 
-12.07

>  <m_primary>  (35) 
energy

$$$$
35:0
     RDKit          3D

 34 35  0  0  0  0  0  0  0  0999 V2000
   58.5220   30.9540   47.2780 C   0  0  0  0  0  0  0  0  0  0  0  0
   57.5720   31.6930   46.5180 O   0  0  0  0  0  0  0  0  0  0  0  0
   57.6380   31.7530   45.1220 C   0  0  0  0  0  0  0  0  0  0  0  0
   57.0270   30.7570   44.3210 C   0  0  0  0  0  0  0  0  0  0  0  0
   56.3920   29.5550   44.9130 C   0  0  0  0  0  0  0  0  0  0  0  0
   55.1610   29.3420   44.7370 O   0  0  0  0  0  0  0  0  0  0  0  0
   57.1740   28.6140   45.6590 N   0  0  0  0  0  0  0  0  0  0  0  0
   57.3210   27.2130   45.2800 C   0  0  1  0  0  0  0  0  0  0  0  0
   58.7000   26.6630   45.6860 C   0  0  0  0  0  0  0  0  0  0  0  0
   58.4550   25.6620   46.8300 C   0  0  0  0  0  0  0  0  0  0  0  0
   57.0500   25.5190   46.9300 O   0  0  0  0  0  0  0  0  0  0  0  0
   56.3990   26.3840   46.0810 C   0  0  0  0  0  0  0  0  0  0  0  0
   55.1440   26.4490   46.0050 O   0  0  0  0  0  0  0  0  0  0  0  0
   57.0500   30.8980   42.9230 C   0  0  0  0  0  0  0  0  0  0  0  0
   57.6970   31.9810   42.3280 C   0  0  0  0  0  0  0  0  0  0  0  0
   58.3350   32.9370   43.1170 C   0  0  0  0  0  0  0  0  0  0  0  0
   58.3190   32.8270   44.5130 C   0  0  0  0  0  0  0  0  0  0  0  0
   59.1260   34.0500   45.5010 S   0  0  0  0  0  0  0  0  0  0  0  0
   58.4650   34.0810   47.1000 N   0  0  0  0  0  0  0  0  0  0  0  0
   60.5950   33.7420   45.5800 O   0  0  0  0  0  0  0  0  0  0  0  0
   58.9310   35.4020   44.8760 O   0  0  0  0  0  0  0  0  0  0  0  0
   58.3297   31.1036   48.3507 H   0  0  0  0  0  0  0  0  0  0  0  0
   58.4338   29.8847   47.0353 H   0  0  0  0  0  0  0  0  0  0  0  0
   59.5367   31.3026   47.0353 H   0  0  0  0  0  0  0  0  0  0  0  0
   57.1474   27.1708   44.1946 H   0  0  0  0  0  0  0  0  0  0  0  0
   59.1725   26.1553   44.8322 H   0  0  0  0  0  0  0  0  0  0  0  0
   59.3720   27.4733   46.0051 H   0  0  0  0  0  0  0  0  0  0  0  0
   58.9220   24.6937   46.5970 H   0  0  0  0  0  0  0  0  0  0  0  0
   58.8920   26.0161   47.7753 H   0  0  0  0  0  0  0  0  0  0  0  0
   56.5528   30.1468   42.2917 H   0  0  0  0  0  0  0  0  0  0  0  0
   57.7039   32.0811   41.2326 H   0  0  0  0  0  0  0  0  0  0  0  0
   58.8536   33.7820   42.6406 H   0  0  0  0  0  0  0  0  0  0  0  0
   57.4370   33.9150   47.0110 H   0  0  0  0  0  0  0  0  0  0  0  0
   58.8550   33.2560   47.6080 H   0  0  0  0  0  0  0  0  0  0  0  0
  1  2  1  0
  2  3  1  0
  3  4  2  0
  4  5  1  0
  5  6  2  0
  5  7  1  0
  7  8  1  0
  8  9  1  0
  9 10  1  0
 10 11  1  0
 11 12  1  0
 12 13  2  0
  4 14  1  0
 14 15  2  0
 15 16  1  0
 16 17  2  0
 17 18  1  0
 18 19  1  0
 18 20  2  0
 18 21  2  0
 17  3  1  0
 12  8  1  0
  1 22  1  0
  1 23  1  0
  1 24  1  0
  8 25  1  6
  9 26  1  0
  9 27  1  0
 10 28  1  0
 10 29  1  0
 14 30  1  0
 15 31  1  0
 16 32  1  0
 19 33  1  0
 19 34  1  0
M  CHG  1   7  -1
M  END
>  <UniqueID>  (36) 
32

>  <SMILES>  (36) 
COc1c(C(=O)[N-][C@H]2CCOC2=O)cccc1S(N)(=O)=O

>  <Energy>  (36) 
47.33240828006493

>  <Genealogy>  (36) 
COc1c(C(=O)[N-]C2CCOC2=O)cccc1S(N)(=O)=O (protonated)
COc1c(C(=O)[N-][C@H]2CCOC2=O)cccc1S(N)(=O)=O (chirality)
COc1c(C(=O)[N-][C@H]2CCOC2=O)cccc1S(N)(=O)=O (3D coordinates assigned)
COc1c(C(=O)[N-][C@H]2CCOC2=O)cccc1S(N)(=O)=O (nonaromatic ring conformer: 47.33240828006493 kcal/mol)

>  <smiles>  (36) 
COc1c(C(=O)NC2CCOC2=O)cccc1S(N)(=O)=O

>  <score_type>  (36) 
oracle

>  <origin>  (36) 
adg

>  <m_score__min__energy>  (36) 
-8.7599999999999998

>  <m_primary>  (36) 
energy

$$$$
36:0
     RDKit          3D

 61 63  0  0  0  0  0  0  0  0999 V2000
   54.8970   30.3990   51.9840 C   0  0  0  0  0  0  0  0  0  0  0  0
   56.2720   30.0940   51.7710 O   0  0  0  0  0  0  0  0  0  0  0  0
   57.2940   31.0520   51.7070 C   0  0  0  0  0  0  0  0  0  0  0  0
   58.1560   31.0340   50.6040 C   0  0  0  0  0  0  0  0  0  0  0  0
   59.1910   31.9660   50.4970 C   0  0  0  0  0  0  0  0  0  0  0  0
   59.3830   32.9320   51.4900 C   0  0  0  0  0  0  0  0  0  0  0  0
   60.4750   33.8530   51.3510 N   0  0  0  0  0  0  0  0  0  0  0  0
   62.1110   33.4330   50.9510 S   0  0  0  0  0  0  0  0  0  0  0  0
   62.4440   32.0990   51.5620 O   0  0  0  0  0  0  0  0  0  0  0  0
   63.0110   34.4770   51.5480 O   0  0  0  0  0  0  0  0  0  0  0  0
   62.3620   33.3910   49.1940 C   0  0  0  0  0  0  0  0  0  0  0  0
   61.2540   33.5230   48.3420 C   0  0  0  0  0  0  0  0  0  0  0  0
   61.4150   33.5780   46.9500 C   0  0  0  0  0  0  0  0  0  0  0  0
   60.2990   33.7830   46.0670 N   0  0  0  0  0  0  0  0  0  0  0  0
   58.9410   34.0920   46.4310 C   0  0  0  0  0  0  0  0  0  0  0  0
   58.6680   34.2620   47.6480 O   0  0  0  0  0  0  0  0  0  0  0  0
   57.8330   34.2100   45.4220 C   0  0  0  0  0  0  0  0  0  0  0  0
   58.2830   33.7620   44.1480 O   0  0  0  0  0  0  0  0  0  0  0  0
   57.9110   32.5360   43.5920 C   0  0  0  0  0  0  0  0  0  0  0  0
   57.7020   32.4370   42.3520 O   0  0  0  0  0  0  0  0  0  0  0  0
   57.8430   31.3530   44.4720 C   0  0  0  0  0  0  0  0  0  0  0  0
   58.5670   31.2590   45.6040 N   0  0  0  0  0  0  0  0  0  0  0  0
   58.3770   30.0260   46.1030 C   0  0  0  0  0  0  0  0  0  0  0  0
   59.0780   29.5190   47.3260 C   0  0  0  0  0  0  0  0  0  0  0  0
   57.5230   29.3000   45.2830 C   0  0  0  0  0  0  0  0  0  0  0  0
   57.1520   27.8800   45.4680 C   0  0  0  0  0  0  0  0  0  0  0  0
   58.1720   26.7840   45.4660 C   0  0  0  0  0  0  0  0  0  0  0  0
   55.9420   27.5760   45.6460 O   0  0  0  0  0  0  0  0  0  0  0  0
   57.1550   30.1620   44.2500 C   0  0  0  0  0  0  0  0  0  0  0  0
   56.2260   29.8560   43.1100 C   0  0  0  0  0  0  0  0  0  0  0  0
   62.6880   33.4090   46.4030 C   0  0  0  0  0  0  0  0  0  0  0  0
   63.8000   33.2590   47.2350 C   0  0  0  0  0  0  0  0  0  0  0  0
   63.6550   33.2580   48.6320 C   0  0  0  0  0  0  0  0  0  0  0  0
   64.8850   33.1400   49.4930 C   0  0  0  0  0  0  0  0  0  0  0  0
   58.5220   32.9540   52.6020 C   0  0  0  0  0  0  0  0  0  0  0  0
   57.4840   32.0230   52.7090 C   0  0  0  0  0  0  0  0  0  0  0  0
   54.6945   30.4439   53.0643 H   0  0  0  0  0  0  0  0  0  0  0  0
   54.6619   31.3711   51.5261 H   0  0  0  0  0  0  0  0  0  0  0  0
   54.2729   29.6175   51.5261 H   0  0  0  0  0  0  0  0  0  0  0  0
   58.0171   30.2799   49.8153 H   0  0  0  0  0  0  0  0  0  0  0  0
   59.8605   31.9399   49.6246 H   0  0  0  0  0  0  0  0  0  0  0  0
   60.2438   33.5842   48.7730 H   0  0  0  0  0  0  0  0  0  0  0  0
   56.9803   33.5942   45.7441 H   0  0  0  0  0  0  0  0  0  0  0  0
   57.5257   35.2634   45.3457 H   0  0  0  0  0  0  0  0  0  0  0  0
   59.1920   31.9950   46.0040 H   0  0  0  0  0  0  0  0  0  0  0  0
   58.5635   29.8911   48.2243 H   0  0  0  0  0  0  0  0  0  0  0  0
   59.0663   28.4191   47.3259 H   0  0  0  0  0  0  0  0  0  0  0  0
   60.1189   29.8746   47.3259 H   0  0  0  0  0  0  0  0  0  0  0  0
   58.4227   26.5146   46.5026 H   0  0  0  0  0  0  0  0  0  0  0  0
   57.7639   25.9042   44.9470 H   0  0  0  0  0  0  0  0  0  0  0  0
   59.0788   27.1280   44.9470 H   0  0  0  0  0  0  0  0  0  0  0  0
   55.2516   29.5351   43.5070 H   0  0  0  0  0  0  0  0  0  0  0  0
   56.0920   30.7575   42.4941 H   0  0  0  0  0  0  0  0  0  0  0  0
   56.6540   29.0514   42.4941 H   0  0  0  0  0  0  0  0  0  0  0  0
   62.8163   33.3939   45.3106 H   0  0  0  0  0  0  0  0  0  0  0  0
   64.7996   33.1404   46.7915 H   0  0  0  0  0  0  0  0  0  0  0  0
   64.5943   33.1679   50.5535 H   0  0  0  0  0  0  0  0  0  0  0  0
   65.3938   32.1889   49.2772 H   0  0  0  0  0  0  0  0  0  0  0  0
   65.5653   33.9770   49.2772 H   0  0  0  0  0  0  0  0  0  0  0  0
   58.6658   33.7069   53.3910 H   0  0  0  0  0  0  0  0  0  0  0  0
   56.8127   32.0493   53.5800 H   0  0  0  0  0  0  0  0  0  0  0  0
  1  2  1  0
  2  3  1  0
  3  4  2  0
  4  5  1  0
  5  6  2  0
  6  7  1  0
  7  8  1  0
  8  9  2  0
  8 10  2  0
  8 11  1  0
 11 12  2  0
 12 13  1  0
 13 14  1  0
 14 15  1  0
 15 16  2  0
 15 17  1  0
 17 18  1  0
 18 19  1  0
 19 20  2  0
 19 21  1  0
 21 22  1  0
 22 23  1  0
 23 24  1  0
 23 25  2  0
 25 26  1  0
 26 27  1  0
 26 28  2  0
 25 29  1  0
 29 30  1  0
 13 31  2  0
 31 32  1  0
 32 33  2  0
 33 34  1  0
  6 35  1  0
 35 36  2  0
 36  3  1  0
 33 11  1  0
 29 21  2  0
  1 37  1  0
  1 38  1  0
  1 39  1  0
  4 40  1  0
  5 41  1  0
 12 42  1  0
 17 43  1  0
 17 44  1  0
 22 45  1  0
 24 46  1  0
 24 47  1  0
 24 48  1  0
 27 49  1  0
 27 50  1  0
 27 51  1  0
 30 52  1  0
 30 53  1  0
 30 54  1  0
 31 55  1  0
 32 56  1  0
 34 57  1  0
 34 58  1  0
 34 59  1  0
 35 60  1  0
 36 61  1  0
M  CHG  2   7  -1  14  -1
M  END
>  <UniqueID>  (37) 
33

>  <SMILES>  (37) 
COc1ccc([N-]S(=O)(=O)c2cc([N-]C(=O)COC(=O)c3[nH]c(C)c(C(C)=O)c3C)ccc2C)cc1

>  <Energy>  (37) 
90.47227981723826

>  <Genealogy>  (37) 
COc1ccc([N-]S(=O)(=O)c2cc([N-]C(=O)COC(=O)c3[nH]c(C)c(C(C)=O)c3C)ccc2C)cc1 (protonated)
COc1ccc([N-]S(=O)(=O)c2cc([N-]C(=O)COC(=O)c3[nH]c(C)c(C(C)=O)c3C)ccc2C)cc1 (3D coordinates assigned)
COc1ccc([N-]S(=O)(=O)c2cc([N-]C(=O)COC(=O)c3[nH]c(C)c(C(C)=O)c3C)ccc2C)cc1 (optimized conformer: 90.47227981723826 kcal/mol)

>  <smiles>  (37) 
COc1ccc(NS(=O)(=O)c2cc(NC(=O)COC(=O)c3[nH]c(C)c(C(C)=O)c3C)ccc2C)cc1

>  <score_type>  (37) 
oracle

>  <origin>  (37) 
adg

>  <m_score__min__energy>  (37) 
-11.970000000000001

>  <m_primary>  (37) 
energy

$$$$
37:0
     RDKit          3D

 52 54  0  0  0  0  0  0  0  0999 V2000
   57.0770   29.9120   44.5050 C   0  0  0  0  0  0  0  0  0  0  0  0
   58.4230   30.5190   44.8900 C   0  0  0  0  0  0  0  0  0  0  0  0
   58.2680   31.9150   45.3130 N   0  0  0  0  0  0  0  0  0  0  0  0
   57.6190   32.8970   44.4340 C   0  0  0  0  0  0  0  0  0  0  0  0
   58.0770   32.7140   42.9910 C   0  0  0  0  0  0  0  0  0  0  0  0
   58.7980   32.3340   46.5810 C   0  0  0  0  0  0  0  0  0  0  0  0
   58.8200   31.4360   47.6580 C   0  0  0  0  0  0  0  0  0  0  0  0
   59.3270   31.8300   48.9100 C   0  0  0  0  0  0  0  0  0  0  0  0
   59.2930   30.8980   50.0600 C   0  0  0  0  0  0  0  0  0  0  0  0
   60.2600   30.1160   50.2740 O   0  0  0  0  0  0  0  0  0  0  0  0
   58.1450   30.8560   50.9150 N   0  0  0  0  0  0  0  0  0  0  0  0
   57.1820   31.9470   51.0290 C   0  0  0  0  0  0  0  0  0  0  0  0
   56.3780   31.8320   52.3300 C   0  0  0  0  0  0  0  0  0  0  0  0
   55.3860   30.6990   52.2680 C   0  0  0  0  0  0  0  0  0  0  0  0
   55.5980   29.3670   52.6360 C   0  0  0  0  0  0  0  0  0  0  0  0
   56.8880   28.7820   53.1160 C   0  0  0  0  0  0  0  0  0  0  0  0
   54.4370   28.6720   52.6030 N   0  0  0  0  0  0  0  0  0  0  0  0
   53.4940   29.5470   52.2160 C   0  0  0  0  0  0  0  0  0  0  0  0
   52.1270   29.3040   52.0780 C   0  0  0  0  0  0  0  0  0  0  0  0
   51.3020   30.3790   51.7030 C   0  0  0  0  0  0  0  0  0  0  0  0
   51.8540   31.6600   51.4750 C   0  0  0  0  0  0  0  0  0  0  0  0
   51.0250   32.7140   51.1120 O   0  0  0  0  0  0  0  0  0  0  0  0
   53.2360   31.8740   51.6190 C   0  0  0  0  0  0  0  0  0  0  0  0
   54.0310   30.7900   52.0000 C   0  0  0  0  0  0  0  0  0  0  0  0
   59.8180   33.1380   49.0640 C   0  0  0  0  0  0  0  0  0  0  0  0
   59.8020   34.0320   47.9910 C   0  0  0  0  0  0  0  0  0  0  0  0
   59.2980   33.6340   46.7510 C   0  0  0  0  0  0  0  0  0  0  0  0
   59.3070   34.5310   45.6890 O   0  0  0  0  0  0  0  0  0  0  0  0
   56.5150   29.6586   45.4160 H   0  0  0  0  0  0  0  0  0  0  0  0
   56.5036   30.6387   43.9107 H   0  0  0  0  0  0  0  0  0  0  0  0
   57.2421   29.0012   43.9107 H   0  0  0  0  0  0  0  0  0  0  0  0
   58.8560   29.9382   45.7177 H   0  0  0  0  0  0  0  0  0  0  0  0
   59.0847   30.4902   44.0117 H   0  0  0  0  0  0  0  0  0  0  0  0
   56.5284   32.7634   44.4864 H   0  0  0  0  0  0  0  0  0  0  0  0
   57.8960   33.9079   44.7676 H   0  0  0  0  0  0  0  0  0  0  0  0
   59.0984   32.3059   42.9795 H   0  0  0  0  0  0  0  0  0  0  0  0
   57.3982   32.0180   42.4763 H   0  0  0  0  0  0  0  0  0  0  0  0
   58.0647   33.6861   42.4763 H   0  0  0  0  0  0  0  0  0  0  0  0
   58.4372   30.4137   47.5226 H   0  0  0  0  0  0  0  0  0  0  0  0
   57.7212   32.9058   51.0221 H   0  0  0  0  0  0  0  0  0  0  0  0
   56.4859   31.8923   50.1791 H   0  0  0  0  0  0  0  0  0  0  0  0
   57.0721   31.6541   53.1646 H   0  0  0  0  0  0  0  0  0  0  0  0
   55.8221   32.7698   52.4762 H   0  0  0  0  0  0  0  0  0  0  0  0
   56.9011   28.7760   54.2159 H   0  0  0  0  0  0  0  0  0  0  0  0
   56.9849   27.7519   52.7426 H   0  0  0  0  0  0  0  0  0  0  0  0
   57.7268   29.3878   52.7426 H   0  0  0  0  0  0  0  0  0  0  0  0
   54.2960   27.6690   52.8600 H   0  0  0  0  0  0  0  0  0  0  0  0
   51.7079   28.3028   52.2570 H   0  0  0  0  0  0  0  0  0  0  0  0
   50.2195   30.2220   51.5863 H   0  0  0  0  0  0  0  0  0  0  0  0
   53.6780   32.8648   51.4372 H   0  0  0  0  0  0  0  0  0  0  0  0
   60.2179   33.4600   50.0369 H   0  0  0  0  0  0  0  0  0  0  0  0
   60.1879   35.0536   48.1232 H   0  0  0  0  0  0  0  0  0  0  0  0
  1  2  1  0
  2  3  1  0
  3  4  1  0
  4  5  1  0
  3  6  1  0
  6  7  2  0
  7  8  1  0
  8  9  1  0
  9 10  2  0
  9 11  1  0
 11 12  1  0
 12 13  1  0
 13 14  1  0
 14 15  2  0
 15 16  1  0
 15 17  1  0
 17 18  1  0
 18 19  2  0
 19 20  1  0
 20 21  2  0
 21 22  1  0
 21 23  1  0
 23 24  2  0
  8 25  2  0
 25 26  1  0
 26 27  2  0
 27 28  1  0
 27  6  1  0
 24 14  1  0
 24 18  1  0
  1 29  1  0
  1 30  1  0
  1 31  1  0
  2 32  1  0
  2 33  1  0
  4 34  1  0
  4 35  1  0
  5 36  1  0
  5 37  1  0
  5 38  1  0
  7 39  1  0
 12 40  1  0
 12 41  1  0
 13 42  1  0
 13 43  1  0
 16 44  1  0
 16 45  1  0
 16 46  1  0
 17 47  1  0
 19 48  1  0
 20 49  1  0
 23 50  1  0
 25 51  1  0
 26 52  1  0
M  CHG  3  11  -1  22  -1  28  -1
M  END
>  <UniqueID>  (38) 
34

>  <SMILES>  (38) 
CCN(CC)c1cc(C(=O)[N-]CCc2c(C)[nH]c3ccc([O-])cc23)ccc1[O-]

>  <Energy>  (38) 
77.72056973997182

>  <Genealogy>  (38) 
CCN(CC)c1cc(C(=O)[N-]CCc2c(C)[nH]c3ccc([O-])cc23)ccc1[O-] (protonated)
CCN(CC)c1cc(C(=O)[N-]CCc2c(C)[nH]c3ccc([O-])cc23)ccc1[O-] (3D coordinates assigned)
CCN(CC)c1cc(C(=O)[N-]CCc2c(C)[nH]c3ccc([O-])cc23)ccc1[O-] (optimized conformer: 77.72056973997182 kcal/mol)

>  <smiles>  (38) 
CCN(CC)c1cc(C(=O)NCCc2c(C)[nH]c3ccc(O)cc23)ccc1O

>  <score_type>  (38) 
oracle

>  <origin>  (38) 
adg

>  <m_score__min__energy>  (38) 
-13.32

>  <m_primary>  (38) 
energy

$$$$
38:0
     RDKit          3D

 48 49  0  0  0  0  0  0  0  0999 V2000
   55.9920   30.9690   52.3570 C   0  0  0  0  0  0  0  0  0  0  0  0
   56.9910   30.0910   51.8460 O   0  0  0  0  0  0  0  0  0  0  0  0
   57.9550   30.4560   50.8950 C   0  0  0  0  0  0  0  0  0  0  0  0
   58.8300   29.5220   50.3090 C   0  0  0  0  0  0  0  0  0  0  0  0
   59.7740   29.9360   49.3650 C   0  0  0  0  0  0  0  0  0  0  0  0
   59.8660   31.2880   48.9990 C   0  0  0  0  0  0  0  0  0  0  0  0
   60.8580   31.7290   47.9570 C   0  0  0  0  0  0  0  0  0  0  0  0
   60.8180   30.7940   46.7460 C   0  0  0  0  0  0  0  0  0  0  0  0
   59.4570   30.6880   46.2240 N   0  0  0  0  0  0  0  0  0  0  0  0
   58.7620   29.4350   46.1310 C   0  0  0  0  0  0  0  0  0  0  0  0
   59.3400   28.3760   46.4940 O   0  0  0  0  0  0  0  0  0  0  0  0
   57.3690   29.3940   45.6300 C   0  0  0  0  0  0  0  0  0  0  0  0
   56.7560   28.2940   45.6370 O   0  0  0  0  0  0  0  0  0  0  0  0
   56.6770   30.5470   45.1230 N   0  0  0  0  0  0  0  0  0  0  0  0
   56.8470   31.1830   43.8190 C   0  0  0  0  0  0  0  0  0  0  0  0
   58.1330   32.0290   43.7970 C   0  0  0  0  0  0  0  0  0  0  0  0
   57.9440   33.4150   44.2820 N   0  0  0  0  0  0  0  0  0  0  0  0
   59.1940   34.1640   44.5410 C   0  0  0  0  0  0  0  0  0  0  0  0
   59.3900   34.4830   46.0300 C   0  0  0  0  0  0  0  0  0  0  0  0
   58.8440   33.4540   46.8210 O   0  0  0  0  0  0  0  0  0  0  0  0
   57.4320   33.5040   46.7530 C   0  0  0  0  0  0  0  0  0  0  0  0
   56.8900   33.5780   45.3060 C   0  0  0  0  0  0  0  0  0  0  0  0
   58.9840   32.2160   49.5740 C   0  0  0  0  0  0  0  0  0  0  0  0
   58.0400   31.8010   50.5180 C   0  0  0  0  0  0  0  0  0  0  0  0
   56.0143   30.9494   53.4566 H   0  0  0  0  0  0  0  0  0  0  0  0
   56.1881   31.9924   52.0045 H   0  0  0  0  0  0  0  0  0  0  0  0
   55.0023   30.6431   52.0045 H   0  0  0  0  0  0  0  0  0  0  0  0
   58.7706   28.4616   50.5953 H   0  0  0  0  0  0  0  0  0  0  0  0
   60.4486   29.1981   48.9063 H   0  0  0  0  0  0  0  0  0  0  0  0
   60.6119   32.7510   47.6330 H   0  0  0  0  0  0  0  0  0  0  0  0
   61.8673   31.7011   48.3936 H   0  0  0  0  0  0  0  0  0  0  0  0
   61.4769   31.1917   45.9601 H   0  0  0  0  0  0  0  0  0  0  0  0
   61.1577   29.7951   47.0572 H   0  0  0  0  0  0  0  0  0  0  0  0
   59.0100   31.5530   45.8440 H   0  0  0  0  0  0  0  0  0  0  0  0
   56.9110   30.4063   43.0427 H   0  0  0  0  0  0  0  0  0  0  0  0
   55.9853   31.8394   43.6275 H   0  0  0  0  0  0  0  0  0  0  0  0
   58.8826   31.5375   44.4346 H   0  0  0  0  0  0  0  0  0  0  0  0
   58.4538   32.0976   42.7471 H   0  0  0  0  0  0  0  0  0  0  0  0
   60.0455   33.5600   44.1945 H   0  0  0  0  0  0  0  0  0  0  0  0
   59.1295   35.1196   43.9999 H   0  0  0  0  0  0  0  0  0  0  0  0
   60.4651   34.5750   46.2440 H   0  0  0  0  0  0  0  0  0  0  0  0
   58.8793   35.4282   46.2661 H   0  0  0  0  0  0  0  0  0  0  0  0
   57.0274   32.5998   47.2313 H   0  0  0  0  0  0  0  0  0  0  0  0
   57.1140   34.4232   47.2668 H   0  0  0  0  0  0  0  0  0  0  0  0
   56.1442   32.7809   45.1705 H   0  0  0  0  0  0  0  0  0  0  0  0
   56.4534   34.5785   45.1704 H   0  0  0  0  0  0  0  0  0  0  0  0
   59.0357   33.2749   49.2805 H   0  0  0  0  0  0  0  0  0  0  0  0
   57.3584   32.5378   50.9681 H   0  0  0  0  0  0  0  0  0  0  0  0
  1  2  1  0
  2  3  1  0
  3  4  2  0
  4  5  1  0
  5  6  2  0
  6  7  1  0
  7  8  1  0
  8  9  1  0
  9 10  1  0
 10 11  2  0
 10 12  1  0
 12 13  2  0
 12 14  1  0
 14 15  1  0
 15 16  1  0
 16 17  1  0
 17 18  1  0
 18 19  1  0
 19 20  1  0
 20 21  1  0
 21 22  1  0
  6 23  1  0
 23 24  2  0
 24  3  1  0
 22 17  1  0
  1 25  1  0
  1 26  1  0
  1 27  1  0
  4 28  1  0
  5 29  1  0
  7 30  1  0
  7 31  1  0
  8 32  1  0
  8 33  1  0
  9 34  1  0
 15 35  1  0
 15 36  1  0
 16 37  1  0
 16 38  1  0
 18 39  1  0
 18 40  1  0
 19 41  1  0
 19 42  1  0
 21 43  1  0
 21 44  1  0
 22 45  1  0
 22 46  1  0
 23 47  1  0
 24 48  1  0
M  CHG  1  14  -1
M  END
>  <UniqueID>  (39) 
35

>  <SMILES>  (39) 
COc1ccc(CCNC(=O)C(=O)[N-]CCN2CCOCC2)cc1

>  <Energy>  (39) 
55.771914343996976

>  <Genealogy>  (39) 
COc1ccc(CCNC(=O)C(=O)[N-]CCN2CCOCC2)cc1 (protonated)
COc1ccc(CCNC(=O)C(=O)[N-]CCN2CCOCC2)cc1 (3D coordinates assigned)
COc1ccc(CCNC(=O)C(=O)[N-]CCN2CCOCC2)cc1 (nonaromatic ring conformer: 55.771914343996976 kcal/mol)

>  <smiles>  (39) 
COc1ccc(CCNC(=O)C(=O)NCCN2CCOCC2)cc1

>  <score_type>  (39) 
oracle

>  <origin>  (39) 
adg

>  <m_score__min__energy>  (39) 
-9.5399999999999991

>  <m_primary>  (39) 
energy

$$$$
39:0
     RDKit          3D

 63 66  0  0  0  0  0  0  0  0999 V2000
   55.8400   29.7770   43.4160 C   0  0  0  0  0  0  0  0  0  0  0  0
   56.2420   30.5100   44.5530 O   0  0  0  0  0  0  0  0  0  0  0  0
   57.4860   31.1440   44.3220 C   0  0  0  0  0  0  0  0  0  0  0  0
   58.5430   30.6570   45.3210 C   0  0  0  0  0  0  0  0  0  0  0  0
   58.9550   31.7360   46.2340 N   0  0  0  0  0  0  0  0  0  0  0  0
   58.8260   33.1380   45.9030 C   0  0  0  0  0  0  0  0  0  0  0  0
   57.6930   33.5950   45.5850 O   0  0  0  0  0  0  0  0  0  0  0  0
   59.9960   34.0840   45.8760 C   0  0  0  0  0  0  0  0  0  0  0  0
   60.3340   34.7610   47.5370 S   0  0  0  0  0  0  0  0  0  0  0  0
   61.8470   33.8260   47.7890 C   0  0  0  0  0  0  0  0  0  0  0  0
   62.7830   33.6600   46.8350 N   0  0  0  0  0  0  0  0  0  0  0  0
   63.7930   33.0290   47.4140 N   0  0  0  0  0  0  0  0  0  0  0  0
   63.4810   32.8220   48.7100 C   0  0  0  0  0  0  0  0  0  0  0  0
   64.4020   32.1970   49.6890 C   0  0  0  0  0  0  0  0  0  0  0  0
   63.9840   31.1370   50.5120 C   0  0  0  0  0  0  0  0  0  0  0  0
   64.8760   30.5410   51.4090 C   0  0  0  0  0  0  0  0  0  0  0  0
   66.1950   30.9920   51.4890 C   0  0  0  0  0  0  0  0  0  0  0  0
   66.6240   32.0380   50.6690 C   0  0  0  0  0  0  0  0  0  0  0  0
   65.7370   32.6360   49.7700 C   0  0  0  0  0  0  0  0  0  0  0  0
   62.2490   33.3120   48.9680 N   0  0  0  0  0  0  0  0  0  0  0  0
   61.6240   33.4830   50.2140 N   0  0  0  0  0  0  0  0  0  0  0  0
   59.4760   31.3730   47.5270 C   0  0  0  0  0  0  0  0  0  0  0  0
   58.9100   31.8830   48.7130 C   0  0  0  0  0  0  0  0  0  0  0  0
   57.7230   32.6910   48.6230 N   0  0  0  0  0  0  0  0  0  0  0  0
   59.4820   31.5820   49.9330 N   0  0  0  0  0  0  0  0  0  0  0  0
   58.9440   32.1550   51.1870 C   0  0  0  0  0  0  0  0  0  0  0  0
   57.8860   31.2600   51.7880 C   0  0  0  0  0  0  0  0  0  0  0  0
   56.5690   31.7250   51.9580 C   0  0  0  0  0  0  0  0  0  0  0  0
   55.5970   30.8970   52.5270 C   0  0  0  0  0  0  0  0  0  0  0  0
   55.9320   29.6060   52.9430 C   0  0  0  0  0  0  0  0  0  0  0  0
   57.2420   29.1430   52.7970 C   0  0  0  0  0  0  0  0  0  0  0  0
   58.2170   29.9680   52.2290 C   0  0  0  0  0  0  0  0  0  0  0  0
   60.5830   30.7560   49.9780 C   0  0  0  0  0  0  0  0  0  0  0  0
   61.1330   30.4670   51.0750 O   0  0  0  0  0  0  0  0  0  0  0  0
   61.1020   30.2370   48.8390 N   0  0  0  0  0  0  0  0  0  0  0  0
   60.5780   30.5220   47.6260 C   0  0  0  0  0  0  0  0  0  0  0  0
   61.1000   30.0260   46.5930 O   0  0  0  0  0  0  0  0  0  0  0  0
   55.3338   28.8540   43.7349 H   0  0  0  0  0  0  0  0  0  0  0  0
   55.1490   30.3847   42.8134 H   0  0  0  0  0  0  0  0  0  0  0  0
   56.7239   29.5210   42.8134 H   0  0  0  0  0  0  0  0  0  0  0  0
   57.8231   30.9141   43.3005 H   0  0  0  0  0  0  0  0  0  0  0  0
   57.3562   32.2289   44.4490 H   0  0  0  0  0  0  0  0  0  0  0  0
   58.1233   29.8291   45.9113 H   0  0  0  0  0  0  0  0  0  0  0  0
   59.4265   30.3243   44.7564 H   0  0  0  0  0  0  0  0  0  0  0  0
   60.8860   33.5442   45.5204 H   0  0  0  0  0  0  0  0  0  0  0  0
   59.7542   34.9187   45.2016 H   0  0  0  0  0  0  0  0  0  0  0  0
   64.6740   32.7560   46.9260 H   0  0  0  0  0  0  0  0  0  0  0  0
   62.9476   30.7736   50.4500 H   0  0  0  0  0  0  0  0  0  0  0  0
   64.5380   29.7155   52.0526 H   0  0  0  0  0  0  0  0  0  0  0  0
   66.8952   30.5242   52.1968 H   0  0  0  0  0  0  0  0  0  0  0  0
   67.6635   32.3922   50.7311 H   0  0  0  0  0  0  0  0  0  0  0  0
   66.0839   33.4544   49.1220 H   0  0  0  0  0  0  0  0  0  0  0  0
   61.3960   32.6570   50.8090 H   0  0  0  0  0  0  0  0  0  0  0  0
   61.3040   34.4220   50.5340 H   0  0  0  0  0  0  0  0  0  0  0  0
   57.0340   32.7190   49.4060 H   0  0  0  0  0  0  0  0  0  0  0  0
   57.5020   33.2970   47.8060 H   0  0  0  0  0  0  0  0  0  0  0  0
   59.7657   32.2734   51.9086 H   0  0  0  0  0  0  0  0  0  0  0  0
   58.4863   33.1283   50.9564 H   0  0  0  0  0  0  0  0  0  0  0  0
   56.3031   32.7445   51.6418 H   0  0  0  0  0  0  0  0  0  0  0  0
   54.5665   31.2626   52.6474 H   0  0  0  0  0  0  0  0  0  0  0  0
   55.1643   28.9541   53.3855 H   0  0  0  0  0  0  0  0  0  0  0  0
   57.5064   28.1283   53.1293 H   0  0  0  0  0  0  0  0  0  0  0  0
   59.2497   29.6033   52.1267 H   0  0  0  0  0  0  0  0  0  0  0  0
  1  2  1  0
  2  3  1  0
  3  4  1  0
  4  5  1  0
  5  6  1  0
  6  7  2  0
  6  8  1  0
  8  9  1  0
  9 10  1  0
 10 11  2  0
 11 12  1  0
 12 13  2  0
 13 14  1  0
 14 15  2  0
 15 16  1  0
 16 17  2  0
 17 18  1  0
 18 19  2  0
 13 20  1  0
 20 21  1  0
  5 22  1  0
 22 23  2  0
 23 24  1  0
 23 25  1  0
 25 26  1  0
 26 27  1  0
 27 28  2  0
 28 29  1  0
 29 30  2  0
 30 31  1  0
 31 32  2  0
 25 33  1  0
 33 34  2  0
 33 35  1  0
 35 36  1  0
 36 37  2  0
 20 10  1  0
 36 22  1  0
 19 14  1  0
 32 27  1  0
  1 38  1  0
  1 39  1  0
  1 40  1  0
  3 41  1  0
  3 42  1  0
  4 43  1  0
  4 44  1  0
  8 45  1  0
  8 46  1  0
 12 47  1  0
 15 48  1  0
 16 49  1  0
 17 50  1  0
 18 51  1  0
 19 52  1  0
 21 53  1  0
 21 54  1  0
 24 55  1  0
 24 56  1  0
 26 57  1  0
 26 58  1  0
 28 59  1  0
 29 60  1  0
 30 61  1  0
 31 62  1  0
 32 63  1  0
M  CHG  2  12   1  35  -1
M  END
>  <UniqueID>  (40) 
36

>  <SMILES>  (40) 
COCCN(C(=O)CSc1n[nH+]c(-c2ccccc2)n1N)c1c(N)n(Cc2ccccc2)c(=O)[n-]c1=O

>  <Energy>  (40) 
116.30408241841221

>  <Genealogy>  (40) 
COCCN(C(=O)CSc1n[nH+]c(-c2ccccc2)n1N)c1c(N)n(Cc2ccccc2)c(=O)[n-]c1=O (protonated)
COCCN(C(=O)CSc1n[nH+]c(-c2ccccc2)n1N)c1c(N)n(Cc2ccccc2)c(=O)[n-]c1=O (3D coordinates assigned)
COCCN(C(=O)CSc1n[nH+]c(-c2ccccc2)n1N)c1c(N)n(Cc2ccccc2)c(=O)[n-]c1=O (optimized conformer: 116.30408241841221 kcal/mol)

>  <smiles>  (40) 
COCCN(C(=O)CSc1nnc(-c2ccccc2)n1N)c1c(N)n(Cc2ccccc2)c(=O)[nH]c1=O

>  <score_type>  (40) 
oracle

>  <origin>  (40) 
adg

>  <m_score__min__energy>  (40) 
-8.1699999999999999

>  <m_primary>  (40) 
energy

$$$$
40:0
     RDKit          3D

 52 54  0  0  0  0  0  0  0  0999 V2000
   60.6360   30.1870   46.4540 C   0  0  0  0  0  0  0  0  0  0  0  0
   59.2220   29.8930   46.2190 N   0  0  0  0  0  0  0  0  0  0  0  0
   58.7950   30.4310   44.9210 C   0  0  0  0  0  0  0  0  0  0  0  0
   57.7070   31.4970   45.1140 C   0  0  0  0  0  0  0  0  0  0  0  0
   58.3040   32.8180   45.5670 C   0  0  0  0  0  0  0  0  0  0  0  0
   58.6190   33.7560   44.5730 C   0  0  0  0  0  0  0  0  0  0  0  0
   59.2710   34.9420   44.8910 C   0  0  0  0  0  0  0  0  0  0  0  0
   59.6480   35.2000   46.2030 C   0  0  0  0  0  0  0  0  0  0  0  0
   59.3500   34.2900   47.2330 C   0  0  0  0  0  0  0  0  0  0  0  0
   59.8820   34.5960   48.6220 C   0  0  0  0  0  0  0  0  0  0  0  0
   61.2440   33.9800   48.8400 C   0  0  0  0  0  0  0  0  0  0  0  0
   61.9630   33.4450   47.7610 C   0  0  0  0  0  0  0  0  0  0  0  0
   63.2060   32.8440   47.9670 C   0  0  0  0  0  0  0  0  0  0  0  0
   63.7700   32.7980   49.2530 C   0  0  0  0  0  0  0  0  0  0  0  0
   63.0640   33.3560   50.3420 C   0  0  0  0  0  0  0  0  0  0  0  0
   61.8110   33.9530   50.1240 C   0  0  0  0  0  0  0  0  0  0  0  0
   63.6490   33.3140   51.7390 C   0  0  0  0  0  0  0  0  0  0  0  0
   64.9930   34.0750   51.9080 C   0  0  0  0  0  0  0  0  0  0  0  0
   66.2350   33.3840   51.3160 C   0  0  0  0  0  0  0  0  0  0  0  0
   66.1120   33.0650   49.8070 C   0  0  0  0  0  0  0  0  0  0  0  0
   65.0290   32.1220   49.4700 N   0  0  0  0  0  0  0  0  0  0  0  0
   58.6300   33.0970   46.9270 C   0  0  0  0  0  0  0  0  0  0  0  0
   58.2160   32.1280   48.0130 C   0  0  0  0  0  0  0  0  0  0  0  0
   60.8273   30.2268   47.5365 H   0  0  0  0  0  0  0  0  0  0  0  0
   61.2547   29.3983   46.0011 H   0  0  0  0  0  0  0  0  0  0  0  0
   60.8890   31.1570   46.0011 H   0  0  0  0  0  0  0  0  0  0  0  0
   59.1230   28.8510   46.1820 H   0  0  0  0  0  0  0  0  0  0  0  0
   59.6600   30.8838   44.4143 H   0  0  0  0  0  0  0  0  0  0  0  0
   58.3864   29.6109   44.3123 H   0  0  0  0  0  0  0  0  0  0  0  0
   57.1814   31.6496   44.1598 H   0  0  0  0  0  0  0  0  0  0  0  0
   57.0105   31.1462   45.8898 H   0  0  0  0  0  0  0  0  0  0  0  0
   58.3464   33.5504   43.5273 H   0  0  0  0  0  0  0  0  0  0  0  0
   59.4887   35.6774   44.1024 H   0  0  0  0  0  0  0  0  0  0  0  0
   60.1872   36.1292   46.4395 H   0  0  0  0  0  0  0  0  0  0  0  0
   59.9592   35.6866   48.7432 H   0  0  0  0  0  0  0  0  0  0  0  0
   59.1873   34.1688   49.3601 H   0  0  0  0  0  0  0  0  0  0  0  0
   61.5444   33.4994   46.7452 H   0  0  0  0  0  0  0  0  0  0  0  0
   63.7475   32.4035   47.1169 H   0  0  0  0  0  0  0  0  0  0  0  0
   61.2686   34.4039   50.9681 H   0  0  0  0  0  0  0  0  0  0  0  0
   62.9163   33.7567   52.4298 H   0  0  0  0  0  0  0  0  0  0  0  0
   63.8641   32.2565   51.9520 H   0  0  0  0  0  0  0  0  0  0  0  0
   64.8886   35.0559   51.4212 H   0  0  0  0  0  0  0  0  0  0  0  0
   65.1705   34.1293   52.9922 H   0  0  0  0  0  0  0  0  0  0  0  0
   67.1021   34.0452   51.4612 H   0  0  0  0  0  0  0  0  0  0  0  0
   66.3466   32.4226   51.8388 H   0  0  0  0  0  0  0  0  0  0  0  0
   65.9273   34.0071   49.2701 H   0  0  0  0  0  0  0  0  0  0  0  0
   67.0539   32.5802   49.5107 H   0  0  0  0  0  0  0  0  0  0  0  0
   65.2900   31.5660   48.6230 H   0  0  0  0  0  0  0  0  0  0  0  0
   64.9400   31.4330   50.2520 H   0  0  0  0  0  0  0  0  0  0  0  0
   58.4081   32.5777   48.9983 H   0  0  0  0  0  0  0  0  0  0  0  0
   57.1435   31.9038   47.9151 H   0  0  0  0  0  0  0  0  0  0  0  0
   58.7954   31.1981   47.9151 H   0  0  0  0  0  0  0  0  0  0  0  0
  1  2  1  0
  2  3  1  0
  3  4  1  0
  4  5  1  0
  5  6  2  0
  6  7  1  0
  7  8  2  0
  8  9  1  0
  9 10  1  0
 10 11  1  0
 11 12  2  0
 12 13  1  0
 13 14  2  0
 14 15  1  0
 15 16  2  0
 15 17  1  0
 17 18  1  0
 18 19  1  0
 19 20  1  0
 20 21  1  0
  9 22  2  0
 22 23  1  0
 22  5  1  0
 16 11  1  0
 21 14  1  0
  1 24  1  0
  1 25  1  0
  1 26  1  0
  2 27  1  0
  3 28  1  0
  3 29  1  0
  4 30  1  0
  4 31  1  0
  6 32  1  0
  7 33  1  0
  8 34  1  0
 10 35  1  0
 10 36  1  0
 12 37  1  0
 13 38  1  0
 16 39  1  0
 17 40  1  0
 17 41  1  0
 18 42  1  0
 18 43  1  0
 19 44  1  0
 19 45  1  0
 20 46  1  0
 20 47  1  0
 21 48  1  0
 21 49  1  0
 23 50  1  0
 23 51  1  0
 23 52  1  0
M  CHG  1  21   1
M  END
>  <UniqueID>  (41) 
37

>  <SMILES>  (41) 
CNCCc1cccc(Cc2ccc3c(c2)CCCC[NH2+]3)c1C

>  <Energy>  (41) 
62.77272663765768

>  <Genealogy>  (41) 
CNCCc1cccc(Cc2ccc3c(c2)CCCC[NH2+]3)c1C (protonated)
CNCCc1cccc(Cc2ccc3c(c2)CCCC[NH2+]3)c1C (3D coordinates assigned)
CNCCc1cccc(Cc2ccc3c(c2)CCCC[NH2+]3)c1C (nonaromatic ring conformer: 62.77272663765768 kcal/mol)

>  <smiles>  (41) 
CNCCc1cccc(Cc2ccc3c(c2)CCCCN3)c1C

>  <score_type>  (41) 
oracle

>  <origin>  (41) 
adg

>  <m_score__min__energy>  (41) 
-5.0899999999999999

>  <m_primary>  (41) 
energy

$$$$
41:0
     RDKit          3D

 42 45  0  0  0  0  0  0  0  0999 V2000
   63.8690   31.6300   50.6150 C   0  0  0  0  0  0  0  0  0  0  0  0
   63.3200   31.9820   49.2640 C   0  0  0  0  0  0  0  0  0  0  0  0
   63.8550   33.0430   48.5040 C   0  0  0  0  0  0  0  0  0  0  0  0
   63.2910   33.3530   47.2430 C   0  0  0  0  0  0  0  0  0  0  0  0
   63.7690   34.2960   46.5580 O   0  0  0  0  0  0  0  0  0  0  0  0
   62.2540   32.6550   46.7690 O   0  0  0  0  0  0  0  0  0  0  0  0
   61.7430   31.6650   47.4830 C   0  0  0  0  0  0  0  0  0  0  0  0
   62.2330   31.3020   48.7140 C   0  0  0  0  0  0  0  0  0  0  0  0
   61.5330   30.2660   49.2340 N   0  0  0  0  0  0  0  0  0  0  0  0
   60.5940   29.9850   48.3010 C   0  0  0  0  0  0  0  0  0  0  0  0
   59.6210   28.9890   48.3570 C   0  0  0  0  0  0  0  0  0  0  0  0
   58.7420   28.8630   47.2660 C   0  0  0  0  0  0  0  0  0  0  0  0
   58.8490   29.7250   46.1460 C   0  0  0  0  0  0  0  0  0  0  0  0
   57.7480   29.5190   44.7880 S   0  0  0  0  0  0  0  0  0  0  0  0
   57.8950   28.1250   44.2460 O   0  0  0  0  0  0  0  0  0  0  0  0
   56.3260   29.7230   45.2340 O   0  0  0  0  0  0  0  0  0  0  0  0
   58.1350   30.6660   43.5400 N   0  0  0  0  0  0  0  0  0  0  0  0
   57.2840   31.8510   43.6730 C   0  0  0  0  0  0  0  0  0  0  0  0
   57.8820   32.7840   44.6880 C   0  0  0  0  0  0  0  0  0  0  0  0
   58.8890   33.6870   44.3060 C   0  0  0  0  0  0  0  0  0  0  0  0
   59.4260   34.5780   45.2400 C   0  0  0  0  0  0  0  0  0  0  0  0
   58.9530   34.5840   46.5550 C   0  0  0  0  0  0  0  0  0  0  0  0
   57.9410   33.6990   46.9380 C   0  0  0  0  0  0  0  0  0  0  0  0
   57.4020   32.8050   46.0070 C   0  0  0  0  0  0  0  0  0  0  0  0
   59.8390   30.7280   46.1160 C   0  0  0  0  0  0  0  0  0  0  0  0
   60.6930   30.8250   47.2100 C   0  0  0  0  0  0  0  0  0  0  0  0
   63.2169   32.0481   51.3961 H   0  0  0  0  0  0  0  0  0  0  0  0
   63.9115   30.5358   50.7198 H   0  0  0  0  0  0  0  0  0  0  0  0
   64.8811   32.0480   50.7198 H   0  0  0  0  0  0  0  0  0  0  0  0
   64.7050   33.6258   48.8886 H   0  0  0  0  0  0  0  0  0  0  0  0
   61.6810   29.7860   50.1490 H   0  0  0  0  0  0  0  0  0  0  0  0
   59.5427   28.3216   49.2279 H   0  0  0  0  0  0  0  0  0  0  0  0
   57.9628   28.0867   47.2823 H   0  0  0  0  0  0  0  0  0  0  0  0
   57.9150   30.2080   42.6250 H   0  0  0  0  0  0  0  0  0  0  0  0
   57.2126   32.3624   42.7017 H   0  0  0  0  0  0  0  0  0  0  0  0
   56.2791   31.5466   44.0010 H   0  0  0  0  0  0  0  0  0  0  0  0
   59.2558   33.6927   43.2690 H   0  0  0  0  0  0  0  0  0  0  0  0
   60.2219   35.2753   44.9394 H   0  0  0  0  0  0  0  0  0  0  0  0
   59.3771   35.2852   47.2888 H   0  0  0  0  0  0  0  0  0  0  0  0
   57.5681   33.7056   47.9728 H   0  0  0  0  0  0  0  0  0  0  0  0
   56.5994   32.1162   46.3094 H   0  0  0  0  0  0  0  0  0  0  0  0
   59.9330   31.4099   45.2580 H   0  0  0  0  0  0  0  0  0  0  0  0
  1  2  1  0
  2  3  2  0
  3  4  1  0
  4  5  2  0
  4  6  1  0
  6  7  1  0
  7  8  2  0
  8  9  1  0
  9 10  1  0
 10 11  2  0
 11 12  1  0
 12 13  2  0
 13 14  1  0
 14 15  2  0
 14 16  2  0
 14 17  1  0
 17 18  1  0
 18 19  1  0
 19 20  2  0
 20 21  1  0
 21 22  2  0
 22 23  1  0
 23 24  2  0
 13 25  1  0
 25 26  2  0
  8  2  1  0
 26 10  1  0
 26  7  1  0
 24 19  1  0
  1 27  1  0
  1 28  1  0
  1 29  1  0
  3 30  1  0
  9 31  1  0
 11 32  1  0
 12 33  1  0
 17 34  1  0
 18 35  1  0
 18 36  1  0
 20 37  1  0
 21 38  1  0
 22 39  1  0
 23 40  1  0
 24 41  1  0
 25 42  1  0
M  END
>  <UniqueID>  (42) 
38

>  <SMILES>  (42) 
Cc1cc(=O)oc2c1[nH]c1ccc(S(=O)(=O)NCc3ccccc3)cc12

>  <Energy>  (42) 
86.29118186094003

>  <Genealogy>  (42) 
Cc1cc(=O)oc2c1[nH]c1ccc(S(=O)(=O)NCc3ccccc3)cc12 (3D coordinates assigned)
Cc1cc(=O)oc2c1[nH]c1ccc(S(=O)(=O)NCc3ccccc3)cc12 (optimized conformer: 86.29118186094003 kcal/mol)

>  <smiles>  (42) 
Cc1cc(=O)oc2c1[nH]c1ccc(S(=O)(=O)NCc3ccccc3)cc12

>  <score_type>  (42) 
oracle

>  <origin>  (42) 
adg

>  <m_score__min__energy>  (42) 
-9.0700000000000003

>  <m_primary>  (42) 
energy

$$$$
42:0
     RDKit          3D

 44 46  0  0  0  0  0  0  0  0999 V2000
   55.8120   24.1670   44.6410 C   0  0  0  0  0  0  0  0  0  0  0  0
   55.9620   25.3010   46.0050 S   0  0  0  0  0  0  0  0  0  0  0  0
   54.8450   26.3070   45.9760 O   0  0  0  0  0  0  0  0  0  0  0  0
   55.8770   24.5240   47.2880 O   0  0  0  0  0  0  0  0  0  0  0  0
   57.4930   26.1110   45.9440 N   0  0  0  0  0  0  0  0  0  0  0  0
   57.6920   27.5310   45.9150 C   0  0  0  0  0  0  0  0  0  0  0  0
   57.3780   28.2250   44.7420 C   0  0  0  0  0  0  0  0  0  0  0  0
   57.5530   29.6100   44.6670 C   0  0  0  0  0  0  0  0  0  0  0  0
   58.0470   30.3280   45.7700 C   0  0  0  0  0  0  0  0  0  0  0  0
   58.2330   31.8000   45.6910 C   0  0  0  0  0  0  0  0  0  0  0  0
   57.8110   32.5130   44.5550 C   0  0  0  0  0  0  0  0  0  0  0  0
   57.9760   33.8980   44.4880 C   0  0  0  0  0  0  0  0  0  0  0  0
   58.5710   34.5860   45.5460 C   0  0  0  0  0  0  0  0  0  0  0  0
   59.0230   33.8880   46.6780 C   0  0  0  0  0  0  0  0  0  0  0  0
   59.6040   34.5710   47.7970 N   0  0  0  0  0  0  0  0  0  0  0  0
   60.6300   34.0570   48.6540 C   0  0  0  0  0  0  0  0  0  0  0  0
   60.4940   34.1830   49.9000 O   0  0  0  0  0  0  0  0  0  0  0  0
   61.7770   33.3830   48.1080 N   0  0  0  0  0  0  0  0  0  0  0  0
   62.8600   32.8650   48.8980 C   0  0  0  0  0  0  0  0  0  0  0  0
   64.1320   33.4460   48.7840 C   0  0  0  0  0  0  0  0  0  0  0  0
   65.2070   32.9460   49.5250 C   0  0  0  0  0  0  0  0  0  0  0  0
   65.0250   31.8510   50.3730 C   0  0  0  0  0  0  0  0  0  0  0  0
   63.7680   31.2480   50.4740 C   0  0  0  0  0  0  0  0  0  0  0  0
   63.5960   30.1710   51.2800 F   0  0  0  0  0  0  0  0  0  0  0  0
   62.6900   31.7460   49.7360 C   0  0  0  0  0  0  0  0  0  0  0  0
   58.8320   32.5030   46.7540 C   0  0  0  0  0  0  0  0  0  0  0  0
   58.3650   29.6270   46.9470 C   0  0  0  0  0  0  0  0  0  0  0  0
   58.1900   28.2420   47.0200 C   0  0  0  0  0  0  0  0  0  0  0  0
   55.6769   23.1456   45.0265 H   0  0  0  0  0  0  0  0  0  0  0  0
   54.9428   24.4451   44.0268 H   0  0  0  0  0  0  0  0  0  0  0  0
   56.7236   24.2095   44.0268 H   0  0  0  0  0  0  0  0  0  0  0  0
   56.9900   27.6764   43.8711 H   0  0  0  0  0  0  0  0  0  0  0  0
   57.3022   30.1421   43.7375 H   0  0  0  0  0  0  0  0  0  0  0  0
   57.3480   31.9764   43.7138 H   0  0  0  0  0  0  0  0  0  0  0  0
   57.6358   34.4483   43.5984 H   0  0  0  0  0  0  0  0  0  0  0  0
   58.6865   35.6787   45.4934 H   0  0  0  0  0  0  0  0  0  0  0  0
   61.8720   33.3220   47.0700 H   0  0  0  0  0  0  0  0  0  0  0  0
   64.2844   34.3000   48.1076 H   0  0  0  0  0  0  0  0  0  0  0  0
   66.1980   33.4158   49.4401 H   0  0  0  0  0  0  0  0  0  0  0  0
   65.8702   31.4636   50.9608 H   0  0  0  0  0  0  0  0  0  0  0  0
   61.7051   31.2618   49.8102 H   0  0  0  0  0  0  0  0  0  0  0  0
   59.1534   31.9581   47.6539 H   0  0  0  0  0  0  0  0  0  0  0  0
   58.7551   30.1736   47.8182 H   0  0  0  0  0  0  0  0  0  0  0  0
   58.4433   27.7063   47.9467 H   0  0  0  0  0  0  0  0  0  0  0  0
  1  2  1  0
  2  3  2  0
  2  4  2  0
  2  5  1  0
  5  6  1  0
  6  7  2  0
  7  8  1  0
  8  9  2  0
  9 10  1  0
 10 11  2  0
 11 12  1  0
 12 13  2  0
 13 14  1  0
 14 15  1  0
 15 16  1  0
 16 17  2  0
 16 18  1  0
 18 19  1  0
 19 20  2  0
 20 21  1  0
 21 22  2  0
 22 23  1  0
 23 24  1  0
 23 25  2  0
 14 26  2  0
  9 27  1  0
 27 28  2  0
 28  6  1  0
 26 10  1  0
 25 19  1  0
  1 29  1  0
  1 30  1  0
  1 31  1  0
  7 32  1  0
  8 33  1  0
 11 34  1  0
 12 35  1  0
 13 36  1  0
 18 37  1  0
 20 38  1  0
 21 39  1  0
 22 40  1  0
 25 41  1  0
 26 42  1  0
 27 43  1  0
 28 44  1  0
M  CHG  2   5  -1  15  -1
M  END
>  <UniqueID>  (43) 
39

>  <SMILES>  (43) 
CS(=O)(=O)[N-]c1ccc(-c2cccc([N-]C(=O)Nc3cccc(F)c3)c2)cc1

>  <Energy>  (43) 
59.30654070597544

>  <Genealogy>  (43) 
CS(=O)(=O)[N-]c1ccc(-c2cccc([N-]C(=O)Nc3cccc(F)c3)c2)cc1 (protonated)
CS(=O)(=O)[N-]c1ccc(-c2cccc([N-]C(=O)Nc3cccc(F)c3)c2)cc1 (3D coordinates assigned)
CS(=O)(=O)[N-]c1ccc(-c2cccc([N-]C(=O)Nc3cccc(F)c3)c2)cc1 (optimized conformer: 59.30654070597544 kcal/mol)

>  <smiles>  (43) 
CS(=O)(=O)Nc1ccc(-c2cccc(NC(=O)Nc3cccc(F)c3)c2)cc1

>  <score_type>  (43) 
oracle

>  <origin>  (43) 
adg

>  <m_score__min__energy>  (43) 
-11.24

>  <m_primary>  (43) 
energy

$$$$
43:0
     RDKit          3D

 53 55  0  0  0  0  0  0  0  0999 V2000
   60.0220   31.5660   51.3480 C   0  0  0  0  0  0  0  0  0  0  0  0
   60.4250   32.1540   50.1110 O   0  0  0  0  0  0  0  0  0  0  0  0
   61.7580   32.4170   49.7460 C   0  0  0  0  0  0  0  0  0  0  0  0
   62.8070   31.5400   50.0920 C   0  0  0  0  0  0  0  0  0  0  0  0
   64.1270   31.8370   49.7350 C   0  0  0  0  0  0  0  0  0  0  0  0
   64.4160   33.0060   49.0260 C   0  0  0  0  0  0  0  0  0  0  0  0
   63.3870   33.8830   48.6760 C   0  0  0  0  0  0  0  0  0  0  0  0
   62.0540   33.5940   49.0200 C   0  0  0  0  0  0  0  0  0  0  0  0
   60.9760   34.5990   48.6860 C   0  0  0  0  0  0  0  0  0  0  0  0
   59.8220   33.9120   48.1090 N   0  0  0  0  0  0  0  0  0  0  0  0
   59.4700   34.0430   46.7240 C   0  0  0  0  0  0  0  0  0  0  0  0
   59.7940   35.0910   46.1050 O   0  0  0  0  0  0  0  0  0  0  0  0
   58.7310   32.9720   46.0090 C   0  0  0  0  0  0  0  0  0  0  0  0
   59.2800   31.6790   45.9190 C   0  0  0  0  0  0  0  0  0  0  0  0
   58.5710   30.6440   45.3060 C   0  0  0  0  0  0  0  0  0  0  0  0
   57.2980   30.8810   44.7730 C   0  0  0  0  0  0  0  0  0  0  0  0
   56.3570   29.5610   44.0900 S   0  0  0  0  0  0  0  0  0  0  0  0
   54.9960   30.0710   43.7110 O   0  0  0  0  0  0  0  0  0  0  0  0
   57.0300   29.0160   42.8580 O   0  0  0  0  0  0  0  0  0  0  0  0
   56.1900   28.3020   45.2740 N   0  0  0  0  0  0  0  0  0  0  0  0
   57.3540   27.4100   45.2560 C   0  0  0  0  0  0  0  0  0  0  0  0
   57.5430   26.7680   46.6340 C   0  0  0  0  0  0  0  0  0  0  0  0
   58.6440   27.4500   47.4050 C   0  0  0  0  0  0  0  0  0  0  0  0
   59.7760   26.7250   47.8220 C   0  0  0  0  0  0  0  0  0  0  0  0
   60.7790   27.3500   48.5700 C   0  0  0  0  0  0  0  0  0  0  0  0
   60.6580   28.7010   48.9110 C   0  0  0  0  0  0  0  0  0  0  0  0
   59.5290   29.4270   48.5140 C   0  0  0  0  0  0  0  0  0  0  0  0
   58.5230   28.8050   47.7680 C   0  0  0  0  0  0  0  0  0  0  0  0
   56.7460   32.1650   44.8490 C   0  0  0  0  0  0  0  0  0  0  0  0
   57.4540   33.2030   45.4590 C   0  0  0  0  0  0  0  0  0  0  0  0
   60.4265   32.1562   52.1835 H   0  0  0  0  0  0  0  0  0  0  0  0
   58.9237   31.5521   51.4068 H   0  0  0  0  0  0  0  0  0  0  0  0
   60.4053   30.5366   51.4068 H   0  0  0  0  0  0  0  0  0  0  0  0
   62.5859   30.6160   50.6464 H   0  0  0  0  0  0  0  0  0  0  0  0
   64.9389   31.1488   50.0130 H   0  0  0  0  0  0  0  0  0  0  0  0
   65.4541   33.2355   48.7435 H   0  0  0  0  0  0  0  0  0  0  0  0
   63.6208   34.8071   48.1270 H   0  0  0  0  0  0  0  0  0  0  0  0
   60.6684   35.1232   49.6028 H   0  0  0  0  0  0  0  0  0  0  0  0
   61.3683   35.3250   47.9586 H   0  0  0  0  0  0  0  0  0  0  0  0
   59.2480   33.3050   48.7390 H   0  0  0  0  0  0  0  0  0  0  0  0
   60.2785   31.4818   46.3362 H   0  0  0  0  0  0  0  0  0  0  0  0
   59.0139   29.6392   45.2416 H   0  0  0  0  0  0  0  0  0  0  0  0
   57.1972   26.6216   44.5051 H   0  0  0  0  0  0  0  0  0  0  0  0
   58.2519   27.9929   45.0028 H   0  0  0  0  0  0  0  0  0  0  0  0
   56.6037   26.8505   47.2004 H   0  0  0  0  0  0  0  0  0  0  0  0
   57.8183   25.7124   46.4924 H   0  0  0  0  0  0  0  0  0  0  0  0
   59.8724   25.6614   47.5583 H   0  0  0  0  0  0  0  0  0  0  0  0
   61.6630   26.7790   48.8901 H   0  0  0  0  0  0  0  0  0  0  0  0
   61.4514   29.1938   49.4921 H   0  0  0  0  0  0  0  0  0  0  0  0
   59.4330   30.4877   48.7891 H   0  0  0  0  0  0  0  0  0  0  0  0
   57.6337   29.3765   47.4636 H   0  0  0  0  0  0  0  0  0  0  0  0
   55.7490   32.3577   44.4260 H   0  0  0  0  0  0  0  0  0  0  0  0
   57.0115   34.2087   45.5106 H   0  0  0  0  0  0  0  0  0  0  0  0
  1  2  1  0
  2  3  1  0
  3  4  2  0
  4  5  1  0
  5  6  2  0
  6  7  1  0
  7  8  2  0
  8  9  1  0
  9 10  1  0
 10 11  1  0
 11 12  2  0
 11 13  1  0
 13 14  2  0
 14 15  1  0
 15 16  2  0
 16 17  1  0
 17 18  2  0
 17 19  2  0
 17 20  1  0
 20 21  1  0
 21 22  1  0
 22 23  1  0
 23 24  2  0
 24 25  1  0
 25 26  2  0
 26 27  1  0
 27 28  2  0
 16 29  1  0
 29 30  2  0
  8  3  1  0
 30 13  1  0
 28 23  1  0
  1 31  1  0
  1 32  1  0
  1 33  1  0
  4 34  1  0
  5 35  1  0
  6 36  1  0
  7 37  1  0
  9 38  1  0
  9 39  1  0
 10 40  1  0
 14 41  1  0
 15 42  1  0
 21 43  1  0
 21 44  1  0
 22 45  1  0
 22 46  1  0
 24 47  1  0
 25 48  1  0
 26 49  1  0
 27 50  1  0
 28 51  1  0
 29 52  1  0
 30 53  1  0
M  CHG  1  20  -1
M  END
>  <UniqueID>  (44) 
40

>  <SMILES>  (44) 
COc1ccccc1CNC(=O)c1ccc(S(=O)(=O)[N-]CCc2ccccc2)cc1

>  <Energy>  (44) 
45.44366932437705

>  <Genealogy>  (44) 
COc1ccccc1CNC(=O)c1ccc(S(=O)(=O)[N-]CCc2ccccc2)cc1 (protonated)
COc1ccccc1CNC(=O)c1ccc(S(=O)(=O)[N-]CCc2ccccc2)cc1 (3D coordinates assigned)
COc1ccccc1CNC(=O)c1ccc(S(=O)(=O)[N-]CCc2ccccc2)cc1 (optimized conformer: 45.44366932437705 kcal/mol)

>  <smiles>  (44) 
COc1ccccc1CNC(=O)c1ccc(S(=O)(=O)NCCc2ccccc2)cc1

>  <score_type>  (44) 
oracle

>  <origin>  (44) 
adg

>  <m_score__min__energy>  (44) 
-10.33

>  <m_primary>  (44) 
energy

$$$$
44:0
     RDKit          3D

 39 41  0  0  0  0  0  0  0  0999 V2000
   60.1570   30.1890   47.3550 N   0  0  0  0  0  0  0  0  0  0  0  0
   59.4270   30.1100   46.4620 C   0  0  0  0  0  0  0  0  0  0  0  0
   58.5140   30.0110   45.3470 C   0  0  0  0  0  0  0  0  0  0  0  0
   58.3960   28.8210   44.7280 C   0  0  0  0  0  0  0  0  0  0  0  0
   57.6260   27.6730   45.2580 C   0  0  0  0  0  0  0  0  0  0  0  0
   56.2600   27.8040   45.5070 C   0  0  0  0  0  0  0  0  0  0  0  0
   55.6100   29.0130   45.2730 O   0  0  0  0  0  0  0  0  0  0  0  0
   55.5600   26.7490   45.9900 N   0  0  0  0  0  0  0  0  0  0  0  0
   56.1520   25.5530   46.2350 C   0  0  0  0  0  0  0  0  0  0  0  0
   55.4460   24.6100   46.6830 O   0  0  0  0  0  0  0  0  0  0  0  0
   57.4910   25.3760   45.9870 N   0  0  0  0  0  0  0  0  0  0  0  0
   58.1460   24.0790   46.2680 C   0  0  0  0  0  0  0  0  0  0  0  0
   57.6440   23.0080   45.3300 C   0  0  0  0  0  0  0  0  0  0  0  0
   57.3800   23.3170   43.9840 C   0  0  0  0  0  0  0  0  0  0  0  0
   56.9160   22.3300   43.1080 C   0  0  0  0  0  0  0  0  0  0  0  0
   56.7100   21.0290   43.5680 C   0  0  0  0  0  0  0  0  0  0  0  0
   56.9730   20.7070   44.9010 C   0  0  0  0  0  0  0  0  0  0  0  0
   57.4420   21.6890   45.7810 C   0  0  0  0  0  0  0  0  0  0  0  0
   57.6760   21.3530   47.0730 F   0  0  0  0  0  0  0  0  0  0  0  0
   58.2270   26.4200   45.4820 C   0  0  0  0  0  0  0  0  0  0  0  0
   59.4470   26.2620   45.1990 O   0  0  0  0  0  0  0  0  0  0  0  0
   57.7990   31.2390   44.9210 C   0  0  0  0  0  0  0  0  0  0  0  0
   56.5440   31.2070   44.8090 O   0  0  0  0  0  0  0  0  0  0  0  0
   58.5280   32.4600   44.7000 N   0  0  0  0  0  0  0  0  0  0  0  0
   58.8330   33.3770   45.5690 C   0  0  0  0  0  0  0  0  0  0  0  0
   59.4590   34.5180   45.2100 N   0  0  0  0  0  0  0  0  0  0  0  0
   59.6890   35.3260   46.2790 C   0  0  0  0  0  0  0  0  0  0  0  0
   59.2450   34.8340   47.5010 C   0  0  0  0  0  0  0  0  0  0  0  0
   58.5360   33.3320   47.2300 S   0  0  0  0  0  0  0  0  0  0  0  0
   58.9068   28.6931   43.7622 H   0  0  0  0  0  0  0  0  0  0  0  0
   55.5770   29.7330   45.9850 H   0  0  0  0  0  0  0  0  0  0  0  0
   59.2330   24.1892   46.1401 H   0  0  0  0  0  0  0  0  0  0  0  0
   57.9089   23.7817   47.3002 H   0  0  0  0  0  0  0  0  0  0  0  0
   57.5394   24.3418   43.6173 H   0  0  0  0  0  0  0  0  0  0  0  0
   56.7135   22.5797   42.0560 H   0  0  0  0  0  0  0  0  0  0  0  0
   56.3397   20.2554   42.8792 H   0  0  0  0  0  0  0  0  0  0  0  0
   56.8113   19.6799   45.2600 H   0  0  0  0  0  0  0  0  0  0  0  0
   60.1909   36.3002   46.1837 H   0  0  0  0  0  0  0  0  0  0  0  0
   59.3403   35.3379   48.4741 H   0  0  0  0  0  0  0  0  0  0  0  0
  1  2  3  0
  2  3  1  0
  3  4  2  3
  4  5  1  0
  5  6  2  0
  6  7  1  0
  6  8  1  0
  8  9  1  0
  9 10  2  0
  9 11  1  0
 11 12  1  0
 12 13  1  0
 13 14  2  0
 14 15  1  0
 15 16  2  0
 16 17  1  0
 17 18  2  0
 18 19  1  0
 11 20  1  0
 20 21  2  0
  3 22  1  0
 22 23  2  0
 22 24  1  0
 24 25  2  3
 25 26  1  0
 26 27  1  0
 27 28  2  0
 28 29  1  0
 20  5  1  0
 29 25  1  0
 18 13  1  0
  4 30  1  0
  7 31  1  0
 12 32  1  0
 12 33  1  0
 14 34  1  0
 15 35  1  0
 16 36  1  0
 17 37  1  0
 27 38  1  0
 28 39  1  0
M  CHG  2   8  -1  26  -1
M  END
>  <UniqueID>  (45) 
41

>  <SMILES>  (45) 
N#CC(=Cc1c(O)[n-]c(=O)n(Cc2ccccc2F)c1=O)C(=O)N=c1[n-]ccs1

>  <Energy>  (45) 
84.37756117816919

>  <Genealogy>  (45) 
N#CC(=Cc1c(O)[n-]c(=O)n(Cc2ccccc2F)c1=O)C(=O)N=c1[n-]ccs1 (protonated)
N#CC(=Cc1c(O)[n-]c(=O)n(Cc2ccccc2F)c1=O)C(=O)N=c1[n-]ccs1 (3D coordinates assigned)
N#CC(=Cc1c(O)[n-]c(=O)n(Cc2ccccc2F)c1=O)C(=O)N=c1[n-]ccs1 (optimized conformer: 84.37756117816919 kcal/mol)

>  <smiles>  (45) 
N#CC(=Cc1c(O)[nH]c(=O)n(Cc2ccccc2F)c1=O)C(=O)N=c1[nH]ccs1

>  <score_type>  (45) 
oracle

>  <origin>  (45) 
adg

>  <m_score__min__energy>  (45) 
-12.17

>  <m_primary>  (45) 
energy

$$$$
45:0
     RDKit          3D

 43 44  0  0  0  0  0  0  0  0999 V2000
   57.0570   31.3070   42.7030 C   0  0  0  0  0  0  0  0  0  0  0  0
   58.1150   32.4050   42.7400 C   0  0  0  0  0  0  0  0  0  0  0  0
   57.7330   33.4430   43.6420 O   0  0  0  0  0  0  0  0  0  0  0  0
   58.1510   33.5530   44.9790 C   0  0  0  0  0  0  0  0  0  0  0  0
   57.2770   33.3710   46.0670 C   0  0  0  0  0  0  0  0  0  0  0  0
   57.7570   33.4530   47.3770 C   0  0  0  0  0  0  0  0  0  0  0  0
   59.1140   33.6980   47.6190 C   0  0  0  0  0  0  0  0  0  0  0  0
   59.6130   33.7020   49.0080 C   0  0  0  0  0  0  0  0  0  0  0  0
   60.6600   33.0220   49.3840 N   0  0  0  0  0  0  0  0  0  0  0  0
   60.7170   31.5670   49.5480 C   0  0  0  0  0  0  0  0  0  0  0  0
   61.2810   30.8980   48.2870 C   0  0  0  0  0  0  0  0  0  0  0  0
   60.1720   30.3270   47.4440 C   0  0  0  0  0  0  0  0  0  0  0  0
   59.9960   30.7490   46.1180 C   0  0  0  0  0  0  0  0  0  0  0  0
   58.9440   30.2390   45.3510 C   0  0  0  0  0  0  0  0  0  0  0  0
   58.0550   29.3060   45.9030 C   0  0  0  0  0  0  0  0  0  0  0  0
   56.7230   28.6780   44.9390 S   0  0  0  0  0  0  0  0  0  0  0  0
   56.1060   27.2410   45.6720 N   0  0  0  0  0  0  0  0  0  0  0  0
   57.2020   28.3670   43.5480 O   0  0  0  0  0  0  0  0  0  0  0  0
   55.6300   29.7060   44.8530 O   0  0  0  0  0  0  0  0  0  0  0  0
   58.2160   28.9010   47.2350 C   0  0  0  0  0  0  0  0  0  0  0  0
   59.2670   29.4090   48.0020 C   0  0  0  0  0  0  0  0  0  0  0  0
   59.9820   33.9340   46.5400 C   0  0  0  0  0  0  0  0  0  0  0  0
   61.3220   34.2390   46.7720 O   0  0  0  0  0  0  0  0  0  0  0  0
   59.4940   33.8580   45.2270 C   0  0  0  0  0  0  0  0  0  0  0  0
   56.7852   31.0249   43.7309 H   0  0  0  0  0  0  0  0  0  0  0  0
   56.1646   31.6753   42.1757 H   0  0  0  0  0  0  0  0  0  0  0  0
   57.4581   30.4289   42.1757 H   0  0  0  0  0  0  0  0  0  0  0  0
   59.0716   31.9738   43.0700 H   0  0  0  0  0  0  0  0  0  0  0  0
   58.2168   32.8323   41.7315 H   0  0  0  0  0  0  0  0  0  0  0  0
   56.2121   33.1634   45.8856 H   0  0  0  0  0  0  0  0  0  0  0  0
   57.0650   33.3244   48.2223 H   0  0  0  0  0  0  0  0  0  0  0  0
   59.0790   34.3042   49.7578 H   0  0  0  0  0  0  0  0  0  0  0  0
   61.3639   31.3257   50.4043 H   0  0  0  0  0  0  0  0  0  0  0  0
   59.6976   31.1914   49.7204 H   0  0  0  0  0  0  0  0  0  0  0  0
   61.8333   31.6454   47.6984 H   0  0  0  0  0  0  0  0  0  0  0  0
   61.9503   30.0797   48.5910 H   0  0  0  0  0  0  0  0  0  0  0  0
   60.6878   31.4836   45.6801 H   0  0  0  0  0  0  0  0  0  0  0  0
   58.8134   30.5711   44.3105 H   0  0  0  0  0  0  0  0  0  0  0  0
   55.1530   27.4700   46.0350 H   0  0  0  0  0  0  0  0  0  0  0  0
   57.5124   28.1807   47.6779 H   0  0  0  0  0  0  0  0  0  0  0  0
   59.3865   29.0888   49.0476 H   0  0  0  0  0  0  0  0  0  0  0  0
   61.7720   34.0190   47.6530 H   0  0  0  0  0  0  0  0  0  0  0  0
   60.1750   34.0403   44.3826 H   0  0  0  0  0  0  0  0  0  0  0  0
  1  2  1  0
  2  3  1  0
  3  4  1  0
  4  5  2  0
  5  6  1  0
  6  7  2  0
  7  8  1  0
  8  9  2  3
  9 10  1  0
 10 11  1  0
 11 12  1  0
 12 13  2  0
 13 14  1  0
 14 15  2  0
 15 16  1  0
 16 17  1  0
 16 18  2  0
 16 19  2  0
 15 20  1  0
 20 21  2  0
  7 22  1  0
 22 23  1  0
 22 24  2  0
 24  4  1  0
 21 12  1  0
  1 25  1  0
  1 26  1  0
  1 27  1  0
  2 28  1  0
  2 29  1  0
  5 30  1  0
  6 31  1  0
  8 32  1  0
 10 33  1  0
 10 34  1  0
 11 35  1  0
 11 36  1  0
 13 37  1  0
 14 38  1  0
 17 39  1  0
 20 40  1  0
 21 41  1  0
 23 42  1  0
 24 43  1  0
M  CHG  1  17  -1
M  END
>  <UniqueID>  (46) 
42

>  <SMILES>  (46) 
CCOc1ccc(C=NCCc2ccc(S([NH-])(=O)=O)cc2)c(O)c1

>  <Energy>  (46) 
44.04375165877718

>  <Genealogy>  (46) 
CCOc1ccc(C=NCCc2ccc(S([NH-])(=O)=O)cc2)c(O)c1 (protonated)
CCOc1ccc(C=NCCc2ccc(S([NH-])(=O)=O)cc2)c(O)c1 (3D coordinates assigned)
CCOc1ccc(C=NCCc2ccc(S([NH-])(=O)=O)cc2)c(O)c1 (optimized conformer: 44.04375165877718 kcal/mol)

>  <smiles>  (46) 
CCOc1ccc(C=NCCc2ccc(S(N)(=O)=O)cc2)c(O)c1

>  <score_type>  (46) 
oracle

>  <origin>  (46) 
adg

>  <m_score__min__energy>  (46) 
-10.34

>  <m_primary>  (46) 
energy

$$$$
46:0
     RDKit          3D

 47 49  0  0  0  0  0  0  0  0999 V2000
   56.6950   21.5240   42.9270 C   0  0  0  0  0  0  0  0  0  0  0  0
   55.9040   22.5860   43.4530 O   0  0  0  0  0  0  0  0  0  0  0  0
   56.3810   23.5660   44.3370 C   0  0  0  0  0  0  0  0  0  0  0  0
   57.7630   23.6630   44.5390 C   0  0  0  0  0  0  0  0  0  0  0  0
   58.2880   24.6190   45.4130 C   0  0  0  0  0  0  0  0  0  0  0  0
   57.4390   25.5060   46.0900 C   0  0  0  0  0  0  0  0  0  0  0  0
   58.0000   26.4630   47.0060 N   0  0  0  0  0  0  0  0  0  0  0  0
   58.9630   27.4590   46.6300 C   0  0  0  0  0  0  0  0  0  0  0  0
   59.7060   27.2720   45.6280 O   0  0  0  0  0  0  0  0  0  0  0  0
   59.1640   28.6650   47.4510 C   0  0  0  0  0  0  0  0  0  0  0  0
   58.5260   28.8870   48.6210 N   0  0  0  0  0  0  0  0  0  0  0  0
   58.9490   30.0550   49.0880 N   0  0  0  0  0  0  0  0  0  0  0  0
   59.8330   30.5960   48.2620 N   0  0  0  0  0  0  0  0  0  0  0  0
   60.5630   31.8320   48.5290 C   0  0  0  0  0  0  0  0  0  0  0  0
   59.8430   32.9920   47.9180 C   0  0  0  0  0  0  0  0  0  0  0  0
   60.4050   34.1200   47.8660 O   0  0  0  0  0  0  0  0  0  0  0  0
   58.5410   32.7940   47.3520 N   0  0  0  0  0  0  0  0  0  0  0  0
   58.2530   32.4740   45.9840 C   0  0  0  0  0  0  0  0  0  0  0  0
   58.5730   33.4080   44.9920 C   0  0  0  0  0  0  0  0  0  0  0  0
   58.3360   33.1190   43.6450 C   0  0  0  0  0  0  0  0  0  0  0  0
   57.7870   31.8880   43.2780 C   0  0  0  0  0  0  0  0  0  0  0  0
   57.4760   30.9360   44.2580 C   0  0  0  0  0  0  0  0  0  0  0  0
   56.8110   29.3680   43.8090 S   0  0  0  0  0  0  0  0  0  0  0  0
   55.5300   28.9520   44.8910 N   0  0  0  0  0  0  0  0  0  0  0  0
   57.8790   28.3120   43.8720 O   0  0  0  0  0  0  0  0  0  0  0  0
   56.2800   29.4360   42.4040 O   0  0  0  0  0  0  0  0  0  0  0  0
   57.7230   31.2250   45.6080 C   0  0  0  0  0  0  0  0  0  0  0  0
   60.0030   29.7430   47.2370 C   0  0  0  0  0  0  0  0  0  0  0  0
   60.8820   29.8980   46.2970 N   0  0  0  0  0  0  0  0  0  0  0  0
   56.0490   25.4020   45.9000 C   0  0  0  0  0  0  0  0  0  0  0  0
   55.5240   24.4450   45.0240 C   0  0  0  0  0  0  0  0  0  0  0  0
   57.1272   20.9437   43.7555 H   0  0  0  0  0  0  0  0  0  0  0  0
   56.0639   20.8677   42.3097 H   0  0  0  0  0  0  0  0  0  0  0  0
   57.5045   21.9407   42.3097 H   0  0  0  0  0  0  0  0  0  0  0  0
   58.4414   22.9811   44.0053 H   0  0  0  0  0  0  0  0  0  0  0  0
   59.3751   24.6759   45.5709 H   0  0  0  0  0  0  0  0  0  0  0  0
   57.7760   26.3630   48.0220 H   0  0  0  0  0  0  0  0  0  0  0  0
   60.6400   31.9823   49.6160 H   0  0  0  0  0  0  0  0  0  0  0  0
   61.5694   31.7595   48.0908 H   0  0  0  0  0  0  0  0  0  0  0  0
   59.0138   34.3756   45.2741 H   0  0  0  0  0  0  0  0  0  0  0  0
   58.5823   33.8624   42.8725 H   0  0  0  0  0  0  0  0  0  0  0  0
   57.5984   31.6655   42.2174 H   0  0  0  0  0  0  0  0  0  0  0  0
   55.5430   27.9120   44.9940 H   0  0  0  0  0  0  0  0  0  0  0  0
   57.5013   30.4712   46.3778 H   0  0  0  0  0  0  0  0  0  0  0  0
   61.0100   29.2170   45.5190 H   0  0  0  0  0  0  0  0  0  0  0  0
   55.3708   26.0767   46.4430 H   0  0  0  0  0  0  0  0  0  0  0  0
   54.4365   24.3799   44.8720 H   0  0  0  0  0  0  0  0  0  0  0  0
  1  2  1  0
  2  3  1  0
  3  4  2  0
  4  5  1  0
  5  6  2  0
  6  7  1  0
  7  8  1  0
  8  9  2  0
  8 10  1  0
 10 11  2  0
 11 12  1  0
 12 13  1  0
 13 14  1  0
 14 15  1  0
 15 16  2  0
 15 17  1  0
 17 18  1  0
 18 19  2  0
 19 20  1  0
 20 21  2  0
 21 22  1  0
 22 23  1  0
 23 24  1  0
 23 25  2  0
 23 26  2  0
 22 27  2  0
 13 28  1  0
 28 29  2  3
  6 30  1  0
 30 31  2  0
 31  3  1  0
 28 10  1  0
 27 18  1  0
  1 32  1  0
  1 33  1  0
  1 34  1  0
  4 35  1  0
  5 36  1  0
  7 37  1  0
 14 38  1  0
 14 39  1  0
 19 40  1  0
 20 41  1  0
 21 42  1  0
 24 43  1  0
 27 44  1  0
 29 45  1  0
 30 46  1  0
 31 47  1  0
M  CHG  3  12  -1  17  -1  24  -1
M  END
>  <UniqueID>  (47) 
43

>  <SMILES>  (47) 
COc1ccc(NC(=O)c2n[n-]n(CC(=O)[N-]c3cccc(S([NH-])(=O)=O)c3)c2=N)cc1

>  <Energy>  (47) 
93.70826599246737

>  <Genealogy>  (47) 
COc1ccc(NC(=O)c2n[n-]n(CC(=O)[N-]c3cccc(S([NH-])(=O)=O)c3)c2=N)cc1 (protonated)
COc1ccc(NC(=O)c2n[n-]n(CC(=O)[N-]c3cccc(S([NH-])(=O)=O)c3)c2=N)cc1 (3D coordinates assigned)
COc1ccc(NC(=O)c2n[n-]n(CC(=O)[N-]c3cccc(S([NH-])(=O)=O)c3)c2=N)cc1 (optimized conformer: 93.70826599246737 kcal/mol)

>  <smiles>  (47) 
COc1ccc(NC(=O)c2n[nH]n(CC(=O)Nc3cccc(S(N)(=O)=O)c3)c2=N)cc1

>  <score_type>  (47) 
oracle

>  <origin>  (47) 
adg

>  <m_score__min__energy>  (47) 
-12.890000000000001

>  <m_primary>  (47) 
energy

$$$$
47:0
     RDKit          3D

 55 58  0  0  0  0  0  0  0  0999 V2000
   57.2540   21.0910   42.7890 C   0  0  0  0  0  0  0  0  0  0  0  0
   56.6680   22.1110   43.7090 C   0  0  0  0  0  0  0  0  0  0  0  0
   55.6270   22.7400   43.3630 O   0  0  0  0  0  0  0  0  0  0  0  0
   57.2610   22.3470   44.9930 N   0  0  0  0  0  0  0  0  0  0  0  0
   56.6520   23.2620   45.9630 C   0  0  2  0  0  0  0  0  0  0  0  0
   55.1470   23.0070   46.0790 C   0  0  0  0  0  0  0  0  0  0  0  0
   56.9170   24.6980   45.5620 C   0  0  0  0  0  0  0  0  0  0  0  0
   57.6870   24.9840   44.4220 C   0  0  0  0  0  0  0  0  0  0  0  0
   57.9460   26.3080   44.0550 C   0  0  0  0  0  0  0  0  0  0  0  0
   57.4420   27.3740   44.8190 C   0  0  0  0  0  0  0  0  0  0  0  0
   57.7670   28.7960   44.3990 C   0  0  0  0  0  0  0  0  0  0  0  0
   57.3400   29.8690   45.3570 C   0  0  0  0  0  0  0  0  0  0  0  0
   58.7020   30.3070   45.7150 N   0  0  0  0  0  0  0  0  0  0  0  0
   59.3140   31.2970   46.5430 C   0  0  0  0  0  0  0  0  0  0  0  0
   59.6060   32.5610   46.0220 C   0  0  0  0  0  0  0  0  0  0  0  0
   60.1690   33.5460   46.8380 C   0  0  0  0  0  0  0  0  0  0  0  0
   60.4530   33.2810   48.1820 C   0  0  0  0  0  0  0  0  0  0  0  0
   60.9910   34.3210   48.9600 O   0  0  0  0  0  0  0  0  0  0  0  0
   62.3190   34.3660   49.4830 C   0  0  0  0  0  0  0  0  0  0  0  0
   63.3400   33.8540   48.4530 C   0  0  0  0  0  0  0  0  0  0  0  0
   64.5350   33.1100   49.0320 C   0  0  0  0  0  0  0  0  0  0  0  0
   63.4430   32.3420   48.3090 C   0  0  0  0  0  0  0  0  0  0  0  0
   60.1860   31.9970   48.6980 C   0  0  0  0  0  0  0  0  0  0  0  0
   59.6100   31.0150   47.8830 C   0  0  0  0  0  0  0  0  0  0  0  0
   59.1430   29.2620   44.7690 C   0  0  0  0  0  0  0  0  0  0  0  0
   56.6700   27.0850   45.9610 C   0  0  0  0  0  0  0  0  0  0  0  0
   56.4130   25.7610   46.3280 C   0  0  0  0  0  0  0  0  0  0  0  0
   57.7161   20.2866   43.3800 H   0  0  0  0  0  0  0  0  0  0  0  0
   56.4600   20.6701   42.1547 H   0  0  0  0  0  0  0  0  0  0  0  0
   58.0175   21.5650   42.1547 H   0  0  0  0  0  0  0  0  0  0  0  0
   58.0970   21.7860   45.2640 H   0  0  0  0  0  0  0  0  0  0  0  0
   57.1066   23.0796   46.9479 H   0  0  0  0  0  0  0  0  0  0  0  0
   54.8640   22.9591   47.1409 H   0  0  0  0  0  0  0  0  0  0  0  0
   54.5977   23.8249   45.5897 H   0  0  0  0  0  0  0  0  0  0  0  0
   54.8978   22.0538   45.5897 H   0  0  0  0  0  0  0  0  0  0  0  0
   58.0890   24.1602   43.8139 H   0  0  0  0  0  0  0  0  0  0  0  0
   58.5500   26.5171   43.1597 H   0  0  0  0  0  0  0  0  0  0  0  0
   57.3947   28.7168   43.3670 H   0  0  0  0  0  0  0  0  0  0  0  0
   56.7522   30.6623   44.8721 H   0  0  0  0  0  0  0  0  0  0  0  0
   56.6760   29.5703   46.1815 H   0  0  0  0  0  0  0  0  0  0  0  0
   59.3918   32.7811   44.9657 H   0  0  0  0  0  0  0  0  0  0  0  0
   60.3909   34.5389   46.4197 H   0  0  0  0  0  0  0  0  0  0  0  0
   62.5657   35.4050   49.7469 H   0  0  0  0  0  0  0  0  0  0  0  0
   62.3657   33.7187   50.3712 H   0  0  0  0  0  0  0  0  0  0  0  0
   63.2020   34.6931   47.7553 H   0  0  0  0  0  0  0  0  0  0  0  0
   65.5274   33.2202   48.5705 H   0  0  0  0  0  0  0  0  0  0  0  0
   65.0036   33.0453   50.0251 H   0  0  0  0  0  0  0  0  0  0  0  0
   63.6445   31.8960   47.3239 H   0  0  0  0  0  0  0  0  0  0  0  0
   62.7934   31.4910   48.5617 H   0  0  0  0  0  0  0  0  0  0  0  0
   60.4311   31.7654   49.7451 H   0  0  0  0  0  0  0  0  0  0  0  0
   59.3893   30.0196   48.2958 H   0  0  0  0  0  0  0  0  0  0  0  0
   59.6980   29.6712   43.9120 H   0  0  0  0  0  0  0  0  0  0  0  0
   59.8445   28.5045   45.1488 H   0  0  0  0  0  0  0  0  0  0  0  0
   56.2660   27.9079   46.5690 H   0  0  0  0  0  0  0  0  0  0  0  0
   55.8110   25.5503   47.2242 H   0  0  0  0  0  0  0  0  0  0  0  0
  1  2  1  0
  2  3  2  0
  2  4  1  0
  4  5  1  0
  5  6  1  0
  5  7  1  0
  7  8  2  0
  8  9  1  0
  9 10  2  0
 10 11  1  0
 11 12  1  0
 12 13  1  0
 13 14  1  0
 14 15  2  0
 15 16  1  0
 16 17  2  0
 17 18  1  0
 18 19  1  0
 19 20  1  0
 20 21  1  0
 21 22  1  0
 17 23  1  0
 23 24  2  0
 13 25  1  0
 10 26  1  0
 26 27  2  0
 27  7  1  0
 25 11  1  0
 24 14  1  0
 22 20  1  0
  1 28  1  0
  1 29  1  0
  1 30  1  0
  4 31  1  0
  5 32  1  1
  6 33  1  0
  6 34  1  0
  6 35  1  0
  8 36  1  0
  9 37  1  0
 11 38  1  0
 12 39  1  0
 12 40  1  0
 15 41  1  0
 16 42  1  0
 19 43  1  0
 19 44  1  0
 20 45  1  0
 21 46  1  0
 21 47  1  0
 22 48  1  0
 22 49  1  0
 23 50  1  0
 24 51  1  0
 25 52  1  0
 25 53  1  0
 26 54  1  0
 27 55  1  0
M  END
>  <UniqueID>  (48) 
44

>  <SMILES>  (48) 
CC(=O)N[C@H](C)c1ccc(C2CN(c3ccc(OCC4CC4)cc3)C2)cc1

>  <Energy>  (48) 
362.2211247234468

>  <Genealogy>  (48) 
CC(=O)N[C@H](C)c1ccc(C2CN(c3ccc(OCC4CC4)cc3)C2)cc1 (chirality)
CC(=O)N[C@H](C)c1ccc(C2CN(c3ccc(OCC4CC4)cc3)C2)cc1 (3D coordinates assigned)
CC(=O)N[C@H](C)c1ccc(C2CN(c3ccc(OCC4CC4)cc3)C2)cc1 (nonaromatic ring conformer: 362.2211247234468 kcal/mol)

>  <smiles>  (48) 
CC(=O)NC(C)c1ccc(C2CN(c3ccc(OCC4CC4)cc3)C2)cc1

>  <score_type>  (48) 
oracle

>  <origin>  (48) 
adg

>  <m_score__min__energy>  (48) 
-8.5600000000000005

>  <m_primary>  (48) 
energy

$$$$
48:0
     RDKit          3D

 38 40  0  0  0  0  0  0  0  0999 V2000
   55.8490   24.2960   47.0430 O   0  0  0  0  0  0  0  0  0  0  0  0
   56.2670   25.3580   46.5140 C   0  0  0  0  0  0  0  0  0  0  0  0
   55.4600   26.3900   46.1960 N   0  0  0  0  0  0  0  0  0  0  0  0
   56.1610   27.4110   45.6370 C   0  0  0  0  0  0  0  0  0  0  0  0
   55.5220   28.5740   45.2260 O   0  0  0  0  0  0  0  0  0  0  0  0
   57.5420   27.1960   45.5200 C   0  0  0  0  0  0  0  0  0  0  0  0
   58.6050   28.0790   44.9180 C   0  0  0  0  0  0  0  0  0  0  0  0
   58.1830   29.5180   44.7270 C   0  0  0  0  0  0  0  0  0  0  0  0
   57.4210   29.8460   43.5950 C   0  0  0  0  0  0  0  0  0  0  0  0
   57.0280   31.1600   43.3620 C   0  0  0  0  0  0  0  0  0  0  0  0
   57.3880   32.1670   44.2530 C   0  0  0  0  0  0  0  0  0  0  0  0
   58.1410   31.8750   45.4040 C   0  0  0  0  0  0  0  0  0  0  0  0
   58.4980   32.9490   46.2970 N   0  0  0  0  0  0  0  0  0  0  0  0
   57.8380   33.1440   47.3390 O   0  0  0  0  0  0  0  0  0  0  0  0
   59.6320   33.6950   46.0900 O   0  0  0  0  0  0  0  0  0  0  0  0
   58.5390   30.5350   45.6500 C   0  0  0  0  0  0  0  0  0  0  0  0
   59.3790   30.2150   46.7740 N   0  0  0  0  0  0  0  0  0  0  0  0
   58.7830   29.5320   47.9300 C   0  0  0  0  0  0  0  0  0  0  0  0
   59.8050   29.3430   49.0550 C   0  0  0  0  0  0  0  0  0  0  0  0
   60.5650   30.6500   49.2990 C   0  0  0  0  0  0  0  0  0  0  0  0
   61.3030   31.1520   48.0400 C   0  0  0  0  0  0  0  0  0  0  0  0
   60.8180   30.5080   46.7280 C   0  0  0  0  0  0  0  0  0  0  0  0
   57.8710   25.6550   46.1210 S   0  0  0  0  0  0  0  0  0  0  0  0
   59.4828   28.0624   45.5808 H   0  0  0  0  0  0  0  0  0  0  0  0
   58.8183   27.6775   43.9164 H   0  0  0  0  0  0  0  0  0  0  0  0
   57.1318   29.0568   42.8854 H   0  0  0  0  0  0  0  0  0  0  0  0
   56.4309   31.4039   42.4709 H   0  0  0  0  0  0  0  0  0  0  0  0
   57.0796   33.2040   44.0542 H   0  0  0  0  0  0  0  0  0  0  0  0
   57.9427   30.1335   48.3071 H   0  0  0  0  0  0  0  0  0  0  0  0
   58.4376   28.5393   47.6055 H   0  0  0  0  0  0  0  0  0  0  0  0
   59.2816   29.0487   49.9767 H   0  0  0  0  0  0  0  0  0  0  0  0
   60.5199   28.5590   48.7647 H   0  0  0  0  0  0  0  0  0  0  0  0
   59.8474   31.4205   49.6173 H   0  0  0  0  0  0  0  0  0  0  0  0
   61.3219   30.4555   50.0732 H   0  0  0  0  0  0  0  0  0  0  0  0
   61.1577   32.2398   47.9652 H   0  0  0  0  0  0  0  0  0  0  0  0
   62.3600   30.8716   48.1591 H   0  0  0  0  0  0  0  0  0  0  0  0
   61.0160   31.1993   45.8956 H   0  0  0  0  0  0  0  0  0  0  0  0
   61.3595   29.5610   46.5866 H   0  0  0  0  0  0  0  0  0  0  0  0
  1  2  2  0
  2  3  1  0
  3  4  1  0
  4  5  1  0
  4  6  2  0
  6  7  1  0
  7  8  1  0
  8  9  2  0
  9 10  1  0
 10 11  2  0
 11 12  1  0
 12 13  1  0
 13 14  2  0
 13 15  1  0
 12 16  2  0
 16 17  1  0
 17 18  1  0
 18 19  1  0
 19 20  1  0
 20 21  1  0
 21 22  1  0
  6 23  1  0
 23  2  1  0
 16  8  1  0
 22 17  1  0
  7 24  1  0
  7 25  1  0
  9 26  1  0
 10 27  1  0
 11 28  1  0
 18 29  1  0
 18 30  1  0
 19 31  1  0
 19 32  1  0
 20 33  1  0
 20 34  1  0
 21 35  1  0
 21 36  1  0
 22 37  1  0
 22 38  1  0
M  CHG  4   3  -1   5  -1  13   1  15  -1
M  END
>  <UniqueID>  (49) 
45

>  <SMILES>  (49) 
O=c1[n-]c([O-])c(Cc2cccc([N+](=O)[O-])c2N2CCCCC2)s1

>  <Energy>  (49) 
81.19918434042398

>  <Genealogy>  (49) 
O=c1[n-]c([O-])c(Cc2cccc([N+](=O)[O-])c2N2CCCCC2)s1 (protonated)
O=c1[n-]c([O-])c(Cc2cccc([N+](=O)[O-])c2N2CCCCC2)s1 (3D coordinates assigned)
O=c1[n-]c([O-])c(Cc2cccc([N+](=O)[O-])c2N2CCCCC2)s1 (nonaromatic ring conformer: 81.19918434042398 kcal/mol)

>  <smiles>  (49) 
O=c1[nH]c(O)c(Cc2cccc([N+](=O)[O-])c2N2CCCCC2)s1

>  <score_type>  (49) 
oracle

>  <origin>  (49) 
adg

>  <m_score__min__energy>  (49) 
-13.56

>  <m_primary>  (49) 
energy

$$$$
49:0
     RDKit          3D

 53 56  0  0  0  0  0  0  0  0999 V2000
   56.9308   33.0650   44.7152 H   0  0  0  0  0  0  0  0  0  0  0  0
   57.7490   32.4970   45.1820 C   0  0  0  0  0  0  0  0  0  0  0  0
   58.0880   31.3240   44.6200 C   0  0  0  0  0  0  0  0  0  0  0  0
   58.8461   31.3446   43.8232 H   0  0  0  0  0  0  0  0  0  0  0  0
   57.5210   30.0040   44.9890 C   0  0  0  0  0  0  0  0  0  0  0  0
   56.1470   29.8100   44.8030 C   0  0  0  0  0  0  0  0  0  0  0  0
   55.5327   30.6222   44.3872 H   0  0  0  0  0  0  0  0  0  0  0  0
   55.5680   28.6300   45.1310 N   0  0  0  0  0  0  0  0  0  0  0  0
   56.2880   27.5910   45.6190 C   0  0  0  0  0  0  0  0  0  0  0  0
   55.7800   26.6507   45.8793 H   0  0  0  0  0  0  0  0  0  0  0  0
   57.6720   27.7030   45.7950 C   0  0  0  0  0  0  0  0  0  0  0  0
   58.3820   26.4920   46.1340 C   0  0  0  0  0  0  0  0  0  0  0  0
   58.9550   25.5200   46.3960 N   0  0  0  0  0  0  0  0  0  0  0  0
   58.3120   28.9410   45.4960 C   0  0  0  0  0  0  0  0  0  0  0  0
   59.5980   29.1470   45.6280 N   0  0  0  0  0  0  0  0  0  0  0  0
   60.3460   29.5760   46.7720 C   0  0  0  0  0  0  0  0  0  0  0  0
   61.0620   30.7770   46.7170 C   0  0  0  0  0  0  0  0  0  0  0  0
   61.1126   31.3422   45.7747 H   0  0  0  0  0  0  0  0  0  0  0  0
   61.7130   31.2610   47.8550 C   0  0  0  0  0  0  0  0  0  0  0  0
   62.2853   32.1988   47.8008 H   0  0  0  0  0  0  0  0  0  0  0  0
   61.6400   30.5550   49.0690 C   0  0  0  0  0  0  0  0  0  0  0  0
   62.2630   31.0180   50.2360 O   0  0  0  0  0  0  0  0  0  0  0  0
   63.6010   31.4280   50.3360 C   0  0  0  0  0  0  0  0  0  0  0  0
   64.0100   32.5680   49.6320 C   0  0  0  0  0  0  0  0  0  0  0  0
   63.2875   33.1137   49.0074 H   0  0  0  0  0  0  0  0  0  0  0  0
   65.3320   33.0160   49.7190 C   0  0  0  0  0  0  0  0  0  0  0  0
   65.6482   33.9074   49.1574 H   0  0  0  0  0  0  0  0  0  0  0  0
   66.2520   32.3320   50.5190 C   0  0  0  0  0  0  0  0  0  0  0  0
   67.2936   32.6804   50.5806 H   0  0  0  0  0  0  0  0  0  0  0  0
   65.8480   31.2060   51.2400 C   0  0  0  0  0  0  0  0  0  0  0  0
   66.5708   30.6720   51.8744 H   0  0  0  0  0  0  0  0  0  0  0  0
   64.5260   30.7560   51.1570 C   0  0  0  0  0  0  0  0  0  0  0  0
   64.2087   29.8752   51.7345 H   0  0  0  0  0  0  0  0  0  0  0  0
   60.8760   29.3850   49.1350 C   0  0  0  0  0  0  0  0  0  0  0  0
   60.7896   28.8413   50.0873 H   0  0  0  0  0  0  0  0  0  0  0  0
   60.2220   28.9030   47.9980 C   0  0  0  0  0  0  0  0  0  0  0  0
   59.6077   27.9929   48.0638 H   0  0  0  0  0  0  0  0  0  0  0  0
   58.3900   33.0840   46.3790 C   0  0  0  0  0  0  0  0  0  0  0  0
   59.1050   34.2930   46.3130 C   0  0  0  0  0  0  0  0  0  0  0  0
   59.2105   34.8165   45.3513 H   0  0  0  0  0  0  0  0  0  0  0  0
   59.6820   34.8310   47.4670 C   0  0  0  0  0  0  0  0  0  0  0  0
   60.2317   35.7823   47.4135 H   0  0  0  0  0  0  0  0  0  0  0  0
   59.5620   34.1630   48.6880 C   0  0  0  0  0  0  0  0  0  0  0  0
   60.0063   34.5967   49.5960 H   0  0  0  0  0  0  0  0  0  0  0  0
   58.8780   32.9430   48.7600 C   0  0  0  0  0  0  0  0  0  0  0  0
   58.7110   32.1130   50.3020 S   0  0  0  0  0  0  0  0  0  0  0  0
   57.5740   32.7110   51.0820 O   0  0  0  0  0  0  0  0  0  0  0  0
   58.4210   30.6560   50.0680 O   0  0  0  0  0  0  0  0  0  0  0  0
   60.1760   32.2760   51.2050 N   0  0  0  0  0  0  0  0  0  0  0  0
   60.8930   32.6650   50.5520 H   0  0  0  0  0  0  0  0  0  0  0  0
   60.4910   31.3120   51.4560 H   0  0  0  0  0  0  0  0  0  0  0  0
   58.3010   32.4030   47.6020 C   0  0  0  0  0  0  0  0  0  0  0  0
   57.7747   31.4384   47.6529 H   0  0  0  0  0  0  0  0  0  0  0  0
  1  2  1  0
  2  3  2  3
  3  4  1  0
  3  5  1  0
  5  6  2  0
  6  7  1  0
  6  8  1  0
  8  9  1  0
  9 10  1  0
  9 11  2  0
 11 12  1  0
 12 13  3  0
 11 14  1  0
 14 15  2  0
 15 16  1  0
 16 17  2  0
 17 18  1  0
 17 19  1  0
 19 20  1  0
 19 21  2  0
 21 22  1  0
 22 23  1  0
 23 24  2  0
 24 25  1  0
 24 26  1  0
 26 27  1  0
 26 28  2  0
 28 29  1  0
 28 30  1  0
 30 31  1  0
 30 32  2  0
 32 33  1  0
 21 34  1  0
 34 35  1  0
 34 36  2  0
 36 37  1  0
  2 38  1  0
 38 39  2  0
 39 40  1  0
 39 41  1  0
 41 42  1  0
 41 43  2  0
 43 44  1  0
 43 45  1  0
 45 46  1  0
 46 47  2  0
 46 48  2  0
 46 49  1  0
 49 50  1  0
 49 51  1  0
 45 52  2  0
 52 53  1  0
 14  5  1  0
 36 16  1  0
 52 38  1  0
 32 23  1  0
M  CHG  1   8  -1
M  END
>  <UniqueID>  (50) 
46

>  <SMILES>  (50) 
N#Cc1c[n-]cc(C=Cc2cccc(S(N)(=O)=O)c2)/c1=N/c1ccc(Oc2ccccc2)cc1

>  <Energy>  (50) 
86.58096048702548

>  <Genealogy>  (50) 
N#Cc1c[n-]cc(C=Cc2cccc(S(N)(=O)=O)c2)c1=Nc1ccc(Oc2ccccc2)cc1 (protonated)
N#Cc1c[n-]cc(C=Cc2cccc(S(N)(=O)=O)c2)/c1=N/c1ccc(Oc2ccccc2)cc1 (cis-trans isomerization)
N#Cc1c[n-]cc(C=Cc2cccc(S(N)(=O)=O)c2)/c1=N/c1ccc(Oc2ccccc2)cc1 (3D coordinates assigned)
N#Cc1c[n-]cc(C=Cc2cccc(S(N)(=O)=O)c2)/c1=N/c1ccc(Oc2ccccc2)cc1 (optimized conformer: 86.58096048702548 kcal/mol)

>  <smiles>  (50) 
N#Cc1c[nH]cc(C=Cc2cccc(S(N)(=O)=O)c2)c1=Nc1ccc(Oc2ccccc2)cc1

>  <score_type>  (50) 
oracle

>  <origin>  (50) 
adg

>  <m_score__min__energy>  (50) 
-11.09

>  <m_primary>  (50) 
energy

$$$$
50:0
     RDKit          3D

 47 49  0  0  0  0  0  0  0  0999 V2000
   64.1480   32.3090   48.7060 C   0  0  0  0  0  0  0  0  0  0  0  0
   63.2830   32.0270   47.6100 O   0  0  0  0  0  0  0  0  0  0  0  0
   62.0160   32.6030   47.4310 C   0  0  0  0  0  0  0  0  0  0  0  0
   61.8310   33.8220   46.7510 C   0  0  0  0  0  0  0  0  0  0  0  0
   60.5470   34.3530   46.5920 C   0  0  0  0  0  0  0  0  0  0  0  0
   59.4310   33.6790   47.1140 C   0  0  0  0  0  0  0  0  0  0  0  0
   58.0430   34.2200   46.9120 C   0  0  0  0  0  0  0  0  0  0  0  0
   57.7320   34.2890   45.4880 N   0  0  0  0  0  0  0  0  0  0  0  0
   58.0170   33.2360   44.5590 C   0  0  0  0  0  0  0  0  0  0  0  0
   58.7760   33.4400   43.5720 O   0  0  0  0  0  0  0  0  0  0  0  0
   57.4220   31.8810   44.7760 C   0  0  0  0  0  0  0  0  0  0  0  0
   58.2530   30.7680   44.1100 C   0  0  0  0  0  0  0  0  0  0  0  0
   58.0770   29.4220   44.7990 C   0  0  0  0  0  0  0  0  0  0  0  0
   59.1930   28.7090   45.3500 C   0  0  0  0  0  0  0  0  0  0  0  0
   60.5790   29.2980   45.3640 C   0  0  0  0  0  0  0  0  0  0  0  0
   59.0050   27.4810   45.9210 N   0  0  0  0  0  0  0  0  0  0  0  0
   57.7620   26.9540   45.9780 C   0  0  0  0  0  0  0  0  0  0  0  0
   57.3800   25.7500   46.5270 C   0  0  0  0  0  0  0  0  0  0  0  0
   56.0080   25.7570   46.3200 C   0  0  0  0  0  0  0  0  0  0  0  0
   55.2230   24.8370   46.6650 O   0  0  0  0  0  0  0  0  0  0  0  0
   55.6050   26.8860   45.6950 N   0  0  0  0  0  0  0  0  0  0  0  0
   56.6970   27.6050   45.4960 N   0  0  0  0  0  0  0  0  0  0  0  0
   56.7850   28.8290   44.9080 C   0  0  0  0  0  0  0  0  0  0  0  0
   55.5320   29.5430   44.4610 C   0  0  0  0  0  0  0  0  0  0  0  0
   59.6190   32.4660   47.7920 C   0  0  0  0  0  0  0  0  0  0  0  0
   60.9010   31.9340   47.9490 C   0  0  0  0  0  0  0  0  0  0  0  0
   63.6120   32.1343   49.6505 H   0  0  0  0  0  0  0  0  0  0  0  0
   65.0284   31.6513   48.6569 H   0  0  0  0  0  0  0  0  0  0  0  0
   64.4716   33.3592   48.6569 H   0  0  0  0  0  0  0  0  0  0  0  0
   62.7001   34.3589   46.3431 H   0  0  0  0  0  0  0  0  0  0  0  0
   60.4105   35.3034   46.0553 H   0  0  0  0  0  0  0  0  0  0  0  0
   57.3190   33.5587   47.4105 H   0  0  0  0  0  0  0  0  0  0  0  0
   57.9855   35.2310   47.3416 H   0  0  0  0  0  0  0  0  0  0  0  0
   57.3702   31.6857   45.8573 H   0  0  0  0  0  0  0  0  0  0  0  0
   56.4210   31.8744   44.3199 H   0  0  0  0  0  0  0  0  0  0  0  0
   57.9379   30.6716   43.0605 H   0  0  0  0  0  0  0  0  0  0  0  0
   59.3137   31.0488   44.1879 H   0  0  0  0  0  0  0  0  0  0  0  0
   60.9076   29.4376   46.4045 H   0  0  0  0  0  0  0  0  0  0  0  0
   61.2722   28.6167   44.8489 H   0  0  0  0  0  0  0  0  0  0  0  0
   60.5696   30.2699   44.8489 H   0  0  0  0  0  0  0  0  0  0  0  0
   59.8070   26.9480   46.3280 H   0  0  0  0  0  0  0  0  0  0  0  0
   58.0027   24.9804   47.0065 H   0  0  0  0  0  0  0  0  0  0  0  0
   54.9609   29.8684   45.3430 H   0  0  0  0  0  0  0  0  0  0  0  0
   55.8058   30.4207   43.8571 H   0  0  0  0  0  0  0  0  0  0  0  0
   54.9164   28.8600   43.8571 H   0  0  0  0  0  0  0  0  0  0  0  0
   58.7510   31.9297   48.2030 H   0  0  0  0  0  0  0  0  0  0  0  0
   61.0353   30.9822   48.4837 H   0  0  0  0  0  0  0  0  0  0  0  0
  1  2  1  0
  2  3  1  0
  3  4  2  0
  4  5  1  0
  5  6  2  0
  6  7  1  0
  7  8  1  0
  8  9  1  0
  9 10  2  0
  9 11  1  0
 11 12  1  0
 12 13  1  0
 13 14  1  0
 14 15  1  0
 14 16  2  0
 16 17  1  0
 17 18  2  0
 18 19  1  0
 19 20  2  0
 19 21  1  0
 21 22  1  0
 22 23  1  0
 23 24  1  0
  6 25  1  0
 25 26  2  0
 26  3  1  0
 23 13  2  0
 22 17  1  0
  1 27  1  0
  1 28  1  0
  1 29  1  0
  4 30  1  0
  5 31  1  0
  7 32  1  0
  7 33  1  0
 11 34  1  0
 11 35  1  0
 12 36  1  0
 12 37  1  0
 15 38  1  0
 15 39  1  0
 15 40  1  0
 16 41  1  0
 18 42  1  0
 24 43  1  0
 24 44  1  0
 24 45  1  0
 25 46  1  0
 26 47  1  0
M  CHG  3   8  -1  16   1  21  -1
M  END
>  <UniqueID>  (51) 
47

>  <SMILES>  (51) 
COc1ccc(C[N-]C(=O)CCc2c(C)[nH+]c3cc(=O)[n-]n3c2C)cc1

>  <Energy>  (51) 
81.38786570306284

>  <Genealogy>  (51) 
COc1ccc(C[N-]C(=O)CCc2c(C)[nH+]c3cc(=O)[n-]n3c2C)cc1 (protonated)
COc1ccc(C[N-]C(=O)CCc2c(C)[nH+]c3cc(=O)[n-]n3c2C)cc1 (3D coordinates assigned)
COc1ccc(C[N-]C(=O)CCc2c(C)[nH+]c3cc(=O)[n-]n3c2C)cc1 (optimized conformer: 81.38786570306284 kcal/mol)

>  <smiles>  (51) 
COc1ccc(CNC(=O)CCc2c(C)nc3cc(=O)[nH]n3c2C)cc1

>  <score_type>  (51) 
oracle

>  <origin>  (51) 
adg

>  <m_score__min__energy>  (51) 
-9.75

>  <m_primary>  (51) 
energy

$$$$
51:0
     RDKit          3D

 52 54  0  0  0  0  0  0  0  0999 V2000
   51.0410   32.6780   49.5920 O   0  0  0  0  0  0  0  0  0  0  0  0
   51.3910   32.2960   50.7400 C   0  0  0  0  0  0  0  0  0  0  0  0
   51.0200   33.0400   51.8540 O   0  0  0  0  0  0  0  0  0  0  0  0
   52.1920   31.0440   50.9070 C   0  0  0  0  0  0  0  0  0  0  0  0
   53.3120   31.2490   51.9330 C   0  0  0  0  0  0  0  0  0  0  0  0
   54.5960   30.7400   51.4230 N   0  0  0  0  0  0  0  0  0  0  0  0
   55.7150   30.9380   52.3600 C   0  0  0  0  0  0  0  0  0  0  0  0
   57.0400   31.0990   51.6500 C   0  0  0  0  0  0  0  0  0  0  0  0
   57.4350   32.3580   51.1700 C   0  0  0  0  0  0  0  0  0  0  0  0
   58.6610   32.5110   50.5170 C   0  0  0  0  0  0  0  0  0  0  0  0
   59.5050   31.4070   50.3300 C   0  0  0  0  0  0  0  0  0  0  0  0
   60.8020   31.5750   49.6430 C   0  0  0  0  0  0  0  0  0  0  0  0
   61.9120   31.9790   50.4050 C   0  0  0  0  0  0  0  0  0  0  0  0
   63.1660   32.1230   49.8090 C   0  0  0  0  0  0  0  0  0  0  0  0
   63.3270   31.8670   48.4490 C   0  0  0  0  0  0  0  0  0  0  0  0
   62.2320   31.4780   47.6750 C   0  0  0  0  0  0  0  0  0  0  0  0
   60.9590   31.3380   48.2530 C   0  0  0  0  0  0  0  0  0  0  0  0
   59.5930   30.9070   47.2090 S   0  0  0  0  0  0  0  0  0  0  0  0
   60.0900   30.1400   46.0160 O   0  0  0  0  0  0  0  0  0  0  0  0
   58.6150   30.0480   47.9610 O   0  0  0  0  0  0  0  0  0  0  0  0
   58.7640   32.3460   46.6870 N   0  0  0  0  0  0  0  0  0  0  0  0
   59.1990   33.6600   47.1630 C   0  0  0  0  0  0  0  0  0  0  0  0
   59.4530   34.6050   45.9770 C   0  0  0  0  0  0  0  0  0  0  0  0
   58.3510   34.5630   44.8820 C   0  0  0  0  0  0  0  0  0  0  0  0
   57.1880   33.6040   45.1800 C   0  0  0  0  0  0  0  0  0  0  0  0
   57.7240   32.3080   45.7000 C   0  0  0  0  0  0  0  0  0  0  0  0
   57.2780   31.2120   45.2640 O   0  0  0  0  0  0  0  0  0  0  0  0
   59.1210   30.1520   50.8260 C   0  0  0  0  0  0  0  0  0  0  0  0
   57.8930   29.9980   51.4760 C   0  0  0  0  0  0  0  0  0  0  0  0
   51.5304   30.2356   51.2516 H   0  0  0  0  0  0  0  0  0  0  0  0
   52.6435   30.7818   49.9388 H   0  0  0  0  0  0  0  0  0  0  0  0
   53.4108   32.3234   52.1475 H   0  0  0  0  0  0  0  0  0  0  0  0
   53.0544   30.6949   52.8477 H   0  0  0  0  0  0  0  0  0  0  0  0
   54.8150   31.2300   50.5230 H   0  0  0  0  0  0  0  0  0  0  0  0
   55.5212   31.8423   52.9555 H   0  0  0  0  0  0  0  0  0  0  0  0
   55.7820   30.0430   52.9960 H   0  0  0  0  0  0  0  0  0  0  0  0
   56.7763   33.2280   51.3086 H   0  0  0  0  0  0  0  0  0  0  0  0
   58.9652   33.5017   50.1481 H   0  0  0  0  0  0  0  0  0  0  0  0
   61.7915   32.1832   51.4791 H   0  0  0  0  0  0  0  0  0  0  0  0
   64.0285   32.4391   50.4141 H   0  0  0  0  0  0  0  0  0  0  0  0
   64.3185   31.9715   47.9842 H   0  0  0  0  0  0  0  0  0  0  0  0
   62.3673   31.2791   46.6016 H   0  0  0  0  0  0  0  0  0  0  0  0
   58.4170   34.0890   47.8067 H   0  0  0  0  0  0  0  0  0  0  0  0
   60.1340   33.5414   47.7302 H   0  0  0  0  0  0  0  0  0  0  0  0
   59.5171   35.6332   46.3627 H   0  0  0  0  0  0  0  0  0  0  0  0
   60.3858   34.2700   45.4999 H   0  0  0  0  0  0  0  0  0  0  0  0
   57.9394   35.5770   44.7707 H   0  0  0  0  0  0  0  0  0  0  0  0
   58.8351   34.1904   43.9672 H   0  0  0  0  0  0  0  0  0  0  0  0
   56.5263   34.0549   45.9342 H   0  0  0  0  0  0  0  0  0  0  0  0
   56.6220   33.4193   44.2551 H   0  0  0  0  0  0  0  0  0  0  0  0
   59.7885   29.2863   50.7030 H   0  0  0  0  0  0  0  0  0  0  0  0
   57.5937   29.0089   51.8530 H   0  0  0  0  0  0  0  0  0  0  0  0
  1  2  2  0
  2  3  1  0
  2  4  1  0
  4  5  1  0
  5  6  1  0
  6  7  1  0
  7  8  1  0
  8  9  2  0
  9 10  1  0
 10 11  2  0
 11 12  1  0
 12 13  2  0
 13 14  1  0
 14 15  2  0
 15 16  1  0
 16 17  2  0
 17 18  1  0
 18 19  2  0
 18 20  2  0
 18 21  1  0
 21 22  1  0
 22 23  1  0
 23 24  1  0
 24 25  1  0
 25 26  1  0
 26 27  2  0
 11 28  1  0
 28 29  2  0
 29  8  1  0
 17 12  1  0
 26 21  1  0
  4 30  1  0
  4 31  1  0
  5 32  1  0
  5 33  1  0
  6 34  1  0
  7 35  1  0
  7 36  1  0
  9 37  1  0
 10 38  1  0
 13 39  1  0
 14 40  1  0
 15 41  1  0
 16 42  1  0
 22 43  1  0
 22 44  1  0
 23 45  1  0
 23 46  1  0
 24 47  1  0
 24 48  1  0
 25 49  1  0
 25 50  1  0
 28 51  1  0
 29 52  1  0
M  CHG  1   3  -1
M  END
>  <UniqueID>  (52) 
48

>  <SMILES>  (52) 
O=C([O-])CCNCc1ccc(-c2ccccc2S(=O)(=O)N2CCCCC2=O)cc1

>  <Energy>  (52) 
62.242468215657745

>  <Genealogy>  (52) 
O=C([O-])CCNCc1ccc(-c2ccccc2S(=O)(=O)N2CCCCC2=O)cc1 (protonated)
O=C([O-])CCNCc1ccc(-c2ccccc2S(=O)(=O)N2CCCCC2=O)cc1 (3D coordinates assigned)
O=C([O-])CCNCc1ccc(-c2ccccc2S(=O)(=O)N2CCCCC2=O)cc1 (nonaromatic ring conformer: 62.242468215657745 kcal/mol)

>  <smiles>  (52) 
O=C(O)CCNCc1ccc(-c2ccccc2S(=O)(=O)N2CCCCC2=O)cc1

>  <score_type>  (52) 
oracle

>  <origin>  (52) 
adg

>  <m_score__min__energy>  (52) 
-13.68

>  <m_primary>  (52) 
energy

$$$$
52:0
     RDKit          3D

 42 44  0  0  1  0  0  0  0  0999 V2000
   60.0090   35.7220   46.3050 C   0  0  0  0  0  0  0  0  0  0  0  0
   59.1990   34.4940   46.1580 C   0  0  0  0  0  0  0  0  0  0  0  0
   58.1680   34.3550   45.2540 C   0  0  0  0  0  0  0  0  0  0  0  0
   57.3780   28.8370   45.1970 C   0  0  0  0  0  0  0  0  0  0  0  0
   57.7550   28.0450   46.0490 N   0  0  0  0  0  0  0  0  0  0  0  0
   56.8650   31.0390   44.5950 C   0  0  0  0  0  0  0  0  0  0  0  0
   56.5340   30.6470   43.3070 C   0  0  0  0  0  0  0  0  0  0  0  0
   56.6500   29.3010   43.0290 C   0  0  0  0  0  0  0  0  0  0  0  0
   57.0620   28.4510   43.9620 N   0  0  0  0  0  0  0  0  0  0  0  0
   57.6820   33.0660   45.4440 C   0  0  0  0  0  0  0  0  0  0  0  0
   56.7350   32.4460   44.8620 N   0  0  0  0  0  0  0  0  0  0  0  0
   58.7270   27.9580   46.9920 C   0  0  0  0  0  0  0  0  0  0  0  0
   59.7120   28.9890   47.3310 C   0  0  0  0  0  0  0  0  0  0  0  0
   60.5490   29.5560   46.3550 C   0  0  0  0  0  0  0  0  0  0  0  0
   61.4490   30.5500   46.6600 C   0  0  0  0  0  0  0  0  0  0  0  0
   61.5850   31.0510   47.9370 C   0  0  0  0  0  0  0  0  0  0  0  0
   62.7000   32.3000   48.3710 S   0  0  0  0  0  0  0  0  0  0  0  0
   63.9560   32.5020   47.1860 N   0  0  0  0  0  0  0  0  0  0  0  0
   61.9970   33.6410   48.4880 O   0  0  0  0  0  0  0  0  0  0  0  0
   63.3750   32.0620   49.6920 O   0  0  0  0  0  0  0  0  0  0  0  0
   60.7710   30.5060   48.9080 C   0  0  0  0  0  0  0  0  0  0  0  0
   59.8610   29.5090   48.6280 C   0  0  0  0  0  0  0  0  0  0  0  0
   57.2710   30.1640   45.5000 N   0  0  0  0  0  0  0  0  0  0  0  0
   58.4250   32.4930   46.4340 N   0  0  0  0  0  0  0  0  0  0  0  0
   59.3270   33.3500   46.8540 N   0  0  0  0  0  0  0  0  0  0  0  0
   60.1531   35.9405   47.3734 H   0  0  0  0  0  0  0  0  0  0  0  0
   60.9880   35.5751   45.8255 H   0  0  0  0  0  0  0  0  0  0  0  0
   59.4885   36.5641   45.8255 H   0  0  0  0  0  0  0  0  0  0  0  0
   57.8063   35.1046   44.5348 H   0  0  0  0  0  0  0  0  0  0  0  0
   56.1975   31.3694   42.5488 H   0  0  0  0  0  0  0  0  0  0  0  0
   56.3988   28.9283   42.0250 H   0  0  0  0  0  0  0  0  0  0  0  0
   57.1470   27.4490   43.7470 H   0  0  0  0  0  0  0  0  0  0  0  0
   58.1944   27.7524   47.9323 H   0  0  0  0  0  0  0  0  0  0  0  0
   59.3896   27.2298   46.5014 H   0  0  0  0  0  0  0  0  0  0  0  0
   60.4824   29.1947   45.3182 H   0  0  0  0  0  0  0  0  0  0  0  0
   62.0815   30.9589   45.8583 H   0  0  0  0  0  0  0  0  0  0  0  0
   64.7610   33.0710   47.5580 H   0  0  0  0  0  0  0  0  0  0  0  0
   64.3650   31.5620   46.9580 H   0  0  0  0  0  0  0  0  0  0  0  0
   60.8505   30.8791   49.9397 H   0  0  0  0  0  0  0  0  0  0  0  0
   59.2357   29.1104   49.4404 H   0  0  0  0  0  0  0  0  0  0  0  0
   58.3140   31.5250   46.8160 H   0  0  0  0  0  0  0  0  0  0  0  0
   60.0610   33.2420   47.6000 H   0  0  0  0  0  0  0  0  0  0  0  0
  1  2  1  0
  2  3  2  0
  3  4  1  0
  4  5  2  0
  5  6  1  0
  6  7  1  0
  7  8  2  0
  8  9  1  0
  9 10  1  0
 10 11  2  0
 11 12  1  0
 12 13  1  0
 13 14  2  0
 14 15  1  0
 15 16  2  0
 16 17  1  0
 17 18  1  0
 17 19  2  0
 17 20  2  0
 16 21  1  0
 21 22  2  0
 10 23  1  0
  4 24  1  0
 24 25  1  0
 25  2  1  0
 23  6  2  0
 22 13  1  0
  1 26  1  0
  1 27  1  0
  1 28  1  0
  3 29  1  0
  7 30  1  0
  8 31  1  0
  9 32  1  0
 12 33  1  0
 12 34  1  0
 14 35  1  0
 15 36  1  0
 18 37  1  0
 18 38  1  0
 21 39  1  0
 22 40  1  0
 24 41  1  0
 25 42  1  0
M  END
>  <smiles>  (53) 
Cc1cc(=Nc2cc[nH]c(=NCc3ccc(S(N)(=O)=O)cc3)n2)[nH][nH]1

>  <score_type>  (53) 
oracle

>  <origin>  (53) 
adg

>  <m_score__min__energy>  (53) 
-8.4000000000000004

>  <m_primary>  (53) 
energy

$$$$
53:0
     RDKit          3D

 56 60  0  0  0  0  0  0  0  0999 V2000
   56.9912   21.7262   41.9438 H   0  0  0  0  0  0  0  0  0  0  0  0
   57.0060   22.0330   43.0000 C   0  0  0  0  0  0  0  0  0  0  0  0
   58.1590   21.8520   43.7610 C   0  0  0  0  0  0  0  0  0  0  0  0
   59.0493   21.3915   43.3080 H   0  0  0  0  0  0  0  0  0  0  0  0
   58.1860   22.2540   45.0970 C   0  0  0  0  0  0  0  0  0  0  0  0
   59.0930   22.0887   45.6970 H   0  0  0  0  0  0  0  0  0  0  0  0
   57.0660   22.8680   45.6840 C   0  0  0  0  0  0  0  0  0  0  0  0
   57.1260   23.2630   47.1460 C   0  0  0  0  0  0  0  0  0  0  0  0
   56.1254   23.1445   47.5873 H   0  0  0  0  0  0  0  0  0  0  0  0
   57.8599   22.6124   47.6441 H   0  0  0  0  0  0  0  0  0  0  0  0
   57.5580   24.6480   47.3210 N   0  0  0  0  0  0  0  0  0  0  0  0
   57.0580   25.7310   46.7940 C   0  0  0  0  0  0  0  0  0  0  0  0
   57.6940   26.9060   46.4150 C   0  0  0  0  0  0  0  0  0  0  0  0
   58.9810   27.4270   46.5280 C   0  0  0  0  0  0  0  0  0  0  0  0
   59.7789   26.8592   47.0290 H   0  0  0  0  0  0  0  0  0  0  0  0
   59.2240   28.6610   46.0000 N   0  0  0  0  0  0  0  0  0  0  0  0
   58.2660   29.4080   45.3660 C   0  0  0  0  0  0  0  0  0  0  0  0
   58.6330   30.5440   44.8390 N   0  0  0  0  0  0  0  0  0  0  0  0
   57.8630   31.7120   44.5160 C   0  0  0  0  0  0  0  0  0  0  0  0
   56.6070   31.6200   44.4900 O   0  0  0  0  0  0  0  0  0  0  0  0
   58.4810   32.9920   44.3610 N   0  0  0  0  0  0  0  0  0  0  0  0
   57.9240   34.2380   44.8830 C   0  0  0  0  0  0  0  0  0  0  0  0
   58.2173   35.0692   44.2249 H   0  0  0  0  0  0  0  0  0  0  0  0
   56.8281   34.1503   44.9181 H   0  0  0  0  0  0  0  0  0  0  0  0
   58.4490   34.5100   46.3100 C   0  0  0  0  0  0  0  0  0  0  0  0
   57.7429   35.2325   46.7453 H   0  0  0  0  0  0  0  0  0  0  0  0
   59.8910   35.0790   46.2880 C   0  0  0  0  0  0  0  0  0  0  0  0
   60.1754   35.3882   45.2714 H   0  0  0  0  0  0  0  0  0  0  0  0
   60.0064   35.9737   46.9174 H   0  0  0  0  0  0  0  0  0  0  0  0
   60.7230   33.9420   46.7470 C   0  0  0  0  0  0  0  0  0  0  0  0
   62.1170   33.8550   46.7180 C   0  0  0  0  0  0  0  0  0  0  0  0
   62.7236   34.6940   46.3463 H   0  0  0  0  0  0  0  0  0  0  0  0
   62.7280   32.6770   47.1720 C   0  0  0  0  0  0  0  0  0  0  0  0
   63.8240   32.5857   47.1534 H   0  0  0  0  0  0  0  0  0  0  0  0
   61.9440   31.6120   47.6510 C   0  0  0  0  0  0  0  0  0  0  0  0
   62.4281   30.6885   48.0013 H   0  0  0  0  0  0  0  0  0  0  0  0
   60.5450   31.7250   47.6830 C   0  0  0  0  0  0  0  0  0  0  0  0
   59.9242   30.9005   48.0636 H   0  0  0  0  0  0  0  0  0  0  0  0
   59.9570   32.9050   47.2220 C   0  0  0  0  0  0  0  0  0  0  0  0
   58.5080   33.2170   47.1640 C   0  0  0  0  0  0  0  0  0  0  0  0
   57.9494   32.4015   46.6815 H   0  0  0  0  0  0  0  0  0  0  0  0
   58.0566   33.3405   48.1595 H   0  0  0  0  0  0  0  0  0  0  0  0
   56.9370   28.9150   45.3090 C   0  0  0  0  0  0  0  0  0  0  0  0
   56.1270   29.5070   44.8580 H   0  0  0  0  0  0  0  0  0  0  0  0
   56.6980   27.6550   45.8450 C   0  0  0  0  0  0  0  0  0  0  0  0
   55.5220   27.0030   45.8830 N   0  0  0  0  0  0  0  0  0  0  0  0
   55.7510   25.8350   46.4680 N   0  0  0  0  0  0  0  0  0  0  0  0
   55.0190   25.1050   46.6190 H   0  0  0  0  0  0  0  0  0  0  0  0
   55.8800   23.0120   44.9250 C   0  0  0  0  0  0  0  0  0  0  0  0
   54.7360   23.5540   45.5350 O   0  0  0  0  0  0  0  0  0  0  0  0
   53.6180   24.0860   44.8320 C   0  0  0  0  0  0  0  0  0  0  0  0
   52.8677   24.4430   45.5528 H   0  0  0  0  0  0  0  0  0  0  0  0
   53.9472   24.9240   44.2000 H   0  0  0  0  0  0  0  0  0  0  0  0
   53.1754   23.3020   44.2000 H   0  0  0  0  0  0  0  0  0  0  0  0
   55.8700   22.6030   43.5760 C   0  0  0  0  0  0  0  0  0  0  0  0
   54.9596   22.7342   42.9727 H   0  0  0  0  0  0  0  0  0  0  0  0
  1  2  1  0
  2  3  2  0
  3  4  1  0
  3  5  1  0
  5  6  1  0
  5  7  2  0
  7  8  1  0
  8  9  1  0
  8 10  1  0
  8 11  1  0
 11 12  2  0
 12 13  1  0
 13 14  2  0
 14 15  1  0
 14 16  1  0
 16 17  1  0
 17 18  2  3
 18 19  1  0
 19 20  2  0
 19 21  1  0
 21 22  1  0
 22 23  1  0
 22 24  1  0
 22 25  1  0
 25 26  1  0
 25 27  1  0
 27 28  1  0
 27 29  1  0
 27 30  1  0
 30 31  2  0
 31 32  1  0
 31 33  1  0
 33 34  1  0
 33 35  2  0
 35 36  1  0
 35 37  1  0
 37 38  1  0
 37 39  2  0
 39 40  1  0
 40 41  1  0
 40 42  1  0
 17 43  1  0
 43 44  1  0
 43 45  2  0
 45 46  1  0
 46 47  1  0
 47 48  1  0
  7 49  1  0
 49 50  1  0
 50 51  1  0
 51 52  1  0
 51 53  1  0
 51 54  1  0
 49 55  2  0
 55 56  1  0
 55  2  1  0
 47 12  1  0
 45 13  1  0
 40 25  1  0
 39 30  1  0
M  CHG  3  16  -1  21  -1  46  -1
M  END
>  <UniqueID>  (54) 
49

>  <SMILES>  (54) 
COc1ccccc1C/N=c1/[nH][n-]c2cc(=NC(=O)[N-]CC3Cc4ccccc4C3)[n-]cc12

>  <Energy>  (54) 
117.24247964232268

>  <Genealogy>  (54) 
COc1ccccc1CN=c1[nH][n-]c2cc(=NC(=O)[N-]CC3Cc4ccccc4C3)[n-]cc12 (protonated)
COc1ccccc1C/N=c1/[nH][n-]c2cc(=NC(=O)[N-]CC3Cc4ccccc4C3)[n-]cc12 (cis-trans isomerization)
COc1ccccc1C/N=c1/[nH][n-]c2cc(=NC(=O)[N-]CC3Cc4ccccc4C3)[n-]cc12 (3D coordinates assigned)
COc1ccccc1C/N=c1/[nH][n-]c2cc(=NC(=O)[N-]CC3Cc4ccccc4C3)[n-]cc12 (nonaromatic ring conformer: 117.24247964232268 kcal/mol)

>  <smiles>  (54) 
COc1ccccc1CN=c1[nH][nH]c2cc(=NC(=O)NCC3Cc4ccccc4C3)[nH]cc12

>  <score_type>  (54) 
oracle

>  <origin>  (54) 
adg

>  <m_score__min__energy>  (54) 
-12.58

>  <m_primary>  (54) 
energy

$$$$
54:0
     RDKit          3D

 39 40  0  0  0  0  0  0  0  0999 V2000
   57.7510   31.8450   43.1480 C   0  0  0  0  0  0  0  0  0  0  0  0
   57.0700   32.1170   44.4930 C   0  0  1  0  0  0  0  0  0  0  0  0
   56.8670   30.8660   45.2250 N   0  0  0  0  0  0  0  0  0  0  0  0
   56.3630   29.6420   44.6720 C   0  0  0  0  0  0  0  0  0  0  0  0
   55.1560   29.3400   44.8630 O   0  0  0  0  0  0  0  0  0  0  0  0
   57.2150   28.7410   43.8270 C   0  0  0  0  0  0  0  0  0  0  0  0
   58.6290   28.9840   44.1240 N   0  0  0  0  0  0  0  0  0  0  0  0
   59.0460   28.2860   45.6590 S   0  0  0  0  0  0  0  0  0  0  0  0
   57.8640   27.5580   46.2370 O   0  0  0  0  0  0  0  0  0  0  0  0
   60.1690   27.3040   45.4730 O   0  0  0  0  0  0  0  0  0  0  0  0
   59.5690   29.5640   46.7530 C   0  0  0  0  0  0  0  0  0  0  0  0
   60.6690   30.3730   46.4300 C   0  0  0  0  0  0  0  0  0  0  0  0
   61.1190   31.3400   47.3360 C   0  0  0  0  0  0  0  0  0  0  0  0
   60.4730   31.5020   48.5650 C   0  0  0  0  0  0  0  0  0  0  0  0
   59.3780   30.6990   48.8910 C   0  0  0  0  0  0  0  0  0  0  0  0
   58.9260   29.7310   47.9890 C   0  0  0  0  0  0  0  0  0  0  0  0
   57.9100   33.0630   45.3190 C   0  0  0  0  0  0  0  0  0  0  0  0
   58.7900   33.9730   44.7020 C   0  0  0  0  0  0  0  0  0  0  0  0
   59.5440   34.8610   45.4740 C   0  0  0  0  0  0  0  0  0  0  0  0
   59.4230   34.8570   46.8660 C   0  0  0  0  0  0  0  0  0  0  0  0
   58.5450   33.9650   47.4880 C   0  0  0  0  0  0  0  0  0  0  0  0
   57.7890   33.0750   46.7210 C   0  0  0  0  0  0  0  0  0  0  0  0
   58.7596   31.4422   43.3225 H   0  0  0  0  0  0  0  0  0  0  0  0
   57.1581   31.1147   42.5778 H   0  0  0  0  0  0  0  0  0  0  0  0
   57.8243   32.7828   42.5778 H   0  0  0  0  0  0  0  0  0  0  0  0
   56.0903   32.5788   44.3010 H   0  0  0  0  0  0  0  0  0  0  0  0
   56.9693   27.6917   44.0475 H   0  0  0  0  0  0  0  0  0  0  0  0
   57.0235   28.9475   42.7637 H   0  0  0  0  0  0  0  0  0  0  0  0
   59.2050   28.5030   43.3950 H   0  0  0  0  0  0  0  0  0  0  0  0
   61.1784   30.2469   45.4632 H   0  0  0  0  0  0  0  0  0  0  0  0
   61.9816   31.9730   47.0808 H   0  0  0  0  0  0  0  0  0  0  0  0
   60.8275   32.2628   49.2760 H   0  0  0  0  0  0  0  0  0  0  0  0
   58.8706   30.8282   49.8584 H   0  0  0  0  0  0  0  0  0  0  0  0
   58.0642   29.0988   48.2489 H   0  0  0  0  0  0  0  0  0  0  0  0
   58.8844   33.9849   43.6061 H   0  0  0  0  0  0  0  0  0  0  0  0
   60.2340   35.5644   44.9849 H   0  0  0  0  0  0  0  0  0  0  0  0
   60.0185   35.5556   47.4721 H   0  0  0  0  0  0  0  0  0  0  0  0
   58.4490   33.9637   48.5838 H   0  0  0  0  0  0  0  0  0  0  0  0
   57.0951   32.3796   47.2159 H   0  0  0  0  0  0  0  0  0  0  0  0
  1  2  1  0
  2  3  1  0
  3  4  1  0
  4  5  2  0
  4  6  1  0
  6  7  1  0
  7  8  1  0
  8  9  2  0
  8 10  2  0
  8 11  1  0
 11 12  2  0
 12 13  1  0
 13 14  2  0
 14 15  1  0
 15 16  2  0
  2 17  1  0
 17 18  2  0
 18 19  1  0
 19 20  2  0
 20 21  1  0
 21 22  2  0
 16 11  1  0
 22 17  1  0
  1 23  1  0
  1 24  1  0
  1 25  1  0
  2 26  1  6
  6 27  1  0
  6 28  1  0
  7 29  1  0
 12 30  1  0
 13 31  1  0
 14 32  1  0
 15 33  1  0
 16 34  1  0
 18 35  1  0
 19 36  1  0
 20 37  1  0
 21 38  1  0
 22 39  1  0
M  CHG  1   3  -1
M  END
>  <UniqueID>  (55) 
50

>  <SMILES>  (55) 
C[C@@H]([N-]C(=O)CNS(=O)(=O)c1ccccc1)c1ccccc1

>  <Energy>  (55) 
30.61328476399471

>  <Genealogy>  (55) 
CC([N-]C(=O)CNS(=O)(=O)c1ccccc1)c1ccccc1 (protonated)
C[C@@H]([N-]C(=O)CNS(=O)(=O)c1ccccc1)c1ccccc1 (chirality)
C[C@@H]([N-]C(=O)CNS(=O)(=O)c1ccccc1)c1ccccc1 (3D coordinates assigned)
C[C@@H]([N-]C(=O)CNS(=O)(=O)c1ccccc1)c1ccccc1 (optimized conformer: 30.61328476399471 kcal/mol)

>  <smiles>  (55) 
CC(NC(=O)CNS(=O)(=O)c1ccccc1)c1ccccc1

>  <score_type>  (55) 
oracle

>  <origin>  (55) 
adg

>  <m_score__min__energy>  (55) 
-10.69

>  <m_primary>  (55) 
energy

$$$$
55:0
     RDKit          3D

 25 26  0  0  0  0  0  0  0  0999 V2000
   55.4570   29.0260   44.9040 N   0  0  0  0  0  0  0  0  0  0  0  0
   56.6230   29.8480   44.8770 C   0  0  0  0  0  0  0  0  0  0  0  0
   56.5240   31.0450   44.4980 O   0  0  0  0  0  0  0  0  0  0  0  0
   57.9380   29.3100   45.2860 C   0  0  0  0  0  0  0  0  0  0  0  0
   59.1540   29.9180   44.9200 C   0  0  0  0  0  0  0  0  0  0  0  0
   60.2800   29.2630   45.4030 C   0  0  0  0  0  0  0  0  0  0  0  0
   59.7810   27.9250   46.2860 S   0  0  0  0  0  0  0  0  0  0  0  0
   58.1280   28.1660   46.0640 C   0  0  0  0  0  0  0  0  0  0  0  0
   57.0750   27.3400   46.5820 N   0  0  0  0  0  0  0  0  0  0  0  0
   57.1520   25.9410   46.8860 C   0  0  0  0  0  0  0  0  0  0  0  0
   57.8330   25.5460   47.8700 O   0  0  0  0  0  0  0  0  0  0  0  0
   56.4250   24.9590   46.0350 C   0  0  0  0  0  0  0  0  0  0  0  0
   57.0740   23.7760   45.6270 C   0  0  0  0  0  0  0  0  0  0  0  0
   56.4140   22.8390   44.8270 C   0  0  0  0  0  0  0  0  0  0  0  0
   55.0990   23.0670   44.4220 C   0  0  0  0  0  0  0  0  0  0  0  0
   54.4400   24.2320   44.8150 C   0  0  0  0  0  0  0  0  0  0  0  0
   55.0910   25.1770   45.6170 C   0  0  0  0  0  0  0  0  0  0  0  0
   54.3960   26.3250   45.9860 O   0  0  0  0  0  0  0  0  0  0  0  0
   55.5140   28.0230   45.1850 H   0  0  0  0  0  0  0  0  0  0  0  0
   59.2077   30.8296   44.3068 H   0  0  0  0  0  0  0  0  0  0  0  0
   61.3230   29.5695   45.2351 H   0  0  0  0  0  0  0  0  0  0  0  0
   58.1112   23.5882   45.9417 H   0  0  0  0  0  0  0  0  0  0  0  0
   56.9327   21.9201   44.5162 H   0  0  0  0  0  0  0  0  0  0  0  0
   54.5815   22.3281   43.7926 H   0  0  0  0  0  0  0  0  0  0  0  0
   53.4032   24.4091   44.4930 H   0  0  0  0  0  0  0  0  0  0  0  0
  1  2  1  0
  2  3  2  0
  2  4  1  0
  4  5  1  0
  5  6  2  0
  6  7  1  0
  7  8  1  0
  8  9  1  0
  9 10  1  0
 10 11  2  0
 10 12  1  0
 12 13  2  0
 13 14  1  0
 14 15  2  0
 15 16  1  0
 16 17  2  0
 17 18  1  0
  8  4  2  0
 17 12  1  0
  1 19  1  0
  5 20  1  0
  6 21  1  0
 13 22  1  0
 14 23  1  0
 15 24  1  0
 16 25  1  0
M  CHG  3   1  -1   9  -1  18  -1
M  END
>  <UniqueID>  (56) 
51

>  <SMILES>  (56) 
[NH-]C(=O)c1ccsc1[N-]C(=O)c1ccccc1[O-]

>  <Energy>  (56) 
55.9107429883901

>  <Genealogy>  (56) 
[NH-]C(=O)c1ccsc1[N-]C(=O)c1ccccc1[O-] (protonated)
[NH-]C(=O)c1ccsc1[N-]C(=O)c1ccccc1[O-] (3D coordinates assigned)
[NH-]C(=O)c1ccsc1[N-]C(=O)c1ccccc1[O-] (optimized conformer: 55.9107429883901 kcal/mol)

>  <smiles>  (56) 
NC(=O)c1ccsc1NC(=O)c1ccccc1O

>  <score_type>  (56) 
oracle

>  <origin>  (56) 
adg

>  <m_score__min__energy>  (56) 
-14.880000000000001

>  <m_primary>  (56) 
energy

$$$$
56:0
     RDKit          3D

 36 38  0  0  0  0  0  0  0  0999 V2000
   56.9700   34.2990   44.8640 C   0  0  0  0  0  0  0  0  0  0  0  0
   58.1750   33.7410   45.5730 C   0  0  0  0  0  0  0  0  0  0  0  0
   59.1520   34.6030   46.0850 C   0  0  0  0  0  0  0  0  0  0  0  0
   60.2650   34.0850   46.7380 C   0  0  0  0  0  0  0  0  0  0  0  0
   60.4020   32.7050   46.8800 C   0  0  0  0  0  0  0  0  0  0  0  0
   59.4510   31.8520   46.3820 N   0  0  0  0  0  0  0  0  0  0  0  0
   59.5820   30.4930   46.5200 C   0  0  0  0  0  0  0  0  0  0  0  0
   60.5790   29.9910   47.1080 O   0  0  0  0  0  0  0  0  0  0  0  0
   58.6320   29.6630   46.0200 N   0  0  0  0  0  0  0  0  0  0  0  0
   57.5490   30.1620   45.3810 C   0  0  0  0  0  0  0  0  0  0  0  0
   56.3090   29.0520   44.7190 S   0  0  0  0  0  0  0  0  0  0  0  0
   57.2570   27.5360   45.0820 C   0  0  0  0  0  0  0  0  0  0  0  0
   56.5620   26.7170   46.1220 C   0  0  0  0  0  0  0  0  0  0  0  0
   57.2090   26.2820   47.1130 O   0  0  0  0  0  0  0  0  0  0  0  0
   55.1590   26.4630   46.0020 N   0  0  0  0  0  0  0  0  0  0  0  0
   54.6050   25.1710   45.6140 C   0  0  0  0  0  0  0  0  0  0  0  0
   55.6980   24.2530   45.1640 C   0  0  0  0  0  0  0  0  0  0  0  0
   56.0580   23.9950   43.8470 C   0  0  0  0  0  0  0  0  0  0  0  0
   57.0860   23.0510   43.7340 C   0  0  0  0  0  0  0  0  0  0  0  0
   57.5290   22.5610   44.9550 C   0  0  0  0  0  0  0  0  0  0  0  0
   56.6400   23.2990   46.1770 S   0  0  0  0  0  0  0  0  0  0  0  0
   57.4050   31.5000   45.2420 N   0  0  0  0  0  0  0  0  0  0  0  0
   58.3420   32.3520   45.7330 C   0  0  0  0  0  0  0  0  0  0  0  0
   56.2333   34.6402   45.6062 H   0  0  0  0  0  0  0  0  0  0  0  0
   57.2755   35.1473   44.2339 H   0  0  0  0  0  0  0  0  0  0  0  0
   56.5207   33.5173   44.2339 H   0  0  0  0  0  0  0  0  0  0  0  0
   59.0391   35.6912   45.9706 H   0  0  0  0  0  0  0  0  0  0  0  0
   61.0337   34.7610   47.1406 H   0  0  0  0  0  0  0  0  0  0  0  0
   61.2825   32.2960   47.3971 H   0  0  0  0  0  0  0  0  0  0  0  0
   57.3562   26.9425   44.1612 H   0  0  0  0  0  0  0  0  0  0  0  0
   58.2500   27.8207   45.4600 H   0  0  0  0  0  0  0  0  0  0  0  0
   54.0873   24.7243   46.4756 H   0  0  0  0  0  0  0  0  0  0  0  0
   53.8970   25.3188   44.7852 H   0  0  0  0  0  0  0  0  0  0  0  0
   55.5841   24.4822   42.9821 H   0  0  0  0  0  0  0  0  0  0  0  0
   57.5032   22.7281   42.7688 H   0  0  0  0  0  0  0  0  0  0  0  0
   58.3260   21.8166   45.0988 H   0  0  0  0  0  0  0  0  0  0  0  0
  1  2  1  0
  2  3  2  0
  3  4  1  0
  4  5  2  0
  5  6  1  0
  6  7  1  0
  7  8  2  0
  7  9  1  0
  9 10  2  0
 10 11  1  0
 11 12  1  0
 12 13  1  0
 13 14  2  0
 13 15  1  0
 15 16  1  0
 16 17  1  0
 17 18  2  0
 18 19  1  0
 19 20  2  0
 20 21  1  0
 10 22  1  0
 22 23  2  0
 23  2  1  0
 23  6  1  0
 21 17  1  0
  1 24  1  0
  1 25  1  0
  1 26  1  0
  3 27  1  0
  4 28  1  0
  5 29  1  0
 12 30  1  0
 12 31  1  0
 16 32  1  0
 16 33  1  0
 18 34  1  0
 19 35  1  0
 20 36  1  0
M  CHG  1  15  -1
M  END
>  <UniqueID>  (57) 
52

>  <SMILES>  (57) 
Cc1cccn2c(=O)nc(SCC(=O)[N-]Cc3cccs3)nc12

>  <Energy>  (57) 
61.199944945657

>  <Genealogy>  (57) 
Cc1cccn2c(=O)nc(SCC(=O)[N-]Cc3cccs3)nc12 (protonated)
Cc1cccn2c(=O)nc(SCC(=O)[N-]Cc3cccs3)nc12 (3D coordinates assigned)
Cc1cccn2c(=O)nc(SCC(=O)[N-]Cc3cccs3)nc12 (optimized conformer: 61.199944945657 kcal/mol)

>  <smiles>  (57) 
Cc1cccn2c(=O)nc(SCC(=O)NCc3cccs3)nc12

>  <score_type>  (57) 
oracle

>  <origin>  (57) 
adg

>  <m_score__min__energy>  (57) 
-9.7300000000000004

>  <m_primary>  (57) 
energy

$$$$
57:0
     RDKit          3D

 49 51  0  0  0  0  0  0  0  0999 V2000
   58.0650   22.6910   45.4340 C   0  0  0  0  0  0  0  0  0  0  0  0
   57.5850   23.4300   46.6800 C   0  0  0  0  0  0  0  0  0  0  0  0
   57.1380   24.7940   46.3330 N   0  0  0  0  0  0  0  0  0  0  0  0
   55.7990   25.0790   46.2390 C   0  0  0  0  0  0  0  0  0  0  0  0
   54.9330   24.1880   46.4570 O   0  0  0  0  0  0  0  0  0  0  0  0
   55.3840   26.3240   45.8990 N   0  0  0  0  0  0  0  0  0  0  0  0
   56.2580   27.3260   45.6440 C   0  0  0  0  0  0  0  0  0  0  0  0
   55.7540   28.5730   45.2700 O   0  0  0  0  0  0  0  0  0  0  0  0
   57.6390   27.0780   45.7390 C   0  0  0  0  0  0  0  0  0  0  0  0
   58.6410   28.1380   45.4800 C   0  0  0  0  0  0  0  0  0  0  0  0
   58.9110   29.1270   46.3540 C   0  0  0  0  0  0  0  0  0  0  0  0
   59.8980   28.9420   47.3960 C   0  0  0  0  0  0  0  0  0  0  0  0
   60.6880   28.7930   48.2300 N   0  0  0  0  0  0  0  0  0  0  0  0
   58.2130   30.4280   46.2710 C   0  0  0  0  0  0  0  0  0  0  0  0
   57.1840   30.5390   45.5490 O   0  0  0  0  0  0  0  0  0  0  0  0
   58.6860   31.5610   47.0080 N   0  0  0  0  0  0  0  0  0  0  0  0
   58.8710   32.8530   46.4170 C   0  0  0  0  0  0  0  0  0  0  0  0
   57.8700   33.3590   45.5790 C   0  0  0  0  0  0  0  0  0  0  0  0
   58.0440   34.5870   44.9350 C   0  0  0  0  0  0  0  0  0  0  0  0
   59.2150   35.3220   45.1340 C   0  0  0  0  0  0  0  0  0  0  0  0
   60.2080   34.8400   45.9920 C   0  0  0  0  0  0  0  0  0  0  0  0
   60.0420   33.6100   46.6500 C   0  0  0  0  0  0  0  0  0  0  0  0
   61.0310   33.1900   47.6090 N   0  0  0  0  0  0  0  0  0  0  0  0
   62.4540   33.2000   47.2680 C   0  0  0  0  0  0  0  0  0  0  0  0
   63.1400   31.9910   47.9160 C   0  0  0  0  0  0  0  0  0  0  0  0
   62.8620   31.9370   49.3020 O   0  0  0  0  0  0  0  0  0  0  0  0
   61.4790   31.7130   49.5080 C   0  0  0  0  0  0  0  0  0  0  0  0
   60.6480   32.8950   48.9900 C   0  0  0  0  0  0  0  0  0  0  0  0
   58.0600   25.7760   46.0610 C   0  0  0  0  0  0  0  0  0  0  0  0
   59.2980   25.5180   46.1050 O   0  0  0  0  0  0  0  0  0  0  0  0
   58.6415   21.8034   45.7335 H   0  0  0  0  0  0  0  0  0  0  0  0
   57.1965   22.3793   44.8352 H   0  0  0  0  0  0  0  0  0  0  0  0
   58.7029   23.3577   44.8352 H   0  0  0  0  0  0  0  0  0  0  0  0
   56.7461   22.8772   47.1279 H   0  0  0  0  0  0  0  0  0  0  0  0
   58.4181   23.5000   47.3948 H   0  0  0  0  0  0  0  0  0  0  0  0
   55.9720   29.4270   45.7680 H   0  0  0  0  0  0  0  0  0  0  0  0
   59.1913   28.1165   44.5278 H   0  0  0  0  0  0  0  0  0  0  0  0
   56.9425   32.7875   45.4269 H   0  0  0  0  0  0  0  0  0  0  0  0
   57.2579   34.9752   44.2706 H   0  0  0  0  0  0  0  0  0  0  0  0
   59.3561   36.2815   44.6149 H   0  0  0  0  0  0  0  0  0  0  0  0
   61.1243   35.4271   46.1527 H   0  0  0  0  0  0  0  0  0  0  0  0
   62.5703   33.1463   46.1755 H   0  0  0  0  0  0  0  0  0  0  0  0
   62.9149   34.1273   47.6390 H   0  0  0  0  0  0  0  0  0  0  0  0
   62.7735   31.0702   47.4388 H   0  0  0  0  0  0  0  0  0  0  0  0
   64.2271   32.0878   47.7786 H   0  0  0  0  0  0  0  0  0  0  0  0
   61.1787   30.8000   48.9729 H   0  0  0  0  0  0  0  0  0  0  0  0
   61.2983   31.6035   50.5875 H   0  0  0  0  0  0  0  0  0  0  0  0
   59.5794   32.6367   49.0273 H   0  0  0  0  0  0  0  0  0  0  0  0
   60.8330   33.7780   49.6193 H   0  0  0  0  0  0  0  0  0  0  0  0
  1  2  1  0
  2  3  1  0
  3  4  1  0
  4  5  2  0
  4  6  1  0
  6  7  1  0
  7  8  1  0
  7  9  2  0
  9 10  1  0
 10 11  2  3
 11 12  1  0
 12 13  3  0
 11 14  1  0
 14 15  2  0
 14 16  1  0
 16 17  1  0
 17 18  2  0
 18 19  1  0
 19 20  2  0
 20 21  1  0
 21 22  2  0
 22 23  1  0
 23 24  1  0
 24 25  1  0
 25 26  1  0
 26 27  1  0
 27 28  1  0
  9 29  1  0
 29 30  2  0
 29  3  1  0
 22 17  1  0
 28 23  1  0
  1 31  1  0
  1 32  1  0
  1 33  1  0
  2 34  1  0
  2 35  1  0
  8 36  1  0
 10 37  1  0
 18 38  1  0
 19 39  1  0
 20 40  1  0
 21 41  1  0
 24 42  1  0
 24 43  1  0
 25 44  1  0
 25 45  1  0
 27 46  1  0
 27 47  1  0
 28 48  1  0
 28 49  1  0
M  CHG  2   6  -1  16  -1
M  END
>  <UniqueID>  (58) 
53

>  <SMILES>  (58) 
CCn1c(=O)[n-]c(O)c(C=C(C#N)C(=O)[N-]c2ccccc2N2CCOCC2)c1=O

>  <Energy>  (58) 
72.07200333939245

>  <Genealogy>  (58) 
CCn1c(=O)[n-]c(O)c(C=C(C#N)C(=O)[N-]c2ccccc2N2CCOCC2)c1=O (protonated)
CCn1c(=O)[n-]c(O)c(C=C(C#N)C(=O)[N-]c2ccccc2N2CCOCC2)c1=O (3D coordinates assigned)
CCn1c(=O)[n-]c(O)c(C=C(C#N)C(=O)[N-]c2ccccc2N2CCOCC2)c1=O (nonaromatic ring conformer: 72.07200333939245 kcal/mol)

>  <smiles>  (58) 
CCn1c(=O)[nH]c(O)c(C=C(C#N)C(=O)Nc2ccccc2N2CCOCC2)c1=O

>  <score_type>  (58) 
oracle

>  <origin>  (58) 
adg

>  <m_score__min__energy>  (58) 
-11.83

>  <m_primary>  (58) 
energy

$$$$
58:0
     RDKit          3D

 47 49  0  0  0  0  0  0  0  0999 V2000
   57.7240   32.0560   42.8040 C   0  0  0  0  0  0  0  0  0  0  0  0
   57.4340   31.8460   44.2300 N   0  0  0  0  0  0  0  0  0  0  0  0
   56.9830   32.9920   45.0420 C   0  0  0  0  0  0  0  0  0  0  0  0
   58.1110   33.5320   45.8870 C   0  0  0  0  0  0  0  0  0  0  0  0
   59.0820   34.3710   45.3120 C   0  0  0  0  0  0  0  0  0  0  0  0
   60.1110   34.8980   46.0960 C   0  0  0  0  0  0  0  0  0  0  0  0
   60.1810   34.5970   47.4580 C   0  0  0  0  0  0  0  0  0  0  0  0
   59.2240   33.7530   48.0460 C   0  0  0  0  0  0  0  0  0  0  0  0
   59.2680   33.4690   49.5200 C   0  0  0  0  0  0  0  0  0  0  0  0
   58.9220   32.0680   49.7450 N   0  0  0  0  0  0  0  0  0  0  0  0
   60.3700   31.1060   49.7970 S   0  0  0  0  0  0  0  0  0  0  0  0
   60.1360   29.8220   49.0520 O   0  0  0  0  0  0  0  0  0  0  0  0
   60.7030   30.7810   51.2270 O   0  0  0  0  0  0  0  0  0  0  0  0
   61.6970   31.9780   49.0330 C   0  0  0  0  0  0  0  0  0  0  0  0
   62.4180   32.9240   49.7770 C   0  0  0  0  0  0  0  0  0  0  0  0
   63.4840   33.6140   49.1900 C   0  0  0  0  0  0  0  0  0  0  0  0
   63.8340   33.3600   47.8590 C   0  0  0  0  0  0  0  0  0  0  0  0
   63.1190   32.4140   47.1140 C   0  0  0  0  0  0  0  0  0  0  0  0
   62.0520   31.7230   47.6990 C   0  0  0  0  0  0  0  0  0  0  0  0
   58.1830   33.2350   47.2580 C   0  0  0  0  0  0  0  0  0  0  0  0
   57.5880   30.5240   44.8130 C   0  0  0  0  0  0  0  0  0  0  0  0
   58.8440   30.0660   45.2520 C   0  0  0  0  0  0  0  0  0  0  0  0
   58.9890   28.7860   45.7950 C   0  0  0  0  0  0  0  0  0  0  0  0
   57.8820   27.9420   45.9090 C   0  0  0  0  0  0  0  0  0  0  0  0
   56.6240   28.3810   45.4910 C   0  0  0  0  0  0  0  0  0  0  0  0
   55.5260   27.5450   45.6080 O   0  0  0  0  0  0  0  0  0  0  0  0
   56.4750   29.6610   44.9480 C   0  0  0  0  0  0  0  0  0  0  0  0
   58.6110   32.6983   42.7009 H   0  0  0  0  0  0  0  0  0  0  0  0
   57.9157   31.0859   42.3221 H   0  0  0  0  0  0  0  0  0  0  0  0
   56.8622   32.5408   42.3221 H   0  0  0  0  0  0  0  0  0  0  0  0
   56.6218   33.7871   44.3731 H   0  0  0  0  0  0  0  0  0  0  0  0
   56.1760   32.6538   45.7086 H   0  0  0  0  0  0  0  0  0  0  0  0
   59.0310   34.6133   44.2402 H   0  0  0  0  0  0  0  0  0  0  0  0
   60.8684   35.5520   45.6393 H   0  0  0  0  0  0  0  0  0  0  0  0
   60.9882   35.0222   48.0725 H   0  0  0  0  0  0  0  0  0  0  0  0
   60.2803   33.6650   49.9033 H   0  0  0  0  0  0  0  0  0  0  0  0
   58.5513   34.1177   50.0449 H   0  0  0  0  0  0  0  0  0  0  0  0
   62.1446   33.1235   50.8237 H   0  0  0  0  0  0  0  0  0  0  0  0
   64.0472   34.3563   49.7747 H   0  0  0  0  0  0  0  0  0  0  0  0
   64.6714   33.9039   47.3976 H   0  0  0  0  0  0  0  0  0  0  0  0
   63.3963   32.2140   46.0685 H   0  0  0  0  0  0  0  0  0  0  0  0
   61.4912   30.9797   47.1133 H   0  0  0  0  0  0  0  0  0  0  0  0
   57.4183   32.5919   47.7180 H   0  0  0  0  0  0  0  0  0  0  0  0
   59.7222   30.7229   45.1669 H   0  0  0  0  0  0  0  0  0  0  0  0
   59.9777   28.4426   46.1334 H   0  0  0  0  0  0  0  0  0  0  0  0
   58.0011   26.9319   46.3279 H   0  0  0  0  0  0  0  0  0  0  0  0
   55.4809   30.0009   44.6220 H   0  0  0  0  0  0  0  0  0  0  0  0
  1  2  1  0
  2  3  1  0
  3  4  1  0
  4  5  2  0
  5  6  1  0
  6  7  2  0
  7  8  1  0
  8  9  1  0
  9 10  1  0
 10 11  1  0
 11 12  2  0
 11 13  2  0
 11 14  1  0
 14 15  2  0
 15 16  1  0
 16 17  2  0
 17 18  1  0
 18 19  2  0
  8 20  2  0
  2 21  1  0
 21 22  2  0
 22 23  1  0
 23 24  2  0
 24 25  1  0
 25 26  1  0
 25 27  2  0
 20  4  1  0
 27 21  1  0
 19 14  1  0
  1 28  1  0
  1 29  1  0
  1 30  1  0
  3 31  1  0
  3 32  1  0
  5 33  1  0
  6 34  1  0
  7 35  1  0
  9 36  1  0
  9 37  1  0
 15 38  1  0
 16 39  1  0
 17 40  1  0
 18 41  1  0
 19 42  1  0
 20 43  1  0
 22 44  1  0
 23 45  1  0
 24 46  1  0
 27 47  1  0
M  CHG  2  10  -1  26  -1
M  END
>  <UniqueID>  (59) 
54

>  <SMILES>  (59) 
CN(Cc1cccc(C[N-]S(=O)(=O)c2ccccc2)c1)c1cccc([O-])c1

>  <Energy>  (59) 
48.53414851101842

>  <Genealogy>  (59) 
CN(Cc1cccc(C[N-]S(=O)(=O)c2ccccc2)c1)c1cccc([O-])c1 (protonated)
CN(Cc1cccc(C[N-]S(=O)(=O)c2ccccc2)c1)c1cccc([O-])c1 (3D coordinates assigned)
CN(Cc1cccc(C[N-]S(=O)(=O)c2ccccc2)c1)c1cccc([O-])c1 (optimized conformer: 48.53414851101842 kcal/mol)

>  <smiles>  (59) 
CN(Cc1cccc(CNS(=O)(=O)c2ccccc2)c1)c1cccc(O)c1

>  <score_type>  (59) 
oracle

>  <origin>  (59) 
adg

>  <m_score__min__energy>  (59) 
-13.960000000000001

>  <m_primary>  (59) 
energy

$$$$
59:0
     RDKit          3D

 52 55  0  0  0  0  0  0  0  0999 V2000
   55.2320   26.5780   45.7210 N   0  0  0  0  0  0  0  0  0  0  0  0
   56.8360   27.2080   45.6030 S   0  0  0  0  0  0  0  0  0  0  0  0
   56.9680   28.0230   44.3470 O   0  0  0  0  0  0  0  0  0  0  0  0
   57.0990   28.1060   46.7790 O   0  0  0  0  0  0  0  0  0  0  0  0
   58.0050   25.8750   45.5890 C   0  0  0  0  0  0  0  0  0  0  0  0
   57.5720   24.6040   45.1790 C   0  0  0  0  0  0  0  0  0  0  0  0
   58.4460   23.5140   45.1980 C   0  0  0  0  0  0  0  0  0  0  0  0
   59.7620   23.6810   45.6280 C   0  0  0  0  0  0  0  0  0  0  0  0
   60.2120   24.9400   46.0290 C   0  0  0  0  0  0  0  0  0  0  0  0
   59.3490   26.0480   46.0020 C   0  0  0  0  0  0  0  0  0  0  0  0
   59.8850   27.3630   46.4070 C   0  0  0  0  0  0  0  0  0  0  0  0
   60.0210   27.6790   47.7660 C   0  0  0  0  0  0  0  0  0  0  0  0
   60.5260   28.9240   48.1520 C   0  0  0  0  0  0  0  0  0  0  0  0
   60.9130   29.8630   47.1820 C   0  0  0  0  0  0  0  0  0  0  0  0
   61.4280   31.2160   47.5870 C   0  0  0  0  0  0  0  0  0  0  0  0
   61.1790   31.4490   49.0040 N   0  0  0  0  0  0  0  0  0  0  0  0
   60.2760   32.4430   49.4970 C   0  0  0  0  0  0  0  0  0  0  0  0
   60.7090   33.4380   50.1400 O   0  0  0  0  0  0  0  0  0  0  0  0
   58.8120   32.3080   49.2290 C   0  0  0  0  0  0  0  0  0  0  0  0
   58.5620   32.3490   47.7910 N   0  0  0  0  0  0  0  0  0  0  0  0
   58.0220   31.3440   47.1090 N   0  0  0  0  0  0  0  0  0  0  0  0
   57.9800   31.6940   45.8010 C   0  0  0  0  0  0  0  0  0  0  0  0
   57.4460   30.8110   44.7500 C   0  0  0  0  0  0  0  0  0  0  0  0
   58.3070   30.1530   43.8210 N   0  0  0  0  0  0  0  0  0  0  0  0
   56.2060   30.5980   44.6990 O   0  0  0  0  0  0  0  0  0  0  0  0
   58.5100   32.9690   45.6650 C   0  0  0  0  0  0  0  0  0  0  0  0
   58.6570   33.8360   44.5790 C   0  0  0  0  0  0  0  0  0  0  0  0
   59.2320   35.0960   44.8190 C   0  0  0  0  0  0  0  0  0  0  0  0
   59.6310   35.4660   46.1230 C   0  0  0  0  0  0  0  0  0  0  0  0
   59.4470   34.5830   47.2020 C   0  0  0  0  0  0  0  0  0  0  0  0
   58.8720   33.3390   46.9330 C   0  0  0  0  0  0  0  0  0  0  0  0
   60.7880   29.5390   45.8220 C   0  0  0  0  0  0  0  0  0  0  0  0
   60.2830   28.2940   45.4360 C   0  0  0  0  0  0  0  0  0  0  0  0
   54.7590   27.0940   46.4950 H   0  0  0  0  0  0  0  0  0  0  0  0
   56.5349   24.4650   44.8396 H   0  0  0  0  0  0  0  0  0  0  0  0
   58.0956   22.5231   44.8734 H   0  0  0  0  0  0  0  0  0  0  0  0
   60.4460   22.8199   45.6512 H   0  0  0  0  0  0  0  0  0  0  0  0
   61.2506   25.0655   46.3688 H   0  0  0  0  0  0  0  0  0  0  0  0
   59.7293   26.9447   48.5313 H   0  0  0  0  0  0  0  0  0  0  0  0
   60.6207   29.1693   49.2201 H   0  0  0  0  0  0  0  0  0  0  0  0
   62.5102   31.2643   47.3961 H   0  0  0  0  0  0  0  0  0  0  0  0
   60.9069   31.9872   47.0007 H   0  0  0  0  0  0  0  0  0  0  0  0
   58.4544   31.3498   49.6338 H   0  0  0  0  0  0  0  0  0  0  0  0
   58.2781   33.1395   49.7123 H   0  0  0  0  0  0  0  0  0  0  0  0
   57.9020   29.5900   43.0410 H   0  0  0  0  0  0  0  0  0  0  0  0
   59.3380   30.1130   43.9770 H   0  0  0  0  0  0  0  0  0  0  0  0
   58.3334   33.5421   43.5696 H   0  0  0  0  0  0  0  0  0  0  0  0
   59.3724   35.7995   43.9851 H   0  0  0  0  0  0  0  0  0  0  0  0
   60.0886   36.4513   46.2954 H   0  0  0  0  0  0  0  0  0  0  0  0
   59.7458   34.8626   48.2231 H   0  0  0  0  0  0  0  0  0  0  0  0
   61.0890   30.2687   45.0559 H   0  0  0  0  0  0  0  0  0  0  0  0
   60.1975   28.0437   44.3683 H   0  0  0  0  0  0  0  0  0  0  0  0
  1  2  1  0
  2  3  2  0
  2  4  2  0
  2  5  1  0
  5  6  2  0
  6  7  1  0
  7  8  2  0
  8  9  1  0
  9 10  2  0
 10 11  1  0
 11 12  2  0
 12 13  1  0
 13 14  2  0
 14 15  1  0
 15 16  1  0
 16 17  1  0
 17 18  2  0
 17 19  1  0
 19 20  1  0
 20 21  1  0
 21 22  2  0
 22 23  1  0
 23 24  1  0
 23 25  2  0
 22 26  1  0
 26 27  2  0
 27 28  1  0
 28 29  2  0
 29 30  1  0
 30 31  2  0
 14 32  1  0
 32 33  2  0
 10  5  1  0
 33 11  1  0
 31 20  1  0
 31 26  1  0
  1 34  1  0
  6 35  1  0
  7 36  1  0
  8 37  1  0
  9 38  1  0
 12 39  1  0
 13 40  1  0
 15 41  1  0
 15 42  1  0
 19 43  1  0
 19 44  1  0
 24 45  1  0
 24 46  1  0
 27 47  1  0
 28 48  1  0
 29 49  1  0
 30 50  1  0
 32 51  1  0
 33 52  1  0
M  CHG  2   1  -1  16  -1
M  END
>  <UniqueID>  (60) 
55

>  <SMILES>  (60) 
[NH-]S(=O)(=O)c1ccccc1-c1ccc(C[N-]C(=O)Cn2nc(C(N)=O)c3ccccc32)cc1

>  <Energy>  (60) 
100.55712444039884

>  <Genealogy>  (60) 
[NH-]S(=O)(=O)c1ccccc1-c1ccc(C[N-]C(=O)Cn2nc(C(N)=O)c3ccccc32)cc1 (protonated)
[NH-]S(=O)(=O)c1ccccc1-c1ccc(C[N-]C(=O)Cn2nc(C(N)=O)c3ccccc32)cc1 (3D coordinates assigned)
[NH-]S(=O)(=O)c1ccccc1-c1ccc(C[N-]C(=O)Cn2nc(C(N)=O)c3ccccc32)cc1 (optimized conformer: 100.55712444039884 kcal/mol)

>  <smiles>  (60) 
NC(=O)c1nn(CC(=O)NCc2ccc(-c3ccccc3S(N)(=O)=O)cc2)c2ccccc12

>  <score_type>  (60) 
oracle

>  <origin>  (60) 
adg

>  <m_score__min__energy>  (60) 
-13.42

>  <m_primary>  (60) 
energy

$$$$
60:0
     RDKit          3D

 59 62  0  0  0  0  0  0  0  0999 V2000
   59.6060   29.9740   47.0040 H   0  0  0  0  0  0  0  0  0  0  0  0
   59.1260   30.4570   46.2540 O   0  0  0  0  0  0  0  0  0  0  0  0
   59.1380   31.8480   46.1520 C   0  0  0  0  0  0  0  0  0  0  0  0
   59.6910   32.6110   47.1920 C   0  0  0  0  0  0  0  0  0  0  0  0
   60.0390   32.1101   48.1074 H   0  0  0  0  0  0  0  0  0  0  0  0
   59.8050   33.9990   47.0790 C   0  0  0  0  0  0  0  0  0  0  0  0
   60.3750   34.7200   48.1370 O   0  0  0  0  0  0  0  0  0  0  0  0
   60.6660   34.1850   49.3990 C   0  0  0  0  0  0  0  0  0  0  0  0
   59.6350   34.0010   50.3390 C   0  0  0  0  0  0  0  0  0  0  0  0
   58.6048   34.2880   50.0815 H   0  0  0  0  0  0  0  0  0  0  0  0
   59.9030   33.4680   51.5710 N   0  0  0  0  0  0  0  0  0  0  0  0
   61.1610   33.0710   51.9370 C   0  0  0  0  0  0  0  0  0  0  0  0
   61.4050   32.5020   53.3050 C   0  0  0  0  0  0  0  0  0  0  0  0
   61.9115   31.5306   53.2063 H   0  0  0  0  0  0  0  0  0  0  0  0
   60.4372   32.3798   53.8134 H   0  0  0  0  0  0  0  0  0  0  0  0
   62.2760   33.4370   54.1330 C   0  0  0  0  0  0  0  0  0  0  0  0
   62.1013   33.2495   55.2027 H   0  0  0  0  0  0  0  0  0  0  0  0
   63.3351   33.2563   53.8972 H   0  0  0  0  0  0  0  0  0  0  0  0
   62.0208   34.4807   53.8972 H   0  0  0  0  0  0  0  0  0  0  0  0
   62.1930   33.2360   51.0130 C   0  0  0  0  0  0  0  0  0  0  0  0
   63.4550   32.9050   51.1390 O   0  0  0  0  0  0  0  0  0  0  0  0
   64.0550   33.2070   50.0020 C   0  0  0  0  0  0  0  0  0  0  0  0
   65.5030   32.9610   49.7360 C   0  0  0  0  0  0  0  0  0  0  0  0
   66.0409   32.8696   50.6911 H   0  0  0  0  0  0  0  0  0  0  0  0
   65.6172   32.0306   49.1604 H   0  0  0  0  0  0  0  0  0  0  0  0
   65.9180   33.8015   49.1604 H   0  0  0  0  0  0  0  0  0  0  0  0
   63.1490   33.7460   49.0940 C   0  0  0  0  0  0  0  0  0  0  0  0
   63.3437   34.0762   48.0630 H   0  0  0  0  0  0  0  0  0  0  0  0
   61.9500   33.7730   49.7790 C   0  0  0  0  0  0  0  0  0  0  0  0
   59.3290   34.6350   45.9230 C   0  0  0  0  0  0  0  0  0  0  0  0
   59.4065   35.7282   45.8285 H   0  0  0  0  0  0  0  0  0  0  0  0
   58.7570   33.8870   44.8910 C   0  0  0  0  0  0  0  0  0  0  0  0
   58.4000   34.3958   43.9834 H   0  0  0  0  0  0  0  0  0  0  0  0
   58.6330   32.4930   45.0000 C   0  0  0  0  0  0  0  0  0  0  0  0
   58.0270   31.7560   43.8670 C   0  0  0  0  0  0  0  0  0  0  0  0
   58.6620   31.5125   43.0024 H   0  0  0  0  0  0  0  0  0  0  0  0
   56.7430   31.3710   43.8430 C   0  0  0  0  0  0  0  0  0  0  0  0
   55.9648   32.0961   44.1234 H   0  0  0  0  0  0  0  0  0  0  0  0
   56.3390   30.0040   43.4520 C   0  0  0  0  0  0  0  0  0  0  0  0
   56.2680   29.6800   42.2330 O   0  0  0  0  0  0  0  0  0  0  0  0
   56.0290   29.0170   44.5020 C   0  0  0  0  0  0  0  0  0  0  0  0
   55.0320   28.5523   44.5116 H   0  0  0  0  0  0  0  0  0  0  0  0
   56.9120   28.6630   45.4450 C   0  0  0  0  0  0  0  0  0  0  0  0
   57.4441   29.4563   45.9905 H   0  0  0  0  0  0  0  0  0  0  0  0
   57.2040   27.2530   45.7860 C   0  0  0  0  0  0  0  0  0  0  0  0
   58.5430   26.8550   45.9080 C   0  0  0  0  0  0  0  0  0  0  0  0
   59.3473   27.5850   45.7341 H   0  0  0  0  0  0  0  0  0  0  0  0
   58.8630   25.5410   46.2480 C   0  0  0  0  0  0  0  0  0  0  0  0
   59.9173   25.2384   46.3312 H   0  0  0  0  0  0  0  0  0  0  0  0
   57.8530   24.6090   46.4830 C   0  0  0  0  0  0  0  0  0  0  0  0
   58.1129   23.5720   46.7419 H   0  0  0  0  0  0  0  0  0  0  0  0
   56.5040   24.9910   46.3900 C   0  0  0  0  0  0  0  0  0  0  0  0
   55.4540   24.0910   46.6380 O   0  0  0  0  0  0  0  0  0  0  0  0
   55.3650   23.2530   47.7860 C   0  0  0  0  0  0  0  0  0  0  0  0
   55.4304   23.8686   48.6953 H   0  0  0  0  0  0  0  0  0  0  0  0
   54.4048   22.7164   47.7747 H   0  0  0  0  0  0  0  0  0  0  0  0
   56.1911   22.5267   47.7747 H   0  0  0  0  0  0  0  0  0  0  0  0
   56.1820   26.3150   46.0500 C   0  0  0  0  0  0  0  0  0  0  0  0
   54.8450   26.6940   46.0100 O   0  0  0  0  0  0  0  0  0  0  0  0
  1  2  1  0
  2  3  1  0
  3  4  2  0
  4  5  1  0
  4  6  1  0
  6  7  1  0
  7  8  1  0
  8  9  2  0
  9 10  1  0
  9 11  1  0
 11 12  2  0
 12 13  1  0
 13 14  1  0
 13 15  1  0
 13 16  1  0
 16 17  1  0
 16 18  1  0
 16 19  1  0
 12 20  1  0
 20 21  1  0
 21 22  1  0
 22 23  1  0
 23 24  1  0
 23 25  1  0
 23 26  1  0
 22 27  2  0
 27 28  1  0
 27 29  1  0
  6 30  2  0
 30 31  1  0
 30 32  1  0
 32 33  1  0
 32 34  2  0
 34 35  1  0
 35 36  1  0
 35 37  2  0
 37 38  1  0
 37 39  1  0
 39 40  2  0
 39 41  1  0
 41 42  1  0
 41 43  2  3
 43 44  1  0
 43 45  1  0
 45 46  2  0
 46 47  1  0
 46 48  1  0
 48 49  1  0
 48 50  2  0
 50 51  1  0
 50 52  1  0
 52 53  1  0
 53 54  1  0
 54 55  1  0
 54 56  1  0
 54 57  1  0
 52 58  2  0
 58 59  1  0
 34  3  1  0
 58 45  1  0
 29  8  1  0
 29 20  2  0
M  CHG  1  59  -1
M  END
>  <UniqueID>  (61) 
56

>  <SMILES>  (61) 
CCc1ncc(Oc2ccc(/C=C/C(=O)C=Cc3cccc(OC)c3[O-])c(O)c2)c2cc(C)oc12

>  <Energy>  (61) 
107.27245778981873

>  <Genealogy>  (61) 
CCc1ncc(Oc2ccc(C=CC(=O)C=Cc3cccc(OC)c3[O-])c(O)c2)c2cc(C)oc12 (protonated)
CCc1ncc(Oc2ccc(/C=C/C(=O)C=Cc3cccc(OC)c3[O-])c(O)c2)c2cc(C)oc12 (cis-trans isomerization)
CCc1ncc(Oc2ccc(/C=C/C(=O)C=Cc3cccc(OC)c3[O-])c(O)c2)c2cc(C)oc12 (3D coordinates assigned)
CCc1ncc(Oc2ccc(/C=C/C(=O)C=Cc3cccc(OC)c3[O-])c(O)c2)c2cc(C)oc12 (optimized conformer: 107.27245778981873 kcal/mol)

>  <smiles>  (61) 
CCc1ncc(Oc2ccc(C=CC(=O)C=Cc3cccc(OC)c3O)c(O)c2)c2cc(C)oc12

>  <score_type>  (61) 
oracle

>  <origin>  (61) 
adg

>  <m_score__min__energy>  (61) 
-13.1

>  <m_primary>  (61) 
energy

$$$$
61:0
     RDKit          3D

 40 42  0  0  0  0  0  0  0  0999 V2000
   60.7970   30.6300   47.4490 O   0  0  0  0  0  0  0  0  0  0  0  0
   59.9820   30.5970   48.4100 C   0  0  0  0  0  0  0  0  0  0  0  0
   60.2780   29.7170   49.5880 C   0  0  0  0  0  0  0  0  0  0  0  0
   60.4580   30.6630   51.1420 S   0  0  0  0  0  0  0  0  0  0  0  0
   58.7750   30.4020   51.6900 C   0  0  0  0  0  0  0  0  0  0  0  0
   57.7640   30.0300   50.8820 N   0  0  0  0  0  0  0  0  0  0  0  0
   56.6940   29.9290   51.6560 N   0  0  0  0  0  0  0  0  0  0  0  0
   57.0990   30.2440   52.9020 C   0  0  0  0  0  0  0  0  0  0  0  0
   56.2090   30.2450   54.1010 C   0  0  0  0  0  0  0  0  0  0  0  0
   54.8960   29.6940   53.7640 N   0  0  0  0  0  0  0  0  0  0  0  0
   53.7970   30.4670   53.2440 C   0  0  0  0  0  0  0  0  0  0  0  0
   52.6590   30.7640   54.0210 C   0  0  0  0  0  0  0  0  0  0  0  0
   51.6100   31.5130   53.4780 C   0  0  0  0  0  0  0  0  0  0  0  0
   51.6830   31.9740   52.1620 C   0  0  0  0  0  0  0  0  0  0  0  0
   50.6400   32.7200   51.6270 O   0  0  0  0  0  0  0  0  0  0  0  0
   52.8060   31.6850   51.3830 C   0  0  0  0  0  0  0  0  0  0  0  0
   53.8570   30.9350   51.9200 C   0  0  0  0  0  0  0  0  0  0  0  0
   58.3770   30.5330   52.9310 O   0  0  0  0  0  0  0  0  0  0  0  0
   58.7940   31.4030   48.3780 N   0  0  0  0  0  0  0  0  0  0  0  0
   58.5300   32.3500   47.3320 C   0  0  0  0  0  0  0  0  0  0  0  0
   57.7590   31.9750   46.2190 C   0  0  0  0  0  0  0  0  0  0  0  0
   57.5180   32.8870   45.1870 C   0  0  0  0  0  0  0  0  0  0  0  0
   58.0430   34.1790   45.2580 C   0  0  0  0  0  0  0  0  0  0  0  0
   58.8160   34.5600   46.3590 C   0  0  0  0  0  0  0  0  0  0  0  0
   59.0700   33.6490   47.3920 C   0  0  0  0  0  0  0  0  0  0  0  0
   60.1010   34.2300   48.8990 Br  0  0  0  0  0  0  0  0  0  0  0  0
   59.4544   28.9976   49.7065 H   0  0  0  0  0  0  0  0  0  0  0  0
   61.2342   29.2092   49.3935 H   0  0  0  0  0  0  0  0  0  0  0  0
   56.6665   29.6328   54.8921 H   0  0  0  0  0  0  0  0  0  0  0  0
   56.0819   31.2806   54.4493 H   0  0  0  0  0  0  0  0  0  0  0  0
   54.7550   28.6710   53.9230 H   0  0  0  0  0  0  0  0  0  0  0  0
   52.5957   30.4051   55.0589 H   0  0  0  0  0  0  0  0  0  0  0  0
   50.7244   31.7397   54.0898 H   0  0  0  0  0  0  0  0  0  0  0  0
   52.8636   32.0478   50.3461 H   0  0  0  0  0  0  0  0  0  0  0  0
   54.7380   30.7094   51.3011 H   0  0  0  0  0  0  0  0  0  0  0  0
   58.0570   31.2480   49.1000 H   0  0  0  0  0  0  0  0  0  0  0  0
   57.3428   30.9586   46.1592 H   0  0  0  0  0  0  0  0  0  0  0  0
   56.9141   32.5864   44.3181 H   0  0  0  0  0  0  0  0  0  0  0  0
   57.8484   34.8970   44.4477 H   0  0  0  0  0  0  0  0  0  0  0  0
   59.2262   35.5792   46.4141 H   0  0  0  0  0  0  0  0  0  0  0  0
  1  2  2  0
  2  3  1  0
  3  4  1  0
  4  5  1  0
  5  6  2  0
  6  7  1  0
  7  8  2  0
  8  9  1  0
  9 10  1  0
 10 11  1  0
 11 12  2  0
 12 13  1  0
 13 14  2  0
 14 15  1  0
 14 16  1  0
 16 17  2  0
  8 18  1  0
  2 19  1  0
 19 20  1  0
 20 21  2  0
 21 22  1  0
 22 23  2  0
 23 24  1  0
 24 25  2  0
 25 26  1  0
 18  5  1  0
 25 20  1  0
 17 11  1  0
  3 27  1  0
  3 28  1  0
  9 29  1  0
  9 30  1  0
 10 31  1  0
 12 32  1  0
 13 33  1  0
 16 34  1  0
 17 35  1  0
 19 36  1  0
 21 37  1  0
 22 38  1  0
 23 39  1  0
 24 40  1  0
M  CHG  1  15  -1
M  END
>  <UniqueID>  (62) 
57

>  <SMILES>  (62) 
O=C(CSc1nnc(CNc2ccc([O-])cc2)o1)Nc1ccccc1Br

>  <Energy>  (62) 
71.60854532978894

>  <Genealogy>  (62) 
O=C(CSc1nnc(CNc2ccc([O-])cc2)o1)Nc1ccccc1Br (protonated)
O=C(CSc1nnc(CNc2ccc([O-])cc2)o1)Nc1ccccc1Br (3D coordinates assigned)
O=C(CSc1nnc(CNc2ccc([O-])cc2)o1)Nc1ccccc1Br (optimized conformer: 71.60854532978894 kcal/mol)

>  <smiles>  (62) 
O=C(CSc1nnc(CNc2ccc(O)cc2)o1)Nc1ccccc1Br

>  <score_type>  (62) 
oracle

>  <origin>  (62) 
adg

>  <m_score__min__energy>  (62) 
-13.199999999999999

>  <m_primary>  (62) 
energy

$$$$
62:0
     RDKit          3D

 35 37  0  0  0  0  0  0  0  0999 V2000
   60.4799   26.0936   45.3671 H   0  0  0  0  0  0  0  0  0  0  0  0
   59.9120   26.6780   46.1060 C   0  0  0  0  0  0  0  0  0  0  0  0
   60.6120   27.4410   46.9620 C   0  0  0  0  0  0  0  0  0  0  0  0
   61.6396   27.1290   47.1999 H   0  0  0  0  0  0  0  0  0  0  0  0
   60.1010   28.6720   47.6090 C   0  0  0  0  0  0  0  0  0  0  0  0
   59.9880   28.7290   49.0020 C   0  0  0  0  0  0  0  0  0  0  0  0
   60.3550   27.6420   49.7880 O   0  0  0  0  0  0  0  0  0  0  0  0
   59.5010   29.8440   49.5960 N   0  0  0  0  0  0  0  0  0  0  0  0
   59.1200   30.9260   48.8730 C   0  0  0  0  0  0  0  0  0  0  0  0
   58.6440   31.9270   49.4750 O   0  0  0  0  0  0  0  0  0  0  0  0
   59.2420   30.9210   47.5080 N   0  0  0  0  0  0  0  0  0  0  0  0
   58.8200   32.0670   46.7370 C   0  0  0  0  0  0  0  0  0  0  0  0
   59.3960   33.3280   46.9630 C   0  0  0  0  0  0  0  0  0  0  0  0
   60.1723   33.4463   47.7333 H   0  0  0  0  0  0  0  0  0  0  0  0
   58.9850   34.4340   46.2110 C   0  0  0  0  0  0  0  0  0  0  0  0
   59.4385   35.4200   46.3907 H   0  0  0  0  0  0  0  0  0  0  0  0
   57.9990   34.2870   45.2320 C   0  0  0  0  0  0  0  0  0  0  0  0
   57.6762   35.1580   44.6428 H   0  0  0  0  0  0  0  0  0  0  0  0
   57.4220   33.0350   45.0000 C   0  0  0  0  0  0  0  0  0  0  0  0
   56.6475   32.9213   44.2272 H   0  0  0  0  0  0  0  0  0  0  0  0
   57.8290   31.9270   45.7500 C   0  0  0  0  0  0  0  0  0  0  0  0
   57.3723   30.9432   45.5670 H   0  0  0  0  0  0  0  0  0  0  0  0
   59.7540   29.8200   46.8710 C   0  0  0  0  0  0  0  0  0  0  0  0
   59.9420   29.8410   45.6220 O   0  0  0  0  0  0  0  0  0  0  0  0
   58.4370   26.5620   46.0790 C   0  0  0  0  0  0  0  0  0  0  0  0
   57.7820   25.3640   46.4220 C   0  0  0  0  0  0  0  0  0  0  0  0
   58.3712   24.4828   46.7158 H   0  0  0  0  0  0  0  0  0  0  0  0
   56.3870   25.2890   46.3910 C   0  0  0  0  0  0  0  0  0  0  0  0
   55.8812   24.3549   46.6766 H   0  0  0  0  0  0  0  0  0  0  0  0
   55.6330   26.3980   45.9980 C   0  0  0  0  0  0  0  0  0  0  0  0
   54.2450   26.3180   45.9750 O   0  0  0  0  0  0  0  0  0  0  0  0
   56.2760   27.5830   45.6240 C   0  0  0  0  0  0  0  0  0  0  0  0
   55.5310   28.6860   45.2210 O   0  0  0  0  0  0  0  0  0  0  0  0
   57.6730   27.6610   45.6550 C   0  0  0  0  0  0  0  0  0  0  0  0
   58.1756   28.5891   45.3452 H   0  0  0  0  0  0  0  0  0  0  0  0
  1  2  1  0
  2  3  2  0
  3  4  1  0
  3  5  1  0
  5  6  2  0
  6  7  1  0
  6  8  1  0
  8  9  1  0
  9 10  2  0
  9 11  1  0
 11 12  1  0
 12 13  2  0
 13 14  1  0
 13 15  1  0
 15 16  1  0
 15 17  2  0
 17 18  1  0
 17 19  1  0
 19 20  1  0
 19 21  2  0
 21 22  1  0
 11 23  1  0
 23 24  2  0
  2 25  1  0
 25 26  2  0
 26 27  1  0
 26 28  1  0
 28 29  1  0
 28 30  2  0
 30 31  1  0
 30 32  1  0
 32 33  1  0
 32 34  2  0
 34 35  1  0
 23  5  1  0
 34 25  1  0
 21 12  1  0
M  CHG  4   7  -1   8  -1  31  -1  33  -1
M  END
>  <UniqueID>  (63) 
58

>  <SMILES>  (63) 
O=c1[n-]c([O-])c(/C=C\c2ccc([O-])c([O-])c2)c(=O)n1-c1ccccc1

>  <Energy>  (63) 
60.208978744460445

>  <Genealogy>  (63) 
O=c1[n-]c([O-])c(C=Cc2ccc([O-])c([O-])c2)c(=O)n1-c1ccccc1 (protonated)
O=c1[n-]c([O-])c(/C=C\c2ccc([O-])c([O-])c2)c(=O)n1-c1ccccc1 (cis-trans isomerization)
O=c1[n-]c([O-])c(/C=C\c2ccc([O-])c([O-])c2)c(=O)n1-c1ccccc1 (3D coordinates assigned)
O=c1[n-]c([O-])c(/C=C\c2ccc([O-])c([O-])c2)c(=O)n1-c1ccccc1 (optimized conformer: 60.208978744460445 kcal/mol)

>  <smiles>  (63) 
O=c1[nH]c(O)c(C=Cc2ccc(O)c(O)c2)c(=O)n1-c1ccccc1

>  <score_type>  (63) 
oracle

>  <origin>  (63) 
adg

>  <m_score__min__energy>  (63) 
-17.690000000000001

>  <m_primary>  (63) 
energy

$$$$
63:0
     RDKit          3D

 39 41  0  0  0  0  0  0  0  0999 V2000
   58.6310   31.3160   49.4710 O   0  0  0  0  0  0  0  0  0  0  0  0
   59.3080   31.3540   48.4070 C   0  0  0  0  0  0  0  0  0  0  0  0
   60.7320   31.1760   48.4620 N   0  0  0  0  0  0  0  0  0  0  0  0
   61.6780   32.0740   48.3870 C   0  0  0  0  0  0  0  0  0  0  0  0
   62.7340   31.8050   47.5700 N   0  0  0  0  0  0  0  0  0  0  0  0
   63.7700   32.6670   47.4010 C   0  0  0  0  0  0  0  0  0  0  0  0
   63.7820   33.8830   48.0780 C   0  0  0  0  0  0  0  0  0  0  0  0
   62.7360   34.1890   48.9450 C   0  0  0  0  0  0  0  0  0  0  0  0
   61.6830   33.2820   49.1320 C   0  0  0  0  0  0  0  0  0  0  0  0
   60.7020   33.5720   50.0810 O   0  0  0  0  0  0  0  0  0  0  0  0
   58.6510   31.6960   47.1240 C   0  0  0  0  0  0  0  0  0  0  0  0
   58.6580   33.0200   46.6460 C   0  0  0  0  0  0  0  0  0  0  0  0
   58.0390   33.3390   45.4350 C   0  0  0  0  0  0  0  0  0  0  0  0
   57.4090   32.3440   44.6860 C   0  0  0  0  0  0  0  0  0  0  0  0
   57.3930   31.0220   45.1440 C   0  0  0  0  0  0  0  0  0  0  0  0
   56.5870   29.7810   44.1900 S   0  0  0  0  0  0  0  0  0  0  0  0
   57.5490   29.1160   43.2440 O   0  0  0  0  0  0  0  0  0  0  0  0
   55.4870   30.4210   43.3920 O   0  0  0  0  0  0  0  0  0  0  0  0
   55.9020   28.5850   45.2420 N   0  0  0  0  0  0  0  0  0  0  0  0
   56.5780   27.4100   45.7150 C   0  0  0  0  0  0  0  0  0  0  0  0
   57.9800   27.3480   45.8210 C   0  0  0  0  0  0  0  0  0  0  0  0
   58.6000   26.1860   46.2880 C   0  0  0  0  0  0  0  0  0  0  0  0
   57.8310   25.0770   46.6460 C   0  0  0  0  0  0  0  0  0  0  0  0
   56.4390   25.1290   46.5410 C   0  0  0  0  0  0  0  0  0  0  0  0
   55.8130   26.2900   46.0790 C   0  0  0  0  0  0  0  0  0  0  0  0
   54.4260   26.3300   45.9820 O   0  0  0  0  0  0  0  0  0  0  0  0
   58.0150   30.6990   46.3590 C   0  0  0  0  0  0  0  0  0  0  0  0
   64.6000   32.4039   46.7287 H   0  0  0  0  0  0  0  0  0  0  0  0
   64.6081   34.5941   47.9300 H   0  0  0  0  0  0  0  0  0  0  0  0
   62.7358   35.1469   49.4858 H   0  0  0  0  0  0  0  0  0  0  0  0
   59.8990   32.9710   50.2200 H   0  0  0  0  0  0  0  0  0  0  0  0
   59.1544   33.8089   47.2301 H   0  0  0  0  0  0  0  0  0  0  0  0
   58.0481   34.3769   45.0708 H   0  0  0  0  0  0  0  0  0  0  0  0
   56.9235   32.5999   43.7327 H   0  0  0  0  0  0  0  0  0  0  0  0
   58.5901   28.2175   45.5352 H   0  0  0  0  0  0  0  0  0  0  0  0
   59.6959   26.1450   46.3737 H   0  0  0  0  0  0  0  0  0  0  0  0
   58.3213   24.1623   47.0107 H   0  0  0  0  0  0  0  0  0  0  0  0
   55.8343   24.2543   46.8225 H   0  0  0  0  0  0  0  0  0  0  0  0
   58.0060   29.6590   46.7171 H   0  0  0  0  0  0  0  0  0  0  0  0
  1  2  2  0
  2  3  1  0
  3  4  2  3
  4  5  1  0
  5  6  1  0
  6  7  2  0
  7  8  1  0
  8  9  2  0
  9 10  1  0
  2 11  1  0
 11 12  2  0
 12 13  1  0
 13 14  2  0
 14 15  1  0
 15 16  1  0
 16 17  2  0
 16 18  2  0
 16 19  1  0
 19 20  1  0
 20 21  2  0
 21 22  1  0
 22 23  2  0
 23 24  1  0
 24 25  2  0
 25 26  1  0
 15 27  2  0
  9  4  1  0
 27 11  1  0
 25 20  1  0
  6 28  1  0
  7 29  1  0
  8 30  1  0
 10 31  1  0
 12 32  1  0
 13 33  1  0
 14 34  1  0
 21 35  1  0
 22 36  1  0
 23 37  1  0
 24 38  1  0
 27 39  1  0
M  CHG  3   5  -1  19  -1  26  -1
M  END
>  <UniqueID>  (64) 
59

>  <SMILES>  (64) 
O=C(N=c1[n-]cccc1O)c1cccc(S(=O)(=O)[N-]c2ccccc2[O-])c1

>  <Energy>  (64) 
58.6499978412809

>  <Genealogy>  (64) 
O=C(N=c1[n-]cccc1O)c1cccc(S(=O)(=O)[N-]c2ccccc2[O-])c1 (protonated)
O=C(N=c1[n-]cccc1O)c1cccc(S(=O)(=O)[N-]c2ccccc2[O-])c1 (3D coordinates assigned)
O=C(N=c1[n-]cccc1O)c1cccc(S(=O)(=O)[N-]c2ccccc2[O-])c1 (optimized conformer: 58.6499978412809 kcal/mol)

>  <smiles>  (64) 
O=C(N=c1[nH]cccc1O)c1cccc(S(=O)(=O)Nc2ccccc2O)c1

>  <score_type>  (64) 
oracle

>  <origin>  (64) 
adg

>  <m_score__min__energy>  (64) 
-15

>  <m_primary>  (64) 
energy

$$$$
64:0
     RDKit          3D

 31 32  0  0  0  0  0  0  0  0999 V2000
   57.5970   30.3410   45.9360 H   0  0  0  0  0  0  0  0  0  0  0  0
   58.0960   30.6390   46.7660 O   0  0  0  0  0  0  0  0  0  0  0  0
   59.0890   31.6180   46.7150 C   0  0  0  0  0  0  0  0  0  0  0  0
   60.3330   31.3630   47.3120 C   0  0  0  0  0  0  0  0  0  0  0  0
   60.5061   30.4068   47.8274 H   0  0  0  0  0  0  0  0  0  0  0  0
   61.3520   32.3150   47.2560 C   0  0  0  0  0  0  0  0  0  0  0  0
   62.3242   32.1082   47.7272 H   0  0  0  0  0  0  0  0  0  0  0  0
   61.1380   33.5280   46.6030 C   0  0  0  0  0  0  0  0  0  0  0  0
   61.9429   34.2764   46.5579 H   0  0  0  0  0  0  0  0  0  0  0  0
   59.9040   33.7950   46.0060 C   0  0  0  0  0  0  0  0  0  0  0  0
   59.7460   34.7531   45.4893 H   0  0  0  0  0  0  0  0  0  0  0  0
   58.8590   32.8510   46.0580 C   0  0  0  0  0  0  0  0  0  0  0  0
   57.5570   33.1700   45.4170 C   0  0  0  0  0  0  0  0  0  0  0  0
   57.2400   34.3730   45.2050 O   0  0  0  0  0  0  0  0  0  0  0  0
   56.6480   32.1280   45.0470 N   0  0  0  0  0  0  0  0  0  0  0  0
   56.9050   31.1690   43.9780 C   0  0  0  0  0  0  0  0  0  0  0  0
   57.9452   30.8184   44.0490 H   0  0  0  0  0  0  0  0  0  0  0  0
   56.7355   31.6628   43.0098 H   0  0  0  0  0  0  0  0  0  0  0  0
   55.9760   29.9890   44.0910 C   0  0  0  0  0  0  0  0  0  0  0  0
   55.2180   29.7310   43.1200 O   0  0  0  0  0  0  0  0  0  0  0  0
   55.9510   29.1080   45.2290 N   0  0  0  0  0  0  0  0  0  0  0  0
   56.7500   28.1180   45.5170 C   0  0  0  0  0  0  0  0  0  0  0  0
   58.1040   28.2570   45.4610 N   0  0  0  0  0  0  0  0  0  0  0  0
   58.9500   27.2370   45.7650 C   0  0  0  0  0  0  0  0  0  0  0  0
   60.0379   27.3879   45.7042 H   0  0  0  0  0  0  0  0  0  0  0  0
   58.4380   25.9990   46.1540 C   0  0  0  0  0  0  0  0  0  0  0  0
   59.1164   25.1680   46.3972 H   0  0  0  0  0  0  0  0  0  0  0  0
   57.0550   25.8270   46.2310 C   0  0  0  0  0  0  0  0  0  0  0  0
   56.6365   24.8577   46.5397 H   0  0  0  0  0  0  0  0  0  0  0  0
   56.2030   26.8890   45.9150 C   0  0  0  0  0  0  0  0  0  0  0  0
   54.8250   26.7150   45.9950 O   0  0  0  0  0  0  0  0  0  0  0  0
  1  2  1  0
  2  3  1  0
  3  4  2  0
  4  5  1  0
  4  6  1  0
  6  7  1  0
  6  8  2  0
  8  9  1  0
  8 10  1  0
 10 11  1  0
 10 12  2  0
 12 13  1  0
 13 14  2  0
 13 15  1  0
 15 16  1  0
 16 17  1  0
 16 18  1  0
 16 19  1  0
 19 20  2  0
 19 21  1  0
 21 22  2  0
 22 23  1  0
 23 24  1  0
 24 25  1  0
 24 26  2  0
 26 27  1  0
 26 28  1  0
 28 29  1  0
 28 30  2  0
 30 31  1  0
 12  3  1  0
 30 22  1  0
M  CHG  3  15  -1  23  -1  31  -1
M  END
>  <UniqueID>  (65) 
60

>  <SMILES>  (65) 
O=C(C[N-]C(=O)c1ccccc1O)/N=c1\[n-]cccc1[O-]

>  <Energy>  (65) 
36.72500289581851

>  <Genealogy>  (65) 
O=C(C[N-]C(=O)c1ccccc1O)N=c1[n-]cccc1[O-] (protonated)
O=C(C[N-]C(=O)c1ccccc1O)/N=c1\[n-]cccc1[O-] (cis-trans isomerization)
O=C(C[N-]C(=O)c1ccccc1O)/N=c1\[n-]cccc1[O-] (3D coordinates assigned)
O=C(C[N-]C(=O)c1ccccc1O)/N=c1\[n-]cccc1[O-] (optimized conformer: 36.72500289581851 kcal/mol)

>  <smiles>  (65) 
O=C(CNC(=O)c1ccccc1O)N=c1[nH]cccc1O

>  <score_type>  (65) 
oracle

>  <origin>  (65) 
adg

>  <m_score__min__energy>  (65) 
-13.31

>  <m_primary>  (65) 
energy

$$$$
65:0
     RDKit          3D

 59 62  0  0  0  0  0  0  0  0999 V2000
   64.9310   33.2820   49.5330 O   0  0  0  0  0  0  0  0  0  0  0  0
   63.9100   33.0620   48.8280 C   0  0  0  0  0  0  0  0  0  0  0  0
   63.2740   34.2080   48.0840 C   0  0  0  0  0  0  0  0  0  0  0  0
   62.0970   34.6550   48.7600 O   0  0  0  0  0  0  0  0  0  0  0  0
   60.9000   33.9280   48.8820 C   0  0  0  0  0  0  0  0  0  0  0  0
   60.5810   33.2170   50.0550 C   0  0  0  0  0  0  0  0  0  0  0  0
   59.3840   32.5090   50.1530 C   0  0  0  0  0  0  0  0  0  0  0  0
   58.4860   32.4900   49.0870 C   0  0  0  0  0  0  0  0  0  0  0  0
   58.7820   33.1790   47.9050 C   0  0  0  0  0  0  0  0  0  0  0  0
   57.8850   33.1510   46.8260 C   0  0  0  0  0  0  0  0  0  0  0  0
   58.1870   33.8300   45.6450 C   0  0  0  0  0  0  0  0  0  0  0  0
   59.3780   34.5490   45.5320 C   0  0  0  0  0  0  0  0  0  0  0  0
   60.2790   34.5910   46.6010 C   0  0  0  0  0  0  0  0  0  0  0  0
   59.9960   33.9060   47.7980 C   0  0  0  0  0  0  0  0  0  0  0  0
   63.4120   31.7160   48.7470 N   0  0  0  0  0  0  0  0  0  0  0  0
   62.3940   31.2300   47.8210 C   0  0  0  0  0  0  0  0  0  0  0  0
   61.4030   30.3130   48.5440 C   0  0  0  0  0  0  0  0  0  0  0  0
   60.2770   29.9220   47.6270 C   0  0  0  0  0  0  0  0  0  0  0  0
   59.3740   28.9180   48.0120 C   0  0  0  0  0  0  0  0  0  0  0  0
   58.3340   28.5410   47.1570 C   0  0  0  0  0  0  0  0  0  0  0  0
   58.1950   29.1490   45.9010 C   0  0  0  0  0  0  0  0  0  0  0  0
   56.8440   28.7080   44.8600 S   0  0  0  0  0  0  0  0  0  0  0  0
   55.9760   29.9030   44.5760 O   0  0  0  0  0  0  0  0  0  0  0  0
   57.3760   28.1890   43.5550 O   0  0  0  0  0  0  0  0  0  0  0  0
   55.9140   27.4630   45.6270 N   0  0  0  0  0  0  0  0  0  0  0  0
   56.2900   26.0820   45.6350 C   0  0  0  0  0  0  0  0  0  0  0  0
   55.8230   25.3280   46.5290 O   0  0  0  0  0  0  0  0  0  0  0  0
   57.2430   25.5720   44.6890 N   0  0  0  0  0  0  0  0  0  0  0  0
   57.3200   24.1940   44.2820 C   0  0  0  0  0  0  0  0  0  0  0  0
   58.2310   23.3000   44.8750 C   0  0  0  0  0  0  0  0  0  0  0  0
   58.2720   21.9630   44.4660 C   0  0  0  0  0  0  0  0  0  0  0  0
   57.3980   21.5010   43.4740 C   0  0  0  0  0  0  0  0  0  0  0  0
   56.4710   22.3730   42.9010 C   0  0  0  0  0  0  0  0  0  0  0  0
   56.4270   23.7120   43.3080 C   0  0  0  0  0  0  0  0  0  0  0  0
   59.1040   30.1370   45.5090 C   0  0  0  0  0  0  0  0  0  0  0  0
   60.1400   30.5210   46.3650 C   0  0  0  0  0  0  0  0  0  0  0  0
   63.9914   35.0394   48.0190 H   0  0  0  0  0  0  0  0  0  0  0  0
   62.9959   33.8658   47.0763 H   0  0  0  0  0  0  0  0  0  0  0  0
   61.2829   33.2203   50.9019 H   0  0  0  0  0  0  0  0  0  0  0  0
   59.1467   31.9619   51.0773 H   0  0  0  0  0  0  0  0  0  0  0  0
   57.5421   31.9320   49.1749 H   0  0  0  0  0  0  0  0  0  0  0  0
   56.9413   32.5923   46.9115 H   0  0  0  0  0  0  0  0  0  0  0  0
   57.4837   33.7985   44.7998 H   0  0  0  0  0  0  0  0  0  0  0  0
   59.6088   35.0844   44.5992 H   0  0  0  0  0  0  0  0  0  0  0  0
   61.2141   35.1625   46.5059 H   0  0  0  0  0  0  0  0  0  0  0  0
   61.8507   32.0878   47.3980 H   0  0  0  0  0  0  0  0  0  0  0  0
   62.8862   30.6594   47.0197 H   0  0  0  0  0  0  0  0  0  0  0  0
   61.9279   29.4062   48.8789 H   0  0  0  0  0  0  0  0  0  0  0  0
   60.9860   30.8523   49.4073 H   0  0  0  0  0  0  0  0  0  0  0  0
   59.4852   28.4264   48.9897 H   0  0  0  0  0  0  0  0  0  0  0  0
   57.6215   27.7639   47.4710 H   0  0  0  0  0  0  0  0  0  0  0  0
   57.9640   26.2280   44.3180 H   0  0  0  0  0  0  0  0  0  0  0  0
   58.9128   23.6537   45.6624 H   0  0  0  0  0  0  0  0  0  0  0  0
   58.9937   21.2716   44.9254 H   0  0  0  0  0  0  0  0  0  0  0  0
   57.4421   20.4517   43.1467 H   0  0  0  0  0  0  0  0  0  0  0  0
   55.7757   22.0087   42.1304 H   0  0  0  0  0  0  0  0  0  0  0  0
   55.6874   24.3932   42.8620 H   0  0  0  0  0  0  0  0  0  0  0  0
   59.0032   30.6138   44.5229 H   0  0  0  0  0  0  0  0  0  0  0  0
   60.8521   31.2971   46.0479 H   0  0  0  0  0  0  0  0  0  0  0  0
  1  2  2  0
  2  3  1  0
  3  4  1  0
  4  5  1  0
  5  6  2  0
  6  7  1  0
  7  8  2  0
  8  9  1  0
  9 10  2  0
 10 11  1  0
 11 12  2  0
 12 13  1  0
 13 14  2  0
  2 15  1  0
 15 16  1  0
 16 17  1  0
 17 18  1  0
 18 19  2  0
 19 20  1  0
 20 21  2  0
 21 22  1  0
 22 23  2  0
 22 24  2  0
 22 25  1  0
 25 26  1  0
 26 27  2  0
 26 28  1  0
 28 29  1  0
 29 30  2  0
 30 31  1  0
 31 32  2  0
 32 33  1  0
 33 34  2  0
 21 35  1  0
 35 36  2  0
 14  5  1  0
 36 18  1  0
 14  9  1  0
 34 29  1  0
  3 37  1  0
  3 38  1  0
  6 39  1  0
  7 40  1  0
  8 41  1  0
 10 42  1  0
 11 43  1  0
 12 44  1  0
 13 45  1  0
 16 46  1  0
 16 47  1  0
 17 48  1  0
 17 49  1  0
 19 50  1  0
 20 51  1  0
 28 52  1  0
 30 53  1  0
 31 54  1  0
 32 55  1  0
 33 56  1  0
 34 57  1  0
 35 58  1  0
 36 59  1  0
M  CHG  2  15  -1  25  -1
M  END
>  <UniqueID>  (66) 
61

>  <SMILES>  (66) 
O=C(COc1cccc2ccccc12)[N-]CCc1ccc(S(=O)(=O)[N-]C(=O)Nc2ccccc2)cc1

>  <Energy>  (66) 
68.8426792135297

>  <Genealogy>  (66) 
O=C(COc1cccc2ccccc12)[N-]CCc1ccc(S(=O)(=O)[N-]C(=O)Nc2ccccc2)cc1 (protonated)
O=C(COc1cccc2ccccc12)[N-]CCc1ccc(S(=O)(=O)[N-]C(=O)Nc2ccccc2)cc1 (3D coordinates assigned)
O=C(COc1cccc2ccccc12)[N-]CCc1ccc(S(=O)(=O)[N-]C(=O)Nc2ccccc2)cc1 (optimized conformer: 68.8426792135297 kcal/mol)

>  <smiles>  (66) 
O=C(COc1cccc2ccccc12)NCCc1ccc(S(=O)(=O)NC(=O)Nc2ccccc2)cc1

>  <score_type>  (66) 
oracle

>  <origin>  (66) 
adg

>  <m_score__min__energy>  (66) 
-12.99

>  <m_primary>  (66) 
energy

$$$$
66:0
     RDKit          3D

 53 58  0  0  0  0  0  0  0  0999 V2000
   55.7800   30.1940   44.3970 O   0  0  0  0  0  0  0  0  0  0  0  0
   56.4010   29.3950   45.1470 C   0  0  0  0  0  0  0  0  0  0  0  0
   55.9860   28.1070   45.2340 N   0  0  0  0  0  0  0  0  0  0  0  0
   56.6080   27.1960   46.0250 C   0  0  0  0  0  0  0  0  0  0  0  0
   56.1340   25.8790   46.0670 C   0  0  0  0  0  0  0  0  0  0  0  0
   56.7730   24.9280   46.8640 C   0  0  0  0  0  0  0  0  0  0  0  0
   57.8920   25.2850   47.6170 C   0  0  0  0  0  0  0  0  0  0  0  0
   58.3770   26.5950   47.5850 C   0  0  0  0  0  0  0  0  0  0  0  0
   57.7360   27.5730   46.7950 C   0  0  0  0  0  0  0  0  0  0  0  0
   58.1880   28.9130   46.7270 C   0  0  0  0  0  0  0  0  0  0  0  0
   59.3720   29.3650   47.4970 C   0  0  0  0  0  0  0  0  0  0  0  0
   59.4310   29.1590   48.8840 C   0  0  0  0  0  0  0  0  0  0  0  0
   60.5690   29.5370   49.6030 C   0  0  0  0  0  0  0  0  0  0  0  0
   61.6520   30.1230   48.9420 C   0  0  0  0  0  0  0  0  0  0  0  0
   61.5980   30.3320   47.5610 C   0  0  0  0  0  0  0  0  0  0  0  0
   60.4630   29.9530   46.8370 C   0  0  0  0  0  0  0  0  0  0  0  0
   57.5080   29.8310   45.8940 C   0  0  0  0  0  0  0  0  0  0  0  0
   57.9390   31.2390   45.8200 C   0  0  0  0  0  0  0  0  0  0  0  0
   58.3280   31.8390   46.9080 N   0  0  0  0  0  0  0  0  0  0  0  0
   58.6770   33.1970   46.9020 N   0  0  0  0  0  0  0  0  0  0  0  0
   58.4050   34.0710   45.9280 C   0  0  0  0  0  0  0  0  0  0  0  0
   58.8940   35.2960   46.2110 N   0  0  0  0  0  0  0  0  0  0  0  0
   59.4840   35.1810   47.3980 N   0  0  0  0  0  0  0  0  0  0  0  0
   59.3410   33.9090   47.8230 C   0  0  0  0  0  0  0  0  0  0  0  0
   59.8210   33.3910   49.1450 C   0  0  0  0  0  0  0  0  0  0  0  0
   58.7150   33.1620   50.0170 O   0  0  0  0  0  0  0  0  0  0  0  0
   58.6670   32.1870   51.0290 C   0  0  0  0  0  0  0  0  0  0  0  0
   59.8010   31.8090   51.7760 C   0  0  0  0  0  0  0  0  0  0  0  0
   59.6970   30.8250   52.7650 C   0  0  0  0  0  0  0  0  0  0  0  0
   58.4670   30.2150   53.0190 C   0  0  0  0  0  0  0  0  0  0  0  0
   57.3360   30.5900   52.2890 C   0  0  0  0  0  0  0  0  0  0  0  0
   55.7890   29.8260   52.6120 Cl  0  0  0  0  0  0  0  0  0  0  0  0
   57.4370   31.5740   51.2990 C   0  0  0  0  0  0  0  0  0  0  0  0
   57.3760   33.6480   44.5330 S   0  0  0  0  0  0  0  0  0  0  0  0
   58.0150   31.9310   44.4710 C   0  0  0  0  0  0  0  0  0  0  0  0
   55.2554   25.5931   45.4701 H   0  0  0  0  0  0  0  0  0  0  0  0
   56.3940   23.8959   46.8985 H   0  0  0  0  0  0  0  0  0  0  0  0
   58.3954   24.5307   48.2396 H   0  0  0  0  0  0  0  0  0  0  0  0
   59.2628   26.8653   48.1785 H   0  0  0  0  0  0  0  0  0  0  0  0
   58.5796   28.6989   49.4069 H   0  0  0  0  0  0  0  0  0  0  0  0
   60.6119   29.3730   50.6899 H   0  0  0  0  0  0  0  0  0  0  0  0
   62.5469   30.4198   49.5086 H   0  0  0  0  0  0  0  0  0  0  0  0
   62.4501   30.7956   47.0424 H   0  0  0  0  0  0  0  0  0  0  0  0
   60.4250   30.1157   45.7498 H   0  0  0  0  0  0  0  0  0  0  0  0
   59.9530   35.9630   47.9060 H   0  0  0  0  0  0  0  0  0  0  0  0
   60.3627   32.4463   48.9898 H   0  0  0  0  0  0  0  0  0  0  0  0
   60.4885   34.1369   49.6012 H   0  0  0  0  0  0  0  0  0  0  0  0
   60.7711   32.2894   51.5806 H   0  0  0  0  0  0  0  0  0  0  0  0
   60.5855   30.5315   53.3433 H   0  0  0  0  0  0  0  0  0  0  0  0
   58.3882   29.4387   53.7943 H   0  0  0  0  0  0  0  0  0  0  0  0
   56.5436   31.8682   50.7286 H   0  0  0  0  0  0  0  0  0  0  0  0
   57.4193   31.3578   43.7453 H   0  0  0  0  0  0  0  0  0  0  0  0
   59.0735   31.9763   44.1752 H   0  0  0  0  0  0  0  0  0  0  0  0
  1  2  2  0
  2  3  1  0
  3  4  1  0
  4  5  2  0
  5  6  1  0
  6  7  2  0
  7  8  1  0
  8  9  2  0
  9 10  1  0
 10 11  1  0
 11 12  2  0
 12 13  1  0
 13 14  2  0
 14 15  1  0
 15 16  2  0
 10 17  2  0
 17 18  1  0
 18 19  2  0
 19 20  1  0
 20 21  1  0
 21 22  2  0
 22 23  1  0
 23 24  2  0
 24 25  1  0
 25 26  1  0
 26 27  1  0
 27 28  2  0
 28 29  1  0
 29 30  2  0
 30 31  1  0
 31 32  1  0
 31 33  2  0
 21 34  1  0
 34 35  1  0
 17  2  1  0
 35 18  1  0
  9  4  1  0
 16 11  1  0
 24 20  1  0
 33 27  1  0
  5 36  1  0
  6 37  1  0
  7 38  1  0
  8 39  1  0
 12 40  1  0
 13 41  1  0
 14 42  1  0
 15 43  1  0
 16 44  1  0
 23 45  1  0
 25 46  1  0
 25 47  1  0
 28 48  1  0
 29 49  1  0
 30 50  1  0
 33 51  1  0
 35 52  1  0
 35 53  1  0
M  CHG  2   3  -1  23   1
M  END
>  <UniqueID>  (67) 
62

>  <SMILES>  (67) 
O=c1[n-]c2ccccc2c(-c2ccccc2)c1C1=Nn2c(n[nH+]c2COc2cccc(Cl)c2)SC1

>  <Energy>  (67) 
122.48897617741152

>  <Genealogy>  (67) 
O=c1[n-]c2ccccc2c(-c2ccccc2)c1C1=Nn2c(n[nH+]c2COc2cccc(Cl)c2)SC1 (protonated)
O=c1[n-]c2ccccc2c(-c2ccccc2)c1C1=Nn2c(n[nH+]c2COc2cccc(Cl)c2)SC1 (3D coordinates assigned)
O=c1[n-]c2ccccc2c(-c2ccccc2)c1C1=Nn2c(n[nH+]c2COc2cccc(Cl)c2)SC1 (nonaromatic ring conformer: 122.48897617741152 kcal/mol)

>  <smiles>  (67) 
O=c1[nH]c2ccccc2c(-c2ccccc2)c1C1=Nn2c(COc3cccc(Cl)c3)nnc2SC1

>  <score_type>  (67) 
oracle

>  <origin>  (67) 
adg

>  <m_score__min__energy>  (67) 
-10.6

>  <m_primary>  (67) 
energy

$$$$
67:0
     RDKit          3D

 45 47  0  0  0  0  0  0  0  0999 V2000
   58.9520   34.8490   45.2060 C   0  0  0  0  0  0  0  0  0  0  0  0
   58.2790   33.5550   44.8610 C   0  0  0  0  0  0  0  0  0  0  0  0
   58.3790   33.0220   43.5690 C   0  0  0  0  0  0  0  0  0  0  0  0
   57.7800   31.7970   43.2680 C   0  0  0  0  0  0  0  0  0  0  0  0
   57.0910   31.1040   44.2730 C   0  0  0  0  0  0  0  0  0  0  0  0
   56.4230   29.7900   43.9850 C   0  0  0  0  0  0  0  0  0  0  0  0
   56.2000   29.0360   45.2270 N   0  0  0  0  0  0  0  0  0  0  0  0
   57.3790   28.2550   45.6430 C   0  0  0  0  0  0  0  0  0  0  0  0
   58.4810   29.1290   46.1930 C   0  0  0  0  0  0  0  0  0  0  0  0
   58.3340   29.7790   47.4240 C   0  0  0  0  0  0  0  0  0  0  0  0
   59.3670   30.5680   47.9260 C   0  0  0  0  0  0  0  0  0  0  0  0
   60.5520   30.7130   47.1890 C   0  0  0  0  0  0  0  0  0  0  0  0
   61.6350   31.5100   47.7060 N   0  0  0  0  0  0  0  0  0  0  0  0
   61.4320   32.3190   48.9130 C   0  0  0  0  0  0  0  0  0  0  0  0
   62.5880   33.3050   49.0920 C   0  0  0  0  0  0  0  0  0  0  0  0
   62.9880   33.7930   47.8290 O   0  0  0  0  0  0  0  0  0  0  0  0
   63.6870   32.7870   47.1150 C   0  0  0  0  0  0  0  0  0  0  0  0
   62.9810   31.4110   47.1260 C   0  0  0  0  0  0  0  0  0  0  0  0
   60.6810   30.0650   45.9930 N   0  0  0  0  0  0  0  0  0  0  0  0
   59.6820   29.2900   45.4870 C   0  0  0  0  0  0  0  0  0  0  0  0
   57.0220   31.6300   45.5260 N   0  0  0  0  0  0  0  0  0  0  0  0
   57.5980   32.8210   45.8410 C   0  0  0  0  0  0  0  0  0  0  0  0
   59.0065   34.9538   46.2996 H   0  0  0  0  0  0  0  0  0  0  0  0
   59.9685   34.8570   44.7858 H   0  0  0  0  0  0  0  0  0  0  0  0
   58.3749   35.6859   44.7858 H   0  0  0  0  0  0  0  0  0  0  0  0
   58.9304   33.5695   42.7904 H   0  0  0  0  0  0  0  0  0  0  0  0
   57.8481   31.3800   42.2524 H   0  0  0  0  0  0  0  0  0  0  0  0
   55.4548   29.9766   43.4973 H   0  0  0  0  0  0  0  0  0  0  0  0
   57.0756   29.1991   43.3255 H   0  0  0  0  0  0  0  0  0  0  0  0
   55.9490   29.7110   45.9870 H   0  0  0  0  0  0  0  0  0  0  0  0
   57.0731   27.5400   46.4210 H   0  0  0  0  0  0  0  0  0  0  0  0
   57.7711   27.7387   44.7544 H   0  0  0  0  0  0  0  0  0  0  0  0
   57.4012   29.6667   47.9961 H   0  0  0  0  0  0  0  0  0  0  0  0
   59.2539   31.0749   48.8957 H   0  0  0  0  0  0  0  0  0  0  0  0
   60.4892   32.8781   48.8208 H   0  0  0  0  0  0  0  0  0  0  0  0
   61.3912   31.6529   49.7875 H   0  0  0  0  0  0  0  0  0  0  0  0
   62.2600   34.1444   49.7227 H   0  0  0  0  0  0  0  0  0  0  0  0
   63.4350   32.7946   49.5737 H   0  0  0  0  0  0  0  0  0  0  0  0
   63.7941   33.1138   46.0701 H   0  0  0  0  0  0  0  0  0  0  0  0
   64.6576   32.6538   47.6153 H   0  0  0  0  0  0  0  0  0  0  0  0
   62.9005   31.0406   46.0934 H   0  0  0  0  0  0  0  0  0  0  0  0
   63.5755   30.7190   47.7406 H   0  0  0  0  0  0  0  0  0  0  0  0
   61.5540   30.1700   45.4320 H   0  0  0  0  0  0  0  0  0  0  0  0
   59.8180   28.7870   44.5182 H   0  0  0  0  0  0  0  0  0  0  0  0
   57.5290   33.2091   46.8680 H   0  0  0  0  0  0  0  0  0  0  0  0
  1  2  1  0
  2  3  2  0
  3  4  1  0
  4  5  2  0
  5  6  1  0
  6  7  1  0
  7  8  1  0
  8  9  1  0
  9 10  2  0
 10 11  1  0
 11 12  2  0
 12 13  1  0
 13 14  1  0
 14 15  1  0
 15 16  1  0
 16 17  1  0
 17 18  1  0
 12 19  1  0
 19 20  2  0
  5 21  1  0
 21 22  2  0
 22  2  1  0
 20  9  1  0
 18 13  1  0
  1 23  1  0
  1 24  1  0
  1 25  1  0
  3 26  1  0
  4 27  1  0
  6 28  1  0
  6 29  1  0
  7 30  1  0
  8 31  1  0
  8 32  1  0
 10 33  1  0
 11 34  1  0
 14 35  1  0
 14 36  1  0
 15 37  1  0
 15 38  1  0
 17 39  1  0
 17 40  1  0
 18 41  1  0
 18 42  1  0
 19 43  1  0
 20 44  1  0
 22 45  1  0
M  CHG  1  19   1
M  END
>  <UniqueID>  (68) 
63

>  <SMILES>  (68) 
Cc1ccc(CNCc2ccc(N3CCOCC3)[nH+]c2)nc1

>  <Energy>  (68) 
55.82568441320656

>  <Genealogy>  (68) 
Cc1ccc(CNCc2ccc(N3CCOCC3)[nH+]c2)nc1 (protonated)
Cc1ccc(CNCc2ccc(N3CCOCC3)[nH+]c2)nc1 (3D coordinates assigned)
Cc1ccc(CNCc2ccc(N3CCOCC3)[nH+]c2)nc1 (nonaromatic ring conformer: 55.82568441320656 kcal/mol)

>  <smiles>  (68) 
Cc1ccc(CNCc2ccc(N3CCOCC3)nc2)nc1

>  <score_type>  (68) 
oracle

>  <origin>  (68) 
adg

>  <m_score__min__energy>  (68) 
-5.9699999999999998

>  <m_primary>  (68) 
energy

$$$$
68:0
     RDKit          3D

 51 53  0  0  0  0  0  0  0  0999 V2000
   55.2160   29.9230   44.5040 O   0  0  0  0  0  0  0  0  0  0  0  0
   56.4080   29.7130   44.8510 C   0  0  0  0  0  0  0  0  0  0  0  0
   57.4470   30.7430   44.5170 C   0  0  0  0  0  0  0  0  0  0  0  0
   57.2250   31.9330   45.2640 O   0  0  0  0  0  0  0  0  0  0  0  0
   58.1000   32.3580   46.2700 C   0  0  0  0  0  0  0  0  0  0  0  0
   57.7590   32.2980   47.4830 O   0  0  0  0  0  0  0  0  0  0  0  0
   59.4720   32.8420   45.9120 C   0  0  0  0  0  0  0  0  0  0  0  0
   60.3720   32.7850   47.0630 N   0  0  0  0  0  0  0  0  0  0  0  0
   61.6770   33.3840   47.0160 C   0  0  0  0  0  0  0  0  0  0  0  0
   62.1080   33.8710   45.9360 O   0  0  0  0  0  0  0  0  0  0  0  0
   62.5410   33.4200   48.2060 C   0  0  0  0  0  0  0  0  0  0  0  0
   63.7770   32.8200   48.3450 C   0  0  0  0  0  0  0  0  0  0  0  0
   64.2020   33.1310   49.6170 C   0  0  0  0  0  0  0  0  0  0  0  0
   63.2010   33.8960   50.1790 C   0  0  0  0  0  0  0  0  0  0  0  0
   62.2240   34.0490   49.3140 O   0  0  0  0  0  0  0  0  0  0  0  0
   56.7050   28.5240   45.5980 N   0  0  0  0  0  0  0  0  0  0  0  0
   57.8850   28.2270   46.3590 C   0  0  0  0  0  0  0  0  0  0  0  0
   58.5540   27.0220   46.1150 C   0  0  0  0  0  0  0  0  0  0  0  0
   59.7480   26.7270   46.7790 C   0  0  0  0  0  0  0  0  0  0  0  0
   60.2840   27.6360   47.6920 C   0  0  0  0  0  0  0  0  0  0  0  0
   59.6370   28.8550   47.9350 C   0  0  0  0  0  0  0  0  0  0  0  0
   60.3230   30.0120   49.0800 S   0  0  0  0  0  0  0  0  0  0  0  0
   61.4880   30.7140   48.4420 O   0  0  0  0  0  0  0  0  0  0  0  0
   60.8330   29.2710   50.2860 O   0  0  0  0  0  0  0  0  0  0  0  0
   59.1440   31.2050   49.5760 N   0  0  0  0  0  0  0  0  0  0  0  0
   59.7840   32.4170   50.1340 C   0  0  0  0  0  0  0  0  0  0  0  0
   59.6240   32.5080   51.6600 C   0  0  0  0  0  0  0  0  0  0  0  0
   58.2670   32.5060   52.0810 O   0  0  0  0  0  0  0  0  0  0  0  0
   57.4170   31.6900   51.2820 C   0  0  0  0  0  0  0  0  0  0  0  0
   58.1550   30.6000   50.4880 C   0  0  0  0  0  0  0  0  0  0  0  0
   58.4490   29.1560   47.2510 C   0  0  0  0  0  0  0  0  0  0  0  0
   58.4433   30.3442   44.7586 H   0  0  0  0  0  0  0  0  0  0  0  0
   57.3835   30.9785   43.4444 H   0  0  0  0  0  0  0  0  0  0  0  0
   59.8770   32.2091   45.1086 H   0  0  0  0  0  0  0  0  0  0  0  0
   59.3961   33.8885   45.5818 H   0  0  0  0  0  0  0  0  0  0  0  0
   60.0730   32.2820   47.9290 H   0  0  0  0  0  0  0  0  0  0  0  0
   64.3112   32.2183   47.5949 H   0  0  0  0  0  0  0  0  0  0  0  0
   65.1486   32.8302   50.0897 H   0  0  0  0  0  0  0  0  0  0  0  0
   63.2182   34.3142   51.1963 H   0  0  0  0  0  0  0  0  0  0  0  0
   58.1371   26.3020   45.3955 H   0  0  0  0  0  0  0  0  0  0  0  0
   60.2659   25.7769   46.5816 H   0  0  0  0  0  0  0  0  0  0  0  0
   61.2170   27.3950   48.2225 H   0  0  0  0  0  0  0  0  0  0  0  0
   60.8566   32.3950   49.8910 H   0  0  0  0  0  0  0  0  0  0  0  0
   59.2907   33.2942   49.6899 H   0  0  0  0  0  0  0  0  0  0  0  0
   60.1332   31.6467   52.1170 H   0  0  0  0  0  0  0  0  0  0  0  0
   60.0640   33.4645   51.9786 H   0  0  0  0  0  0  0  0  0  0  0  0
   56.6871   31.2005   51.9436 H   0  0  0  0  0  0  0  0  0  0  0  0
   56.9442   32.3540   50.5434 H   0  0  0  0  0  0  0  0  0  0  0  0
   58.6724   29.9290   51.1894 H   0  0  0  0  0  0  0  0  0  0  0  0
   57.4219   30.0351   49.8935 H   0  0  0  0  0  0  0  0  0  0  0  0
   57.9557   30.1256   47.4139 H   0  0  0  0  0  0  0  0  0  0  0  0
  1  2  2  0
  2  3  1  0
  3  4  1  0
  4  5  1  0
  5  6  2  0
  5  7  1  0
  7  8  1  0
  8  9  1  0
  9 10  2  0
  9 11  1  0
 11 12  2  0
 12 13  1  0
 13 14  2  0
 14 15  1  0
  2 16  1  0
 16 17  1  0
 17 18  2  0
 18 19  1  0
 19 20  2  0
 20 21  1  0
 21 22  1  0
 22 23  2  0
 22 24  2  0
 22 25  1  0
 25 26  1  0
 26 27  1  0
 27 28  1  0
 28 29  1  0
 29 30  1  0
 21 31  2  0
 15 11  1  0
 31 17  1  0
 30 25  1  0
  3 32  1  0
  3 33  1  0
  7 34  1  0
  7 35  1  0
  8 36  1  0
 12 37  1  0
 13 38  1  0
 14 39  1  0
 18 40  1  0
 19 41  1  0
 20 42  1  0
 26 43  1  0
 26 44  1  0
 27 45  1  0
 27 46  1  0
 29 47  1  0
 29 48  1  0
 30 49  1  0
 30 50  1  0
 31 51  1  0
M  CHG  1  16  -1
M  END
>  <UniqueID>  (69) 
64

>  <SMILES>  (69) 
O=C(COC(=O)CNC(=O)c1ccco1)[N-]c1cccc(S(=O)(=O)N2CCOCC2)c1

>  <Energy>  (69) 
81.98405160395451

>  <Genealogy>  (69) 
O=C(COC(=O)CNC(=O)c1ccco1)[N-]c1cccc(S(=O)(=O)N2CCOCC2)c1 (protonated)
O=C(COC(=O)CNC(=O)c1ccco1)[N-]c1cccc(S(=O)(=O)N2CCOCC2)c1 (3D coordinates assigned)
O=C(COC(=O)CNC(=O)c1ccco1)[N-]c1cccc(S(=O)(=O)N2CCOCC2)c1 (nonaromatic ring conformer: 81.98405160395451 kcal/mol)

>  <smiles>  (69) 
O=C(COC(=O)CNC(=O)c1ccco1)Nc1cccc(S(=O)(=O)N2CCOCC2)c1

>  <score_type>  (69) 
oracle

>  <origin>  (69) 
adg

>  <m_score__min__energy>  (69) 
-11.039999999999999

>  <m_primary>  (69) 
energy

$$$$
69:0
     RDKit          3D

 53 55  0  0  0  0  0  0  0  0999 V2000
   58.4830   34.1760   44.8540 C   0  0  0  0  0  0  0  0  0  0  0  0
   57.9710   33.4330   46.0030 N   0  0  0  0  0  0  0  0  0  0  0  0
   58.5930   33.4530   47.3010 C   0  0  0  0  0  0  0  0  0  0  0  0
   58.1450   32.6240   48.3480 C   0  0  0  0  0  0  0  0  0  0  0  0
   58.7860   32.6520   49.5910 C   0  0  0  0  0  0  0  0  0  0  0  0
   59.8850   33.4990   49.8070 C   0  0  0  0  0  0  0  0  0  0  0  0
   60.6400   33.4660   51.1090 C   0  0  0  0  0  0  0  0  0  0  0  0
   60.8380   32.0730   51.5330 N   0  0  0  0  0  0  0  0  0  0  0  0
   62.0920   31.5090   51.0110 C   0  0  0  0  0  0  0  0  0  0  0  0
   61.9580   31.3010   49.5300 C   0  0  0  0  0  0  0  0  0  0  0  0
   62.8180   31.9510   48.6330 C   0  0  0  0  0  0  0  0  0  0  0  0
   62.6800   31.7500   47.2590 C   0  0  0  0  0  0  0  0  0  0  0  0
   61.6770   30.9100   46.7670 C   0  0  0  0  0  0  0  0  0  0  0  0
   60.7920   30.2660   47.6500 C   0  0  0  0  0  0  0  0  0  0  0  0
   59.7160   29.3850   47.1310 C   0  0  0  0  0  0  0  0  0  0  0  0
   59.6390   28.0470   47.5400 C   0  0  0  0  0  0  0  0  0  0  0  0
   58.6290   27.2170   47.0540 C   0  0  0  0  0  0  0  0  0  0  0  0
   57.6780   27.7010   46.1420 C   0  0  0  0  0  0  0  0  0  0  0  0
   56.6050   26.7670   45.6430 C   0  0  0  0  0  0  0  0  0  0  0  0
   57.7450   29.0500   45.7220 C   0  0  0  0  0  0  0  0  0  0  0  0
   56.5900   29.7200   44.5580 S   0  0  0  0  0  0  0  0  0  0  0  0
   56.9500   29.1290   42.9730 N   0  0  0  0  0  0  0  0  0  0  0  0
   56.6790   31.2210   44.5410 O   0  0  0  0  0  0  0  0  0  0  0  0
   55.1920   29.3260   44.9420 O   0  0  0  0  0  0  0  0  0  0  0  0
   58.7640   29.8780   46.2250 C   0  0  0  0  0  0  0  0  0  0  0  0
   60.9400   30.4700   49.0340 C   0  0  0  0  0  0  0  0  0  0  0  0
   60.3250   34.3320   48.7670 C   0  0  0  0  0  0  0  0  0  0  0  0
   59.6770   34.3150   47.5290 C   0  0  0  0  0  0  0  0  0  0  0  0
   59.0743   35.0341   45.2062 H   0  0  0  0  0  0  0  0  0  0  0  0
   59.1197   33.5170   44.2454 H   0  0  0  0  0  0  0  0  0  0  0  0
   57.6405   34.5363   44.2454 H   0  0  0  0  0  0  0  0  0  0  0  0
   57.1130   32.8510   45.8630 H   0  0  0  0  0  0  0  0  0  0  0  0
   57.2885   31.9526   48.1877 H   0  0  0  0  0  0  0  0  0  0  0  0
   58.4265   32.0057   50.4053 H   0  0  0  0  0  0  0  0  0  0  0  0
   61.6187   33.9502   50.9762 H   0  0  0  0  0  0  0  0  0  0  0  0
   60.0634   34.0017   51.8775 H   0  0  0  0  0  0  0  0  0  0  0  0
   60.0430   31.5000   51.1610 H   0  0  0  0  0  0  0  0  0  0  0  0
   62.9204   32.2043   51.2119 H   0  0  0  0  0  0  0  0  0  0  0  0
   62.2990   30.5473   51.5031 H   0  0  0  0  0  0  0  0  0  0  0  0
   63.6032   32.6209   49.0134 H   0  0  0  0  0  0  0  0  0  0  0  0
   63.3634   32.2547   46.5602 H   0  0  0  0  0  0  0  0  0  0  0  0
   61.5793   30.7518   45.6828 H   0  0  0  0  0  0  0  0  0  0  0  0
   60.3798   27.6487   48.2489 H   0  0  0  0  0  0  0  0  0  0  0  0
   58.5770   26.1707   47.3894 H   0  0  0  0  0  0  0  0  0  0  0  0
   56.0851   26.3145   46.5003 H   0  0  0  0  0  0  0  0  0  0  0  0
   55.8838   27.3300   45.0323 H   0  0  0  0  0  0  0  0  0  0  0  0
   57.0632   25.9751   45.0323 H   0  0  0  0  0  0  0  0  0  0  0  0
   57.9830   29.2180   42.8390 H   0  0  0  0  0  0  0  0  0  0  0  0
   56.7300   28.1060   42.9730 H   0  0  0  0  0  0  0  0  0  0  0  0
   58.8160   30.9287   45.9034 H   0  0  0  0  0  0  0  0  0  0  0  0
   60.2520   29.9740   49.7344 H   0  0  0  0  0  0  0  0  0  0  0  0
   61.1834   35.0010   48.9269 H   0  0  0  0  0  0  0  0  0  0  0  0
   60.0197   34.9835   46.7255 H   0  0  0  0  0  0  0  0  0  0  0  0
  1  2  1  0
  2  3  1  0
  3  4  2  0
  4  5  1  0
  5  6  2  0
  6  7  1  0
  7  8  1  0
  8  9  1  0
  9 10  1  0
 10 11  2  0
 11 12  1  0
 12 13  2  0
 13 14  1  0
 14 15  1  0
 15 16  2  0
 16 17  1  0
 17 18  2  0
 18 19  1  0
 18 20  1  0
 20 21  1  0
 21 22  1  0
 21 23  2  0
 21 24  2  0
 20 25  2  0
 14 26  2  0
  6 27  1  0
 27 28  2  0
 28  3  1  0
 26 10  1  0
 25 15  1  0
  1 29  1  0
  1 30  1  0
  1 31  1  0
  2 32  1  0
  4 33  1  0
  5 34  1  0
  7 35  1  0
  7 36  1  0
  8 37  1  0
  9 38  1  0
  9 39  1  0
 11 40  1  0
 12 41  1  0
 13 42  1  0
 16 43  1  0
 17 44  1  0
 19 45  1  0
 19 46  1  0
 19 47  1  0
 22 48  1  0
 22 49  1  0
 25 50  1  0
 26 51  1  0
 27 52  1  0
 28 53  1  0
M  END
>  <UniqueID>  (70) 
65

>  <SMILES>  (70) 
CNc1ccc(CNCc2cccc(-c3ccc(C)c(S(N)(=O)=O)c3)c2)cc1

>  <Energy>  (70) 
55.57310916499816

>  <Genealogy>  (70) 
CNc1ccc(CNCc2cccc(-c3ccc(C)c(S(N)(=O)=O)c3)c2)cc1 (3D coordinates assigned)
CNc1ccc(CNCc2cccc(-c3ccc(C)c(S(N)(=O)=O)c3)c2)cc1 (optimized conformer: 55.57310916499816 kcal/mol)

>  <smiles>  (70) 
CNc1ccc(CNCc2cccc(-c3ccc(C)c(S(N)(=O)=O)c3)c2)cc1

>  <score_type>  (70) 
oracle

>  <origin>  (70) 
adg

>  <m_score__min__energy>  (70) 
-9.5399999999999991

>  <m_primary>  (70) 
energy

$$$$
70:0
     RDKit          3D

 46 49  0  0  0  0  0  0  0  0999 V2000
   56.2000   30.5920   44.8070 O   0  0  0  0  0  0  0  0  0  0  0  0
   57.5190   30.9950   44.2070 S   0  0  0  0  0  0  0  0  0  0  0  0
   57.3270   31.2270   42.7330 O   0  0  0  0  0  0  0  0  0  0  0  0
   58.0570   32.4820   44.9820 C   0  0  0  0  0  0  0  0  0  0  0  0
   58.8040   33.4140   44.2480 C   0  0  0  0  0  0  0  0  0  0  0  0
   59.2250   34.6060   44.8450 C   0  0  0  0  0  0  0  0  0  0  0  0
   58.8990   34.8720   46.1790 C   0  0  0  0  0  0  0  0  0  0  0  0
   59.3070   36.0290   46.7570 F   0  0  0  0  0  0  0  0  0  0  0  0
   58.1510   33.9490   46.9140 C   0  0  0  0  0  0  0  0  0  0  0  0
   57.7280   32.7560   46.3180 C   0  0  0  0  0  0  0  0  0  0  0  0
   58.7170   29.7480   44.4780 N   0  0  0  0  0  0  0  0  0  0  0  0
   58.1000   28.4110   44.6710 C   0  0  0  0  0  0  0  0  0  0  0  0
   58.3630   27.7920   46.0550 C   0  0  0  0  0  0  0  0  0  0  0  0
   58.1770   28.8370   47.1530 C   0  0  0  0  0  0  0  0  0  0  0  0
   59.1010   30.0620   46.9470 C   0  0  1  0  0  0  0  0  0  0  0  0
   60.2170   30.0700   47.9540 C   0  0  0  0  0  0  0  0  0  0  0  0
   61.1180   31.0680   48.0720 N   0  0  0  0  0  0  0  0  0  0  0  0
   61.8960   30.6190   49.0820 C   0  0  0  0  0  0  0  0  0  0  0  0
   63.0810   31.3400   49.6070 C   0  0  0  0  0  0  0  0  0  0  0  0
   63.5360   31.0540   50.9080 C   0  0  0  0  0  0  0  0  0  0  0  0
   64.6590   31.7020   51.4300 C   0  0  0  0  0  0  0  0  0  0  0  0
   65.3420   32.6450   50.6620 C   0  0  0  0  0  0  0  0  0  0  0  0
   64.9040   32.9440   49.3720 C   0  0  0  0  0  0  0  0  0  0  0  0
   63.7800   32.3030   48.8350 C   0  0  0  0  0  0  0  0  0  0  0  0
   63.2590   32.7870   47.2230 Cl  0  0  0  0  0  0  0  0  0  0  0  0
   61.4800   29.4170   49.5250 N   0  0  0  0  0  0  0  0  0  0  0  0
   60.4440   29.1050   48.8130 O   0  0  0  0  0  0  0  0  0  0  0  0
   59.6910   30.1320   45.5180 C   0  0  0  0  0  0  0  0  0  0  0  0
   59.0598   33.2066   43.1985 H   0  0  0  0  0  0  0  0  0  0  0  0
   59.8121   35.3341   44.2661 H   0  0  0  0  0  0  0  0  0  0  0  0
   57.8943   34.1605   47.9625 H   0  0  0  0  0  0  0  0  0  0  0  0
   57.1367   32.0319   46.8977 H   0  0  0  0  0  0  0  0  0  0  0  0
   57.0126   28.5098   44.5377 H   0  0  0  0  0  0  0  0  0  0  0  0
   58.5594   27.7396   43.9306 H   0  0  0  0  0  0  0  0  0  0  0  0
   57.6585   26.9636   46.2207 H   0  0  0  0  0  0  0  0  0  0  0  0
   59.3984   27.4220   46.0880 H   0  0  0  0  0  0  0  0  0  0  0  0
   57.1306   29.1760   47.1476 H   0  0  0  0  0  0  0  0  0  0  0  0
   58.4381   28.3711   48.1146 H   0  0  0  0  0  0  0  0  0  0  0  0
   58.4690   30.9506   47.0914 H   0  0  0  0  0  0  0  0  0  0  0  0
   63.0020   30.3125   51.5204 H   0  0  0  0  0  0  0  0  0  0  0  0
   65.0046   31.4680   52.4477 H   0  0  0  0  0  0  0  0  0  0  0  0
   66.2264   33.1531   51.0739 H   0  0  0  0  0  0  0  0  0  0  0  0
   65.4457   33.6894   48.7712 H   0  0  0  0  0  0  0  0  0  0  0  0
   61.8790   28.8350   50.2940 H   0  0  0  0  0  0  0  0  0  0  0  0
   60.0233   31.1627   45.3250 H   0  0  0  0  0  0  0  0  0  0  0  0
   60.5265   29.4182   45.4692 H   0  0  0  0  0  0  0  0  0  0  0  0
  1  2  2  0
  2  3  2  0
  2  4  1  0
  4  5  2  0
  5  6  1  0
  6  7  2  0
  7  8  1  0
  7  9  1  0
  9 10  2  0
  2 11  1  0
 11 12  1  0
 12 13  1  0
 13 14  1  0
 14 15  1  0
 15 16  1  0
 16 17  2  0
 17 18  1  0
 18 19  1  0
 19 20  2  0
 20 21  1  0
 21 22  2  0
 22 23  1  0
 23 24  2  0
 24 25  1  0
 18 26  2  0
 26 27  1  0
 15 28  1  0
 10  4  1  0
 28 11  1  0
 27 16  1  0
 24 19  1  0
  5 29  1  0
  6 30  1  0
  9 31  1  0
 10 32  1  0
 12 33  1  0
 12 34  1  0
 13 35  1  0
 13 36  1  0
 14 37  1  0
 14 38  1  0
 15 39  1  1
 20 40  1  0
 21 41  1  0
 22 42  1  0
 23 43  1  0
 26 44  1  0
 28 45  1  0
 28 46  1  0
M  CHG  1  26   1
M  END
>  <UniqueID>  (71) 
66

>  <SMILES>  (71) 
O=S(=O)(c1ccc(F)cc1)N1CCC[C@@H](c2nc(-c3ccccc3Cl)[nH+]o2)C1

>  <Energy>  (71) 
95.98163473900526

>  <Genealogy>  (71) 
O=S(=O)(c1ccc(F)cc1)N1CCCC(c2nc(-c3ccccc3Cl)[nH+]o2)C1 (protonated)
O=S(=O)(c1ccc(F)cc1)N1CCC[C@@H](c2nc(-c3ccccc3Cl)[nH+]o2)C1 (chirality)
O=S(=O)(c1ccc(F)cc1)N1CCC[C@@H](c2nc(-c3ccccc3Cl)[nH+]o2)C1 (3D coordinates assigned)
O=S(=O)(c1ccc(F)cc1)N1CCC[C@@H](c2nc(-c3ccccc3Cl)[nH+]o2)C1 (nonaromatic ring conformer: 95.98163473900526 kcal/mol)

>  <smiles>  (71) 
O=S(=O)(c1ccc(F)cc1)N1CCCC(c2nc(-c3ccccc3Cl)no2)C1

>  <score_type>  (71) 
oracle

>  <origin>  (71) 
adg

>  <m_score__min__energy>  (71) 
-8.0199999999999996

>  <m_primary>  (71) 
energy

$$$$
71:0
     RDKit          3D

 45 47  0  0  1  0  0  0  0  0999 V2000
   58.2790   32.0720   49.4230 C   0  0  0  0  0  0  0  0  0  0  0  0
   59.0220   32.9770   48.5420 N   0  0  0  0  0  0  0  0  0  0  0  0
   60.1690   33.7360   48.9890 C   0  0  0  0  0  0  0  0  0  0  0  0
   61.3900   33.3890   48.2230 C   0  0  0  0  0  0  0  0  0  0  0  0
   61.8580   34.0990   47.1460 C   0  0  0  0  0  0  0  0  0  0  0  0
   63.0120   33.7460   46.4490 C   0  0  0  0  0  0  0  0  0  0  0  0
   63.7440   32.6400   46.8280 C   0  0  0  0  0  0  0  0  0  0  0  0
   63.2870   31.9090   47.9130 C   0  0  0  0  0  0  0  0  0  0  0  0
   62.1450   32.2690   48.5930 C   0  0  0  0  0  0  0  0  0  0  0  0
   58.5320   33.0220   47.1870 C   0  0  0  0  0  0  0  0  0  0  0  0
   57.7260   32.0760   46.6770 N   0  0  0  0  0  0  0  0  0  0  0  0
   57.3500   32.2390   45.3820 C   0  0  0  0  0  0  0  0  0  0  0  0
   56.6040   31.4090   44.7630 N   0  0  0  0  0  0  0  0  0  0  0  0
   56.8440   30.0200   44.7200 C   0  0  0  0  0  0  0  0  0  0  0  0
   56.4530   29.2500   43.8070 O   0  0  0  0  0  0  0  0  0  0  0  0
   57.5910   29.4200   45.7830 N   0  0  0  0  0  0  0  0  0  0  0  0
   57.8490   28.0280   45.7290 C   0  0  0  0  0  0  0  0  0  0  0  0
   59.2050   27.6650   45.7580 C   0  0  0  0  0  0  0  0  0  0  0  0
   59.5980   26.3570   45.7110 C   0  0  0  0  0  0  0  0  0  0  0  0
   58.6220   25.3790   45.6340 C   0  0  0  0  0  0  0  0  0  0  0  0
   57.2660   25.7030   45.6030 C   0  0  0  0  0  0  0  0  0  0  0  0
   56.8980   27.0460   45.6520 C   0  0  0  0  0  0  0  0  0  0  0  0
   55.5410   27.4210   45.6240 O   0  0  0  0  0  0  0  0  0  0  0  0
   57.7830   33.3330   44.6370 C   0  0  0  0  0  0  0  0  0  0  0  0
   58.6120   34.2900   45.1860 C   0  0  0  0  0  0  0  0  0  0  0  0
   58.9640   34.0940   46.4740 N   0  0  0  0  0  0  0  0  0  0  0  0
   58.4887   32.3275   50.4722 H   0  0  0  0  0  0  0  0  0  0  0  0
   57.2011   32.1745   49.2291 H   0  0  0  0  0  0  0  0  0  0  0  0
   58.5894   31.0347   49.2291 H   0  0  0  0  0  0  0  0  0  0  0  0
   59.9595   34.8080   48.8590 H   0  0  0  0  0  0  0  0  0  0  0  0
   60.3483   33.4943   50.0470 H   0  0  0  0  0  0  0  0  0  0  0  0
   61.2971   34.9866   46.8181 H   0  0  0  0  0  0  0  0  0  0  0  0
   63.3408   34.3525   45.5922 H   0  0  0  0  0  0  0  0  0  0  0  0
   64.6574   32.3488   46.2886 H   0  0  0  0  0  0  0  0  0  0  0  0
   63.8491   31.0212   48.2383 H   0  0  0  0  0  0  0  0  0  0  0  0
   61.8172   31.6610   49.4491 H   0  0  0  0  0  0  0  0  0  0  0  0
   57.9580   29.9510   46.6000 H   0  0  0  0  0  0  0  0  0  0  0  0
   59.9700   28.4530   45.8201 H   0  0  0  0  0  0  0  0  0  0  0  0
   60.6644   26.0881   45.7338 H   0  0  0  0  0  0  0  0  0  0  0  0
   58.9228   24.3216   45.5964 H   0  0  0  0  0  0  0  0  0  0  0  0
   56.5020   24.9140   45.5411 H   0  0  0  0  0  0  0  0  0  0  0  0
   55.1530   27.9720   44.8730 H   0  0  0  0  0  0  0  0  0  0  0  0
   57.4581   33.4363   43.5912 H   0  0  0  0  0  0  0  0  0  0  0  0
   58.9639   35.1584   44.6097 H   0  0  0  0  0  0  0  0  0  0  0  0
   59.5920   34.8170   46.8970 H   0  0  0  0  0  0  0  0  0  0  0  0
  1  2  1  0
  2  3  1  0
  3  4  1  0
  4  5  2  0
  5  6  1  0
  6  7  2  0
  7  8  1  0
  8  9  2  0
  2 10  1  0
 10 11  2  0
 11 12  1  0
 12 13  2  0
 13 14  1  0
 14 15  2  0
 14 16  1  0
 16 17  1  0
 17 18  2  0
 18 19  1  0
 19 20  2  0
 20 21  1  0
 21 22  2  0
 22 23  1  0
 12 24  1  0
 24 25  2  0
 25 26  1  0
  9  4  1  0
 26 10  1  0
 22 17  1  0
  1 27  1  0
  1 28  1  0
  1 29  1  0
  3 30  1  0
  3 31  1  0
  5 32  1  0
  6 33  1  0
  7 34  1  0
  8 35  1  0
  9 36  1  0
 16 37  1  0
 18 38  1  0
 19 39  1  0
 20 40  1  0
 21 41  1  0
 23 42  1  0
 24 43  1  0
 25 44  1  0
 26 45  1  0
M  END
>  <smiles>  (72) 
CN(Cc1ccccc1)c1nc(=NC(=O)Nc2ccccc2O)cc[nH]1

>  <score_type>  (72) 
oracle

>  <origin>  (72) 
adg

>  <m_score__min__energy>  (72) 
-9.5

>  <m_primary>  (72) 
energy

$$$$
72:0
     RDKit          3D

 41 43  0  0  0  0  0  0  0  0999 V2000
   55.1520   26.7100   45.9890 O   0  0  0  0  0  0  0  0  0  0  0  0
   55.9710   25.8370   46.3790 C   0  0  0  0  0  0  0  0  0  0  0  0
   55.5060   24.5500   46.8020 N   0  0  0  0  0  0  0  0  0  0  0  0
   54.6940   23.6670   45.9750 C   0  0  0  0  0  0  0  0  0  0  0  0
   55.5240   23.0570   44.8910 C   0  0  0  0  0  0  0  0  0  0  0  0
   55.8140   23.6430   43.6660 C   0  0  0  0  0  0  0  0  0  0  0  0
   56.5950   22.8260   42.8390 C   0  0  0  0  0  0  0  0  0  0  0  0
   56.9170   21.6010   43.4090 C   0  0  0  0  0  0  0  0  0  0  0  0
   56.2290   21.5320   44.9430 S   0  0  0  0  0  0  0  0  0  0  0  0
   57.3730   26.1350   46.3460 N   0  0  0  0  0  0  0  0  0  0  0  0
   57.9780   27.3240   45.8150 C   0  0  0  0  0  0  0  0  0  0  0  0
   57.2150   28.2990   45.1480 C   0  0  0  0  0  0  0  0  0  0  0  0
   57.8190   29.4500   44.6270 C   0  0  0  0  0  0  0  0  0  0  0  0
   56.8410   30.6830   43.8290 S   0  0  0  0  0  0  0  0  0  0  0  0
   55.4880   30.7830   44.4770 O   0  0  0  0  0  0  0  0  0  0  0  0
   56.6410   30.3000   42.3890 O   0  0  0  0  0  0  0  0  0  0  0  0
   57.6570   32.2180   43.8540 N   0  0  0  0  0  0  0  0  0  0  0  0
   58.1300   32.9400   45.0010 C   0  0  0  0  0  0  0  0  0  0  0  0
   58.9120   34.1060   44.9000 C   0  0  0  0  0  0  0  0  0  0  0  0
   59.3230   34.7820   46.0540 C   0  0  0  0  0  0  0  0  0  0  0  0
   58.9710   34.2990   47.3170 C   0  0  0  0  0  0  0  0  0  0  0  0
   59.3850   34.9850   48.4570 O   0  0  0  0  0  0  0  0  0  0  0  0
   58.2060   33.1310   47.4240 C   0  0  0  0  0  0  0  0  0  0  0  0
   57.7880   32.4590   46.2730 C   0  0  0  0  0  0  0  0  0  0  0  0
   59.2060   29.6120   44.7440 C   0  0  0  0  0  0  0  0  0  0  0  0
   59.9770   28.6330   45.3760 C   0  0  0  0  0  0  0  0  0  0  0  0
   59.3710   27.4900   45.9070 C   0  0  0  0  0  0  0  0  0  0  0  0
   60.3700   26.2780   46.6950 Cl  0  0  0  0  0  0  0  0  0  0  0  0
   54.2739   22.8675   46.6029 H   0  0  0  0  0  0  0  0  0  0  0  0
   53.8841   24.2533   45.5165 H   0  0  0  0  0  0  0  0  0  0  0  0
   55.4663   24.6453   43.3752 H   0  0  0  0  0  0  0  0  0  0  0  0
   56.9226   23.1262   41.8327 H   0  0  0  0  0  0  0  0  0  0  0  0
   57.5194   20.8104   42.9377 H   0  0  0  0  0  0  0  0  0  0  0  0
   56.1303   28.1558   45.0341 H   0  0  0  0  0  0  0  0  0  0  0  0
   59.2012   34.4874   43.9096 H   0  0  0  0  0  0  0  0  0  0  0  0
   59.9260   35.6979   45.9666 H   0  0  0  0  0  0  0  0  0  0  0  0
   58.8950   35.8080   48.7870 H   0  0  0  0  0  0  0  0  0  0  0  0
   57.9338   32.7420   48.4162 H   0  0  0  0  0  0  0  0  0  0  0  0
   57.1848   31.5438   46.3653 H   0  0  0  0  0  0  0  0  0  0  0  0
   59.6892   30.5125   44.3371 H   0  0  0  0  0  0  0  0  0  0  0  0
   61.0665   28.7620   45.4563 H   0  0  0  0  0  0  0  0  0  0  0  0
  1  2  2  0
  2  3  1  0
  3  4  1  0
  4  5  1  0
  5  6  2  0
  6  7  1  0
  7  8  2  0
  8  9  1  0
  2 10  1  0
 10 11  1  0
 11 12  2  0
 12 13  1  0
 13 14  1  0
 14 15  2  0
 14 16  2  0
 14 17  1  0
 17 18  1  0
 18 19  2  0
 19 20  1  0
 20 21  2  0
 21 22  1  0
 21 23  1  0
 23 24  2  0
 13 25  2  0
 25 26  1  0
 26 27  2  0
 27 28  1  0
  9  5  1  0
 27 11  1  0
 24 18  1  0
  4 29  1  0
  4 30  1  0
  6 31  1  0
  7 32  1  0
  8 33  1  0
 12 34  1  0
 19 35  1  0
 20 36  1  0
 22 37  1  0
 23 38  1  0
 24 39  1  0
 25 40  1  0
 26 41  1  0
M  CHG  3   3  -1  10  -1  17  -1
M  END
>  <UniqueID>  (73) 
67

>  <SMILES>  (73) 
O=C([N-]Cc1cccs1)[N-]c1cc(S(=O)(=O)[N-]c2ccc(O)cc2)ccc1Cl

>  <Energy>  (73) 
72.77312947719652

>  <Genealogy>  (73) 
O=C([N-]Cc1cccs1)[N-]c1cc(S(=O)(=O)[N-]c2ccc(O)cc2)ccc1Cl (protonated)
O=C([N-]Cc1cccs1)[N-]c1cc(S(=O)(=O)[N-]c2ccc(O)cc2)ccc1Cl (3D coordinates assigned)
O=C([N-]Cc1cccs1)[N-]c1cc(S(=O)(=O)[N-]c2ccc(O)cc2)ccc1Cl (optimized conformer: 72.77312947719652 kcal/mol)

>  <smiles>  (73) 
O=C(NCc1cccs1)Nc1cc(S(=O)(=O)Nc2ccc(O)cc2)ccc1Cl

>  <score_type>  (73) 
oracle

>  <origin>  (73) 
adg

>  <m_score__min__energy>  (73) 
-13.91

>  <m_primary>  (73) 
energy

$$$$
73:0
     RDKit          3D

 35 36  0  0  0  0  0  0  0  0999 V2000
   59.6598   34.4288   46.3022 H   0  0  0  0  0  0  0  0  0  0  0  0
   59.0690   33.5870   45.9120 C   0  0  0  0  0  0  0  0  0  0  0  0
   58.8530   32.4570   46.7060 C   0  0  0  0  0  0  0  0  0  0  0  0
   59.2707   32.4121   47.7226 H   0  0  0  0  0  0  0  0  0  0  0  0
   58.1070   31.3840   46.2100 C   0  0  0  0  0  0  0  0  0  0  0  0
   57.9362   30.4970   46.8377 H   0  0  0  0  0  0  0  0  0  0  0  0
   57.5760   31.4370   44.9130 C   0  0  0  0  0  0  0  0  0  0  0  0
   56.6140   30.0980   44.2980 S   0  0  0  0  0  0  0  0  0  0  0  0
   56.8580   29.9220   42.8250 O   0  0  0  0  0  0  0  0  0  0  0  0
   55.1520   30.3860   44.4980 O   0  0  0  0  0  0  0  0  0  0  0  0
   57.0670   28.6270   45.1520 C   0  0  0  0  0  0  0  0  0  0  0  0
   58.3960   28.4110   45.5250 C   0  0  0  0  0  0  0  0  0  0  0  0
   59.1706   29.1605   45.3053 H   0  0  0  0  0  0  0  0  0  0  0  0
   58.7180   27.2260   46.1810 C   0  0  0  0  0  0  0  0  0  0  0  0
   59.9050   26.9980   46.5330 O   0  0  0  0  0  0  0  0  0  0  0  0
   57.7490   26.3110   46.4400 N   0  0  0  0  0  0  0  0  0  0  0  0
   56.4580   26.5230   46.0720 C   0  0  0  0  0  0  0  0  0  0  0  0
   55.5750   25.6020   46.3450 N   0  0  0  0  0  0  0  0  0  0  0  0
   54.9740   24.6450   45.4170 C   0  0  0  0  0  0  0  0  0  0  0  0
   54.1714   25.1453   44.8552 H   0  0  0  0  0  0  0  0  0  0  0  0
   54.5727   23.8013   45.9976 H   0  0  0  0  0  0  0  0  0  0  0  0
   56.0140   24.1040   44.4290 C   0  0  0  0  0  0  0  0  0  0  0  0
   56.9219   23.8177   44.9801 H   0  0  0  0  0  0  0  0  0  0  0  0
   56.2474   24.8883   43.6939 H   0  0  0  0  0  0  0  0  0  0  0  0
   55.5080   22.9720   43.7450 O   0  0  0  0  0  0  0  0  0  0  0  0
   56.5360   22.3340   43.0200 C   0  0  0  0  0  0  0  0  0  0  0  0
   57.2562   21.8870   43.7211 H   0  0  0  0  0  0  0  0  0  0  0  0
   56.1032   21.5456   42.3867 H   0  0  0  0  0  0  0  0  0  0  0  0
   57.0504   23.0718   42.3867 H   0  0  0  0  0  0  0  0  0  0  0  0
   56.1250   27.6810   45.4210 N   0  0  0  0  0  0  0  0  0  0  0  0
   55.1470   27.8640   45.1060 H   0  0  0  0  0  0  0  0  0  0  0  0
   57.7860   32.5760   44.1230 C   0  0  0  0  0  0  0  0  0  0  0  0
   57.3618   32.6273   43.1094 H   0  0  0  0  0  0  0  0  0  0  0  0
   58.5340   33.6470   44.6220 C   0  0  0  0  0  0  0  0  0  0  0  0
   58.7016   34.5377   43.9987 H   0  0  0  0  0  0  0  0  0  0  0  0
  1  2  1  0
  2  3  2  0
  3  4  1  0
  3  5  1  0
  5  6  1  0
  5  7  2  0
  7  8  1  0
  8  9  2  0
  8 10  2  0
  8 11  1  0
 11 12  2  0
 12 13  1  0
 12 14  1  0
 14 15  2  0
 14 16  1  0
 16 17  1  0
 17 18  2  0
 18 19  1  0
 19 20  1  0
 19 21  1  0
 19 22  1  0
 22 23  1  0
 22 24  1  0
 22 25  1  0
 25 26  1  0
 26 27  1  0
 26 28  1  0
 26 29  1  0
 17 30  1  0
 30 31  1  0
  7 32  1  0
 32 33  1  0
 32 34  2  0
 34 35  1  0
 34  2  1  0
 30 11  1  0
M  CHG  1  16  -1
M  END
>  <UniqueID>  (74) 
68

>  <SMILES>  (74) 
COCC/N=c1/[n-]c(=O)cc(S(=O)(=O)c2ccccc2)[nH]1

>  <Energy>  (74) 
39.801533543685636

>  <Genealogy>  (74) 
COCCN=c1[n-]c(=O)cc(S(=O)(=O)c2ccccc2)[nH]1 (protonated)
COCC/N=c1/[n-]c(=O)cc(S(=O)(=O)c2ccccc2)[nH]1 (cis-trans isomerization)
COCC/N=c1/[n-]c(=O)cc(S(=O)(=O)c2ccccc2)[nH]1 (3D coordinates assigned)
COCC/N=c1/[n-]c(=O)cc(S(=O)(=O)c2ccccc2)[nH]1 (optimized conformer: 39.801533543685636 kcal/mol)

>  <smiles>  (74) 
COCCN=c1[nH]c(S(=O)(=O)c2ccccc2)cc(=O)[nH]1

>  <score_type>  (74) 
oracle

>  <origin>  (74) 
adg

>  <m_score__min__energy>  (74) 
-9.5899999999999999

>  <m_primary>  (74) 
energy

$$$$
74:0
     RDKit          3D

 30 32  0  0  0  0  0  0  0  0999 V2000
   54.7550   28.2990   44.4940 H   0  0  0  0  0  0  0  0  0  0  0  0
   55.2860   29.0790   44.8640 O   0  0  0  0  0  0  0  0  0  0  0  0
   56.6680   29.0090   45.0430 C   0  0  0  0  0  0  0  0  0  0  0  0
   57.4630   30.0830   44.6150 C   0  0  0  0  0  0  0  0  0  0  0  0
   56.9902   30.9567   44.1427 H   0  0  0  0  0  0  0  0  0  0  0  0
   58.8480   30.0530   44.7830 C   0  0  0  0  0  0  0  0  0  0  0  0
   59.4605   30.9017   44.4446 H   0  0  0  0  0  0  0  0  0  0  0  0
   59.4560   28.9510   45.3780 C   0  0  0  0  0  0  0  0  0  0  0  0
   60.5482   28.9312   45.5074 H   0  0  0  0  0  0  0  0  0  0  0  0
   58.6810   27.8660   45.8130 C   0  0  0  0  0  0  0  0  0  0  0  0
   59.2930   26.7580   46.4030 C   0  0  0  0  0  0  0  0  0  0  0  0
   60.3868   26.7322   46.5165 H   0  0  0  0  0  0  0  0  0  0  0  0
   58.5450   25.7150   46.8360 N   0  0  0  0  0  0  0  0  0  0  0  0
   57.1920   25.6790   46.7240 C   0  0  0  0  0  0  0  0  0  0  0  0
   56.5780   24.6260   47.1930 N   0  0  0  0  0  0  0  0  0  0  0  0
   56.8370   23.2450   46.9110 C   0  0  0  0  0  0  0  0  0  0  0  0
   57.0030   22.4520   47.8770 O   0  0  0  0  0  0  0  0  0  0  0  0
   56.8300   22.7260   45.5200 C   0  0  0  0  0  0  0  0  0  0  0  0
   55.7480   22.9730   44.6560 C   0  0  0  0  0  0  0  0  0  0  0  0
   54.8866   23.5577   45.0113 H   0  0  0  0  0  0  0  0  0  0  0  0
   55.7610   22.4930   43.3840 N   0  0  0  0  0  0  0  0  0  0  0  0
   56.8030   21.7650   42.9040 C   0  0  0  0  0  0  0  0  0  0  0  0
   56.7835   21.3939   41.8687 H   0  0  0  0  0  0  0  0  0  0  0  0
   57.8970   21.4880   43.7230 C   0  0  0  0  0  0  0  0  0  0  0  0
   58.7418   20.8969   43.3398 H   0  0  0  0  0  0  0  0  0  0  0  0
   57.9100   21.9680   45.0340 C   0  0  0  0  0  0  0  0  0  0  0  0
   58.7675   21.7526   45.6885 H   0  0  0  0  0  0  0  0  0  0  0  0
   56.5230   26.7630   46.0940 C   0  0  0  0  0  0  0  0  0  0  0  0
   55.1490   26.7210   45.8760 O   0  0  0  0  0  0  0  0  0  0  0  0
   57.2730   27.8790   45.6510 C   0  0  0  0  0  0  0  0  0  0  0  0
  1  2  1  0
  2  3  1  0
  3  4  2  0
  4  5  1  0
  4  6  1  0
  6  7  1  0
  6  8  2  0
  8  9  1  0
  8 10  1  0
 10 11  2  0
 11 12  1  0
 11 13  1  0
 13 14  1  0
 14 15  2  0
 15 16  1  0
 16 17  2  0
 16 18  1  0
 18 19  2  0
 19 20  1  0
 19 21  1  0
 21 22  2  0
 22 23  1  0
 22 24  1  0
 24 25  1  0
 24 26  2  0
 26 27  1  0
 14 28  1  0
 28 29  1  0
 28 30  2  0
 30  3  1  0
 30 10  1  0
 26 18  1  0
M  CHG  2  13  -1  29  -1
M  END
>  <UniqueID>  (75) 
69

>  <SMILES>  (75) 
O=C(/N=c1/[n-]cc2cccc(O)c2c1[O-])c1cccnc1

>  <Energy>  (75) 
54.49361535575679

>  <Genealogy>  (75) 
O=C(N=c1[n-]cc2cccc(O)c2c1[O-])c1cccnc1 (protonated)
O=C(/N=c1/[n-]cc2cccc(O)c2c1[O-])c1cccnc1 (cis-trans isomerization)
O=C(/N=c1/[n-]cc2cccc(O)c2c1[O-])c1cccnc1 (3D coordinates assigned)
O=C(/N=c1/[n-]cc2cccc(O)c2c1[O-])c1cccnc1 (optimized conformer: 54.49361535575679 kcal/mol)

>  <smiles>  (75) 
O=C(N=c1[nH]cc2cccc(O)c2c1O)c1cccnc1

>  <score_type>  (75) 
oracle

>  <origin>  (75) 
adg

>  <m_score__min__energy>  (75) 
-14.15

>  <m_primary>  (75) 
energy

$$$$
75:0
     RDKit          3D

 43 45  0  0  0  0  0  0  0  0999 V2000
   55.5250   28.8230   44.9150 N   0  0  0  0  0  0  0  0  0  0  0  0
   56.6770   30.0190   44.4370 S   0  0  0  0  0  0  0  0  0  0  0  0
   56.8700   29.9700   42.9470 O   0  0  0  0  0  0  0  0  0  0  0  0
   56.1640   31.3810   44.8120 O   0  0  0  0  0  0  0  0  0  0  0  0
   58.2130   29.7110   45.2420 C   0  0  0  0  0  0  0  0  0  0  0  0
   59.2880   29.1590   44.5340 C   0  0  0  0  0  0  0  0  0  0  0  0
   60.5140   28.9500   45.1700 C   0  0  0  0  0  0  0  0  0  0  0  0
   60.6710   29.2870   46.5170 C   0  0  0  0  0  0  0  0  0  0  0  0
   59.6000   29.8240   47.2430 C   0  0  0  0  0  0  0  0  0  0  0  0
   59.8100   30.1950   48.6120 N   0  0  0  0  0  0  0  0  0  0  0  0
   60.6920   29.5360   49.5280 C   0  0  0  0  0  0  0  0  0  0  0  0
   60.6590   28.2830   49.6650 O   0  0  0  0  0  0  0  0  0  0  0  0
   61.6590   30.3470   50.3310 C   0  0  0  0  0  0  0  0  0  0  0  0
   62.0960   31.5460   49.5360 C   0  0  0  0  0  0  0  0  0  0  0  0
   63.4260   31.6730   49.1060 C   0  0  0  0  0  0  0  0  0  0  0  0
   63.8140   32.7710   48.3360 C   0  0  0  0  0  0  0  0  0  0  0  0
   62.8740   33.7370   47.9670 C   0  0  0  0  0  0  0  0  0  0  0  0
   61.5370   33.6070   48.3570 C   0  0  0  0  0  0  0  0  0  0  0  0
   60.6170   34.5880   47.9560 O   0  0  0  0  0  0  0  0  0  0  0  0
   59.5330   34.3760   47.0910 C   0  0  0  0  0  0  0  0  0  0  0  0
   59.6250   34.8390   45.7720 C   0  0  0  0  0  0  0  0  0  0  0  0
   58.5700   34.6390   44.8770 C   0  0  0  0  0  0  0  0  0  0  0  0
   57.4180   33.9620   45.2910 C   0  0  0  0  0  0  0  0  0  0  0  0
   57.3250   33.4790   46.5990 C   0  0  0  0  0  0  0  0  0  0  0  0
   58.3800   33.6770   47.4960 C   0  0  0  0  0  0  0  0  0  0  0  0
   61.1560   32.5220   49.1660 C   0  0  0  0  0  0  0  0  0  0  0  0
   58.3730   30.0530   46.5920 C   0  0  0  0  0  0  0  0  0  0  0  0
   54.6850   29.3320   45.2720 H   0  0  0  0  0  0  0  0  0  0  0  0
   59.1666   28.8894   43.4745 H   0  0  0  0  0  0  0  0  0  0  0  0
   61.3570   28.5195   44.6097 H   0  0  0  0  0  0  0  0  0  0  0  0
   61.6415   29.1297   47.0103 H   0  0  0  0  0  0  0  0  0  0  0  0
   61.1735   30.6811   51.2598 H   0  0  0  0  0  0  0  0  0  0  0  0
   62.5373   29.7312   50.5747 H   0  0  0  0  0  0  0  0  0  0  0  0
   64.1652   30.9047   49.3766 H   0  0  0  0  0  0  0  0  0  0  0  0
   64.8621   32.8760   48.0190 H   0  0  0  0  0  0  0  0  0  0  0  0
   63.1871   34.6040   47.3668 H   0  0  0  0  0  0  0  0  0  0  0  0
   60.5329   35.3631   45.4386 H   0  0  0  0  0  0  0  0  0  0  0  0
   58.6458   35.0145   43.8458 H   0  0  0  0  0  0  0  0  0  0  0  0
   56.5861   33.8100   44.5876 H   0  0  0  0  0  0  0  0  0  0  0  0
   56.4212   32.9425   46.9236 H   0  0  0  0  0  0  0  0  0  0  0  0
   58.3085   33.2852   48.5214 H   0  0  0  0  0  0  0  0  0  0  0  0
   60.1151   32.4369   49.5114 H   0  0  0  0  0  0  0  0  0  0  0  0
   57.5355   30.5026   47.1455 H   0  0  0  0  0  0  0  0  0  0  0  0
  1  2  1  0
  2  3  2  0
  2  4  2  0
  2  5  1  0
  5  6  2  0
  6  7  1  0
  7  8  2  0
  8  9  1  0
  9 10  1  0
 10 11  1  0
 11 12  2  0
 11 13  1  0
 13 14  1  0
 14 15  2  0
 15 16  1  0
 16 17  2  0
 17 18  1  0
 18 19  1  0
 19 20  1  0
 20 21  2  0
 21 22  1  0
 22 23  2  0
 23 24  1  0
 24 25  2  0
 18 26  2  0
  9 27  2  0
 27  5  1  0
 26 14  1  0
 25 20  1  0
  1 28  1  0
  6 29  1  0
  7 30  1  0
  8 31  1  0
 13 32  1  0
 13 33  1  0
 15 34  1  0
 16 35  1  0
 17 36  1  0
 21 37  1  0
 22 38  1  0
 23 39  1  0
 24 40  1  0
 25 41  1  0
 26 42  1  0
 27 43  1  0
M  CHG  2   1  -1  10  -1
M  END
>  <UniqueID>  (76) 
70

>  <SMILES>  (76) 
[NH-]S(=O)(=O)c1cccc([N-]C(=O)Cc2cccc(Oc3ccccc3)c2)c1

>  <Energy>  (76) 
51.22654620350561

>  <Genealogy>  (76) 
[NH-]S(=O)(=O)c1cccc([N-]C(=O)Cc2cccc(Oc3ccccc3)c2)c1 (protonated)
[NH-]S(=O)(=O)c1cccc([N-]C(=O)Cc2cccc(Oc3ccccc3)c2)c1 (3D coordinates assigned)
[NH-]S(=O)(=O)c1cccc([N-]C(=O)Cc2cccc(Oc3ccccc3)c2)c1 (optimized conformer: 51.22654620350561 kcal/mol)

>  <smiles>  (76) 
NS(=O)(=O)c1cccc(NC(=O)Cc2cccc(Oc3ccccc3)c2)c1

>  <score_type>  (76) 
oracle

>  <origin>  (76) 
adg

>  <m_score__min__energy>  (76) 
-13.24

>  <m_primary>  (76) 
energy

$$$$
76:0
     RDKit          3D

 51 54  0  0  0  0  0  0  0  0999 V2000
   56.5820   30.6290   43.2640 O   0  0  0  0  0  0  0  0  0  0  0  0
   56.9230   30.2070   44.4000 C   0  0  0  0  0  0  0  0  0  0  0  0
   57.0240   31.1450   45.4790 N   0  0  0  0  0  0  0  0  0  0  0  0
   57.8700   32.3040   45.5110 C   0  0  0  0  0  0  0  0  0  0  0  0
   57.5220   33.4790   44.8190 C   0  0  0  0  0  0  0  0  0  0  0  0
   58.3570   34.5990   44.8670 C   0  0  0  0  0  0  0  0  0  0  0  0
   59.5490   34.5520   45.5930 C   0  0  0  0  0  0  0  0  0  0  0  0
   59.9130   33.3830   46.2660 C   0  0  0  0  0  0  0  0  0  0  0  0
   59.0830   32.2550   46.2210 C   0  0  0  0  0  0  0  0  0  0  0  0
   59.4680   31.0700   46.9260 N   0  0  0  0  0  0  0  0  0  0  0  0
   59.0950   30.9240   48.3350 C   0  0  0  0  0  0  0  0  0  0  0  0
   59.5130   29.5490   48.8640 C   0  0  0  0  0  0  0  0  0  0  0  0
   59.2150   28.5170   47.8630 N   0  0  0  0  0  0  0  0  0  0  0  0
   60.0290   28.6630   46.6370 C   0  0  0  0  0  0  0  0  0  0  0  0
   60.3980   30.1260   46.3000 C   0  0  0  0  0  0  0  0  0  0  0  0
   57.2530   28.7730   44.5780 C   0  0  0  0  0  0  0  0  0  0  0  0
   56.6640   28.0370   45.6190 C   0  0  0  0  0  0  0  0  0  0  0  0
   56.9860   26.6890   45.8050 C   0  0  0  0  0  0  0  0  0  0  0  0
   57.9040   26.0580   44.9590 C   0  0  0  0  0  0  0  0  0  0  0  0
   58.2030   24.7050   45.1770 O   0  0  0  0  0  0  0  0  0  0  0  0
   57.7220   23.6350   44.4080 C   0  0  0  0  0  0  0  0  0  0  0  0
   56.6080   23.8440   43.5860 C   0  0  0  0  0  0  0  0  0  0  0  0
   56.0910   22.7980   42.8160 C   0  0  0  0  0  0  0  0  0  0  0  0
   56.6790   21.5320   42.8710 C   0  0  0  0  0  0  0  0  0  0  0  0
   57.7790   21.3070   43.7030 C   0  0  0  0  0  0  0  0  0  0  0  0
   58.2990   22.3520   44.4740 C   0  0  0  0  0  0  0  0  0  0  0  0
   58.4610   26.7770   43.8890 C   0  0  0  0  0  0  0  0  0  0  0  0
   58.1380   28.1230   43.7000 C   0  0  0  0  0  0  0  0  0  0  0  0
   56.5888   33.5162   44.2378 H   0  0  0  0  0  0  0  0  0  0  0  0
   58.0749   35.5181   44.3325 H   0  0  0  0  0  0  0  0  0  0  0  0
   60.2020   35.4362   45.6350 H   0  0  0  0  0  0  0  0  0  0  0  0
   60.8547   33.3480   46.8333 H   0  0  0  0  0  0  0  0  0  0  0  0
   59.5964   31.7057   48.9245 H   0  0  0  0  0  0  0  0  0  0  0  0
   58.0030   31.0212   48.4245 H   0  0  0  0  0  0  0  0  0  0  0  0
   60.5926   29.5520   49.0746 H   0  0  0  0  0  0  0  0  0  0  0  0
   58.9549   29.3308   49.7865 H   0  0  0  0  0  0  0  0  0  0  0  0
   59.4010   27.5770   48.2840 H   0  0  0  0  0  0  0  0  0  0  0  0
   58.1990   28.5600   47.6150 H   0  0  0  0  0  0  0  0  0  0  0  0
   60.9603   28.0928   46.7698 H   0  0  0  0  0  0  0  0  0  0  0  0
   59.4189   28.2874   45.8023 H   0  0  0  0  0  0  0  0  0  0  0  0
   61.4155   30.3314   46.6641 H   0  0  0  0  0  0  0  0  0  0  0  0
   60.3402   30.2551   45.2091 H   0  0  0  0  0  0  0  0  0  0  0  0
   55.9441   28.5244   46.2929 H   0  0  0  0  0  0  0  0  0  0  0  0
   56.5148   26.1217   46.6211 H   0  0  0  0  0  0  0  0  0  0  0  0
   56.1368   24.8372   43.5458 H   0  0  0  0  0  0  0  0  0  0  0  0
   55.2205   22.9719   42.1663 H   0  0  0  0  0  0  0  0  0  0  0  0
   56.2759   20.7117   42.2590 H   0  0  0  0  0  0  0  0  0  0  0  0
   58.2362   20.3077   43.7517 H   0  0  0  0  0  0  0  0  0  0  0  0
   59.1607   22.1712   45.1334 H   0  0  0  0  0  0  0  0  0  0  0  0
   59.1549   26.2781   43.1964 H   0  0  0  0  0  0  0  0  0  0  0  0
   58.5790   28.6778   42.8588 H   0  0  0  0  0  0  0  0  0  0  0  0
  1  2  2  0
  2  3  1  0
  3  4  1  0
  4  5  2  0
  5  6  1  0
  6  7  2  0
  7  8  1  0
  8  9  2  0
  9 10  1  0
 10 11  1  0
 11 12  1  0
 12 13  1  0
 13 14  1  0
 14 15  1  0
  2 16  1  0
 16 17  2  0
 17 18  1  0
 18 19  2  0
 19 20  1  0
 20 21  1  0
 21 22  2  0
 22 23  1  0
 23 24  2  0
 24 25  1  0
 25 26  2  0
 19 27  1  0
 27 28  2  0
  9  4  1  0
 15 10  1  0
 28 16  1  0
 26 21  1  0
  5 29  1  0
  6 30  1  0
  7 31  1  0
  8 32  1  0
 11 33  1  0
 11 34  1  0
 12 35  1  0
 12 36  1  0
 13 37  1  0
 13 38  1  0
 14 39  1  0
 14 40  1  0
 15 41  1  0
 15 42  1  0
 17 43  1  0
 18 44  1  0
 22 45  1  0
 23 46  1  0
 24 47  1  0
 25 48  1  0
 26 49  1  0
 27 50  1  0
 28 51  1  0
M  CHG  2   3  -1  13   1
M  END
>  <UniqueID>  (77) 
71

>  <SMILES>  (77) 
O=C([N-]c1ccccc1N1CC[NH2+]CC1)c1ccc(Oc2ccccc2)cc1

>  <Energy>  (77) 
77.03603842059896

>  <Genealogy>  (77) 
O=C([N-]c1ccccc1N1CC[NH2+]CC1)c1ccc(Oc2ccccc2)cc1 (protonated)
O=C([N-]c1ccccc1N1CC[NH2+]CC1)c1ccc(Oc2ccccc2)cc1 (3D coordinates assigned)
O=C([N-]c1ccccc1N1CC[NH2+]CC1)c1ccc(Oc2ccccc2)cc1 (nonaromatic ring conformer: 77.03603842059896 kcal/mol)

>  <smiles>  (77) 
O=C(Nc1ccccc1N1CCNCC1)c1ccc(Oc2ccccc2)cc1

>  <score_type>  (77) 
oracle

>  <origin>  (77) 
adg

>  <m_score__min__energy>  (77) 
-7.79

>  <m_primary>  (77) 
energy

$$$$
77:0
     RDKit          3D

 23 24  0  0  0  0  0  0  0  0999 V2000
   57.0440   31.8010   44.7750 N   0  0  0  0  0  0  0  0  0  0  0  0
   57.0330   30.7010   45.1330 C   0  0  0  0  0  0  0  0  0  0  0  0
   57.0190   29.3260   45.5800 C   0  0  0  0  0  0  0  0  0  0  0  0
   55.9390   28.5020   45.2370 C   0  0  0  0  0  0  0  0  0  0  0  0
   54.8980   28.9890   44.4520 O   0  0  0  0  0  0  0  0  0  0  0  0
   55.8960   27.2170   45.6700 N   0  0  0  0  0  0  0  0  0  0  0  0
   56.8770   26.6820   46.4410 C   0  0  0  0  0  0  0  0  0  0  0  0
   56.7820   25.4800   46.8100 O   0  0  0  0  0  0  0  0  0  0  0  0
   57.9840   27.4610   46.8160 C   0  0  0  0  0  0  0  0  0  0  0  0
   59.0380   26.8710   47.6140 C   0  0  0  0  0  0  0  0  0  0  0  0
   59.8810   26.3990   48.2520 N   0  0  0  0  0  0  0  0  0  0  0  0
   58.0600   28.8040   46.3820 C   0  0  0  0  0  0  0  0  0  0  0  0
   59.2170   29.6540   46.7610 C   0  0  0  0  0  0  0  0  0  0  0  0
   60.4310   29.5490   46.0660 C   0  0  0  0  0  0  0  0  0  0  0  0
   61.5190   30.3510   46.4250 C   0  0  0  0  0  0  0  0  0  0  0  0
   61.4020   31.2620   47.4790 C   0  0  0  0  0  0  0  0  0  0  0  0
   62.8890   32.3570   47.9670 Br  0  0  0  0  0  0  0  0  0  0  0  0
   60.1930   31.3720   48.1750 C   0  0  0  0  0  0  0  0  0  0  0  0
   59.1040   30.5720   47.8190 C   0  0  0  0  0  0  0  0  0  0  0  0
   60.5275   28.8336   45.2360 H   0  0  0  0  0  0  0  0  0  0  0  0
   62.4688   30.2648   45.8769 H   0  0  0  0  0  0  0  0  0  0  0  0
   60.0997   32.0894   49.0037 H   0  0  0  0  0  0  0  0  0  0  0  0
   58.1553   30.6611   48.3686 H   0  0  0  0  0  0  0  0  0  0  0  0
  1  2  3  0
  2  3  1  0
  3  4  2  0
  4  5  1  0
  4  6  1  0
  6  7  1  0
  7  8  2  0
  7  9  1  0
  9 10  1  0
 10 11  3  0
  9 12  2  0
 12 13  1  0
 13 14  2  0
 14 15  1  0
 15 16  2  0
 16 17  1  0
 16 18  1  0
 18 19  2  0
 12  3  1  0
 19 13  1  0
 14 20  1  0
 15 21  1  0
 18 22  1  0
 19 23  1  0
M  CHG  2   5  -1   6  -1
M  END
>  <UniqueID>  (78) 
72

>  <SMILES>  (78) 
N#Cc1c([O-])[n-]c(=O)c(C#N)c1-c1ccc(Br)cc1

>  <Energy>  (78) 
34.284937121390875

>  <Genealogy>  (78) 
N#Cc1c([O-])[n-]c(=O)c(C#N)c1-c1ccc(Br)cc1 (protonated)
N#Cc1c([O-])[n-]c(=O)c(C#N)c1-c1ccc(Br)cc1 (3D coordinates assigned)
N#Cc1c([O-])[n-]c(=O)c(C#N)c1-c1ccc(Br)cc1 (optimized conformer: 34.284937121390875 kcal/mol)

>  <smiles>  (78) 
N#Cc1c(O)[nH]c(=O)c(C#N)c1-c1ccc(Br)cc1

>  <score_type>  (78) 
oracle

>  <origin>  (78) 
adg

>  <m_score__min__energy>  (78) 
-12.75

>  <m_primary>  (78) 
energy

$$$$
78:0
     RDKit          3D

 47 49  0  0  0  0  0  0  0  0999 V2000
   58.1440   29.7970   50.1990 O   0  0  0  0  0  0  0  0  0  0  0  0
   59.0250   30.6990   50.1910 C   0  0  0  0  0  0  0  0  0  0  0  0
   58.6180   32.1350   50.2740 C   0  0  0  0  0  0  0  0  0  0  0  0
   59.0890   32.8870   49.0570 C   0  0  0  0  0  0  0  0  0  0  0  0
   58.6090   32.5220   47.7870 C   0  0  0  0  0  0  0  0  0  0  0  0
   59.0350   33.2070   46.6370 C   0  0  0  0  0  0  0  0  0  0  0  0
   58.5260   32.7910   45.2800 C   0  0  0  0  0  0  0  0  0  0  0  0
   57.0090   32.9910   45.1490 C   0  0  0  0  0  0  0  0  0  0  0  0
   56.3320   31.7240   44.8700 N   0  0  0  0  0  0  0  0  0  0  0  0
   56.9000   30.5840   44.2110 C   0  0  0  0  0  0  0  0  0  0  0  0
   57.5140   30.7570   43.1270 O   0  0  0  0  0  0  0  0  0  0  0  0
   56.7850   29.2170   44.7470 C   0  0  0  0  0  0  0  0  0  0  0  0
   57.8310   28.3380   44.9680 C   0  0  0  0  0  0  0  0  0  0  0  0
   57.2770   27.2130   45.5370 C   0  0  0  0  0  0  0  0  0  0  0  0
   55.9290   27.4750   45.6380 C   0  0  0  0  0  0  0  0  0  0  0  0
   54.9910   26.5980   46.1670 O   0  0  0  0  0  0  0  0  0  0  0  0
   55.6150   28.6980   45.1750 N   0  0  0  0  0  0  0  0  0  0  0  0
   59.9570   34.2550   46.7630 C   0  0  0  0  0  0  0  0  0  0  0  0
   60.4550   34.6080   48.0200 C   0  0  0  0  0  0  0  0  0  0  0  0
   60.0320   33.9260   49.1640 C   0  0  0  0  0  0  0  0  0  0  0  0
   60.5540   34.2870   50.4030 O   0  0  0  0  0  0  0  0  0  0  0  0
   60.4130   30.3600   50.0890 N   0  0  0  0  0  0  0  0  0  0  0  0
   61.1140   30.1970   48.8210 C   0  0  0  0  0  0  0  0  0  0  0  0
   62.1230   31.2960   48.6260 C   0  0  0  0  0  0  0  0  0  0  0  0
   62.8000   31.8490   49.7270 C   0  0  0  0  0  0  0  0  0  0  0  0
   63.7360   32.8710   49.5370 C   0  0  0  0  0  0  0  0  0  0  0  0
   63.9980   33.3510   48.2520 C   0  0  0  0  0  0  0  0  0  0  0  0
   63.3260   32.8120   47.1530 C   0  0  0  0  0  0  0  0  0  0  0  0
   62.3910   31.7880   47.3370 C   0  0  0  0  0  0  0  0  0  0  0  0
   57.5216   32.1976   50.3366 H   0  0  0  0  0  0  0  0  0  0  0  0
   59.0747   32.5835   51.1686 H   0  0  0  0  0  0  0  0  0  0  0  0
   57.8931   31.6922   47.6930 H   0  0  0  0  0  0  0  0  0  0  0  0
   59.0315   33.3936   44.5110 H   0  0  0  0  0  0  0  0  0  0  0  0
   58.7402   31.7199   45.1503 H   0  0  0  0  0  0  0  0  0  0  0  0
   56.6191   33.4070   46.0897 H   0  0  0  0  0  0  0  0  0  0  0  0
   56.8187   33.6800   44.3129 H   0  0  0  0  0  0  0  0  0  0  0  0
   58.8931   28.5048   44.7355 H   0  0  0  0  0  0  0  0  0  0  0  0
   57.8015   26.2969   45.8461 H   0  0  0  0  0  0  0  0  0  0  0  0
   60.2900   34.8020   45.8686 H   0  0  0  0  0  0  0  0  0  0  0  0
   61.1838   35.4270   48.1095 H   0  0  0  0  0  0  0  0  0  0  0  0
   61.6318   29.2265   48.8168 H   0  0  0  0  0  0  0  0  0  0  0  0
   60.3800   30.2415   48.0029 H   0  0  0  0  0  0  0  0  0  0  0  0
   62.5930   31.4768   50.7412 H   0  0  0  0  0  0  0  0  0  0  0  0
   64.2666   33.2973   50.4012 H   0  0  0  0  0  0  0  0  0  0  0  0
   64.7346   34.1547   48.1054 H   0  0  0  0  0  0  0  0  0  0  0  0
   63.5321   33.1929   46.1418 H   0  0  0  0  0  0  0  0  0  0  0  0
   61.8632   31.3660   46.4691 H   0  0  0  0  0  0  0  0  0  0  0  0
  1  2  2  0
  2  3  1  0
  3  4  1  0
  4  5  2  0
  5  6  1  0
  6  7  1  0
  7  8  1  0
  8  9  1  0
  9 10  1  0
 10 11  2  0
 10 12  1  0
 12 13  2  0
 13 14  1  0
 14 15  2  0
 15 16  1  0
 15 17  1  0
  6 18  2  0
 18 19  1  0
 19 20  2  0
 20 21  1  0
  2 22  1  0
 22 23  1  0
 23 24  1  0
 24 25  2  0
 25 26  1  0
 26 27  2  0
 27 28  1  0
 28 29  2  0
 20  4  1  0
 29 24  1  0
 17 12  1  0
  3 30  1  0
  3 31  1  0
  5 32  1  0
  7 33  1  0
  7 34  1  0
  8 35  1  0
  8 36  1  0
 13 37  1  0
 14 38  1  0
 18 39  1  0
 19 40  1  0
 23 41  1  0
 23 42  1  0
 25 43  1  0
 26 44  1  0
 27 45  1  0
 28 46  1  0
 29 47  1  0
M  CHG  5   9  -1  16  -1  17  -1  21  -1  22  -1
M  END
>  <UniqueID>  (79) 
73

>  <SMILES>  (79) 
O=C(Cc1cc(CC[N-]C(=O)c2ccc([O-])[n-]2)ccc1[O-])[N-]Cc1ccccc1

>  <Energy>  (79) 
67.30286277908208

>  <Genealogy>  (79) 
O=C(Cc1cc(CC[N-]C(=O)c2ccc([O-])[n-]2)ccc1[O-])[N-]Cc1ccccc1 (protonated)
O=C(Cc1cc(CC[N-]C(=O)c2ccc([O-])[n-]2)ccc1[O-])[N-]Cc1ccccc1 (3D coordinates assigned)
O=C(Cc1cc(CC[N-]C(=O)c2ccc([O-])[n-]2)ccc1[O-])[N-]Cc1ccccc1 (optimized conformer: 67.30286277908208 kcal/mol)

>  <smiles>  (79) 
O=C(Cc1cc(CCNC(=O)c2ccc(O)[nH]2)ccc1O)NCc1ccccc1

>  <score_type>  (79) 
oracle

>  <origin>  (79) 
adg

>  <m_score__min__energy>  (79) 
-16.989999999999998

>  <m_primary>  (79) 
energy

$$$$
79:0
     RDKit          3D

 47 50  0  0  0  0  0  0  0  0999 V2000
   57.7240   31.7340   43.1250 C   0  0  0  0  0  0  0  0  0  0  0  0
   57.6530   31.3240   44.4850 O   0  0  0  0  0  0  0  0  0  0  0  0
   57.3750   30.0230   44.9490 C   0  0  0  0  0  0  0  0  0  0  0  0
   58.4220   29.3000   45.5710 C   0  0  0  0  0  0  0  0  0  0  0  0
   59.7670   29.9850   45.7340 C   0  0  0  0  0  0  0  0  0  0  0  0
   59.8670   30.5900   47.1030 C   0  0  0  0  0  0  0  0  0  0  0  0
   59.7920   29.8460   48.1200 O   0  0  0  0  0  0  0  0  0  0  0  0
   60.1420   31.9910   47.2640 N   0  0  0  0  0  0  0  0  0  0  0  0
   59.4040   32.9650   46.4450 C   0  0  0  0  0  0  0  0  0  0  0  0
   59.1670   34.2490   47.2430 C   0  0  0  0  0  0  0  0  0  0  0  0
   60.3880   34.7200   47.8120 O   0  0  0  0  0  0  0  0  0  0  0  0
   61.3430   33.8420   48.3340 C   0  0  0  0  0  0  0  0  0  0  0  0
   62.4170   34.3440   49.0750 C   0  0  0  0  0  0  0  0  0  0  0  0
   63.3890   33.4740   49.5800 C   0  0  0  0  0  0  0  0  0  0  0  0
   64.4320   33.9660   50.2920 F   0  0  0  0  0  0  0  0  0  0  0  0
   63.2910   32.1010   49.3370 C   0  0  0  0  0  0  0  0  0  0  0  0
   64.2420   31.2580   49.8140 F   0  0  0  0  0  0  0  0  0  0  0  0
   62.2200   31.5930   48.5940 C   0  0  0  0  0  0  0  0  0  0  0  0
   61.2320   32.4610   48.0880 C   0  0  0  0  0  0  0  0  0  0  0  0
   58.2000   27.9520   45.9650 C   0  0  0  0  0  0  0  0  0  0  0  0
   59.2130   27.1250   46.4980 C   0  0  0  0  0  0  0  0  0  0  0  0
   58.9280   25.8190   46.9060 C   0  0  0  0  0  0  0  0  0  0  0  0
   57.6300   25.2970   46.7790 C   0  0  0  0  0  0  0  0  0  0  0  0
   57.2890   23.9980   47.1920 O   0  0  0  0  0  0  0  0  0  0  0  0
   56.2280   23.2150   46.6490 C   0  0  0  0  0  0  0  0  0  0  0  0
   56.3020   23.2530   45.2700 F   0  0  0  0  0  0  0  0  0  0  0  0
   55.0060   23.7300   47.0430 F   0  0  0  0  0  0  0  0  0  0  0  0
   56.3420   21.9000   47.0640 F   0  0  0  0  0  0  0  0  0  0  0  0
   56.6290   26.0950   46.2170 C   0  0  0  0  0  0  0  0  0  0  0  0
   56.9040   27.4050   45.8080 C   0  0  0  0  0  0  0  0  0  0  0  0
   55.9140   28.1450   45.2510 N   0  0  0  0  0  0  0  0  0  0  0  0
   56.1070   29.4140   44.8170 C   0  0  0  0  0  0  0  0  0  0  0  0
   55.1360   30.0310   44.3100 O   0  0  0  0  0  0  0  0  0  0  0  0
   57.9115   32.8169   43.0778 H   0  0  0  0  0  0  0  0  0  0  0  0
   58.5427   31.1979   42.6227 H   0  0  0  0  0  0  0  0  0  0  0  0
   56.7727   31.5044   42.6227 H   0  0  0  0  0  0  0  0  0  0  0  0
   60.5713   29.2464   45.6016 H   0  0  0  0  0  0  0  0  0  0  0  0
   59.8642   30.7785   44.9785 H   0  0  0  0  0  0  0  0  0  0  0  0
   59.9887   33.1995   45.5432 H   0  0  0  0  0  0  0  0  0  0  0  0
   58.4332   32.5337   46.1594 H   0  0  0  0  0  0  0  0  0  0  0  0
   58.7590   35.0205   46.5734 H   0  0  0  0  0  0  0  0  0  0  0  0
   58.4567   34.0354   48.0553 H   0  0  0  0  0  0  0  0  0  0  0  0
   62.4978   35.4251   49.2612 H   0  0  0  0  0  0  0  0  0  0  0  0
   62.1489   30.5119   48.4041 H   0  0  0  0  0  0  0  0  0  0  0  0
   60.2379   27.5131   46.5931 H   0  0  0  0  0  0  0  0  0  0  0  0
   59.7275   25.1940   47.3305 H   0  0  0  0  0  0  0  0  0  0  0  0
   55.6141   25.6888   46.0949 H   0  0  0  0  0  0  0  0  0  0  0  0
  1  2  1  0
  2  3  1  0
  3  4  2  0
  4  5  1  0
  5  6  1  0
  6  7  2  0
  6  8  1  0
  8  9  1  0
  9 10  1  0
 10 11  1  0
 11 12  1  0
 12 13  2  0
 13 14  1  0
 14 15  1  0
 14 16  2  0
 16 17  1  0
 16 18  1  0
 18 19  2  0
  4 20  1  0
 20 21  2  0
 21 22  1  0
 22 23  2  0
 23 24  1  0
 24 25  1  0
 25 26  1  0
 25 27  1  0
 25 28  1  0
 23 29  1  0
 29 30  2  0
 30 31  1  0
 31 32  1  0
 32 33  2  0
 32  3  1  0
 19  8  1  0
 30 20  1  0
 19 12  1  0
  1 34  1  0
  1 35  1  0
  1 36  1  0
  5 37  1  0
  5 38  1  0
  9 39  1  0
  9 40  1  0
 10 41  1  0
 10 42  1  0
 13 43  1  0
 18 44  1  0
 21 45  1  0
 22 46  1  0
 29 47  1  0
M  CHG  1  31  -1
M  END
>  <UniqueID>  (80) 
74

>  <SMILES>  (80) 
COc1c(CC(=O)N2CCOc3cc(F)c(F)cc32)c2ccc(OC(F)(F)F)cc2[n-]c1=O

>  <Energy>  (80) 
64.55210781760476

>  <Genealogy>  (80) 
COc1c(CC(=O)N2CCOc3cc(F)c(F)cc32)c2ccc(OC(F)(F)F)cc2[n-]c1=O (protonated)
COc1c(CC(=O)N2CCOc3cc(F)c(F)cc32)c2ccc(OC(F)(F)F)cc2[n-]c1=O (3D coordinates assigned)
COc1c(CC(=O)N2CCOc3cc(F)c(F)cc32)c2ccc(OC(F)(F)F)cc2[n-]c1=O (nonaromatic ring conformer: 64.55210781760476 kcal/mol)

>  <smiles>  (80) 
COc1c(CC(=O)N2CCOc3cc(F)c(F)cc32)c2ccc(OC(F)(F)F)cc2[nH]c1=O

>  <score_type>  (80) 
oracle

>  <origin>  (80) 
adg

>  <m_score__min__energy>  (80) 
-8.9900000000000002

>  <m_primary>  (80) 
energy

$$$$
80:0
     RDKit          3D

 21 22  0  0  0  0  0  0  0  0999 V2000
   55.8940   28.2530   44.0590 H   0  0  0  0  0  0  0  0  0  0  0  0
   55.8980   28.7240   44.9910 N   0  0  0  0  0  0  0  0  0  0  0  0
   56.6760   29.7270   45.2320 C   0  0  0  0  0  0  0  0  0  0  0  0
   56.4140   30.9770   44.7820 N   0  0  0  0  0  0  0  0  0  0  0  0
   57.3900   31.8350   45.1760 C   0  0  0  0  0  0  0  0  0  0  0  0
   57.4150   33.1940   44.8670 C   0  0  0  0  0  0  0  0  0  0  0  0
   56.6110   33.6465   44.2679 H   0  0  0  0  0  0  0  0  0  0  0  0
   58.4850   33.9760   45.3340 C   0  0  0  0  0  0  0  0  0  0  0  0
   58.5229   35.0481   45.0909 H   0  0  0  0  0  0  0  0  0  0  0  0
   59.5170   33.3960   46.1160 C   0  0  0  0  0  0  0  0  0  0  0  0
   60.6060   34.1430   46.5900 O   0  0  0  0  0  0  0  0  0  0  0  0
   61.8880   33.6370   46.8380 C   0  0  0  0  0  0  0  0  0  0  0  0
   62.8310   33.8250   46.0220 O   0  0  0  0  0  0  0  0  0  0  0  0
   62.1690   32.9690   48.1410 C   0  0  0  0  0  0  0  0  0  0  0  0
   61.8867   33.6402   48.9655 H   0  0  0  0  0  0  0  0  0  0  0  0
   61.5859   32.0388   48.2094 H   0  0  0  0  0  0  0  0  0  0  0  0
   63.2417   32.7353   48.2094 H   0  0  0  0  0  0  0  0  0  0  0  0
   59.4800   32.0190   46.4010 C   0  0  0  0  0  0  0  0  0  0  0  0
   60.2817   31.5450   46.9863 H   0  0  0  0  0  0  0  0  0  0  0  0
   58.4080   31.2690   45.9270 C   0  0  0  0  0  0  0  0  0  0  0  0
   58.1110   29.6270   46.1280 S   0  0  0  0  0  0  0  0  0  0  0  0
  1  2  1  0
  2  3  2  0
  3  4  1  0
  4  5  1  0
  5  6  2  0
  6  7  1  0
  6  8  1  0
  8  9  1  0
  8 10  2  0
 10 11  1  0
 11 12  1  0
 12 13  2  0
 12 14  1  0
 14 15  1  0
 14 16  1  0
 14 17  1  0
 10 18  1  0
 18 19  1  0
 18 20  2  0
 20 21  1  0
 21  3  1  0
 20  5  1  0
M  CHG  1   4  -1
M  END
>  <UniqueID>  (81) 
75

>  <SMILES>  (81) 
[H]/N=c1/[n-]c2ccc(OC(C)=O)cc2s1

>  <Energy>  (81) 
58.679305525101135

>  <Genealogy>  (81) 
CC(=O)Oc1ccc2[n-]c(=N)sc2c1 (protonated)
[H]/N=c1/[n-]c2ccc(OC(C)=O)cc2s1 (cis-trans isomerization)
[H]/N=c1/[n-]c2ccc(OC(C)=O)cc2s1 (3D coordinates assigned)
[H]/N=c1/[n-]c2ccc(OC(C)=O)cc2s1 (optimized conformer: 58.679305525101135 kcal/mol)

>  <smiles>  (81) 
CC(=O)Oc1ccc2[nH]c(=N)sc2c1

>  <score_type>  (81) 
oracle

>  <origin>  (81) 
adg

>  <m_score__min__energy>  (81) 
-7.3399999999999999

>  <m_primary>  (81) 
energy

$$$$
81:0
     RDKit          3D

 42 44  0  0  0  0  0  0  0  0999 V2000
   59.1150   26.6130   47.0950 C   0  0  0  0  0  0  0  0  0  0  0  0
   58.3870   27.6790   46.3290 C   0  0  0  0  0  0  0  0  0  0  0  0
   59.0460   28.8470   46.0970 N   0  0  0  0  0  0  0  0  0  0  0  0
   58.4880   29.8920   45.4340 C   0  0  0  0  0  0  0  0  0  0  0  0
   59.2540   31.0480   45.2290 O   0  0  0  0  0  0  0  0  0  0  0  0
   59.2090   32.2040   46.0240 C   0  0  0  0  0  0  0  0  0  0  0  0
   59.3360   33.4830   45.4530 C   0  0  0  0  0  0  0  0  0  0  0  0
   59.2810   34.6240   46.2540 C   0  0  0  0  0  0  0  0  0  0  0  0
   59.0840   34.5020   47.6290 C   0  0  0  0  0  0  0  0  0  0  0  0
   58.9350   33.2400   48.2060 C   0  0  0  0  0  0  0  0  0  0  0  0
   59.0000   32.0790   47.4120 C   0  0  0  0  0  0  0  0  0  0  0  0
   58.8660   30.7710   48.0000 N   0  0  0  0  0  0  0  0  0  0  0  0
   59.6330   30.3210   49.4920 S   0  0  0  0  0  0  0  0  0  0  0  0
   58.7800   30.7790   50.6400 O   0  0  0  0  0  0  0  0  0  0  0  0
   59.7730   28.8260   49.5480 O   0  0  0  0  0  0  0  0  0  0  0  0
   61.2380   31.0430   49.5770 C   0  0  0  0  0  0  0  0  0  0  0  0
   61.9720   31.0070   50.7710 C   0  0  0  0  0  0  0  0  0  0  0  0
   63.2290   31.6130   50.8400 C   0  0  0  0  0  0  0  0  0  0  0  0
   63.7630   32.2590   49.7200 C   0  0  0  0  0  0  0  0  0  0  0  0
   65.3440   33.0200   49.8490 Cl  0  0  0  0  0  0  0  0  0  0  0  0
   63.0330   32.2950   48.5200 C   0  0  0  0  0  0  0  0  0  0  0  0
   63.6600   33.1060   47.0920 Cl  0  0  0  0  0  0  0  0  0  0  0  0
   61.7770   31.6820   48.4520 C   0  0  0  0  0  0  0  0  0  0  0  0
   57.1870   29.7700   44.9360 C   0  0  0  0  0  0  0  0  0  0  0  0
   56.4750   28.5920   45.1540 C   0  0  0  0  0  0  0  0  0  0  0  0
   57.0550   27.5190   45.8560 C   0  0  0  0  0  0  0  0  0  0  0  0
   56.2450   26.2850   46.0590 C   0  0  0  0  0  0  0  0  0  0  0  0
   56.7870   25.1750   46.3000 O   0  0  0  0  0  0  0  0  0  0  0  0
   54.8580   26.3410   45.9750 O   0  0  0  0  0  0  0  0  0  0  0  0
   58.9944   26.7897   48.1740 H   0  0  0  0  0  0  0  0  0  0  0  0
   58.7004   25.6276   46.8362 H   0  0  0  0  0  0  0  0  0  0  0  0
   60.1838   26.6406   46.8362 H   0  0  0  0  0  0  0  0  0  0  0  0
   59.4797   33.5845   44.3672 H   0  0  0  0  0  0  0  0  0  0  0  0
   59.3931   35.6200   45.8008 H   0  0  0  0  0  0  0  0  0  0  0  0
   59.0460   35.4021   48.2601 H   0  0  0  0  0  0  0  0  0  0  0  0
   58.7655   33.1517   49.2893 H   0  0  0  0  0  0  0  0  0  0  0  0
   58.4180   30.0020   47.4540 H   0  0  0  0  0  0  0  0  0  0  0  0
   61.5574   30.5007   51.6552 H   0  0  0  0  0  0  0  0  0  0  0  0
   63.8012   31.5820   51.7790 H   0  0  0  0  0  0  0  0  0  0  0  0
   61.2093   31.7017   47.5100 H   0  0  0  0  0  0  0  0  0  0  0  0
   56.7286   30.5984   44.3759 H   0  0  0  0  0  0  0  0  0  0  0  0
   55.4473   28.4998   44.7728 H   0  0  0  0  0  0  0  0  0  0  0  0
  1  2  1  0
  2  3  2  0
  3  4  1  0
  4  5  1  0
  5  6  1  0
  6  7  2  0
  7  8  1  0
  8  9  2  0
  9 10  1  0
 10 11  2  0
 11 12  1  0
 12 13  1  0
 13 14  2  0
 13 15  2  0
 13 16  1  0
 16 17  2  0
 17 18  1  0
 18 19  2  0
 19 20  1  0
 19 21  1  0
 21 22  1  0
 21 23  2  0
  4 24  2  0
 24 25  1  0
 25 26  2  0
 26 27  1  0
 27 28  2  0
 27 29  1  0
 26  2  1  0
 11  6  1  0
 23 16  1  0
  1 30  1  0
  1 31  1  0
  1 32  1  0
  7 33  1  0
  8 34  1  0
  9 35  1  0
 10 36  1  0
 12 37  1  0
 17 38  1  0
 18 39  1  0
 23 40  1  0
 24 41  1  0
 25 42  1  0
M  CHG  1  29  -1
M  END
>  <UniqueID>  (82) 
76

>  <SMILES>  (82) 
Cc1nc(Oc2ccccc2NS(=O)(=O)c2ccc(Cl)c(Cl)c2)ccc1C(=O)[O-]

>  <Energy>  (82) 
59.066624843552425

>  <Genealogy>  (82) 
Cc1nc(Oc2ccccc2NS(=O)(=O)c2ccc(Cl)c(Cl)c2)ccc1C(=O)[O-] (protonated)
Cc1nc(Oc2ccccc2NS(=O)(=O)c2ccc(Cl)c(Cl)c2)ccc1C(=O)[O-] (3D coordinates assigned)
Cc1nc(Oc2ccccc2NS(=O)(=O)c2ccc(Cl)c(Cl)c2)ccc1C(=O)[O-] (optimized conformer: 59.066624843552425 kcal/mol)

>  <smiles>  (82) 
Cc1nc(Oc2ccccc2NS(=O)(=O)c2ccc(Cl)c(Cl)c2)ccc1C(=O)O

>  <score_type>  (82) 
oracle

>  <origin>  (82) 
adg

>  <m_score__min__energy>  (82) 
-12.42

>  <m_primary>  (82) 
energy

$$$$
82:0
     RDKit          3D

 27 29  0  0  0  0  0  0  0  0999 V2000
   55.0940   26.1910   45.9970 N   0  0  0  0  0  0  0  0  0  0  0  0
   56.8190   26.1760   46.0940 S   0  0  0  0  0  0  0  0  0  0  0  0
   57.3790   25.4390   44.9100 O   0  0  0  0  0  0  0  0  0  0  0  0
   57.2470   25.4680   47.3490 O   0  0  0  0  0  0  0  0  0  0  0  0
   57.4200   27.8320   46.1090 C   0  0  0  0  0  0  0  0  0  0  0  0
   58.2470   28.2730   47.1450 C   0  0  0  0  0  0  0  0  0  0  0  0
   58.7400   29.5810   47.1500 C   0  0  0  0  0  0  0  0  0  0  0  0
   58.4370   30.4690   46.0960 C   0  0  0  0  0  0  0  0  0  0  0  0
   57.5460   30.0340   45.0840 C   0  0  0  0  0  0  0  0  0  0  0  0
   57.0730   28.7120   45.0820 C   0  0  0  0  0  0  0  0  0  0  0  0
   57.1300   30.9620   43.9690 C   0  0  0  0  0  0  0  0  0  0  0  0
   57.2090   32.3590   44.3870 N   0  0  0  0  0  0  0  0  0  0  0  0
   58.2630   32.8040   45.2440 C   0  0  0  0  0  0  0  0  0  0  0  0
   58.6200   34.1140   45.2430 N   0  0  0  0  0  0  0  0  0  0  0  0
   59.6610   34.5560   45.9900 C   0  0  0  0  0  0  0  0  0  0  0  0
   59.9690   35.7760   45.9820 O   0  0  0  0  0  0  0  0  0  0  0  0
   60.3830   33.6800   46.7310 N   0  0  0  0  0  0  0  0  0  0  0  0
   60.0670   32.3590   46.7730 C   0  0  0  0  0  0  0  0  0  0  0  0
   60.8100   31.5830   47.4270 O   0  0  0  0  0  0  0  0  0  0  0  0
   58.9420   31.8800   46.0590 C   0  0  0  0  0  0  0  0  0  0  0  0
   54.7720   27.0840   46.4340 H   0  0  0  0  0  0  0  0  0  0  0  0
   58.5120   27.5862   47.9624 H   0  0  0  0  0  0  0  0  0  0  0  0
   59.3708   29.9217   47.9843 H   0  0  0  0  0  0  0  0  0  0  0  0
   56.4234   28.3666   44.2642 H   0  0  0  0  0  0  0  0  0  0  0  0
   57.7952   30.8074   43.1066 H   0  0  0  0  0  0  0  0  0  0  0  0
   56.0873   30.7375   43.7000 H   0  0  0  0  0  0  0  0  0  0  0  0
   56.6590   33.0690   43.8530 H   0  0  0  0  0  0  0  0  0  0  0  0
  1  2  1  0
  2  3  2  0
  2  4  2  0
  2  5  1  0
  5  6  2  0
  6  7  1  0
  7  8  2  0
  8  9  1  0
  9 10  2  0
  9 11  1  0
 11 12  1  0
 12 13  1  0
 13 14  1  0
 14 15  1  0
 15 16  2  0
 15 17  1  0
 17 18  1  0
 18 19  2  0
 18 20  1  0
 10  5  1  0
 20 13  2  0
 20  8  1  0
  1 21  1  0
  6 22  1  0
  7 23  1  0
 10 24  1  0
 11 25  1  0
 11 26  1  0
 12 27  1  0
M  CHG  3   1  -1  14  -1  17  -1
M  END
>  <UniqueID>  (83) 
77

>  <SMILES>  (83) 
[NH-]S(=O)(=O)c1ccc2c(c1)CNc1[n-]c(=O)[n-]c(=O)c1-2

>  <Energy>  (83) 
40.08837202223897

>  <Genealogy>  (83) 
[NH-]S(=O)(=O)c1ccc2c(c1)CNc1[n-]c(=O)[n-]c(=O)c1-2 (protonated)
[NH-]S(=O)(=O)c1ccc2c(c1)CNc1[n-]c(=O)[n-]c(=O)c1-2 (3D coordinates assigned)
[NH-]S(=O)(=O)c1ccc2c(c1)CNc1[n-]c(=O)[n-]c(=O)c1-2 (nonaromatic ring conformer: 40.08837202223897 kcal/mol)

>  <smiles>  (83) 
NS(=O)(=O)c1ccc2c(c1)CNc1[nH]c(=O)[nH]c(=O)c1-2

>  <score_type>  (83) 
oracle

>  <origin>  (83) 
adg

>  <m_score__min__energy>  (83) 
-11.74

>  <m_primary>  (83) 
energy

$$$$
83:0
     RDKit          3D

 25 26  0  0  0  0  0  0  0  0999 V2000
   59.4122   31.3607   47.5487 H   0  0  0  0  0  0  0  0  0  0  0  0
   58.9230   31.9220   46.7390 C   0  0  0  0  0  0  0  0  0  0  0  0
   57.8620   31.3820   46.0830 N   0  0  0  0  0  0  0  0  0  0  0  0
   57.2250   32.0310   45.0700 C   0  0  0  0  0  0  0  0  0  0  0  0
   56.2160   31.4390   44.4940 N   0  0  0  0  0  0  0  0  0  0  0  0
   56.1480   30.0790   44.0330 C   0  0  0  0  0  0  0  0  0  0  0  0
   56.3820   29.8330   42.8230 O   0  0  0  0  0  0  0  0  0  0  0  0
   55.7900   28.9990   44.9070 N   0  0  0  0  0  0  0  0  0  0  0  0
   56.6820   28.0090   45.4410 C   0  0  0  0  0  0  0  0  0  0  0  0
   58.0740   28.2070   45.4630 C   0  0  0  0  0  0  0  0  0  0  0  0
   58.5006   29.1398   45.0656 H   0  0  0  0  0  0  0  0  0  0  0  0
   58.9190   27.2230   45.9880 C   0  0  0  0  0  0  0  0  0  0  0  0
   60.6560   27.4710   45.9950 Cl  0  0  0  0  0  0  0  0  0  0  0  0
   58.3790   26.0450   46.5120 C   0  0  0  0  0  0  0  0  0  0  0  0
   59.0436   25.2685   46.9188 H   0  0  0  0  0  0  0  0  0  0  0  0
   56.9950   25.8540   46.5190 C   0  0  0  0  0  0  0  0  0  0  0  0
   56.5710   24.9309   46.9410 H   0  0  0  0  0  0  0  0  0  0  0  0
   56.1470   26.8330   45.9910 C   0  0  0  0  0  0  0  0  0  0  0  0
   54.7710   26.6300   46.0040 O   0  0  0  0  0  0  0  0  0  0  0  0
   57.6600   33.3220   44.7060 C   0  0  0  0  0  0  0  0  0  0  0  0
   57.1434   33.8765   43.9087 H   0  0  0  0  0  0  0  0  0  0  0  0
   58.7510   33.8910   45.3650 C   0  0  0  0  0  0  0  0  0  0  0  0
   59.1052   34.8926   45.0798 H   0  0  0  0  0  0  0  0  0  0  0  0
   59.3920   33.1880   46.3860 C   0  0  0  0  0  0  0  0  0  0  0  0
   60.2564   33.6265   46.9062 H   0  0  0  0  0  0  0  0  0  0  0  0
  1  2  1  0
  2  3  1  0
  3  4  1  0
  4  5  2  0
  5  6  1  0
  6  7  2  0
  6  8  1  0
  8  9  1  0
  9 10  2  0
 10 11  1  0
 10 12  1  0
 12 13  1  0
 12 14  2  0
 14 15  1  0
 14 16  1  0
 16 17  1  0
 16 18  2  0
 18 19  1  0
  4 20  1  0
 20 21  1  0
 20 22  2  0
 22 23  1  0
 22 24  1  0
 24 25  1  0
 24  2  2  0
 18  9  1  0
M  CHG  3   3  -1   8  -1  19  -1
M  END
>  <UniqueID>  (84) 
78

>  <SMILES>  (84) 
O=C(/N=c1\cccc[n-]1)[N-]c1cc(Cl)ccc1[O-]

>  <Energy>  (84) 
37.99853843860579

>  <Genealogy>  (84) 
O=C(N=c1cccc[n-]1)[N-]c1cc(Cl)ccc1[O-] (protonated)
O=C(/N=c1\cccc[n-]1)[N-]c1cc(Cl)ccc1[O-] (cis-trans isomerization)
O=C(/N=c1\cccc[n-]1)[N-]c1cc(Cl)ccc1[O-] (3D coordinates assigned)
O=C(/N=c1\cccc[n-]1)[N-]c1cc(Cl)ccc1[O-] (optimized conformer: 37.99853843860579 kcal/mol)

>  <smiles>  (84) 
O=C(N=c1cccc[nH]1)Nc1cc(Cl)ccc1O

>  <score_type>  (84) 
oracle

>  <origin>  (84) 
adg

>  <m_score__min__energy>  (84) 
-13.23

>  <m_primary>  (84) 
energy

$$$$
84:0
     RDKit          3D

 57 60  0  0  0  0  0  0  0  0999 V2000
   57.3920   21.7970   48.5960 N   0  0  0  0  0  0  0  0  0  0  0  0
   56.1770   22.1180   47.4040 S   0  0  0  0  0  0  0  0  0  0  0  0
   54.8260   21.8470   48.0060 O   0  0  0  0  0  0  0  0  0  0  0  0
   56.3740   21.2150   46.2190 O   0  0  0  0  0  0  0  0  0  0  0  0
   56.2820   23.8000   46.8830 C   0  0  0  0  0  0  0  0  0  0  0  0
   55.3090   24.3540   46.0420 C   0  0  0  0  0  0  0  0  0  0  0  0
   55.4160   25.6830   45.6260 C   0  0  0  0  0  0  0  0  0  0  0  0
   56.4930   26.4790   46.0520 C   0  0  0  0  0  0  0  0  0  0  0  0
   56.6440   27.8420   45.6370 N   0  0  0  0  0  0  0  0  0  0  0  0
   57.7930   28.4030   44.4650 S   0  0  0  0  0  0  0  0  0  0  0  0
   59.1570   27.8970   44.8390 O   0  0  0  0  0  0  0  0  0  0  0  0
   57.4320   27.8420   43.1200 O   0  0  0  0  0  0  0  0  0  0  0  0
   57.8360   30.1650   44.4150 C   0  0  0  0  0  0  0  0  0  0  0  0
   57.5240   30.8520   43.2300 C   0  0  0  0  0  0  0  0  0  0  0  0
   57.5470   32.2460   43.2050 C   0  0  0  0  0  0  0  0  0  0  0  0
   57.8910   32.9660   44.3550 C   0  0  0  0  0  0  0  0  0  0  0  0
   58.2290   32.2940   45.5420 C   0  0  0  0  0  0  0  0  0  0  0  0
   58.5920   33.0530   46.7630 C   0  0  0  0  0  0  0  0  0  0  0  0
   58.4500   34.3060   46.7840 O   0  0  0  0  0  0  0  0  0  0  0  0
   59.0700   32.3750   47.9360 N   0  0  0  0  0  0  0  0  0  0  0  0
   59.9900   32.9560   48.8790 C   0  0  0  0  0  0  0  0  0  0  0  0
   61.0450   33.7800   48.4410 C   0  0  0  0  0  0  0  0  0  0  0  0
   61.9840   34.2750   49.3500 C   0  0  0  0  0  0  0  0  0  0  0  0
   61.8880   33.9480   50.7030 C   0  0  0  0  0  0  0  0  0  0  0  0
   60.8550   33.1230   51.1520 C   0  0  0  0  0  0  0  0  0  0  0  0
   59.9010   32.6260   50.2500 C   0  0  0  0  0  0  0  0  0  0  0  0
   58.8530   31.7680   50.7220 N   0  0  0  0  0  0  0  0  0  0  0  0
   58.9050   30.3280   50.4670 C   0  0  0  0  0  0  0  0  0  0  0  0
   58.2450   29.5820   51.6350 C   0  0  0  0  0  0  0  0  0  0  0  0
   56.9540   30.1030   51.9160 O   0  0  0  0  0  0  0  0  0  0  0  0
   57.0590   31.4520   52.3420 C   0  0  0  0  0  0  0  0  0  0  0  0
   57.6020   32.3390   51.2170 C   0  0  0  0  0  0  0  0  0  0  0  0
   58.1880   30.8870   45.5650 C   0  0  0  0  0  0  0  0  0  0  0  0
   57.4480   25.9290   46.9120 C   0  0  0  0  0  0  0  0  0  0  0  0
   57.3490   24.5960   47.3180 C   0  0  0  0  0  0  0  0  0  0  0  0
   57.6780   22.7170   49.0010 H   0  0  0  0  0  0  0  0  0  0  0  0
   54.4586   23.7412   45.7083 H   0  0  0  0  0  0  0  0  0  0  0  0
   54.6516   26.1098   44.9600 H   0  0  0  0  0  0  0  0  0  0  0  0
   57.2615   30.2901   42.3215 H   0  0  0  0  0  0  0  0  0  0  0  0
   57.2939   32.7818   42.2782 H   0  0  0  0  0  0  0  0  0  0  0  0
   57.8968   34.0657   44.3294 H   0  0  0  0  0  0  0  0  0  0  0  0
   58.7180   31.4090   48.1150 H   0  0  0  0  0  0  0  0  0  0  0  0
   61.1305   34.0360   47.3746 H   0  0  0  0  0  0  0  0  0  0  0  0
   62.8000   34.9234   48.9983 H   0  0  0  0  0  0  0  0  0  0  0  0
   62.6271   34.3407   51.4168 H   0  0  0  0  0  0  0  0  0  0  0  0
   60.7883   32.8610   52.2183 H   0  0  0  0  0  0  0  0  0  0  0  0
   58.3674   30.1002   49.5348 H   0  0  0  0  0  0  0  0  0  0  0  0
   59.9531   30.0084   50.3707 H   0  0  0  0  0  0  0  0  0  0  0  0
   58.1528   28.5174   51.3740 H   0  0  0  0  0  0  0  0  0  0  0  0
   58.8734   29.7104   52.5286 H   0  0  0  0  0  0  0  0  0  0  0  0
   56.0637   31.8148   52.6383 H   0  0  0  0  0  0  0  0  0  0  0  0
   57.7538   31.4990   53.1935 H   0  0  0  0  0  0  0  0  0  0  0  0
   56.8689   32.3863   50.3983 H   0  0  0  0  0  0  0  0  0  0  0  0
   57.7828   33.3545   51.5991 H   0  0  0  0  0  0  0  0  0  0  0  0
   58.4341   30.3493   46.4925 H   0  0  0  0  0  0  0  0  0  0  0  0
   58.2823   26.5495   47.2711 H   0  0  0  0  0  0  0  0  0  0  0  0
   58.1138   24.1690   47.9834 H   0  0  0  0  0  0  0  0  0  0  0  0
  1  2  1  0
  2  3  2  0
  2  4  2  0
  2  5  1  0
  5  6  2  0
  6  7  1  0
  7  8  2  0
  8  9  1  0
  9 10  1  0
 10 11  2  0
 10 12  2  0
 10 13  1  0
 13 14  2  0
 14 15  1  0
 15 16  2  0
 16 17  1  0
 17 18  1  0
 18 19  2  0
 18 20  1  0
 20 21  1  0
 21 22  2  0
 22 23  1  0
 23 24  2  0
 24 25  1  0
 25 26  2  0
 26 27  1  0
 27 28  1  0
 28 29  1  0
 29 30  1  0
 30 31  1  0
 31 32  1  0
 17 33  2  0
  8 34  1  0
 34 35  2  0
 35  5  1  0
 33 13  1  0
 26 21  1  0
 32 27  1  0
  1 36  1  0
  6 37  1  0
  7 38  1  0
 14 39  1  0
 15 40  1  0
 16 41  1  0
 20 42  1  0
 22 43  1  0
 23 44  1  0
 24 45  1  0
 25 46  1  0
 28 47  1  0
 28 48  1  0
 29 49  1  0
 29 50  1  0
 31 51  1  0
 31 52  1  0
 32 53  1  0
 32 54  1  0
 33 55  1  0
 34 56  1  0
 35 57  1  0
M  CHG  2   1  -1   9  -1
M  END
>  <UniqueID>  (85) 
79

>  <SMILES>  (85) 
[NH-]S(=O)(=O)c1ccc([N-]S(=O)(=O)c2cccc(C(=O)Nc3ccccc3N3CCOCC3)c2)cc1

>  <Energy>  (85) 
76.4204038919478

>  <Genealogy>  (85) 
[NH-]S(=O)(=O)c1ccc([N-]S(=O)(=O)c2cccc(C(=O)Nc3ccccc3N3CCOCC3)c2)cc1 (protonated)
[NH-]S(=O)(=O)c1ccc([N-]S(=O)(=O)c2cccc(C(=O)Nc3ccccc3N3CCOCC3)c2)cc1 (3D coordinates assigned)
[NH-]S(=O)(=O)c1ccc([N-]S(=O)(=O)c2cccc(C(=O)Nc3ccccc3N3CCOCC3)c2)cc1 (nonaromatic ring conformer: 76.4204038919478 kcal/mol)

>  <smiles>  (85) 
NS(=O)(=O)c1ccc(NS(=O)(=O)c2cccc(C(=O)Nc3ccccc3N3CCOCC3)c2)cc1

>  <score_type>  (85) 
oracle

>  <origin>  (85) 
adg

>  <m_score__min__energy>  (85) 
-13.460000000000001

>  <m_primary>  (85) 
energy

$$$$
85:0
     RDKit          3D

 40 41  0  0  0  0  0  0  0  0999 V2000
   60.7000   30.1580   46.4410 C   0  0  0  0  0  0  0  0  0  0  0  0
   60.0200   30.6020   47.7330 C   0  0  0  0  0  0  0  0  0  0  0  0
   60.1220   32.1180   47.9170 C   0  0  0  0  0  0  0  0  0  0  0  0
   58.4640   32.8830   47.9570 S   0  0  0  0  0  0  0  0  0  0  0  0
   58.1300   32.6200   46.2160 C   0  0  0  0  0  0  0  0  0  0  0  0
   58.3480   33.6180   45.3250 N   0  0  0  0  0  0  0  0  0  0  0  0
   58.1080   33.4330   44.0030 C   0  0  0  0  0  0  0  0  0  0  0  0
   57.6300   32.2050   43.5370 C   0  0  0  0  0  0  0  0  0  0  0  0
   57.4100   32.0160   41.8000 Cl  0  0  0  0  0  0  0  0  0  0  0  0
   57.4010   31.1750   44.4780 C   0  0  0  0  0  0  0  0  0  0  0  0
   56.8900   29.8330   44.1150 C   0  0  0  0  0  0  0  0  0  0  0  0
   57.0630   29.4100   42.9400 O   0  0  0  0  0  0  0  0  0  0  0  0
   56.2920   28.9760   45.0950 N   0  0  0  0  0  0  0  0  0  0  0  0
   56.9100   27.8240   45.6830 C   0  0  0  0  0  0  0  0  0  0  0  0
   58.2920   27.8450   45.8980 C   0  0  0  0  0  0  0  0  0  0  0  0
   58.9350   26.7480   46.4720 C   0  0  0  0  0  0  0  0  0  0  0  0
   58.1990   25.6260   46.8580 C   0  0  0  0  0  0  0  0  0  0  0  0
   56.8030   25.6000   46.6860 C   0  0  0  0  0  0  0  0  0  0  0  0
   56.0080   24.4770   47.0950 N   0  0  0  0  0  0  0  0  0  0  0  0
   56.2740   22.8230   46.6470 S   0  0  0  0  0  0  0  0  0  0  0  0
   57.1820   22.7400   45.1180 C   0  0  0  0  0  0  0  0  0  0  0  0
   57.0830   22.1570   47.7240 O   0  0  0  0  0  0  0  0  0  0  0  0
   54.9600   22.1060   46.5170 O   0  0  0  0  0  0  0  0  0  0  0  0
   56.1590   26.7080   46.1110 C   0  0  0  0  0  0  0  0  0  0  0  0
   54.7720   26.7070   46.0010 O   0  0  0  0  0  0  0  0  0  0  0  0
   57.6690   31.4170   45.7900 N   0  0  0  0  0  0  0  0  0  0  0  0
   61.5986   29.5713   46.6825 H   0  0  0  0  0  0  0  0  0  0  0  0
   60.0048   29.5393   45.8546 H   0  0  0  0  0  0  0  0  0  0  0  0
   60.9868   31.0434   45.8546 H   0  0  0  0  0  0  0  0  0  0  0  0
   58.9587   30.3151   47.6972 H   0  0  0  0  0  0  0  0  0  0  0  0
   60.5246   30.1128   48.5792 H   0  0  0  0  0  0  0  0  0  0  0  0
   60.6402   32.3318   48.8635 H   0  0  0  0  0  0  0  0  0  0  0  0
   60.6823   32.5380   47.0687 H   0  0  0  0  0  0  0  0  0  0  0  0
   58.2905   34.2538   43.2938 H   0  0  0  0  0  0  0  0  0  0  0  0
   58.8758   28.7325   45.6125 H   0  0  0  0  0  0  0  0  0  0  0  0
   60.0247   26.7670   46.6209 H   0  0  0  0  0  0  0  0  0  0  0  0
   58.7129   24.7588   47.2984 H   0  0  0  0  0  0  0  0  0  0  0  0
   58.2561   22.6418   45.3343 H   0  0  0  0  0  0  0  0  0  0  0  0
   56.8437   21.8690   44.5375 H   0  0  0  0  0  0  0  0  0  0  0  0
   57.0073   23.6579   44.5375 H   0  0  0  0  0  0  0  0  0  0  0  0
  1  2  1  0
  2  3  1  0
  3  4  1  0
  4  5  1  0
  5  6  2  0
  6  7  1  0
  7  8  2  0
  8  9  1  0
  8 10  1  0
 10 11  1  0
 11 12  2  0
 11 13  1  0
 13 14  1  0
 14 15  2  0
 15 16  1  0
 16 17  2  0
 17 18  1  0
 18 19  1  0
 19 20  1  0
 20 21  1  0
 20 22  2  0
 20 23  2  0
 18 24  2  0
 24 25  1  0
 10 26  2  0
 26  5  1  0
 24 14  1  0
  1 27  1  0
  1 28  1  0
  1 29  1  0
  2 30  1  0
  2 31  1  0
  3 32  1  0
  3 33  1  0
  7 34  1  0
 15 35  1  0
 16 36  1  0
 17 37  1  0
 21 38  1  0
 21 39  1  0
 21 40  1  0
M  CHG  3  13  -1  19  -1  25  -1
M  END
>  <UniqueID>  (86) 
80

>  <SMILES>  (86) 
CCCSc1ncc(Cl)c(C(=O)[N-]c2cccc([N-]S(C)(=O)=O)c2[O-])n1

>  <Energy>  (86) 
41.45837218785999

>  <Genealogy>  (86) 
CCCSc1ncc(Cl)c(C(=O)[N-]c2cccc([N-]S(C)(=O)=O)c2[O-])n1 (protonated)
CCCSc1ncc(Cl)c(C(=O)[N-]c2cccc([N-]S(C)(=O)=O)c2[O-])n1 (3D coordinates assigned)
CCCSc1ncc(Cl)c(C(=O)[N-]c2cccc([N-]S(C)(=O)=O)c2[O-])n1 (optimized conformer: 41.45837218785999 kcal/mol)

>  <smiles>  (86) 
CCCSc1ncc(Cl)c(C(=O)Nc2cccc(NS(C)(=O)=O)c2O)n1

>  <score_type>  (86) 
oracle

>  <origin>  (86) 
adg

>  <m_score__min__energy>  (86) 
-16.530000000000001

>  <m_primary>  (86) 
energy

$$$$
86:0
     RDKit          3D

 54 57  0  0  0  0  0  0  0  0999 V2000
   59.6350   29.8500   47.5170 C   0  0  0  0  0  0  0  0  0  0  0  0
   58.8450   30.9230   48.0170 O   0  0  0  0  0  0  0  0  0  0  0  0
   59.1020   32.2820   47.7840 C   0  0  0  0  0  0  0  0  0  0  0  0
   59.3280   33.1870   48.8430 C   0  0  0  0  0  0  0  0  0  0  0  0
   59.6500   34.5200   48.5780 C   0  0  0  0  0  0  0  0  0  0  0  0
   59.7580   34.9650   47.2610 C   0  0  0  0  0  0  0  0  0  0  0  0
   59.5280   34.0840   46.2040 C   0  0  0  0  0  0  0  0  0  0  0  0
   59.1710   32.7530   46.4540 C   0  0  0  0  0  0  0  0  0  0  0  0
   58.9510   31.8840   45.3340 N   0  0  0  0  0  0  0  0  0  0  0  0
   57.6680   31.5000   44.8260 C   0  0  0  0  0  0  0  0  0  0  0  0
   56.6240   32.0910   45.2160 O   0  0  0  0  0  0  0  0  0  0  0  0
   57.5490   30.3910   43.8230 C   0  0  0  0  0  0  0  0  0  0  0  0
   57.3630   29.0840   44.4870 N   0  0  0  0  0  0  0  0  0  0  0  0
   56.1330   28.7310   44.9870 C   0  0  0  0  0  0  0  0  0  0  0  0
   55.1460   29.5070   44.8750 O   0  0  0  0  0  0  0  0  0  0  0  0
   55.9620   27.5420   45.6160 N   0  0  0  0  0  0  0  0  0  0  0  0
   56.9870   26.6740   45.7840 C   0  0  0  0  0  0  0  0  0  0  0  0
   56.7700   25.4540   46.4350 C   0  0  0  0  0  0  0  0  0  0  0  0
   57.8340   24.5530   46.6240 C   0  0  0  0  0  0  0  0  0  0  0  0
   57.6470   23.2800   47.2610 N   0  0  0  0  0  0  0  0  0  0  0  0
   56.6480   22.9600   48.2370 C   0  0  0  0  0  0  0  0  0  0  0  0
   56.9720   22.5880   49.3960 O   0  0  0  0  0  0  0  0  0  0  0  0
   55.2040   23.0510   47.8690 C   0  0  0  0  0  0  0  0  0  0  0  0
   54.9240   22.1550   46.7980 O   0  0  0  0  0  0  0  0  0  0  0  0
   55.5040   22.2410   45.5230 C   0  0  0  0  0  0  0  0  0  0  0  0
   56.4810   21.3290   45.0740 C   0  0  0  0  0  0  0  0  0  0  0  0
   57.0300   21.4600   43.7950 C   0  0  0  0  0  0  0  0  0  0  0  0
   56.6110   22.4960   42.9550 C   0  0  0  0  0  0  0  0  0  0  0  0
   55.6410   23.4020   43.3930 C   0  0  0  0  0  0  0  0  0  0  0  0
   55.0900   23.2740   44.6710 C   0  0  0  0  0  0  0  0  0  0  0  0
   59.1020   24.8740   46.1250 C   0  0  0  0  0  0  0  0  0  0  0  0
   59.3240   26.0930   45.4750 C   0  0  0  0  0  0  0  0  0  0  0  0
   58.2660   27.0040   45.3030 C   0  0  0  0  0  0  0  0  0  0  0  0
   58.4360   28.2390   44.6550 C   0  0  0  0  0  0  0  0  0  0  0  0
   59.5780   28.5700   44.2270 O   0  0  0  0  0  0  0  0  0  0  0  0
   60.0546   29.2801   48.3592 H   0  0  0  0  0  0  0  0  0  0  0  0
   59.0073   29.1878   46.9027 H   0  0  0  0  0  0  0  0  0  0  0  0
   60.4538   30.2528   46.9027 H   0  0  0  0  0  0  0  0  0  0  0  0
   59.2500   32.8403   49.8840 H   0  0  0  0  0  0  0  0  0  0  0  0
   59.8187   35.2199   49.4097 H   0  0  0  0  0  0  0  0  0  0  0  0
   60.0249   36.0121   47.0552 H   0  0  0  0  0  0  0  0  0  0  0  0
   59.6277   34.4372   45.1670 H   0  0  0  0  0  0  0  0  0  0  0  0
   56.6848   30.5882   43.1717 H   0  0  0  0  0  0  0  0  0  0  0  0
   58.4783   30.3529   43.2357 H   0  0  0  0  0  0  0  0  0  0  0  0
   55.7642   25.1988   46.8001 H   0  0  0  0  0  0  0  0  0  0  0  0
   54.5872   22.7840   48.7398 H   0  0  0  0  0  0  0  0  0  0  0  0
   54.9726   24.0791   47.5537 H   0  0  0  0  0  0  0  0  0  0  0  0
   56.8122   20.5121   45.7320 H   0  0  0  0  0  0  0  0  0  0  0  0
   57.7928   20.7469   43.4491 H   0  0  0  0  0  0  0  0  0  0  0  0
   57.0447   22.5981   41.9493 H   0  0  0  0  0  0  0  0  0  0  0  0
   55.3110   24.2164   42.7313 H   0  0  0  0  0  0  0  0  0  0  0  0
   54.3261   23.9890   45.0106 H   0  0  0  0  0  0  0  0  0  0  0  0
   59.9313   24.1614   46.2450 H   0  0  0  0  0  0  0  0  0  0  0  0
   60.3275   26.3394   45.0979 H   0  0  0  0  0  0  0  0  0  0  0  0
  1  2  1  0
  2  3  1  0
  3  4  2  0
  4  5  1  0
  5  6  2  0
  6  7  1  0
  7  8  2  0
  8  9  1  0
  9 10  1  0
 10 11  2  0
 10 12  1  0
 12 13  1  0
 13 14  1  0
 14 15  2  0
 14 16  1  0
 16 17  1  0
 17 18  2  0
 18 19  1  0
 19 20  1  0
 20 21  1  0
 21 22  2  0
 21 23  1  0
 23 24  1  0
 24 25  1  0
 25 26  2  0
 26 27  1  0
 27 28  2  0
 28 29  1  0
 29 30  2  0
 19 31  2  0
 31 32  1  0
 32 33  2  0
 33 34  1  0
 34 35  2  0
  8  3  1  0
 34 13  1  0
 33 17  1  0
 30 25  1  0
  1 36  1  0
  1 37  1  0
  1 38  1  0
  4 39  1  0
  5 40  1  0
  6 41  1  0
  7 42  1  0
 12 43  1  0
 12 44  1  0
 18 45  1  0
 23 46  1  0
 23 47  1  0
 26 48  1  0
 27 49  1  0
 28 50  1  0
 29 51  1  0
 30 52  1  0
 31 53  1  0
 32 54  1  0
M  CHG  3   9  -1  16  -1  20  -1
M  END
>  <UniqueID>  (87) 
81

>  <SMILES>  (87) 
COc1ccccc1[N-]C(=O)Cn1c(=O)[n-]c2cc([N-]C(=O)COc3ccccc3)ccc2c1=O

>  <Energy>  (87) 
73.16405880584587

>  <Genealogy>  (87) 
COc1ccccc1[N-]C(=O)Cn1c(=O)[n-]c2cc([N-]C(=O)COc3ccccc3)ccc2c1=O (protonated)
COc1ccccc1[N-]C(=O)Cn1c(=O)[n-]c2cc([N-]C(=O)COc3ccccc3)ccc2c1=O (3D coordinates assigned)
COc1ccccc1[N-]C(=O)Cn1c(=O)[n-]c2cc([N-]C(=O)COc3ccccc3)ccc2c1=O (optimized conformer: 73.16405880584587 kcal/mol)

>  <smiles>  (87) 
COc1ccccc1NC(=O)Cn1c(=O)[nH]c2cc(NC(=O)COc3ccccc3)ccc2c1=O

>  <score_type>  (87) 
oracle

>  <origin>  (87) 
adg

>  <m_score__min__energy>  (87) 
-13.140000000000001

>  <m_primary>  (87) 
energy

$$$$
87:0
     RDKit          3D

 55 58  0  0  0  0  0  0  0  0999 V2000
   56.6043   29.6018   42.8983 H   0  0  0  0  0  0  0  0  0  0  0  0
   56.9300   29.4310   43.9350 C   0  0  0  0  0  0  0  0  0  0  0  0
   56.6770   28.2400   44.5360 N   0  0  0  0  0  0  0  0  0  0  0  0
   57.0750   28.0020   45.8080 C   0  0  0  0  0  0  0  0  0  0  0  0
   56.7930   26.8550   46.3590 N   0  0  0  0  0  0  0  0  0  0  0  0
   56.9500   25.5570   45.7700 C   0  0  0  0  0  0  0  0  0  0  0  0
   58.2100   24.9490   45.6230 C   0  0  0  0  0  0  0  0  0  0  0  0
   59.1127   25.4644   45.9830 H   0  0  0  0  0  0  0  0  0  0  0  0
   58.3190   23.6900   45.0200 C   0  0  0  0  0  0  0  0  0  0  0  0
   59.3055   23.2134   44.9222 H   0  0  0  0  0  0  0  0  0  0  0  0
   57.1780   23.0350   44.5410 C   0  0  0  0  0  0  0  0  0  0  0  0
   57.3400   21.4670   43.7550 S   0  0  0  0  0  0  0  0  0  0  0  0
   56.2740   21.2970   42.7090 O   0  0  0  0  0  0  0  0  0  0  0  0
   58.6850   21.3840   43.0920 O   0  0  0  0  0  0  0  0  0  0  0  0
   57.1910   20.2060   44.9280 N   0  0  0  0  0  0  0  0  0  0  0  0
   58.1440   20.0180   45.3100 H   0  0  0  0  0  0  0  0  0  0  0  0
   56.8860   19.3460   44.4170 H   0  0  0  0  0  0  0  0  0  0  0  0
   55.9250   23.6480   44.6710 C   0  0  0  0  0  0  0  0  0  0  0  0
   55.0241   23.1370   44.3005 H   0  0  0  0  0  0  0  0  0  0  0  0
   55.8150   24.9070   45.2700 C   0  0  0  0  0  0  0  0  0  0  0  0
   54.8299   25.3900   45.3489 H   0  0  0  0  0  0  0  0  0  0  0  0
   57.7220   28.9810   46.5010 N   0  0  0  0  0  0  0  0  0  0  0  0
   57.9990   30.1930   45.9470 C   0  0  0  0  0  0  0  0  0  0  0  0
   58.6860   31.1880   46.7310 N   0  0  0  0  0  0  0  0  0  0  0  0
   58.8590   32.4790   46.3710 C   0  0  0  0  0  0  0  0  0  0  0  0
   58.4809   32.9317   45.4425 H   0  0  0  0  0  0  0  0  0  0  0  0
   59.5820   33.1470   47.3430 C   0  0  0  0  0  0  0  0  0  0  0  0
   59.8740   34.6220   47.3670 C   0  0  0  0  0  0  0  0  0  0  0  0
   60.3690   34.9740   48.6110 F   0  0  0  0  0  0  0  0  0  0  0  0
   60.8090   34.9410   46.4020 F   0  0  0  0  0  0  0  0  0  0  0  0
   58.7200   35.3450   47.1250 F   0  0  0  0  0  0  0  0  0  0  0  0
   59.8730   32.2100   48.3290 C   0  0  0  0  0  0  0  0  0  0  0  0
   60.6380   32.4260   49.6120 C   0  0  0  0  0  0  0  0  0  0  0  0
   60.3595   33.4069   50.0246 H   0  0  0  0  0  0  0  0  0  0  0  0
   60.3753   31.6029   50.2928 H   0  0  0  0  0  0  0  0  0  0  0  0
   62.1050   32.3930   49.4260 N   0  0  0  0  0  0  0  0  0  0  0  0
   62.7560   33.7140   49.2950 C   0  0  0  0  0  0  0  0  0  0  0  0
   62.0652   34.3978   48.7801 H   0  0  0  0  0  0  0  0  0  0  0  0
   62.9975   34.0687   50.3079 H   0  0  0  0  0  0  0  0  0  0  0  0
   64.0620   33.6490   48.5030 C   0  0  0  0  0  0  0  0  0  0  0  0
   64.4794   34.6610   48.3948 H   0  0  0  0  0  0  0  0  0  0  0  0
   64.7889   33.0157   49.0327 H   0  0  0  0  0  0  0  0  0  0  0  0
   63.7730   33.0640   47.1250 C   0  0  0  0  0  0  0  0  0  0  0  0
   63.0801   33.7326   46.5932 H   0  0  0  0  0  0  0  0  0  0  0  0
   64.7280   32.9724   46.5869 H   0  0  0  0  0  0  0  0  0  0  0  0
   63.1410   31.6630   47.2160 C   0  0  0  0  0  0  0  0  0  0  0  0
   62.2851   31.6283   46.5259 H   0  0  0  0  0  0  0  0  0  0  0  0
   63.9359   30.9476   46.9584 H   0  0  0  0  0  0  0  0  0  0  0  0
   62.6400   31.2680   48.6230 C   0  0  0  0  0  0  0  0  0  0  0  0
   61.8418   30.5203   48.5055 H   0  0  0  0  0  0  0  0  0  0  0  0
   63.5144   30.8837   49.1687 H   0  0  0  0  0  0  0  0  0  0  0  0
   59.2860   31.0240   47.9290 C   0  0  0  0  0  0  0  0  0  0  0  0
   59.3051   30.0854   48.5023 H   0  0  0  0  0  0  0  0  0  0  0  0
   57.6010   30.4380   44.6270 C   0  0  0  0  0  0  0  0  0  0  0  0
   57.8133   31.4044   44.1464 H   0  0  0  0  0  0  0  0  0  0  0  0
  1  2  1  0
  2  3  1  0
  3  4  1  0
  4  5  2  0
  5  6  1  0
  6  7  2  0
  7  8  1  0
  7  9  1  0
  9 10  1  0
  9 11  2  0
 11 12  1  0
 12 13  2  0
 12 14  2  0
 12 15  1  0
 15 16  1  0
 15 17  1  0
 11 18  1  0
 18 19  1  0
 18 20  2  0
 20 21  1  0
  4 22  1  0
 22 23  2  0
 23 24  1  0
 24 25  1  0
 25 26  1  0
 25 27  2  0
 27 28  1  0
 28 29  1  0
 28 30  1  0
 28 31  1  0
 27 32  1  0
 32 33  1  0
 33 34  1  0
 33 35  1  0
 33 36  1  0
 36 37  1  0
 37 38  1  0
 37 39  1  0
 37 40  1  0
 40 41  1  0
 40 42  1  0
 40 43  1  0
 43 44  1  0
 43 45  1  0
 43 46  1  0
 46 47  1  0
 46 48  1  0
 46 49  1  0
 49 50  1  0
 49 51  1  0
 32 52  2  0
 52 53  1  0
 23 54  1  0
 54 55  1  0
 54  2  2  0
 20  6  1  0
 52 24  1  0
 49 36  1  0
M  CHG  1   3  -1
M  END
>  <UniqueID>  (88) 
82

>  <SMILES>  (88) 
NS(=O)(=O)c1ccc(/N=c2\nc(-n3cc(CN4CCCCC4)c(C(F)(F)F)c3)cc[n-]2)cc1

>  <Energy>  (88) 
104.06612621571071

>  <Genealogy>  (88) 
NS(=O)(=O)c1ccc(N=c2nc(-n3cc(CN4CCCCC4)c(C(F)(F)F)c3)cc[n-]2)cc1 (protonated)
NS(=O)(=O)c1ccc(/N=c2\nc(-n3cc(CN4CCCCC4)c(C(F)(F)F)c3)cc[n-]2)cc1 (cis-trans isomerization)
NS(=O)(=O)c1ccc(/N=c2\nc(-n3cc(CN4CCCCC4)c(C(F)(F)F)c3)cc[n-]2)cc1 (3D coordinates assigned)
NS(=O)(=O)c1ccc(/N=c2\nc(-n3cc(CN4CCCCC4)c(C(F)(F)F)c3)cc[n-]2)cc1 (nonaromatic ring conformer: 104.06612621571071 kcal/mol)

>  <smiles>  (88) 
NS(=O)(=O)c1ccc(N=c2nc(-n3cc(CN4CCCCC4)c(C(F)(F)F)c3)cc[nH]2)cc1

>  <score_type>  (88) 
oracle

>  <origin>  (88) 
adg

>  <m_score__min__energy>  (88) 
-10.77

>  <m_primary>  (88) 
energy

$$$$
88:0
     RDKit          3D

 45 45  0  0  0  0  0  0  0  0999 V2000
   57.0450   30.6160   44.4640 H   0  0  0  0  0  0  0  0  0  0  0  0
   57.7870   30.0650   44.8770 O   0  0  0  0  0  0  0  0  0  0  0  0
   57.5660   28.7920   45.4080 C   0  0  0  0  0  0  0  0  0  0  0  0
   56.2730   28.2470   45.4270 C   0  0  0  0  0  0  0  0  0  0  0  0
   55.2030   28.9680   44.9090 O   0  0  0  0  0  0  0  0  0  0  0  0
   56.0520   26.9800   45.9680 C   0  0  0  0  0  0  0  0  0  0  0  0
   54.7630   26.4550   45.9790 O   0  0  0  0  0  0  0  0  0  0  0  0
   57.1100   26.2310   46.5000 C   0  0  0  0  0  0  0  0  0  0  0  0
   56.7940   24.9670   47.0320 O   0  0  0  0  0  0  0  0  0  0  0  0
   56.9050   23.7170   46.3600 C   0  0  0  0  0  0  0  0  0  0  0  0
   56.9769   22.9074   47.1012 H   0  0  0  0  0  0  0  0  0  0  0  0
   56.0173   23.5594   45.7298 H   0  0  0  0  0  0  0  0  0  0  0  0
   57.8066   23.7183   45.7298 H   0  0  0  0  0  0  0  0  0  0  0  0
   58.4180   26.7750   46.4780 C   0  0  0  0  0  0  0  0  0  0  0  0
   59.4930   26.0610   46.9990 O   0  0  0  0  0  0  0  0  0  0  0  0
   58.6460   28.0540   45.9260 C   0  0  0  0  0  0  0  0  0  0  0  0
   60.0380   28.6550   45.9350 C   0  0  0  0  0  0  0  0  0  0  0  0
   60.0611   29.5100   45.2433 H   0  0  0  0  0  0  0  0  0  0  0  0
   60.7489   27.8753   45.6240 H   0  0  0  0  0  0  0  0  0  0  0  0
   60.4420   29.1380   47.3360 C   0  0  0  0  0  0  0  0  0  0  0  0
   61.5039   28.9028   47.5005 H   0  0  0  0  0  0  0  0  0  0  0  0
   59.8031   28.6252   48.0701 H   0  0  0  0  0  0  0  0  0  0  0  0
   60.2410   30.6240   47.5000 C   0  0  0  0  0  0  0  0  0  0  0  0
   59.4214   30.9586   48.1529 H   0  0  0  0  0  0  0  0  0  0  0  0
   60.9910   31.5700   46.9060 C   0  0  0  0  0  0  0  0  0  0  0  0
   61.1549   31.4851   45.8216 H   0  0  0  0  0  0  0  0  0  0  0  0
   61.6240   32.7400   47.6210 C   0  0  0  0  0  0  0  0  0  0  0  0
   62.7149   32.5994   47.6373 H   0  0  0  0  0  0  0  0  0  0  0  0
   61.2150   32.7790   48.6414 H   0  0  0  0  0  0  0  0  0  0  0  0
   61.3050   34.0720   46.9280 C   0  0  0  0  0  0  0  0  0  0  0  0
   61.6327   34.0134   45.8796 H   0  0  0  0  0  0  0  0  0  0  0  0
   61.8351   34.8699   47.4687 H   0  0  0  0  0  0  0  0  0  0  0  0
   59.8030   34.3970   46.9600 C   0  0  0  0  0  0  0  0  0  0  0  0
   59.6263   35.1648   47.7276 H   0  0  0  0  0  0  0  0  0  0  0  0
   59.2677   33.4627   47.1848 H   0  0  0  0  0  0  0  0  0  0  0  0
   59.2750   34.9190   45.6130 C   0  0  0  0  0  0  0  0  0  0  0  0
   60.1094   34.9376   44.8964 H   0  0  0  0  0  0  0  0  0  0  0  0
   58.8579   35.9201   45.7969 H   0  0  0  0  0  0  0  0  0  0  0  0
   58.1410   34.0600   45.0180 C   0  0  0  0  0  0  0  0  0  0  0  0
   58.5793   33.3290   44.3227 H   0  0  0  0  0  0  0  0  0  0  0  0
   57.4422   34.7365   44.5041 H   0  0  0  0  0  0  0  0  0  0  0  0
   57.3560   33.3070   46.0910 C   0  0  0  0  0  0  0  0  0  0  0  0
   57.6932   33.6305   47.0868 H   0  0  0  0  0  0  0  0  0  0  0  0
   56.2831   33.5224   45.9793 H   0  0  0  0  0  0  0  0  0  0  0  0
   57.5266   32.2261   45.9793 H   0  0  0  0  0  0  0  0  0  0  0  0
  1  2  1  0
  2  3  1  0
  3  4  2  0
  4  5  1  0
  4  6  1  0
  6  7  1  0
  6  8  2  0
  8  9  1  0
  9 10  1  0
 10 11  1  0
 10 12  1  0
 10 13  1  0
  8 14  1  0
 14 15  1  0
 14 16  2  0
 16 17  1  0
 17 18  1  0
 17 19  1  0
 17 20  1  0
 20 21  1  0
 20 22  1  0
 20 23  1  0
 23 24  1  0
 23 25  2  0
 25 26  1  0
 25 27  1  0
 27 28  1  0
 27 29  1  0
 27 30  1  0
 30 31  1  0
 30 32  1  0
 30 33  1  0
 33 34  1  0
 33 35  1  0
 33 36  1  0
 36 37  1  0
 36 38  1  0
 36 39  1  0
 39 40  1  0
 39 41  1  0
 39 42  1  0
 42 43  1  0
 42 44  1  0
 42 45  1  0
 16  3  1  0
M  CHG  3   5  -1   7  -1  15  -1
M  END
>  <UniqueID>  (89) 
83

>  <SMILES>  (89) 
CCCCCC/C=C\CCc1c([O-])c(OC)c([O-])c([O-])c1O

>  <Energy>  (89) 
36.11506031369311

>  <Genealogy>  (89) 
CCCCCCC=CCCc1c([O-])c(OC)c([O-])c([O-])c1O (protonated)
CCCCCC/C=C\CCc1c([O-])c(OC)c([O-])c([O-])c1O (cis-trans isomerization)
CCCCCC/C=C\CCc1c([O-])c(OC)c([O-])c([O-])c1O (3D coordinates assigned)
CCCCCC/C=C\CCc1c([O-])c(OC)c([O-])c([O-])c1O (optimized conformer: 36.11506031369311 kcal/mol)

>  <smiles>  (89) 
CCCCCCC=CCCc1c(O)c(O)c(O)c(OC)c1O

>  <score_type>  (89) 
oracle

>  <origin>  (89) 
adg

>  <m_score__min__energy>  (89) 
-14.19

>  <m_primary>  (89) 
energy

$$$$
89:0
     RDKit          3D

 52 55  0  0  0  0  0  0  0  0999 V2000
   51.0220   32.3510   51.1560 N   0  0  0  0  0  0  0  0  0  0  0  0
   51.7590   31.1610   50.8840 C   0  0  0  0  0  0  0  0  0  0  0  0
   51.4270   30.4460   49.8990 O   0  0  0  0  0  0  0  0  0  0  0  0
   52.9020   30.7680   51.7440 C   0  0  0  0  0  0  0  0  0  0  0  0
   52.6940   29.9700   52.8780 C   0  0  0  0  0  0  0  0  0  0  0  0
   53.7670   29.5960   53.6800 C   0  0  0  0  0  0  0  0  0  0  0  0
   55.0620   30.0120   53.3690 C   0  0  0  0  0  0  0  0  0  0  0  0
   55.3180   30.8250   52.2400 C   0  0  0  0  0  0  0  0  0  0  0  0
   56.6760   31.2640   51.9140 N   0  0  0  0  0  0  0  0  0  0  0  0
   57.5950   30.3110   51.2490 C   0  0  0  0  0  0  0  0  0  0  0  0
   59.0140   30.8380   51.0330 C   0  0  0  0  0  0  0  0  0  0  0  0
   58.9780   32.2580   50.6700 N   0  0  0  0  0  0  0  0  0  0  0  0
   60.2760   32.7510   50.1560 C   0  0  0  0  0  0  0  0  0  0  0  0
   60.2600   33.1180   48.6840 C   0  0  0  0  0  0  0  0  0  0  0  0
   61.3130   33.8620   48.1270 C   0  0  0  0  0  0  0  0  0  0  0  0
   61.2880   34.2170   46.7770 C   0  0  0  0  0  0  0  0  0  0  0  0
   60.2210   33.8200   45.9670 C   0  0  0  0  0  0  0  0  0  0  0  0
   59.1770   33.0460   46.5030 C   0  0  0  0  0  0  0  0  0  0  0  0
   58.0580   32.6400   45.7030 N   0  0  0  0  0  0  0  0  0  0  0  0
   57.7130   31.2920   45.3640 C   0  0  0  0  0  0  0  0  0  0  0  0
   56.6130   31.0710   44.7950 O   0  0  0  0  0  0  0  0  0  0  0  0
   58.5800   30.1530   45.7250 C   0  0  0  0  0  0  0  0  0  0  0  0
   59.4650   29.5080   44.8640 C   0  0  0  0  0  0  0  0  0  0  0  0
   60.1250   28.4240   45.4560 C   0  0  0  0  0  0  0  0  0  0  0  0
   59.7510   28.2110   46.7740 C   0  0  0  0  0  0  0  0  0  0  0  0
   60.3610   26.9470   47.8190 Cl  0  0  0  0  0  0  0  0  0  0  0  0
   58.6030   29.3560   47.2110 S   0  0  0  0  0  0  0  0  0  0  0  0
   59.1950   32.7140   47.8620 C   0  0  0  0  0  0  0  0  0  0  0  0
   58.4980   33.0250   51.8230 C   0  0  0  0  0  0  0  0  0  0  0  0
   57.0310   32.6910   52.1060 C   0  0  0  0  0  0  0  0  0  0  0  0
   54.2100   31.1860   51.4320 C   0  0  0  0  0  0  0  0  0  0  0  0
   49.9820   32.3310   51.2410 H   0  0  0  0  0  0  0  0  0  0  0  0
   51.6771   29.6381   53.1346 H   0  0  0  0  0  0  0  0  0  0  0  0
   53.5934   28.9676   54.5660 H   0  0  0  0  0  0  0  0  0  0  0  0
   55.8984   29.7024   54.0129 H   0  0  0  0  0  0  0  0  0  0  0  0
   57.6567   29.4047   51.8693 H   0  0  0  0  0  0  0  0  0  0  0  0
   57.1775   30.1228   50.2489 H   0  0  0  0  0  0  0  0  0  0  0  0
   59.5923   30.7148   51.9606 H   0  0  0  0  0  0  0  0  0  0  0  0
   59.4866   30.2713   50.2172 H   0  0  0  0  0  0  0  0  0  0  0  0
   60.5587   33.6446   50.7318 H   0  0  0  0  0  0  0  0  0  0  0  0
   60.9959   31.9271   50.2698 H   0  0  0  0  0  0  0  0  0  0  0  0
   62.1615   34.1664   48.7574 H   0  0  0  0  0  0  0  0  0  0  0  0
   62.1100   34.8104   46.3502 H   0  0  0  0  0  0  0  0  0  0  0  0
   60.1978   34.1138   44.9072 H   0  0  0  0  0  0  0  0  0  0  0  0
   59.6292   29.8194   43.8219 H   0  0  0  0  0  0  0  0  0  0  0  0
   60.8652   27.8043   44.9287 H   0  0  0  0  0  0  0  0  0  0  0  0
   58.3669   32.1308   48.2911 H   0  0  0  0  0  0  0  0  0  0  0  0
   59.1048   32.7730   52.7052 H   0  0  0  0  0  0  0  0  0  0  0  0
   58.5855   34.0989   51.6015 H   0  0  0  0  0  0  0  0  0  0  0  0
   56.8123   32.9618   53.1495 H   0  0  0  0  0  0  0  0  0  0  0  0
   56.4348   33.2618   51.3788 H   0  0  0  0  0  0  0  0  0  0  0  0
   54.3763   31.8076   50.5399 H   0  0  0  0  0  0  0  0  0  0  0  0
  1  2  1  0
  2  3  2  0
  2  4  1  0
  4  5  2  0
  5  6  1  0
  6  7  2  0
  7  8  1  0
  8  9  1  0
  9 10  1  0
 10 11  1  0
 11 12  1  0
 12 13  1  0
 13 14  1  0
 14 15  2  0
 15 16  1  0
 16 17  2  0
 17 18  1  0
 18 19  1  0
 19 20  1  0
 20 21  2  0
 20 22  1  0
 22 23  2  0
 23 24  1  0
 24 25  2  0
 25 26  1  0
 25 27  1  0
 18 28  2  0
 12 29  1  0
 29 30  1  0
  8 31  2  0
 31  4  1  0
 30  9  1  0
 28 14  1  0
 27 22  1  0
  1 32  1  0
  5 33  1  0
  6 34  1  0
  7 35  1  0
 10 36  1  0
 10 37  1  0
 11 38  1  0
 11 39  1  0
 13 40  1  0
 13 41  1  0
 15 42  1  0
 16 43  1  0
 17 44  1  0
 23 45  1  0
 24 46  1  0
 28 47  1  0
 29 48  1  0
 29 49  1  0
 30 50  1  0
 30 51  1  0
 31 52  1  0
M  CHG  2   1  -1  19  -1
M  END
>  <UniqueID>  (90) 
84

>  <SMILES>  (90) 
[NH-]C(=O)c1cccc(N2CCN(Cc3cccc([N-]C(=O)c4ccc(Cl)s4)c3)CC2)c1

>  <Energy>  (90) 
98.30724822821352

>  <Genealogy>  (90) 
[NH-]C(=O)c1cccc(N2CCN(Cc3cccc([N-]C(=O)c4ccc(Cl)s4)c3)CC2)c1 (protonated)
[NH-]C(=O)c1cccc(N2CCN(Cc3cccc([N-]C(=O)c4ccc(Cl)s4)c3)CC2)c1 (3D coordinates assigned)
[NH-]C(=O)c1cccc(N2CCN(Cc3cccc([N-]C(=O)c4ccc(Cl)s4)c3)CC2)c1 (nonaromatic ring conformer: 98.30724822821352 kcal/mol)

>  <smiles>  (90) 
NC(=O)c1cccc(N2CCN(Cc3cccc(NC(=O)c4ccc(Cl)s4)c3)CC2)c1

>  <score_type>  (90) 
oracle

>  <origin>  (90) 
adg

>  <m_score__min__energy>  (90) 
-14.15

>  <m_primary>  (90) 
energy

$$$$
90:0
     RDKit          3D

 30 32  0  0  0  0  0  0  0  0999 V2000
   55.5150   23.1890   42.3240 O   0  0  0  0  0  0  0  0  0  0  0  0
   56.4470   23.6950   43.0030 C   0  0  0  0  0  0  0  0  0  0  0  0
   56.6660   23.3280   44.4250 C   0  0  0  0  0  0  0  0  0  0  0  0
   56.4460   21.9960   44.8300 C   0  0  0  0  0  0  0  0  0  0  0  0
   56.0260   21.0400   43.9050 O   0  0  0  0  0  0  0  0  0  0  0  0
   56.6460   21.6250   46.1630 C   0  0  0  0  0  0  0  0  0  0  0  0
   57.0640   22.5560   47.1120 C   0  0  0  0  0  0  0  0  0  0  0  0
   57.2470   22.1310   48.4250 O   0  0  0  0  0  0  0  0  0  0  0  0
   57.2920   23.8960   46.7330 C   0  0  0  0  0  0  0  0  0  0  0  0
   57.7080   24.8870   47.6470 C   0  0  0  0  0  0  0  0  0  0  0  0
   57.8960   24.6160   48.8650 O   0  0  0  0  0  0  0  0  0  0  0  0
   57.9130   26.1950   47.2040 C   0  0  0  0  0  0  0  0  0  0  0  0
   58.2850   27.1830   48.1100 O   0  0  0  0  0  0  0  0  0  0  0  0
   57.7100   26.4950   45.8460 C   0  0  0  0  0  0  0  0  0  0  0  0
   57.9230   27.8580   45.3060 C   0  0  0  0  0  0  0  0  0  0  0  0
   59.2230   28.3270   45.0400 C   0  0  0  0  0  0  0  0  0  0  0  0
   59.4200   29.6020   44.5030 C   0  0  0  0  0  0  0  0  0  0  0  0
   58.3230   30.4180   44.2170 C   0  0  0  0  0  0  0  0  0  0  0  0
   57.0270   29.9590   44.4630 C   0  0  0  0  0  0  0  0  0  0  0  0
   56.8220   28.6850   45.0030 C   0  0  0  0  0  0  0  0  0  0  0  0
   55.5220   28.2540   45.2460 O   0  0  0  0  0  0  0  0  0  0  0  0
   57.3070   25.5410   45.0150 O   0  0  0  0  0  0  0  0  0  0  0  0
   57.0920   24.2800   45.3830 C   0  0  0  0  0  0  0  0  0  0  0  0
   57.1167   24.4284   42.5301 H   0  0  0  0  0  0  0  0  0  0  0  0
   55.5040   21.2940   43.0750 H   0  0  0  0  0  0  0  0  0  0  0  0
   56.4708   20.5826   46.4673 H   0  0  0  0  0  0  0  0  0  0  0  0
   60.0900   27.6855   45.2563 H   0  0  0  0  0  0  0  0  0  0  0  0
   60.4400   29.9634   44.3053 H   0  0  0  0  0  0  0  0  0  0  0  0
   58.4799   31.4228   43.7977 H   0  0  0  0  0  0  0  0  0  0  0  0
   56.1647   30.6015   44.2313 H   0  0  0  0  0  0  0  0  0  0  0  0
  1  2  2  0
  2  3  1  0
  3  4  2  0
  4  5  1  0
  4  6  1  0
  6  7  2  0
  7  8  1  0
  7  9  1  0
  9 10  1  0
 10 11  2  0
 10 12  1  0
 12 13  1  0
 12 14  2  0
 14 15  1  0
 15 16  2  0
 16 17  1  0
 17 18  2  0
 18 19  1  0
 19 20  2  0
 20 21  1  0
 14 22  1  0
 22 23  1  0
 23  3  1  0
 23  9  2  0
 20 15  1  0
  2 24  1  0
  5 25  1  0
  6 26  1  0
 16 27  1  0
 17 28  1  0
 18 29  1  0
 19 30  1  0
M  CHG  3   8  -1  13  -1  21  -1
M  END
>  <UniqueID>  (91) 
85

>  <SMILES>  (91) 
O=Cc1c(O)cc([O-])c2c(=O)c([O-])c(-c3ccccc3[O-])oc12

>  <Energy>  (91) 
48.89934011854707

>  <Genealogy>  (91) 
O=Cc1c(O)cc([O-])c2c(=O)c([O-])c(-c3ccccc3[O-])oc12 (protonated)
O=Cc1c(O)cc([O-])c2c(=O)c([O-])c(-c3ccccc3[O-])oc12 (3D coordinates assigned)
O=Cc1c(O)cc([O-])c2c(=O)c([O-])c(-c3ccccc3[O-])oc12 (optimized conformer: 48.89934011854707 kcal/mol)

>  <smiles>  (91) 
O=Cc1c(O)cc(O)c2c(=O)c(O)c(-c3ccccc3O)oc12

>  <score_type>  (91) 
oracle

>  <origin>  (91) 
adg

>  <m_score__min__energy>  (91) 
-12.279999999999999

>  <m_primary>  (91) 
energy

$$$$
91:0
     RDKit          3D

 44 45  0  0  0  0  0  0  0  0999 V2000
   62.2620   31.3070   47.4520 C   0  0  0  0  0  0  0  0  0  0  0  0
   63.4200   32.2840   47.6510 C   0  0  0  0  0  0  0  0  0  0  0  0
   62.9400   33.7380   47.7290 C   0  0  0  0  0  0  0  0  0  0  0  0
   61.5120   33.8450   47.4260 N   0  0  0  0  0  0  0  0  0  0  0  0
   60.5100   33.9720   48.4410 C   0  0  0  0  0  0  0  0  0  0  0  0
   60.8400   34.0140   49.6570 O   0  0  0  0  0  0  0  0  0  0  0  0
   59.1610   33.9920   48.0620 O   0  0  0  0  0  0  0  0  0  0  0  0
   58.5980   33.2350   47.0250 C   0  0  0  0  0  0  0  0  0  0  0  0
   57.6930   33.8600   46.1590 C   0  0  0  0  0  0  0  0  0  0  0  0
   57.1050   33.1480   45.1110 C   0  0  0  0  0  0  0  0  0  0  0  0
   57.4110   31.7910   44.9130 C   0  0  0  0  0  0  0  0  0  0  0  0
   56.7690   31.0220   43.7840 C   0  0  0  0  0  0  0  0  0  0  0  0
   56.3130   29.6530   44.2220 C   0  0  0  0  0  0  0  0  0  0  0  0
   55.2270   29.5380   44.8500 O   0  0  0  0  0  0  0  0  0  0  0  0
   57.1360   28.4910   44.0540 N   0  0  0  0  0  0  0  0  0  0  0  0
   57.8380   27.8040   45.1020 C   0  0  0  0  0  0  0  0  0  0  0  0
   59.2410   27.8290   45.1490 C   0  0  0  0  0  0  0  0  0  0  0  0
   59.9270   27.1450   46.1530 C   0  0  0  0  0  0  0  0  0  0  0  0
   59.2190   26.4130   47.1090 C   0  0  0  0  0  0  0  0  0  0  0  0
   57.8230   26.3530   47.0520 C   0  0  0  0  0  0  0  0  0  0  0  0
   57.1250   27.0360   46.0450 C   0  0  0  0  0  0  0  0  0  0  0  0
   55.6950   26.9540   45.9980 N   0  0  0  0  0  0  0  0  0  0  0  0
   58.2850   31.1520   45.8070 C   0  0  0  0  0  0  0  0  0  0  0  0
   58.8780   31.8670   46.8520 C   0  0  0  0  0  0  0  0  0  0  0  0
   61.8809   30.9855   48.4325 H   0  0  0  0  0  0  0  0  0  0  0  0
   61.4566   31.8026   46.8901 H   0  0  0  0  0  0  0  0  0  0  0  0
   62.6149   30.4297   46.8901 H   0  0  0  0  0  0  0  0  0  0  0  0
   63.9405   32.0315   48.5866 H   0  0  0  0  0  0  0  0  0  0  0  0
   64.0916   32.1947   46.7844 H   0  0  0  0  0  0  0  0  0  0  0  0
   63.1202   34.1206   48.7445 H   0  0  0  0  0  0  0  0  0  0  0  0
   63.4971   34.3273   46.9858 H   0  0  0  0  0  0  0  0  0  0  0  0
   61.2140   33.8700   46.4250 H   0  0  0  0  0  0  0  0  0  0  0  0
   57.4427   34.9211   46.3051 H   0  0  0  0  0  0  0  0  0  0  0  0
   56.3979   33.6528   44.4364 H   0  0  0  0  0  0  0  0  0  0  0  0
   55.8983   31.5868   43.4194 H   0  0  0  0  0  0  0  0  0  0  0  0
   57.5196   30.8928   42.9903 H   0  0  0  0  0  0  0  0  0  0  0  0
   59.8031   28.3917   44.3891 H   0  0  0  0  0  0  0  0  0  0  0  0
   61.0257   27.1822   46.1917 H   0  0  0  0  0  0  0  0  0  0  0  0
   59.7598   25.8834   47.9072 H   0  0  0  0  0  0  0  0  0  0  0  0
   57.2695   25.7672   47.8006 H   0  0  0  0  0  0  0  0  0  0  0  0
   55.1570   26.3840   46.6890 H   0  0  0  0  0  0  0  0  0  0  0  0
   55.1560   27.4650   45.2640 H   0  0  0  0  0  0  0  0  0  0  0  0
   58.5048   30.0812   45.6844 H   0  0  0  0  0  0  0  0  0  0  0  0
   59.5667   31.3576   47.5421 H   0  0  0  0  0  0  0  0  0  0  0  0
  1  2  1  0
  2  3  1  0
  3  4  1  0
  4  5  1  0
  5  6  2  0
  5  7  1  0
  7  8  1  0
  8  9  2  0
  9 10  1  0
 10 11  2  0
 11 12  1  0
 12 13  1  0
 13 14  2  0
 13 15  1  0
 15 16  1  0
 16 17  2  0
 17 18  1  0
 18 19  2  0
 19 20  1  0
 20 21  2  0
 21 22  1  0
 11 23  1  0
 23 24  2  0
 24  8  1  0
 21 16  1  0
  1 25  1  0
  1 26  1  0
  1 27  1  0
  2 28  1  0
  2 29  1  0
  3 30  1  0
  3 31  1  0
  4 32  1  0
  9 33  1  0
 10 34  1  0
 12 35  1  0
 12 36  1  0
 17 37  1  0
 18 38  1  0
 19 39  1  0
 20 40  1  0
 22 41  1  0
 22 42  1  0
 23 43  1  0
 24 44  1  0
M  CHG  1  15  -1
M  END
>  <UniqueID>  (92) 
86

>  <SMILES>  (92) 
CCCNC(=O)Oc1ccc(CC(=O)[N-]c2ccccc2N)cc1

>  <Energy>  (92) 
45.85877569024124

>  <Genealogy>  (92) 
CCCNC(=O)Oc1ccc(CC(=O)[N-]c2ccccc2N)cc1 (protonated)
CCCNC(=O)Oc1ccc(CC(=O)[N-]c2ccccc2N)cc1 (3D coordinates assigned)
CCCNC(=O)Oc1ccc(CC(=O)[N-]c2ccccc2N)cc1 (optimized conformer: 45.85877569024124 kcal/mol)

>  <smiles>  (92) 
CCCNC(=O)Oc1ccc(CC(=O)Nc2ccccc2N)cc1

>  <score_type>  (92) 
oracle

>  <origin>  (92) 
adg

>  <m_score__min__energy>  (92) 
-9.6199999999999992

>  <m_primary>  (92) 
energy

$$$$
92:0
     RDKit          3D

 60 63  0  0  0  0  0  0  0  0999 V2000
   62.0140   30.5460   49.3850 O   0  0  0  0  0  0  0  0  0  0  0  0
   60.8230   30.6070   48.9740 C   0  0  0  0  0  0  0  0  0  0  0  0
   60.0190   31.7730   49.2270 N   0  0  0  0  0  0  0  0  0  0  0  0
   59.2390   32.0320   50.2400 C   0  0  0  0  0  0  0  0  0  0  0  0
   59.3860   33.1740   51.0580 C   0  0  0  0  0  0  0  0  0  0  0  0
   58.5110   33.3700   52.1290 C   0  0  0  0  0  0  0  0  0  0  0  0
   57.5070   32.4380   52.3910 C   0  0  0  0  0  0  0  0  0  0  0  0
   57.3990   31.3090   51.5780 C   0  0  0  0  0  0  0  0  0  0  0  0
   58.2580   31.1340   50.5380 N   0  0  0  0  0  0  0  0  0  0  0  0
   60.2810   29.5220   48.1280 C   0  0  0  0  0  0  0  0  0  0  0  0
   59.2870   28.6560   48.6180 C   0  0  0  0  0  0  0  0  0  0  0  0
   58.8290   27.5880   47.8370 C   0  0  0  0  0  0  0  0  0  0  0  0
   59.3450   27.3830   46.5470 C   0  0  0  0  0  0  0  0  0  0  0  0
   58.9540   26.1720   45.7450 C   0  0  0  0  0  0  0  0  0  0  0  0
   57.8170   26.5010   44.8930 N   0  0  0  0  0  0  0  0  0  0  0  0
   56.8260   27.4660   45.2690 C   0  0  0  0  0  0  0  0  0  0  0  0
   55.8040   27.0940   45.9110 O   0  0  0  0  0  0  0  0  0  0  0  0
   56.9610   28.8750   44.8290 C   0  0  0  0  0  0  0  0  0  0  0  0
   56.4500   29.2840   43.5830 C   0  0  0  0  0  0  0  0  0  0  0  0
   56.6710   30.5840   43.1240 C   0  0  0  0  0  0  0  0  0  0  0  0
   57.4020   31.4890   43.8980 C   0  0  0  0  0  0  0  0  0  0  0  0
   57.9070   31.1090   45.1480 C   0  0  0  0  0  0  0  0  0  0  0  0
   58.6620   32.0700   45.9060 N   0  0  0  0  0  0  0  0  0  0  0  0
   58.0170   33.4920   46.6640 S   0  0  0  0  0  0  0  0  0  0  0  0
   57.2080   33.1060   47.8730 O   0  0  0  0  0  0  0  0  0  0  0  0
   57.1090   34.1870   45.6890 O   0  0  0  0  0  0  0  0  0  0  0  0
   59.3360   34.6030   47.1410 C   0  0  0  0  0  0  0  0  0  0  0  0
   60.6300   34.2670   46.3950 C   0  0  0  0  0  0  0  0  0  0  0  0
   61.7160   33.8820   47.3680 C   0  0  0  0  0  0  0  0  0  0  0  0
   61.6150   34.2480   48.7230 C   0  0  0  0  0  0  0  0  0  0  0  0
   62.6000   33.8580   49.6370 C   0  0  0  0  0  0  0  0  0  0  0  0
   63.6860   33.0920   49.2050 C   0  0  0  0  0  0  0  0  0  0  0  0
   63.7920   32.7170   47.8620 C   0  0  0  0  0  0  0  0  0  0  0  0
   62.8090   33.1070   46.9440 C   0  0  0  0  0  0  0  0  0  0  0  0
   57.6830   29.7990   45.6120 C   0  0  0  0  0  0  0  0  0  0  0  0
   60.2990   28.2770   46.0390 C   0  0  0  0  0  0  0  0  0  0  0  0
   60.7720   29.3300   46.8250 C   0  0  0  0  0  0  0  0  0  0  0  0
   60.1835   33.9035   50.8532 H   0  0  0  0  0  0  0  0  0  0  0  0
   58.6139   34.2605   52.7666 H   0  0  0  0  0  0  0  0  0  0  0  0
   56.8094   32.5909   53.2276 H   0  0  0  0  0  0  0  0  0  0  0  0
   56.6186   30.5601   51.7783 H   0  0  0  0  0  0  0  0  0  0  0  0
   58.8667   28.8188   49.6214 H   0  0  0  0  0  0  0  0  0  0  0  0
   58.0623   26.9071   48.2352 H   0  0  0  0  0  0  0  0  0  0  0  0
   59.8021   25.8567   45.1195 H   0  0  0  0  0  0  0  0  0  0  0  0
   58.6776   25.3539   46.4264 H   0  0  0  0  0  0  0  0  0  0  0  0
   55.8741   28.5766   42.9683 H   0  0  0  0  0  0  0  0  0  0  0  0
   56.2681   30.8969   42.1494 H   0  0  0  0  0  0  0  0  0  0  0  0
   57.5822   32.5073   43.5229 H   0  0  0  0  0  0  0  0  0  0  0  0
   59.0408   35.6356   46.9030 H   0  0  0  0  0  0  0  0  0  0  0  0
   59.5144   34.4935   48.2209 H   0  0  0  0  0  0  0  0  0  0  0  0
   60.4446   33.4276   45.7087 H   0  0  0  0  0  0  0  0  0  0  0  0
   60.9557   35.1533   45.8308 H   0  0  0  0  0  0  0  0  0  0  0  0
   60.7565   34.8443   49.0657 H   0  0  0  0  0  0  0  0  0  0  0  0
   62.5197   34.1538   50.6934 H   0  0  0  0  0  0  0  0  0  0  0  0
   64.4597   32.7831   49.9234 H   0  0  0  0  0  0  0  0  0  0  0  0
   64.6490   32.1147   47.5261 H   0  0  0  0  0  0  0  0  0  0  0  0
   62.8925   32.8062   45.8892 H   0  0  0  0  0  0  0  0  0  0  0  0
   58.0745   29.4936   46.5936 H   0  0  0  0  0  0  0  0  0  0  0  0
   60.6773   28.1478   45.0142 H   0  0  0  0  0  0  0  0  0  0  0  0
   61.5337   30.0135   46.4218 H   0  0  0  0  0  0  0  0  0  0  0  0
  1  2  2  0
  2  3  1  0
  3  4  2  3
  4  5  1  0
  5  6  2  0
  6  7  1  0
  7  8  2  0
  8  9  1  0
  2 10  1  0
 10 11  2  0
 11 12  1  0
 12 13  2  0
 13 14  1  0
 14 15  1  0
 15 16  1  0
 16 17  2  0
 16 18  1  0
 18 19  2  0
 19 20  1  0
 20 21  2  0
 21 22  1  0
 22 23  1  0
 23 24  1  0
 24 25  2  0
 24 26  2  0
 24 27  1  0
 27 28  1  0
 28 29  1  0
 29 30  2  0
 30 31  1  0
 31 32  2  0
 32 33  1  0
 33 34  2  0
 22 35  2  0
 13 36  1  0
 36 37  2  0
  9  4  1  0
 37 10  1  0
 35 18  1  0
 34 29  1  0
  5 38  1  0
  6 39  1  0
  7 40  1  0
  8 41  1  0
 11 42  1  0
 12 43  1  0
 14 44  1  0
 14 45  1  0
 19 46  1  0
 20 47  1  0
 21 48  1  0
 27 49  1  0
 27 50  1  0
 28 51  1  0
 28 52  1  0
 30 53  1  0
 31 54  1  0
 32 55  1  0
 33 56  1  0
 34 57  1  0
 35 58  1  0
 36 59  1  0
 37 60  1  0
M  CHG  3   9  -1  15  -1  23  -1
M  END
>  <UniqueID>  (93) 
87

>  <SMILES>  (93) 
O=C(N=c1cccc[n-]1)c1ccc(C[N-]C(=O)c2cccc([N-]S(=O)(=O)CCc3ccccc3)c2)cc1

>  <Energy>  (93) 
68.04495427870852

>  <Genealogy>  (93) 
O=C(N=c1cccc[n-]1)c1ccc(C[N-]C(=O)c2cccc([N-]S(=O)(=O)CCc3ccccc3)c2)cc1 (protonated)
O=C(N=c1cccc[n-]1)c1ccc(C[N-]C(=O)c2cccc([N-]S(=O)(=O)CCc3ccccc3)c2)cc1 (3D coordinates assigned)
O=C(N=c1cccc[n-]1)c1ccc(C[N-]C(=O)c2cccc([N-]S(=O)(=O)CCc3ccccc3)c2)cc1 (optimized conformer: 68.04495427870852 kcal/mol)

>  <smiles>  (93) 
O=C(N=c1cccc[nH]1)c1ccc(CNC(=O)c2cccc(NS(=O)(=O)CCc3ccccc3)c2)cc1

>  <score_type>  (93) 
oracle

>  <origin>  (93) 
adg

>  <m_score__min__energy>  (93) 
-13.92

>  <m_primary>  (93) 
energy

$$$$
93:0
     RDKit          3D

 63 67  0  0  0  0  0  0  0  0999 V2000
   68.1230   33.5030   50.7470 C   0  0  0  0  0  0  0  0  0  0  0  0
   66.9210   33.0430   51.3550 O   0  0  0  0  0  0  0  0  0  0  0  0
   65.6390   33.2250   50.8170 C   0  0  0  0  0  0  0  0  0  0  0  0
   64.7360   34.0380   51.5120 C   0  0  0  0  0  0  0  0  0  0  0  0
   63.4540   34.2730   51.0040 C   0  0  0  0  0  0  0  0  0  0  0  0
   63.0680   33.7130   49.7820 C   0  0  0  0  0  0  0  0  0  0  0  0
   61.7560   33.9720   49.2780 N   0  0  0  0  0  0  0  0  0  0  0  0
   61.4010   33.9990   47.8880 C   0  0  0  0  0  0  0  0  0  0  0  0
   62.2120   33.5370   47.0400 O   0  0  0  0  0  0  0  0  0  0  0  0
   60.1240   34.4930   47.4570 N   0  0  0  0  0  0  0  0  0  0  0  0
   59.3340   33.8570   46.4400 C   0  0  0  0  0  0  0  0  0  0  0  0
   58.7530   34.6370   45.4310 C   0  0  0  0  0  0  0  0  0  0  0  0
   57.9260   34.0500   44.4760 C   0  0  0  0  0  0  0  0  0  0  0  0
   57.6590   32.6800   44.5200 C   0  0  0  0  0  0  0  0  0  0  0  0
   58.2210   31.8780   45.5270 C   0  0  0  0  0  0  0  0  0  0  0  0
   57.9120   30.4290   45.6030 C   0  0  0  0  0  0  0  0  0  0  0  0
   56.9050   29.9020   44.9970 N   0  0  0  0  0  0  0  0  0  0  0  0
   56.8760   28.5530   45.2280 O   0  0  0  0  0  0  0  0  0  0  0  0
   57.9480   28.1100   46.0480 C   0  0  1  0  0  0  0  0  0  0  0  0
   58.7150   29.4160   46.3590 C   0  0  0  0  0  0  0  0  0  0  0  0
   57.3950   27.3870   47.2830 C   0  0  0  0  0  0  0  0  0  0  0  0
   57.3580   25.9040   46.8960 C   0  0  1  0  0  0  0  0  0  0  0  0
   55.9630   25.4510   46.5750 C   0  0  0  0  0  0  0  0  0  0  0  0
   55.0390   26.3620   45.9930 N   0  0  0  0  0  0  0  0  0  0  0  0
   55.6090   24.2630   46.7950 O   0  0  0  0  0  0  0  0  0  0  0  0
   58.2170   25.7810   45.7220 N   0  0  0  0  0  0  0  0  0  0  0  0
   58.7120   24.5150   45.2490 C   0  0  0  0  0  0  0  0  0  0  0  0
   59.8640   24.1340   45.5880 O   0  0  0  0  0  0  0  0  0  0  0  0
   57.8940   23.6420   44.3780 C   0  0  0  0  0  0  0  0  0  0  0  0
   58.2450   22.2920   44.2100 C   0  0  0  0  0  0  0  0  0  0  0  0
   57.4610   21.4510   43.4090 C   0  0  0  0  0  0  0  0  0  0  0  0
   56.3150   21.9480   42.7810 C   0  0  0  0  0  0  0  0  0  0  0  0
   55.9500   23.2850   42.9550 C   0  0  0  0  0  0  0  0  0  0  0  0
   56.7300   24.1280   43.7570 C   0  0  0  0  0  0  0  0  0  0  0  0
   58.7700   27.0610   45.3010 C   0  0  0  0  0  0  0  0  0  0  0  0
   59.0600   32.4770   46.4830 C   0  0  0  0  0  0  0  0  0  0  0  0
   63.9490   32.8610   49.1010 C   0  0  0  0  0  0  0  0  0  0  0  0
   65.2320   32.6250   49.6080 C   0  0  0  0  0  0  0  0  0  0  0  0
   68.8464   33.7798   51.5281 H   0  0  0  0  0  0  0  0  0  0  0  0
   68.5468   32.7035   50.1215 H   0  0  0  0  0  0  0  0  0  0  0  0
   67.9048   34.3811   50.1215 H   0  0  0  0  0  0  0  0  0  0  0  0
   65.0371   34.4960   52.4657 H   0  0  0  0  0  0  0  0  0  0  0  0
   62.7474   34.9001   51.5674 H   0  0  0  0  0  0  0  0  0  0  0  0
   59.7510   35.3640   47.8890 H   0  0  0  0  0  0  0  0  0  0  0  0
   58.9510   35.7184   45.3929 H   0  0  0  0  0  0  0  0  0  0  0  0
   57.4809   34.6689   43.6830 H   0  0  0  0  0  0  0  0  0  0  0  0
   57.0045   32.2261   43.7613 H   0  0  0  0  0  0  0  0  0  0  0  0
   58.7185   29.6315   47.4377 H   0  0  0  0  0  0  0  0  0  0  0  0
   59.7774   29.3874   46.0755 H   0  0  0  0  0  0  0  0  0  0  0  0
   58.0545   27.5435   48.1494 H   0  0  0  0  0  0  0  0  0  0  0  0
   56.4016   27.7626   47.5694 H   0  0  0  0  0  0  0  0  0  0  0  0
   57.7021   25.2721   47.7281 H   0  0  0  0  0  0  0  0  0  0  0  0
   55.2210   27.3900   46.0090 H   0  0  0  0  0  0  0  0  0  0  0  0
   59.1400   21.8931   44.7099 H   0  0  0  0  0  0  0  0  0  0  0  0
   57.7478   20.3977   43.2740 H   0  0  0  0  0  0  0  0  0  0  0  0
   55.7017   21.2871   42.1508 H   0  0  0  0  0  0  0  0  0  0  0  0
   55.0484   23.6766   42.4613 H   0  0  0  0  0  0  0  0  0  0  0  0
   56.4301   25.1764   43.9018 H   0  0  0  0  0  0  0  0  0  0  0  0
   59.8323   27.1332   45.5773 H   0  0  0  0  0  0  0  0  0  0  0  0
   58.7191   27.1951   44.2104 H   0  0  0  0  0  0  0  0  0  0  0  0
   59.5082   31.8591   47.2750 H   0  0  0  0  0  0  0  0  0  0  0  0
   63.6310   32.3768   48.1659 H   0  0  0  0  0  0  0  0  0  0  0  0
   65.9253   31.9690   49.0612 H   0  0  0  0  0  0  0  0  0  0  0  0
  1  2  1  0
  2  3  1  0
  3  4  2  0
  4  5  1  0
  5  6  2  0
  6  7  1  0
  7  8  1  0
  8  9  2  0
  8 10  1  0
 10 11  1  0
 11 12  2  0
 12 13  1  0
 13 14  2  0
 14 15  1  0
 15 16  1  0
 16 17  2  0
 17 18  1  0
 19 18  1  6
 19 20  1  0
 19 21  1  0
 21 22  1  0
 22 23  1  0
 23 24  1  0
 23 25  2  0
 22 26  1  0
 26 27  1  0
 27 28  2  0
 27 29  1  0
 29 30  2  0
 30 31  1  0
 31 32  2  0
 32 33  1  0
 33 34  2  0
 26 35  1  0
 15 36  2  0
  6 37  1  0
 37 38  2  0
 38  3  1  0
 36 11  1  0
 20 16  1  0
 34 29  1  0
 35 19  1  0
  1 39  1  0
  1 40  1  0
  1 41  1  0
  4 42  1  0
  5 43  1  0
 10 44  1  0
 12 45  1  0
 13 46  1  0
 14 47  1  0
 20 48  1  0
 20 49  1  0
 21 50  1  0
 21 51  1  0
 22 52  1  1
 24 53  1  0
 30 54  1  0
 31 55  1  0
 32 56  1  0
 33 57  1  0
 34 58  1  0
 35 59  1  0
 35 60  1  0
 36 61  1  0
 37 62  1  0
 38 63  1  0
M  CHG  2   7  -1  24  -1
M  END
>  <UniqueID>  (94) 
88

>  <SMILES>  (94) 
COc1ccc([N-]C(=O)Nc2cccc(C3=NO[C@@]4(C3)C[C@@H](C([NH-])=O)N(C(=O)c3ccccc3)C4)c2)cc1

>  <Energy>  (94) 
99.58670750844531

>  <Genealogy>  (94) 
COc1ccc([N-]C(=O)Nc2cccc(C3=NOC4(C3)CC(C([NH-])=O)N(C(=O)c3ccccc3)C4)c2)cc1 (protonated)
COc1ccc([N-]C(=O)Nc2cccc(C3=NO[C@@]4(C3)C[C@@H](C([NH-])=O)N(C(=O)c3ccccc3)C4)c2)cc1 (chirality)
COc1ccc([N-]C(=O)Nc2cccc(C3=NO[C@@]4(C3)C[C@@H](C([NH-])=O)N(C(=O)c3ccccc3)C4)c2)cc1 (3D coordinates assigned)
COc1ccc([N-]C(=O)Nc2cccc(C3=NO[C@@]4(C3)C[C@@H](C([NH-])=O)N(C(=O)c3ccccc3)C4)c2)cc1 (nonaromatic ring conformer: 99.58670750844531 kcal/mol)

>  <smiles>  (94) 
COc1ccc(NC(=O)Nc2cccc(C3=NOC4(C3)CC(C(N)=O)N(C(=O)c3ccccc3)C4)c2)cc1

>  <score_type>  (94) 
oracle

>  <origin>  (94) 
adg

>  <m_score__min__energy>  (94) 
-15.69

>  <m_primary>  (94) 
energy

$$$$
94:0
     RDKit          3D

 58 62  0  0  0  0  0  0  0  0999 V2000
   60.0180   35.8240   46.0600 C   0  0  0  0  0  0  0  0  0  0  0  0
   59.3850   34.4630   46.1030 C   0  0  0  0  0  0  0  0  0  0  0  0
   58.1830   34.3000   45.4460 C   0  0  0  0  0  0  0  0  0  0  0  0
   57.6050   33.0450   45.5010 C   0  0  0  0  0  0  0  0  0  0  0  0
   56.4940   32.8450   44.9060 O   0  0  0  0  0  0  0  0  0  0  0  0
   58.2090   32.0320   46.1770 N   0  0  0  0  0  0  0  0  0  0  0  0
   57.5570   30.8240   46.1560 O   0  0  0  0  0  0  0  0  0  0  0  0
   59.3640   32.1580   46.8200 C   0  0  0  0  0  0  0  0  0  0  0  0
   60.0480   31.1200   47.5950 C   0  0  0  0  0  0  0  0  0  0  0  0
   59.7180   29.7390   47.2600 C   0  0  0  0  0  0  0  0  0  0  0  0
   59.1230   28.8940   48.1710 C   0  0  0  0  0  0  0  0  0  0  0  0
   58.8230   27.5940   47.8080 C   0  0  0  0  0  0  0  0  0  0  0  0
   59.0810   27.0750   46.5820 C   0  0  0  0  0  0  0  0  0  0  0  0
   58.7870   25.7390   46.1160 C   0  0  0  0  0  0  0  0  0  0  0  0
   59.8850   24.8670   46.0160 C   0  0  0  0  0  0  0  0  0  0  0  0
   59.6600   23.5720   45.5940 C   0  0  0  0  0  0  0  0  0  0  0  0
   58.4170   23.0940   45.2670 C   0  0  0  0  0  0  0  0  0  0  0  0
   57.3460   23.9670   45.3710 C   0  0  0  0  0  0  0  0  0  0  0  0
   57.5340   25.2790   45.7910 C   0  0  0  0  0  0  0  0  0  0  0  0
   56.3350   26.1050   45.8570 C   0  0  0  0  0  0  0  0  0  0  0  0
   55.1630   25.6120   45.8230 O   0  0  0  0  0  0  0  0  0  0  0  0
   56.5280   27.5030   45.9630 N   0  0  0  0  0  0  0  0  0  0  0  0
   56.4730   28.3810   45.0570 C   0  0  0  0  0  0  0  0  0  0  0  0
   55.7370   29.4720   44.8720 N   0  0  0  0  0  0  0  0  0  0  0  0
   56.0630   30.0680   43.7440 N   0  0  0  0  0  0  0  0  0  0  0  0
   57.0220   29.3580   43.1900 N   0  0  0  0  0  0  0  0  0  0  0  0
   57.2940   28.3310   43.9590 N   0  0  0  0  0  0  0  0  0  0  0  0
   59.6870   27.9320   45.6510 C   0  0  0  0  0  0  0  0  0  0  0  0
   59.9920   29.2220   45.9860 C   0  0  0  0  0  0  0  0  0  0  0  0
   59.9700   33.4120   46.7780 C   0  0  0  0  0  0  0  0  0  0  0  0
   61.2540   33.5960   47.4470 C   0  0  0  0  0  0  0  0  0  0  0  0
   62.3780   33.3330   46.6510 C   0  0  0  0  0  0  0  0  0  0  0  0
   63.6590   33.4420   47.1280 C   0  0  0  0  0  0  0  0  0  0  0  0
   63.7970   33.8320   48.4560 C   0  0  0  0  0  0  0  0  0  0  0  0
   62.6910   34.0920   49.2420 C   0  0  0  0  0  0  0  0  0  0  0  0
   61.3890   33.9810   48.7590 C   0  0  0  0  0  0  0  0  0  0  0  0
   60.1851   36.1833   47.0862 H   0  0  0  0  0  0  0  0  0  0  0  0
   60.9807   35.7641   45.5312 H   0  0  0  0  0  0  0  0  0  0  0  0
   59.3519   36.5216   45.5312 H   0  0  0  0  0  0  0  0  0  0  0  0
   57.7064   35.1298   44.9035 H   0  0  0  0  0  0  0  0  0  0  0  0
   56.6740   30.7490   45.6600 H   0  0  0  0  0  0  0  0  0  0  0  0
   61.1303   31.2508   47.4482 H   0  0  0  0  0  0  0  0  0  0  0  0
   59.7099   31.2585   48.6325 H   0  0  0  0  0  0  0  0  0  0  0  0
   58.8874   29.2524   49.1839 H   0  0  0  0  0  0  0  0  0  0  0  0
   58.3477   26.9433   48.5568 H   0  0  0  0  0  0  0  0  0  0  0  0
   60.8998   25.2085   46.2681 H   0  0  0  0  0  0  0  0  0  0  0  0
   60.5198   22.8903   45.5163 H   0  0  0  0  0  0  0  0  0  0  0  0
   58.2753   22.0552   44.9342 H   0  0  0  0  0  0  0  0  0  0  0  0
   56.3341   23.6176   45.1180 H   0  0  0  0  0  0  0  0  0  0  0  0
   57.4630   29.6150   42.2800 H   0  0  0  0  0  0  0  0  0  0  0  0
   58.0150   27.6130   43.7490 H   0  0  0  0  0  0  0  0  0  0  0  0
   59.9191   27.5623   44.6413 H   0  0  0  0  0  0  0  0  0  0  0  0
   60.4653   29.8720   45.2354 H   0  0  0  0  0  0  0  0  0  0  0  0
   62.2265   33.0279   45.6051 H   0  0  0  0  0  0  0  0  0  0  0  0
   64.5324   33.2319   46.4932 H   0  0  0  0  0  0  0  0  0  0  0  0
   64.8035   33.9351   48.8876 H   0  0  0  0  0  0  0  0  0  0  0  0
   62.8440   34.3979   50.2875 H   0  0  0  0  0  0  0  0  0  0  0  0
   60.5156   34.1904   49.3941 H   0  0  0  0  0  0  0  0  0  0  0  0
  1  2  1  0
  2  3  2  0
  3  4  1  0
  4  5  2  0
  4  6  1  0
  6  7  1  0
  6  8  1  0
  8  9  1  0
  9 10  1  0
 10 11  2  0
 11 12  1  0
 12 13  2  0
 13 14  1  0
 14 15  2  0
 15 16  1  0
 16 17  2  0
 17 18  1  0
 18 19  2  0
 19 20  1  0
 20 21  2  0
 20 22  1  0
 22 23  2  3
 23 24  1  0
 24 25  2  0
 25 26  1  0
 26 27  1  0
 13 28  1  0
 28 29  2  0
  8 30  2  0
 30 31  1  0
 31 32  2  0
 32 33  1  0
 33 34  2  0
 34 35  1  0
 35 36  2  0
 30  2  1  0
 36 31  1  0
 29 10  1  0
 19 14  1  0
 27 23  1  0
  1 37  1  0
  1 38  1  0
  1 39  1  0
  3 40  1  0
  7 41  1  0
  9 42  1  0
  9 43  1  0
 11 44  1  0
 12 45  1  0
 15 46  1  0
 16 47  1  0
 17 48  1  0
 18 49  1  0
 26 50  1  0
 27 51  1  0
 28 52  1  0
 29 53  1  0
 32 54  1  0
 33 55  1  0
 34 56  1  0
 35 57  1  0
 36 58  1  0
M  END
>  <smiles>  (95) 
Cc1cc(=O)n(O)c(Cc2ccc(-c3ccccc3C(=O)N=c3nn[nH][nH]3)cc2)c1-c1ccccc1

>  <score_type>  (95) 
oracle

>  <origin>  (95) 
adg

>  <m_score__min__energy>  (95) 
-11.32

>  <m_primary>  (95) 
energy

$$$$
95:0
     RDKit          3D

 41 42  0  0  0  0  0  0  0  0999 V2000
   55.2940   29.1730   44.6020 N   0  0  0  0  0  0  0  0  0  0  0  0
   56.5770   29.5990   43.5240 S   0  0  0  0  0  0  0  0  0  0  0  0
   57.4770   28.4140   43.3200 O   0  0  0  0  0  0  0  0  0  0  0  0
   56.0020   30.0040   42.1960 O   0  0  0  0  0  0  0  0  0  0  0  0
   57.4940   30.9360   44.2110 C   0  0  0  0  0  0  0  0  0  0  0  0
   57.6790   32.1130   43.4730 C   0  0  0  0  0  0  0  0  0  0  0  0
   58.4160   33.1680   44.0120 C   0  0  0  0  0  0  0  0  0  0  0  0
   58.9750   33.0560   45.2880 C   0  0  0  0  0  0  0  0  0  0  0  0
   58.8080   31.8790   46.0390 C   0  0  0  0  0  0  0  0  0  0  0  0
   59.4030   31.7580   47.3900 C   0  0  0  0  0  0  0  0  0  0  0  0
   60.6380   31.9560   47.5570 O   0  0  0  0  0  0  0  0  0  0  0  0
   58.5810   31.4120   48.5120 N   0  0  0  0  0  0  0  0  0  0  0  0
   59.1060   31.1180   49.8420 C   0  0  0  0  0  0  0  0  0  0  0  0
   59.3070   29.6140   50.0280 C   0  0  0  0  0  0  0  0  0  0  0  0
   58.5810   28.8730   48.9860 N   0  0  0  0  0  0  0  0  0  0  0  0
   59.4720   27.9920   48.2160 C   0  0  0  0  0  0  0  0  0  0  0  0
   58.7400   27.2640   47.1150 C   0  0  0  0  0  0  0  0  0  0  0  0
   59.4530   26.5010   46.1760 C   0  0  0  0  0  0  0  0  0  0  0  0
   58.7730   25.8080   45.1710 C   0  0  0  0  0  0  0  0  0  0  0  0
   57.3790   25.8650   45.0970 C   0  0  0  0  0  0  0  0  0  0  0  0
   56.6570   26.6180   46.0340 C   0  0  0  0  0  0  0  0  0  0  0  0
   55.2680   26.6790   45.9750 O   0  0  0  0  0  0  0  0  0  0  0  0
   57.3370   27.3140   47.0400 C   0  0  0  0  0  0  0  0  0  0  0  0
   58.0630   30.8190   45.4870 C   0  0  0  0  0  0  0  0  0  0  0  0
   55.1540   28.1410   44.5170 H   0  0  0  0  0  0  0  0  0  0  0  0
   57.2426   32.2052   42.4675 H   0  0  0  0  0  0  0  0  0  0  0  0
   58.5575   34.0910   43.4307 H   0  0  0  0  0  0  0  0  0  0  0  0
   59.5498   33.8947   45.7079 H   0  0  0  0  0  0  0  0  0  0  0  0
   60.0717   31.6290   49.9692 H   0  0  0  0  0  0  0  0  0  0  0  0
   58.3830   31.4717   50.5917 H   0  0  0  0  0  0  0  0  0  0  0  0
   60.3796   29.3795   49.9605 H   0  0  0  0  0  0  0  0  0  0  0  0
   58.9200   29.3190   51.0145 H   0  0  0  0  0  0  0  0  0  0  0  0
   58.1270   29.5570   48.3360 H   0  0  0  0  0  0  0  0  0  0  0  0
   60.2715   28.6004   47.7681 H   0  0  0  0  0  0  0  0  0  0  0  0
   59.8813   27.2389   48.9054 H   0  0  0  0  0  0  0  0  0  0  0  0
   60.5503   26.4487   46.2318 H   0  0  0  0  0  0  0  0  0  0  0  0
   59.3372   25.2156   44.4356 H   0  0  0  0  0  0  0  0  0  0  0  0
   56.8477   25.3190   44.3035 H   0  0  0  0  0  0  0  0  0  0  0  0
   54.7890   27.0960   45.1840 H   0  0  0  0  0  0  0  0  0  0  0  0
   56.7706   27.9034   47.7761 H   0  0  0  0  0  0  0  0  0  0  0  0
   57.9263   29.8912   46.0620 H   0  0  0  0  0  0  0  0  0  0  0  0
  1  2  1  0
  2  3  2  0
  2  4  2  0
  2  5  1  0
  5  6  2  0
  6  7  1  0
  7  8  2  0
  8  9  1  0
  9 10  1  0
 10 11  2  0
 10 12  1  0
 12 13  1  0
 13 14  1  0
 14 15  1  0
 15 16  1  0
 16 17  1  0
 17 18  2  0
 18 19  1  0
 19 20  2  0
 20 21  1  0
 21 22  1  0
 21 23  2  0
  9 24  2  0
 24  5  1  0
 23 17  1  0
  1 25  1  0
  6 26  1  0
  7 27  1  0
  8 28  1  0
 13 29  1  0
 13 30  1  0
 14 31  1  0
 14 32  1  0
 15 33  1  0
 16 34  1  0
 16 35  1  0
 18 36  1  0
 19 37  1  0
 20 38  1  0
 22 39  1  0
 23 40  1  0
 24 41  1  0
M  CHG  2   1  -1  12  -1
M  END
>  <UniqueID>  (96) 
89

>  <SMILES>  (96) 
[NH-]S(=O)(=O)c1cccc(C(=O)[N-]CCNCc2cccc(O)c2)c1

>  <Energy>  (96) 
37.118297915098765

>  <Genealogy>  (96) 
[NH-]S(=O)(=O)c1cccc(C(=O)[N-]CCNCc2cccc(O)c2)c1 (protonated)
[NH-]S(=O)(=O)c1cccc(C(=O)[N-]CCNCc2cccc(O)c2)c1 (3D coordinates assigned)
[NH-]S(=O)(=O)c1cccc(C(=O)[N-]CCNCc2cccc(O)c2)c1 (optimized conformer: 37.118297915098765 kcal/mol)

>  <smiles>  (96) 
NS(=O)(=O)c1cccc(C(=O)NCCNCc2cccc(O)c2)c1

>  <score_type>  (96) 
oracle

>  <origin>  (96) 
adg

>  <m_score__min__energy>  (96) 
-12.130000000000001

>  <m_primary>  (96) 
energy

$$$$
