0:0
     RDKit          3D

 50 52  0  0  0  0  0  0  0  0999 V2000
   58.1900   27.3820   44.0500 C   0  0  0  0  0  0  0  0  0  0  0  0
   58.5790   28.2490   45.2180 C   0  0  0  0  0  0  0  0  0  0  0  0
   59.6320   27.8330   46.0500 C   0  0  0  0  0  0  0  0  0  0  0  0
   60.0370   28.6180   47.1290 C   0  0  0  0  0  0  0  0  0  0  0  0
   59.4020   29.8310   47.4010 C   0  0  0  0  0  0  0  0  0  0  0  0
   59.8710   30.6180   48.5040 N   0  0  0  0  0  0  0  0  0  0  0  0
   59.3550   32.2330   48.8760 S   0  0  0  0  0  0  0  0  0  0  0  0
   58.1070   32.1490   49.7090 O   0  0  0  0  0  0  0  0  0  0  0  0
   60.4230   32.9200   49.6770 O   0  0  0  0  0  0  0  0  0  0  0  0
   59.0410   33.1690   47.4010 C   0  0  0  0  0  0  0  0  0  0  0  0
   57.7040   33.4410   47.0660 C   0  0  0  0  0  0  0  0  0  0  0  0
   57.3820   34.0660   45.8620 C   0  0  0  0  0  0  0  0  0  0  0  0
   58.3910   34.4370   44.9750 C   0  0  0  0  0  0  0  0  0  0  0  0
   59.7260   34.1930   45.2960 C   0  0  0  0  0  0  0  0  0  0  0  0
   60.0720   33.5760   46.5110 C   0  0  0  0  0  0  0  0  0  0  0  0
   61.5060   33.3640   46.7940 C   0  0  0  0  0  0  0  0  0  0  0  0
   62.3450   34.2090   46.3810 O   0  0  0  0  0  0  0  0  0  0  0  0
   61.9410   32.2330   47.5610 N   0  0  0  0  0  0  0  0  0  0  0  0
   63.3540   31.9280   47.7710 C   0  0  0  0  0  0  0  0  0  0  0  0
   63.8400   32.5880   49.0290 C   0  0  0  0  0  0  0  0  0  0  0  0
   63.1730   33.7110   49.5530 C   0  0  0  0  0  0  0  0  0  0  0  0
   63.6090   34.2950   50.7470 C   0  0  0  0  0  0  0  0  0  0  0  0
   64.7060   33.7610   51.4290 C   0  0  0  0  0  0  0  0  0  0  0  0
   65.3680   32.6400   50.9210 C   0  0  0  0  0  0  0  0  0  0  0  0
   64.9360   32.0520   49.7270 C   0  0  0  0  0  0  0  0  0  0  0  0
   58.3500   30.2580   46.5750 C   0  0  0  0  0  0  0  0  0  0  0  0
   57.9430   29.4890   45.4720 C   0  0  0  0  0  0  0  0  0  0  0  0
   56.6420   30.1000   44.4370 S   0  0  0  0  0  0  0  0  0  0  0  0
   55.1520   29.2860   44.7730 N   0  0  0  0  0  0  0  0  0  0  0  0
   56.4410   31.5680   44.6920 O   0  0  0  0  0  0  0  0  0  0  0  0
   57.0000   29.8840   42.9930 O   0  0  0  0  0  0  0  0  0  0  0  0
   57.7660   26.4369   44.4201 H   0  0  0  0  0  0  0  0  0  0  0  0
   57.4405   27.9055   43.4383 H   0  0  0  0  0  0  0  0  0  0  0  0
   59.0794   27.1702   43.4383 H   0  0  0  0  0  0  0  0  0  0  0  0
   60.1416   26.8793   45.8484 H   0  0  0  0  0  0  0  0  0  0  0  0
   60.8634   28.2787   47.7709 H   0  0  0  0  0  0  0  0  0  0  0  0
   56.9011   33.1573   47.7624 H   0  0  0  0  0  0  0  0  0  0  0  0
   56.3298   34.2666   45.6117 H   0  0  0  0  0  0  0  0  0  0  0  0
   58.1343   34.9223   44.0218 H   0  0  0  0  0  0  0  0  0  0  0  0
   60.5173   34.4866   44.5906 H   0  0  0  0  0  0  0  0  0  0  0  0
   61.2320   31.6610   48.0710 H   0  0  0  0  0  0  0  0  0  0  0  0
   63.4827   30.8390   47.8578 H   0  0  0  0  0  0  0  0  0  0  0  0
   63.9358   32.3054   46.9171 H   0  0  0  0  0  0  0  0  0  0  0  0
   62.3060   34.1309   49.0219 H   0  0  0  0  0  0  0  0  0  0  0  0
   63.0877   35.1759   51.1498 H   0  0  0  0  0  0  0  0  0  0  0  0
   65.0485   34.2235   52.3664 H   0  0  0  0  0  0  0  0  0  0  0  0
   66.2295   32.2194   51.4603 H   0  0  0  0  0  0  0  0  0  0  0  0
   65.4563   31.1666   49.3330 H   0  0  0  0  0  0  0  0  0  0  0  0
   57.8380   31.2066   46.7943 H   0  0  0  0  0  0  0  0  0  0  0  0
   55.2880   28.7490   45.6580 H   0  0  0  0  0  0  0  0  0  0  0  0
  1  2  1  0
  2  3  2  0
  3  4  1  0
  4  5  2  0
  5  6  1  0
  6  7  1  0
  7  8  2  0
  7  9  2  0
  7 10  1  0
 10 11  2  0
 11 12  1  0
 12 13  2  0
 13 14  1  0
 14 15  2  0
 15 16  1  0
 16 17  2  0
 16 18  1  0
 18 19  1  0
 19 20  1  0
 20 21  2  0
 21 22  1  0
 22 23  2  0
 23 24  1  0
 24 25  2  0
  5 26  1  0
 26 27  2  0
 27 28  1  0
 28 29  1  0
 28 30  2  0
 28 31  2  0
 27  2  1  0
 15 10  1  0
 25 20  1  0
  1 32  1  0
  1 33  1  0
  1 34  1  0
  3 35  1  0
  4 36  1  0
 11 37  1  0
 12 38  1  0
 13 39  1  0
 14 40  1  0
 18 41  1  0
 19 42  1  0
 19 43  1  0
 21 44  1  0
 22 45  1  0
 23 46  1  0
 24 47  1  0
 25 48  1  0
 26 49  1  0
 29 50  1  0
M  CHG  2   6  -1  29  -1
M  END
>  <UniqueID>  (1) 
1

>  <SMILES>  (1) 
Cc1ccc([N-]S(=O)(=O)c2ccccc2C(=O)NCc2ccccc2)cc1S([NH-])(=O)=O

>  <Energy>  (1) 
59.702752954995255

>  <Genealogy>  (1) 
Cc1ccc([N-]S(=O)(=O)c2ccccc2C(=O)NCc2ccccc2)cc1S([NH-])(=O)=O (protonated)
Cc1ccc([N-]S(=O)(=O)c2ccccc2C(=O)NCc2ccccc2)cc1S([NH-])(=O)=O (3D coordinates assigned)
Cc1ccc([N-]S(=O)(=O)c2ccccc2C(=O)NCc2ccccc2)cc1S([NH-])(=O)=O (optimized conformer: 59.702752954995255 kcal/mol)

>  <smiles>  (1) 
Cc1ccc(NS(=O)(=O)c2ccccc2C(=O)NCc2ccccc2)cc1S(N)(=O)=O

>  <score_type>  (1) 
oracle

>  <origin>  (1) 
adg

>  <m_score__min__energy>  (1) 
-13.550000000000001

>  <m_primary>  (1) 
energy

$$$$
1:0
     RDKit          3D

 56 58  0  0  0  0  0  0  0  0999 V2000
   58.1600   27.0380   42.8340 C   0  0  0  0  0  0  0  0  0  0  0  0
   57.7970   25.9780   43.8780 C   0  0  0  0  0  0  0  0  0  0  0  0
   57.8470   26.5400   45.3050 C   0  0  0  0  0  0  0  0  0  0  0  0
   56.4850   26.9890   45.7630 C   0  0  0  0  0  0  0  0  0  0  0  0
   55.7990   26.2330   46.5040 O   0  0  0  0  0  0  0  0  0  0  0  0
   55.8920   28.1890   45.2420 N   0  0  0  0  0  0  0  0  0  0  0  0
   56.5930   29.4240   45.0470 C   0  0  0  0  0  0  0  0  0  0  0  0
   57.5030   29.8590   46.0250 C   0  0  0  0  0  0  0  0  0  0  0  0
   58.2330   31.0400   45.8380 C   0  0  0  0  0  0  0  0  0  0  0  0
   58.0750   31.7820   44.6520 C   0  0  0  0  0  0  0  0  0  0  0  0
   58.8220   32.9780   44.4170 N   0  0  0  0  0  0  0  0  0  0  0  0
   58.9130   34.2720   45.5660 S   0  0  0  0  0  0  0  0  0  0  0  0
   57.5470   34.4750   46.1670 O   0  0  0  0  0  0  0  0  0  0  0  0
   59.3110   35.5350   44.8500 O   0  0  0  0  0  0  0  0  0  0  0  0
   60.0970   33.9350   46.8300 C   0  0  0  0  0  0  0  0  0  0  0  0
   61.4650   33.8630   46.5160 C   0  0  0  0  0  0  0  0  0  0  0  0
   62.3920   33.5540   47.5110 C   0  0  0  0  0  0  0  0  0  0  0  0
   61.9730   33.3170   48.8220 C   0  0  0  0  0  0  0  0  0  0  0  0
   60.6120   33.4100   49.1480 C   0  0  0  0  0  0  0  0  0  0  0  0
   60.0900   33.1920   50.8180 S   0  0  0  0  0  0  0  0  0  0  0  0
   61.2690   33.3760   51.7240 O   0  0  0  0  0  0  0  0  0  0  0  0
   59.0360   34.2050   51.1720 O   0  0  0  0  0  0  0  0  0  0  0  0
   59.4360   31.6010   51.0510 N   0  0  0  0  0  0  0  0  0  0  0  0
   59.4380   30.5620   50.0680 C   0  0  0  0  0  0  0  0  0  0  0  0
   58.4090   29.8470   49.9520 O   0  0  0  0  0  0  0  0  0  0  0  0
   60.5940   30.3060   49.2490 N   0  0  0  0  0  0  0  0  0  0  0  0
   60.6010   29.4110   48.1220 C   0  0  0  0  0  0  0  0  0  0  0  0
   60.8230   29.9270   46.8370 C   0  0  0  0  0  0  0  0  0  0  0  0
   60.8280   29.0820   45.7220 C   0  0  0  0  0  0  0  0  0  0  0  0
   60.5830   27.7150   45.8790 C   0  0  0  0  0  0  0  0  0  0  0  0
   60.3180   27.1970   47.1490 C   0  0  0  0  0  0  0  0  0  0  0  0
   60.3200   28.0390   48.2690 C   0  0  0  0  0  0  0  0  0  0  0  0
   59.6750   33.7080   48.1480 C   0  0  0  0  0  0  0  0  0  0  0  0
   57.1790   31.3340   43.6580 C   0  0  0  0  0  0  0  0  0  0  0  0
   56.4270   30.1720   43.8630 C   0  0  0  0  0  0  0  0  0  0  0  0
   58.4760   27.9607   43.3428 H   0  0  0  0  0  0  0  0  0  0  0  0
   58.9821   26.6664   42.2047 H   0  0  0  0  0  0  0  0  0  0  0  0
   57.2827   27.2483   42.2047 H   0  0  0  0  0  0  0  0  0  0  0  0
   56.7795   25.6127   43.6751 H   0  0  0  0  0  0  0  0  0  0  0  0
   58.5324   25.1631   43.8065 H   0  0  0  0  0  0  0  0  0  0  0  0
   58.2143   25.7579   45.9857 H   0  0  0  0  0  0  0  0  0  0  0  0
   58.5205   27.4096   45.3127 H   0  0  0  0  0  0  0  0  0  0  0  0
   57.6431   29.2690   46.9427 H   0  0  0  0  0  0  0  0  0  0  0  0
   58.9284   31.3870   46.6165 H   0  0  0  0  0  0  0  0  0  0  0  0
   61.8042   34.0502   45.4865 H   0  0  0  0  0  0  0  0  0  0  0  0
   63.4617   33.4965   47.2613 H   0  0  0  0  0  0  0  0  0  0  0  0
   62.7089   33.0579   49.5974 H   0  0  0  0  0  0  0  0  0  0  0  0
   61.5110   30.7100   49.5360 H   0  0  0  0  0  0  0  0  0  0  0  0
   60.9947   31.0054   46.7046 H   0  0  0  0  0  0  0  0  0  0  0  0
   61.0249   29.4938   44.7211 H   0  0  0  0  0  0  0  0  0  0  0  0
   60.5988   27.0483   45.0042 H   0  0  0  0  0  0  0  0  0  0  0  0
   60.1070   26.1243   47.2702 H   0  0  0  0  0  0  0  0  0  0  0  0
   60.1016   27.6273   49.2654 H   0  0  0  0  0  0  0  0  0  0  0  0
   58.6053   33.7639   48.3983 H   0  0  0  0  0  0  0  0  0  0  0  0
   57.0716   31.8993   42.7205 H   0  0  0  0  0  0  0  0  0  0  0  0
   55.7062   29.8418   43.1005 H   0  0  0  0  0  0  0  0  0  0  0  0
  1  2  1  0
  2  3  1  0
  3  4  1  0
  4  5  2  0
  4  6  1  0
  6  7  1  0
  7  8  2  0
  8  9  1  0
  9 10  2  0
 10 11  1  0
 11 12  1  0
 12 13  2  0
 12 14  2  0
 12 15  1  0
 15 16  2  0
 16 17  1  0
 17 18  2  0
 18 19  1  0
 19 20  1  0
 20 21  2  0
 20 22  2  0
 20 23  1  0
 23 24  1  0
 24 25  2  0
 24 26  1  0
 26 27  1  0
 27 28  2  0
 28 29  1  0
 29 30  2  0
 30 31  1  0
 31 32  2  0
 19 33  2  0
 10 34  1  0
 34 35  2  0
 35  7  1  0
 33 15  1  0
 32 27  1  0
  1 36  1  0
  1 37  1  0
  1 38  1  0
  2 39  1  0
  2 40  1  0
  3 41  1  0
  3 42  1  0
  8 43  1  0
  9 44  1  0
 16 45  1  0
 17 46  1  0
 18 47  1  0
 26 48  1  0
 28 49  1  0
 29 50  1  0
 30 51  1  0
 31 52  1  0
 32 53  1  0
 33 54  1  0
 34 55  1  0
 35 56  1  0
M  CHG  3   6  -1  11  -1  23  -1
M  END
>  <UniqueID>  (2) 
2

>  <SMILES>  (2) 
CCCC(=O)[N-]c1ccc([N-]S(=O)(=O)c2cccc(S(=O)(=O)[N-]C(=O)Nc3ccccc3)c2)cc1

>  <Energy>  (2) 
69.62630471340313

>  <Genealogy>  (2) 
CCCC(=O)[N-]c1ccc([N-]S(=O)(=O)c2cccc(S(=O)(=O)[N-]C(=O)Nc3ccccc3)c2)cc1 (protonated)
CCCC(=O)[N-]c1ccc([N-]S(=O)(=O)c2cccc(S(=O)(=O)[N-]C(=O)Nc3ccccc3)c2)cc1 (3D coordinates assigned)
CCCC(=O)[N-]c1ccc([N-]S(=O)(=O)c2cccc(S(=O)(=O)[N-]C(=O)Nc3ccccc3)c2)cc1 (optimized conformer: 69.62630471340313 kcal/mol)

>  <smiles>  (2) 
CCCC(=O)Nc1ccc(NS(=O)(=O)c2cccc(S(=O)(=O)NC(=O)Nc3ccccc3)c2)cc1

>  <score_type>  (2) 
oracle

>  <origin>  (2) 
adg

>  <m_score__min__energy>  (2) 
-14.210000000000001

>  <m_primary>  (2) 
energy

$$$$
2:0
     RDKit          3D

 41 44  0  0  0  0  0  0  0  0999 V2000
   55.1610   26.1670   46.1030 N   0  0  0  0  0  0  0  0  0  0  0  0
   56.8830   26.2930   46.1110 S   0  0  0  0  0  0  0  0  0  0  0  0
   57.4410   25.4030   45.0350 O   0  0  0  0  0  0  0  0  0  0  0  0
   57.4210   25.8550   47.4460 O   0  0  0  0  0  0  0  0  0  0  0  0
   57.3500   27.9540   45.8080 C   0  0  0  0  0  0  0  0  0  0  0  0
   56.5700   28.8310   45.1290 N   0  0  0  0  0  0  0  0  0  0  0  0
   57.1710   30.0450   45.0470 C   0  0  0  0  0  0  0  0  0  0  0  0
   56.6230   31.1540   44.4040 C   0  0  0  0  0  0  0  0  0  0  0  0
   57.3520   32.3540   44.3850 C   0  0  0  0  0  0  0  0  0  0  0  0
   58.6200   32.4420   45.0000 C   0  0  0  0  0  0  0  0  0  0  0  0
   59.3200   33.6910   44.9470 N   0  0  0  0  0  0  0  0  0  0  0  0
   59.5800   34.7510   46.2940 S   0  0  0  0  0  0  0  0  0  0  0  0
   59.9180   36.1270   45.7930 O   0  0  0  0  0  0  0  0  0  0  0  0
   58.3180   34.8330   47.1060 O   0  0  0  0  0  0  0  0  0  0  0  0
   60.8710   34.1160   47.3100 C   0  0  0  0  0  0  0  0  0  0  0  0
   60.7630   34.1240   48.7040 C   0  0  0  0  0  0  0  0  0  0  0  0
   61.8010   33.6140   49.4870 C   0  0  0  0  0  0  0  0  0  0  0  0
   62.9460   33.0830   48.8650 C   0  0  0  0  0  0  0  0  0  0  0  0
   64.0710   32.5170   49.6540 C   0  0  0  0  0  0  0  0  0  0  0  0
   65.3490   33.0950   49.5670 C   0  0  0  0  0  0  0  0  0  0  0  0
   66.4210   32.5670   50.2900 C   0  0  0  0  0  0  0  0  0  0  0  0
   66.2330   31.4460   51.0980 C   0  0  0  0  0  0  0  0  0  0  0  0
   64.9750   30.8470   51.1800 C   0  0  0  0  0  0  0  0  0  0  0  0
   63.8990   31.3750   50.4590 C   0  0  0  0  0  0  0  0  0  0  0  0
   63.0270   33.1030   47.5050 N   0  0  0  0  0  0  0  0  0  0  0  0
   62.0310   33.5980   46.7240 C   0  0  0  0  0  0  0  0  0  0  0  0
   59.1610   31.3070   45.6430 C   0  0  0  0  0  0  0  0  0  0  0  0
   58.4140   30.1320   45.6500 C   0  0  0  0  0  0  0  0  0  0  0  0
   58.8050   28.6460   46.3280 S   0  0  0  0  0  0  0  0  0  0  0  0
   54.7830   27.0840   46.4160 H   0  0  0  0  0  0  0  0  0  0  0  0
   55.6372   31.0901   43.9202 H   0  0  0  0  0  0  0  0  0  0  0  0
   56.9295   33.2375   43.8842 H   0  0  0  0  0  0  0  0  0  0  0  0
   59.8610   34.5317   49.1837 H   0  0  0  0  0  0  0  0  0  0  0  0
   61.7238   33.6274   50.5842 H   0  0  0  0  0  0  0  0  0  0  0  0
   65.5067   33.9725   48.9227 H   0  0  0  0  0  0  0  0  0  0  0  0
   67.4139   33.0355   50.2221 H   0  0  0  0  0  0  0  0  0  0  0  0
   67.0766   31.0337   51.6710 H   0  0  0  0  0  0  0  0  0  0  0  0
   64.8296   29.9587   51.8123 H   0  0  0  0  0  0  0  0  0  0  0  0
   62.9115   30.8945   50.5214 H   0  0  0  0  0  0  0  0  0  0  0  0
   62.1371   33.5914   45.6291 H   0  0  0  0  0  0  0  0  0  0  0  0
   60.1482   31.3501   46.1264 H   0  0  0  0  0  0  0  0  0  0  0  0
  1  2  1  0
  2  3  2  0
  2  4  2  0
  2  5  1  0
  5  6  2  0
  6  7  1  0
  7  8  2  0
  8  9  1  0
  9 10  2  0
 10 11  1  0
 11 12  1  0
 12 13  2  0
 12 14  2  0
 12 15  1  0
 15 16  2  0
 16 17  1  0
 17 18  2  0
 18 19  1  0
 19 20  2  0
 20 21  1  0
 21 22  2  0
 22 23  1  0
 23 24  2  0
 18 25  1  0
 25 26  2  0
 10 27  1  0
 27 28  2  0
 28 29  1  0
 29  5  1  0
 28  7  1  0
 26 15  1  0
 24 19  1  0
  1 30  1  0
  8 31  1  0
  9 32  1  0
 16 33  1  0
 17 34  1  0
 20 35  1  0
 21 36  1  0
 22 37  1  0
 23 38  1  0
 24 39  1  0
 26 40  1  0
 27 41  1  0
M  CHG  2   1  -1  11  -1
M  END
>  <UniqueID>  (3) 
3

>  <SMILES>  (3) 
[NH-]S(=O)(=O)c1nc2ccc([N-]S(=O)(=O)c3ccc(-c4ccccc4)nc3)cc2s1

>  <Energy>  (3) 
87.5576535749978

>  <Genealogy>  (3) 
[NH-]S(=O)(=O)c1nc2ccc([N-]S(=O)(=O)c3ccc(-c4ccccc4)nc3)cc2s1 (protonated)
[NH-]S(=O)(=O)c1nc2ccc([N-]S(=O)(=O)c3ccc(-c4ccccc4)nc3)cc2s1 (3D coordinates assigned)
[NH-]S(=O)(=O)c1nc2ccc([N-]S(=O)(=O)c3ccc(-c4ccccc4)nc3)cc2s1 (optimized conformer: 87.5576535749978 kcal/mol)

>  <smiles>  (3) 
NS(=O)(=O)c1nc2ccc(NS(=O)(=O)c3ccc(-c4ccccc4)nc3)cc2s1

>  <score_type>  (3) 
oracle

>  <origin>  (3) 
adg

>  <m_score__min__energy>  (3) 
-13.56

>  <m_primary>  (3) 
energy

$$$$
3:0
     RDKit          3D

 52 54  0  0  0  0  0  0  0  0999 V2000
   58.1600   27.8270   43.4400 C   0  0  0  0  0  0  0  0  0  0  0  0
   57.8480   29.1860   43.9910 C   0  0  0  0  0  0  0  0  0  0  0  0
   58.8700   29.9530   44.5700 C   0  0  0  0  0  0  0  0  0  0  0  0
   58.5990   31.2340   45.0580 C   0  0  0  0  0  0  0  0  0  0  0  0
   57.3090   31.7750   44.9480 C   0  0  0  0  0  0  0  0  0  0  0  0
   57.0580   33.1330   45.4590 C   0  0  0  0  0  0  0  0  0  0  0  0
   57.7820   34.2200   45.1630 C   0  0  0  0  0  0  0  0  0  0  0  0
   59.3420   34.6520   45.8710 S   0  0  0  0  0  0  0  0  0  0  0  0
   59.6250   36.1000   45.5930 O   0  0  0  0  0  0  0  0  0  0  0  0
   60.4070   33.8160   45.2200 O   0  0  0  0  0  0  0  0  0  0  0  0
   59.4030   34.3940   47.5860 N   0  0  0  0  0  0  0  0  0  0  0  0
   60.3250   33.5450   48.2770 C   0  0  0  0  0  0  0  0  0  0  0  0
   61.5970   34.0510   48.5730 C   0  0  0  0  0  0  0  0  0  0  0  0
   62.5530   33.2410   49.1860 C   0  0  0  0  0  0  0  0  0  0  0  0
   62.2430   31.9220   49.5210 C   0  0  0  0  0  0  0  0  0  0  0  0
   60.9660   31.4090   49.2540 C   0  0  0  0  0  0  0  0  0  0  0  0
   60.5770   29.7480   49.6950 S   0  0  0  0  0  0  0  0  0  0  0  0
   61.5920   29.2550   50.6890 O   0  0  0  0  0  0  0  0  0  0  0  0
   59.2270   29.6750   50.3520 O   0  0  0  0  0  0  0  0  0  0  0  0
   60.6470   28.7310   48.2890 N   0  0  0  0  0  0  0  0  0  0  0  0
   59.5720   27.8990   47.8190 C   0  0  0  0  0  0  0  0  0  0  0  0
   59.6520   26.4940   47.8300 C   0  0  0  0  0  0  0  0  0  0  0  0
   58.6190   25.7220   47.2910 C   0  0  0  0  0  0  0  0  0  0  0  0
   57.4860   26.3360   46.7460 C   0  0  0  0  0  0  0  0  0  0  0  0
   56.1820   25.3540   46.0870 S   0  0  0  0  0  0  0  0  0  0  0  0
   54.7610   26.3210   45.9080 N   0  0  0  0  0  0  0  0  0  0  0  0
   56.5820   24.8060   44.7450 O   0  0  0  0  0  0  0  0  0  0  0  0
   55.8970   24.2050   47.0110 O   0  0  0  0  0  0  0  0  0  0  0  0
   57.3910   27.7330   46.7500 C   0  0  0  0  0  0  0  0  0  0  0  0
   58.4300   28.5070   47.2730 C   0  0  0  0  0  0  0  0  0  0  0  0
   60.0080   32.2190   48.6260 C   0  0  0  0  0  0  0  0  0  0  0  0
   56.2780   30.9950   44.4030 C   0  0  0  0  0  0  0  0  0  0  0  0
   56.5490   29.7130   43.9140 C   0  0  0  0  0  0  0  0  0  0  0  0
   58.3216   27.1232   44.2698 H   0  0  0  0  0  0  0  0  0  0  0  0
   57.3183   27.4794   42.8230 H   0  0  0  0  0  0  0  0  0  0  0  0
   59.0690   27.8813   42.8230 H   0  0  0  0  0  0  0  0  0  0  0  0
   59.8889   29.5443   44.6401 H   0  0  0  0  0  0  0  0  0  0  0  0
   59.4005   31.8209   45.5305 H   0  0  0  0  0  0  0  0  0  0  0  0
   56.2048   33.2656   46.1406 H   0  0  0  0  0  0  0  0  0  0  0  0
   57.3675   34.9067   44.4102 H   0  0  0  0  0  0  0  0  0  0  0  0
   61.8435   35.0929   48.3207 H   0  0  0  0  0  0  0  0  0  0  0  0
   63.5532   33.6426   49.4058 H   0  0  0  0  0  0  0  0  0  0  0  0
   63.0026   31.2835   49.9957 H   0  0  0  0  0  0  0  0  0  0  0  0
   61.4750   28.8700   47.6660 H   0  0  0  0  0  0  0  0  0  0  0  0
   60.5332   26.0002   48.2656 H   0  0  0  0  0  0  0  0  0  0  0  0
   58.6973   24.6248   47.2953 H   0  0  0  0  0  0  0  0  0  0  0  0
   54.8180   27.0820   46.6230 H   0  0  0  0  0  0  0  0  0  0  0  0
   56.4954   28.2227   46.3400 H   0  0  0  0  0  0  0  0  0  0  0  0
   58.3526   29.6042   47.2569 H   0  0  0  0  0  0  0  0  0  0  0  0
   59.0079   31.8172   48.4061 H   0  0  0  0  0  0  0  0  0  0  0  0
   55.2534   31.3930   44.3602 H   0  0  0  0  0  0  0  0  0  0  0  0
   55.7410   29.1151   43.4672 H   0  0  0  0  0  0  0  0  0  0  0  0
  1  2  1  0
  2  3  2  0
  3  4  1  0
  4  5  2  0
  5  6  1  0
  6  7  2  3
  7  8  1  0
  8  9  2  0
  8 10  2  0
  8 11  1  0
 11 12  1  0
 12 13  2  0
 13 14  1  0
 14 15  2  0
 15 16  1  0
 16 17  1  0
 17 18  2  0
 17 19  2  0
 17 20  1  0
 20 21  1  0
 21 22  2  0
 22 23  1  0
 23 24  2  0
 24 25  1  0
 25 26  1  0
 25 27  2  0
 25 28  2  0
 24 29  1  0
 29 30  2  0
 16 31  2  0
  5 32  1  0
 32 33  2  0
 33  2  1  0
 31 12  1  0
 30 21  1  0
  1 34  1  0
  1 35  1  0
  1 36  1  0
  3 37  1  0
  4 38  1  0
  6 39  1  0
  7 40  1  0
 13 41  1  0
 14 42  1  0
 15 43  1  0
 20 44  1  0
 22 45  1  0
 23 46  1  0
 26 47  1  0
 29 48  1  0
 30 49  1  0
 31 50  1  0
 32 51  1  0
 33 52  1  0
M  CHG  2  11  -1  26  -1
M  END
>  <UniqueID>  (4) 
4

>  <SMILES>  (4) 
Cc1ccc(C=CS(=O)(=O)[N-]c2cccc(S(=O)(=O)Nc3ccc(S([NH-])(=O)=O)cc3)c2)cc1

>  <Energy>  (4) 
60.629495136766735

>  <Genealogy>  (4) 
Cc1ccc(C=CS(=O)(=O)[N-]c2cccc(S(=O)(=O)Nc3ccc(S([NH-])(=O)=O)cc3)c2)cc1 (protonated)
Cc1ccc(C=CS(=O)(=O)[N-]c2cccc(S(=O)(=O)Nc3ccc(S([NH-])(=O)=O)cc3)c2)cc1 (3D coordinates assigned)
Cc1ccc(C=CS(=O)(=O)[N-]c2cccc(S(=O)(=O)Nc3ccc(S([NH-])(=O)=O)cc3)c2)cc1 (optimized conformer: 60.629495136766735 kcal/mol)

>  <smiles>  (4) 
Cc1ccc(C=CS(=O)(=O)Nc2cccc(S(=O)(=O)Nc3ccc(S(N)(=O)=O)cc3)c2)cc1

>  <score_type>  (4) 
oracle

>  <origin>  (4) 
adg

>  <m_score__min__energy>  (4) 
-13.94

>  <m_primary>  (4) 
energy

$$$$
4:0
     RDKit          3D

 40 42  0  0  0  0  0  0  0  0999 V2000
   58.3529   31.1729   49.9993 H   0  0  0  0  0  0  0  0  0  0  0  0
   59.0330   30.7070   49.2710 C   0  0  0  0  0  0  0  0  0  0  0  0
   59.6085   31.3356   48.5756 H   0  0  0  0  0  0  0  0  0  0  0  0
   59.1600   29.3770   49.2310 C   0  0  0  0  0  0  0  0  0  0  0  0
   58.5771   28.7632   49.9335 H   0  0  0  0  0  0  0  0  0  0  0  0
   60.0770   28.6960   48.2530 C   0  0  0  0  0  0  0  0  0  0  0  0
   60.4164   29.4269   47.5043 H   0  0  0  0  0  0  0  0  0  0  0  0
   60.9404   28.2861   48.7975 H   0  0  0  0  0  0  0  0  0  0  0  0
   59.3770   27.6030   47.5780 N   0  0  0  0  0  0  0  0  0  0  0  0
   58.3130   27.7460   46.8450 C   0  0  0  0  0  0  0  0  0  0  0  0
   57.4300   26.7230   46.7470 N   0  0  0  0  0  0  0  0  0  0  0  0
   56.3100   26.8420   45.9910 C   0  0  0  0  0  0  0  0  0  0  0  0
   55.4850   25.8340   45.9360 N   0  0  0  0  0  0  0  0  0  0  0  0
   55.7420   24.5330   45.3840 C   0  0  0  0  0  0  0  0  0  0  0  0
   56.6360   24.4080   44.3140 C   0  0  0  0  0  0  0  0  0  0  0  0
   57.1558   25.2973   43.9280 H   0  0  0  0  0  0  0  0  0  0  0  0
   56.8710   23.1580   43.7340 C   0  0  0  0  0  0  0  0  0  0  0  0
   57.5871   23.0633   42.9044 H   0  0  0  0  0  0  0  0  0  0  0  0
   56.1970   22.0280   44.2070 C   0  0  0  0  0  0  0  0  0  0  0  0
   56.3916   21.0431   43.7575 H   0  0  0  0  0  0  0  0  0  0  0  0
   55.2760   22.1500   45.2510 C   0  0  0  0  0  0  0  0  0  0  0  0
   54.7388   21.2625   45.6167 H   0  0  0  0  0  0  0  0  0  0  0  0
   55.0370   23.4000   45.8310 C   0  0  0  0  0  0  0  0  0  0  0  0
   54.2963   23.4978   46.6384 H   0  0  0  0  0  0  0  0  0  0  0  0
   56.0580   28.0220   45.3450 N   0  0  0  0  0  0  0  0  0  0  0  0
   55.1440   28.1680   44.8710 H   0  0  0  0  0  0  0  0  0  0  0  0
   56.9630   29.0460   45.4120 C   0  0  0  0  0  0  0  0  0  0  0  0
   56.7720   30.1790   44.7940 N   0  0  0  0  0  0  0  0  0  0  0  0
   57.4670   31.4140   45.0200 C   0  0  0  0  0  0  0  0  0  0  0  0
   57.7690   31.8540   46.3220 C   0  0  0  0  0  0  0  0  0  0  0  0
   57.5011   31.2298   47.1872 H   0  0  0  0  0  0  0  0  0  0  0  0
   58.4080   33.0810   46.5200 C   0  0  0  0  0  0  0  0  0  0  0  0
   58.6608   33.4110   47.5384 H   0  0  0  0  0  0  0  0  0  0  0  0
   58.7260   33.8890   45.4250 C   0  0  0  0  0  0  0  0  0  0  0  0
   59.2379   34.8501   45.5806 H   0  0  0  0  0  0  0  0  0  0  0  0
   58.3930   33.4750   44.1310 C   0  0  0  0  0  0  0  0  0  0  0  0
   58.6334   34.1164   43.2703 H   0  0  0  0  0  0  0  0  0  0  0  0
   57.7550   32.2470   43.9300 C   0  0  0  0  0  0  0  0  0  0  0  0
   57.4781   31.9335   42.9126 H   0  0  0  0  0  0  0  0  0  0  0  0
   58.0750   28.9030   46.1750 N   0  0  0  0  0  0  0  0  0  0  0  0
  1  2  1  0
  2  3  1  0
  2  4  2  0
  4  5  1  0
  4  6  1  0
  6  7  1  0
  6  8  1  0
  6  9  1  0
  9 10  2  3
 10 11  1  0
 11 12  1  0
 12 13  2  3
 13 14  1  0
 14 15  2  0
 15 16  1  0
 15 17  1  0
 17 18  1  0
 17 19  2  0
 19 20  1  0
 19 21  1  0
 21 22  1  0
 21 23  2  0
 23 24  1  0
 12 25  1  0
 25 26  1  0
 25 27  1  0
 27 28  2  0
 28 29  1  0
 29 30  2  0
 30 31  1  0
 30 32  1  0
 32 33  1  0
 32 34  2  0
 34 35  1  0
 34 36  1  0
 36 37  1  0
 36 38  2  0
 38 39  1  0
 27 40  1  0
 40 10  1  0
 23 14  1  0
 38 29  1  0
M  CHG  2  11  -1  40  -1
M  END
>  <UniqueID>  (5) 
5

>  <SMILES>  (5) 
C=CCN=c1[n-]c(=Nc2ccccc2)[nH]/c(=N\c2ccccc2)[n-]1

>  <Energy>  (5) 
56.9680836349468

>  <Genealogy>  (5) 
C=CCN=c1[n-]c(=Nc2ccccc2)[nH]c(=Nc2ccccc2)[n-]1 (protonated)
C=CCN=c1[n-]c(=Nc2ccccc2)[nH]/c(=N\c2ccccc2)[n-]1 (cis-trans isomerization)
C=CCN=c1[n-]c(=Nc2ccccc2)[nH]/c(=N\c2ccccc2)[n-]1 (3D coordinates assigned)
C=CCN=c1[n-]c(=Nc2ccccc2)[nH]/c(=N\c2ccccc2)[n-]1 (optimized conformer: 56.9680836349468 kcal/mol)

>  <smiles>  (5) 
C=CCN=c1[nH]c(=Nc2ccccc2)[nH]c(=Nc2ccccc2)[nH]1

>  <score_type>  (5) 
oracle

>  <origin>  (5) 
adg

>  <m_score__min__energy>  (5) 
-10.49

>  <m_primary>  (5) 
energy

$$$$
5:0
     RDKit          3D

 34 36  0  0  0  0  0  0  0  0999 V2000
   57.8420   32.7560   43.7750 O   0  0  0  0  0  0  0  0  0  0  0  0
   57.3490   32.3400   44.8580 C   0  0  0  0  0  0  0  0  0  0  0  0
   57.7800   32.9490   46.1510 C   0  0  0  0  0  0  0  0  0  0  0  0
   58.8720   32.1560   46.7110 N   0  0  0  0  0  0  0  0  0  0  0  0
   58.6890   31.0010   47.3440 N   0  0  0  0  0  0  0  0  0  0  0  0
   59.8750   30.6070   47.8680 C   0  0  0  0  0  0  0  0  0  0  0  0
   60.8200   31.5640   47.5670 C   0  0  0  0  0  0  0  0  0  0  0  0
   62.1680   31.6770   47.8960 C   0  0  0  0  0  0  0  0  0  0  0  0
   62.8500   32.8260   47.4520 C   0  0  0  0  0  0  0  0  0  0  0  0
   62.1740   33.8180   46.7060 C   0  0  0  0  0  0  0  0  0  0  0  0
   60.8080   33.6740   46.3980 C   0  0  0  0  0  0  0  0  0  0  0  0
   60.1620   32.5200   46.8470 C   0  0  0  0  0  0  0  0  0  0  0  0
   56.4750   31.2080   44.8690 N   0  0  0  0  0  0  0  0  0  0  0  0
   56.6670   30.0570   43.9970 C   0  0  0  0  0  0  0  0  0  0  0  0
   57.6630   29.1190   44.6270 C   0  0  0  0  0  0  0  0  0  0  0  0
   59.0400   29.3670   44.4990 C   0  0  0  0  0  0  0  0  0  0  0  0
   59.9670   28.5590   45.1650 C   0  0  0  0  0  0  0  0  0  0  0  0
   59.5270   27.5010   45.9660 C   0  0  0  0  0  0  0  0  0  0  0  0
   58.1600   27.2500   46.1020 C   0  0  0  0  0  0  0  0  0  0  0  0
   57.2280   28.0570   45.4420 C   0  0  0  0  0  0  0  0  0  0  0  0
   55.9030   27.8180   45.6180 F   0  0  0  0  0  0  0  0  0  0  0  0
   58.1243   33.9791   45.9766 H   0  0  0  0  0  0  0  0  0  0  0  0
   56.9342   32.9646   46.8541 H   0  0  0  0  0  0  0  0  0  0  0  0
   60.0529   29.6820   48.4361 H   0  0  0  0  0  0  0  0  0  0  0  0
   62.6805   30.8986   48.4803 H   0  0  0  0  0  0  0  0  0  0  0  0
   63.9170   32.9525   47.6875 H   0  0  0  0  0  0  0  0  0  0  0  0
   62.7196   34.7096   46.3634 H   0  0  0  0  0  0  0  0  0  0  0  0
   60.2689   34.4425   45.8245 H   0  0  0  0  0  0  0  0  0  0  0  0
   55.7080   29.5364   43.8584 H   0  0  0  0  0  0  0  0  0  0  0  0
   57.0428   30.3927   43.0192 H   0  0  0  0  0  0  0  0  0  0  0  0
   59.3904   30.2003   43.8722 H   0  0  0  0  0  0  0  0  0  0  0  0
   61.0439   28.7562   45.0585 H   0  0  0  0  0  0  0  0  0  0  0  0
   60.2575   26.8663   46.4890 H   0  0  0  0  0  0  0  0  0  0  0  0
   57.8154   26.4152   46.7300 H   0  0  0  0  0  0  0  0  0  0  0  0
  1  2  2  0
  2  3  1  0
  3  4  1  0
  4  5  1  0
  5  6  2  0
  6  7  1  0
  7  8  2  0
  8  9  1  0
  9 10  2  0
 10 11  1  0
 11 12  2  0
  2 13  1  0
 13 14  1  0
 14 15  1  0
 15 16  2  0
 16 17  1  0
 17 18  2  0
 18 19  1  0
 19 20  2  0
 20 21  1  0
 12  4  1  0
 20 15  1  0
 12  7  1  0
  3 22  1  0
  3 23  1  0
  6 24  1  0
  8 25  1  0
  9 26  1  0
 10 27  1  0
 11 28  1  0
 14 29  1  0
 14 30  1  0
 16 31  1  0
 17 32  1  0
 18 33  1  0
 19 34  1  0
M  CHG  1  13  -1
M  END
>  <UniqueID>  (6) 
6

>  <SMILES>  (6) 
O=C(Cn1ncc2ccccc21)[N-]Cc1ccccc1F

>  <Energy>  (6) 
68.75927871203345

>  <Genealogy>  (6) 
O=C(Cn1ncc2ccccc21)[N-]Cc1ccccc1F (protonated)
O=C(Cn1ncc2ccccc21)[N-]Cc1ccccc1F (3D coordinates assigned)
O=C(Cn1ncc2ccccc21)[N-]Cc1ccccc1F (optimized conformer: 68.75927871203345 kcal/mol)

>  <smiles>  (6) 
O=C(Cn1ncc2ccccc21)NCc1ccccc1F

>  <score_type>  (6) 
oracle

>  <origin>  (6) 
adg

>  <m_score__min__energy>  (6) 
-9.2400000000000002

>  <m_primary>  (6) 
energy

$$$$
6:0
     RDKit          3D

 47 48  0  0  0  0  0  0  0  0999 V2000
   61.7930   32.7750   47.4850 C   0  0  0  0  0  0  0  0  0  0  0  0
   61.2840   32.6810   48.8600 N   0  0  0  0  0  0  0  0  0  0  0  0
   62.1210   33.4830   49.7620 C   0  0  0  0  0  0  0  0  0  0  0  0
   59.6430   33.2740   48.9150 S   0  0  0  0  0  0  0  0  0  0  0  0
   59.5870   34.5480   49.7150 O   0  0  0  0  0  0  0  0  0  0  0  0
   58.7520   32.2530   49.5660 O   0  0  0  0  0  0  0  0  0  0  0  0
   59.0590   33.5610   47.2780 C   0  0  0  0  0  0  0  0  0  0  0  0
   59.3640   34.7510   46.6050 C   0  0  0  0  0  0  0  0  0  0  0  0
   58.8850   34.9670   45.3100 C   0  0  0  0  0  0  0  0  0  0  0  0
   58.1080   33.9930   44.6770 C   0  0  0  0  0  0  0  0  0  0  0  0
   57.8130   32.7850   45.3330 C   0  0  0  0  0  0  0  0  0  0  0  0
   56.9980   31.7730   44.7160 N   0  0  0  0  0  0  0  0  0  0  0  0
   57.3340   31.0970   43.4940 C   0  0  0  0  0  0  0  0  0  0  0  0
   58.4760   31.2320   42.9750 O   0  0  0  0  0  0  0  0  0  0  0  0
   56.3560   30.1450   42.8770 C   0  0  0  0  0  0  0  0  0  0  0  0
   55.2980   29.7300   43.9020 C   0  0  0  0  0  0  0  0  0  0  0  0
   55.8940   29.6260   45.2350 N   0  0  0  0  0  0  0  0  0  0  0  0
   56.9910   28.2780   45.3310 S   0  0  0  0  0  0  0  0  0  0  0  0
   56.3110   27.1040   45.9790 O   0  0  0  0  0  0  0  0  0  0  0  0
   57.4070   27.8820   43.9430 O   0  0  0  0  0  0  0  0  0  0  0  0
   58.4260   28.7320   46.2500 C   0  0  0  0  0  0  0  0  0  0  0  0
   58.5170   28.4450   47.6220 C   0  0  0  0  0  0  0  0  0  0  0  0
   59.6510   28.8260   48.3440 C   0  0  0  0  0  0  0  0  0  0  0  0
   60.6990   29.4940   47.7040 C   0  0  0  0  0  0  0  0  0  0  0  0
   60.6110   29.7850   46.3390 C   0  0  0  0  0  0  0  0  0  0  0  0
   59.4770   29.4060   45.6140 C   0  0  0  0  0  0  0  0  0  0  0  0
   58.2770   32.5870   46.6430 C   0  0  0  0  0  0  0  0  0  0  0  0
   62.8745   32.9747   47.5072 H   0  0  0  0  0  0  0  0  0  0  0  0
   61.6059   31.8271   46.9592 H   0  0  0  0  0  0  0  0  0  0  0  0
   61.2797   33.5935   46.9592 H   0  0  0  0  0  0  0  0  0  0  0  0
   61.8701   33.2426   50.8057 H   0  0  0  0  0  0  0  0  0  0  0  0
   63.1813   33.2550   49.5779 H   0  0  0  0  0  0  0  0  0  0  0  0
   61.9385   34.5520   49.5779 H   0  0  0  0  0  0  0  0  0  0  0  0
   59.9817   35.5169   47.0967 H   0  0  0  0  0  0  0  0  0  0  0  0
   59.1202   35.9060   44.7876 H   0  0  0  0  0  0  0  0  0  0  0  0
   57.7256   34.1722   43.6613 H   0  0  0  0  0  0  0  0  0  0  0  0
   56.1610   31.4330   45.2410 H   0  0  0  0  0  0  0  0  0  0  0  0
   55.8625   30.6341   42.0242 H   0  0  0  0  0  0  0  0  0  0  0  0
   56.8956   29.2486   42.5375 H   0  0  0  0  0  0  0  0  0  0  0  0
   54.4963   30.4829   43.9209 H   0  0  0  0  0  0  0  0  0  0  0  0
   54.8885   28.7499   43.6161 H   0  0  0  0  0  0  0  0  0  0  0  0
   57.6942   27.9195   48.1288 H   0  0  0  0  0  0  0  0  0  0  0  0
   59.7192   28.5998   49.4183 H   0  0  0  0  0  0  0  0  0  0  0  0
   61.5921   29.7905   48.2736 H   0  0  0  0  0  0  0  0  0  0  0  0
   61.4345   30.3124   45.8353 H   0  0  0  0  0  0  0  0  0  0  0  0
   59.4098   29.6377   44.5408 H   0  0  0  0  0  0  0  0  0  0  0  0
   58.0243   31.6585   47.1760 H   0  0  0  0  0  0  0  0  0  0  0  0
  1  2  1  0
  2  3  1  0
  2  4  1  0
  4  5  2  0
  4  6  2  0
  4  7  1  0
  7  8  2  0
  8  9  1  0
  9 10  2  0
 10 11  1  0
 11 12  1  0
 12 13  1  0
 13 14  2  0
 13 15  1  0
 15 16  1  0
 16 17  1  0
 17 18  1  0
 18 19  2  0
 18 20  2  0
 18 21  1  0
 21 22  2  0
 22 23  1  0
 23 24  2  0
 24 25  1  0
 25 26  2  0
 11 27  2  0
 27  7  1  0
 26 21  1  0
  1 28  1  0
  1 29  1  0
  1 30  1  0
  3 31  1  0
  3 32  1  0
  3 33  1  0
  8 34  1  0
  9 35  1  0
 10 36  1  0
 12 37  1  0
 15 38  1  0
 15 39  1  0
 16 40  1  0
 16 41  1  0
 22 42  1  0
 23 43  1  0
 24 44  1  0
 25 45  1  0
 26 46  1  0
 27 47  1  0
M  CHG  1  17  -1
M  END
>  <UniqueID>  (7) 
7

>  <SMILES>  (7) 
CN(C)S(=O)(=O)c1cccc(NC(=O)CC[N-]S(=O)(=O)c2ccccc2)c1

>  <Energy>  (7) 
43.98611027476547

>  <Genealogy>  (7) 
CN(C)S(=O)(=O)c1cccc(NC(=O)CC[N-]S(=O)(=O)c2ccccc2)c1 (protonated)
CN(C)S(=O)(=O)c1cccc(NC(=O)CC[N-]S(=O)(=O)c2ccccc2)c1 (3D coordinates assigned)
CN(C)S(=O)(=O)c1cccc(NC(=O)CC[N-]S(=O)(=O)c2ccccc2)c1 (optimized conformer: 43.98611027476547 kcal/mol)

>  <smiles>  (7) 
CN(C)S(=O)(=O)c1cccc(NC(=O)CCNS(=O)(=O)c2ccccc2)c1

>  <score_type>  (7) 
oracle

>  <origin>  (7) 
adg

>  <m_score__min__energy>  (7) 
-10.23

>  <m_primary>  (7) 
energy

$$$$
7:0
     RDKit          3D

 52 55  0  0  0  0  0  0  0  0999 V2000
   56.8920   22.8438   46.7428 H   0  0  0  0  0  0  0  0  0  0  0  0
   56.7750   23.9100   46.4990 C   0  0  0  0  0  0  0  0  0  0  0  0
   57.8650   24.7070   46.3710 N   0  0  0  0  0  0  0  0  0  0  0  0
   57.7590   26.0340   46.0720 C   0  0  0  0  0  0  0  0  0  0  0  0
   58.9210   26.8000   45.9500 O   0  0  0  0  0  0  0  0  0  0  0  0
   60.1850   26.3820   46.4500 C   0  0  0  0  0  0  0  0  0  0  0  0
   60.1647   26.3887   47.5498 H   0  0  0  0  0  0  0  0  0  0  0  0
   60.4020   25.3643   46.0935 H   0  0  0  0  0  0  0  0  0  0  0  0
   60.9660   27.0697   46.0935 H   0  0  0  0  0  0  0  0  0  0  0  0
   56.4660   26.5930   45.8940 C   0  0  0  0  0  0  0  0  0  0  0  0
   56.2360   27.8480   45.6180 N   0  0  0  0  0  0  0  0  0  0  0  0
   57.0080   28.8940   44.4630 S   0  0  0  0  0  0  0  0  0  0  0  0
   55.9470   29.6190   43.6840 O   0  0  0  0  0  0  0  0  0  0  0  0
   57.8230   28.0680   43.5060 O   0  0  0  0  0  0  0  0  0  0  0  0
   58.0050   30.0910   45.2830 C   0  0  0  0  0  0  0  0  0  0  0  0
   59.0820   29.6680   46.0960 C   0  0  0  0  0  0  0  0  0  0  0  0
   59.2756   28.5932   46.2277 H   0  0  0  0  0  0  0  0  0  0  0  0
   59.9070   30.6070   46.7370 C   0  0  0  0  0  0  0  0  0  0  0  0
   60.7526   30.2850   47.3625 H   0  0  0  0  0  0  0  0  0  0  0  0
   59.6210   31.9610   46.5560 C   0  0  0  0  0  0  0  0  0  0  0  0
   60.2620   33.1010   47.0140 C   0  0  0  0  0  0  0  0  0  0  0  0
   61.4330   33.1920   47.9110 C   0  0  0  0  0  0  0  0  0  0  0  0
   62.7000   32.8520   47.4170 C   0  0  0  0  0  0  0  0  0  0  0  0
   62.8077   32.5231   46.3728 H   0  0  0  0  0  0  0  0  0  0  0  0
   63.8260   32.9270   48.2380 C   0  0  0  0  0  0  0  0  0  0  0  0
   64.8108   32.6355   47.8442 H   0  0  0  0  0  0  0  0  0  0  0  0
   63.7080   33.3730   49.5650 C   0  0  0  0  0  0  0  0  0  0  0  0
   64.9110   33.4230   50.4750 C   0  0  0  0  0  0  0  0  0  0  0  0
   64.8740   34.5710   51.2470 F   0  0  0  0  0  0  0  0  0  0  0  0
   64.8960   32.3190   51.3100 F   0  0  0  0  0  0  0  0  0  0  0  0
   66.0900   33.4230   49.7520 F   0  0  0  0  0  0  0  0  0  0  0  0
   62.4400   33.7090   50.0640 C   0  0  0  0  0  0  0  0  0  0  0  0
   62.3362   34.0303   51.1109 H   0  0  0  0  0  0  0  0  0  0  0  0
   61.2980   33.6400   49.2410 C   0  0  0  0  0  0  0  0  0  0  0  0
   60.0290   34.0260   49.7050 O   0  0  0  0  0  0  0  0  0  0  0  0
   59.5170   33.7390   51.0030 C   0  0  0  0  0  0  0  0  0  0  0  0
   60.2095   34.1272   51.7644 H   0  0  0  0  0  0  0  0  0  0  0  0
   58.5339   34.2175   51.1234 H   0  0  0  0  0  0  0  0  0  0  0  0
   59.4122   32.6506   51.1234 H   0  0  0  0  0  0  0  0  0  0  0  0
   59.5870   34.1730   46.4360 C   0  0  0  0  0  0  0  0  0  0  0  0
   59.8500   35.2319   46.5758 H   0  0  0  0  0  0  0  0  0  0  0  0
   58.5600   33.7230   45.6770 N   0  0  0  0  0  0  0  0  0  0  0  0
   57.6360   34.5430   44.8990 C   0  0  0  0  0  0  0  0  0  0  0  0
   56.9906   35.1158   45.5812 H   0  0  0  0  0  0  0  0  0  0  0  0
   58.2068   35.2373   44.2648 H   0  0  0  0  0  0  0  0  0  0  0  0
   57.0145   33.8938   44.2648 H   0  0  0  0  0  0  0  0  0  0  0  0
   58.5880   32.3780   45.7530 C   0  0  0  0  0  0  0  0  0  0  0  0
   57.7490   31.4660   45.1090 C   0  0  0  0  0  0  0  0  0  0  0  0
   56.9123   31.8110   44.4838 H   0  0  0  0  0  0  0  0  0  0  0  0
   55.3880   25.7730   46.0240 N   0  0  0  0  0  0  0  0  0  0  0  0
   55.5090   24.4540   46.3190 C   0  0  0  0  0  0  0  0  0  0  0  0
   54.6139   23.8218   46.4147 H   0  0  0  0  0  0  0  0  0  0  0  0
  1  2  1  0
  2  3  1  0
  3  4  2  0
  4  5  1  0
  5  6  1  0
  6  7  1  0
  6  8  1  0
  6  9  1  0
  4 10  1  0
 10 11  2  0
 11 12  1  0
 12 13  2  0
 12 14  2  0
 12 15  1  0
 15 16  2  0
 16 17  1  0
 16 18  1  0
 18 19  1  0
 18 20  2  0
 20 21  1  0
 21 22  1  0
 22 23  2  0
 23 24  1  0
 23 25  1  0
 25 26  1  0
 25 27  2  0
 27 28  1  0
 28 29  1  0
 28 30  1  0
 28 31  1  0
 27 32  1  0
 32 33  1  0
 32 34  2  0
 34 35  1  0
 35 36  1  0
 36 37  1  0
 36 38  1  0
 36 39  1  0
 21 40  2  0
 40 41  1  0
 40 42  1  0
 42 43  1  0
 43 44  1  0
 43 45  1  0
 43 46  1  0
 42 47  1  0
 47 48  2  0
 48 49  1  0
 10 50  1  0
 50 51  1  0
 51 52  1  0
 51  2  2  0
 48 15  1  0
 47 20  1  0
 34 22  1  0
M  CHG  1  50  -1
M  END
>  <UniqueID>  (8) 
8

>  <SMILES>  (8) 
COc1cc(C(F)(F)F)ccc1-c1cn(C)c2cc(S(=O)(=O)/N=c3/[n-]ccnc3OC)ccc12

>  <Energy>  (8) 
102.97783544715854

>  <Genealogy>  (8) 
COc1cc(C(F)(F)F)ccc1-c1cn(C)c2cc(S(=O)(=O)N=c3[n-]ccnc3OC)ccc12 (protonated)
COc1cc(C(F)(F)F)ccc1-c1cn(C)c2cc(S(=O)(=O)/N=c3/[n-]ccnc3OC)ccc12 (cis-trans isomerization)
COc1cc(C(F)(F)F)ccc1-c1cn(C)c2cc(S(=O)(=O)/N=c3/[n-]ccnc3OC)ccc12 (3D coordinates assigned)
COc1cc(C(F)(F)F)ccc1-c1cn(C)c2cc(S(=O)(=O)/N=c3/[n-]ccnc3OC)ccc12 (optimized conformer: 102.97783544715854 kcal/mol)

>  <smiles>  (8) 
COc1cc(C(F)(F)F)ccc1-c1cn(C)c2cc(S(=O)(=O)N=c3[nH]ccnc3OC)ccc12

>  <score_type>  (8) 
oracle

>  <origin>  (8) 
adg

>  <m_score__min__energy>  (8) 
-10.880000000000001

>  <m_primary>  (8) 
energy

$$$$
8:0
     RDKit          3D

 56 59  0  0  0  0  0  0  0  0999 V2000
   62.8040   33.8330   46.5650 C   0  0  0  0  0  0  0  0  0  0  0  0
   61.5210   33.7150   47.2670 N   0  0  0  0  0  0  0  0  0  0  0  0
   61.5170   33.7310   48.7390 C   0  0  0  0  0  0  0  0  0  0  0  0
   60.5740   32.7010   49.3210 C   0  0  0  0  0  0  0  0  0  0  0  0
   59.3300   33.0640   49.8760 C   0  0  0  0  0  0  0  0  0  0  0  0
   58.4630   32.0830   50.3660 C   0  0  0  0  0  0  0  0  0  0  0  0
   58.8170   30.7340   50.2960 C   0  0  0  0  0  0  0  0  0  0  0  0
   60.0410   30.3620   49.7320 C   0  0  0  0  0  0  0  0  0  0  0  0
   60.9130   31.3390   49.2420 C   0  0  0  0  0  0  0  0  0  0  0  0
   60.2880   33.5960   46.5150 C   0  0  0  0  0  0  0  0  0  0  0  0
   59.6920   34.7300   45.9350 C   0  0  0  0  0  0  0  0  0  0  0  0
   58.5030   34.6150   45.2120 C   0  0  0  0  0  0  0  0  0  0  0  0
   57.8900   33.3720   45.0570 C   0  0  0  0  0  0  0  0  0  0  0  0
   58.4630   32.2220   45.6250 C   0  0  0  0  0  0  0  0  0  0  0  0
   57.8120   30.8970   45.4780 C   0  0  0  0  0  0  0  0  0  0  0  0
   56.7070   30.8120   44.8730 O   0  0  0  0  0  0  0  0  0  0  0  0
   58.3970   29.7190   46.0590 N   0  0  0  0  0  0  0  0  0  0  0  0
   58.0620   28.3810   45.6510 C   0  0  0  0  0  0  0  0  0  0  0  0
   57.5870   27.4690   46.6020 C   0  0  0  0  0  0  0  0  0  0  0  0
   57.2650   26.1600   46.2330 C   0  0  0  0  0  0  0  0  0  0  0  0
   57.4300   25.7320   44.9030 C   0  0  0  0  0  0  0  0  0  0  0  0
   57.0860   24.3460   44.5080 C   0  0  0  0  0  0  0  0  0  0  0  0
   57.3740   23.9350   43.3520 O   0  0  0  0  0  0  0  0  0  0  0  0
   56.3370   23.5130   45.4120 N   0  0  0  0  0  0  0  0  0  0  0  0
   55.0620   23.2380   45.4120 C   0  0  0  0  0  0  0  0  0  0  0  0
   54.0860   24.0800   44.8380 C   0  0  0  0  0  0  0  0  0  0  0  0
   52.7370   23.7130   44.8970 C   0  0  0  0  0  0  0  0  0  0  0  0
   52.3710   22.5460   45.4910 N   0  0  0  0  0  0  0  0  0  0  0  0
   53.2900   21.7050   46.0290 C   0  0  0  0  0  0  0  0  0  0  0  0
   54.6470   22.0300   45.9900 C   0  0  0  0  0  0  0  0  0  0  0  0
   57.9340   26.6410   43.9570 C   0  0  0  0  0  0  0  0  0  0  0  0
   58.2490   27.9520   44.3260 C   0  0  0  0  0  0  0  0  0  0  0  0
   59.6570   32.3460   46.3580 C   0  0  0  0  0  0  0  0  0  0  0  0
   63.6187   33.9079   47.3003 H   0  0  0  0  0  0  0  0  0  0  0  0
   62.9598   32.9454   45.9342 H   0  0  0  0  0  0  0  0  0  0  0  0
   62.7953   34.7341   45.9342 H   0  0  0  0  0  0  0  0  0  0  0  0
   62.5354   33.5213   49.0980 H   0  0  0  0  0  0  0  0  0  0  0  0
   61.1734   34.7241   49.0642 H   0  0  0  0  0  0  0  0  0  0  0  0
   59.0402   34.1241   49.9237 H   0  0  0  0  0  0  0  0  0  0  0  0
   57.4989   32.3746   50.8081 H   0  0  0  0  0  0  0  0  0  0  0  0
   58.1334   29.9647   50.6843 H   0  0  0  0  0  0  0  0  0  0  0  0
   60.3184   29.2992   49.6737 H   0  0  0  0  0  0  0  0  0  0  0  0
   61.8709   31.0398   48.7916 H   0  0  0  0  0  0  0  0  0  0  0  0
   60.1663   35.7156   46.0518 H   0  0  0  0  0  0  0  0  0  0  0  0
   58.0474   35.5096   44.7623 H   0  0  0  0  0  0  0  0  0  0  0  0
   56.9527   33.2916   44.4869 H   0  0  0  0  0  0  0  0  0  0  0  0
   59.0050   29.8360   46.9010 H   0  0  0  0  0  0  0  0  0  0  0  0
   57.4663   27.7858   47.6485 H   0  0  0  0  0  0  0  0  0  0  0  0
   56.8797   25.4591   46.9882 H   0  0  0  0  0  0  0  0  0  0  0  0
   54.3836   25.0185   44.3475 H   0  0  0  0  0  0  0  0  0  0  0  0
   51.9703   24.3706   44.4615 H   0  0  0  0  0  0  0  0  0  0  0  0
   52.9647   20.7643   46.4973 H   0  0  0  0  0  0  0  0  0  0  0  0
   55.3906   21.3384   46.4127 H   0  0  0  0  0  0  0  0  0  0  0  0
   58.0820   26.3177   42.9161 H   0  0  0  0  0  0  0  0  0  0  0  0
   58.6453   28.6515   43.5752 H   0  0  0  0  0  0  0  0  0  0  0  0
   60.1056   31.4523   46.8163 H   0  0  0  0  0  0  0  0  0  0  0  0
  1  2  1  0
  2  3  1  0
  3  4  1  0
  4  5  2  0
  5  6  1  0
  6  7  2  0
  7  8  1  0
  8  9  2  0
  2 10  1  0
 10 11  2  0
 11 12  1  0
 12 13  2  0
 13 14  1  0
 14 15  1  0
 15 16  2  0
 15 17  1  0
 17 18  1  0
 18 19  2  0
 19 20  1  0
 20 21  2  0
 21 22  1  0
 22 23  2  0
 22 24  1  0
 24 25  2  3
 25 26  1  0
 26 27  2  0
 27 28  1  0
 28 29  1  0
 29 30  2  0
 21 31  1  0
 31 32  2  0
 14 33  2  0
  9  4  1  0
 33 10  1  0
 32 18  1  0
 30 25  1  0
  1 34  1  0
  1 35  1  0
  1 36  1  0
  3 37  1  0
  3 38  1  0
  5 39  1  0
  6 40  1  0
  7 41  1  0
  8 42  1  0
  9 43  1  0
 11 44  1  0
 12 45  1  0
 13 46  1  0
 17 47  1  0
 19 48  1  0
 20 49  1  0
 26 50  1  0
 27 51  1  0
 29 52  1  0
 30 53  1  0
 31 54  1  0
 32 55  1  0
 33 56  1  0
M  CHG  1  28  -1
M  END
>  <UniqueID>  (9) 
9

>  <SMILES>  (9) 
CN(Cc1ccccc1)c1cccc(C(=O)Nc2ccc(C(=O)N=c3cc[n-]cc3)cc2)c1

>  <Energy>  (9) 
78.99961587711218

>  <Genealogy>  (9) 
CN(Cc1ccccc1)c1cccc(C(=O)Nc2ccc(C(=O)N=c3cc[n-]cc3)cc2)c1 (protonated)
CN(Cc1ccccc1)c1cccc(C(=O)Nc2ccc(C(=O)N=c3cc[n-]cc3)cc2)c1 (3D coordinates assigned)
CN(Cc1ccccc1)c1cccc(C(=O)Nc2ccc(C(=O)N=c3cc[n-]cc3)cc2)c1 (optimized conformer: 78.99961587711218 kcal/mol)

>  <smiles>  (9) 
CN(Cc1ccccc1)c1cccc(C(=O)Nc2ccc(C(=O)N=c3cc[nH]cc3)cc2)c1

>  <score_type>  (9) 
oracle

>  <origin>  (9) 
adg

>  <m_score__min__energy>  (9) 
-11.630000000000001

>  <m_primary>  (9) 
energy

$$$$
9:0
     RDKit          3D

 27 28  0  0  0  0  0  0  0  0999 V2000
   58.3818   32.7578   47.6724 H   0  0  0  0  0  0  0  0  0  0  0  0
   58.1830   32.6850   46.5930 C   0  0  0  0  0  0  0  0  0  0  0  0
   57.4090   31.6760   46.1120 N   0  0  0  0  0  0  0  0  0  0  0  0
   57.1250   31.5440   44.7860 C   0  0  0  0  0  0  0  0  0  0  0  0
   56.3850   30.5390   44.4090 N   0  0  0  0  0  0  0  0  0  0  0  0
   56.7230   29.5080   43.4690 C   0  0  0  0  0  0  0  0  0  0  0  0
   57.8730   28.6910   43.7310 N   0  0  0  0  0  0  0  0  0  0  0  0
   58.4310   28.4630   44.8890 C   0  0  0  0  0  0  0  0  0  0  0  0
   59.6360   27.7480   44.9210 C   0  0  0  0  0  0  0  0  0  0  0  0
   60.0905   27.3889   43.9859 H   0  0  0  0  0  0  0  0  0  0  0  0
   60.2560   27.4940   46.1440 C   0  0  0  0  0  0  0  0  0  0  0  0
   61.1968   26.9250   46.1770 H   0  0  0  0  0  0  0  0  0  0  0  0
   59.6820   27.9620   47.3240 C   0  0  0  0  0  0  0  0  0  0  0  0
   60.1603   27.7594   48.2937 H   0  0  0  0  0  0  0  0  0  0  0  0
   58.4930   28.6910   47.2620 C   0  0  0  0  0  0  0  0  0  0  0  0
   58.0351   29.0711   48.1871 H   0  0  0  0  0  0  0  0  0  0  0  0
   57.8970   28.9340   46.0610 N   0  0  0  0  0  0  0  0  0  0  0  0
   57.0360   29.5220   46.0690 H   0  0  0  0  0  0  0  0  0  0  0  0
   56.0060   29.3200   42.4010 N   0  0  0  0  0  0  0  0  0  0  0  0
   55.8940   30.0740   41.6870 H   0  0  0  0  0  0  0  0  0  0  0  0
   55.5220   28.4100   42.2310 H   0  0  0  0  0  0  0  0  0  0  0  0
   57.6740   32.4710   43.8750 C   0  0  0  0  0  0  0  0  0  0  0  0
   57.4764   32.3721   42.7974 H   0  0  0  0  0  0  0  0  0  0  0  0
   58.4700   33.5150   44.3510 C   0  0  0  0  0  0  0  0  0  0  0  0
   58.8951   34.2472   43.6487 H   0  0  0  0  0  0  0  0  0  0  0  0
   58.7260   33.6290   45.7190 C   0  0  0  0  0  0  0  0  0  0  0  0
   59.8150   35.0490   46.3850 Br  0  0  0  0  0  0  0  0  0  0  0  0
  1  2  1  0
  2  3  1  0
  3  4  1  0
  4  5  2  0
  5  6  1  0
  6  7  1  0
  7  8  2  3
  8  9  1  0
  9 10  1  0
  9 11  2  0
 11 12  1  0
 11 13  1  0
 13 14  1  0
 13 15  2  0
 15 16  1  0
 15 17  1  0
 17 18  1  0
  6 19  2  0
 19 20  1  0
 19 21  1  0
  4 22  1  0
 22 23  1  0
 22 24  2  0
 24 25  1  0
 24 26  1  0
 26 27  1  0
 26  2  2  0
 17  8  1  0
M  CHG  2   3  -1  19   1
M  END
>  <UniqueID>  (10) 
10

>  <SMILES>  (10) 
[NH2+]=C(N=c1cccc[nH]1)/N=c1\ccc(Br)c[n-]1

>  <Energy>  (10) 
45.80092928827574

>  <Genealogy>  (10) 
[NH2+]=C(N=c1ccc(Br)c[n-]1)N=c1cccc[nH]1 (protonated)
[NH2+]=C(N=c1cccc[nH]1)/N=c1\ccc(Br)c[n-]1 (cis-trans isomerization)
[NH2+]=C(N=c1cccc[nH]1)/N=c1\ccc(Br)c[n-]1 (3D coordinates assigned)
[NH2+]=C(N=c1cccc[nH]1)/N=c1\ccc(Br)c[n-]1 (optimized conformer: 45.80092928827574 kcal/mol)

>  <smiles>  (10) 
N=C(N=c1cccc[nH]1)N=c1ccc(Br)c[nH]1

>  <score_type>  (10) 
oracle

>  <origin>  (10) 
adg

>  <m_score__min__energy>  (10) 
-5.8399999999999999

>  <m_primary>  (10) 
energy

$$$$
10:0
     RDKit          3D

 38 39  0  0  0  0  0  0  0  0999 V2000
   54.5600   25.3810   45.9910 O   0  0  0  0  0  0  0  0  0  0  0  0
   55.7570   25.2090   45.8330 C   0  0  0  0  0  0  0  0  0  0  0  0
   56.6730   26.3860   45.6940 C   0  0  0  0  0  0  0  0  0  0  0  0
   55.9130   27.6320   45.6200 N   0  0  0  0  0  0  0  0  0  0  0  0
   56.4470   28.9170   45.2710 C   0  0  0  0  0  0  0  0  0  0  0  0
   55.7810   29.6620   44.5060 O   0  0  0  0  0  0  0  0  0  0  0  0
   57.7350   29.4020   45.8010 C   0  0  0  0  0  0  0  0  0  0  0  0
   58.4330   30.4320   45.1560 C   0  0  0  0  0  0  0  0  0  0  0  0
   59.6340   30.9120   45.6870 C   0  0  0  0  0  0  0  0  0  0  0  0
   60.1410   30.3830   46.8850 C   0  0  0  0  0  0  0  0  0  0  0  0
   61.4010   30.9490   47.4960 C   0  0  0  0  0  0  0  0  0  0  0  0
   61.1250   31.9530   48.5340 N   0  0  0  0  0  0  0  0  0  0  0  0
   61.0480   33.5700   47.8830 S   0  0  0  0  0  0  0  0  0  0  0  0
   61.0880   34.5670   49.0090 O   0  0  0  0  0  0  0  0  0  0  0  0
   62.2420   33.7970   47.0000 O   0  0  0  0  0  0  0  0  0  0  0  0
   59.5870   33.7960   46.9210 C   0  0  0  0  0  0  0  0  0  0  0  0
   58.3470   33.3310   47.3840 C   0  0  0  0  0  0  0  0  0  0  0  0
   57.2020   33.4730   46.5920 C   0  0  0  0  0  0  0  0  0  0  0  0
   57.2890   34.0860   45.3390 C   0  0  0  0  0  0  0  0  0  0  0  0
   58.5170   34.5680   44.8810 C   0  0  0  0  0  0  0  0  0  0  0  0
   59.6630   34.4290   45.6720 C   0  0  0  0  0  0  0  0  0  0  0  0
   59.4440   29.3480   47.5270 C   0  0  0  0  0  0  0  0  0  0  0  0
   58.2440   28.8680   46.9940 C   0  0  0  0  0  0  0  0  0  0  0  0
   56.1645   24.1881   45.7925 H   0  0  0  0  0  0  0  0  0  0  0  0
   57.3444   26.4247   46.5645 H   0  0  0  0  0  0  0  0  0  0  0  0
   57.2531   26.2724   44.7663 H   0  0  0  0  0  0  0  0  0  0  0  0
   58.0338   30.8651   44.2270 H   0  0  0  0  0  0  0  0  0  0  0  0
   60.1844   31.7078   45.1639 H   0  0  0  0  0  0  0  0  0  0  0  0
   61.9748   30.1255   47.9462 H   0  0  0  0  0  0  0  0  0  0  0  0
   61.9658   31.4462   46.6937 H   0  0  0  0  0  0  0  0  0  0  0  0
   61.8670   31.9210   49.2690 H   0  0  0  0  0  0  0  0  0  0  0  0
   58.2745   32.8535   48.3723 H   0  0  0  0  0  0  0  0  0  0  0  0
   56.2326   33.1018   46.9560 H   0  0  0  0  0  0  0  0  0  0  0  0
   56.3900   34.1888   44.7135 H   0  0  0  0  0  0  0  0  0  0  0  0
   58.5835   35.0572   43.8980 H   0  0  0  0  0  0  0  0  0  0  0  0
   60.6272   34.8178   45.3126 H   0  0  0  0  0  0  0  0  0  0  0  0
   59.8439   28.9121   48.4544 H   0  0  0  0  0  0  0  0  0  0  0  0
   57.6962   28.0675   47.5128 H   0  0  0  0  0  0  0  0  0  0  0  0
  1  2  2  0
  2  3  1  0
  3  4  1  0
  4  5  1  0
  5  6  2  0
  5  7  1  0
  7  8  2  0
  8  9  1  0
  9 10  2  0
 10 11  1  0
 11 12  1  0
 12 13  1  0
 13 14  2  0
 13 15  2  0
 13 16  1  0
 16 17  2  0
 17 18  1  0
 18 19  2  0
 19 20  1  0
 20 21  2  0
 10 22  1  0
 22 23  2  0
 23  7  1  0
 21 16  1  0
  2 24  1  0
  3 25  1  0
  3 26  1  0
  8 27  1  0
  9 28  1  0
 11 29  1  0
 11 30  1  0
 12 31  1  0
 17 32  1  0
 18 33  1  0
 19 34  1  0
 20 35  1  0
 21 36  1  0
 22 37  1  0
 23 38  1  0
M  CHG  1   4  -1
M  END
>  <UniqueID>  (11) 
11

>  <SMILES>  (11) 
O=CC[N-]C(=O)c1ccc(CNS(=O)(=O)c2ccccc2)cc1

>  <Energy>  (11) 
36.72339245511241

>  <Genealogy>  (11) 
O=CC[N-]C(=O)c1ccc(CNS(=O)(=O)c2ccccc2)cc1 (protonated)
O=CC[N-]C(=O)c1ccc(CNS(=O)(=O)c2ccccc2)cc1 (3D coordinates assigned)
O=CC[N-]C(=O)c1ccc(CNS(=O)(=O)c2ccccc2)cc1 (optimized conformer: 36.72339245511241 kcal/mol)

>  <smiles>  (11) 
O=CCNC(=O)c1ccc(CNS(=O)(=O)c2ccccc2)cc1

>  <score_type>  (11) 
oracle

>  <origin>  (11) 
adg

>  <m_score__min__energy>  (11) 
-10.050000000000001

>  <m_primary>  (11) 
energy

$$$$
11:0
     RDKit          3D

 22 22  0  0  0  0  0  0  0  0999 V2000
   55.8920   30.0390   42.4790 O   0  0  0  0  0  0  0  0  0  0  0  0
   55.8650   30.0280   43.7370 C   0  0  0  0  0  0  0  0  0  0  0  0
   54.8260   29.3740   44.3870 O   0  0  0  0  0  0  0  0  0  0  0  0
   56.8920   30.7780   44.4870 C   0  0  0  0  0  0  0  0  0  0  0  0
   57.4690   30.3500   45.5740 N   0  0  0  0  0  0  0  0  0  0  0  0
   57.9130   29.0160   45.8520 C   0  0  0  0  0  0  0  0  0  0  0  0
   59.1760   28.7710   46.8800 S   0  0  0  0  0  0  0  0  0  0  0  0
   57.1550   27.9140   45.3260 N   0  0  0  0  0  0  0  0  0  0  0  0
   57.2140   26.5660   45.8210 C   0  0  0  0  0  0  0  0  0  0  0  0
   58.4500   25.9290   46.0250 C   0  0  0  0  0  0  0  0  0  0  0  0
   58.4990   24.6310   46.5420 C   0  0  0  0  0  0  0  0  0  0  0  0
   57.3180   23.9620   46.8770 C   0  0  0  0  0  0  0  0  0  0  0  0
   57.3830   22.6690   47.3910 O   0  0  0  0  0  0  0  0  0  0  0  0
   56.0830   24.6000   46.6980 C   0  0  0  0  0  0  0  0  0  0  0  0
   56.0300   25.8990   46.1800 C   0  0  0  0  0  0  0  0  0  0  0  0
   54.7960   26.5190   46.0130 O   0  0  0  0  0  0  0  0  0  0  0  0
   57.1901   31.7645   44.1022 H   0  0  0  0  0  0  0  0  0  0  0  0
   56.5700   28.0990   44.4810 H   0  0  0  0  0  0  0  0  0  0  0  0
   59.3839   26.4545   45.7766 H   0  0  0  0  0  0  0  0  0  0  0  0
   59.4700   24.1344   46.6857 H   0  0  0  0  0  0  0  0  0  0  0  0
   58.1160   22.0260   47.1140 H   0  0  0  0  0  0  0  0  0  0  0  0
   55.1524   24.0781   46.9655 H   0  0  0  0  0  0  0  0  0  0  0  0
  1  2  2  0
  2  3  1  0
  2  4  1  0
  4  5  2  3
  5  6  1  0
  6  7  2  0
  6  8  1  0
  8  9  1  0
  9 10  2  0
 10 11  1  0
 11 12  2  0
 12 13  1  0
 12 14  1  0
 14 15  2  0
 15 16  1  0
 15  9  1  0
  4 17  1  0
  8 18  1  0
 10 19  1  0
 11 20  1  0
 13 21  1  0
 14 22  1  0
M  CHG  2   3  -1  16  -1
M  END
>  <UniqueID>  (12) 
12

>  <SMILES>  (12) 
O=C([O-])C=NC(=S)Nc1ccc(O)cc1[O-]

>  <Energy>  (12) 
35.857486323534005

>  <Genealogy>  (12) 
O=C([O-])C=NC(=S)Nc1ccc(O)cc1[O-] (protonated)
O=C([O-])C=NC(=S)Nc1ccc(O)cc1[O-] (3D coordinates assigned)
O=C([O-])C=NC(=S)Nc1ccc(O)cc1[O-] (optimized conformer: 35.857486323534005 kcal/mol)

>  <smiles>  (12) 
O=C(O)C=NC(=S)Nc1ccc(O)cc1O

>  <score_type>  (12) 
oracle

>  <origin>  (12) 
adg

>  <m_score__min__energy>  (12) 
-12.09

>  <m_primary>  (12) 
energy

$$$$
12:0
     RDKit          3D

 44 47  0  0  0  0  0  0  0  0999 V2000
   57.4300   33.2600   47.1080 O   0  0  0  0  0  0  0  0  0  0  0  0
   57.6310   32.9990   45.8820 C   0  0  0  0  0  0  0  0  0  0  0  0
   57.7240   34.0710   44.8640 C   0  0  0  0  0  0  0  0  0  0  0  0
   59.2750   34.9920   44.9250 S   0  0  0  0  0  0  0  0  0  0  0  0
   60.2610   34.4000   46.2870 C   0  0  0  0  0  0  0  0  0  0  0  0
   61.4910   33.8800   46.1230 N   0  0  0  0  0  0  0  0  0  0  0  0
   62.1640   33.4560   47.2150 C   0  0  0  0  0  0  0  0  0  0  0  0
   63.3290   32.9560   47.1200 O   0  0  0  0  0  0  0  0  0  0  0  0
   61.6380   33.5390   48.4770 C   0  0  0  0  0  0  0  0  0  0  0  0
   62.0280   33.2150   49.7570 C   0  0  0  0  0  0  0  0  0  0  0  0
   61.0430   33.5470   50.6060 N   0  0  0  0  0  0  0  0  0  0  0  0
   60.0340   34.0710   49.9170 N   0  0  0  0  0  0  0  0  0  0  0  0
   60.3740   34.0780   48.6050 C   0  0  0  0  0  0  0  0  0  0  0  0
   59.7180   34.4940   47.5190 N   0  0  0  0  0  0  0  0  0  0  0  0
   57.7630   31.5850   45.5370 C   0  0  0  0  0  0  0  0  0  0  0  0
   57.0700   31.1040   44.4410 C   0  0  0  0  0  0  0  0  0  0  0  0
   57.1690   29.7670   44.0870 C   0  0  0  0  0  0  0  0  0  0  0  0
   57.9590   28.9240   44.8330 C   0  0  0  0  0  0  0  0  0  0  0  0
   58.1160   27.5310   44.5280 N   0  0  0  0  0  0  0  0  0  0  0  0
   57.3270   26.5240   45.1330 C   0  0  0  0  0  0  0  0  0  0  0  0
   56.4440   26.8920   45.9830 O   0  0  0  0  0  0  0  0  0  0  0  0
   57.4920   25.1170   44.8170 C   0  0  0  0  0  0  0  0  0  0  0  0
   58.3750   24.2860   45.4750 C   0  0  0  0  0  0  0  0  0  0  0  0
   58.5240   22.9450   45.1580 C   0  0  0  0  0  0  0  0  0  0  0  0
   57.7520   22.3970   44.1290 C   0  0  0  0  0  0  0  0  0  0  0  0
   57.8960   21.0880   43.8160 F   0  0  0  0  0  0  0  0  0  0  0  0
   56.8530   23.2220   43.4510 C   0  0  0  0  0  0  0  0  0  0  0  0
   56.7400   24.5550   43.8040 C   0  0  0  0  0  0  0  0  0  0  0  0
   58.6460   29.3980   45.9180 C   0  0  0  0  0  0  0  0  0  0  0  0
   58.5440   30.7200   46.2600 C   0  0  0  0  0  0  0  0  0  0  0  0
   57.6298   33.6139   43.8679 H   0  0  0  0  0  0  0  0  0  0  0  0
   56.9153   34.7865   45.0739 H   0  0  0  0  0  0  0  0  0  0  0  0
   62.9889   32.7590   50.0377 H   0  0  0  0  0  0  0  0  0  0  0  0
   61.0400   33.4240   51.6530 H   0  0  0  0  0  0  0  0  0  0  0  0
   58.7640   34.8960   47.6490 H   0  0  0  0  0  0  0  0  0  0  0  0
   56.4391   31.7834   43.8490 H   0  0  0  0  0  0  0  0  0  0  0  0
   56.6192   29.3831   43.2151 H   0  0  0  0  0  0  0  0  0  0  0  0
   58.8500   27.3020   43.8290 H   0  0  0  0  0  0  0  0  0  0  0  0
   58.9874   24.7060   46.2865 H   0  0  0  0  0  0  0  0  0  0  0  0
   59.2411   22.3192   45.7094 H   0  0  0  0  0  0  0  0  0  0  0  0
   56.2356   22.8131   42.6376 H   0  0  0  0  0  0  0  0  0  0  0  0
   56.0260   25.1896   43.2586 H   0  0  0  0  0  0  0  0  0  0  0  0
   59.2768   28.7204   46.5121 H   0  0  0  0  0  0  0  0  0  0  0  0
   59.0995   31.0957   47.1319 H   0  0  0  0  0  0  0  0  0  0  0  0
  1  2  2  0
  2  3  1  0
  3  4  1  0
  4  5  1  0
  5  6  2  0
  6  7  1  0
  7  8  2  0
  7  9  1  0
  9 10  2  0
 10 11  1  0
 11 12  1  0
 12 13  2  0
 13 14  1  0
  2 15  1  0
 15 16  2  0
 16 17  1  0
 17 18  2  0
 18 19  1  0
 19 20  1  0
 20 21  2  0
 20 22  1  0
 22 23  2  0
 23 24  1  0
 24 25  2  0
 25 26  1  0
 25 27  1  0
 27 28  2  0
 18 29  1  0
 29 30  2  0
 14  5  1  0
 30 15  1  0
 13  9  1  0
 28 22  1  0
  3 31  1  0
  3 32  1  0
 10 33  1  0
 11 34  1  0
 14 35  1  0
 16 36  1  0
 17 37  1  0
 19 38  1  0
 23 39  1  0
 24 40  1  0
 27 41  1  0
 28 42  1  0
 29 43  1  0
 30 44  1  0
M  END
>  <smiles>  (13) 
O=C(CSc1nc(=O)c2c[nH]nc2[nH]1)c1ccc(NC(=O)c2ccc(F)cc2)cc1

>  <score_type>  (13) 
oracle

>  <origin>  (13) 
adg

>  <m_score__min__energy>  (13) 
-9.1400000000000006

>  <m_primary>  (13) 
energy

$$$$
13:0
     RDKit          3D

 39 41  0  0  0  0  0  0  0  0999 V2000
   56.0719   32.8942   45.9508 H   0  0  0  0  0  0  0  0  0  0  0  0
   57.0210   33.4470   45.8900 C   0  0  0  0  0  0  0  0  0  0  0  0
   57.7400   33.7830   46.9940 N   0  0  0  0  0  0  0  0  0  0  0  0
   58.8630   34.4560   46.6690 C   0  0  0  0  0  0  0  0  0  0  0  0
   59.7040   34.8730   47.5660 N   0  0  0  0  0  0  0  0  0  0  0  0
   60.8630   33.8590   48.3650 S   0  0  0  0  0  0  0  0  0  0  0  0
   61.9710   34.7140   48.9120 O   0  0  0  0  0  0  0  0  0  0  0  0
   61.4390   32.8920   47.3680 O   0  0  0  0  0  0  0  0  0  0  0  0
   60.0980   32.9980   49.6960 C   0  0  0  0  0  0  0  0  0  0  0  0
   60.6000   33.1340   50.9960 C   0  0  0  0  0  0  0  0  0  0  0  0
   61.4768   33.7720   51.1808 H   0  0  0  0  0  0  0  0  0  0  0  0
   59.9910   32.4620   52.0600 C   0  0  0  0  0  0  0  0  0  0  0  0
   60.3814   32.5856   53.0809 H   0  0  0  0  0  0  0  0  0  0  0  0
   58.8820   31.6290   51.8310 C   0  0  0  0  0  0  0  0  0  0  0  0
   58.2140   30.9380   52.8980 N   0  0  0  0  0  0  0  0  0  0  0  0
   56.8980   30.3750   52.8540 C   0  0  0  0  0  0  0  0  0  0  0  0
   56.6410   29.3070   53.4730 O   0  0  0  0  0  0  0  0  0  0  0  0
   55.9030   30.9900   52.0230 N   0  0  0  0  0  0  0  0  0  0  0  0
   56.2320   31.6820   51.3130 H   0  0  0  0  0  0  0  0  0  0  0  0
   54.5090   30.6360   52.0350 C   0  0  0  0  0  0  0  0  0  0  0  0
   54.1330   29.3450   52.4280 C   0  0  0  0  0  0  0  0  0  0  0  0
   54.9023   28.6220   52.7370 H   0  0  0  0  0  0  0  0  0  0  0  0
   52.7880   28.9700   52.4300 C   0  0  0  0  0  0  0  0  0  0  0  0
   52.5009   27.9581   52.7520 H   0  0  0  0  0  0  0  0  0  0  0  0
   51.8060   29.8770   52.0240 C   0  0  0  0  0  0  0  0  0  0  0  0
   50.7474   29.5783   52.0354 H   0  0  0  0  0  0  0  0  0  0  0  0
   52.1630   31.1690   51.6010 C   0  0  0  0  0  0  0  0  0  0  0  0
   51.1270   32.1260   51.1510 C   0  0  0  0  0  0  0  0  0  0  0  0
   50.4310   32.7570   51.9900 O   0  0  0  0  0  0  0  0  0  0  0  0
   50.9080   32.3430   49.7950 O   0  0  0  0  0  0  0  0  0  0  0  0
   53.5190   31.5390   51.6030 C   0  0  0  0  0  0  0  0  0  0  0  0
   53.8096   32.5442   51.2636 H   0  0  0  0  0  0  0  0  0  0  0  0
   58.3720   31.5110   50.5320 C   0  0  0  0  0  0  0  0  0  0  0  0
   57.4863   30.8853   50.3476 H   0  0  0  0  0  0  0  0  0  0  0  0
   58.9810   32.1830   49.4680 C   0  0  0  0  0  0  0  0  0  0  0  0
   58.5822   32.0717   48.4489 H   0  0  0  0  0  0  0  0  0  0  0  0
   59.0100   34.6610   45.0010 S   0  0  0  0  0  0  0  0  0  0  0  0
   57.5710   33.8520   44.6780 C   0  0  0  0  0  0  0  0  0  0  0  0
   57.1399   33.6741   43.6818 H   0  0  0  0  0  0  0  0  0  0  0  0
  1  2  1  0
  2  3  1  0
  3  4  1  0
  4  5  2  0
  5  6  1  0
  6  7  2  0
  6  8  2  0
  6  9  1  0
  9 10  2  0
 10 11  1  0
 10 12  1  0
 12 13  1  0
 12 14  2  0
 14 15  1  0
 15 16  1  0
 16 17  2  0
 16 18  1  0
 18 19  1  0
 18 20  1  0
 20 21  2  0
 21 22  1  0
 21 23  1  0
 23 24  1  0
 23 25  2  0
 25 26  1  0
 25 27  1  0
 27 28  1  0
 28 29  2  0
 28 30  1  0
 27 31  2  0
 31 32  1  0
 14 33  1  0
 33 34  1  0
 33 35  2  0
 35 36  1  0
  4 37  1  0
 37 38  1  0
 38 39  1  0
 38  2  2  0
 35  9  1  0
 31 20  1  0
M  CHG  3   3  -1  15  -1  30  -1
M  END
>  <UniqueID>  (14) 
13

>  <SMILES>  (14) 
O=C([N-]c1ccc(S(=O)(=O)/N=c2/[n-]ccs2)cc1)Nc1cccc(C(=O)[O-])c1

>  <Energy>  (14) 
82.39503313533929

>  <Genealogy>  (14) 
O=C([N-]c1ccc(S(=O)(=O)N=c2[n-]ccs2)cc1)Nc1cccc(C(=O)[O-])c1 (protonated)
O=C([N-]c1ccc(S(=O)(=O)/N=c2/[n-]ccs2)cc1)Nc1cccc(C(=O)[O-])c1 (cis-trans isomerization)
O=C([N-]c1ccc(S(=O)(=O)/N=c2/[n-]ccs2)cc1)Nc1cccc(C(=O)[O-])c1 (3D coordinates assigned)
O=C([N-]c1ccc(S(=O)(=O)/N=c2/[n-]ccs2)cc1)Nc1cccc(C(=O)[O-])c1 (optimized conformer: 82.39503313533929 kcal/mol)

>  <smiles>  (14) 
O=C(Nc1ccc(S(=O)(=O)N=c2[nH]ccs2)cc1)Nc1cccc(C(=O)O)c1

>  <score_type>  (14) 
oracle

>  <origin>  (14) 
adg

>  <m_score__min__energy>  (14) 
-14.51

>  <m_primary>  (14) 
energy

$$$$
14:0
     RDKit          3D

 32 33  0  0  0  0  0  0  0  0999 V2000
   55.1500   29.3610   44.7540 N   0  0  0  0  0  0  0  0  0  0  0  0
   56.4110   30.5130   44.4760 S   0  0  0  0  0  0  0  0  0  0  0  0
   55.9050   31.8750   44.8560 O   0  0  0  0  0  0  0  0  0  0  0  0
   56.7810   30.5030   43.0200 O   0  0  0  0  0  0  0  0  0  0  0  0
   57.8320   30.1290   45.4430 C   0  0  0  0  0  0  0  0  0  0  0  0
   59.0200   30.8440   45.2440 C   0  0  0  0  0  0  0  0  0  0  0  0
   60.1580   30.5400   45.9940 C   0  0  0  0  0  0  0  0  0  0  0  0
   60.1160   29.5240   46.9520 C   0  0  0  0  0  0  0  0  0  0  0  0
   58.9300   28.8120   47.1770 C   0  0  0  0  0  0  0  0  0  0  0  0
   58.9070   27.7660   48.1620 N   0  0  0  0  0  0  0  0  0  0  0  0
   59.9330   26.7700   48.2700 C   0  0  0  0  0  0  0  0  0  0  0  0
   60.4740   26.3380   49.7520 S   0  0  0  0  0  0  0  0  0  0  0  0
   60.4430   26.0980   47.1100 N   0  0  0  0  0  0  0  0  0  0  0  0
   59.6390   25.8690   45.9100 C   0  0  0  0  0  0  0  0  0  0  0  0
   58.1880   25.7660   46.2640 C   0  0  0  0  0  0  0  0  0  0  0  0
   57.6450   24.8260   47.1200 C   0  0  0  0  0  0  0  0  0  0  0  0
   56.2890   25.0630   47.1380 C   0  0  0  0  0  0  0  0  0  0  0  0
   56.0860   26.1250   46.2850 C   0  0  0  0  0  0  0  0  0  0  0  0
   54.8480   26.6890   46.0100 O   0  0  0  0  0  0  0  0  0  0  0  0
   57.2360   26.5630   45.7380 N   0  0  0  0  0  0  0  0  0  0  0  0
   57.7910   29.1070   46.4040 C   0  0  0  0  0  0  0  0  0  0  0  0
   55.4050   28.8260   45.6150 H   0  0  0  0  0  0  0  0  0  0  0  0
   59.0566   31.6480   44.4941 H   0  0  0  0  0  0  0  0  0  0  0  0
   61.0895   31.1017   45.8302 H   0  0  0  0  0  0  0  0  0  0  0  0
   61.0183   29.2817   47.5326 H   0  0  0  0  0  0  0  0  0  0  0  0
   58.1350   27.7610   48.8670 H   0  0  0  0  0  0  0  0  0  0  0  0
   61.3700   25.6190   47.1750 H   0  0  0  0  0  0  0  0  0  0  0  0
   59.7830   26.7071   45.2122 H   0  0  0  0  0  0  0  0  0  0  0  0
   59.9590   24.9267   45.4413 H   0  0  0  0  0  0  0  0  0  0  0  0
   58.1871   24.0460   47.6748 H   0  0  0  0  0  0  0  0  0  0  0  0
   55.5266   24.5178   47.7137 H   0  0  0  0  0  0  0  0  0  0  0  0
   56.8643   28.5336   46.5540 H   0  0  0  0  0  0  0  0  0  0  0  0
  1  2  1  0
  2  3  2  0
  2  4  2  0
  2  5  1  0
  5  6  2  0
  6  7  1  0
  7  8  2  0
  8  9  1  0
  9 10  1  0
 10 11  1  0
 11 12  2  0
 11 13  1  0
 13 14  1  0
 14 15  1  0
 15 16  2  0
 16 17  1  0
 17 18  2  0
 18 19  1  0
 18 20  1  0
  9 21  2  0
 21  5  1  0
 20 15  1  0
  1 22  1  0
  6 23  1  0
  7 24  1  0
  8 25  1  0
 10 26  1  0
 13 27  1  0
 14 28  1  0
 14 29  1  0
 16 30  1  0
 17 31  1  0
 21 32  1  0
M  CHG  3   1  -1  19  -1  20  -1
M  END
>  <UniqueID>  (15) 
14

>  <SMILES>  (15) 
[NH-]S(=O)(=O)c1cccc(NC(=S)NCc2ccc([O-])[n-]2)c1

>  <Energy>  (15) 
56.95907499816683

>  <Genealogy>  (15) 
[NH-]S(=O)(=O)c1cccc(NC(=S)NCc2ccc([O-])[n-]2)c1 (protonated)
[NH-]S(=O)(=O)c1cccc(NC(=S)NCc2ccc([O-])[n-]2)c1 (3D coordinates assigned)
[NH-]S(=O)(=O)c1cccc(NC(=S)NCc2ccc([O-])[n-]2)c1 (optimized conformer: 56.95907499816683 kcal/mol)

>  <smiles>  (15) 
NS(=O)(=O)c1cccc(NC(=S)NCc2ccc(O)[nH]2)c1

>  <score_type>  (15) 
oracle

>  <origin>  (15) 
adg

>  <m_score__min__energy>  (15) 
-15.41

>  <m_primary>  (15) 
energy

$$$$
15:0
     RDKit          3D

 62 66  0  0  0  0  0  0  0  0999 V2000
   58.1510   34.3520   45.9520 C   0  0  0  0  0  0  0  0  0  0  0  0
   59.4920   33.7980   46.3230 C   0  0  0  0  0  0  0  0  0  0  0  0
   60.6480   34.4990   46.1540 N   0  0  0  0  0  0  0  0  0  0  0  0
   61.5870   33.6450   46.6060 C   0  0  0  0  0  0  0  0  0  0  0  0
   62.9640   33.8610   46.6770 C   0  0  0  0  0  0  0  0  0  0  0  0
   63.7590   32.8310   47.2160 C   0  0  0  0  0  0  0  0  0  0  0  0
   63.1660   31.6220   47.6570 C   0  0  0  0  0  0  0  0  0  0  0  0
   61.7710   31.4330   47.5620 C   0  0  0  0  0  0  0  0  0  0  0  0
   61.0140   32.4750   47.0230 C   0  0  0  0  0  0  0  0  0  0  0  0
   59.6840   32.5500   46.8340 N   0  0  0  0  0  0  0  0  0  0  0  0
   58.6660   31.5570   47.1890 C   0  0  0  0  0  0  0  0  0  0  0  0
   58.0400   30.9540   45.9560 C   0  0  0  0  0  0  0  0  0  0  0  0
   57.2740   31.6640   45.2450 O   0  0  0  0  0  0  0  0  0  0  0  0
   58.2890   29.5820   45.5800 N   0  0  0  0  0  0  0  0  0  0  0  0
   57.9610   29.1640   44.2060 C   0  0  0  0  0  0  0  0  0  0  0  0
   58.5580   27.7960   43.8710 C   0  0  0  0  0  0  0  0  0  0  0  0
   58.2440   26.8400   44.9380 N   0  0  0  0  0  0  0  0  0  0  0  0
   57.7610   25.5200   44.6220 C   0  0  0  0  0  0  0  0  0  0  0  0
   57.3920   25.2010   43.3110 C   0  0  0  0  0  0  0  0  0  0  0  0
   56.9190   23.9250   43.0200 C   0  0  0  0  0  0  0  0  0  0  0  0
   56.7910   22.9640   44.0340 C   0  0  0  0  0  0  0  0  0  0  0  0
   56.2680   21.6630   43.7170 N   0  0  0  0  0  0  0  0  0  0  0  0
   55.6020   21.0180   44.5600 O   0  0  0  0  0  0  0  0  0  0  0  0
   56.4320   21.1350   42.4540 O   0  0  0  0  0  0  0  0  0  0  0  0
   57.1780   23.3210   45.3480 C   0  0  0  0  0  0  0  0  0  0  0  0
   57.1010   22.3740   46.4260 N   0  0  0  0  0  0  0  0  0  0  0  0
   57.8480   21.1140   46.3040 C   0  0  0  0  0  0  0  0  0  0  0  0
   57.4080   20.1130   47.3810 C   0  0  0  0  0  0  0  0  0  0  0  0
   57.3670   20.7270   48.6540 O   0  0  0  0  0  0  0  0  0  0  0  0
   56.3440   21.6990   48.6720 C   0  0  0  0  0  0  0  0  0  0  0  0
   56.7020   22.8610   47.7530 C   0  0  0  0  0  0  0  0  0  0  0  0
   57.6500   24.5760   45.5990 N   0  0  0  0  0  0  0  0  0  0  0  0
   58.4300   27.2270   46.3460 C   0  0  0  0  0  0  0  0  0  0  0  0
   58.9890   28.6510   46.4820 C   0  0  0  0  0  0  0  0  0  0  0  0
   57.5852   34.5857   46.8659 H   0  0  0  0  0  0  0  0  0  0  0  0
   58.2843   35.2687   45.3588 H   0  0  0  0  0  0  0  0  0  0  0  0
   57.5985   33.6085   45.3588 H   0  0  0  0  0  0  0  0  0  0  0  0
   63.4122   34.8018   46.3247 H   0  0  0  0  0  0  0  0  0  0  0  0
   64.8478   32.9660   47.2952 H   0  0  0  0  0  0  0  0  0  0  0  0
   63.7977   30.8251   48.0764 H   0  0  0  0  0  0  0  0  0  0  0  0
   61.2975   30.4995   47.9000 H   0  0  0  0  0  0  0  0  0  0  0  0
   59.1355   30.7574   47.7809 H   0  0  0  0  0  0  0  0  0  0  0  0
   57.8781   32.0579   47.7706 H   0  0  0  0  0  0  0  0  0  0  0  0
   56.8673   29.1105   44.1015 H   0  0  0  0  0  0  0  0  0  0  0  0
   58.3885   29.9030   43.5124 H   0  0  0  0  0  0  0  0  0  0  0  0
   58.1344   27.4356   42.9220 H   0  0  0  0  0  0  0  0  0  0  0  0
   59.6501   27.8900   43.7786 H   0  0  0  0  0  0  0  0  0  0  0  0
   57.4753   25.9548   42.5142 H   0  0  0  0  0  0  0  0  0  0  0  0
   56.6433   23.6678   41.9866 H   0  0  0  0  0  0  0  0  0  0  0  0
   57.6626   20.6796   45.3106 H   0  0  0  0  0  0  0  0  0  0  0  0
   58.9195   21.3252   46.4357 H   0  0  0  0  0  0  0  0  0  0  0  0
   56.4061   19.7332   47.1319 H   0  0  0  0  0  0  0  0  0  0  0  0
   58.1349   19.2880   47.4120 H   0  0  0  0  0  0  0  0  0  0  0  0
   55.4035   21.2423   48.3300 H   0  0  0  0  0  0  0  0  0  0  0  0
   56.2279   22.0773   49.6984 H   0  0  0  0  0  0  0  0  0  0  0  0
   55.8273   23.5196   47.6472 H   0  0  0  0  0  0  0  0  0  0  0  0
   57.5457   23.4119   48.1942 H   0  0  0  0  0  0  0  0  0  0  0  0
   57.9720   24.8030   46.5640 H   0  0  0  0  0  0  0  0  0  0  0  0
   57.4586   27.1762   46.8596 H   0  0  0  0  0  0  0  0  0  0  0  0
   59.1548   26.5329   46.7964 H   0  0  0  0  0  0  0  0  0  0  0  0
   58.8595   28.9905   47.5202 H   0  0  0  0  0  0  0  0  0  0  0  0
   60.0550   28.6361   46.2112 H   0  0  0  0  0  0  0  0  0  0  0  0
  1  2  1  0
  2  3  2  0
  3  4  1  0
  4  5  2  0
  5  6  1  0
  6  7  2  0
  7  8  1  0
  8  9  2  0
  9 10  1  0
 10 11  1  0
 11 12  1  0
 12 13  2  0
 12 14  1  0
 14 15  1  0
 15 16  1  0
 16 17  1  0
 17 18  1  0
 18 19  2  0
 19 20  1  0
 20 21  2  0
 21 22  1  0
 22 23  2  0
 22 24  1  0
 21 25  1  0
 25 26  1  0
 26 27  1  0
 27 28  1  0
 28 29  1  0
 29 30  1  0
 30 31  1  0
 25 32  2  0
 17 33  1  0
 33 34  1  0
 10  2  1  0
 34 14  1  0
  9  4  1  0
 32 18  1  0
 31 26  1  0
  1 35  1  0
  1 36  1  0
  1 37  1  0
  5 38  1  0
  6 39  1  0
  7 40  1  0
  8 41  1  0
 11 42  1  0
 11 43  1  0
 15 44  1  0
 15 45  1  0
 16 46  1  0
 16 47  1  0
 19 48  1  0
 20 49  1  0
 27 50  1  0
 27 51  1  0
 28 52  1  0
 28 53  1  0
 30 54  1  0
 30 55  1  0
 31 56  1  0
 31 57  1  0
 32 58  1  0
 33 59  1  0
 33 60  1  0
 34 61  1  0
 34 62  1  0
M  CHG  3  22   1  24  -1  32   1
M  END
>  <UniqueID>  (16) 
15

>  <SMILES>  (16) 
Cc1nc2ccccc2n1CC(=O)N1CCN(c2ccc([N+](=O)[O-])c(N3CCOCC3)[nH+]2)CC1

>  <Energy>  (16) 
116.73898456017913

>  <Genealogy>  (16) 
Cc1nc2ccccc2n1CC(=O)N1CCN(c2ccc([N+](=O)[O-])c(N3CCOCC3)[nH+]2)CC1 (protonated)
Cc1nc2ccccc2n1CC(=O)N1CCN(c2ccc([N+](=O)[O-])c(N3CCOCC3)[nH+]2)CC1 (3D coordinates assigned)
Cc1nc2ccccc2n1CC(=O)N1CCN(c2ccc([N+](=O)[O-])c(N3CCOCC3)[nH+]2)CC1 (nonaromatic ring conformer: 116.73898456017913 kcal/mol)

>  <smiles>  (16) 
Cc1nc2ccccc2n1CC(=O)N1CCN(c2ccc([N+](=O)[O-])c(N3CCOCC3)n2)CC1

>  <score_type>  (16) 
oracle

>  <origin>  (16) 
adg

>  <m_score__min__energy>  (16) 
-7.3399999999999999

>  <m_primary>  (16) 
energy

$$$$
16:0
     RDKit          3D

 43 45  0  0  0  0  0  0  0  0999 V2000
   54.1770   24.9630   45.6150 C   0  0  0  0  0  0  0  0  0  0  0  0
   54.8340   26.1890   45.9190 O   0  0  0  0  0  0  0  0  0  0  0  0
   56.2130   26.3170   46.1510 C   0  0  0  0  0  0  0  0  0  0  0  0
   56.9790   25.2730   46.7060 C   0  0  0  0  0  0  0  0  0  0  0  0
   58.3480   25.4410   46.9210 C   0  0  0  0  0  0  0  0  0  0  0  0
   58.9670   26.6460   46.5880 C   0  0  0  0  0  0  0  0  0  0  0  0
   58.2190   27.6890   46.0370 C   0  0  0  0  0  0  0  0  0  0  0  0
   56.8390   27.5300   45.8110 C   0  0  0  0  0  0  0  0  0  0  0  0
   56.0430   28.5760   45.2430 N   0  0  0  0  0  0  0  0  0  0  0  0
   56.4750   29.5550   43.8780 S   0  0  0  0  0  0  0  0  0  0  0  0
   55.2180   30.0460   43.2160 O   0  0  0  0  0  0  0  0  0  0  0  0
   57.2910   28.7430   42.9110 O   0  0  0  0  0  0  0  0  0  0  0  0
   57.4230   30.9390   44.4330 C   0  0  0  0  0  0  0  0  0  0  0  0
   57.8070   31.0040   45.7790 C   0  0  0  0  0  0  0  0  0  0  0  0
   58.4800   32.1270   46.2910 C   0  0  0  0  0  0  0  0  0  0  0  0
   58.8340   32.1600   47.7340 C   0  0  0  0  0  0  0  0  0  0  0  0
   58.0470   32.7080   48.5490 O   0  0  0  0  0  0  0  0  0  0  0  0
   60.0980   31.6800   48.2240 N   0  0  0  0  0  0  0  0  0  0  0  0
   61.2590   32.2580   48.0920 C   0  0  0  0  0  0  0  0  0  0  0  0
   62.2460   31.6860   47.3430 N   0  0  0  0  0  0  0  0  0  0  0  0
   63.4630   32.2670   47.1820 C   0  0  0  0  0  0  0  0  0  0  0  0
   63.7410   33.4870   47.8000 C   0  0  0  0  0  0  0  0  0  0  0  0
   62.7600   34.0900   48.5880 C   0  0  0  0  0  0  0  0  0  0  0  0
   61.5110   33.4810   48.7440 C   0  0  0  0  0  0  0  0  0  0  0  0
   60.5460   34.1070   49.5340 O   0  0  0  0  0  0  0  0  0  0  0  0
   58.8170   33.1800   45.4130 C   0  0  0  0  0  0  0  0  0  0  0  0
   59.6170   34.6460   45.9710 Cl  0  0  0  0  0  0  0  0  0  0  0  0
   58.4760   33.0940   44.0590 C   0  0  0  0  0  0  0  0  0  0  0  0
   57.7830   31.9850   43.5630 C   0  0  0  0  0  0  0  0  0  0  0  0
   57.3960   31.9460   41.8460 Cl  0  0  0  0  0  0  0  0  0  0  0  0
   53.9032   24.4521   46.5499 H   0  0  0  0  0  0  0  0  0  0  0  0
   53.2685   25.1691   45.0301 H   0  0  0  0  0  0  0  0  0  0  0  0
   54.8517   24.3206   45.0301 H   0  0  0  0  0  0  0  0  0  0  0  0
   56.4960   24.3209   46.9712 H   0  0  0  0  0  0  0  0  0  0  0  0
   58.9401   24.6213   47.3540 H   0  0  0  0  0  0  0  0  0  0  0  0
   60.0458   26.7750   46.7596 H   0  0  0  0  0  0  0  0  0  0  0  0
   58.7105   28.6386   45.7786 H   0  0  0  0  0  0  0  0  0  0  0  0
   57.5776   30.1609   46.4472 H   0  0  0  0  0  0  0  0  0  0  0  0
   64.2295   31.7760   46.5645 H   0  0  0  0  0  0  0  0  0  0  0  0
   64.7216   33.9674   47.6675 H   0  0  0  0  0  0  0  0  0  0  0  0
   62.9698   35.0471   49.0879 H   0  0  0  0  0  0  0  0  0  0  0  0
   59.6040   33.7450   49.6280 H   0  0  0  0  0  0  0  0  0  0  0  0
   58.7565   33.9091   43.3756 H   0  0  0  0  0  0  0  0  0  0  0  0
  1  2  1  0
  2  3  1  0
  3  4  2  0
  4  5  1  0
  5  6  2  0
  6  7  1  0
  7  8  2  0
  8  9  1  0
  9 10  1  0
 10 11  2  0
 10 12  2  0
 10 13  1  0
 13 14  2  0
 14 15  1  0
 15 16  1  0
 16 17  2  0
 16 18  1  0
 18 19  2  3
 19 20  1  0
 20 21  1  0
 21 22  2  0
 22 23  1  0
 23 24  2  0
 24 25  1  0
 15 26  2  0
 26 27  1  0
 26 28  1  0
 28 29  2  0
 29 30  1  0
  8  3  1  0
 29 13  1  0
 24 19  1  0
  1 31  1  0
  1 32  1  0
  1 33  1  0
  4 34  1  0
  5 35  1  0
  6 36  1  0
  7 37  1  0
 14 38  1  0
 21 39  1  0
 22 40  1  0
 23 41  1  0
 25 42  1  0
 28 43  1  0
M  CHG  2   9  -1  20  -1
M  END
>  <UniqueID>  (17) 
16

>  <SMILES>  (17) 
COc1ccccc1[N-]S(=O)(=O)c1cc(C(=O)N=c2[n-]cccc2O)c(Cl)cc1Cl

>  <Energy>  (17) 
60.52567976414849

>  <Genealogy>  (17) 
COc1ccccc1[N-]S(=O)(=O)c1cc(C(=O)N=c2[n-]cccc2O)c(Cl)cc1Cl (protonated)
COc1ccccc1[N-]S(=O)(=O)c1cc(C(=O)N=c2[n-]cccc2O)c(Cl)cc1Cl (3D coordinates assigned)
COc1ccccc1[N-]S(=O)(=O)c1cc(C(=O)N=c2[n-]cccc2O)c(Cl)cc1Cl (optimized conformer: 60.52567976414849 kcal/mol)

>  <smiles>  (17) 
COc1ccccc1NS(=O)(=O)c1cc(C(=O)N=c2[nH]cccc2O)c(Cl)cc1Cl

>  <score_type>  (17) 
oracle

>  <origin>  (17) 
adg

>  <m_score__min__energy>  (17) 
-12.43

>  <m_primary>  (17) 
energy

$$$$
17:0
     RDKit          3D

 33 35  0  0  0  0  0  0  0  0999 V2000
   53.4310   25.1770   45.2590 O   0  0  0  0  0  0  0  0  0  0  0  0
   54.6390   25.1490   45.6100 C   0  0  0  0  0  0  0  0  0  0  0  0
   55.2270   26.3410   46.1490 N   0  0  0  0  0  0  0  0  0  0  0  0
   56.5040   26.8970   45.8000 C   0  0  0  0  0  0  0  0  0  0  0  0
   57.6580   26.1460   46.0510 C   0  0  0  0  0  0  0  0  0  0  0  0
   58.9170   26.6600   45.7320 C   0  0  0  0  0  0  0  0  0  0  0  0
   59.0340   27.9380   45.1800 C   0  0  0  0  0  0  0  0  0  0  0  0
   57.8940   28.7200   44.9610 C   0  0  0  0  0  0  0  0  0  0  0  0
   58.0490   30.0210   44.3770 N   0  0  0  0  0  0  0  0  0  0  0  0
   57.2460   31.1760   44.6540 C   0  0  0  0  0  0  0  0  0  0  0  0
   55.9980   31.0980   44.5010 O   0  0  0  0  0  0  0  0  0  0  0  0
   57.8390   32.4630   45.0600 C   0  0  0  0  0  0  0  0  0  0  0  0
   58.4730   33.3850   44.2310 C   0  0  0  0  0  0  0  0  0  0  0  0
   58.9130   34.5270   44.9110 C   0  0  0  0  0  0  0  0  0  0  0  0
   58.6210   34.5170   46.2680 C   0  0  0  0  0  0  0  0  0  0  0  0
   57.8130   33.0870   46.6220 S   0  0  0  0  0  0  0  0  0  0  0  0
   56.6270   28.1910   45.2630 C   0  0  0  0  0  0  0  0  0  0  0  0
   55.3910   23.8820   45.4920 C   0  0  0  0  0  0  0  0  0  0  0  0
   56.0660   23.3230   46.5870 C   0  0  0  0  0  0  0  0  0  0  0  0
   56.7580   22.1230   46.4050 C   0  0  0  0  0  0  0  0  0  0  0  0
   57.3820   21.6010   47.3650 O   0  0  0  0  0  0  0  0  0  0  0  0
   56.7540   21.5170   45.1900 N   0  0  0  0  0  0  0  0  0  0  0  0
   56.0820   22.0600   44.1420 C   0  0  0  0  0  0  0  0  0  0  0  0
   56.0850   21.4800   43.0250 O   0  0  0  0  0  0  0  0  0  0  0  0
   55.4060   23.2280   44.2990 N   0  0  0  0  0  0  0  0  0  0  0  0
   57.5731   25.1461   46.5017 H   0  0  0  0  0  0  0  0  0  0  0  0
   59.8185   26.0571   45.9159 H   0  0  0  0  0  0  0  0  0  0  0  0
   60.0267   28.3316   44.9162 H   0  0  0  0  0  0  0  0  0  0  0  0
   58.6139   33.2315   43.1509 H   0  0  0  0  0  0  0  0  0  0  0  0
   59.4411   35.3553   44.4159 H   0  0  0  0  0  0  0  0  0  0  0  0
   58.8749   35.3091   46.9878 H   0  0  0  0  0  0  0  0  0  0  0  0
   55.7254   28.7934   45.0780 H   0  0  0  0  0  0  0  0  0  0  0  0
   56.0509   23.8191   47.5687 H   0  0  0  0  0  0  0  0  0  0  0  0
  1  2  2  0
  2  3  1  0
  3  4  1  0
  4  5  2  0
  5  6  1  0
  6  7  2  0
  7  8  1  0
  8  9  1  0
  9 10  1  0
 10 11  2  0
 10 12  1  0
 12 13  2  0
 13 14  1  0
 14 15  2  0
 15 16  1  0
  8 17  2  0
  2 18  1  0
 18 19  2  0
 19 20  1  0
 20 21  2  0
 20 22  1  0
 22 23  1  0
 23 24  2  0
 23 25  1  0
 17  4  1  0
 25 18  1  0
 16 12  1  0
  5 26  1  0
  6 27  1  0
  7 28  1  0
 13 29  1  0
 14 30  1  0
 15 31  1  0
 17 32  1  0
 19 33  1  0
M  CHG  4   3  -1   9  -1  22  -1  25  -1
M  END
>  <UniqueID>  (18) 
17

>  <SMILES>  (18) 
O=C([N-]c1cccc([N-]C(=O)c2cccs2)c1)c1cc(=O)[n-]c(=O)[n-]1

>  <Energy>  (18) 
73.69004425395418

>  <Genealogy>  (18) 
O=C([N-]c1cccc([N-]C(=O)c2cccs2)c1)c1cc(=O)[n-]c(=O)[n-]1 (protonated)
O=C([N-]c1cccc([N-]C(=O)c2cccs2)c1)c1cc(=O)[n-]c(=O)[n-]1 (3D coordinates assigned)
O=C([N-]c1cccc([N-]C(=O)c2cccs2)c1)c1cc(=O)[n-]c(=O)[n-]1 (optimized conformer: 73.69004425395418 kcal/mol)

>  <smiles>  (18) 
O=C(Nc1cccc(NC(=O)c2cccs2)c1)c1cc(=O)[nH]c(=O)[nH]1

>  <score_type>  (18) 
oracle

>  <origin>  (18) 
adg

>  <m_score__min__energy>  (18) 
-14.75

>  <m_primary>  (18) 
energy

$$$$
18:0
     RDKit          3D

 46 48  0  0  0  0  0  0  0  0999 V2000
   59.5370   34.7140   47.8240 C   0  0  0  0  0  0  0  0  0  0  0  0
   59.0350   33.5070   47.0750 C   0  0  0  0  0  0  0  0  0  0  0  0
   57.8730   33.6390   46.2960 C   0  0  0  0  0  0  0  0  0  0  0  0
   57.3830   32.5630   45.5580 C   0  0  0  0  0  0  0  0  0  0  0  0
   58.0300   31.3270   45.5930 C   0  0  0  0  0  0  0  0  0  0  0  0
   57.5030   30.2550   44.7970 N   0  0  0  0  0  0  0  0  0  0  0  0
   56.1630   29.7420   44.8250 C   0  0  0  0  0  0  0  0  0  0  0  0
   55.1950   30.4630   44.4660 O   0  0  0  0  0  0  0  0  0  0  0  0
   55.9050   28.4060   45.2680 N   0  0  0  0  0  0  0  0  0  0  0  0
   56.8890   27.4350   45.6500 C   0  0  0  0  0  0  0  0  0  0  0  0
   58.2610   27.6340   45.4100 C   0  0  0  0  0  0  0  0  0  0  0  0
   59.1870   26.6530   45.7740 C   0  0  0  0  0  0  0  0  0  0  0  0
   58.7540   25.4640   46.3650 C   0  0  0  0  0  0  0  0  0  0  0  0
   57.3890   25.2450   46.5880 C   0  0  0  0  0  0  0  0  0  0  0  0
   56.8540   23.7310   47.3110 S   0  0  0  0  0  0  0  0  0  0  0  0
   57.3740   23.6610   48.9570 N   0  0  0  0  0  0  0  0  0  0  0  0
   55.3550   23.6470   47.2500 O   0  0  0  0  0  0  0  0  0  0  0  0
   57.4350   22.5650   46.5590 O   0  0  0  0  0  0  0  0  0  0  0  0
   56.4600   26.2280   46.2170 C   0  0  0  0  0  0  0  0  0  0  0  0
   59.2010   31.1830   46.3550 C   0  0  0  0  0  0  0  0  0  0  0  0
   59.7060   32.2550   47.1180 C   0  0  0  0  0  0  0  0  0  0  0  0
   60.9320   32.0300   47.9300 C   0  0  0  0  0  0  0  0  0  0  0  0
   62.0690   32.2680   47.4430 O   0  0  0  0  0  0  0  0  0  0  0  0
   60.8110   31.6210   49.2990 N   0  0  0  0  0  0  0  0  0  0  0  0
   59.7730   32.0000   50.2140 C   0  0  0  0  0  0  0  0  0  0  0  0
   59.9060   33.2050   50.9190 C   0  0  0  0  0  0  0  0  0  0  0  0
   58.9070   33.6200   51.8050 C   0  0  0  0  0  0  0  0  0  0  0  0
   57.7600   32.8410   51.9820 C   0  0  0  0  0  0  0  0  0  0  0  0
   57.6070   31.6520   51.2650 C   0  0  0  0  0  0  0  0  0  0  0  0
   58.6040   31.2330   50.3780 C   0  0  0  0  0  0  0  0  0  0  0  0
   59.4612   34.5317   48.9061 H   0  0  0  0  0  0  0  0  0  0  0  0
   60.5874   34.9009   47.5564 H   0  0  0  0  0  0  0  0  0  0  0  0
   58.9289   35.5907   47.5564 H   0  0  0  0  0  0  0  0  0  0  0  0
   57.3438   34.6030   46.2683 H   0  0  0  0  0  0  0  0  0  0  0  0
   56.4795   32.6890   44.9433 H   0  0  0  0  0  0  0  0  0  0  0  0
   58.6055   28.5642   44.9346 H   0  0  0  0  0  0  0  0  0  0  0  0
   60.2597   26.8176   45.5946 H   0  0  0  0  0  0  0  0  0  0  0  0
   59.4872   24.6974   46.6561 H   0  0  0  0  0  0  0  0  0  0  0  0
   57.7180   22.6900   49.1270 H   0  0  0  0  0  0  0  0  0  0  0  0
   55.3857   26.0498   46.3725 H   0  0  0  0  0  0  0  0  0  0  0  0
   59.7317   30.2195   46.3563 H   0  0  0  0  0  0  0  0  0  0  0  0
   60.8014   33.8273   50.7741 H   0  0  0  0  0  0  0  0  0  0  0  0
   59.0239   34.5605   52.3633 H   0  0  0  0  0  0  0  0  0  0  0  0
   56.9784   33.1640   52.6854 H   0  0  0  0  0  0  0  0  0  0  0  0
   56.7002   31.0437   51.3983 H   0  0  0  0  0  0  0  0  0  0  0  0
   58.4743   30.3017   49.8071 H   0  0  0  0  0  0  0  0  0  0  0  0
  1  2  1  0
  2  3  2  0
  3  4  1  0
  4  5  2  0
  5  6  1  0
  6  7  1  0
  7  8  2  0
  7  9  1  0
  9 10  1  0
 10 11  2  0
 11 12  1  0
 12 13  2  0
 13 14  1  0
 14 15  1  0
 15 16  1  0
 15 17  2  0
 15 18  2  0
 14 19  2  0
  5 20  1  0
 20 21  2  0
 21 22  1  0
 22 23  2  0
 22 24  1  0
 24 25  1  0
 25 26  2  0
 26 27  1  0
 27 28  2  0
 28 29  1  0
 29 30  2  0
 21  2  1  0
 30 25  1  0
 19 10  1  0
  1 31  1  0
  1 32  1  0
  1 33  1  0
  3 34  1  0
  4 35  1  0
 11 36  1  0
 12 37  1  0
 13 38  1  0
 16 39  1  0
 19 40  1  0
 20 41  1  0
 26 42  1  0
 27 43  1  0
 28 44  1  0
 29 45  1  0
 30 46  1  0
M  CHG  4   6  -1   9  -1  16  -1  24  -1
M  END
>  <UniqueID>  (19) 
18

>  <SMILES>  (19) 
Cc1ccc([N-]C(=O)[N-]c2cccc(S([NH-])(=O)=O)c2)cc1C(=O)[N-]c1ccccc1

>  <Energy>  (19) 
63.41834616365031

>  <Genealogy>  (19) 
Cc1ccc([N-]C(=O)[N-]c2cccc(S([NH-])(=O)=O)c2)cc1C(=O)[N-]c1ccccc1 (protonated)
Cc1ccc([N-]C(=O)[N-]c2cccc(S([NH-])(=O)=O)c2)cc1C(=O)[N-]c1ccccc1 (3D coordinates assigned)
Cc1ccc([N-]C(=O)[N-]c2cccc(S([NH-])(=O)=O)c2)cc1C(=O)[N-]c1ccccc1 (optimized conformer: 63.41834616365031 kcal/mol)

>  <smiles>  (19) 
Cc1ccc(NC(=O)Nc2cccc(S(N)(=O)=O)c2)cc1C(=O)Nc1ccccc1

>  <score_type>  (19) 
oracle

>  <origin>  (19) 
adg

>  <m_score__min__energy>  (19) 
-14.550000000000001

>  <m_primary>  (19) 
energy

$$$$
19:0
     RDKit          3D

 46 49  0  0  1  0  0  0  0  0999 V2000
   59.3540   29.8470   44.5020 C   0  0  0  0  0  0  0  0  0  0  0  0
   58.0460   29.8900   44.5070 C   0  0  0  0  0  0  0  0  0  0  0  0
   57.1280   28.8660   44.5520 C   0  0  0  0  0  0  0  0  0  0  0  0
   57.3810   27.5830   44.5530 C   0  0  0  0  0  0  0  0  0  0  0  0
   57.4560   26.7290   45.7220 C   0  0  0  0  0  0  0  0  0  0  0  0
   56.2920   26.2160   46.3210 C   0  0  0  0  0  0  0  0  0  0  0  0
   55.0280   26.5570   45.8260 O   0  0  0  0  0  0  0  0  0  0  0  0
   56.3700   25.3840   47.3890 N   0  0  0  0  0  0  0  0  0  0  0  0
   57.5900   25.0610   47.8620 C   0  0  0  0  0  0  0  0  0  0  0  0
   57.6950   24.2800   48.8670 O   0  0  0  0  0  0  0  0  0  0  0  0
   58.7280   25.5320   47.3160 N   0  0  0  0  0  0  0  0  0  0  0  0
   58.7140   26.3680   46.2440 C   0  0  0  0  0  0  0  0  0  0  0  0
   59.8840   26.8550   45.6790 O   0  0  0  0  0  0  0  0  0  0  0  0
   55.8280   29.3930   44.5730 C   0  0  0  0  0  0  0  0  0  0  0  0
   56.0140   30.7200   44.5350 N   0  0  0  0  0  0  0  0  0  0  0  0
   57.2850   31.0240   44.4970 N   0  0  0  0  0  0  0  0  0  0  0  0
   57.7970   32.3750   44.4110 C   0  0  0  0  0  0  0  0  0  0  0  0
   58.4440   32.8320   45.6710 C   0  0  0  0  0  0  0  0  0  0  0  0
   58.2130   32.1530   46.8780 C   0  0  0  0  0  0  0  0  0  0  0  0
   58.7820   32.5650   48.0650 C   0  0  0  0  0  0  0  0  0  0  0  0
   59.6050   33.6650   48.1310 C   0  0  0  0  0  0  0  0  0  0  0  0
   60.2300   34.1620   49.3370 C   0  0  0  0  0  0  0  0  0  0  0  0
   59.5090   34.3070   50.3980 O   0  0  0  0  0  0  0  0  0  0  0  0
   61.5780   34.5160   49.4890 N   0  0  0  0  0  0  0  0  0  0  0  0
   62.5410   33.9020   48.9310 C   0  0  0  0  0  0  0  0  0  0  0  0
   62.9100   34.1930   47.6420 N   0  0  0  0  0  0  0  0  0  0  0  0
   63.9250   33.4060   47.3440 N   0  0  0  0  0  0  0  0  0  0  0  0
   64.2330   32.6170   48.3860 N   0  0  0  0  0  0  0  0  0  0  0  0
   63.3700   32.9380   49.3460 N   0  0  0  0  0  0  0  0  0  0  0  0
   59.8360   34.3390   46.9390 C   0  0  0  0  0  0  0  0  0  0  0  0
   59.2690   33.9300   45.7510 C   0  0  0  0  0  0  0  0  0  0  0  0
   59.9348   30.7803   44.4623 H   0  0  0  0  0  0  0  0  0  0  0  0
   59.8726   28.8776   44.5375 H   0  0  0  0  0  0  0  0  0  0  0  0
   57.5529   27.1076   43.5760 H   0  0  0  0  0  0  0  0  0  0  0  0
   54.3830   27.0910   46.3790 H   0  0  0  0  0  0  0  0  0  0  0  0
   59.6780   25.2840   47.6780 H   0  0  0  0  0  0  0  0  0  0  0  0
   60.2380   27.7270   46.0470 H   0  0  0  0  0  0  0  0  0  0  0  0
   54.8756   28.8439   44.6117 H   0  0  0  0  0  0  0  0  0  0  0  0
   58.5391   32.4179   43.6001 H   0  0  0  0  0  0  0  0  0  0  0  0
   56.9418   33.0399   44.2198 H   0  0  0  0  0  0  0  0  0  0  0  0
   57.5600   31.2678   46.8770 H   0  0  0  0  0  0  0  0  0  0  0  0
   58.5718   31.9983   48.9840 H   0  0  0  0  0  0  0  0  0  0  0  0
   65.0020   31.8890   48.4290 H   0  0  0  0  0  0  0  0  0  0  0  0
   63.3500   32.4940   50.2940 H   0  0  0  0  0  0  0  0  0  0  0  0
   60.4896   35.2238   46.9429 H   0  0  0  0  0  0  0  0  0  0  0  0
   59.4835   34.5011   44.8357 H   0  0  0  0  0  0  0  0  0  0  0  0
  1  2  2  0
  2  3  1  0
  3  4  2  0
  4  5  1  0
  5  6  1  0
  6  7  1  0
  6  8  2  0
  8  9  1  0
  9 10  2  0
  9 11  1  0
 11 12  1  0
 12 13  1  0
  3 14  1  0
 14 15  2  0
 15 16  1  0
 16 17  1  0
 17 18  1  0
 18 19  2  0
 19 20  1  0
 20 21  2  0
 21 22  1  0
 22 23  2  0
 22 24  1  0
 24 25  2  3
 25 26  1  0
 26 27  2  0
 27 28  1  0
 28 29  1  0
 21 30  1  0
 30 31  2  0
 16  2  1  0
 31 18  1  0
 12  5  2  0
 29 25  1  0
  1 32  1  0
  1 33  1  0
  4 34  1  0
  7 35  1  0
 11 36  1  0
 13 37  1  0
 14 38  1  0
 17 39  1  0
 17 40  1  0
 19 41  1  0
 20 42  1  0
 28 43  1  0
 29 44  1  0
 30 45  1  0
 31 46  1  0
M  END
>  <smiles>  (20) 
C=c1c(=Cc2c(O)nc(=O)[nH]c2O)cnn1Cc1ccc(C(=O)N=c2nn[nH][nH]2)cc1

>  <score_type>  (20) 
oracle

>  <origin>  (20) 
adg

>  <m_score__min__energy>  (20) 
-10.08

>  <m_primary>  (20) 
energy

$$$$
20:0
     RDKit          3D

 48 50  0  0  0  0  0  0  0  0999 V2000
   56.6300   30.8920   45.5980 H   0  0  0  0  0  0  0  0  0  0  0  0
   56.7340   31.6760   44.9980 O   0  0  0  0  0  0  0  0  0  0  0  0
   57.0010   31.1590   43.7250 C   0  0  0  0  0  0  0  0  0  0  0  0
   58.0030   30.7052   43.7207 H   0  0  0  0  0  0  0  0  0  0  0  0
   56.9536   31.9763   42.9903 H   0  0  0  0  0  0  0  0  0  0  0  0
   55.9650   30.0970   43.3540 C   0  0  0  0  0  0  0  0  0  0  0  0
   56.4128   29.3921   42.6380 H   0  0  0  0  0  0  0  0  0  0  0  0
   55.0936   30.5980   42.9072 H   0  0  0  0  0  0  0  0  0  0  0  0
   55.5230   29.3600   44.5390 N   0  0  0  0  0  0  0  0  0  0  0  0
   56.2990   28.6970   45.3440 C   0  0  0  0  0  0  0  0  0  0  0  0
   56.0210   27.3960   45.6150 N   0  0  0  0  0  0  0  0  0  0  0  0
   56.8210   26.6810   46.4480 C   0  0  0  0  0  0  0  0  0  0  0  0
   56.5250   25.3060   46.7340 N   0  0  0  0  0  0  0  0  0  0  0  0
   55.4980   24.5470   46.0420 C   0  0  0  0  0  0  0  0  0  0  0  0
   54.5010   24.9479   46.2770 H   0  0  0  0  0  0  0  0  0  0  0  0
   55.6189   24.6021   44.9501 H   0  0  0  0  0  0  0  0  0  0  0  0
   55.6290   23.1160   46.5510 C   0  0  0  0  0  0  0  0  0  0  0  0
   54.6371   22.6951   46.7721 H   0  0  0  0  0  0  0  0  0  0  0  0
   56.0981   22.4600   45.8029 H   0  0  0  0  0  0  0  0  0  0  0  0
   56.4690   23.2070   47.8310 C   0  0  1  0  0  0  0  0  0  0  0  0
   55.8288   23.1709   48.7248 H   0  0  0  0  0  0  0  0  0  0  0  0
   57.3390   22.1110   47.9760 O   0  0  0  0  0  0  0  0  0  0  0  0
   57.7710   22.1800   48.8670 H   0  0  0  0  0  0  0  0  0  0  0  0
   57.2190   24.5380   47.7520 C   0  0  0  0  0  0  0  0  0  0  0  0
   57.1828   25.0592   48.7200 H   0  0  0  0  0  0  0  0  0  0  0  0
   58.2821   24.3970   47.5073 H   0  0  0  0  0  0  0  0  0  0  0  0
   57.9040   27.2760   47.0090 N   0  0  0  0  0  0  0  0  0  0  0  0
   58.1890   28.5800   46.7510 C   0  0  0  0  0  0  0  0  0  0  0  0
   59.2360   29.1570   47.2640 N   0  0  0  0  0  0  0  0  0  0  0  0
   59.2420   30.2770   48.1660 C   0  0  0  0  0  0  0  0  0  0  0  0
   59.6270   30.0690   49.4960 C   0  0  0  0  0  0  0  0  0  0  0  0
   59.8988   29.0584   49.8348 H   0  0  0  0  0  0  0  0  0  0  0  0
   59.6680   31.1380   50.3960 C   0  0  0  0  0  0  0  0  0  0  0  0
   59.9418   30.9572   51.4459 H   0  0  0  0  0  0  0  0  0  0  0  0
   59.3630   32.4380   49.9710 C   0  0  0  0  0  0  0  0  0  0  0  0
   59.3910   33.5160   50.9220 N   0  0  0  0  0  0  0  0  0  0  0  0
   60.0220   34.3260   50.7270 H   0  0  0  0  0  0  0  0  0  0  0  0
   58.5250   33.6040   52.0660 C   0  0  0  0  0  0  0  0  0  0  0  0
   57.5400   32.8290   52.1880 O   0  0  0  0  0  0  0  0  0  0  0  0
   58.7880   34.6280   53.1230 C   0  0  0  0  0  0  0  0  0  0  0  0
   59.3996   35.4398   52.7023 H   0  0  0  0  0  0  0  0  0  0  0  0
   57.8319   35.0362   53.4826 H   0  0  0  0  0  0  0  0  0  0  0  0
   59.7330   33.8080   54.5990 Br  0  0  0  0  0  0  0  0  0  0  0  0
   58.9850   32.6500   48.6330 C   0  0  0  0  0  0  0  0  0  0  0  0
   58.7226   33.6626   48.2927 H   0  0  0  0  0  0  0  0  0  0  0  0
   58.9410   31.5820   47.7340 C   0  0  0  0  0  0  0  0  0  0  0  0
   58.6698   31.7618   46.6832 H   0  0  0  0  0  0  0  0  0  0  0  0
   57.3890   29.2830   45.9090 N   0  0  0  0  0  0  0  0  0  0  0  0
  1  2  1  0
  2  3  1  0
  3  4  1  0
  3  5  1  0
  3  6  1  0
  6  7  1  0
  6  8  1  0
  6  9  1  0
  9 10  2  0
 10 11  1  0
 11 12  1  0
 12 13  1  0
 13 14  1  0
 14 15  1  0
 14 16  1  0
 14 17  1  0
 17 18  1  0
 17 19  1  0
 17 20  1  0
 20 21  1  1
 20 22  1  0
 22 23  1  0
 20 24  1  0
 24 25  1  0
 24 26  1  0
 12 27  2  0
 27 28  1  0
 28 29  2  3
 29 30  1  0
 30 31  2  0
 31 32  1  0
 31 33  1  0
 33 34  1  0
 33 35  2  0
 35 36  1  0
 36 37  1  0
 36 38  1  0
 38 39  2  0
 38 40  1  0
 40 41  1  0
 40 42  1  0
 40 43  1  0
 35 44  1  0
 44 45  1  0
 44 46  2  0
 46 47  1  0
 28 48  1  0
 48 10  1  0
 24 13  1  0
 46 30  1  0
M  CHG  2  11  -1  48  -1
M  END
>  <UniqueID>  (21) 
19

>  <SMILES>  (21) 
O=C(CBr)Nc1ccc(N=c2nc(N3CC[C@@H](O)C3)[n-]/c(=N/CCO)[n-]2)cc1

>  <Energy>  (21) 
55.016946747947685

>  <Genealogy>  (21) 
O=C(CBr)Nc1ccc(N=c2nc(N3CCC(O)C3)[n-]c(=NCCO)[n-]2)cc1 (protonated)
O=C(CBr)Nc1ccc(N=c2nc(N3CC[C@@H](O)C3)[n-]c(=NCCO)[n-]2)cc1 (chirality)
O=C(CBr)Nc1ccc(N=c2nc(N3CC[C@@H](O)C3)[n-]/c(=N/CCO)[n-]2)cc1 (cis-trans isomerization)
O=C(CBr)Nc1ccc(N=c2nc(N3CC[C@@H](O)C3)[n-]/c(=N/CCO)[n-]2)cc1 (3D coordinates assigned)
O=C(CBr)Nc1ccc(N=c2nc(N3CC[C@@H](O)C3)[n-]/c(=N/CCO)[n-]2)cc1 (nonaromatic ring conformer: 55.016946747947685 kcal/mol)

>  <smiles>  (21) 
O=C(CBr)Nc1ccc(N=c2nc(N3CCC(O)C3)[nH]c(=NCCO)[nH]2)cc1

>  <score_type>  (21) 
oracle

>  <origin>  (21) 
adg

>  <m_score__min__energy>  (21) 
-9.9399999999999995

>  <m_primary>  (21) 
energy

$$$$
21:0
     RDKit          3D

 36 37  0  0  0  0  0  0  0  0999 V2000
   60.3900   27.0120   48.4530 C   0  0  0  0  0  0  0  0  0  0  0  0
   59.6210   27.4020   47.2250 C   0  0  0  0  0  0  0  0  0  0  0  0
   58.2510   27.1120   47.1280 C   0  0  0  0  0  0  0  0  0  0  0  0
   57.5250   27.5070   46.0010 C   0  0  0  0  0  0  0  0  0  0  0  0
   58.1560   28.2120   44.9630 C   0  0  0  0  0  0  0  0  0  0  0  0
   57.3870   28.6210   43.7360 C   0  0  0  0  0  0  0  0  0  0  0  0
   57.6940   30.0070   43.3850 N   0  0  0  0  0  0  0  0  0  0  0  0
   57.4610   31.0990   44.2900 C   0  0  0  0  0  0  0  0  0  0  0  0
   57.0260   30.8680   45.4510 O   0  0  0  0  0  0  0  0  0  0  0  0
   57.7430   32.4900   43.8700 C   0  0  0  0  0  0  0  0  0  0  0  0
   58.0490   32.7150   42.6680 O   0  0  0  0  0  0  0  0  0  0  0  0
   57.6450   33.6260   44.8180 C   0  0  0  0  0  0  0  0  0  0  0  0
   56.8570   34.5770   44.5600 O   0  0  0  0  0  0  0  0  0  0  0  0
   58.4730   33.6970   46.0480 C   0  0  0  0  0  0  0  0  0  0  0  0
   58.1180   32.9840   47.2080 C   0  0  0  0  0  0  0  0  0  0  0  0
   58.9030   33.0750   48.3630 C   0  0  0  0  0  0  0  0  0  0  0  0
   60.0430   33.8820   48.3740 C   0  0  0  0  0  0  0  0  0  0  0  0
   60.3960   34.6070   47.2330 C   0  0  0  0  0  0  0  0  0  0  0  0
   59.6140   34.5190   46.0770 C   0  0  0  0  0  0  0  0  0  0  0  0
   59.5230   28.5130   45.0670 C   0  0  0  0  0  0  0  0  0  0  0  0
   60.2490   28.1180   46.1950 C   0  0  0  0  0  0  0  0  0  0  0  0
   59.8209   27.3006   49.3490 H   0  0  0  0  0  0  0  0  0  0  0  0
   60.5502   25.9237   48.4551 H   0  0  0  0  0  0  0  0  0  0  0  0
   61.3626   27.5258   48.4551 H   0  0  0  0  0  0  0  0  0  0  0  0
   57.7466   26.5715   47.9426 H   0  0  0  0  0  0  0  0  0  0  0  0
   56.4546   27.2647   45.9266 H   0  0  0  0  0  0  0  0  0  0  0  0
   57.6640   27.9643   42.8981 H   0  0  0  0  0  0  0  0  0  0  0  0
   56.3100   28.5336   43.9422 H   0  0  0  0  0  0  0  0  0  0  0  0
   58.0960   30.1950   42.4400 H   0  0  0  0  0  0  0  0  0  0  0  0
   57.2181   32.3514   47.2070 H   0  0  0  0  0  0  0  0  0  0  0  0
   58.6217   32.5099   49.2639 H   0  0  0  0  0  0  0  0  0  0  0  0
   60.6626   33.9467   49.2806 H   0  0  0  0  0  0  0  0  0  0  0  0
   61.2901   35.2477   47.2440 H   0  0  0  0  0  0  0  0  0  0  0  0
   59.8933   35.0969   45.1837 H   0  0  0  0  0  0  0  0  0  0  0  0
   60.0257   29.0623   44.2573 H   0  0  0  0  0  0  0  0  0  0  0  0
   61.3168   28.3697   46.2750 H   0  0  0  0  0  0  0  0  0  0  0  0
  1  2  1  0
  2  3  2  0
  3  4  1  0
  4  5  2  0
  5  6  1  0
  6  7  1  0
  7  8  1  0
  8  9  2  0
  8 10  1  0
 10 11  2  0
 10 12  1  0
 12 13  2  0
 12 14  1  0
 14 15  2  0
 15 16  1  0
 16 17  2  0
 17 18  1  0
 18 19  2  0
  5 20  1  0
 20 21  2  0
 21  2  1  0
 19 14  1  0
  1 22  1  0
  1 23  1  0
  1 24  1  0
  3 25  1  0
  4 26  1  0
  6 27  1  0
  6 28  1  0
  7 29  1  0
 15 30  1  0
 16 31  1  0
 17 32  1  0
 18 33  1  0
 19 34  1  0
 20 35  1  0
 21 36  1  0
M  END
>  <UniqueID>  (22) 
20

>  <SMILES>  (22) 
Cc1ccc(CNC(=O)C(=O)C(=O)c2ccccc2)cc1

>  <Energy>  (22) 
37.5978236923082

>  <Genealogy>  (22) 
Cc1ccc(CNC(=O)C(=O)C(=O)c2ccccc2)cc1 (3D coordinates assigned)
Cc1ccc(CNC(=O)C(=O)C(=O)c2ccccc2)cc1 (optimized conformer: 37.5978236923082 kcal/mol)

>  <smiles>  (22) 
Cc1ccc(CNC(=O)C(=O)C(=O)c2ccccc2)cc1

>  <score_type>  (22) 
oracle

>  <origin>  (22) 
adg

>  <m_score__min__energy>  (22) 
-8.0099999999999998

>  <m_primary>  (22) 
energy

$$$$
22:0
     RDKit          3D

 57 61  0  0  1  0  0  0  0  0999 V2000
   61.0870   32.8880   48.3820 C   0  0  0  0  0  0  0  0  0  0  0  0
   60.0510   32.2400   49.2100 C   0  0  0  0  0  0  0  0  0  0  0  0
   59.4050   33.0250   50.1420 C   0  0  0  0  0  0  0  0  0  0  0  0
   58.4170   32.4690   50.9180 C   0  0  0  0  0  0  0  0  0  0  0  0
   58.0660   31.1250   50.7700 C   0  0  0  0  0  0  0  0  0  0  0  0
   57.0160   30.6390   51.6230 C   0  0  0  0  0  0  0  0  0  0  0  0
   57.1600   29.4300   52.0380 O   0  0  0  0  0  0  0  0  0  0  0  0
   56.7850   30.5540   44.7500 N   0  0  0  0  0  0  0  0  0  0  0  0
   57.4560   29.6530   45.2510 C   0  0  0  0  0  0  0  0  0  0  0  0
   53.7400   31.2060   51.2090 N   0  0  0  0  0  0  0  0  0  0  0  0
   52.5090   30.6800   51.1970 C   0  0  0  0  0  0  0  0  0  0  0  0
   52.1620   29.6650   52.0970 C   0  0  0  0  0  0  0  0  0  0  0  0
   53.1050   29.2010   53.0100 C   0  0  0  0  0  0  0  0  0  0  0  0
   54.3640   29.7750   52.9860 C   0  0  0  0  0  0  0  0  0  0  0  0
   55.2830   29.2860   53.9170 O   0  0  0  0  0  0  0  0  0  0  0  0
   58.7210   30.3230   49.8210 C   0  0  0  0  0  0  0  0  0  0  0  0
   59.7080   30.8800   49.0490 C   0  0  0  0  0  0  0  0  0  0  0  0
   55.8730   31.2990   52.0620 N   0  0  0  0  0  0  0  0  0  0  0  0
   54.6970   30.7850   52.0840 C   0  0  0  0  0  0  0  0  0  0  0  0
   60.6940   27.9620   48.2360 N   0  0  0  0  0  0  0  0  0  0  0  0
   60.3450   26.7110   47.8730 C   0  0  0  0  0  0  0  0  0  0  0  0
   59.3830   26.4990   46.9500 N   0  0  0  0  0  0  0  0  0  0  0  0
   58.7590   27.5450   46.3870 C   0  0  0  0  0  0  0  0  0  0  0  0
   57.7770   27.3220   45.4690 C   0  0  0  0  0  0  0  0  0  0  0  0
   57.1670   28.3730   44.9370 N   0  0  0  0  0  0  0  0  0  0  0  0
   60.0740   29.0360   47.6730 C   0  0  0  0  0  0  0  0  0  0  0  0
   60.4500   30.1920   48.0630 N   0  0  0  0  0  0  0  0  0  0  0  0
   57.0110   31.8410   44.2150 C   0  0  0  0  0  0  0  0  0  0  0  0
   57.7500   32.8340   45.0150 C   0  0  0  0  0  0  0  0  0  0  0  0
   58.7020   33.7100   44.5260 C   0  0  0  0  0  0  0  0  0  0  0  0
   59.2560   34.6280   45.3920 C   0  0  0  0  0  0  0  0  0  0  0  0
   58.8940   34.7040   46.7360 C   0  0  0  0  0  0  0  0  0  0  0  0
   57.9740   33.8460   47.1880 N   0  0  0  0  0  0  0  0  0  0  0  0
   57.4030   32.9260   46.3650 C   0  0  0  0  0  0  0  0  0  0  0  0
   58.4340   29.9130   46.1650 N   0  0  0  0  0  0  0  0  0  0  0  0
   59.0680   28.8660   46.7150 C   0  0  0  0  0  0  0  0  0  0  0  0
   61.8376   33.3575   49.0349 H   0  0  0  0  0  0  0  0  0  0  0  0
   61.5740   32.1333   47.7470 H   0  0  0  0  0  0  0  0  0  0  0  0
   60.6215   33.6562   47.7470 H   0  0  0  0  0  0  0  0  0  0  0  0
   59.6776   34.0838   50.2626 H   0  0  0  0  0  0  0  0  0  0  0  0
   57.8970   33.0885   51.6635 H   0  0  0  0  0  0  0  0  0  0  0  0
   53.9920   31.9600   50.5370 H   0  0  0  0  0  0  0  0  0  0  0  0
   51.7649   31.0477   50.4751 H   0  0  0  0  0  0  0  0  0  0  0  0
   51.1491   29.2363   52.0827 H   0  0  0  0  0  0  0  0  0  0  0  0
   52.8575   28.4043   53.7269 H   0  0  0  0  0  0  0  0  0  0  0  0
   56.2420   29.6670   53.8150 H   0  0  0  0  0  0  0  0  0  0  0  0
   58.4466   29.2648   49.6990 H   0  0  0  0  0  0  0  0  0  0  0  0
   60.8514   25.8511   48.3356 H   0  0  0  0  0  0  0  0  0  0  0  0
   59.0980   25.5450   46.6480 H   0  0  0  0  0  0  0  0  0  0  0  0
   57.4978   26.2988   45.1772 H   0  0  0  0  0  0  0  0  0  0  0  0
   56.4330   28.2390   44.2350 H   0  0  0  0  0  0  0  0  0  0  0  0
   57.5688   31.7053   43.2767 H   0  0  0  0  0  0  0  0  0  0  0  0
   56.0017   32.2706   44.1333 H   0  0  0  0  0  0  0  0  0  0  0  0
   59.0098   33.6749   43.4705 H   0  0  0  0  0  0  0  0  0  0  0  0
   60.0129   35.3276   45.0078 H   0  0  0  0  0  0  0  0  0  0  0  0
   59.3518   35.4478   47.4047 H   0  0  0  0  0  0  0  0  0  0  0  0
   56.6488   32.2369   46.7728 H   0  0  0  0  0  0  0  0  0  0  0  0
  1  2  1  0
  2  3  2  0
  3  4  1  0
  4  5  2  0
  5  6  1  0
  6  7  2  0
  6  8  1  0
  8  9  2  0
  9 10  1  0
 10 11  1  0
 11 12  2  0
 12 13  1  0
 13 14  2  0
 14 15  1  0
  5 16  1  0
 16 17  2  0
 17 18  1  0
 18 19  2  0
 19 20  1  0
 20 21  2  0
 21 22  1  0
 22 23  1  0
 23 24  2  0
 24 25  1  0
 25 26  1  0
 26 27  2  0
 27 28  1  0
 28 29  1  0
 29 30  2  0
 30 31  1  0
 31 32  2  0
 32 33  1  0
 33 34  2  0
 26 35  1  0
 35 36  2  0
 17  2  1  0
 36 19  1  0
 14  9  1  0
 36 23  1  0
 34 29  1  0
  1 37  1  0
  1 38  1  0
  1 39  1  0
  3 40  1  0
  4 41  1  0
 10 42  1  0
 11 43  1  0
 12 44  1  0
 13 45  1  0
 15 46  1  0
 16 47  1  0
 21 48  1  0
 22 49  1  0
 24 50  1  0
 25 51  1  0
 28 52  1  0
 28 53  1  0
 30 54  1  0
 31 55  1  0
 32 56  1  0
 34 57  1  0
M  END
>  <smiles>  (23) 
Cc1ccc(C(=O)N=c2[nH]cccc2O)cc1N=c1nc[nH]c2c[nH]c(=NCc3cccnc3)nc12

>  <score_type>  (23) 
oracle

>  <origin>  (23) 
adg

>  <m_score__min__energy>  (23) 
-10.74

>  <m_primary>  (23) 
energy

$$$$
23:0
     RDKit          3D

 43 46  0  0  0  0  0  0  0  0999 V2000
   62.9760   33.8870   49.9620 O   0  0  0  0  0  0  0  0  0  0  0  0
   63.8360   33.1170   49.4550 C   0  0  0  0  0  0  0  0  0  0  0  0
   64.0290   33.0990   48.0320 N   0  0  0  0  0  0  0  0  0  0  0  0
   63.2710   33.9630   47.1300 C   0  0  0  0  0  0  0  0  0  0  0  0
   61.9150   33.3710   46.8560 C   0  0  0  0  0  0  0  0  0  0  0  0
   60.8830   34.1590   46.3210 C   0  0  0  0  0  0  0  0  0  0  0  0
   59.6210   33.6050   46.0890 C   0  0  0  0  0  0  0  0  0  0  0  0
   59.3650   32.2660   46.4040 C   0  0  0  0  0  0  0  0  0  0  0  0
   58.0860   31.7470   46.1560 O   0  0  0  0  0  0  0  0  0  0  0  0
   57.6050   31.3410   44.9020 C   0  0  0  0  0  0  0  0  0  0  0  0
   57.8870   32.0620   43.7260 C   0  0  0  0  0  0  0  0  0  0  0  0
   57.4000   31.6170   42.4930 C   0  0  0  0  0  0  0  0  0  0  0  0
   56.6420   30.4440   42.4210 C   0  0  0  0  0  0  0  0  0  0  0  0
   56.3760   29.7120   43.5810 C   0  0  0  0  0  0  0  0  0  0  0  0
   56.8610   30.1570   44.8170 C   0  0  0  0  0  0  0  0  0  0  0  0
   60.4030   31.4680   46.9170 C   0  0  0  0  0  0  0  0  0  0  0  0
   61.6680   32.0190   47.1450 C   0  0  0  0  0  0  0  0  0  0  0  0
   64.6110   32.2550   50.3070 N   0  0  0  0  0  0  0  0  0  0  0  0
   64.2510   31.0650   50.8540 C   0  0  0  0  0  0  0  0  0  0  0  0
   63.1290   30.5200   50.6760 O   0  0  0  0  0  0  0  0  0  0  0  0
   65.2130   30.5100   51.5710 O   0  0  0  0  0  0  0  0  0  0  0  0
   66.2280   31.3380   51.4990 C   0  0  0  0  0  0  0  0  0  0  0  0
   67.4830   31.2200   52.0870 C   0  0  0  0  0  0  0  0  0  0  0  0
   68.4080   32.2580   51.8660 C   0  0  0  0  0  0  0  0  0  0  0  0
   68.0540   33.3780   51.0760 C   0  0  0  0  0  0  0  0  0  0  0  0
   69.2160   34.6670   50.8230 Cl  0  0  0  0  0  0  0  0  0  0  0  0
   66.7740   33.4650   50.4940 C   0  0  0  0  0  0  0  0  0  0  0  0
   65.8830   32.4120   50.7240 C   0  0  0  0  0  0  0  0  0  0  0  0
   64.6850   32.4050   47.6100 H   0  0  0  0  0  0  0  0  0  0  0  0
   63.1478   34.9527   47.5939 H   0  0  0  0  0  0  0  0  0  0  0  0
   63.8186   34.0572   46.1807 H   0  0  0  0  0  0  0  0  0  0  0  0
   61.0687   35.2169   46.0835 H   0  0  0  0  0  0  0  0  0  0  0  0
   58.8233   34.2261   45.6556 H   0  0  0  0  0  0  0  0  0  0  0  0
   58.4927   32.9788   43.7773 H   0  0  0  0  0  0  0  0  0  0  0  0
   57.6134   32.1902   41.5787 H   0  0  0  0  0  0  0  0  0  0  0  0
   56.2552   30.0977   41.4512 H   0  0  0  0  0  0  0  0  0  0  0  0
   55.7854   28.7858   43.5233 H   0  0  0  0  0  0  0  0  0  0  0  0
   56.6566   29.5733   45.7267 H   0  0  0  0  0  0  0  0  0  0  0  0
   60.2193   30.4066   47.1398 H   0  0  0  0  0  0  0  0  0  0  0  0
   62.4734   31.3904   47.5527 H   0  0  0  0  0  0  0  0  0  0  0  0
   67.7435   30.3466   52.7029 H   0  0  0  0  0  0  0  0  0  0  0  0
   69.4126   32.1983   52.3102 H   0  0  0  0  0  0  0  0  0  0  0  0
   66.4855   34.3310   49.8801 H   0  0  0  0  0  0  0  0  0  0  0  0
  1  2  2  0
  2  3  1  0
  3  4  1  0
  4  5  1  0
  5  6  2  0
  6  7  1  0
  7  8  2  0
  8  9  1  0
  9 10  1  0
 10 11  2  0
 11 12  1  0
 12 13  2  0
 13 14  1  0
 14 15  2  0
  8 16  1  0
 16 17  2  0
  2 18  1  0
 18 19  1  0
 19 20  2  0
 19 21  1  0
 21 22  1  0
 22 23  2  0
 23 24  1  0
 24 25  2  0
 25 26  1  0
 25 27  1  0
 27 28  2  0
 17  5  1  0
 28 18  1  0
 15 10  1  0
 28 22  1  0
  3 29  1  0
  4 30  1  0
  4 31  1  0
  6 32  1  0
  7 33  1  0
 11 34  1  0
 12 35  1  0
 13 36  1  0
 14 37  1  0
 15 38  1  0
 16 39  1  0
 17 40  1  0
 23 41  1  0
 24 42  1  0
 27 43  1  0
M  END
>  <UniqueID>  (24) 
21

>  <SMILES>  (24) 
O=C(NCc1ccc(Oc2ccccc2)cc1)n1c(=O)oc2ccc(Cl)cc21

>  <Energy>  (24) 
96.70534674955778

>  <Genealogy>  (24) 
O=C(NCc1ccc(Oc2ccccc2)cc1)n1c(=O)oc2ccc(Cl)cc21 (3D coordinates assigned)
O=C(NCc1ccc(Oc2ccccc2)cc1)n1c(=O)oc2ccc(Cl)cc21 (optimized conformer: 96.70534674955778 kcal/mol)

>  <smiles>  (24) 
O=C(NCc1ccc(Oc2ccccc2)cc1)n1c(=O)oc2ccc(Cl)cc21

>  <score_type>  (24) 
oracle

>  <origin>  (24) 
adg

>  <m_score__min__energy>  (24) 
-8.0999999999999996

>  <m_primary>  (24) 
energy

$$$$
24:0
     RDKit          3D

 51 53  0  0  0  0  0  0  0  0999 V2000
   57.6130   23.9760   44.5280 C   0  0  0  0  0  0  0  0  0  0  0  0
   56.3180   24.6530   44.5480 N   0  0  0  0  0  0  0  0  0  0  0  0
   56.1870   25.6270   45.9820 S   0  0  0  0  0  0  0  0  0  0  0  0
   54.8620   26.3360   45.9770 O   0  0  0  0  0  0  0  0  0  0  0  0
   56.2500   24.7480   47.2000 O   0  0  0  0  0  0  0  0  0  0  0  0
   57.4790   26.8250   46.0320 C   0  0  0  0  0  0  0  0  0  0  0  0
   58.5480   26.6600   46.9210 C   0  0  0  0  0  0  0  0  0  0  0  0
   59.5690   27.6120   46.9780 C   0  0  0  0  0  0  0  0  0  0  0  0
   59.5380   28.7400   46.1410 C   0  0  0  0  0  0  0  0  0  0  0  0
   60.6510   29.7680   46.2020 C   0  0  0  0  0  0  0  0  0  0  0  0
   60.4750   30.7860   47.2680 N   0  0  0  0  0  0  0  0  0  0  0  0
   59.0760   31.2510   47.4150 C   0  0  0  0  0  0  0  0  0  0  0  0
   58.8050   32.4320   46.5200 C   0  0  0  0  0  0  0  0  0  0  0  0
   59.5730   33.6020   46.6450 C   0  0  0  0  0  0  0  0  0  0  0  0
   59.3140   34.7060   45.8270 C   0  0  0  0  0  0  0  0  0  0  0  0
   58.2800   34.6550   44.8880 C   0  0  0  0  0  0  0  0  0  0  0  0
   57.4990   33.5010   44.7700 C   0  0  0  0  0  0  0  0  0  0  0  0
   57.7560   32.3950   45.5860 C   0  0  0  0  0  0  0  0  0  0  0  0
   61.0560   30.3640   48.5590 C   0  0  0  0  0  0  0  0  0  0  0  0
   62.2800   31.1840   48.8750 C   0  0  0  0  0  0  0  0  0  0  0  0
   62.9180   31.0700   50.1210 C   0  0  0  0  0  0  0  0  0  0  0  0
   64.0430   31.8480   50.4090 C   0  0  0  0  0  0  0  0  0  0  0  0
   64.5400   32.7440   49.4570 C   0  0  0  0  0  0  0  0  0  0  0  0
   65.6310   33.4980   49.7390 F   0  0  0  0  0  0  0  0  0  0  0  0
   63.9100   32.8620   48.2140 C   0  0  0  0  0  0  0  0  0  0  0  0
   62.7840   32.0860   47.9230 C   0  0  0  0  0  0  0  0  0  0  0  0
   58.4510   28.9130   45.2700 C   0  0  0  0  0  0  0  0  0  0  0  0
   57.4300   27.9610   45.2130 C   0  0  0  0  0  0  0  0  0  0  0  0
   57.9505   23.7996   45.5600 H   0  0  0  0  0  0  0  0  0  0  0  0
   57.5155   23.0135   44.0045 H   0  0  0  0  0  0  0  0  0  0  0  0
   58.3477   24.6054   44.0045 H   0  0  0  0  0  0  0  0  0  0  0  0
   56.2850   25.3030   43.7300 H   0  0  0  0  0  0  0  0  0  0  0  0
   58.5841   25.7777   47.5769 H   0  0  0  0  0  0  0  0  0  0  0  0
   60.4027   27.4775   47.6829 H   0  0  0  0  0  0  0  0  0  0  0  0
   61.5996   29.2405   46.3807 H   0  0  0  0  0  0  0  0  0  0  0  0
   60.6398   30.3064   45.2428 H   0  0  0  0  0  0  0  0  0  0  0  0
   58.3938   30.4311   47.1458 H   0  0  0  0  0  0  0  0  0  0  0  0
   58.9155   31.5573   48.4592 H   0  0  0  0  0  0  0  0  0  0  0  0
   60.3814   33.6496   47.3895 H   0  0  0  0  0  0  0  0  0  0  0  0
   59.9248   35.6158   45.9226 H   0  0  0  0  0  0  0  0  0  0  0  0
   58.0806   35.5226   44.2418 H   0  0  0  0  0  0  0  0  0  0  0  0
   56.6818   33.4633   44.0346 H   0  0  0  0  0  0  0  0  0  0  0  0
   57.1342   31.4920   45.4963 H   0  0  0  0  0  0  0  0  0  0  0  0
   60.3102   30.5036   49.3554 H   0  0  0  0  0  0  0  0  0  0  0  0
   61.3429   29.3041   48.4927 H   0  0  0  0  0  0  0  0  0  0  0  0
   62.5311   30.3662   50.8727 H   0  0  0  0  0  0  0  0  0  0  0  0
   64.5386   31.7553   51.3867 H   0  0  0  0  0  0  0  0  0  0  0  0
   64.3008   33.5660   47.4646 H   0  0  0  0  0  0  0  0  0  0  0  0
   62.2906   32.1821   46.9446 H   0  0  0  0  0  0  0  0  0  0  0  0
   58.4026   29.8046   44.6276 H   0  0  0  0  0  0  0  0  0  0  0  0
   56.5851   28.1036   44.5232 H   0  0  0  0  0  0  0  0  0  0  0  0
  1  2  1  0
  2  3  1  0
  3  4  2  0
  3  5  2  0
  3  6  1  0
  6  7  2  0
  7  8  1  0
  8  9  2  0
  9 10  1  0
 10 11  1  0
 11 12  1  0
 12 13  1  0
 13 14  2  0
 14 15  1  0
 15 16  2  0
 16 17  1  0
 17 18  2  0
 11 19  1  0
 19 20  1  0
 20 21  2  0
 21 22  1  0
 22 23  2  0
 23 24  1  0
 23 25  1  0
 25 26  2  0
  9 27  1  0
 27 28  2  0
 28  6  1  0
 18 13  1  0
 26 20  1  0
  1 29  1  0
  1 30  1  0
  1 31  1  0
  2 32  1  0
  7 33  1  0
  8 34  1  0
 10 35  1  0
 10 36  1  0
 12 37  1  0
 12 38  1  0
 14 39  1  0
 15 40  1  0
 16 41  1  0
 17 42  1  0
 18 43  1  0
 19 44  1  0
 19 45  1  0
 21 46  1  0
 22 47  1  0
 25 48  1  0
 26 49  1  0
 27 50  1  0
 28 51  1  0
M  END
>  <UniqueID>  (25) 
22

>  <SMILES>  (25) 
CNS(=O)(=O)c1ccc(CN(Cc2ccccc2)Cc2ccc(F)cc2)cc1

>  <Energy>  (25) 
53.31789676194932

>  <Genealogy>  (25) 
CNS(=O)(=O)c1ccc(CN(Cc2ccccc2)Cc2ccc(F)cc2)cc1 (3D coordinates assigned)
CNS(=O)(=O)c1ccc(CN(Cc2ccccc2)Cc2ccc(F)cc2)cc1 (optimized conformer: 53.31789676194932 kcal/mol)

>  <smiles>  (25) 
CNS(=O)(=O)c1ccc(CN(Cc2ccccc2)Cc2ccc(F)cc2)cc1

>  <score_type>  (25) 
oracle

>  <origin>  (25) 
adg

>  <m_score__min__energy>  (25) 
-8.8100000000000005

>  <m_primary>  (25) 
energy

$$$$
25:0
     RDKit          3D

 33 34  0  0  0  0  0  0  0  0999 V2000
   60.7290   29.0610   50.1170 C   0  0  0  0  0  0  0  0  0  0  0  0
   60.7690   27.8060   49.2510 C   0  0  0  0  0  0  0  0  0  0  0  0
   59.4550   27.4460   48.8300 O   0  0  0  0  0  0  0  0  0  0  0  0
   59.1660   26.9450   47.5550 C   0  0  0  0  0  0  0  0  0  0  0  0
   59.8410   25.9900   47.0800 O   0  0  0  0  0  0  0  0  0  0  0  0
   58.0500   27.5310   46.7690 C   0  0  0  0  0  0  0  0  0  0  0  0
   58.1000   28.8640   46.2840 C   0  0  0  0  0  0  0  0  0  0  0  0
   59.2310   29.7590   46.6340 C   0  0  0  0  0  0  0  0  0  0  0  0
   60.5040   29.5410   46.0860 C   0  0  0  0  0  0  0  0  0  0  0  0
   61.5690   30.3790   46.4220 C   0  0  0  0  0  0  0  0  0  0  0  0
   61.3810   31.4520   47.3130 C   0  0  0  0  0  0  0  0  0  0  0  0
   62.4770   32.3170   47.6640 N   0  0  0  0  0  0  0  0  0  0  0  0
   63.0780   32.1760   48.7490 O   0  0  0  0  0  0  0  0  0  0  0  0
   62.8790   33.3170   46.8090 O   0  0  0  0  0  0  0  0  0  0  0  0
   60.1030   31.6670   47.8590 C   0  0  0  0  0  0  0  0  0  0  0  0
   59.0380   30.8290   47.5200 C   0  0  0  0  0  0  0  0  0  0  0  0
   57.0250   29.3580   45.5100 C   0  0  0  0  0  0  0  0  0  0  0  0
   57.0120   30.7180   45.0180 C   0  0  0  0  0  0  0  0  0  0  0  0
   57.0010   31.8060   44.6240 N   0  0  0  0  0  0  0  0  0  0  0  0
   55.9300   28.5260   45.2460 C   0  0  0  0  0  0  0  0  0  0  0  0
   54.8560   28.9860   44.4920 O   0  0  0  0  0  0  0  0  0  0  0  0
   55.9040   27.2610   45.7330 N   0  0  0  0  0  0  0  0  0  0  0  0
   56.9150   26.7470   46.4760 C   0  0  0  0  0  0  0  0  0  0  0  0
   56.8300   25.5580   46.8820 O   0  0  0  0  0  0  0  0  0  0  0  0
   60.7381   28.7742   51.1789 H   0  0  0  0  0  0  0  0  0  0  0  0
   61.6077   29.6856   49.8983 H   0  0  0  0  0  0  0  0  0  0  0  0
   59.8123   29.6283   49.8983 H   0  0  0  0  0  0  0  0  0  0  0  0
   61.3929   27.9973   48.3655 H   0  0  0  0  0  0  0  0  0  0  0  0
   61.1914   26.9800   49.8420 H   0  0  0  0  0  0  0  0  0  0  0  0
   60.6638   28.7058   45.3882 H   0  0  0  0  0  0  0  0  0  0  0  0
   62.5631   30.1991   45.9868 H   0  0  0  0  0  0  0  0  0  0  0  0
   59.9408   32.5008   48.5579 H   0  0  0  0  0  0  0  0  0  0  0  0
   58.0420   31.0094   47.9505 H   0  0  0  0  0  0  0  0  0  0  0  0
  1  2  1  0
  2  3  1  0
  3  4  1  0
  4  5  2  0
  4  6  1  0
  6  7  2  0
  7  8  1  0
  8  9  2  0
  9 10  1  0
 10 11  2  0
 11 12  1  0
 12 13  2  0
 12 14  1  0
 11 15  1  0
 15 16  2  0
  7 17  1  0
 17 18  1  0
 18 19  3  0
 17 20  2  0
 20 21  1  0
 20 22  1  0
 22 23  1  0
 23 24  2  0
 23  6  1  0
 16  8  1  0
  1 25  1  0
  1 26  1  0
  1 27  1  0
  2 28  1  0
  2 29  1  0
  9 30  1  0
 10 31  1  0
 15 32  1  0
 16 33  1  0
M  CHG  4  12   1  14  -1  21  -1  22  -1
M  END
>  <UniqueID>  (26) 
23

>  <SMILES>  (26) 
CCOC(=O)c1c(-c2ccc([N+](=O)[O-])cc2)c(C#N)c([O-])[n-]c1=O

>  <Energy>  (26) 
45.4339942287482

>  <Genealogy>  (26) 
CCOC(=O)c1c(-c2ccc([N+](=O)[O-])cc2)c(C#N)c([O-])[n-]c1=O (protonated)
CCOC(=O)c1c(-c2ccc([N+](=O)[O-])cc2)c(C#N)c([O-])[n-]c1=O (3D coordinates assigned)
CCOC(=O)c1c(-c2ccc([N+](=O)[O-])cc2)c(C#N)c([O-])[n-]c1=O (optimized conformer: 45.4339942287482 kcal/mol)

>  <smiles>  (26) 
CCOC(=O)c1c(-c2ccc([N+](=O)[O-])cc2)c(C#N)c(O)[nH]c1=O

>  <score_type>  (26) 
oracle

>  <origin>  (26) 
adg

>  <m_score__min__energy>  (26) 
-10.279999999999999

>  <m_primary>  (26) 
energy

$$$$
26:0
     RDKit          3D

 40 42  0  0  0  0  0  0  0  0999 V2000
   61.7113   33.9766   51.0274 H   0  0  0  0  0  0  0  0  0  0  0  0
   60.9070   33.5160   50.4350 C   0  0  0  0  0  0  0  0  0  0  0  0
   60.9420   33.5850   49.0400 C   0  0  0  0  0  0  0  0  0  0  0  0
   61.7748   34.0999   48.5387 H   0  0  0  0  0  0  0  0  0  0  0  0
   59.9240   33.0030   48.2770 C   0  0  0  0  0  0  0  0  0  0  0  0
   59.9950   33.1090   46.8480 N   0  0  0  0  0  0  0  0  0  0  0  0
   58.7910   33.8460   45.8400 S   0  0  0  0  0  0  0  0  0  0  0  0
   57.6820   34.3760   46.7030 O   0  0  0  0  0  0  0  0  0  0  0  0
   59.4130   34.9890   45.0870 O   0  0  0  0  0  0  0  0  0  0  0  0
   58.1280   32.6490   44.7320 C   0  0  0  0  0  0  0  0  0  0  0  0
   58.1860   32.8730   43.3520 C   0  0  0  0  0  0  0  0  0  0  0  0
   58.6650   33.7841   42.9641 H   0  0  0  0  0  0  0  0  0  0  0  0
   57.6380   31.9440   42.4660 C   0  0  0  0  0  0  0  0  0  0  0  0
   57.6815   32.1273   41.3823 H   0  0  0  0  0  0  0  0  0  0  0  0
   57.0340   30.7810   42.9530 C   0  0  0  0  0  0  0  0  0  0  0  0
   56.5949   30.0572   42.2507 H   0  0  0  0  0  0  0  0  0  0  0  0
   56.9850   30.5320   44.3350 C   0  0  0  0  0  0  0  0  0  0  0  0
   56.3290   29.3050   44.8460 C   0  0  0  0  0  0  0  0  0  0  0  0
   55.1240   29.0850   44.5510 O   0  0  0  0  0  0  0  0  0  0  0  0
   57.0000   28.3780   45.7140 N   0  0  0  0  0  0  0  0  0  0  0  0
   56.6550   27.1400   45.9110 C   0  0  0  0  0  0  0  0  0  0  0  0
   55.3840   26.7030   46.0190 N   0  0  0  0  0  0  0  0  0  0  0  0
   55.4590   25.4230   46.2460 O   0  0  0  0  0  0  0  0  0  0  0  0
   56.7100   25.0230   46.2930 C   0  0  0  0  0  0  0  0  0  0  0  0
   57.1400   23.6200   46.5610 C   0  0  0  0  0  0  0  0  0  0  0  0
   57.1911   23.4533   47.6471 H   0  0  0  0  0  0  0  0  0  0  0  0
   56.4143   22.9229   46.1168 H   0  0  0  0  0  0  0  0  0  0  0  0
   58.1317   23.4492   46.1168 H   0  0  0  0  0  0  0  0  0  0  0  0
   57.5410   26.1030   46.0900 C   0  0  0  0  0  0  0  0  0  0  0  0
   58.6406   26.1295   46.0748 H   0  0  0  0  0  0  0  0  0  0  0  0
   57.5240   31.4820   45.2220 C   0  0  0  0  0  0  0  0  0  0  0  0
   57.4713   31.3082   46.3069 H   0  0  0  0  0  0  0  0  0  0  0  0
   58.8680   32.3390   48.9270 C   0  0  0  0  0  0  0  0  0  0  0  0
   58.0709   31.8694   48.3319 H   0  0  0  0  0  0  0  0  0  0  0  0
   58.8220   32.2700   50.3330 C   0  0  0  0  0  0  0  0  0  0  0  0
   57.7360   31.6000   51.0000 N   0  0  0  0  0  0  0  0  0  0  0  0
   56.9110   32.2430   51.6820 O   0  0  0  0  0  0  0  0  0  0  0  0
   57.5900   30.2340   50.9000 O   0  0  0  0  0  0  0  0  0  0  0  0
   59.8540   32.8640   51.0790 C   0  0  0  0  0  0  0  0  0  0  0  0
   59.8320   32.8149   52.1777 H   0  0  0  0  0  0  0  0  0  0  0  0
  1  2  1  0
  2  3  2  0
  3  4  1  0
  3  5  1  0
  5  6  1  0
  6  7  1  0
  7  8  2  0
  7  9  2  0
  7 10  1  0
 10 11  2  0
 11 12  1  0
 11 13  1  0
 13 14  1  0
 13 15  2  0
 15 16  1  0
 15 17  1  0
 17 18  1  0
 18 19  2  0
 18 20  1  0
 20 21  2  0
 21 22  1  0
 22 23  1  0
 23 24  1  0
 24 25  1  0
 25 26  1  0
 25 27  1  0
 25 28  1  0
 24 29  2  0
 29 30  1  0
 17 31  2  0
 31 32  1  0
  5 33  2  0
 33 34  1  0
 33 35  1  0
 35 36  1  0
 36 37  2  0
 36 38  1  0
 35 39  2  0
 39 40  1  0
 39  2  1  0
 31 10  1  0
 29 21  1  0
M  CHG  4   6  -1  22  -1  36   1  38  -1
M  END
>  <UniqueID>  (27) 
24

>  <SMILES>  (27) 
Cc1c/c(=N/C(=O)c2cccc(S(=O)(=O)[N-]c3cccc([N+](=O)[O-])c3)c2)[n-]o1

>  <Energy>  (27) 
83.62496666821376

>  <Genealogy>  (27) 
Cc1cc(=NC(=O)c2cccc(S(=O)(=O)[N-]c3cccc([N+](=O)[O-])c3)c2)[n-]o1 (protonated)
Cc1c/c(=N/C(=O)c2cccc(S(=O)(=O)[N-]c3cccc([N+](=O)[O-])c3)c2)[n-]o1 (cis-trans isomerization)
Cc1c/c(=N/C(=O)c2cccc(S(=O)(=O)[N-]c3cccc([N+](=O)[O-])c3)c2)[n-]o1 (3D coordinates assigned)
Cc1c/c(=N/C(=O)c2cccc(S(=O)(=O)[N-]c3cccc([N+](=O)[O-])c3)c2)[n-]o1 (optimized conformer: 83.62496666821376 kcal/mol)

>  <smiles>  (27) 
Cc1cc(=NC(=O)c2cccc(S(=O)(=O)Nc3cccc([N+](=O)[O-])c3)c2)[nH]o1

>  <score_type>  (27) 
oracle

>  <origin>  (27) 
adg

>  <m_score__min__energy>  (27) 
-13.710000000000001

>  <m_primary>  (27) 
energy

$$$$
27:0
     RDKit          3D

 42 44  0  0  0  0  0  0  0  0999 V2000
   54.8610   26.3320   46.0000 O   0  0  0  0  0  0  0  0  0  0  0  0
   55.9090   25.7460   46.3860 C   0  0  0  0  0  0  0  0  0  0  0  0
   55.8040   24.5070   47.0980 N   0  0  0  0  0  0  0  0  0  0  0  0
   55.1070   23.3290   46.5890 C   0  0  0  0  0  0  0  0  0  0  0  0
   55.8020   22.7980   45.3560 C   0  0  0  0  0  0  0  0  0  0  0  0
   55.5680   23.4440   44.1300 C   0  0  0  0  0  0  0  0  0  0  0  0
   56.1760   22.9870   42.9570 C   0  0  0  0  0  0  0  0  0  0  0  0
   57.0180   21.8750   42.9940 C   0  0  0  0  0  0  0  0  0  0  0  0
   57.2590   21.2210   44.2030 C   0  0  0  0  0  0  0  0  0  0  0  0
   56.6620   21.6730   45.3880 C   0  0  0  0  0  0  0  0  0  0  0  0
   57.0690   20.7170   47.0010 Br  0  0  0  0  0  0  0  0  0  0  0  0
   57.2470   26.3260   46.0980 C   0  0  0  0  0  0  0  0  0  0  0  0
   58.4030   25.5610   46.3560 C   0  0  0  0  0  0  0  0  0  0  0  0
   59.6750   26.0780   46.0940 C   0  0  0  0  0  0  0  0  0  0  0  0
   59.8150   27.3630   45.5700 C   0  0  0  0  0  0  0  0  0  0  0  0
   58.6840   28.1370   45.3110 C   0  0  0  0  0  0  0  0  0  0  0  0
   57.4020   27.6350   45.5780 C   0  0  0  0  0  0  0  0  0  0  0  0
   56.2740   28.4840   45.3580 N   0  0  0  0  0  0  0  0  0  0  0  0
   56.2810   29.6410   44.0710 S   0  0  0  0  0  0  0  0  0  0  0  0
   54.8670   30.0380   43.7390 O   0  0  0  0  0  0  0  0  0  0  0  0
   56.8990   29.0160   42.8510 O   0  0  0  0  0  0  0  0  0  0  0  0
   57.2130   31.0580   44.5460 C   0  0  0  0  0  0  0  0  0  0  0  0
   57.4280   32.1040   43.6360 C   0  0  0  0  0  0  0  0  0  0  0  0
   58.1880   33.2150   44.0120 C   0  0  0  0  0  0  0  0  0  0  0  0
   58.7420   33.2830   45.2950 C   0  0  0  0  0  0  0  0  0  0  0  0
   58.5380   32.2380   46.2010 C   0  0  0  0  0  0  0  0  0  0  0  0
   57.7740   31.1270   45.8300 C   0  0  0  0  0  0  0  0  0  0  0  0
   55.0989   22.5492   47.3648 H   0  0  0  0  0  0  0  0  0  0  0  0
   54.0768   23.6100   46.3251 H   0  0  0  0  0  0  0  0  0  0  0  0
   54.9002   24.3173   44.0930 H   0  0  0  0  0  0  0  0  0  0  0  0
   55.9905   23.5044   42.0042 H   0  0  0  0  0  0  0  0  0  0  0  0
   57.4922   21.5136   42.0696 H   0  0  0  0  0  0  0  0  0  0  0  0
   57.9226   20.3440   44.2263 H   0  0  0  0  0  0  0  0  0  0  0  0
   58.3027   24.5460   46.7680 H   0  0  0  0  0  0  0  0  0  0  0  0
   60.5678   25.4699   46.3016 H   0  0  0  0  0  0  0  0  0  0  0  0
   60.8170   27.7658   45.3611 H   0  0  0  0  0  0  0  0  0  0  0  0
   58.7984   29.1486   44.8943 H   0  0  0  0  0  0  0  0  0  0  0  0
   56.9978   32.0496   42.6251 H   0  0  0  0  0  0  0  0  0  0  0  0
   58.3507   34.0365   43.2988 H   0  0  0  0  0  0  0  0  0  0  0  0
   59.3382   34.1588   45.5909 H   0  0  0  0  0  0  0  0  0  0  0  0
   58.9792   32.2897   47.2073 H   0  0  0  0  0  0  0  0  0  0  0  0
   57.6129   30.3069   46.5452 H   0  0  0  0  0  0  0  0  0  0  0  0
  1  2  2  0
  2  3  1  0
  3  4  1  0
  4  5  1  0
  5  6  2  0
  6  7  1  0
  7  8  2  0
  8  9  1  0
  9 10  2  0
 10 11  1  0
  2 12  1  0
 12 13  2  0
 13 14  1  0
 14 15  2  0
 15 16  1  0
 16 17  2  0
 17 18  1  0
 18 19  1  0
 19 20  2  0
 19 21  2  0
 19 22  1  0
 22 23  2  0
 23 24  1  0
 24 25  2  0
 25 26  1  0
 26 27  2  0
 10  5  1  0
 17 12  1  0
 27 22  1  0
  4 28  1  0
  4 29  1  0
  6 30  1  0
  7 31  1  0
  8 32  1  0
  9 33  1  0
 13 34  1  0
 14 35  1  0
 15 36  1  0
 16 37  1  0
 23 38  1  0
 24 39  1  0
 25 40  1  0
 26 41  1  0
 27 42  1  0
M  CHG  2   3  -1  18  -1
M  END
>  <UniqueID>  (28) 
25

>  <SMILES>  (28) 
O=C([N-]Cc1ccccc1Br)c1ccccc1[N-]S(=O)(=O)c1ccccc1

>  <Energy>  (28) 
56.62114190686508

>  <Genealogy>  (28) 
O=C([N-]Cc1ccccc1Br)c1ccccc1[N-]S(=O)(=O)c1ccccc1 (protonated)
O=C([N-]Cc1ccccc1Br)c1ccccc1[N-]S(=O)(=O)c1ccccc1 (3D coordinates assigned)
O=C([N-]Cc1ccccc1Br)c1ccccc1[N-]S(=O)(=O)c1ccccc1 (optimized conformer: 56.62114190686508 kcal/mol)

>  <smiles>  (28) 
O=C(NCc1ccccc1Br)c1ccccc1NS(=O)(=O)c1ccccc1

>  <score_type>  (28) 
oracle

>  <origin>  (28) 
adg

>  <m_score__min__energy>  (28) 
-13.19

>  <m_primary>  (28) 
energy

$$$$
28:0
     RDKit          3D

 50 54  0  0  0  0  0  0  0  0999 V2000
   55.1430   27.8830   45.9830 H   0  0  0  0  0  0  0  0  0  0  0  0
   55.2580   26.9160   45.7090 O   0  0  0  0  0  0  0  0  0  0  0  0
   56.1720   26.0730   46.3380 C   0  0  0  0  0  0  0  0  0  0  0  0
   55.8020   24.9950   47.0500 N   0  0  0  0  0  0  0  0  0  0  0  0
   56.9810   24.4890   47.4640 C   0  0  0  0  0  0  0  0  0  0  0  0
   57.0630   23.4530   48.1740 O   0  0  0  0  0  0  0  0  0  0  0  0
   58.0660   25.1810   47.0600 N   0  0  0  0  0  0  0  0  0  0  0  0
   57.5490   26.1920   46.3370 C   0  0  0  0  0  0  0  0  0  0  0  0
   58.3350   27.2610   45.6830 C   0  0  0  0  0  0  0  0  0  0  0  0
   59.3862   27.0420   45.4444 H   0  0  0  0  0  0  0  0  0  0  0  0
   57.8680   28.4780   45.3570 C   0  0  0  0  0  0  0  0  0  0  0  0
   56.9950   28.8680   44.3360 C   0  0  0  0  0  0  0  0  0  0  0  0
   56.5367   28.1894   43.6015 H   0  0  0  0  0  0  0  0  0  0  0  0
   56.7990   30.2070   44.3880 N   0  0  0  0  0  0  0  0  0  0  0  0
   57.5130   30.6710   45.4020 N   0  0  0  0  0  0  0  0  0  0  0  0
   57.6420   31.9520   45.8480 C   0  0  0  0  0  0  0  0  0  0  0  0
   57.0370   32.9660   45.2960 N   0  0  0  0  0  0  0  0  0  0  0  0
   57.6700   34.0820   44.6000 C   0  0  0  0  0  0  0  0  0  0  0  0
   56.8453   34.3170   43.9110 H   0  0  0  0  0  0  0  0  0  0  0  0
   59.1740   33.9420   44.4520 C   0  0  0  0  0  0  0  0  0  0  0  0
   59.6729   33.0111   44.7594 H   0  0  0  0  0  0  0  0  0  0  0  0
   59.8880   34.0502   43.6222 H   0  0  0  0  0  0  0  0  0  0  0  0
   58.5940   34.8780   45.5030 C   0  0  0  0  0  0  0  0  0  0  0  0
   58.6736   34.6238   46.5703 H   0  0  0  0  0  0  0  0  0  0  0  0
   58.7149   35.9435   45.7481 H   0  0  0  0  0  0  0  0  0  0  0  0
   58.4520   32.1710   46.9210 N   0  0  0  0  0  0  0  0  0  0  0  0
   59.1120   31.1410   47.5350 C   0  0  0  0  0  0  0  0  0  0  0  0
   59.9720   31.4040   48.6640 N   0  0  0  0  0  0  0  0  0  0  0  0
   61.2490   30.6710   48.7690 C   0  0  0  0  0  0  0  0  0  0  0  0
   61.3896   30.3658   49.8164 H   0  0  0  0  0  0  0  0  0  0  0  0
   61.1836   29.8102   48.0873 H   0  0  0  0  0  0  0  0  0  0  0  0
   62.4750   31.5000   48.3340 C   0  0  0  0  0  0  0  0  0  0  0  0
   63.3855   30.9459   48.6058 H   0  0  0  0  0  0  0  0  0  0  0  0
   62.3939   31.6567   47.2482 H   0  0  0  0  0  0  0  0  0  0  0  0
   62.5320   32.8370   48.9670 N   0  0  0  0  0  0  0  0  0  0  0  0
   63.8550   33.4460   48.7640 C   0  0  0  0  0  0  0  0  0  0  0  0
   64.3149   33.6577   49.7405 H   0  0  0  0  0  0  0  0  0  0  0  0
   64.4954   32.7521   48.1998 H   0  0  0  0  0  0  0  0  0  0  0  0
   63.7443   34.3838   48.1998 H   0  0  0  0  0  0  0  0  0  0  0  0
   61.4370   33.7720   48.6070 C   0  0  0  0  0  0  0  0  0  0  0  0
   61.8441   34.7939   48.6148 H   0  0  0  0  0  0  0  0  0  0  0  0
   61.0738   33.4549   47.6183 H   0  0  0  0  0  0  0  0  0  0  0  0
   60.2140   33.7360   49.5490 C   0  0  0  0  0  0  0  0  0  0  0  0
   60.5387   34.0796   50.5423 H   0  0  0  0  0  0  0  0  0  0  0  0
   59.4534   34.3836   49.0885 H   0  0  0  0  0  0  0  0  0  0  0  0
   59.5560   32.3510   49.7140 C   0  0  0  0  0  0  0  0  0  0  0  0
   59.8396   31.9394   50.6938 H   0  0  0  0  0  0  0  0  0  0  0  0
   58.4671   32.4847   49.6336 H   0  0  0  0  0  0  0  0  0  0  0  0
   58.9640   29.8680   47.0630 N   0  0  0  0  0  0  0  0  0  0  0  0
   58.1580   29.6640   45.9950 C   0  0  0  0  0  0  0  0  0  0  0  0
  1  2  1  0
  2  3  1  0
  3  4  1  0
  4  5  1  0
  5  6  2  0
  5  7  1  0
  7  8  1  0
  8  9  1  0
  9 10  1  0
  9 11  2  0
 11 12  1  0
 12 13  1  0
 12 14  2  0
 14 15  1  0
 15 16  1  0
 16 17  2  3
 17 18  1  0
 18 19  1  0
 18 20  1  0
 20 21  1  0
 20 22  1  0
 20 23  1  0
 23 24  1  0
 23 25  1  0
 16 26  1  0
 26 27  2  0
 27 28  1  0
 28 29  1  0
 29 30  1  0
 29 31  1  0
 29 32  1  0
 32 33  1  0
 32 34  1  0
 32 35  1  0
 35 36  1  0
 36 37  1  0
 36 38  1  0
 36 39  1  0
 35 40  1  0
 40 41  1  0
 40 42  1  0
 40 43  1  0
 43 44  1  0
 43 45  1  0
 43 46  1  0
 46 47  1  0
 46 48  1  0
 27 49  1  0
 49 50  2  0
  8  3  2  0
 50 11  1  0
 50 15  1  0
 23 18  1  0
 46 28  1  0
M  CHG  2   4  -1   7  -1
M  END
>  <UniqueID>  (29) 
26

>  <SMILES>  (29) 
CN1CCCN(c2nc(=NC3CC3)n3nc/c(=C\c4[n-]c(=O)[n-]c4O)c3n2)CC1

>  <Energy>  (29) 
403.3003331056318

>  <Genealogy>  (29) 
CN1CCCN(c2nc(=NC3CC3)n3ncc(=Cc4[n-]c(=O)[n-]c4O)c3n2)CC1 (protonated)
CN1CCCN(c2nc(=NC3CC3)n3nc/c(=C\c4[n-]c(=O)[n-]c4O)c3n2)CC1 (cis-trans isomerization)
CN1CCCN(c2nc(=NC3CC3)n3nc/c(=C\c4[n-]c(=O)[n-]c4O)c3n2)CC1 (3D coordinates assigned)
CN1CCCN(c2nc(=NC3CC3)n3nc/c(=C\c4[n-]c(=O)[n-]c4O)c3n2)CC1 (nonaromatic ring conformer: 403.3003331056318 kcal/mol)

>  <smiles>  (29) 
CN1CCCN(c2nc(=NC3CC3)n3ncc(=Cc4[nH]c(=O)[nH]c4O)c3n2)CC1

>  <score_type>  (29) 
oracle

>  <origin>  (29) 
adg

>  <m_score__min__energy>  (29) 
-11

>  <m_primary>  (29) 
energy

$$$$
29:0
     RDKit          3D

 39 40  0  0  0  0  0  0  0  0999 V2000
   57.3640   21.8490   47.5710 N   0  0  0  0  0  0  0  0  0  0  0  0
   57.6820   22.4070   45.9660 S   0  0  0  0  0  0  0  0  0  0  0  0
   59.1290   22.1830   45.6320 O   0  0  0  0  0  0  0  0  0  0  0  0
   56.8350   21.6350   44.9930 O   0  0  0  0  0  0  0  0  0  0  0  0
   57.3060   24.1250   45.8570 C   0  0  0  0  0  0  0  0  0  0  0  0
   58.3280   25.0620   45.6560 C   0  0  0  0  0  0  0  0  0  0  0  0
   58.0260   26.4230   45.5600 C   0  0  0  0  0  0  0  0  0  0  0  0
   56.6920   26.8610   45.6400 C   0  0  0  0  0  0  0  0  0  0  0  0
   56.3560   28.2550   45.5740 N   0  0  0  0  0  0  0  0  0  0  0  0
   57.2580   29.3610   45.7080 C   0  0  0  0  0  0  0  0  0  0  0  0
   57.0250   30.4150   45.0590 O   0  0  0  0  0  0  0  0  0  0  0  0
   58.4870   29.2850   46.5660 C   0  0  0  0  0  0  0  0  0  0  0  0
   58.7410   30.5790   47.1850 N   0  0  0  0  0  0  0  0  0  0  0  0
   58.9400   30.7370   48.5900 C   0  0  0  0  0  0  0  0  0  0  0  0
   59.4000   29.7850   49.2780 O   0  0  0  0  0  0  0  0  0  0  0  0
   58.6050   31.9820   49.2090 N   0  0  0  0  0  0  0  0  0  0  0  0
   59.3000   33.2340   48.9300 C   0  0  0  0  0  0  0  0  0  0  0  0
   58.9750   33.7160   47.5430 C   0  0  0  0  0  0  0  0  0  0  0  0
   57.7150   33.4500   46.9820 C   0  0  0  0  0  0  0  0  0  0  0  0
   57.4150   33.8790   45.6850 C   0  0  0  0  0  0  0  0  0  0  0  0
   58.3720   34.5740   44.9390 C   0  0  0  0  0  0  0  0  0  0  0  0
   59.6290   34.8390   45.4880 C   0  0  0  0  0  0  0  0  0  0  0  0
   59.9320   34.4120   46.7850 C   0  0  0  0  0  0  0  0  0  0  0  0
   55.6740   25.9230   45.8620 C   0  0  0  0  0  0  0  0  0  0  0  0
   54.3520   26.3390   45.9790 O   0  0  0  0  0  0  0  0  0  0  0  0
   55.9790   24.5600   45.9610 C   0  0  0  0  0  0  0  0  0  0  0  0
   57.8160   20.9120   47.6610 H   0  0  0  0  0  0  0  0  0  0  0  0
   59.3719   24.7251   45.5735 H   0  0  0  0  0  0  0  0  0  0  0  0
   58.8353   27.1550   45.4212 H   0  0  0  0  0  0  0  0  0  0  0  0
   58.3378   28.5285   47.3505 H   0  0  0  0  0  0  0  0  0  0  0  0
   59.3484   29.0076   45.9406 H   0  0  0  0  0  0  0  0  0  0  0  0
   58.9856   33.9937   49.6607 H   0  0  0  0  0  0  0  0  0  0  0  0
   60.3843   33.0644   49.0040 H   0  0  0  0  0  0  0  0  0  0  0  0
   56.9607   32.9017   47.5655 H   0  0  0  0  0  0  0  0  0  0  0  0
   56.4259   33.6696   45.2516 H   0  0  0  0  0  0  0  0  0  0  0  0
   58.1350   34.9122   43.9195 H   0  0  0  0  0  0  0  0  0  0  0  0
   60.3815   35.3842   44.8994 H   0  0  0  0  0  0  0  0  0  0  0  0
   60.9232   34.6218   47.2133 H   0  0  0  0  0  0  0  0  0  0  0  0
   55.1734   23.8283   46.1210 H   0  0  0  0  0  0  0  0  0  0  0  0
  1  2  1  0
  2  3  2  0
  2  4  2  0
  2  5  1  0
  5  6  2  0
  6  7  1  0
  7  8  2  0
  8  9  1  0
  9 10  1  0
 10 11  2  0
 10 12  1  0
 12 13  1  0
 13 14  1  0
 14 15  2  0
 14 16  1  0
 16 17  1  0
 17 18  1  0
 18 19  2  0
 19 20  1  0
 20 21  2  0
 21 22  1  0
 22 23  2  0
  8 24  1  0
 24 25  1  0
 24 26  2  0
 26  5  1  0
 23 18  1  0
  1 27  1  0
  6 28  1  0
  7 29  1  0
 12 30  1  0
 12 31  1  0
 17 32  1  0
 17 33  1  0
 19 34  1  0
 20 35  1  0
 21 36  1  0
 22 37  1  0
 23 38  1  0
 26 39  1  0
M  CHG  5   1  -1   9  -1  13  -1  16  -1  25  -1
M  END
>  <UniqueID>  (30) 
27

>  <SMILES>  (30) 
[NH-]S(=O)(=O)c1ccc([N-]C(=O)C[N-]C(=O)[N-]Cc2ccccc2)c([O-])c1

>  <Energy>  (30) 
38.847899360246814

>  <Genealogy>  (30) 
[NH-]S(=O)(=O)c1ccc([N-]C(=O)C[N-]C(=O)[N-]Cc2ccccc2)c([O-])c1 (protonated)
[NH-]S(=O)(=O)c1ccc([N-]C(=O)C[N-]C(=O)[N-]Cc2ccccc2)c([O-])c1 (3D coordinates assigned)
[NH-]S(=O)(=O)c1ccc([N-]C(=O)C[N-]C(=O)[N-]Cc2ccccc2)c([O-])c1 (optimized conformer: 38.847899360246814 kcal/mol)

>  <smiles>  (30) 
NS(=O)(=O)c1ccc(NC(=O)CNC(=O)NCc2ccccc2)c(O)c1

>  <score_type>  (30) 
oracle

>  <origin>  (30) 
adg

>  <m_score__min__energy>  (30) 
-18.140000000000001

>  <m_primary>  (30) 
energy

$$$$
30:0
     RDKit          3D

 39 41  0  0  0  0  0  0  0  0999 V2000
   55.3120   26.0320   45.9970 O   0  0  0  0  0  0  0  0  0  0  0  0
   56.0860   25.1060   45.6010 C   0  0  0  0  0  0  0  0  0  0  0  0
   55.4940   23.8490   45.1160 C   0  0  0  0  0  0  0  0  0  0  0  0
   56.4990   22.8310   44.8330 N   0  0  0  0  0  0  0  0  0  0  0  0
   56.5630   22.0950   43.6870 C   0  0  0  0  0  0  0  0  0  0  0  0
   55.7340   22.2200   42.7230 O   0  0  0  0  0  0  0  0  0  0  0  0
   57.6130   21.2590   43.7730 N   0  0  0  0  0  0  0  0  0  0  0  0
   58.2190   21.4430   44.9410 N   0  0  0  0  0  0  0  0  0  0  0  0
   57.5250   22.4190   45.5950 C   0  0  0  0  0  0  0  0  0  0  0  0
   57.7760   22.8940   46.7480 O   0  0  0  0  0  0  0  0  0  0  0  0
   57.4790   25.3580   45.6610 N   0  0  0  0  0  0  0  0  0  0  0  0
   57.8850   26.6300   46.1570 C   0  0  0  0  0  0  0  0  0  0  0  0
   58.7570   26.5960   47.2510 C   0  0  0  0  0  0  0  0  0  0  0  0
   59.1650   27.8140   47.7520 C   0  0  0  0  0  0  0  0  0  0  0  0
   58.7300   29.0020   47.1970 C   0  0  0  0  0  0  0  0  0  0  0  0
   57.8760   29.0560   46.1240 C   0  0  0  0  0  0  0  0  0  0  0  0
   57.3990   30.2670   45.4990 C   0  0  0  0  0  0  0  0  0  0  0  0
   56.3390   30.2010   44.7860 O   0  0  0  0  0  0  0  0  0  0  0  0
   58.0100   31.5730   45.5980 C   0  0  0  0  0  0  0  0  0  0  0  0
   57.3990   32.6180   44.9010 C   0  0  0  0  0  0  0  0  0  0  0  0
   57.9150   33.9030   44.9250 C   0  0  0  0  0  0  0  0  0  0  0  0
   59.0570   34.1890   45.6430 C   0  0  0  0  0  0  0  0  0  0  0  0
   59.6660   33.1530   46.3350 C   0  0  0  0  0  0  0  0  0  0  0  0
   59.1410   31.8710   46.3040 C   0  0  0  0  0  0  0  0  0  0  0  0
   57.4610   27.8230   45.6150 C   0  0  0  0  0  0  0  0  0  0  0  0
   54.8075   23.4630   45.8839 H   0  0  0  0  0  0  0  0  0  0  0  0
   54.9669   24.0687   44.1758 H   0  0  0  0  0  0  0  0  0  0  0  0
   57.8830   20.5790   43.0100 H   0  0  0  0  0  0  0  0  0  0  0  0
   59.0780   20.9300   45.3000 H   0  0  0  0  0  0  0  0  0  0  0  0
   58.1480   24.6220   45.3450 H   0  0  0  0  0  0  0  0  0  0  0  0
   59.0992   25.6466   47.6886 H   0  0  0  0  0  0  0  0  0  0  0  0
   59.8511   27.8404   48.6114 H   0  0  0  0  0  0  0  0  0  0  0  0
   59.0840   29.9470   47.6347 H   0  0  0  0  0  0  0  0  0  0  0  0
   56.4872   32.4157   44.3198 H   0  0  0  0  0  0  0  0  0  0  0  0
   57.4088   34.7035   44.3657 H   0  0  0  0  0  0  0  0  0  0  0  0
   59.4721   35.2074   45.6661 H   0  0  0  0  0  0  0  0  0  0  0  0
   60.5784   33.3516   46.9165 H   0  0  0  0  0  0  0  0  0  0  0  0
   59.6488   31.0713   46.8632 H   0  0  0  0  0  0  0  0  0  0  0  0
   56.7749   27.8044   44.7554 H   0  0  0  0  0  0  0  0  0  0  0  0
  1  2  2  0
  2  3  1  0
  3  4  1  0
  4  5  1  0
  5  6  2  0
  5  7  1  0
  7  8  1  0
  8  9  1  0
  9 10  2  0
  2 11  1  0
 11 12  1  0
 12 13  2  0
 13 14  1  0
 14 15  2  0
 15 16  1  0
 16 17  1  0
 17 18  2  0
 17 19  1  0
 19 20  2  0
 20 21  1  0
 21 22  2  0
 22 23  1  0
 23 24  2  0
 16 25  2  0
  9  4  1  0
 25 12  1  0
 24 19  1  0
  3 26  1  0
  3 27  1  0
  7 28  1  0
  8 29  1  0
 11 30  1  0
 13 31  1  0
 14 32  1  0
 15 33  1  0
 20 34  1  0
 21 35  1  0
 22 36  1  0
 23 37  1  0
 24 38  1  0
 25 39  1  0
M  END
>  <smiles>  (31) 
O=C(Cn1c(=O)[nH][nH]c1=O)Nc1cccc(C(=O)c2ccccc2)c1

>  <score_type>  (31) 
oracle

>  <origin>  (31) 
adg

>  <m_score__min__energy>  (31) 
-9.6899999999999995

>  <m_primary>  (31) 
energy

$$$$
31:0
     RDKit          3D

 53 56  0  0  1  0  0  0  0  0999 V2000
   56.6040   24.8130   46.8580 C   0  0  0  0  0  0  0  0  0  0  0  0
   55.9600   26.0110   46.4680 O   0  0  0  0  0  0  0  0  0  0  0  0
   56.6370   26.8870   45.6170 C   0  0  0  0  0  0  0  0  0  0  0  0
   57.8440   26.4740   45.0460 C   0  0  0  0  0  0  0  0  0  0  0  0
   58.4490   27.4030   44.2140 C   0  0  0  0  0  0  0  0  0  0  0  0
   57.9550   28.6070   43.9520 N   0  0  0  0  0  0  0  0  0  0  0  0
   56.7970   28.9680   44.5190 C   0  0  0  0  0  0  0  0  0  0  0  0
   56.2430   30.1050   44.3290 N   0  0  0  0  0  0  0  0  0  0  0  0
   56.7770   31.1350   43.4860 C   0  0  0  0  0  0  0  0  0  0  0  0
   57.5290   32.0910   44.3680 C   0  0  0  0  0  0  0  0  0  0  0  0
   57.4340   32.1150   45.7190 C   0  0  0  0  0  0  0  0  0  0  0  0
   58.1610   33.0250   46.4560 C   0  0  0  0  0  0  0  0  0  0  0  0
   58.9990   33.9340   45.8810 C   0  0  0  0  0  0  0  0  0  0  0  0
   59.7950   34.9320   46.6790 C   0  0  0  0  0  0  0  0  0  0  0  0
   61.1880   34.6000   46.4460 N   0  0  0  0  0  0  0  0  0  0  0  0
   61.8220   33.6520   47.0130 C   0  0  0  0  0  0  0  0  0  0  0  0
   63.1380   33.8410   47.3770 C   0  0  0  0  0  0  0  0  0  0  0  0
   63.7790   32.7920   47.9860 C   0  0  0  0  0  0  0  0  0  0  0  0
   63.0990   31.6040   48.2120 C   0  0  0  0  0  0  0  0  0  0  0  0
   61.7820   31.4690   47.8280 C   0  0  0  0  0  0  0  0  0  0  0  0
   61.0250   30.2820   48.0270 N   0  0  0  0  0  0  0  0  0  0  0  0
   61.0570   29.5910   49.2010 C   0  0  0  0  0  0  0  0  0  0  0  0
   60.3080   28.4410   49.3560 C   0  0  0  0  0  0  0  0  0  0  0  0
   59.5150   27.9990   48.2910 C   0  0  0  0  0  0  0  0  0  0  0  0
   59.4830   28.7070   47.0910 C   0  0  0  0  0  0  0  0  0  0  0  0
   60.2640   29.8620   46.9970 C   0  0  0  0  0  0  0  0  0  0  0  0
   60.2380   30.4970   45.9250 O   0  0  0  0  0  0  0  0  0  0  0  0
   61.1600   32.5000   47.2310 N   0  0  0  0  0  0  0  0  0  0  0  0
   59.1130   33.9290   44.4890 C   0  0  0  0  0  0  0  0  0  0  0  0
   58.3800   33.0130   43.7660 C   0  0  0  0  0  0  0  0  0  0  0  0
   56.1460   28.1100   45.3450 N   0  0  0  0  0  0  0  0  0  0  0  0
   56.6355   24.7543   47.9560 H   0  0  0  0  0  0  0  0  0  0  0  0
   56.0475   23.9514   46.4606 H   0  0  0  0  0  0  0  0  0  0  0  0
   57.6296   24.8019   46.4606 H   0  0  0  0  0  0  0  0  0  0  0  0
   58.2818   25.4842   45.2425 H   0  0  0  0  0  0  0  0  0  0  0  0
   59.4014   27.1242   43.7395 H   0  0  0  0  0  0  0  0  0  0  0  0
   58.4210   29.2780   43.3350 H   0  0  0  0  0  0  0  0  0  0  0  0
   57.4570   30.6964   42.7409 H   0  0  0  0  0  0  0  0  0  0  0  0
   55.9702   31.6546   42.9483 H   0  0  0  0  0  0  0  0  0  0  0  0
   56.7713   31.4025   46.2321 H   0  0  0  0  0  0  0  0  0  0  0  0
   58.0612   33.0176   47.5514 H   0  0  0  0  0  0  0  0  0  0  0  0
   59.5820   35.9550   46.3355 H   0  0  0  0  0  0  0  0  0  0  0  0
   59.5415   34.8912   47.7486 H   0  0  0  0  0  0  0  0  0  0  0  0
   63.6532   34.7941   47.1869 H   0  0  0  0  0  0  0  0  0  0  0  0
   64.8300   32.8926   48.2945 H   0  0  0  0  0  0  0  0  0  0  0  0
   63.6143   30.7641   48.7009 H   0  0  0  0  0  0  0  0  0  0  0  0
   61.6833   29.9513   50.0304 H   0  0  0  0  0  0  0  0  0  0  0  0
   60.3344   27.8809   50.3024 H   0  0  0  0  0  0  0  0  0  0  0  0
   58.9122   27.0856   48.4019 H   0  0  0  0  0  0  0  0  0  0  0  0
   58.8643   28.3683   46.2469 H   0  0  0  0  0  0  0  0  0  0  0  0
   60.1470   32.4080   46.9310 H   0  0  0  0  0  0  0  0  0  0  0  0
   59.7760   34.6434   43.9790 H   0  0  0  0  0  0  0  0  0  0  0  0
   58.4712   33.0105   42.6698 H   0  0  0  0  0  0  0  0  0  0  0  0
  1  2  1  0
  2  3  1  0
  3  4  1  0
  4  5  2  0
  5  6  1  0
  6  7  1  0
  7  8  2  0
  8  9  1  0
  9 10  1  0
 10 11  2  0
 11 12  1  0
 12 13  2  0
 13 14  1  0
 14 15  1  0
 15 16  2  0
 16 17  1  0
 17 18  2  0
 18 19  1  0
 19 20  2  0
 20 21  1  0
 21 22  1  0
 22 23  2  0
 23 24  1  0
 24 25  2  0
 25 26  1  0
 26 27  2  0
 20 28  1  0
 13 29  1  0
 29 30  2  0
  7 31  1  0
 31  3  2  0
 30 10  1  0
 28 16  1  0
 26 21  1  0
  1 32  1  0
  1 33  1  0
  1 34  1  0
  4 35  1  0
  5 36  1  0
  6 37  1  0
  9 38  1  0
  9 39  1  0
 11 40  1  0
 12 41  1  0
 14 42  1  0
 14 43  1  0
 17 44  1  0
 18 45  1  0
 19 46  1  0
 22 47  1  0
 23 48  1  0
 24 49  1  0
 25 50  1  0
 28 51  1  0
 29 52  1  0
 30 53  1  0
M  END
>  <smiles>  (32) 
COc1cc[nH]c(=NCc2ccc(CN=c3cccc(-n4ccccc4=O)[nH]3)cc2)n1

>  <score_type>  (32) 
oracle

>  <origin>  (32) 
adg

>  <m_score__min__energy>  (32) 
-9.4399999999999995

>  <m_primary>  (32) 
energy

$$$$
32:0
     RDKit          3D

 24 25  0  0  0  0  0  0  0  0999 V2000
   53.2669   32.1441   52.8885 H   0  0  0  0  0  0  0  0  0  0  0  0
   53.1260   31.2300   52.2930 C   0  0  0  0  0  0  0  0  0  0  0  0
   53.7570   30.1110   52.6630 C   0  0  0  0  0  0  0  0  0  0  0  0
   53.5906   29.1846   52.0936 H   0  0  0  0  0  0  0  0  0  0  0  0
   54.6880   30.0940   53.8400 C   0  0  0  0  0  0  0  0  0  0  0  0
   54.2643   29.4527   54.6269 H   0  0  0  0  0  0  0  0  0  0  0  0
   54.8091   31.1223   54.2113 H   0  0  0  0  0  0  0  0  0  0  0  0
   56.0080   29.5720   53.4490 N   0  0  0  0  0  0  0  0  0  0  0  0
   56.6190   28.6330   54.2310 C   0  0  0  0  0  0  0  0  0  0  0  0
   56.1130   28.2630   55.1349 H   0  0  0  0  0  0  0  0  0  0  0  0
   57.8780   28.1400   53.8930 C   0  0  0  0  0  0  0  0  0  0  0  0
   58.3712   27.3812   54.5183 H   0  0  0  0  0  0  0  0  0  0  0  0
   58.4970   28.6290   52.7470 C   0  0  0  0  0  0  0  0  0  0  0  0
   59.6340   28.2050   52.4100 O   0  0  0  0  0  0  0  0  0  0  0  0
   57.8740   29.5670   51.9920 N   0  0  0  0  0  0  0  0  0  0  0  0
   56.6470   30.0430   52.3290 C   0  0  0  0  0  0  0  0  0  0  0  0
   56.1090   30.9210   51.6000 O   0  0  0  0  0  0  0  0  0  0  0  0
   52.2480   31.2750   51.1120 C   0  0  0  0  0  0  0  0  0  0  0  0
   52.2380   30.3640   50.1220 N   0  0  0  0  0  0  0  0  0  0  0  0
   51.2870   30.8290   49.2820 C   0  0  0  0  0  0  0  0  0  0  0  0
   50.9780   30.2380   48.2150 O   0  0  0  0  0  0  0  0  0  0  0  0
   50.6940   31.9760   49.6750 N   0  0  0  0  0  0  0  0  0  0  0  0
   51.3150   32.2440   50.8350 C   0  0  0  0  0  0  0  0  0  0  0  0
   51.0330   33.3530   51.6230 O   0  0  0  0  0  0  0  0  0  0  0  0
  1  2  1  0
  2  3  2  0
  3  4  1  0
  3  5  1  0
  5  6  1  0
  5  7  1  0
  5  8  1  0
  8  9  1  0
  9 10  1  0
  9 11  2  0
 11 12  1  0
 11 13  1  0
 13 14  2  0
 13 15  1  0
 15 16  1  0
 16 17  2  0
  2 18  1  0
 18 19  1  0
 19 20  1  0
 20 21  2  0
 20 22  1  0
 22 23  1  0
 23 24  1  0
 16  8  1  0
 23 18  2  0
M  CHG  4  15  -1  19  -1  22  -1  24  -1
M  END
>  <UniqueID>  (33) 
28

>  <SMILES>  (33) 
O=c1ccn(C/C=C/c2[n-]c(=O)[n-]c2[O-])c(=O)[n-]1

>  <Energy>  (33) 
53.49542629406452

>  <Genealogy>  (33) 
O=c1ccn(CC=Cc2[n-]c(=O)[n-]c2[O-])c(=O)[n-]1 (protonated)
O=c1ccn(C/C=C/c2[n-]c(=O)[n-]c2[O-])c(=O)[n-]1 (cis-trans isomerization)
O=c1ccn(C/C=C/c2[n-]c(=O)[n-]c2[O-])c(=O)[n-]1 (3D coordinates assigned)
O=c1ccn(C/C=C/c2[n-]c(=O)[n-]c2[O-])c(=O)[n-]1 (optimized conformer: 53.49542629406452 kcal/mol)

>  <smiles>  (33) 
O=c1ccn(CC=Cc2[nH]c(=O)[nH]c2O)c(=O)[nH]1

>  <score_type>  (33) 
oracle

>  <origin>  (33) 
adg

>  <m_score__min__energy>  (33) 
-15.98

>  <m_primary>  (33) 
energy

$$$$
33:0
     RDKit          3D

 42 44  0  0  0  0  0  0  0  0999 V2000
   60.9300   29.3000   44.5600 O   0  0  0  0  0  0  0  0  0  0  0  0
   60.1780   29.4700   45.5580 C   0  0  0  0  0  0  0  0  0  0  0  0
   60.7370   29.6610   46.8220 C   0  0  0  0  0  0  0  0  0  0  0  0
   59.8840   29.8600   47.9150 C   0  0  0  0  0  0  0  0  0  0  0  0
   60.4370   30.1000   49.2870 C   0  0  0  0  0  0  0  0  0  0  0  0
   60.2230   31.8490   49.7700 S   0  0  0  0  0  0  0  0  0  0  0  0
   61.5170   32.4710   48.6910 C   0  0  0  0  0  0  0  0  0  0  0  0
   62.8630   32.2420   49.0030 C   0  0  0  0  0  0  0  0  0  0  0  0
   63.8680   32.7170   48.1550 C   0  0  0  0  0  0  0  0  0  0  0  0
   63.5320   33.4250   46.9990 C   0  0  0  0  0  0  0  0  0  0  0  0
   62.1880   33.6630   46.6890 C   0  0  0  0  0  0  0  0  0  0  0  0
   61.1810   33.1920   47.5370 C   0  0  0  0  0  0  0  0  0  0  0  0
   58.5650   29.8620   47.7370 O   0  0  0  0  0  0  0  0  0  0  0  0
   57.9980   29.6780   46.5490 C   0  0  0  0  0  0  0  0  0  0  0  0
   58.7880   29.4700   45.4040 C   0  0  0  0  0  0  0  0  0  0  0  0
   58.2470   29.2740   44.1230 O   0  0  0  0  0  0  0  0  0  0  0  0
   56.9350   30.1520   43.4620 S   0  0  0  0  0  0  0  0  0  0  0  0
   56.3420   29.3970   42.3060 O   0  0  0  0  0  0  0  0  0  0  0  0
   55.8850   30.3200   44.5250 O   0  0  0  0  0  0  0  0  0  0  0  0
   57.4890   31.7670   42.9340 C   0  0  0  0  0  0  0  0  0  0  0  0
   57.8340   32.6170   44.1240 C   0  0  0  0  0  0  0  0  0  0  0  0
   57.0760   32.5290   45.3030 C   0  0  0  0  0  0  0  0  0  0  0  0
   57.3790   33.3450   46.3980 C   0  0  0  0  0  0  0  0  0  0  0  0
   58.4350   34.2570   46.3200 C   0  0  0  0  0  0  0  0  0  0  0  0
   59.1870   34.3580   45.1460 C   0  0  0  0  0  0  0  0  0  0  0  0
   58.8860   33.5460   44.0490 C   0  0  0  0  0  0  0  0  0  0  0  0
   61.8286   29.6554   46.9578 H   0  0  0  0  0  0  0  0  0  0  0  0
   59.9078   29.4588   50.0073 H   0  0  0  0  0  0  0  0  0  0  0  0
   61.5110   29.8622   49.2830 H   0  0  0  0  0  0  0  0  0  0  0  0
   63.1295   31.6883   49.9154 H   0  0  0  0  0  0  0  0  0  0  0  0
   64.9247   32.5328   48.3986 H   0  0  0  0  0  0  0  0  0  0  0  0
   64.3240   33.7958   46.3318 H   0  0  0  0  0  0  0  0  0  0  0  0
   61.9240   34.2206   45.7783 H   0  0  0  0  0  0  0  0  0  0  0  0
   60.1251   33.3873   47.2985 H   0  0  0  0  0  0  0  0  0  0  0  0
   56.9016   29.6885   46.4605 H   0  0  0  0  0  0  0  0  0  0  0  0
   58.3796   31.6548   42.2982 H   0  0  0  0  0  0  0  0  0  0  0  0
   56.6807   32.2547   42.3693 H   0  0  0  0  0  0  0  0  0  0  0  0
   56.2409   31.8157   45.3656 H   0  0  0  0  0  0  0  0  0  0  0  0
   56.7857   33.2688   47.3211 H   0  0  0  0  0  0  0  0  0  0  0  0
   58.6746   34.8957   47.1829 H   0  0  0  0  0  0  0  0  0  0  0  0
   60.0168   35.0776   45.0855 H   0  0  0  0  0  0  0  0  0  0  0  0
   59.4744   33.6343   43.1238 H   0  0  0  0  0  0  0  0  0  0  0  0
  1  2  2  0
  2  3  1  0
  3  4  2  0
  4  5  1  0
  5  6  1  0
  6  7  1  0
  7  8  2  0
  8  9  1  0
  9 10  2  0
 10 11  1  0
 11 12  2  0
  4 13  1  0
 13 14  1  0
 14 15  2  0
 15 16  1  0
 16 17  1  0
 17 18  2  0
 17 19  2  0
 17 20  1  0
 20 21  1  0
 21 22  2  0
 22 23  1  0
 23 24  2  0
 24 25  1  0
 25 26  2  0
 15  2  1  0
 26 21  1  0
 12  7  1  0
  3 27  1  0
  5 28  1  0
  5 29  1  0
  8 30  1  0
  9 31  1  0
 10 32  1  0
 11 33  1  0
 12 34  1  0
 14 35  1  0
 20 36  1  0
 20 37  1  0
 22 38  1  0
 23 39  1  0
 24 40  1  0
 25 41  1  0
 26 42  1  0
M  END
>  <UniqueID>  (34) 
29

>  <SMILES>  (34) 
O=c1cc(CSc2ccccc2)occ1OS(=O)(=O)Cc1ccccc1

>  <Energy>  (34) 
36.32502732132653

>  <Genealogy>  (34) 
O=c1cc(CSc2ccccc2)occ1OS(=O)(=O)Cc1ccccc1 (3D coordinates assigned)
O=c1cc(CSc2ccccc2)occ1OS(=O)(=O)Cc1ccccc1 (optimized conformer: 36.32502732132653 kcal/mol)

>  <smiles>  (34) 
O=c1cc(CSc2ccccc2)occ1OS(=O)(=O)Cc1ccccc1

>  <score_type>  (34) 
oracle

>  <origin>  (34) 
adg

>  <m_score__min__energy>  (34) 
-9.1300000000000008

>  <m_primary>  (34) 
energy

$$$$
34:0
     RDKit          3D

 61 64  0  0  0  0  0  0  0  0999 V2000
   53.5630   28.1200   53.5030 C   0  0  0  0  0  0  0  0  0  0  0  0
   54.5560   29.1570   53.0560 C   0  0  0  0  0  0  0  0  0  0  0  0
   55.9060   29.0050   53.4120 C   0  0  0  0  0  0  0  0  0  0  0  0
   56.8610   29.9390   52.9990 C   0  0  0  0  0  0  0  0  0  0  0  0
   56.4840   31.0450   52.2220 C   0  0  0  0  0  0  0  0  0  0  0  0
   57.4950   32.0290   51.7760 C   0  0  0  0  0  0  0  0  0  0  0  0
   57.5670   33.1500   52.3430 O   0  0  0  0  0  0  0  0  0  0  0  0
   58.3650   31.6970   50.6850 N   0  0  0  0  0  0  0  0  0  0  0  0
   59.0100   32.5540   49.7270 C   0  0  0  0  0  0  0  0  0  0  0  0
   60.1620   33.3100   50.0140 C   0  0  0  0  0  0  0  0  0  0  0  0
   60.7400   34.1120   49.0270 C   0  0  0  0  0  0  0  0  0  0  0  0
   60.1830   34.1700   47.7490 C   0  0  0  0  0  0  0  0  0  0  0  0
   59.0370   33.4200   47.4410 C   0  0  0  0  0  0  0  0  0  0  0  0
   58.4710   33.4530   46.0730 C   0  0  0  0  0  0  0  0  0  0  0  0
   57.7990   34.4500   45.7050 O   0  0  0  0  0  0  0  0  0  0  0  0
   58.7190   32.4060   45.1260 N   0  0  0  0  0  0  0  0  0  0  0  0
   57.8990   31.2430   44.9420 C   0  0  0  0  0  0  0  0  0  0  0  0
   56.8720   31.2770   43.9930 C   0  0  0  0  0  0  0  0  0  0  0  0
   56.0560   30.1600   43.7990 C   0  0  0  0  0  0  0  0  0  0  0  0
   56.2480   29.0110   44.5590 C   0  0  0  0  0  0  0  0  0  0  0  0
   57.2640   28.9650   45.5310 C   0  0  0  0  0  0  0  0  0  0  0  0
   57.4950   27.8040   46.3400 N   0  0  0  0  0  0  0  0  0  0  0  0
   56.6420   26.3020   46.1960 S   0  0  0  0  0  0  0  0  0  0  0  0
   57.2720   25.4100   44.7920 C   0  0  0  0  0  0  0  0  0  0  0  0
   56.8530   25.4760   47.4310 O   0  0  0  0  0  0  0  0  0  0  0  0
   55.1770   26.5580   45.9920 O   0  0  0  0  0  0  0  0  0  0  0  0
   58.0830   30.0850   45.7180 C   0  0  0  0  0  0  0  0  0  0  0  0
   58.4670   32.6060   48.4370 C   0  0  0  0  0  0  0  0  0  0  0  0
   55.1300   31.2150   51.8860 C   0  0  0  0  0  0  0  0  0  0  0  0
   54.1600   30.2950   52.3180 C   0  0  0  0  0  0  0  0  0  0  0  0
   52.7790   30.5470   52.0120 N   0  0  0  0  0  0  0  0  0  0  0  0
   51.9000   31.1170   53.0400 C   0  0  0  0  0  0  0  0  0  0  0  0
   50.6950   31.7970   52.3920 C   0  0  0  0  0  0  0  0  0  0  0  0
   51.1060   32.4480   51.2090 O   0  0  0  0  0  0  0  0  0  0  0  0
   51.3570   31.4900   50.1940 C   0  0  0  0  0  0  0  0  0  0  0  0
   52.2820   30.3360   50.6470 C   0  0  0  0  0  0  0  0  0  0  0  0
   53.5341   28.0898   54.6022 H   0  0  0  0  0  0  0  0  0  0  0  0
   52.5656   28.3770   53.1169 H   0  0  0  0  0  0  0  0  0  0  0  0
   53.8630   27.1346   53.1169 H   0  0  0  0  0  0  0  0  0  0  0  0
   56.2150   28.1430   54.0215 H   0  0  0  0  0  0  0  0  0  0  0  0
   57.9148   29.8059   53.2851 H   0  0  0  0  0  0  0  0  0  0  0  0
   60.6085   33.2692   51.0185 H   0  0  0  0  0  0  0  0  0  0  0  0
   61.6395   34.7012   49.2587 H   0  0  0  0  0  0  0  0  0  0  0  0
   60.6440   34.8064   46.9793 H   0  0  0  0  0  0  0  0  0  0  0  0
   56.7063   32.1867   43.3972 H   0  0  0  0  0  0  0  0  0  0  0  0
   55.2583   30.1892   43.0421 H   0  0  0  0  0  0  0  0  0  0  0  0
   55.6027   28.1346   44.3994 H   0  0  0  0  0  0  0  0  0  0  0  0
   57.8741   24.5575   45.1393 H   0  0  0  0  0  0  0  0  0  0  0  0
   56.4321   25.0423   44.1842 H   0  0  0  0  0  0  0  0  0  0  0  0
   57.8994   26.0786   44.1842 H   0  0  0  0  0  0  0  0  0  0  0  0
   58.8773   30.0588   46.4786 H   0  0  0  0  0  0  0  0  0  0  0  0
   57.5802   32.0004   48.1986 H   0  0  0  0  0  0  0  0  0  0  0  0
   54.8259   32.0792   51.2772 H   0  0  0  0  0  0  0  0  0  0  0  0
   51.5491   30.3129   53.7035 H   0  0  0  0  0  0  0  0  0  0  0  0
   52.4638   31.8642   53.6177 H   0  0  0  0  0  0  0  0  0  0  0  0
   49.9332   31.0414   52.1497 H   0  0  0  0  0  0  0  0  0  0  0  0
   50.2694   32.5340   53.0889 H   0  0  0  0  0  0  0  0  0  0  0  0
   50.3956   31.0606   49.8757 H   0  0  0  0  0  0  0  0  0  0  0  0
   51.8723   32.0143   49.3758 H   0  0  0  0  0  0  0  0  0  0  0  0
   51.7179   29.3923   50.6142 H   0  0  0  0  0  0  0  0  0  0  0  0
   53.1463   30.3004   49.9675 H   0  0  0  0  0  0  0  0  0  0  0  0
  1  2  1  0
  2  3  2  0
  3  4  1  0
  4  5  2  0
  5  6  1  0
  6  7  2  0
  6  8  1  0
  8  9  1  0
  9 10  2  0
 10 11  1  0
 11 12  2  0
 12 13  1  0
 13 14  1  0
 14 15  2  0
 14 16  1  0
 16 17  1  0
 17 18  2  0
 18 19  1  0
 19 20  2  0
 20 21  1  0
 21 22  1  0
 22 23  1  0
 23 24  1  0
 23 25  2  0
 23 26  2  0
 21 27  2  0
 13 28  2  0
  5 29  1  0
 29 30  2  0
 30 31  1  0
 31 32  1  0
 32 33  1  0
 33 34  1  0
 34 35  1  0
 35 36  1  0
 30  2  1  0
 36 31  1  0
 28  9  1  0
 27 17  1  0
  1 37  1  0
  1 38  1  0
  1 39  1  0
  3 40  1  0
  4 41  1  0
 10 42  1  0
 11 43  1  0
 12 44  1  0
 18 45  1  0
 19 46  1  0
 20 47  1  0
 24 48  1  0
 24 49  1  0
 24 50  1  0
 27 51  1  0
 28 52  1  0
 29 53  1  0
 32 54  1  0
 32 55  1  0
 33 56  1  0
 33 57  1  0
 35 58  1  0
 35 59  1  0
 36 60  1  0
 36 61  1  0
M  CHG  3   8  -1  16  -1  22  -1
M  END
>  <UniqueID>  (35) 
30

>  <SMILES>  (35) 
Cc1ccc(C(=O)[N-]c2cccc(C(=O)[N-]c3cccc([N-]S(C)(=O)=O)c3)c2)cc1N1CCOCC1

>  <Energy>  (35) 
87.70008324409234

>  <Genealogy>  (35) 
Cc1ccc(C(=O)[N-]c2cccc(C(=O)[N-]c3cccc([N-]S(C)(=O)=O)c3)c2)cc1N1CCOCC1 (protonated)
Cc1ccc(C(=O)[N-]c2cccc(C(=O)[N-]c3cccc([N-]S(C)(=O)=O)c3)c2)cc1N1CCOCC1 (3D coordinates assigned)
Cc1ccc(C(=O)[N-]c2cccc(C(=O)[N-]c3cccc([N-]S(C)(=O)=O)c3)c2)cc1N1CCOCC1 (nonaromatic ring conformer: 87.70008324409234 kcal/mol)

>  <smiles>  (35) 
Cc1ccc(C(=O)Nc2cccc(C(=O)Nc3cccc(NS(C)(=O)=O)c3)c2)cc1N1CCOCC1

>  <score_type>  (35) 
oracle

>  <origin>  (35) 
adg

>  <m_score__min__energy>  (35) 
-14.44

>  <m_primary>  (35) 
energy

$$$$
35:0
     RDKit          3D

 36 37  0  0  0  0  0  0  0  0999 V2000
   57.6010   29.6440   53.7730 O   0  0  0  0  0  0  0  0  0  0  0  0
   57.3200   29.8280   52.5570 C   0  0  0  0  0  0  0  0  0  0  0  0
   56.0090   30.3730   52.1530 C   0  0  0  0  0  0  0  0  0  0  0  0
   54.8130   29.8880   52.5200 C   0  0  0  0  0  0  0  0  0  0  0  0
   53.5240   30.5990   52.3920 C   0  0  0  0  0  0  0  0  0  0  0  0
   53.1730   31.1670   51.1570 C   0  0  0  0  0  0  0  0  0  0  0  0
   51.9800   31.8850   51.0250 C   0  0  0  0  0  0  0  0  0  0  0  0
   51.1400   32.0590   52.1290 C   0  0  0  0  0  0  0  0  0  0  0  0
   49.9550   32.7710   51.9960 O   0  0  0  0  0  0  0  0  0  0  0  0
   51.4980   31.5220   53.3690 C   0  0  0  0  0  0  0  0  0  0  0  0
   52.6900   30.8040   53.5050 C   0  0  0  0  0  0  0  0  0  0  0  0
   58.2520   29.4500   51.5410 N   0  0  0  0  0  0  0  0  0  0  0  0
   58.1260   29.8470   50.1430 C   0  0  0  0  0  0  0  0  0  0  0  0
   59.4700   29.7490   49.4140 C   0  0  0  0  0  0  0  0  0  0  0  0
   59.3940   28.7960   48.3110 N   0  0  0  0  0  0  0  0  0  0  0  0
   59.4410   29.1590   46.9260 C   0  0  0  0  0  0  0  0  0  0  0  0
   60.5530   29.3960   46.3820 O   0  0  0  0  0  0  0  0  0  0  0  0
   58.1840   29.2420   46.1350 C   0  0  0  0  0  0  0  0  0  0  0  0
   57.3720   28.1080   45.9770 C   0  0  0  0  0  0  0  0  0  0  0  0
   56.2230   28.1780   45.2570 N   0  0  0  0  0  0  0  0  0  0  0  0
   55.8330   29.3400   44.6760 C   0  0  0  0  0  0  0  0  0  0  0  0
   54.7650   29.3840   44.0130 O   0  0  0  0  0  0  0  0  0  0  0  0
   56.5940   30.4540   44.8110 N   0  0  0  0  0  0  0  0  0  0  0  0
   57.7520   30.4380   45.5200 C   0  0  0  0  0  0  0  0  0  0  0  0
   58.4230   31.5000   45.6170 O   0  0  0  0  0  0  0  0  0  0  0  0
   56.0129   31.2535   51.4936 H   0  0  0  0  0  0  0  0  0  0  0  0
   54.7902   28.8767   52.9522 H   0  0  0  0  0  0  0  0  0  0  0  0
   53.8389   31.0469   50.2897 H   0  0  0  0  0  0  0  0  0  0  0  0
   51.7021   32.3136   50.0508 H   0  0  0  0  0  0  0  0  0  0  0  0
   50.8407   31.6646   54.2394 H   0  0  0  0  0  0  0  0  0  0  0  0
   52.9763   30.3980   54.4865 H   0  0  0  0  0  0  0  0  0  0  0  0
   57.4000   29.1862   49.6467 H   0  0  0  0  0  0  0  0  0  0  0  0
   57.7871   30.8929   50.1079 H   0  0  0  0  0  0  0  0  0  0  0  0
   59.7378   30.7393   49.0170 H   0  0  0  0  0  0  0  0  0  0  0  0
   60.2329   29.4027   50.1268 H   0  0  0  0  0  0  0  0  0  0  0  0
   57.6688   27.1554   46.4400 H   0  0  0  0  0  0  0  0  0  0  0  0
  1  2  2  0
  2  3  1  0
  3  4  2  3
  4  5  1  0
  5  6  2  0
  6  7  1  0
  7  8  2  0
  8  9  1  0
  8 10  1  0
 10 11  2  0
  2 12  1  0
 12 13  1  0
 13 14  1  0
 14 15  1  0
 15 16  1  0
 16 17  2  0
 16 18  1  0
 18 19  2  0
 19 20  1  0
 20 21  1  0
 21 22  2  0
 21 23  1  0
 23 24  1  0
 24 25  2  0
 11  5  1  0
 24 18  1  0
  3 26  1  0
  4 27  1  0
  6 28  1  0
  7 29  1  0
 10 30  1  0
 11 31  1  0
 13 32  1  0
 13 33  1  0
 14 34  1  0
 14 35  1  0
 19 36  1  0
M  CHG  5   9  -1  12  -1  15  -1  20  -1  23  -1
M  END
>  <UniqueID>  (36) 
31

>  <SMILES>  (36) 
O=C(C=Cc1ccc([O-])cc1)[N-]CC[N-]C(=O)c1c[n-]c(=O)[n-]c1=O

>  <Energy>  (36) 
42.2532735400384

>  <Genealogy>  (36) 
O=C(C=Cc1ccc([O-])cc1)[N-]CC[N-]C(=O)c1c[n-]c(=O)[n-]c1=O (protonated)
O=C(C=Cc1ccc([O-])cc1)[N-]CC[N-]C(=O)c1c[n-]c(=O)[n-]c1=O (3D coordinates assigned)
O=C(C=Cc1ccc([O-])cc1)[N-]CC[N-]C(=O)c1c[n-]c(=O)[n-]c1=O (optimized conformer: 42.2532735400384 kcal/mol)

>  <smiles>  (36) 
O=C(C=Cc1ccc(O)cc1)NCCNC(=O)c1c[nH]c(=O)[nH]c1=O

>  <score_type>  (36) 
oracle

>  <origin>  (36) 
adg

>  <m_score__min__energy>  (36) 
-16.399999999999999

>  <m_primary>  (36) 
energy

$$$$
36:0
     RDKit          3D

 48 51  0  0  0  0  0  0  0  0999 V2000
   58.0950   26.9430   43.6600 C   0  0  0  0  0  0  0  0  0  0  0  0
   59.1190   26.6850   44.6150 O   0  0  0  0  0  0  0  0  0  0  0  0
   59.6390   27.6460   45.4910 C   0  0  0  0  0  0  0  0  0  0  0  0
   59.4530   27.4640   46.8650 C   0  0  0  0  0  0  0  0  0  0  0  0
   59.9420   28.4000   47.7780 C   0  0  0  0  0  0  0  0  0  0  0  0
   60.6410   29.5380   47.3310 C   0  0  0  0  0  0  0  0  0  0  0  0
   61.1750   30.5570   48.3200 C   0  0  2  0  0  0  0  0  0  0  0  0
   60.1270   31.6750   48.5920 C   0  0  0  0  0  0  0  0  0  0  0  0
   60.2640   32.8940   47.6920 C   0  0  0  0  0  0  0  0  0  0  0  0
   59.2760   33.1520   46.6210 C   0  0  0  0  0  0  0  0  0  0  0  0
   59.2480   34.3820   45.9460 C   0  0  0  0  0  0  0  0  0  0  0  0
   58.3200   34.6130   44.9290 C   0  0  0  0  0  0  0  0  0  0  0  0
   57.4170   33.6080   44.5640 C   0  0  0  0  0  0  0  0  0  0  0  0
   57.4210   32.3780   45.2270 C   0  0  0  0  0  0  0  0  0  0  0  0
   56.4770   31.4100   44.8370 O   0  0  0  0  0  0  0  0  0  0  0  0
   56.6890   30.4510   43.8130 C   0  0  0  0  0  0  0  0  0  0  0  0
   58.3590   32.1530   46.2570 C   0  0  0  0  0  0  0  0  0  0  0  0
   61.2100   33.7730   47.8860 N   0  0  0  0  0  0  0  0  0  0  0  0
   62.2640   33.6420   48.8510 C   0  0  0  0  0  0  0  0  0  0  0  0
   62.5550   34.7130   49.7040 C   0  0  0  0  0  0  0  0  0  0  0  0
   63.5420   34.5800   50.6870 C   0  0  0  0  0  0  0  0  0  0  0  0
   64.2430   33.3780   50.8210 C   0  0  0  0  0  0  0  0  0  0  0  0
   63.9750   32.3140   49.9550 C   0  0  0  0  0  0  0  0  0  0  0  0
   63.0020   32.4490   48.9580 C   0  0  0  0  0  0  0  0  0  0  0  0
   62.8060   31.1590   47.7250 S   0  0  0  0  0  0  0  0  0  0  0  0
   60.8350   29.7170   45.9490 C   0  0  0  0  0  0  0  0  0  0  0  0
   60.3340   28.7840   45.0370 C   0  0  0  0  0  0  0  0  0  0  0  0
   57.1567   27.1794   44.1833 H   0  0  0  0  0  0  0  0  0  0  0  0
   58.3880   27.7954   43.0295 H   0  0  0  0  0  0  0  0  0  0  0  0
   57.9491   26.0535   43.0295 H   0  0  0  0  0  0  0  0  0  0  0  0
   58.9167   26.5755   47.2296 H   0  0  0  0  0  0  0  0  0  0  0  0
   59.7801   28.2475   48.8553 H   0  0  0  0  0  0  0  0  0  0  0  0
   61.3444   30.0968   49.3047 H   0  0  0  0  0  0  0  0  0  0  0  0
   59.1233   31.2494   48.4452 H   0  0  0  0  0  0  0  0  0  0  0  0
   60.2975   32.0228   49.6215 H   0  0  0  0  0  0  0  0  0  0  0  0
   59.9635   35.1710   46.2207 H   0  0  0  0  0  0  0  0  0  0  0  0
   58.2985   35.5850   44.4145 H   0  0  0  0  0  0  0  0  0  0  0  0
   56.6994   33.7876   43.7499 H   0  0  0  0  0  0  0  0  0  0  0  0
   56.9053   29.4724   44.2663 H   0  0  0  0  0  0  0  0  0  0  0  0
   55.7860   30.3747   43.1894 H   0  0  0  0  0  0  0  0  0  0  0  0
   57.5400   30.7625   43.1894 H   0  0  0  0  0  0  0  0  0  0  0  0
   58.3719   31.1853   46.7799 H   0  0  0  0  0  0  0  0  0  0  0  0
   62.0067   35.6611   49.6014 H   0  0  0  0  0  0  0  0  0  0  0  0
   63.7669   35.4236   51.3561 H   0  0  0  0  0  0  0  0  0  0  0  0
   65.0047   33.2696   51.6071 H   0  0  0  0  0  0  0  0  0  0  0  0
   64.5295   31.3695   50.0572 H   0  0  0  0  0  0  0  0  0  0  0  0
   61.3846   30.5971   45.5839 H   0  0  0  0  0  0  0  0  0  0  0  0
   60.4833   28.9393   43.9583 H   0  0  0  0  0  0  0  0  0  0  0  0
  1  2  1  0
  2  3  1  0
  3  4  2  0
  4  5  1  0
  5  6  2  0
  6  7  1  0
  7  8  1  0
  8  9  1  0
  9 10  1  0
 10 11  2  0
 11 12  1  0
 12 13  2  0
 13 14  1  0
 14 15  1  0
 15 16  1  0
 14 17  2  0
  9 18  2  0
 18 19  1  0
 19 20  2  0
 20 21  1  0
 21 22  2  0
 22 23  1  0
 23 24  2  0
 24 25  1  0
  6 26  1  0
 26 27  2  0
 27  3  1  0
 25  7  1  0
 17 10  1  0
 24 19  1  0
  1 28  1  0
  1 29  1  0
  1 30  1  0
  4 31  1  0
  5 32  1  0
  7 33  1  1
  8 34  1  0
  8 35  1  0
 11 36  1  0
 12 37  1  0
 13 38  1  0
 16 39  1  0
 16 40  1  0
 16 41  1  0
 17 42  1  0
 20 43  1  0
 21 44  1  0
 22 45  1  0
 23 46  1  0
 26 47  1  0
 27 48  1  0
M  END
>  <UniqueID>  (37) 
32

>  <SMILES>  (37) 
COc1ccc([C@@H]2CC(c3cccc(OC)c3)=Nc3ccccc3S2)cc1

>  <Energy>  (37) 
65.87616484762715

>  <Genealogy>  (37) 
COc1ccc([C@@H]2CC(c3cccc(OC)c3)=Nc3ccccc3S2)cc1 (chirality)
COc1ccc([C@@H]2CC(c3cccc(OC)c3)=Nc3ccccc3S2)cc1 (3D coordinates assigned)
COc1ccc([C@@H]2CC(c3cccc(OC)c3)=Nc3ccccc3S2)cc1 (nonaromatic ring conformer: 65.87616484762715 kcal/mol)

>  <smiles>  (37) 
COc1ccc(C2CC(c3cccc(OC)c3)=Nc3ccccc3S2)cc1

>  <score_type>  (37) 
oracle

>  <origin>  (37) 
adg

>  <m_score__min__energy>  (37) 
-6.6900000000000004

>  <m_primary>  (37) 
energy

$$$$
37:0
     RDKit          3D

 45 47  0  0  0  0  0  0  0  0999 V2000
   53.7350   23.9940   45.4800 C   0  0  0  0  0  0  0  0  0  0  0  0
   54.9860   23.7330   46.3040 C   0  0  0  0  0  0  0  0  0  0  0  0
   55.5520   24.9750   46.7140 O   0  0  0  0  0  0  0  0  0  0  0  0
   56.5140   25.6900   45.9840 C   0  0  0  0  0  0  0  0  0  0  0  0
   56.8790   25.2080   44.7220 C   0  0  0  0  0  0  0  0  0  0  0  0
   57.8320   25.8800   43.9560 C   0  0  0  0  0  0  0  0  0  0  0  0
   58.4310   27.0430   44.4450 C   0  0  0  0  0  0  0  0  0  0  0  0
   58.0810   27.5490   45.7080 C   0  0  0  0  0  0  0  0  0  0  0  0
   58.7340   28.7860   46.2020 C   0  0  0  0  0  0  0  0  0  0  0  0
   58.6970   29.9860   45.5840 N   0  0  0  0  0  0  0  0  0  0  0  0
   59.4100   30.7970   46.3840 C   0  0  0  0  0  0  0  0  0  0  0  0
   59.6610   32.2500   46.1150 C   0  0  0  0  0  0  0  0  0  0  0  0
   58.4160   33.0230   46.2910 N   0  0  0  0  0  0  0  0  0  0  0  0
   58.6330   34.2680   47.0650 C   0  0  0  0  0  0  0  0  0  0  0  0
   59.6520   35.1600   46.3630 C   0  0  0  0  0  0  0  0  0  0  0  0
   57.7150   33.2550   45.0060 C   0  0  0  0  0  0  0  0  0  0  0  0
   57.1990   31.9930   44.3700 C   0  0  0  0  0  0  0  0  0  0  0  0
   57.6620   31.4860   43.2090 N   0  0  0  0  0  0  0  0  0  0  0  0
   56.9610   30.3880   42.9740 N   0  0  0  0  0  0  0  0  0  0  0  0
   56.1020   30.2790   44.0030 C   0  0  0  0  0  0  0  0  0  0  0  0
   55.2660   29.3460   44.1200 O   0  0  0  0  0  0  0  0  0  0  0  0
   56.2360   31.2540   44.8650 O   0  0  0  0  0  0  0  0  0  0  0  0
   59.8650   30.0690   47.4600 C   0  0  0  0  0  0  0  0  0  0  0  0
   59.4310   28.8390   47.3180 O   0  0  0  0  0  0  0  0  0  0  0  0
   57.1190   26.8640   46.4750 C   0  0  0  0  0  0  0  0  0  0  0  0
   52.8832   24.1717   46.1529 H   0  0  0  0  0  0  0  0  0  0  0  0
   53.8918   24.8788   44.8455 H   0  0  0  0  0  0  0  0  0  0  0  0
   53.5250   23.1203   44.8455 H   0  0  0  0  0  0  0  0  0  0  0  0
   54.7231   23.1389   47.1917 H   0  0  0  0  0  0  0  0  0  0  0  0
   55.7169   23.1797   45.6960 H   0  0  0  0  0  0  0  0  0  0  0  0
   56.4111   24.2925   44.3310 H   0  0  0  0  0  0  0  0  0  0  0  0
   58.1121   25.4931   42.9651 H   0  0  0  0  0  0  0  0  0  0  0  0
   59.1828   27.5670   43.8364 H   0  0  0  0  0  0  0  0  0  0  0  0
   58.2320   30.2510   44.6880 H   0  0  0  0  0  0  0  0  0  0  0  0
   60.4225   32.6231   46.8156 H   0  0  0  0  0  0  0  0  0  0  0  0
   60.0136   32.3679   45.0797 H   0  0  0  0  0  0  0  0  0  0  0  0
   57.6796   34.8090   47.1560 H   0  0  0  0  0  0  0  0  0  0  0  0
   59.0156   34.0058   48.0624 H   0  0  0  0  0  0  0  0  0  0  0  0
   60.2561   35.6888   47.1150 H   0  0  0  0  0  0  0  0  0  0  0  0
   60.3090   34.5414   45.7339 H   0  0  0  0  0  0  0  0  0  0  0  0
   59.1258   35.8930   45.7339 H   0  0  0  0  0  0  0  0  0  0  0  0
   56.8631   33.9262   45.1899 H   0  0  0  0  0  0  0  0  0  0  0  0
   58.4471   33.6926   44.3114 H   0  0  0  0  0  0  0  0  0  0  0  0
   60.4806   30.4494   48.2884 H   0  0  0  0  0  0  0  0  0  0  0  0
   56.8373   27.2488   47.4662 H   0  0  0  0  0  0  0  0  0  0  0  0
  1  2  1  0
  2  3  1  0
  3  4  1  0
  4  5  2  0
  5  6  1  0
  6  7  2  0
  7  8  1  0
  8  9  1  0
  9 10  2  0
 10 11  1  0
 11 12  1  0
 12 13  1  0
 13 14  1  0
 14 15  1  0
 13 16  1  0
 16 17  1  0
 17 18  2  0
 18 19  1  0
 19 20  1  0
 20 21  2  0
 20 22  1  0
 11 23  2  0
 23 24  1  0
  8 25  2  0
 25  4  1  0
 24  9  1  0
 22 17  1  0
  1 26  1  0
  1 27  1  0
  1 28  1  0
  2 29  1  0
  2 30  1  0
  5 31  1  0
  6 32  1  0
  7 33  1  0
 10 34  1  0
 12 35  1  0
 12 36  1  0
 14 37  1  0
 14 38  1  0
 15 39  1  0
 15 40  1  0
 15 41  1  0
 16 42  1  0
 16 43  1  0
 23 44  1  0
 25 45  1  0
M  CHG  2  10   1  19  -1
M  END
>  <UniqueID>  (38) 
33

>  <SMILES>  (38) 
CCOc1cccc(-c2[nH+]c(CN(CC)Cc3n[n-]c(=O)o3)co2)c1

>  <Energy>  (38) 
111.40096746007933

>  <Genealogy>  (38) 
CCOc1cccc(-c2[nH+]c(CN(CC)Cc3n[n-]c(=O)o3)co2)c1 (protonated)
CCOc1cccc(-c2[nH+]c(CN(CC)Cc3n[n-]c(=O)o3)co2)c1 (3D coordinates assigned)
CCOc1cccc(-c2[nH+]c(CN(CC)Cc3n[n-]c(=O)o3)co2)c1 (optimized conformer: 111.40096746007933 kcal/mol)

>  <smiles>  (38) 
CCOc1cccc(-c2nc(CN(CC)Cc3n[nH]c(=O)o3)co2)c1

>  <score_type>  (38) 
oracle

>  <origin>  (38) 
adg

>  <m_score__min__energy>  (38) 
-6.6699999999999999

>  <m_primary>  (38) 
energy

$$$$
38:0
     RDKit          3D

 54 56  0  0  0  0  0  0  0  0999 V2000
   56.3950   24.6220   44.8910 C   0  0  0  0  0  0  0  0  0  0  0  0
   55.3360   25.3230   45.6730 C   0  0  0  0  0  0  0  0  0  0  0  0
   54.3590   24.6710   46.1270 O   0  0  0  0  0  0  0  0  0  0  0  0
   55.4840   26.7190   45.9580 N   0  0  0  0  0  0  0  0  0  0  0  0
   56.7110   27.4630   45.9480 C   0  0  0  0  0  0  0  0  0  0  0  0
   56.8310   28.5470   45.0720 C   0  0  0  0  0  0  0  0  0  0  0  0
   58.0050   29.3070   45.0380 C   0  0  0  0  0  0  0  0  0  0  0  0
   59.0740   28.9930   45.8910 C   0  0  0  0  0  0  0  0  0  0  0  0
   60.3350   29.8160   45.8710 C   0  0  0  0  0  0  0  0  0  0  0  0
   60.2570   30.8870   46.8110 O   0  0  0  0  0  0  0  0  0  0  0  0
   59.8250   32.1940   46.5270 C   0  0  0  0  0  0  0  0  0  0  0  0
   58.5360   32.4590   46.0210 C   0  0  0  0  0  0  0  0  0  0  0  0
   58.1320   33.7700   45.7620 C   0  0  0  0  0  0  0  0  0  0  0  0
   59.0010   34.8330   46.0060 C   0  0  0  0  0  0  0  0  0  0  0  0
   60.2800   34.5870   46.5070 C   0  0  0  0  0  0  0  0  0  0  0  0
   60.7050   33.2740   46.7640 C   0  0  0  0  0  0  0  0  0  0  0  0
   62.0930   33.0500   47.3190 C   0  0  0  0  0  0  0  0  0  0  0  0
   62.0330   32.2920   48.5870 N   0  0  0  0  0  0  0  0  0  0  0  0
   63.3800   31.8280   48.9750 C   0  0  0  0  0  0  0  0  0  0  0  0
   61.4500   33.1280   49.6600 C   0  0  0  0  0  0  0  0  0  0  0  0
   60.1810   32.5050   50.1920 C   0  0  0  0  0  0  0  0  0  0  0  0
   59.2830   33.2980   50.9290 C   0  0  0  0  0  0  0  0  0  0  0  0
   58.1090   32.7450   51.4450 C   0  0  0  0  0  0  0  0  0  0  0  0
   57.8190   31.3960   51.2360 C   0  0  0  0  0  0  0  0  0  0  0  0
   58.7030   30.5970   50.5100 C   0  0  0  0  0  0  0  0  0  0  0  0
   59.8830   31.1360   49.9840 C   0  0  0  0  0  0  0  0  0  0  0  0
   60.7310   30.2920   49.2650 O   0  0  0  0  0  0  0  0  0  0  0  0
   58.9380   27.9330   46.8000 C   0  0  0  0  0  0  0  0  0  0  0  0
   57.7650   27.1730   46.8310 C   0  0  0  0  0  0  0  0  0  0  0  0
   57.1088   24.1495   45.5819 H   0  0  0  0  0  0  0  0  0  0  0  0
   55.9329   23.8508   44.2572 H   0  0  0  0  0  0  0  0  0  0  0  0
   56.9244   25.3487   44.2572 H   0  0  0  0  0  0  0  0  0  0  0  0
   55.9954   28.8039   44.4044 H   0  0  0  0  0  0  0  0  0  0  0  0
   58.0904   30.1533   44.3405 H   0  0  0  0  0  0  0  0  0  0  0  0
   61.1895   29.1726   46.1277 H   0  0  0  0  0  0  0  0  0  0  0  0
   60.4631   30.2398   44.8640 H   0  0  0  0  0  0  0  0  0  0  0  0
   57.8433   31.6264   45.8288 H   0  0  0  0  0  0  0  0  0  0  0  0
   57.1251   33.9651   45.3643 H   0  0  0  0  0  0  0  0  0  0  0  0
   58.6784   35.8650   45.8036 H   0  0  0  0  0  0  0  0  0  0  0  0
   60.9607   35.4288   46.7021 H   0  0  0  0  0  0  0  0  0  0  0  0
   62.6873   32.4831   46.5873 H   0  0  0  0  0  0  0  0  0  0  0  0
   62.5581   34.0277   47.5132 H   0  0  0  0  0  0  0  0  0  0  0  0
   63.4568   31.8015   50.0720 H   0  0  0  0  0  0  0  0  0  0  0  0
   63.5508   30.8192   48.5710 H   0  0  0  0  0  0  0  0  0  0  0  0
   64.1358   32.5176   48.5710 H   0  0  0  0  0  0  0  0  0  0  0  0
   62.1773   33.2222   50.4799 H   0  0  0  0  0  0  0  0  0  0  0  0
   61.2111   34.1188   49.2461 H   0  0  0  0  0  0  0  0  0  0  0  0
   59.5070   34.3613   51.1002 H   0  0  0  0  0  0  0  0  0  0  0  0
   57.4114   33.3741   52.0174 H   0  0  0  0  0  0  0  0  0  0  0  0
   56.8937   30.9627   51.6435 H   0  0  0  0  0  0  0  0  0  0  0  0
   58.4705   29.5339   50.3495 H   0  0  0  0  0  0  0  0  0  0  0  0
   60.9700   30.4410   48.2930 H   0  0  0  0  0  0  0  0  0  0  0  0
   59.7596   27.6984   47.4928 H   0  0  0  0  0  0  0  0  0  0  0  0
   57.6668   26.3454   47.5489 H   0  0  0  0  0  0  0  0  0  0  0  0
  1  2  1  0
  2  3  2  0
  2  4  1  0
  4  5  1  0
  5  6  2  0
  6  7  1  0
  7  8  2  0
  8  9  1  0
  9 10  1  0
 10 11  1  0
 11 12  2  0
 12 13  1  0
 13 14  2  0
 14 15  1  0
 15 16  2  0
 16 17  1  0
 17 18  1  0
 18 19  1  0
 18 20  1  0
 20 21  1  0
 21 22  2  0
 22 23  1  0
 23 24  2  0
 24 25  1  0
 25 26  2  0
 26 27  1  0
  8 28  1  0
 28 29  2  0
 29  5  1  0
 16 11  1  0
 26 21  1  0
  1 30  1  0
  1 31  1  0
  1 32  1  0
  6 33  1  0
  7 34  1  0
  9 35  1  0
  9 36  1  0
 12 37  1  0
 13 38  1  0
 14 39  1  0
 15 40  1  0
 17 41  1  0
 17 42  1  0
 19 43  1  0
 19 44  1  0
 19 45  1  0
 20 46  1  0
 20 47  1  0
 22 48  1  0
 23 49  1  0
 24 50  1  0
 25 51  1  0
 27 52  1  0
 28 53  1  0
 29 54  1  0
M  CHG  1   4  -1
M  END
>  <UniqueID>  (39) 
34

>  <SMILES>  (39) 
CC(=O)[N-]c1ccc(COc2ccccc2CN(C)Cc2ccccc2O)cc1

>  <Energy>  (39) 
59.76814278584807

>  <Genealogy>  (39) 
CC(=O)[N-]c1ccc(COc2ccccc2CN(C)Cc2ccccc2O)cc1 (protonated)
CC(=O)[N-]c1ccc(COc2ccccc2CN(C)Cc2ccccc2O)cc1 (3D coordinates assigned)
CC(=O)[N-]c1ccc(COc2ccccc2CN(C)Cc2ccccc2O)cc1 (optimized conformer: 59.76814278584807 kcal/mol)

>  <smiles>  (39) 
CC(=O)Nc1ccc(COc2ccccc2CN(C)Cc2ccccc2O)cc1

>  <score_type>  (39) 
oracle

>  <origin>  (39) 
adg

>  <m_score__min__energy>  (39) 
-9.5999999999999996

>  <m_primary>  (39) 
energy

$$$$
39:0
     RDKit          3D

 42 44  0  0  0  0  0  0  0  0999 V2000
   62.2850   33.9890   50.6480 C   0  0  0  0  0  0  0  0  0  0  0  0
   62.1040   33.9250   49.1590 C   0  0  0  0  0  0  0  0  0  0  0  0
   60.8560   34.2170   48.5830 C   0  0  0  0  0  0  0  0  0  0  0  0
   60.6810   34.1590   47.1900 C   0  0  0  0  0  0  0  0  0  0  0  0
   59.3440   34.4730   46.5710 C   0  0  0  0  0  0  0  0  0  0  0  0
   59.1930   33.7960   45.3220 O   0  0  0  0  0  0  0  0  0  0  0  0
   58.5410   32.5660   45.1400 C   0  0  0  0  0  0  0  0  0  0  0  0
   58.7230   31.5720   46.1080 C   0  0  0  0  0  0  0  0  0  0  0  0
   58.0910   30.3320   45.9820 C   0  0  0  0  0  0  0  0  0  0  0  0
   57.2520   30.0710   44.8850 C   0  0  0  0  0  0  0  0  0  0  0  0
   56.6160   28.7950   44.7210 N   0  0  0  0  0  0  0  0  0  0  0  0
   56.9970   27.6090   45.4320 C   0  0  0  0  0  0  0  0  0  0  0  0
   58.2890   27.1290   45.5450 C   0  0  0  0  0  0  0  0  0  0  0  0
   58.1740   25.9220   46.2110 C   0  0  0  0  0  0  0  0  0  0  0  0
   59.2380   25.0830   46.5210 O   0  0  0  0  0  0  0  0  0  0  0  0
   56.8870   25.6480   46.5070 N   0  0  0  0  0  0  0  0  0  0  0  0
   56.3710   24.4180   47.1020 C   0  0  0  0  0  0  0  0  0  0  0  0
   56.1610   26.6640   46.0020 C   0  0  0  0  0  0  0  0  0  0  0  0
   54.7710   26.7030   46.0100 O   0  0  0  0  0  0  0  0  0  0  0  0
   57.0940   31.0540   43.9000 C   0  0  0  0  0  0  0  0  0  0  0  0
   57.7250   32.2950   44.0250 C   0  0  0  0  0  0  0  0  0  0  0  0
   61.7740   33.8350   46.3720 C   0  0  0  0  0  0  0  0  0  0  0  0
   63.0180   33.5520   46.9380 C   0  0  0  0  0  0  0  0  0  0  0  0
   63.1880   33.5960   48.3260 C   0  0  0  0  0  0  0  0  0  0  0  0
   64.4370   33.3150   48.8690 O   0  0  0  0  0  0  0  0  0  0  0  0
   61.3595   33.6617   51.1443 H   0  0  0  0  0  0  0  0  0  0  0  0
   63.1135   33.3293   50.9453 H   0  0  0  0  0  0  0  0  0  0  0  0
   62.5147   35.0228   50.9453 H   0  0  0  0  0  0  0  0  0  0  0  0
   60.0089   34.4933   49.2280 H   0  0  0  0  0  0  0  0  0  0  0  0
   58.5451   34.1508   47.2550 H   0  0  0  0  0  0  0  0  0  0  0  0
   59.2823   35.5570   46.3948 H   0  0  0  0  0  0  0  0  0  0  0  0
   59.3694   31.7685   46.9760 H   0  0  0  0  0  0  0  0  0  0  0  0
   58.2510   29.5562   46.7453 H   0  0  0  0  0  0  0  0  0  0  0  0
   55.8270   28.7190   44.0400 H   0  0  0  0  0  0  0  0  0  0  0  0
   59.2117   27.6055   45.1825 H   0  0  0  0  0  0  0  0  0  0  0  0
   56.4049   24.4988   48.1985 H   0  0  0  0  0  0  0  0  0  0  0  0
   55.3315   24.2619   46.7778 H   0  0  0  0  0  0  0  0  0  0  0  0
   56.9880   23.5670   46.7778 H   0  0  0  0  0  0  0  0  0  0  0  0
   56.4675   30.8475   43.0198 H   0  0  0  0  0  0  0  0  0  0  0  0
   57.5836   33.0624   43.2497 H   0  0  0  0  0  0  0  0  0  0  0  0
   61.6498   33.8039   45.2795 H   0  0  0  0  0  0  0  0  0  0  0  0
   63.8684   33.2933   46.2900 H   0  0  0  0  0  0  0  0  0  0  0  0
  1  2  1  0
  2  3  2  0
  3  4  1  0
  4  5  1  0
  5  6  1  0
  6  7  1  0
  7  8  2  0
  8  9  1  0
  9 10  2  0
 10 11  1  0
 11 12  1  0
 12 13  1  0
 13 14  2  0
 14 15  1  0
 14 16  1  0
 16 17  1  0
 16 18  1  0
 18 19  1  0
 10 20  1  0
 20 21  2  0
  4 22  2  0
 22 23  1  0
 23 24  2  0
 24 25  1  0
 24  2  1  0
 21  7  1  0
 18 12  2  0
  1 26  1  0
  1 27  1  0
  1 28  1  0
  3 29  1  0
  5 30  1  0
  5 31  1  0
  8 32  1  0
  9 33  1  0
 11 34  1  0
 13 35  1  0
 17 36  1  0
 17 37  1  0
 17 38  1  0
 20 39  1  0
 21 40  1  0
 22 41  1  0
 23 42  1  0
M  CHG  3  15  -1  19  -1  25  -1
M  END
>  <UniqueID>  (40) 
35

>  <SMILES>  (40) 
Cc1cc(COc2ccc(Nc3cc([O-])n(C)c3[O-])cc2)ccc1[O-]

>  <Energy>  (40) 
77.50117596692805

>  <Genealogy>  (40) 
Cc1cc(COc2ccc(Nc3cc([O-])n(C)c3[O-])cc2)ccc1[O-] (protonated)
Cc1cc(COc2ccc(Nc3cc([O-])n(C)c3[O-])cc2)ccc1[O-] (3D coordinates assigned)
Cc1cc(COc2ccc(Nc3cc([O-])n(C)c3[O-])cc2)ccc1[O-] (optimized conformer: 77.50117596692805 kcal/mol)

>  <smiles>  (40) 
Cc1cc(COc2ccc(Nc3cc(O)n(C)c3O)cc2)ccc1O

>  <score_type>  (40) 
oracle

>  <origin>  (40) 
adg

>  <m_score__min__energy>  (40) 
-14

>  <m_primary>  (40) 
energy

$$$$
40:0
     RDKit          3D

 38 39  0  0  0  0  0  0  0  0999 V2000
   56.2420   27.4570   45.6340 N   0  0  0  0  0  0  0  0  0  0  0  0
   55.9440   26.2330   45.9440 C   0  0  0  0  0  0  0  0  0  0  0  0
   54.7110   25.7600   45.6230 N   0  0  0  0  0  0  0  0  0  0  0  0
   54.3230   24.4970   45.9350 C   0  0  0  0  0  0  0  0  0  0  0  0
   55.2040   23.6550   46.6200 C   0  0  0  0  0  0  0  0  0  0  0  0
   54.8210   22.2430   46.9510 C   0  0  0  0  0  0  0  0  0  0  0  0
   53.8520   22.2270   47.9400 F   0  0  0  0  0  0  0  0  0  0  0  0
   55.9350   21.5580   47.4020 F   0  0  0  0  0  0  0  0  0  0  0  0
   54.3210   21.6100   45.8270 F   0  0  0  0  0  0  0  0  0  0  0  0
   56.4440   24.1160   46.9290 N   0  0  0  0  0  0  0  0  0  0  0  0
   56.8540   25.3760   46.6090 C   0  0  0  0  0  0  0  0  0  0  0  0
   58.2490   25.8180   46.9850 C   0  0  0  0  0  0  0  0  0  0  0  0
   58.3180   27.2670   47.1900 N   0  0  0  0  0  0  0  0  0  0  0  0
   59.4680   27.9460   47.7320 C   0  0  0  0  0  0  0  0  0  0  0  0
   60.7090   27.1030   48.3980 S   0  0  0  0  0  0  0  0  0  0  0  0
   59.4800   29.3780   47.8350 N   0  0  0  0  0  0  0  0  0  0  0  0
   58.7900   30.2520   46.9260 C   0  0  0  0  0  0  0  0  0  0  0  0
   58.8350   31.6380   47.1330 C   0  0  0  0  0  0  0  0  0  0  0  0
   58.1820   32.5050   46.2530 C   0  0  0  0  0  0  0  0  0  0  0  0
   57.4920   31.9980   45.1510 C   0  0  0  0  0  0  0  0  0  0  0  0
   57.4630   30.6170   44.9140 C   0  0  0  0  0  0  0  0  0  0  0  0
   56.5880   29.9700   43.5300 S   0  0  0  0  0  0  0  0  0  0  0  0
   57.3220   28.4910   43.0190 N   0  0  0  0  0  0  0  0  0  0  0  0
   56.6180   30.9610   42.4000 O   0  0  0  0  0  0  0  0  0  0  0  0
   55.1550   29.7110   43.9050 O   0  0  0  0  0  0  0  0  0  0  0  0
   58.1140   29.7470   45.8000 C   0  0  0  0  0  0  0  0  0  0  0  0
   56.0260   27.8990   44.7140 H   0  0  0  0  0  0  0  0  0  0  0  0
   53.3226   24.1387   45.6508 H   0  0  0  0  0  0  0  0  0  0  0  0
   58.5456   25.3112   47.9151 H   0  0  0  0  0  0  0  0  0  0  0  0
   58.9278   25.5541   46.1606 H   0  0  0  0  0  0  0  0  0  0  0  0
   57.4680   27.8250   46.9540 H   0  0  0  0  0  0  0  0  0  0  0  0
   60.0120   29.8100   48.6250 H   0  0  0  0  0  0  0  0  0  0  0  0
   59.3873   32.0450   47.9928 H   0  0  0  0  0  0  0  0  0  0  0  0
   58.2119   33.5904   46.4294 H   0  0  0  0  0  0  0  0  0  0  0  0
   56.9700   32.6835   44.4672 H   0  0  0  0  0  0  0  0  0  0  0  0
   57.0670   27.7650   43.7270 H   0  0  0  0  0  0  0  0  0  0  0  0
   58.3570   28.6250   43.0860 H   0  0  0  0  0  0  0  0  0  0  0  0
   58.0962   28.6630   45.6137 H   0  0  0  0  0  0  0  0  0  0  0  0
  1  2  2  3
  2  3  1  0
  3  4  1  0
  4  5  2  0
  5  6  1  0
  6  7  1  0
  6  8  1  0
  6  9  1  0
  5 10  1  0
 10 11  2  0
 11 12  1  0
 12 13  1  0
 13 14  1  0
 14 15  2  0
 14 16  1  0
 16 17  1  0
 17 18  2  0
 18 19  1  0
 19 20  2  0
 20 21  1  0
 21 22  1  0
 22 23  1  0
 22 24  2  0
 22 25  2  0
 21 26  2  0
 11  2  1  0
 26 17  1  0
  1 27  1  0
  4 28  1  0
 12 29  1  0
 12 30  1  0
 13 31  1  0
 16 32  1  0
 18 33  1  0
 19 34  1  0
 20 35  1  0
 23 36  1  0
 23 37  1  0
 26 38  1  0
M  CHG  1   3  -1
M  END
>  <UniqueID>  (41) 
36

>  <SMILES>  (41) 
N=c1[n-]cc(C(F)(F)F)nc1CNC(=S)Nc1cccc(S(N)(=O)=O)c1

>  <Energy>  (41) 
42.969925003896506

>  <Genealogy>  (41) 
N=c1[n-]cc(C(F)(F)F)nc1CNC(=S)Nc1cccc(S(N)(=O)=O)c1 (protonated)
N=c1[n-]cc(C(F)(F)F)nc1CNC(=S)Nc1cccc(S(N)(=O)=O)c1 (3D coordinates assigned)
N=c1[n-]cc(C(F)(F)F)nc1CNC(=S)Nc1cccc(S(N)(=O)=O)c1 (optimized conformer: 42.969925003896506 kcal/mol)

>  <smiles>  (41) 
N=c1[nH]cc(C(F)(F)F)nc1CNC(=S)Nc1cccc(S(N)(=O)=O)c1

>  <score_type>  (41) 
oracle

>  <origin>  (41) 
adg

>  <m_score__min__energy>  (41) 
-9.5399999999999991

>  <m_primary>  (41) 
energy

$$$$
41:0
     RDKit          3D

 62 66  0  0  0  0  0  0  0  0999 V2000
   54.1840   22.4250   46.3890 C   0  0  0  0  0  0  0  0  0  0  0  0
   54.6500   23.1920   45.1460 C   0  0  0  0  0  0  0  0  0  0  0  0
   54.5850   24.7070   45.3750 C   0  0  0  0  0  0  0  0  0  0  0  0
   56.0440   22.7630   44.7280 C   0  0  0  0  0  0  0  0  0  0  0  0
   56.2340   21.7780   43.7430 C   0  0  0  0  0  0  0  0  0  0  0  0
   57.5210   21.3880   43.3720 C   0  0  0  0  0  0  0  0  0  0  0  0
   58.6340   21.9740   43.9760 C   0  0  0  0  0  0  0  0  0  0  0  0
   58.4730   22.9620   44.9630 C   0  0  0  0  0  0  0  0  0  0  0  0
   59.6560   23.5830   45.6040 C   0  0  0  0  0  0  0  0  0  0  0  0
   60.7660   22.9850   45.5870 O   0  0  0  0  0  0  0  0  0  0  0  0
   59.5260   24.8370   46.2880 N   0  0  0  0  0  0  0  0  0  0  0  0
   58.7320   25.9610   45.8770 C   0  0  0  0  0  0  0  0  0  0  0  0
   58.1390   26.8360   46.8050 C   0  0  0  0  0  0  0  0  0  0  0  0
   57.3850   27.9260   46.3630 C   0  0  0  0  0  0  0  0  0  0  0  0
   57.2100   28.1570   44.9860 C   0  0  0  0  0  0  0  0  0  0  0  0
   56.4620   29.2420   44.5040 O   0  0  0  0  0  0  0  0  0  0  0  0
   56.9970   30.4200   43.9620 C   0  0  0  0  0  0  0  0  0  0  0  0
   56.8510   30.7730   42.6040 C   0  0  0  0  0  0  0  0  0  0  0  0
   57.4310   31.9640   42.1240 C   0  0  0  0  0  0  0  0  0  0  0  0
   58.1490   32.7710   42.9580 N   0  0  0  0  0  0  0  0  0  0  0  0
   58.3090   32.4320   44.2630 C   0  0  0  0  0  0  0  0  0  0  0  0
   59.0360   33.1730   45.1970 C   0  0  0  0  0  0  0  0  0  0  0  0
   59.0450   32.5750   46.4670 C   0  0  0  0  0  0  0  0  0  0  0  0
   59.7380   33.0880   47.6780 C   0  0  0  0  0  0  0  0  0  0  0  0
   60.9830   33.7400   47.5810 C   0  0  0  0  0  0  0  0  0  0  0  0
   61.6340   34.2030   48.7270 C   0  0  0  0  0  0  0  0  0  0  0  0
   61.0540   34.0260   49.9840 C   0  0  0  0  0  0  0  0  0  0  0  0
   59.8110   33.3930   50.1020 C   0  0  0  0  0  0  0  0  0  0  0  0
   59.0810   33.1500   51.6850 S   0  0  0  0  0  0  0  0  0  0  0  0
   58.5970   34.6780   52.3350 N   0  0  0  0  0  0  0  0  0  0  0  0
   57.8810   32.2520   51.5670 O   0  0  0  0  0  0  0  0  0  0  0  0
   60.0790   32.5050   52.6050 O   0  0  0  0  0  0  0  0  0  0  0  0
   59.1590   32.9240   48.9520 C   0  0  0  0  0  0  0  0  0  0  0  0
   58.1440   31.1350   46.3900 S   0  0  0  0  0  0  0  0  0  0  0  0
   57.7490   31.2730   44.7650 C   0  0  0  0  0  0  0  0  0  0  0  0
   57.8430   27.3140   44.0660 C   0  0  0  0  0  0  0  0  0  0  0  0
   58.6010   26.2260   44.5080 C   0  0  0  0  0  0  0  0  0  0  0  0
   57.1710   23.3500   45.3320 C   0  0  0  0  0  0  0  0  0  0  0  0
   54.5091   22.9602   47.2934 H   0  0  0  0  0  0  0  0  0  0  0  0
   53.0867   22.3486   46.3827 H   0  0  0  0  0  0  0  0  0  0  0  0
   54.6218   21.4159   46.3827 H   0  0  0  0  0  0  0  0  0  0  0  0
   53.9623   22.9459   44.3235 H   0  0  0  0  0  0  0  0  0  0  0  0
   54.5761   24.9145   46.4552 H   0  0  0  0  0  0  0  0  0  0  0  0
   55.4635   25.1851   44.9170 H   0  0  0  0  0  0  0  0  0  0  0  0
   53.6688   25.1081   44.9170 H   0  0  0  0  0  0  0  0  0  0  0  0
   55.3618   21.3116   43.2615 H   0  0  0  0  0  0  0  0  0  0  0  0
   57.6589   20.6159   42.6007 H   0  0  0  0  0  0  0  0  0  0  0  0
   59.6452   21.6604   43.6775 H   0  0  0  0  0  0  0  0  0  0  0  0
   58.2694   26.6614   47.8832 H   0  0  0  0  0  0  0  0  0  0  0  0
   56.9260   28.6069   47.0949 H   0  0  0  0  0  0  0  0  0  0  0  0
   56.2861   30.1205   41.9220 H   0  0  0  0  0  0  0  0  0  0  0  0
   57.3040   32.2457   41.0683 H   0  0  0  0  0  0  0  0  0  0  0  0
   59.5449   34.1198   44.9636 H   0  0  0  0  0  0  0  0  0  0  0  0
   61.4466   33.8858   46.5942 H   0  0  0  0  0  0  0  0  0  0  0  0
   62.6068   34.7087   48.6384 H   0  0  0  0  0  0  0  0  0  0  0  0
   61.5748   34.3847   50.8841 H   0  0  0  0  0  0  0  0  0  0  0  0
   57.6170   34.5670   52.6840 H   0  0  0  0  0  0  0  0  0  0  0  0
   58.5550   35.3490   51.5340 H   0  0  0  0  0  0  0  0  0  0  0  0
   58.1845   32.4224   49.0459 H   0  0  0  0  0  0  0  0  0  0  0  0
   57.7435   27.5087   42.9880 H   0  0  0  0  0  0  0  0  0  0  0  0
   59.0982   25.5732   43.7754 H   0  0  0  0  0  0  0  0  0  0  0  0
   57.0329   24.1225   46.1029 H   0  0  0  0  0  0  0  0  0  0  0  0
  1  2  1  0
  2  3  1  0
  2  4  1  0
  4  5  2  0
  5  6  1  0
  6  7  2  0
  7  8  1  0
  8  9  1  0
  9 10  2  0
  9 11  1  0
 11 12  1  0
 12 13  2  0
 13 14  1  0
 14 15  2  0
 15 16  1  0
 16 17  1  0
 17 18  2  0
 18 19  1  0
 19 20  2  0
 20 21  1  0
 21 22  1  0
 22 23  2  0
 23 24  1  0
 24 25  2  0
 25 26  1  0
 26 27  2  0
 27 28  1  0
 28 29  1  0
 29 30  1  0
 29 31  2  0
 29 32  2  0
 28 33  2  0
 23 34  1  0
 34 35  1  0
 15 36  1  0
 36 37  2  0
  8 38  2  0
 38  4  1  0
 37 12  1  0
 35 17  1  0
 35 21  2  0
 33 24  1  0
  1 39  1  0
  1 40  1  0
  1 41  1  0
  2 42  1  0
  3 43  1  0
  3 44  1  0
  3 45  1  0
  5 46  1  0
  6 47  1  0
  7 48  1  0
 13 49  1  0
 14 50  1  0
 18 51  1  0
 19 52  1  0
 22 53  1  0
 25 54  1  0
 26 55  1  0
 27 56  1  0
 30 57  1  0
 30 58  1  0
 33 59  1  0
 36 60  1  0
 37 61  1  0
 38 62  1  0
M  CHG  1  11  -1
M  END
>  <UniqueID>  (42) 
37

>  <SMILES>  (42) 
CC(C)c1cccc(C(=O)[N-]c2ccc(Oc3ccnc4cc(-c5cccc(S(N)(=O)=O)c5)sc34)cc2)c1

>  <Energy>  (42) 
109.0721719252876

>  <Genealogy>  (42) 
CC(C)c1cccc(C(=O)[N-]c2ccc(Oc3ccnc4cc(-c5cccc(S(N)(=O)=O)c5)sc34)cc2)c1 (protonated)
CC(C)c1cccc(C(=O)[N-]c2ccc(Oc3ccnc4cc(-c5cccc(S(N)(=O)=O)c5)sc34)cc2)c1 (3D coordinates assigned)
CC(C)c1cccc(C(=O)[N-]c2ccc(Oc3ccnc4cc(-c5cccc(S(N)(=O)=O)c5)sc34)cc2)c1 (optimized conformer: 109.0721719252876 kcal/mol)

>  <smiles>  (42) 
CC(C)c1cccc(C(=O)Nc2ccc(Oc3ccnc4cc(-c5cccc(S(N)(=O)=O)c5)sc34)cc2)c1

>  <score_type>  (42) 
oracle

>  <origin>  (42) 
adg

>  <m_score__min__energy>  (42) 
-12

>  <m_primary>  (42) 
energy

$$$$
42:0
     RDKit          3D

 36 37  0  0  0  0  0  0  0  0999 V2000
   61.4110   33.8140   50.0650 C   0  0  0  0  0  0  0  0  0  0  0  0
   60.0950   34.1890   49.6730 O   0  0  0  0  0  0  0  0  0  0  0  0
   59.6010   34.1060   48.3610 C   0  0  0  0  0  0  0  0  0  0  0  0
   60.0510   34.9640   47.3390 C   0  0  0  0  0  0  0  0  0  0  0  0
   59.5400   34.8510   46.0440 C   0  0  0  0  0  0  0  0  0  0  0  0
   58.5890   33.8650   45.7410 C   0  0  0  0  0  0  0  0  0  0  0  0
   57.9990   33.7550   44.3880 C   0  0  0  0  0  0  0  0  0  0  0  0
   58.1300   32.7010   43.5700 C   0  0  0  0  0  0  0  0  0  0  0  0
   57.3220   31.4620   43.6380 C   0  0  0  0  0  0  0  0  0  0  0  0
   56.8460   30.9580   42.5860 O   0  0  0  0  0  0  0  0  0  0  0  0
   57.1730   30.7470   44.8700 N   0  0  0  0  0  0  0  0  0  0  0  0
   57.5770   29.3930   45.1190 C   0  0  0  0  0  0  0  0  0  0  0  0
   58.9150   28.9850   44.9760 C   0  0  0  0  0  0  0  0  0  0  0  0
   59.2800   27.6670   45.2530 C   0  0  0  0  0  0  0  0  0  0  0  0
   58.3230   26.7490   45.6900 C   0  0  0  0  0  0  0  0  0  0  0  0
   56.9850   27.1470   45.8660 C   0  0  0  0  0  0  0  0  0  0  0  0
   55.9680   26.1830   46.3410 C   0  0  0  0  0  0  0  0  0  0  0  0
   56.2970   25.2170   47.0800 O   0  0  0  0  0  0  0  0  0  0  0  0
   54.6340   26.3290   45.9770 O   0  0  0  0  0  0  0  0  0  0  0  0
   56.6260   28.4770   45.5840 C   0  0  0  0  0  0  0  0  0  0  0  0
   58.1160   33.0310   46.7620 C   0  0  0  0  0  0  0  0  0  0  0  0
   58.6230   33.1390   48.0620 C   0  0  0  0  0  0  0  0  0  0  0  0
   58.1400   32.2750   49.0460 O   0  0  0  0  0  0  0  0  0  0  0  0
   61.4753   33.7957   51.1630 H   0  0  0  0  0  0  0  0  0  0  0  0
   61.6412   32.8145   49.6675 H   0  0  0  0  0  0  0  0  0  0  0  0
   62.1335   34.5420   49.6675 H   0  0  0  0  0  0  0  0  0  0  0  0
   60.8100   35.7283   47.5621 H   0  0  0  0  0  0  0  0  0  0  0  0
   59.8849   35.5386   45.2577 H   0  0  0  0  0  0  0  0  0  0  0  0
   57.4053   34.6066   44.0244 H   0  0  0  0  0  0  0  0  0  0  0  0
   58.8990   32.7614   42.7858 H   0  0  0  0  0  0  0  0  0  0  0  0
   59.6761   29.7068   44.6448 H   0  0  0  0  0  0  0  0  0  0  0  0
   60.3257   27.3500   45.1266 H   0  0  0  0  0  0  0  0  0  0  0  0
   58.6166   25.7094   45.8977 H   0  0  0  0  0  0  0  0  0  0  0  0
   55.5852   28.8016   45.7306 H   0  0  0  0  0  0  0  0  0  0  0  0
   57.3391   32.2845   46.5401 H   0  0  0  0  0  0  0  0  0  0  0  0
   58.4980   32.2840   49.9940 H   0  0  0  0  0  0  0  0  0  0  0  0
  1  2  1  0
  2  3  1  0
  3  4  2  0
  4  5  1  0
  5  6  2  0
  6  7  1  0
  7  8  2  3
  8  9  1  0
  9 10  2  0
  9 11  1  0
 11 12  1  0
 12 13  2  0
 13 14  1  0
 14 15  2  0
 15 16  1  0
 16 17  1  0
 17 18  2  0
 17 19  1  0
 16 20  2  0
  6 21  1  0
 21 22  2  0
 22 23  1  0
 22  3  1  0
 20 12  1  0
  1 24  1  0
  1 25  1  0
  1 26  1  0
  4 27  1  0
  5 28  1  0
  7 29  1  0
  8 30  1  0
 13 31  1  0
 14 32  1  0
 15 33  1  0
 20 34  1  0
 21 35  1  0
 23 36  1  0
M  CHG  2  11  -1  19  -1
M  END
>  <UniqueID>  (43) 
38

>  <SMILES>  (43) 
COc1ccc(C=CC(=O)[N-]c2cccc(C(=O)[O-])c2)cc1O

>  <Energy>  (43) 
48.578367282853264

>  <Genealogy>  (43) 
COc1ccc(C=CC(=O)[N-]c2cccc(C(=O)[O-])c2)cc1O (protonated)
COc1ccc(C=CC(=O)[N-]c2cccc(C(=O)[O-])c2)cc1O (3D coordinates assigned)
COc1ccc(C=CC(=O)[N-]c2cccc(C(=O)[O-])c2)cc1O (optimized conformer: 48.578367282853264 kcal/mol)

>  <smiles>  (43) 
COc1ccc(C=CC(=O)Nc2cccc(C(=O)O)c2)cc1O

>  <score_type>  (43) 
oracle

>  <origin>  (43) 
adg

>  <m_score__min__energy>  (43) 
-11.640000000000001

>  <m_primary>  (43) 
energy

$$$$
43:0
     RDKit          3D

 41 43  0  0  0  0  0  0  0  0999 V2000
   56.7350   31.0880   42.5760 O   0  0  0  0  0  0  0  0  0  0  0  0
   56.9590   30.5320   43.9530 S   0  0  0  0  0  0  0  0  0  0  0  0
   55.6480   30.0400   44.4990 O   0  0  0  0  0  0  0  0  0  0  0  0
   58.0710   29.2010   43.8520 N   0  0  0  0  0  0  0  0  0  0  0  0
   58.2110   28.2350   44.7170 C   0  0  0  0  0  0  0  0  0  0  0  0
   59.4770   27.8090   45.1710 C   0  0  0  0  0  0  0  0  0  0  0  0
   59.5610   26.7630   46.0920 C   0  0  0  0  0  0  0  0  0  0  0  0
   58.3990   26.1510   46.5570 C   0  0  0  0  0  0  0  0  0  0  0  0
   57.1620   26.5950   46.0940 C   0  0  0  0  0  0  0  0  0  0  0  0
   57.0920   27.6150   45.1950 N   0  0  0  0  0  0  0  0  0  0  0  0
   57.6230   31.8030   44.9760 C   0  0  0  0  0  0  0  0  0  0  0  0
   57.5270   33.1460   44.5910 C   0  0  0  0  0  0  0  0  0  0  0  0
   58.0470   34.1530   45.4090 C   0  0  0  0  0  0  0  0  0  0  0  0
   58.6810   33.8280   46.6250 C   0  0  0  0  0  0  0  0  0  0  0  0
   59.2320   34.8380   47.4910 N   0  0  0  0  0  0  0  0  0  0  0  0
   59.6850   34.5960   48.8630 C   0  0  0  0  0  0  0  0  0  0  0  0
   61.1330   34.1830   48.8800 C   0  0  0  0  0  0  0  0  0  0  0  0
   61.8440   34.1160   50.0910 C   0  0  0  0  0  0  0  0  0  0  0  0
   63.1870   33.7260   50.1000 C   0  0  0  0  0  0  0  0  0  0  0  0
   63.8270   33.3910   48.9030 C   0  0  0  0  0  0  0  0  0  0  0  0
   65.1290   33.0120   48.9150 F   0  0  0  0  0  0  0  0  0  0  0  0
   63.1240   33.4430   47.6960 C   0  0  0  0  0  0  0  0  0  0  0  0
   61.7820   33.8330   47.6830 C   0  0  0  0  0  0  0  0  0  0  0  0
   58.7720   32.4790   47.0020 C   0  0  0  0  0  0  0  0  0  0  0  0
   58.2510   31.4740   46.1830 C   0  0  0  0  0  0  0  0  0  0  0  0
   60.3911   28.2973   44.8021 H   0  0  0  0  0  0  0  0  0  0  0  0
   60.5437   26.4224   46.4501 H   0  0  0  0  0  0  0  0  0  0  0  0
   58.4574   25.3259   47.2821 H   0  0  0  0  0  0  0  0  0  0  0  0
   56.2386   26.1196   46.4562 H   0  0  0  0  0  0  0  0  0  0  0  0
   56.1490   27.9230   44.8640 H   0  0  0  0  0  0  0  0  0  0  0  0
   57.0401   33.4096   43.6405 H   0  0  0  0  0  0  0  0  0  0  0  0
   57.9609   35.2057   45.1018 H   0  0  0  0  0  0  0  0  0  0  0  0
   59.2780   35.8220   47.1430 H   0  0  0  0  0  0  0  0  0  0  0  0
   59.5655   35.5181   49.4507 H   0  0  0  0  0  0  0  0  0  0  0  0
   59.0809   33.7858   49.2973 H   0  0  0  0  0  0  0  0  0  0  0  0
   61.3417   34.3715   51.0357 H   0  0  0  0  0  0  0  0  0  0  0  0
   63.7403   33.6828   51.0497 H   0  0  0  0  0  0  0  0  0  0  0  0
   63.6277   33.1766   46.7551 H   0  0  0  0  0  0  0  0  0  0  0  0
   61.2309   33.8663   46.7316 H   0  0  0  0  0  0  0  0  0  0  0  0
   59.2582   32.2104   47.9515 H   0  0  0  0  0  0  0  0  0  0  0  0
   58.3346   30.4204   46.4878 H   0  0  0  0  0  0  0  0  0  0  0  0
  1  2  2  0
  2  3  2  0
  2  4  1  0
  4  5  2  3
  5  6  1  0
  6  7  2  0
  7  8  1  0
  8  9  2  0
  9 10  1  0
  2 11  1  0
 11 12  2  0
 12 13  1  0
 13 14  2  0
 14 15  1  0
 15 16  1  0
 16 17  1  0
 17 18  2  0
 18 19  1  0
 19 20  2  0
 20 21  1  0
 20 22  1  0
 22 23  2  0
 14 24  1  0
 24 25  2  0
 10  5  1  0
 25 11  1  0
 23 17  1  0
  6 26  1  0
  7 27  1  0
  8 28  1  0
  9 29  1  0
 10 30  1  0
 12 31  1  0
 13 32  1  0
 15 33  1  0
 16 34  1  0
 16 35  1  0
 18 36  1  0
 19 37  1  0
 22 38  1  0
 23 39  1  0
 24 40  1  0
 25 41  1  0
M  END
>  <UniqueID>  (44) 
39

>  <SMILES>  (44) 
O=S(=O)(N=c1cccc[nH]1)c1ccc(NCc2ccc(F)cc2)cc1

>  <Energy>  (44) 
48.561522744163184

>  <Genealogy>  (44) 
O=S(=O)(N=c1cccc[nH]1)c1ccc(NCc2ccc(F)cc2)cc1 (3D coordinates assigned)
O=S(=O)(N=c1cccc[nH]1)c1ccc(NCc2ccc(F)cc2)cc1 (optimized conformer: 48.561522744163184 kcal/mol)

>  <smiles>  (44) 
O=S(=O)(N=c1cccc[nH]1)c1ccc(NCc2ccc(F)cc2)cc1

>  <score_type>  (44) 
oracle

>  <origin>  (44) 
adg

>  <m_score__min__energy>  (44) 
-8.4800000000000004

>  <m_primary>  (44) 
energy

$$$$
44:0
     RDKit          3D

 50 53  0  0  1  0  0  0  0  0999 V2000
   55.0350   23.8700   45.4760 C   0  0  0  0  0  0  0  0  0  0  0  0
   56.3000   24.6040   45.3950 N   0  0  0  0  0  0  0  0  0  0  0  0
   57.4750   23.8460   45.0160 C   0  0  0  0  0  0  0  0  0  0  0  0
   56.2750   25.9680   45.6880 C   0  0  0  0  0  0  0  0  0  0  0  0
   55.1630   26.4870   46.0030 O   0  0  0  0  0  0  0  0  0  0  0  0
   57.4200   26.8630   45.6630 C   0  0  0  0  0  0  0  0  0  0  0  0
   57.9540   27.3910   44.5110 C   0  0  0  0  0  0  0  0  0  0  0  0
   59.0410   28.2360   44.5430 C   0  0  0  0  0  0  0  0  0  0  0  0
   59.6000   28.5530   45.7660 C   0  0  0  0  0  0  0  0  0  0  0  0
   59.0930   28.0430   46.9450 C   0  0  0  0  0  0  0  0  0  0  0  0
   59.6390   28.3470   48.2230 N   0  0  0  0  0  0  0  0  0  0  0  0
   59.4070   29.4900   48.7340 C   0  0  0  0  0  0  0  0  0  0  0  0
   58.8140   29.5190   49.9450 N   0  0  0  0  0  0  0  0  0  0  0  0
   58.5150   30.6600   50.5940 C   0  0  0  0  0  0  0  0  0  0  0  0
   58.8400   31.8490   49.9690 C   0  0  0  0  0  0  0  0  0  0  0  0
   59.4520   31.8540   48.7220 C   0  0  0  0  0  0  0  0  0  0  0  0
   59.7190   32.9770   48.2060 N   0  0  0  0  0  0  0  0  0  0  0  0
   59.1780   33.3360   46.9470 C   0  0  0  0  0  0  0  0  0  0  0  0
   59.2980   34.5850   46.3770 C   0  0  0  0  0  0  0  0  0  0  0  0
   58.7580   34.8730   45.1470 C   0  0  0  0  0  0  0  0  0  0  0  0
   58.0860   33.8600   44.4950 C   0  0  0  0  0  0  0  0  0  0  0  0
   57.9280   32.6000   44.9980 C   0  0  0  0  0  0  0  0  0  0  0  0
   57.2180   31.5510   44.2860 C   0  0  0  0  0  0  0  0  0  0  0  0
   57.3890   31.2330   42.9550 C   0  0  0  0  0  0  0  0  0  0  0  0
   56.5340   30.2060   42.7210 N   0  0  0  0  0  0  0  0  0  0  0  0
   55.9010   29.9520   43.8830 C   0  0  0  0  0  0  0  0  0  0  0  0
   56.3060   30.7550   44.8270 O   0  0  0  0  0  0  0  0  0  0  0  0
   58.4870   32.3450   46.2430 C   0  0  0  0  0  0  0  0  0  0  0  0
   59.7080   30.6680   48.1580 N   0  0  0  0  0  0  0  0  0  0  0  0
   58.0000   27.1980   46.8610 C   0  0  0  0  0  0  0  0  0  0  0  0
   54.7679   23.7150   46.5318 H   0  0  0  0  0  0  0  0  0  0  0  0
   54.2428   24.4487   44.9785 H   0  0  0  0  0  0  0  0  0  0  0  0
   55.1443   22.8950   44.9785 H   0  0  0  0  0  0  0  0  0  0  0  0
   58.0004   23.5071   45.9211 H   0  0  0  0  0  0  0  0  0  0  0  0
   57.1715   22.9730   44.4196 H   0  0  0  0  0  0  0  0  0  0  0  0
   58.1453   24.4824   44.4196 H   0  0  0  0  0  0  0  0  0  0  0  0
   57.5026   27.1325   43.5418 H   0  0  0  0  0  0  0  0  0  0  0  0
   59.4562   28.6506   43.6126 H   0  0  0  0  0  0  0  0  0  0  0  0
   60.4686   29.2269   45.8015 H   0  0  0  0  0  0  0  0  0  0  0  0
   58.5620   28.6260   50.4310 H   0  0  0  0  0  0  0  0  0  0  0  0
   58.0315   30.6464   51.5819 H   0  0  0  0  0  0  0  0  0  0  0  0
   58.6111   32.8036   50.4654 H   0  0  0  0  0  0  0  0  0  0  0  0
   59.8405   35.3721   46.9212 H   0  0  0  0  0  0  0  0  0  0  0  0
   58.8577   35.8728   44.6994 H   0  0  0  0  0  0  0  0  0  0  0  0
   57.6505   34.0805   43.5092 H   0  0  0  0  0  0  0  0  0  0  0  0
   58.0723   31.7099   42.2369 H   0  0  0  0  0  0  0  0  0  0  0  0
   55.1408   29.1685   44.0178 H   0  0  0  0  0  0  0  0  0  0  0  0
   58.3842   31.3428   46.6847 H   0  0  0  0  0  0  0  0  0  0  0  0
   60.1710   30.6630   47.2230 H   0  0  0  0  0  0  0  0  0  0  0  0
   57.5810   26.7797   47.7881 H   0  0  0  0  0  0  0  0  0  0  0  0
  1  2  1  0
  2  3  1  0
  2  4  1  0
  4  5  2  0
  4  6  1  0
  6  7  2  0
  7  8  1  0
  8  9  2  0
  9 10  1  0
 10 11  1  0
 11 12  2  0
 12 13  1  0
 13 14  1  0
 14 15  2  0
 15 16  1  0
 16 17  2  0
 17 18  1  0
 18 19  2  0
 19 20  1  0
 20 21  2  0
 21 22  1  0
 22 23  1  0
 23 24  2  0
 24 25  1  0
 25 26  2  0
 26 27  1  0
 22 28  2  0
 16 29  1  0
 10 30  2  0
 30  6  1  0
 29 12  1  0
 28 18  1  0
 27 23  1  0
  1 31  1  0
  1 32  1  0
  1 33  1  0
  3 34  1  0
  3 35  1  0
  3 36  1  0
  7 37  1  0
  8 38  1  0
  9 39  1  0
 13 40  1  0
 14 41  1  0
 15 42  1  0
 19 43  1  0
 20 44  1  0
 21 45  1  0
 24 46  1  0
 26 47  1  0
 28 48  1  0
 29 49  1  0
 30 50  1  0
M  END
>  <smiles>  (45) 
CN(C)C(=O)c1cccc(N=c2[nH]ccc(=Nc3cccc(-c4cnco4)c3)[nH]2)c1

>  <score_type>  (45) 
oracle

>  <origin>  (45) 
adg

>  <m_score__min__energy>  (45) 
-9.2200000000000006

>  <m_primary>  (45) 
energy

$$$$
45:0
     RDKit          3D

 38 39  0  0  0  0  0  0  0  0999 V2000
   56.6470   21.1950   42.8920 C   0  0  0  0  0  0  0  0  0  0  0  0
   55.6960   22.2340   43.0990 O   0  0  0  0  0  0  0  0  0  0  0  0
   55.9080   23.3560   43.9170 C   0  0  0  0  0  0  0  0  0  0  0  0
   57.1310   24.0530   43.9270 C   0  0  0  0  0  0  0  0  0  0  0  0
   57.3050   25.1620   44.7570 C   0  0  0  0  0  0  0  0  0  0  0  0
   56.2660   25.5870   45.5950 C   0  0  0  0  0  0  0  0  0  0  0  0
   56.4040   26.7460   46.4280 N   0  0  0  0  0  0  0  0  0  0  0  0
   57.6030   27.5020   46.6460 C   0  0  0  0  0  0  0  0  0  0  0  0
   58.3590   27.1810   47.5990 O   0  0  0  0  0  0  0  0  0  0  0  0
   58.0200   28.6140   45.7270 C   0  0  0  0  0  0  0  0  0  0  0  0
   57.4120   28.4250   44.4080 N   0  0  0  0  0  0  0  0  0  0  0  0
   56.3950   29.7820   44.0260 S   0  0  0  0  0  0  0  0  0  0  0  0
   56.0040   29.7120   42.5760 O   0  0  0  0  0  0  0  0  0  0  0  0
   55.1440   29.7590   44.8610 O   0  0  0  0  0  0  0  0  0  0  0  0
   57.2670   31.2780   44.3080 C   0  0  0  0  0  0  0  0  0  0  0  0
   57.6560   31.7750   45.5430 C   0  0  0  0  0  0  0  0  0  0  0  0
   58.3550   32.9840   45.4480 C   0  0  0  0  0  0  0  0  0  0  0  0
   58.5090   33.4380   44.1440 C   0  0  0  0  0  0  0  0  0  0  0  0
   57.7880   32.3280   43.1060 S   0  0  0  0  0  0  0  0  0  0  0  0
   55.0390   24.9160   45.5650 C   0  0  0  0  0  0  0  0  0  0  0  0
   54.8560   23.7900   44.7390 C   0  0  0  0  0  0  0  0  0  0  0  0
   53.6470   23.0790   44.7060 O   0  0  0  0  0  0  0  0  0  0  0  0
   52.3580   23.6740   44.8110 C   0  0  0  0  0  0  0  0  0  0  0  0
   56.9937   20.8162   43.8648 H   0  0  0  0  0  0  0  0  0  0  0  0
   56.1785   20.3766   42.3256 H   0  0  0  0  0  0  0  0  0  0  0  0
   57.5035   21.5894   42.3256 H   0  0  0  0  0  0  0  0  0  0  0  0
   57.9544   23.7219   43.2770 H   0  0  0  0  0  0  0  0  0  0  0  0
   58.2620   25.7044   44.7529 H   0  0  0  0  0  0  0  0  0  0  0  0
   57.6907   29.5763   46.1459 H   0  0  0  0  0  0  0  0  0  0  0  0
   59.1153   28.6082   45.6251 H   0  0  0  0  0  0  0  0  0  0  0  0
   56.7950   27.5810   44.4510 H   0  0  0  0  0  0  0  0  0  0  0  0
   57.4382   31.2721   46.4967 H   0  0  0  0  0  0  0  0  0  0  0  0
   58.7456   33.5238   46.3233 H   0  0  0  0  0  0  0  0  0  0  0  0
   59.0164   34.3660   43.8416 H   0  0  0  0  0  0  0  0  0  0  0  0
   54.2086   25.2714   46.1929 H   0  0  0  0  0  0  0  0  0  0  0  0
   52.0955   23.7952   45.8723 H   0  0  0  0  0  0  0  0  0  0  0  0
   52.3677   24.6587   44.3209 H   0  0  0  0  0  0  0  0  0  0  0  0
   51.6149   23.0278   44.3209 H   0  0  0  0  0  0  0  0  0  0  0  0
  1  2  1  0
  2  3  1  0
  3  4  2  0
  4  5  1  0
  5  6  2  0
  6  7  1  0
  7  8  1  0
  8  9  2  0
  8 10  1  0
 10 11  1  0
 11 12  1  0
 12 13  2  0
 12 14  2  0
 12 15  1  0
 15 16  2  0
 16 17  1  0
 17 18  2  0
 18 19  1  0
  6 20  1  0
 20 21  2  0
 21 22  1  0
 22 23  1  0
 21  3  1  0
 19 15  1  0
  1 24  1  0
  1 25  1  0
  1 26  1  0
  4 27  1  0
  5 28  1  0
 10 29  1  0
 10 30  1  0
 11 31  1  0
 16 32  1  0
 17 33  1  0
 18 34  1  0
 20 35  1  0
 23 36  1  0
 23 37  1  0
 23 38  1  0
M  CHG  1   7  -1
M  END
>  <UniqueID>  (46) 
40

>  <SMILES>  (46) 
COc1ccc([N-]C(=O)CNS(=O)(=O)c2cccs2)cc1OC

>  <Energy>  (46) 
61.16077009498296

>  <Genealogy>  (46) 
COc1ccc([N-]C(=O)CNS(=O)(=O)c2cccs2)cc1OC (protonated)
COc1ccc([N-]C(=O)CNS(=O)(=O)c2cccs2)cc1OC (3D coordinates assigned)
COc1ccc([N-]C(=O)CNS(=O)(=O)c2cccs2)cc1OC (optimized conformer: 61.16077009498296 kcal/mol)

>  <smiles>  (46) 
COc1ccc(NC(=O)CNS(=O)(=O)c2cccs2)cc1OC

>  <score_type>  (46) 
oracle

>  <origin>  (46) 
adg

>  <m_score__min__energy>  (46) 
-9.6500000000000004

>  <m_primary>  (46) 
energy

$$$$
46:0
     RDKit          3D

 32 34  0  0  0  0  0  0  0  0999 V2000
   59.7900   29.3340   44.4640 O   0  0  0  0  0  0  0  0  0  0  0  0
   58.6060   28.9780   44.7070 C   0  0  0  0  0  0  0  0  0  0  0  0
   58.3570   27.7150   45.2460 C   0  0  0  0  0  0  0  0  0  0  0  0
   57.0310   27.3390   45.5130 C   0  0  0  0  0  0  0  0  0  0  0  0
   56.6930   26.0180   46.0770 C   0  0  0  0  0  0  0  0  0  0  0  0
   57.5560   25.1120   46.6710 C   0  0  0  0  0  0  0  0  0  0  0  0
   56.7750   24.0360   47.0330 C   0  0  0  0  0  0  0  0  0  0  0  0
   55.4890   24.3470   46.6430 C   0  0  0  0  0  0  0  0  0  0  0  0
   55.4730   25.5320   46.0780 O   0  0  0  0  0  0  0  0  0  0  0  0
   56.0390   28.1890   45.2570 O   0  0  0  0  0  0  0  0  0  0  0  0
   56.2370   29.3990   44.7430 C   0  0  0  0  0  0  0  0  0  0  0  0
   55.1450   30.2270   44.5120 O   0  0  0  0  0  0  0  0  0  0  0  0
   57.5340   29.8360   44.4380 C   0  0  0  0  0  0  0  0  0  0  0  0
   57.8090   31.4700   43.7290 S   0  0  0  0  0  0  0  0  0  0  0  0
   57.0180   32.3830   45.1010 C   0  0  0  0  0  0  0  0  0  0  0  0
   58.0100   33.2620   45.8130 C   0  0  0  0  0  0  0  0  0  0  0  0
   58.2590   33.0790   47.1820 C   0  0  0  0  0  0  0  0  0  0  0  0
   59.1560   33.9170   47.8530 C   0  0  0  0  0  0  0  0  0  0  0  0
   59.8070   34.9430   47.1620 C   0  0  0  0  0  0  0  0  0  0  0  0
   59.5610   35.1340   45.7990 C   0  0  0  0  0  0  0  0  0  0  0  0
   58.6660   34.2970   45.1250 C   0  0  0  0  0  0  0  0  0  0  0  0
   59.1868   27.0248   45.4583 H   0  0  0  0  0  0  0  0  0  0  0  0
   58.6394   25.2274   46.8223 H   0  0  0  0  0  0  0  0  0  0  0  0
   57.1096   23.1148   47.5323 H   0  0  0  0  0  0  0  0  0  0  0  0
   54.6103   23.7004   46.7840 H   0  0  0  0  0  0  0  0  0  0  0  0
   56.2095   33.0093   44.6961 H   0  0  0  0  0  0  0  0  0  0  0  0
   56.6197   31.6531   45.8211 H   0  0  0  0  0  0  0  0  0  0  0  0
   57.7470   32.2738   47.7293 H   0  0  0  0  0  0  0  0  0  0  0  0
   59.3492   33.7684   48.9256 H   0  0  0  0  0  0  0  0  0  0  0  0
   60.5130   35.6003   47.6907 H   0  0  0  0  0  0  0  0  0  0  0  0
   60.0718   35.9431   45.2564 H   0  0  0  0  0  0  0  0  0  0  0  0
   58.4748   34.4493   44.0525 H   0  0  0  0  0  0  0  0  0  0  0  0
  1  2  2  0
  2  3  1  0
  3  4  2  0
  4  5  1  0
  5  6  2  0
  6  7  1  0
  7  8  2  0
  8  9  1  0
  4 10  1  0
 10 11  1  0
 11 12  1  0
 11 13  2  0
 13 14  1  0
 14 15  1  0
 15 16  1  0
 16 17  2  0
 17 18  1  0
 18 19  2  0
 19 20  1  0
 20 21  2  0
 13  2  1  0
 21 16  1  0
  9  5  1  0
  3 22  1  0
  6 23  1  0
  7 24  1  0
  8 25  1  0
 15 26  1  0
 15 27  1  0
 17 28  1  0
 18 29  1  0
 19 30  1  0
 20 31  1  0
 21 32  1  0
M  CHG  1  12  -1
M  END
>  <UniqueID>  (47) 
41

>  <SMILES>  (47) 
O=c1cc(-c2ccco2)oc([O-])c1SCc1ccccc1

>  <Energy>  (47) 
58.58103557670987

>  <Genealogy>  (47) 
O=c1cc(-c2ccco2)oc([O-])c1SCc1ccccc1 (protonated)
O=c1cc(-c2ccco2)oc([O-])c1SCc1ccccc1 (3D coordinates assigned)
O=c1cc(-c2ccco2)oc([O-])c1SCc1ccccc1 (optimized conformer: 58.58103557670987 kcal/mol)

>  <smiles>  (47) 
O=c1cc(-c2ccco2)oc(O)c1SCc1ccccc1

>  <score_type>  (47) 
oracle

>  <origin>  (47) 
adg

>  <m_score__min__energy>  (47) 
-10.619999999999999

>  <m_primary>  (47) 
energy

$$$$
47:0
     RDKit          3D

 51 53  0  0  0  0  0  0  0  0999 V2000
   59.2530   32.8620   50.9300 C   0  0  0  0  0  0  0  0  0  0  0  0
   59.3460   31.5760   50.1160 C   0  0  0  0  0  0  0  0  0  0  0  0
   59.2420   31.8590   48.6800 N   0  0  0  0  0  0  0  0  0  0  0  0
   58.1890   32.7770   48.2140 C   0  0  0  0  0  0  0  0  0  0  0  0
   58.1590   32.8600   46.7160 C   0  0  0  0  0  0  0  0  0  0  0  0
   58.1240   33.9900   46.1580 O   0  0  0  0  0  0  0  0  0  0  0  0
   58.1430   31.6590   45.9280 N   0  0  0  0  0  0  0  0  0  0  0  0
   57.7780   31.6380   44.5370 C   0  0  0  0  0  0  0  0  0  0  0  0
   58.1550   32.6930   43.6850 C   0  0  0  0  0  0  0  0  0  0  0  0
   57.8180   32.6680   42.3310 C   0  0  0  0  0  0  0  0  0  0  0  0
   57.1080   31.5870   41.8030 C   0  0  0  0  0  0  0  0  0  0  0  0
   56.7120   30.5410   42.6370 C   0  0  0  0  0  0  0  0  0  0  0  0
   57.0270   30.5660   44.0060 C   0  0  0  0  0  0  0  0  0  0  0  0
   56.5990   29.4360   44.8540 C   0  0  0  0  0  0  0  0  0  0  0  0
   55.3790   29.3430   45.1580 O   0  0  0  0  0  0  0  0  0  0  0  0
   57.5370   28.4350   45.3030 N   0  0  0  0  0  0  0  0  0  0  0  0
   57.0040   27.2010   45.9080 C   0  0  0  0  0  0  0  0  0  0  0  0
   58.0940   26.2740   46.4710 C   0  0  0  0  0  0  0  0  0  0  0  0
   59.2770   26.3210   45.7030 O   0  0  0  0  0  0  0  0  0  0  0  0
   59.8210   27.6170   45.7930 C   0  0  0  0  0  0  0  0  0  0  0  0
   58.9670   28.5880   44.9910 C   0  0  0  0  0  0  0  0  0  0  0  0
   60.2890   31.3910   47.7990 C   0  0  0  0  0  0  0  0  0  0  0  0
   60.1870   30.2480   47.2780 O   0  0  0  0  0  0  0  0  0  0  0  0
   61.4770   32.2070   47.4660 C   0  0  0  0  0  0  0  0  0  0  0  0
   62.7960   31.7870   47.6050 C   0  0  0  0  0  0  0  0  0  0  0  0
   63.7340   32.7130   47.1320 C   0  0  0  0  0  0  0  0  0  0  0  0
   63.1650   33.8710   46.6140 C   0  0  0  0  0  0  0  0  0  0  0  0
   61.4960   33.7260   46.7340 S   0  0  0  0  0  0  0  0  0  0  0  0
   59.2706   32.6190   52.0027 H   0  0  0  0  0  0  0  0  0  0  0  0
   60.1065   33.5121   50.6873 H   0  0  0  0  0  0  0  0  0  0  0  0
   58.3149   33.3826   50.6873 H   0  0  0  0  0  0  0  0  0  0  0  0
   60.3118   31.0901   50.3187 H   0  0  0  0  0  0  0  0  0  0  0  0
   58.5161   30.9148   50.4058 H   0  0  0  0  0  0  0  0  0  0  0  0
   57.2141   32.4146   48.5720 H   0  0  0  0  0  0  0  0  0  0  0  0
   58.4027   33.7799   48.6122 H   0  0  0  0  0  0  0  0  0  0  0  0
   58.4680   30.7720   46.3760 H   0  0  0  0  0  0  0  0  0  0  0  0
   58.7205   33.5451   44.0902 H   0  0  0  0  0  0  0  0  0  0  0  0
   58.1124   33.5023   41.6773 H   0  0  0  0  0  0  0  0  0  0  0  0
   56.8615   31.5605   40.7313 H   0  0  0  0  0  0  0  0  0  0  0  0
   56.1501   29.6921   42.2204 H   0  0  0  0  0  0  0  0  0  0  0  0
   56.3262   27.4799   46.7283 H   0  0  0  0  0  0  0  0  0  0  0  0
   56.4876   26.6465   45.1107 H   0  0  0  0  0  0  0  0  0  0  0  0
   58.3265   26.5838   47.5006 H   0  0  0  0  0  0  0  0  0  0  0  0
   57.7112   25.2432   46.4422 H   0  0  0  0  0  0  0  0  0  0  0  0
   59.8419   27.9325   46.8466 H   0  0  0  0  0  0  0  0  0  0  0  0
   60.8440   27.6117   45.3888 H   0  0  0  0  0  0  0  0  0  0  0  0
   59.2765   29.6164   45.2289 H   0  0  0  0  0  0  0  0  0  0  0  0
   59.1115   28.3722   43.9221 H   0  0  0  0  0  0  0  0  0  0  0  0
   63.0758   30.8185   48.0451 H   0  0  0  0  0  0  0  0  0  0  0  0
   64.8198   32.5403   47.1670 H   0  0  0  0  0  0  0  0  0  0  0  0
   63.7115   34.7306   46.1988 H   0  0  0  0  0  0  0  0  0  0  0  0
  1  2  1  0
  2  3  1  0
  3  4  1  0
  4  5  1  0
  5  6  2  0
  5  7  1  0
  7  8  1  0
  8  9  2  0
  9 10  1  0
 10 11  2  0
 11 12  1  0
 12 13  2  0
 13 14  1  0
 14 15  2  0
 14 16  1  0
 16 17  1  0
 17 18  1  0
 18 19  1  0
 19 20  1  0
 20 21  1  0
  3 22  1  0
 22 23  2  0
 22 24  1  0
 24 25  2  0
 25 26  1  0
 26 27  2  0
 27 28  1  0
 13  8  1  0
 21 16  1  0
 28 24  1  0
  1 29  1  0
  1 30  1  0
  1 31  1  0
  2 32  1  0
  2 33  1  0
  4 34  1  0
  4 35  1  0
  7 36  1  0
  9 37  1  0
 10 38  1  0
 11 39  1  0
 12 40  1  0
 17 41  1  0
 17 42  1  0
 18 43  1  0
 18 44  1  0
 20 45  1  0
 20 46  1  0
 21 47  1  0
 21 48  1  0
 25 49  1  0
 26 50  1  0
 27 51  1  0
M  END
>  <UniqueID>  (48) 
42

>  <SMILES>  (48) 
CCN(CC(=O)Nc1ccccc1C(=O)N1CCOCC1)C(=O)c1cccs1

>  <Energy>  (48) 
87.9190297708444

>  <Genealogy>  (48) 
CCN(CC(=O)Nc1ccccc1C(=O)N1CCOCC1)C(=O)c1cccs1 (3D coordinates assigned)
CCN(CC(=O)Nc1ccccc1C(=O)N1CCOCC1)C(=O)c1cccs1 (nonaromatic ring conformer: 87.9190297708444 kcal/mol)

>  <smiles>  (48) 
CCN(CC(=O)Nc1ccccc1C(=O)N1CCOCC1)C(=O)c1cccs1

>  <score_type>  (48) 
oracle

>  <origin>  (48) 
adg

>  <m_score__min__energy>  (48) 
-8.9399999999999995

>  <m_primary>  (48) 
energy

$$$$
48:0
     RDKit          3D

 56 59  0  0  0  0  0  0  0  0999 V2000
   65.5340   28.0350   52.0060 C   0  0  0  0  0  0  0  0  0  0  0  0
   65.5460   29.3440   52.5280 O   0  0  0  0  0  0  0  0  0  0  0  0
   64.2440   29.8900   52.4780 C   0  0  0  0  0  0  0  0  0  0  0  0
   64.1380   30.8020   51.2760 C   0  0  0  0  0  0  0  0  0  0  0  0
   65.3010   31.4650   50.8710 C   0  0  0  0  0  0  0  0  0  0  0  0
   65.2620   32.3590   49.8110 C   0  0  0  0  0  0  0  0  0  0  0  0
   66.3050   33.0070   49.5150 O   0  0  0  0  0  0  0  0  0  0  0  0
   64.0790   32.5160   49.0780 C   0  0  0  0  0  0  0  0  0  0  0  0
   64.0300   33.4090   47.9920 C   0  0  0  0  0  0  0  0  0  0  0  0
   62.8710   33.5280   47.2320 C   0  0  0  0  0  0  0  0  0  0  0  0
   61.7790   32.7070   47.4910 C   0  0  0  0  0  0  0  0  0  0  0  0
   61.8040   31.7920   48.5550 C   0  0  0  0  0  0  0  0  0  0  0  0
   60.7230   30.7880   48.5750 C   0  0  0  0  0  0  0  0  0  0  0  0
   59.6880   31.0070   49.2610 O   0  0  0  0  0  0  0  0  0  0  0  0
   60.9050   29.5370   47.8920 N   0  0  0  0  0  0  0  0  0  0  0  0
   59.9730   28.8820   47.0220 C   0  0  0  0  0  0  0  0  0  0  0  0
   59.5590   27.5830   47.3510 C   0  0  0  0  0  0  0  0  0  0  0  0
   58.6830   26.8890   46.5140 C   0  0  0  0  0  0  0  0  0  0  0  0
   58.2060   27.4880   45.3490 C   0  0  0  0  0  0  0  0  0  0  0  0
   58.6050   28.7920   45.0000 C   0  0  0  0  0  0  0  0  0  0  0  0
   58.0530   29.4030   43.8180 N   0  0  0  0  0  0  0  0  0  0  0  0
   57.0120   30.7950   43.8520 S   0  0  0  0  0  0  0  0  0  0  0  0
   55.7220   30.4280   44.5290 O   0  0  0  0  0  0  0  0  0  0  0  0
   56.7220   31.2220   42.4400 O   0  0  0  0  0  0  0  0  0  0  0  0
   57.7680   32.1090   44.7530 C   0  0  0  0  0  0  0  0  0  0  0  0
   58.3480   33.1880   44.0690 C   0  0  0  0  0  0  0  0  0  0  0  0
   58.9000   34.2580   44.7790 C   0  0  0  0  0  0  0  0  0  0  0  0
   58.8770   34.2540   46.1770 C   0  0  0  0  0  0  0  0  0  0  0  0
   58.3100   33.1780   46.8660 C   0  0  0  0  0  0  0  0  0  0  0  0
   58.2870   33.1790   48.2220 F   0  0  0  0  0  0  0  0  0  0  0  0
   57.7620   32.1010   46.1560 C   0  0  0  0  0  0  0  0  0  0  0  0
   59.5180   29.4720   45.8270 C   0  0  0  0  0  0  0  0  0  0  0  0
   62.9290   31.7550   49.4380 C   0  0  0  0  0  0  0  0  0  0  0  0
   62.9390   31.0490   50.6350 N   0  0  0  0  0  0  0  0  0  0  0  0
   61.6840   30.6760   51.3180 C   0  0  0  0  0  0  0  0  0  0  0  0
   65.5274   27.3103   52.8335 H   0  0  0  0  0  0  0  0  0  0  0  0
   64.6345   27.8947   51.3885 H   0  0  0  0  0  0  0  0  0  0  0  0
   66.4307   27.8783   51.3885 H   0  0  0  0  0  0  0  0  0  0  0  0
   63.5068   29.0782   52.3911 H   0  0  0  0  0  0  0  0  0  0  0  0
   64.0453   30.4615   53.3966 H   0  0  0  0  0  0  0  0  0  0  0  0
   66.2498   31.2769   51.3948 H   0  0  0  0  0  0  0  0  0  0  0  0
   64.9127   34.0162   47.7426 H   0  0  0  0  0  0  0  0  0  0  0  0
   62.8182   34.2731   46.4245 H   0  0  0  0  0  0  0  0  0  0  0  0
   60.8847   32.7755   46.8542 H   0  0  0  0  0  0  0  0  0  0  0  0
   59.9262   27.1086   48.2730 H   0  0  0  0  0  0  0  0  0  0  0  0
   58.3686   25.8675   46.7744 H   0  0  0  0  0  0  0  0  0  0  0  0
   57.5121   26.9371   44.6971 H   0  0  0  0  0  0  0  0  0  0  0  0
   58.1670   28.9230   42.8950 H   0  0  0  0  0  0  0  0  0  0  0  0
   58.3684   33.1919   42.9692 H   0  0  0  0  0  0  0  0  0  0  0  0
   59.3522   35.1025   44.2383 H   0  0  0  0  0  0  0  0  0  0  0  0
   59.3058   35.0990   46.7356 H   0  0  0  0  0  0  0  0  0  0  0  0
   57.3270   31.2490   46.6990 H   0  0  0  0  0  0  0  0  0  0  0  0
   59.8785   30.4704   45.5384 H   0  0  0  0  0  0  0  0  0  0  0  0
   61.8322   30.7200   52.4071 H   0  0  0  0  0  0  0  0  0  0  0  0
   60.8866   31.3760   51.0278 H   0  0  0  0  0  0  0  0  0  0  0  0
   61.3984   29.6541   51.0278 H   0  0  0  0  0  0  0  0  0  0  0  0
  1  2  1  0
  2  3  1  0
  3  4  1  0
  4  5  2  0
  5  6  1  0
  6  7  2  0
  6  8  1  0
  8  9  2  0
  9 10  1  0
 10 11  2  0
 11 12  1  0
 12 13  1  0
 13 14  2  0
 13 15  1  0
 15 16  1  0
 16 17  2  0
 17 18  1  0
 18 19  2  0
 19 20  1  0
 20 21  1  0
 21 22  1  0
 22 23  2  0
 22 24  2  0
 22 25  1  0
 25 26  2  0
 26 27  1  0
 27 28  2  0
 28 29  1  0
 29 30  1  0
 29 31  2  0
 20 32  2  0
 12 33  2  0
 33 34  1  0
 34 35  1  0
 34  4  1  0
 33  8  1  0
 32 16  1  0
 31 25  1  0
  1 36  1  0
  1 37  1  0
  1 38  1  0
  3 39  1  0
  3 40  1  0
  5 41  1  0
  9 42  1  0
 10 43  1  0
 11 44  1  0
 17 45  1  0
 18 46  1  0
 19 47  1  0
 21 48  1  0
 26 49  1  0
 27 50  1  0
 28 51  1  0
 31 52  1  0
 32 53  1  0
 35 54  1  0
 35 55  1  0
 35 56  1  0
M  CHG  1  15  -1
M  END
>  <UniqueID>  (49) 
43

>  <SMILES>  (49) 
COCc1cc(=O)c2cccc(C(=O)[N-]c3cccc(NS(=O)(=O)c4cccc(F)c4)c3)c2n1C

>  <Energy>  (49) 
92.6299408829387

>  <Genealogy>  (49) 
COCc1cc(=O)c2cccc(C(=O)[N-]c3cccc(NS(=O)(=O)c4cccc(F)c4)c3)c2n1C (protonated)
COCc1cc(=O)c2cccc(C(=O)[N-]c3cccc(NS(=O)(=O)c4cccc(F)c4)c3)c2n1C (3D coordinates assigned)
COCc1cc(=O)c2cccc(C(=O)[N-]c3cccc(NS(=O)(=O)c4cccc(F)c4)c3)c2n1C (optimized conformer: 92.6299408829387 kcal/mol)

>  <smiles>  (49) 
COCc1cc(=O)c2cccc(C(=O)Nc3cccc(NS(=O)(=O)c4cccc(F)c4)c3)c2n1C

>  <score_type>  (49) 
oracle

>  <origin>  (49) 
adg

>  <m_score__min__energy>  (49) 
-11.35

>  <m_primary>  (49) 
energy

$$$$
49:0
     RDKit          3D

 54 57  0  0  0  0  0  0  0  0999 V2000
   55.6500   29.7440   43.5880 C   0  0  0  0  0  0  0  0  0  0  0  0
   55.7630   29.0980   44.8520 O   0  0  0  0  0  0  0  0  0  0  0  0
   56.9750   28.6900   45.4290 C   0  0  0  0  0  0  0  0  0  0  0  0
   57.3640   27.3570   45.2790 C   0  0  0  0  0  0  0  0  0  0  0  0
   58.5710   26.9040   45.8150 C   0  0  0  0  0  0  0  0  0  0  0  0
   59.4110   27.7830   46.5250 C   0  0  0  0  0  0  0  0  0  0  0  0
   60.6320   27.3560   47.0740 O   0  0  0  0  0  0  0  0  0  0  0  0
   60.7760   26.7630   48.3620 C   0  0  0  0  0  0  0  0  0  0  0  0
   59.0190   29.1270   46.6920 C   0  0  0  0  0  0  0  0  0  0  0  0
   60.0330   30.2520   47.6040 S   0  0  0  0  0  0  0  0  0  0  0  0
   60.4330   29.6380   48.9200 O   0  0  0  0  0  0  0  0  0  0  0  0
   61.2780   30.5480   46.8140 O   0  0  0  0  0  0  0  0  0  0  0  0
   59.1620   31.7290   47.8720 N   0  0  0  0  0  0  0  0  0  0  0  0
   58.8480   32.6780   46.8470 C   0  0  0  0  0  0  0  0  0  0  0  0
   57.6800   32.5540   46.0780 C   0  0  0  0  0  0  0  0  0  0  0  0
   57.3820   33.4980   45.0930 C   0  0  0  0  0  0  0  0  0  0  0  0
   58.2370   34.5800   44.8800 C   0  0  0  0  0  0  0  0  0  0  0  0
   59.3910   34.7250   45.6550 C   0  0  0  0  0  0  0  0  0  0  0  0
   59.7040   33.7740   46.6470 C   0  0  0  0  0  0  0  0  0  0  0  0
   60.8610   33.8700   47.4400 O   0  0  0  0  0  0  0  0  0  0  0  0
   62.1720   33.4720   47.0370 C   0  0  0  0  0  0  0  0  0  0  0  0
   62.9090   32.8050   48.1720 C   0  0  0  0  0  0  0  0  0  0  0  0
   64.2230   33.1740   48.4620 C   0  0  0  0  0  0  0  0  0  0  0  0
   64.8880   32.5470   49.5150 C   0  0  0  0  0  0  0  0  0  0  0  0
   66.0800   32.8830   49.7640 O   0  0  0  0  0  0  0  0  0  0  0  0
   64.2540   31.5850   50.2590 N   0  0  0  0  0  0  0  0  0  0  0  0
   64.9070   30.9570   51.2910 C   0  0  0  0  0  0  0  0  0  0  0  0
   64.2670   29.9750   52.0520 C   0  0  0  0  0  0  0  0  0  0  0  0
   62.9540   29.6260   51.7570 C   0  0  0  0  0  0  0  0  0  0  0  0
   62.2890   30.2590   50.7120 C   0  0  0  0  0  0  0  0  0  0  0  0
   62.9470   31.2470   49.9640 C   0  0  0  0  0  0  0  0  0  0  0  0
   62.2910   31.8680   48.9420 N   0  0  0  0  0  0  0  0  0  0  0  0
   57.8060   29.5730   46.1450 C   0  0  0  0  0  0  0  0  0  0  0  0
   55.4623   30.8171   43.7402 H   0  0  0  0  0  0  0  0  0  0  0  0
   56.5849   29.6117   43.0237 H   0  0  0  0  0  0  0  0  0  0  0  0
   54.8155   29.3022   43.0237 H   0  0  0  0  0  0  0  0  0  0  0  0
   56.7134   26.6576   44.7335 H   0  0  0  0  0  0  0  0  0  0  0  0
   58.8677   25.8532   45.6817 H   0  0  0  0  0  0  0  0  0  0  0  0
   60.5919   27.5212   49.1374 H   0  0  0  0  0  0  0  0  0  0  0  0
   60.0508   25.9431   48.4713 H   0  0  0  0  0  0  0  0  0  0  0  0
   61.7964   26.3670   48.4713 H   0  0  0  0  0  0  0  0  0  0  0  0
   56.9967   31.7097   46.2521 H   0  0  0  0  0  0  0  0  0  0  0  0
   56.4723   33.3885   44.4844 H   0  0  0  0  0  0  0  0  0  0  0  0
   58.0023   35.3201   44.1008 H   0  0  0  0  0  0  0  0  0  0  0  0
   60.0574   35.5845   45.4901 H   0  0  0  0  0  0  0  0  0  0  0  0
   62.0911   32.7664   46.1970 H   0  0  0  0  0  0  0  0  0  0  0  0
   62.7326   34.3690   46.7351 H   0  0  0  0  0  0  0  0  0  0  0  0
   64.7279   33.9497   47.8675 H   0  0  0  0  0  0  0  0  0  0  0  0
   65.9472   31.2304   51.5216 H   0  0  0  0  0  0  0  0  0  0  0  0
   64.7986   29.4815   52.8789 H   0  0  0  0  0  0  0  0  0  0  0  0
   62.4427   28.8519   52.3480 H   0  0  0  0  0  0  0  0  0  0  0  0
   61.2506   29.9859   50.4728 H   0  0  0  0  0  0  0  0  0  0  0  0
   61.2980   31.6120   48.7380 H   0  0  0  0  0  0  0  0  0  0  0  0
   57.5016   30.6218   46.2768 H   0  0  0  0  0  0  0  0  0  0  0  0
  1  2  1  0
  2  3  1  0
  3  4  2  0
  4  5  1  0
  5  6  2  0
  6  7  1  0
  7  8  1  0
  6  9  1  0
  9 10  1  0
 10 11  2  0
 10 12  2  0
 10 13  1  0
 13 14  1  0
 14 15  2  0
 15 16  1  0
 16 17  2  0
 17 18  1  0
 18 19  2  0
 19 20  1  0
 20 21  1  0
 21 22  1  0
 22 23  2  0
 23 24  1  0
 24 25  2  0
 24 26  1  0
 26 27  1  0
 27 28  2  0
 28 29  1  0
 29 30  2  0
 30 31  1  0
 31 32  2  0
  9 33  2  0
 33  3  1  0
 19 14  1  0
 32 22  1  0
 31 26  1  0
  1 34  1  0
  1 35  1  0
  1 36  1  0
  4 37  1  0
  5 38  1  0
  8 39  1  0
  8 40  1  0
  8 41  1  0
 15 42  1  0
 16 43  1  0
 17 44  1  0
 18 45  1  0
 21 46  1  0
 21 47  1  0
 23 48  1  0
 27 49  1  0
 28 50  1  0
 29 51  1  0
 30 52  1  0
 32 53  1  0
 33 54  1  0
M  CHG  2  13  -1  32   1
M  END
>  <UniqueID>  (50) 
44

>  <SMILES>  (50) 
COc1ccc(OC)c(S(=O)(=O)[N-]c2ccccc2OCc2cc(=O)n3ccccc3[nH+]2)c1

>  <Energy>  (50) 
67.65377377271622

>  <Genealogy>  (50) 
COc1ccc(OC)c(S(=O)(=O)[N-]c2ccccc2OCc2cc(=O)n3ccccc3[nH+]2)c1 (protonated)
COc1ccc(OC)c(S(=O)(=O)[N-]c2ccccc2OCc2cc(=O)n3ccccc3[nH+]2)c1 (3D coordinates assigned)
COc1ccc(OC)c(S(=O)(=O)[N-]c2ccccc2OCc2cc(=O)n3ccccc3[nH+]2)c1 (optimized conformer: 67.65377377271622 kcal/mol)

>  <smiles>  (50) 
COc1ccc(OC)c(S(=O)(=O)Nc2ccccc2OCc2cc(=O)n3ccccc3n2)c1

>  <score_type>  (50) 
oracle

>  <origin>  (50) 
adg

>  <m_score__min__energy>  (50) 
-9.9399999999999995

>  <m_primary>  (50) 
energy

$$$$
50:0
     RDKit          3D

 29 31  0  0  0  0  0  0  0  0999 V2000
   55.4807   25.5792   46.6493 H   0  0  0  0  0  0  0  0  0  0  0  0
   56.2010   26.3270   46.2860 C   0  0  0  0  0  0  0  0  0  0  0  0
   55.8890   27.4290   45.6430 O   0  0  0  0  0  0  0  0  0  0  0  0
   56.9920   28.0840   45.3610 C   0  0  0  0  0  0  0  0  0  0  0  0
   57.0040   29.3700   44.6390 C   0  0  0  0  0  0  0  0  0  0  0  0
   57.0160   30.5230   45.3590 N   0  0  0  0  0  0  0  0  0  0  0  0
   57.0190   31.7450   44.7570 C   0  0  0  0  0  0  0  0  0  0  0  0
   57.0520   32.8410   45.4610 N   0  0  0  0  0  0  0  0  0  0  0  0
   58.1680   33.3540   46.2070 C   0  0  0  0  0  0  0  0  0  0  0  0
   58.9330   34.3870   45.6460 C   0  0  0  0  0  0  0  0  0  0  0  0
   58.6853   34.7686   44.6445 H   0  0  0  0  0  0  0  0  0  0  0  0
   60.0090   34.9350   46.3520 C   0  0  0  0  0  0  0  0  0  0  0  0
   60.6142   35.7337   45.8982 H   0  0  0  0  0  0  0  0  0  0  0  0
   60.3160   34.4690   47.6330 C   0  0  0  0  0  0  0  0  0  0  0  0
   61.1685   34.8936   48.1834 H   0  0  0  0  0  0  0  0  0  0  0  0
   59.5400   33.4640   48.2140 C   0  0  0  0  0  0  0  0  0  0  0  0
   59.7760   33.1050   49.2266 H   0  0  0  0  0  0  0  0  0  0  0  0
   58.4640   32.9130   47.5120 C   0  0  0  0  0  0  0  0  0  0  0  0
   57.8463   32.1324   47.9801 H   0  0  0  0  0  0  0  0  0  0  0  0
   57.0290   31.8210   43.3970 N   0  0  0  0  0  0  0  0  0  0  0  0
   57.0440   32.7540   42.9250 H   0  0  0  0  0  0  0  0  0  0  0  0
   57.0170   30.6960   42.6360 C   0  0  0  0  0  0  0  0  0  0  0  0
   57.0191   30.7763   41.5389 H   0  0  0  0  0  0  0  0  0  0  0  0
   57.0020   29.4410   43.2400 C   0  0  0  0  0  0  0  0  0  0  0  0
   56.9889   28.5249   42.6312 H   0  0  0  0  0  0  0  0  0  0  0  0
   58.0860   27.3820   45.8410 C   0  0  0  0  0  0  0  0  0  0  0  0
   59.1454   27.6678   45.7633 H   0  0  0  0  0  0  0  0  0  0  0  0
   57.5700   26.2510   46.4360 C   0  0  0  0  0  0  0  0  0  0  0  0
   58.1364   25.4486   46.9312 H   0  0  0  0  0  0  0  0  0  0  0  0
  1  2  1  0
  2  3  1  0
  3  4  1  0
  4  5  1  0
  5  6  2  0
  6  7  1  0
  7  8  2  0
  8  9  1  0
  9 10  2  0
 10 11  1  0
 10 12  1  0
 12 13  1  0
 12 14  2  0
 14 15  1  0
 14 16  1  0
 16 17  1  0
 16 18  2  0
 18 19  1  0
  7 20  1  0
 20 21  1  0
 20 22  1  0
 22 23  1  0
 22 24  2  0
 24 25  1  0
  4 26  2  0
 26 27  1  0
 26 28  1  0
 28 29  1  0
 28  2  2  0
 24  5  1  0
 18  9  1  0
M  END
>  <UniqueID>  (51) 
45

>  <SMILES>  (51) 
c1ccc(/N=c2\nc(-c3ccco3)cc[nH]2)cc1

>  <Energy>  (51) 
64.56557934914684

>  <Genealogy>  (51) 
c1ccc(/N=c2\nc(-c3ccco3)cc[nH]2)cc1 (cis-trans isomerization)
c1ccc(/N=c2\nc(-c3ccco3)cc[nH]2)cc1 (3D coordinates assigned)
c1ccc(/N=c2\nc(-c3ccco3)cc[nH]2)cc1 (optimized conformer: 64.56557934914684 kcal/mol)

>  <smiles>  (51) 
c1ccc(N=c2nc(-c3ccco3)cc[nH]2)cc1

>  <score_type>  (51) 
oracle

>  <origin>  (51) 
adg

>  <m_score__min__energy>  (51) 
-7.0199999999999996

>  <m_primary>  (51) 
energy

$$$$
51:0
     RDKit          3D

 38 39  0  0  0  0  0  0  0  0999 V2000
   59.9790   29.6120   45.6160 C   0  0  0  0  0  0  0  0  0  0  0  0
   58.9630   28.4980   45.8360 C   0  0  0  0  0  0  0  0  0  0  0  0
   58.2180   28.2120   44.6020 N   0  0  0  0  0  0  0  0  0  0  0  0
   57.6270   29.3130   43.8270 C   0  0  0  0  0  0  0  0  0  0  0  0
   56.3770   29.8340   44.4930 C   0  0  0  0  0  0  0  0  0  0  0  0
   55.5010   29.0200   44.8840 O   0  0  0  0  0  0  0  0  0  0  0  0
   56.2400   31.2130   44.8550 N   0  0  0  0  0  0  0  0  0  0  0  0
   57.3180   32.1390   45.0390 C   0  0  0  0  0  0  0  0  0  0  0  0
   57.8360   32.8720   43.9600 C   0  0  0  0  0  0  0  0  0  0  0  0
   58.8710   33.7900   44.1670 C   0  0  0  0  0  0  0  0  0  0  0  0
   59.3810   33.9930   45.4520 C   0  0  0  0  0  0  0  0  0  0  0  0
   58.8460   33.2900   46.5360 C   0  0  0  0  0  0  0  0  0  0  0  0
   59.5300   33.5820   48.2960 Br  0  0  0  0  0  0  0  0  0  0  0  0
   57.8090   32.3720   46.3300 C   0  0  0  0  0  0  0  0  0  0  0  0
   58.1860   26.8760   44.0720 C   0  0  0  0  0  0  0  0  0  0  0  0
   58.1190   26.7000   42.8250 O   0  0  0  0  0  0  0  0  0  0  0  0
   58.1510   25.6810   44.9810 C   0  0  0  0  0  0  0  0  0  0  0  0
   56.9330   24.8580   44.7020 C   0  0  0  0  0  0  0  0  0  0  0  0
   56.7770   23.9560   43.6560 C   0  0  0  0  0  0  0  0  0  0  0  0
   55.5240   23.3320   43.6490 C   0  0  0  0  0  0  0  0  0  0  0  0
   54.6960   23.7330   44.6900 C   0  0  0  0  0  0  0  0  0  0  0  0
   55.5240   24.8650   45.6180 S   0  0  0  0  0  0  0  0  0  0  0  0
   60.3244   29.9907   46.5893 H   0  0  0  0  0  0  0  0  0  0  0  0
   60.8366   29.2195   45.0499 H   0  0  0  0  0  0  0  0  0  0  0  0
   59.5094   30.4300   45.0499 H   0  0  0  0  0  0  0  0  0  0  0  0
   59.4912   27.5878   46.1562 H   0  0  0  0  0  0  0  0  0  0  0  0
   58.2498   28.8222   46.6082 H   0  0  0  0  0  0  0  0  0  0  0  0
   58.3592   30.1301   43.7472 H   0  0  0  0  0  0  0  0  0  0  0  0
   57.3605   28.9350   42.8290 H   0  0  0  0  0  0  0  0  0  0  0  0
   57.4273   32.7243   42.9495 H   0  0  0  0  0  0  0  0  0  0  0  0
   59.2840   34.3529   43.3170 H   0  0  0  0  0  0  0  0  0  0  0  0
   60.2035   34.7059   45.6109 H   0  0  0  0  0  0  0  0  0  0  0  0
   57.3781   31.8315   47.1857 H   0  0  0  0  0  0  0  0  0  0  0  0
   59.0497   25.0694   44.8126 H   0  0  0  0  0  0  0  0  0  0  0  0
   58.1220   26.0242   46.0257 H   0  0  0  0  0  0  0  0  0  0  0  0
   57.5589   23.7531   42.9094 H   0  0  0  0  0  0  0  0  0  0  0  0
   55.2234   22.5939   42.8909 H   0  0  0  0  0  0  0  0  0  0  0  0
   53.6737   23.3718   44.8755 H   0  0  0  0  0  0  0  0  0  0  0  0
  1  2  1  0
  2  3  1  0
  3  4  1  0
  4  5  1  0
  5  6  2  0
  5  7  1  0
  7  8  1  0
  8  9  2  0
  9 10  1  0
 10 11  2  0
 11 12  1  0
 12 13  1  0
 12 14  2  0
  3 15  1  0
 15 16  2  0
 15 17  1  0
 17 18  1  0
 18 19  2  0
 19 20  1  0
 20 21  2  0
 21 22  1  0
 14  8  1  0
 22 18  1  0
  1 23  1  0
  1 24  1  0
  1 25  1  0
  2 26  1  0
  2 27  1  0
  4 28  1  0
  4 29  1  0
  9 30  1  0
 10 31  1  0
 11 32  1  0
 14 33  1  0
 17 34  1  0
 17 35  1  0
 19 36  1  0
 20 37  1  0
 21 38  1  0
M  CHG  1   7  -1
M  END
>  <UniqueID>  (52) 
46

>  <SMILES>  (52) 
CCN(CC(=O)[N-]c1cccc(Br)c1)C(=O)Cc1cccs1

>  <Energy>  (52) 
64.3648157849841

>  <Genealogy>  (52) 
CCN(CC(=O)[N-]c1cccc(Br)c1)C(=O)Cc1cccs1 (protonated)
CCN(CC(=O)[N-]c1cccc(Br)c1)C(=O)Cc1cccs1 (3D coordinates assigned)
CCN(CC(=O)[N-]c1cccc(Br)c1)C(=O)Cc1cccs1 (optimized conformer: 64.3648157849841 kcal/mol)

>  <smiles>  (52) 
CCN(CC(=O)Nc1cccc(Br)c1)C(=O)Cc1cccs1

>  <score_type>  (52) 
oracle

>  <origin>  (52) 
adg

>  <m_score__min__energy>  (52) 
-9.9000000000000004

>  <m_primary>  (52) 
energy

$$$$
52:0
     RDKit          3D

 53 55  0  0  0  0  0  0  0  0999 V2000
   61.2280   33.7580   46.8490 C   0  0  0  0  0  0  0  0  0  0  0  0
   59.7730   33.7990   46.4580 C   0  0  0  0  0  0  0  0  0  0  0  0
   59.4140   34.4240   45.2510 C   0  0  0  0  0  0  0  0  0  0  0  0
   58.0750   34.5070   44.8640 C   0  0  0  0  0  0  0  0  0  0  0  0
   57.0790   33.9630   45.6750 C   0  0  0  0  0  0  0  0  0  0  0  0
   57.4180   33.3270   46.8690 C   0  0  0  0  0  0  0  0  0  0  0  0
   58.7610   33.2270   47.2730 C   0  0  0  0  0  0  0  0  0  0  0  0
   59.0780   32.5190   48.5360 C   0  0  0  0  0  0  0  0  0  0  0  0
   58.8150   31.2910   48.6470 O   0  0  0  0  0  0  0  0  0  0  0  0
   59.6760   33.2240   49.6350 N   0  0  0  0  0  0  0  0  0  0  0  0
   60.0650   32.5540   50.8740 C   0  0  0  0  0  0  0  0  0  0  0  0
   58.9200   31.7300   51.4070 C   0  0  0  0  0  0  0  0  0  0  0  0
   57.6850   32.3440   51.6770 C   0  0  0  0  0  0  0  0  0  0  0  0
   56.6090   31.5900   52.1500 C   0  0  0  0  0  0  0  0  0  0  0  0
   56.7530   30.2180   52.3540 C   0  0  0  0  0  0  0  0  0  0  0  0
   57.9730   29.5940   52.0850 C   0  0  0  0  0  0  0  0  0  0  0  0
   59.0690   30.3420   51.6100 C   0  0  0  0  0  0  0  0  0  0  0  0
   60.3120   29.7470   51.3240 O   0  0  0  0  0  0  0  0  0  0  0  0
   60.7970   29.4320   50.0190 C   0  0  0  0  0  0  0  0  0  0  0  0
   60.7980   27.9440   49.8040 C   0  0  0  0  0  0  0  0  0  0  0  0
   61.0680   27.1860   50.7730 O   0  0  0  0  0  0  0  0  0  0  0  0
   60.4510   27.3570   48.5430 N   0  0  0  0  0  0  0  0  0  0  0  0
   59.5600   27.9080   47.5660 C   0  0  0  0  0  0  0  0  0  0  0  0
   58.3000   27.3390   47.3110 C   0  0  0  0  0  0  0  0  0  0  0  0
   57.4430   27.9170   46.3710 C   0  0  0  0  0  0  0  0  0  0  0  0
   57.8230   29.0820   45.6910 C   0  0  0  0  0  0  0  0  0  0  0  0
   56.7480   29.7990   44.4950 S   0  0  0  0  0  0  0  0  0  0  0  0
   55.1170   29.3460   44.8420 N   0  0  0  0  0  0  0  0  0  0  0  0
   56.8720   31.2960   44.5310 O   0  0  0  0  0  0  0  0  0  0  0  0
   57.1190   29.3170   43.1220 O   0  0  0  0  0  0  0  0  0  0  0  0
   59.0700   29.6610   45.9580 C   0  0  0  0  0  0  0  0  0  0  0  0
   59.9280   29.0850   46.9000 C   0  0  0  0  0  0  0  0  0  0  0  0
   61.3130   33.7556   47.9457 H   0  0  0  0  0  0  0  0  0  0  0  0
   61.6911   32.8464   46.4433 H   0  0  0  0  0  0  0  0  0  0  0  0
   61.7417   34.6420   46.4433 H   0  0  0  0  0  0  0  0  0  0  0  0
   60.1953   34.8516   44.6054 H   0  0  0  0  0  0  0  0  0  0  0  0
   57.8055   35.0016   43.9192 H   0  0  0  0  0  0  0  0  0  0  0  0
   56.0240   34.0358   45.3722 H   0  0  0  0  0  0  0  0  0  0  0  0
   56.6262   32.8990   47.5014 H   0  0  0  0  0  0  0  0  0  0  0  0
   59.8960   34.2400   49.5350 H   0  0  0  0  0  0  0  0  0  0  0  0
   60.9240   31.8960   50.6761 H   0  0  0  0  0  0  0  0  0  0  0  0
   60.3361   33.3143   51.6213 H   0  0  0  0  0  0  0  0  0  0  0  0
   57.5652   33.4253   51.5147 H   0  0  0  0  0  0  0  0  0  0  0  0
   55.6467   32.0789   52.3619 H   0  0  0  0  0  0  0  0  0  0  0  0
   55.9042   29.6263   52.7274 H   0  0  0  0  0  0  0  0  0  0  0  0
   58.0793   28.5109   52.2450 H   0  0  0  0  0  0  0  0  0  0  0  0
   60.1487   29.9062   49.2674 H   0  0  0  0  0  0  0  0  0  0  0  0
   61.8266   29.8068   49.9214 H   0  0  0  0  0  0  0  0  0  0  0  0
   57.9875   26.4348   47.8539 H   0  0  0  0  0  0  0  0  0  0  0  0
   56.4661   27.4558   46.1638 H   0  0  0  0  0  0  0  0  0  0  0  0
   55.1500   28.6700   45.6360 H   0  0  0  0  0  0  0  0  0  0  0  0
   59.3758   30.5729   45.4243 H   0  0  0  0  0  0  0  0  0  0  0  0
   60.8966   29.5580   47.1194 H   0  0  0  0  0  0  0  0  0  0  0  0
  1  2  1  0
  2  3  2  0
  3  4  1  0
  4  5  2  0
  5  6  1  0
  6  7  2  0
  7  8  1  0
  8  9  2  0
  8 10  1  0
 10 11  1  0
 11 12  1  0
 12 13  2  0
 13 14  1  0
 14 15  2  0
 15 16  1  0
 16 17  2  0
 17 18  1  0
 18 19  1  0
 19 20  1  0
 20 21  2  0
 20 22  1  0
 22 23  1  0
 23 24  2  0
 24 25  1  0
 25 26  2  0
 26 27  1  0
 27 28  1  0
 27 29  2  0
 27 30  2  0
 26 31  1  0
 31 32  2  0
  7  2  1  0
 17 12  1  0
 32 23  1  0
  1 33  1  0
  1 34  1  0
  1 35  1  0
  3 36  1  0
  4 37  1  0
  5 38  1  0
  6 39  1  0
 10 40  1  0
 11 41  1  0
 11 42  1  0
 13 43  1  0
 14 44  1  0
 15 45  1  0
 16 46  1  0
 19 47  1  0
 19 48  1  0
 24 49  1  0
 25 50  1  0
 28 51  1  0
 31 52  1  0
 32 53  1  0
M  CHG  2  22  -1  28  -1
M  END
>  <UniqueID>  (53) 
47

>  <SMILES>  (53) 
Cc1ccccc1C(=O)NCc1ccccc1OCC(=O)[N-]c1ccc(S([NH-])(=O)=O)cc1

>  <Energy>  (53) 
61.64646948780838

>  <Genealogy>  (53) 
Cc1ccccc1C(=O)NCc1ccccc1OCC(=O)[N-]c1ccc(S([NH-])(=O)=O)cc1 (protonated)
Cc1ccccc1C(=O)NCc1ccccc1OCC(=O)[N-]c1ccc(S([NH-])(=O)=O)cc1 (3D coordinates assigned)
Cc1ccccc1C(=O)NCc1ccccc1OCC(=O)[N-]c1ccc(S([NH-])(=O)=O)cc1 (optimized conformer: 61.64646948780838 kcal/mol)

>  <smiles>  (53) 
Cc1ccccc1C(=O)NCc1ccccc1OCC(=O)Nc1ccc(S(N)(=O)=O)cc1

>  <score_type>  (53) 
oracle

>  <origin>  (53) 
adg

>  <m_score__min__energy>  (53) 
-12.25

>  <m_primary>  (53) 
energy

$$$$
53:0
     RDKit          3D

 39 40  0  0  0  0  0  0  0  0999 V2000
   57.7690   33.4880   44.4280 C   0  0  0  0  0  0  0  0  0  0  0  0
   58.1250   32.4850   43.6220 C   0  0  0  0  0  0  0  0  0  0  0  0
   57.1900   31.3500   43.3320 C   0  0  0  0  0  0  0  0  0  0  0  0
   56.6070   30.8880   44.5460 O   0  0  0  0  0  0  0  0  0  0  0  0
   56.3170   29.5400   44.7820 C   0  0  0  0  0  0  0  0  0  0  0  0
   55.1890   29.0730   44.4620 O   0  0  0  0  0  0  0  0  0  0  0  0
   57.3310   28.6590   45.4090 C   0  0  0  0  0  0  0  0  0  0  0  0
   57.4920   27.4000   44.9510 C   0  0  0  0  0  0  0  0  0  0  0  0
   57.1610   26.1690   45.7020 C   0  0  0  0  0  0  0  0  0  0  0  0
   58.2390   24.9770   46.2240 S   0  0  0  0  0  0  0  0  0  0  0  0
   57.0510   24.1470   47.0730 C   0  0  0  0  0  0  0  0  0  0  0  0
   57.2490   23.0840   47.7150 O   0  0  0  0  0  0  0  0  0  0  0  0
   55.8470   24.7520   47.0040 N   0  0  0  0  0  0  0  0  0  0  0  0
   55.9120   25.8830   46.2520 C   0  0  0  0  0  0  0  0  0  0  0  0
   54.7970   26.6890   46.0560 O   0  0  0  0  0  0  0  0  0  0  0  0
   58.1910   29.2210   46.4750 C   0  0  0  0  0  0  0  0  0  0  0  0
   58.4160   28.5470   47.5180 O   0  0  0  0  0  0  0  0  0  0  0  0
   58.7670   30.5270   46.3230 N   0  0  0  0  0  0  0  0  0  0  0  0
   59.6440   31.0960   47.3040 C   0  0  0  0  0  0  0  0  0  0  0  0
   60.7830   30.3750   47.6900 C   0  0  0  0  0  0  0  0  0  0  0  0
   61.6720   30.9030   48.6270 C   0  0  0  0  0  0  0  0  0  0  0  0
   61.4260   32.1530   49.1970 C   0  0  0  0  0  0  0  0  0  0  0  0
   60.2810   32.8710   48.8430 C   0  0  0  0  0  0  0  0  0  0  0  0
   59.3670   32.3440   47.9140 C   0  0  0  0  0  0  0  0  0  0  0  0
   58.1260   33.1280   47.5870 C   0  0  0  0  0  0  0  0  0  0  0  0
   58.4721   34.3104   44.6262 H   0  0  0  0  0  0  0  0  0  0  0  0
   56.7725   33.4920   44.8939 H   0  0  0  0  0  0  0  0  0  0  0  0
   59.1241   32.4917   43.1617 H   0  0  0  0  0  0  0  0  0  0  0  0
   56.3962   31.6943   42.6527 H   0  0  0  0  0  0  0  0  0  0  0  0
   57.7488   30.5285   42.8598 H   0  0  0  0  0  0  0  0  0  0  0  0
   57.9024   27.2792   43.9376 H   0  0  0  0  0  0  0  0  0  0  0  0
   58.3670   31.1610   45.5940 H   0  0  0  0  0  0  0  0  0  0  0  0
   60.9772   29.3854   47.2507 H   0  0  0  0  0  0  0  0  0  0  0  0
   62.5675   30.3336   48.9167 H   0  0  0  0  0  0  0  0  0  0  0  0
   62.1345   32.5734   49.9259 H   0  0  0  0  0  0  0  0  0  0  0  0
   60.0932   33.8563   49.2947 H   0  0  0  0  0  0  0  0  0  0  0  0
   57.6328   33.4396   48.5196 H   0  0  0  0  0  0  0  0  0  0  0  0
   58.3984   34.0182   47.0011 H   0  0  0  0  0  0  0  0  0  0  0  0
   57.4391   32.4996   47.0011 H   0  0  0  0  0  0  0  0  0  0  0  0
  1  2  2  0
  2  3  1  0
  3  4  1  0
  4  5  1  0
  5  6  2  0
  5  7  1  0
  7  8  2  3
  8  9  1  0
  9 10  1  0
 10 11  1  0
 11 12  2  0
 11 13  1  0
 13 14  1  0
 14 15  1  0
  7 16  1  0
 16 17  2  0
 16 18  1  0
 18 19  1  0
 19 20  2  0
 20 21  1  0
 21 22  2  0
 22 23  1  0
 23 24  2  0
 24 25  1  0
 14  9  2  0
 24 19  1  0
  1 26  1  0
  1 27  1  0
  2 28  1  0
  3 29  1  0
  3 30  1  0
  8 31  1  0
 18 32  1  0
 20 33  1  0
 21 34  1  0
 22 35  1  0
 23 36  1  0
 25 37  1  0
 25 38  1  0
 25 39  1  0
M  CHG  2  13  -1  15  -1
M  END
>  <UniqueID>  (54) 
48

>  <SMILES>  (54) 
C=CCOC(=O)C(=Cc1sc(=O)[n-]c1[O-])C(=O)Nc1ccccc1C

>  <Energy>  (54) 
79.49615550345554

>  <Genealogy>  (54) 
C=CCOC(=O)C(=Cc1sc(=O)[n-]c1[O-])C(=O)Nc1ccccc1C (protonated)
C=CCOC(=O)C(=Cc1sc(=O)[n-]c1[O-])C(=O)Nc1ccccc1C (3D coordinates assigned)
C=CCOC(=O)C(=Cc1sc(=O)[n-]c1[O-])C(=O)Nc1ccccc1C (optimized conformer: 79.49615550345554 kcal/mol)

>  <smiles>  (54) 
C=CCOC(=O)C(=Cc1sc(=O)[nH]c1O)C(=O)Nc1ccccc1C

>  <score_type>  (54) 
oracle

>  <origin>  (54) 
adg

>  <m_score__min__energy>  (54) 
-13.81

>  <m_primary>  (54) 
energy

$$$$
54:0
     RDKit          3D

 26 27  0  0  0  0  0  0  0  0999 V2000
   57.7255   32.2144   47.6047 H   0  0  0  0  0  0  0  0  0  0  0  0
   57.8670   32.5040   46.5530 C   0  0  0  0  0  0  0  0  0  0  0  0
   57.4330   31.6870   45.5580 N   0  0  0  0  0  0  0  0  0  0  0  0
   57.5970   32.0300   44.2520 C   0  0  0  0  0  0  0  0  0  0  0  0
   56.9880   30.9450   42.9610 S   0  0  0  0  0  0  0  0  0  0  0  0
   57.4630   29.4040   43.8180 C   0  0  0  0  0  0  0  0  0  0  0  0
   58.4267   29.5559   44.3262 H   0  0  0  0  0  0  0  0  0  0  0  0
   57.5462   28.5974   43.0747 H   0  0  0  0  0  0  0  0  0  0  0  0
   56.4300   29.0210   44.8290 C   0  0  0  0  0  0  0  0  0  0  0  0
   55.3100   29.5980   44.8190 O   0  0  0  0  0  0  0  0  0  0  0  0
   56.7380   28.0010   45.7920 N   0  0  0  0  0  0  0  0  0  0  0  0
   56.3800   26.7500   45.7590 C   0  0  0  0  0  0  0  0  0  0  0  0
   55.1450   26.3450   46.1080 N   0  0  0  0  0  0  0  0  0  0  0  0
   55.1360   25.0470   46.0050 O   0  0  0  0  0  0  0  0  0  0  0  0
   56.3030   24.5960   45.6090 C   0  0  0  0  0  0  0  0  0  0  0  0
   56.6340   23.1540   45.4260 C   0  0  0  0  0  0  0  0  0  0  0  0
   56.7439   22.6753   46.4102 H   0  0  0  0  0  0  0  0  0  0  0  0
   55.8258   22.6604   44.8664 H   0  0  0  0  0  0  0  0  0  0  0  0
   57.5765   23.0623   44.8664 H   0  0  0  0  0  0  0  0  0  0  0  0
   57.1670   25.6570   45.4350 C   0  0  0  0  0  0  0  0  0  0  0  0
   58.2201   25.6396   45.1176 H   0  0  0  0  0  0  0  0  0  0  0  0
   58.2090   33.1980   43.9270 N   0  0  0  0  0  0  0  0  0  0  0  0
   58.6590   34.0410   44.8930 C   0  0  0  0  0  0  0  0  0  0  0  0
   59.2230   35.1200   44.5720 O   0  0  0  0  0  0  0  0  0  0  0  0
   58.4920   33.7100   46.2390 C   0  0  0  0  0  0  0  0  0  0  0  0
   58.8451   34.3847   47.0328 H   0  0  0  0  0  0  0  0  0  0  0  0
  1  2  1  0
  2  3  1  0
  3  4  1  0
  4  5  1  0
  5  6  1  0
  6  7  1  0
  6  8  1  0
  6  9  1  0
  9 10  2  0
  9 11  1  0
 11 12  2  0
 12 13  1  0
 13 14  1  0
 14 15  1  0
 15 16  1  0
 16 17  1  0
 16 18  1  0
 16 19  1  0
 15 20  2  0
 20 21  1  0
  4 22  2  0
 22 23  1  0
 23 24  2  0
 23 25  1  0
 25 26  1  0
 25  2  2  0
 20 12  1  0
M  CHG  2   3  -1  13  -1
M  END
>  <UniqueID>  (55) 
49

>  <SMILES>  (55) 
Cc1c/c(=N\C(=O)CSc2nc(=O)cc[n-]2)[n-]o1

>  <Energy>  (55) 
55.6402000241041

>  <Genealogy>  (55) 
Cc1cc(=NC(=O)CSc2nc(=O)cc[n-]2)[n-]o1 (protonated)
Cc1c/c(=N\C(=O)CSc2nc(=O)cc[n-]2)[n-]o1 (cis-trans isomerization)
Cc1c/c(=N\C(=O)CSc2nc(=O)cc[n-]2)[n-]o1 (3D coordinates assigned)
Cc1c/c(=N\C(=O)CSc2nc(=O)cc[n-]2)[n-]o1 (optimized conformer: 55.6402000241041 kcal/mol)

>  <smiles>  (55) 
Cc1cc(=NC(=O)CSc2nc(=O)cc[nH]2)[nH]o1

>  <score_type>  (55) 
oracle

>  <origin>  (55) 
adg

>  <m_score__min__energy>  (55) 
-10.32

>  <m_primary>  (55) 
energy

$$$$
55:0
     RDKit          3D

 42 44  0  0  0  0  0  0  0  0999 V2000
   59.3380   35.1210   46.7450 C   0  0  0  0  0  0  0  0  0  0  0  0
   59.0520   33.6420   46.7290 C   0  0  0  0  0  0  0  0  0  0  0  0
   59.7180   32.8140   47.6480 C   0  0  0  0  0  0  0  0  0  0  0  0
   59.4910   31.4370   47.6570 C   0  0  0  0  0  0  0  0  0  0  0  0
   58.5810   30.8720   46.7630 C   0  0  0  0  0  0  0  0  0  0  0  0
   57.8890   31.6760   45.8480 C   0  0  0  0  0  0  0  0  0  0  0  0
   56.9410   31.0550   44.9670 N   0  0  0  0  0  0  0  0  0  0  0  0
   56.6950   29.6480   44.9320 C   0  0  0  0  0  0  0  0  0  0  0  0
   55.5070   29.2370   44.8730 O   0  0  0  0  0  0  0  0  0  0  0  0
   57.8210   28.6540   44.8660 C   0  0  0  0  0  0  0  0  0  0  0  0
   57.2960   27.2910   44.7970 N   0  0  0  0  0  0  0  0  0  0  0  0
   58.1100   26.1540   45.1150 C   0  0  0  0  0  0  0  0  0  0  0  0
   59.3270   26.3200   45.4120 O   0  0  0  0  0  0  0  0  0  0  0  0
   57.5300   24.8350   45.1420 N   0  0  0  0  0  0  0  0  0  0  0  0
   58.2850   23.6160   44.8220 C   0  0  0  0  0  0  0  0  0  0  0  0
   57.2370   22.5060   44.5690 C   0  0  0  0  0  0  0  0  0  0  0  0
   55.9540   23.1840   44.8840 C   0  0  0  0  0  0  0  0  0  0  0  0
   54.7250   22.6100   44.9240 N   0  0  0  0  0  0  0  0  0  0  0  0
   53.6540   23.3680   45.2980 C   0  0  0  0  0  0  0  0  0  0  0  0
   53.8220   24.6820   45.6440 N   0  0  0  0  0  0  0  0  0  0  0  0
   55.0540   25.2640   45.6200 C   0  0  0  0  0  0  0  0  0  0  0  0
   55.1840   26.4590   45.9920 O   0  0  0  0  0  0  0  0  0  0  0  0
   56.1480   24.4970   45.2020 C   0  0  0  0  0  0  0  0  0  0  0  0
   58.1520   33.0680   45.7890 C   0  0  0  0  0  0  0  0  0  0  0  0
   57.4590   33.9360   44.7660 C   0  0  0  0  0  0  0  0  0  0  0  0
   59.4055   35.4702   47.7859 H   0  0  0  0  0  0  0  0  0  0  0  0
   60.2905   35.3159   46.2304 H   0  0  0  0  0  0  0  0  0  0  0  0
   58.5268   35.6569   46.2304 H   0  0  0  0  0  0  0  0  0  0  0  0
   60.4245   33.2548   48.3667 H   0  0  0  0  0  0  0  0  0  0  0  0
   60.0304   30.7962   48.3700 H   0  0  0  0  0  0  0  0  0  0  0  0
   58.4054   29.7862   46.7767 H   0  0  0  0  0  0  0  0  0  0  0  0
   58.4286   28.8539   43.9711 H   0  0  0  0  0  0  0  0  0  0  0  0
   58.4372   28.7530   45.7718 H   0  0  0  0  0  0  0  0  0  0  0  0
   56.3100   27.1360   44.4990 H   0  0  0  0  0  0  0  0  0  0  0  0
   58.8974   23.7732   43.9218 H   0  0  0  0  0  0  0  0  0  0  0  0
   58.9656   23.3421   45.6416 H   0  0  0  0  0  0  0  0  0  0  0  0
   57.2607   22.1705   43.5217 H   0  0  0  0  0  0  0  0  0  0  0  0
   57.4091   21.6007   45.1696 H   0  0  0  0  0  0  0  0  0  0  0  0
   52.6493   22.9207   45.3217 H   0  0  0  0  0  0  0  0  0  0  0  0
   56.8524   34.6958   45.2804 H   0  0  0  0  0  0  0  0  0  0  0  0
   58.2118   34.4326   44.1362 H   0  0  0  0  0  0  0  0  0  0  0  0
   56.8080   33.3119   44.1362 H   0  0  0  0  0  0  0  0  0  0  0  0
  1  2  1  0
  2  3  2  0
  3  4  1  0
  4  5  2  0
  5  6  1  0
  6  7  1  0
  7  8  1  0
  8  9  2  0
  8 10  1  0
 10 11  1  0
 11 12  1  0
 12 13  2  0
 12 14  1  0
 14 15  1  0
 15 16  1  0
 16 17  1  0
 17 18  1  0
 18 19  1  0
 19 20  2  0
 20 21  1  0
 21 22  2  0
 21 23  1  0
  6 24  2  0
 24 25  1  0
 24  2  1  0
 23 14  1  0
 23 17  2  0
  1 26  1  0
  1 27  1  0
  1 28  1  0
  3 29  1  0
  4 30  1  0
  5 31  1  0
 10 32  1  0
 10 33  1  0
 11 34  1  0
 15 35  1  0
 15 36  1  0
 16 37  1  0
 16 38  1  0
 19 39  1  0
 25 40  1  0
 25 41  1  0
 25 42  1  0
M  CHG  2   7  -1  18  -1
M  END
>  <UniqueID>  (56) 
50

>  <SMILES>  (56) 
Cc1cccc([N-]C(=O)CNC(=O)N2CCc3[n-]cnc(=O)c32)c1C

>  <Energy>  (56) 
70.78648415778295

>  <Genealogy>  (56) 
Cc1cccc([N-]C(=O)CNC(=O)N2CCc3[n-]cnc(=O)c32)c1C (protonated)
Cc1cccc([N-]C(=O)CNC(=O)N2CCc3[n-]cnc(=O)c32)c1C (3D coordinates assigned)
Cc1cccc([N-]C(=O)CNC(=O)N2CCc3[n-]cnc(=O)c32)c1C (nonaromatic ring conformer: 70.78648415778295 kcal/mol)

>  <smiles>  (56) 
Cc1cccc(NC(=O)CNC(=O)N2CCc3[nH]cnc(=O)c32)c1C

>  <score_type>  (56) 
oracle

>  <origin>  (56) 
adg

>  <m_score__min__energy>  (56) 
-11.99

>  <m_primary>  (56) 
energy

$$$$
56:0
     RDKit          3D

 19 20  0  0  0  0  0  0  0  0999 V2000
   51.3550   30.2630   48.6180 O   0  0  0  0  0  0  0  0  0  0  0  0
   51.4120   30.8330   49.7390 C   0  0  0  0  0  0  0  0  0  0  0  0
   52.1590   30.3660   50.7630 N   0  0  0  0  0  0  0  0  0  0  0  0
   51.9300   31.2570   51.7510 C   0  0  0  0  0  0  0  0  0  0  0  0
   52.5930   31.2110   53.0910 C   0  0  0  0  0  0  0  0  0  0  0  0
   53.7200   30.2300   53.0680 C   0  0  0  0  0  0  0  0  0  0  0  0
   54.9250   30.3990   52.4130 C   0  0  0  0  0  0  0  0  0  0  0  0
   55.6630   29.2680   52.6930 C   0  0  0  0  0  0  0  0  0  0  0  0
   54.8620   28.4880   53.5020 C   0  0  0  0  0  0  0  0  0  0  0  0
   55.3350   26.7900   54.2270 Br  0  0  0  0  0  0  0  0  0  0  0  0
   53.7120   29.0850   53.7120 O   0  0  0  0  0  0  0  0  0  0  0  0
   51.0770   32.2340   51.2900 C   0  0  0  0  0  0  0  0  0  0  0  0
   50.6280   33.3380   52.0040 O   0  0  0  0  0  0  0  0  0  0  0  0
   50.7400   31.9660   50.0220 N   0  0  0  0  0  0  0  0  0  0  0  0
   52.9833   32.2090   53.3392 H   0  0  0  0  0  0  0  0  0  0  0  0
   51.8580   30.9001   53.8480 H   0  0  0  0  0  0  0  0  0  0  0  0
   55.2317   31.2569   51.7966 H   0  0  0  0  0  0  0  0  0  0  0  0
   56.6799   29.0357   52.3437 H   0  0  0  0  0  0  0  0  0  0  0  0
   50.1110   32.5170   49.3950 H   0  0  0  0  0  0  0  0  0  0  0  0
  1  2  2  0
  2  3  1  0
  3  4  1  0
  4  5  1  0
  5  6  1  0
  6  7  2  0
  7  8  1  0
  8  9  2  0
  9 10  1  0
  9 11  1  0
  4 12  2  0
 12 13  1  0
 12 14  1  0
 14  2  1  0
 11  6  1  0
  5 15  1  0
  5 16  1  0
  7 17  1  0
  8 18  1  0
 14 19  1  0
M  CHG  2   3  -1  13  -1
M  END
>  <UniqueID>  (57) 
51

>  <SMILES>  (57) 
O=c1[n-]c(Cc2ccc(Br)o2)c([O-])[nH]1

>  <Energy>  (57) 
73.96344375339132

>  <Genealogy>  (57) 
O=c1[n-]c(Cc2ccc(Br)o2)c([O-])[nH]1 (protonated)
O=c1[n-]c(Cc2ccc(Br)o2)c([O-])[nH]1 (3D coordinates assigned)
O=c1[n-]c(Cc2ccc(Br)o2)c([O-])[nH]1 (optimized conformer: 73.96344375339132 kcal/mol)

>  <smiles>  (57) 
O=c1[nH]c(O)c(Cc2ccc(Br)o2)[nH]1

>  <score_type>  (57) 
oracle

>  <origin>  (57) 
adg

>  <m_score__min__energy>  (57) 
-12.5

>  <m_primary>  (57) 
energy

$$$$
57:0
     RDKit          3D

 39 41  0  0  0  0  0  0  0  0999 V2000
   54.5980   26.1060   45.8180 N   0  0  0  0  0  0  0  0  0  0  0  0
   55.8710   25.7140   46.3230 C   0  0  0  0  0  0  0  0  0  0  0  0
   56.0550   24.5200   46.6850 O   0  0  0  0  0  0  0  0  0  0  0  0
   56.9610   26.7040   46.4170 C   0  0  0  0  0  0  0  0  0  0  0  0
   58.0660   26.4940   47.2550 C   0  0  0  0  0  0  0  0  0  0  0  0
   59.0800   27.4690   47.3290 C   0  0  0  0  0  0  0  0  0  0  0  0
   60.1230   27.3420   48.1020 N   0  0  0  0  0  0  0  0  0  0  0  0
   60.2970   27.8840   49.4510 C   0  0  0  0  0  0  0  0  0  0  0  0
   59.8480   29.3100   49.5100 C   0  0  0  0  0  0  0  0  0  0  0  0
   58.7450   29.7210   50.1720 N   0  0  0  0  0  0  0  0  0  0  0  0
   58.5430   31.0600   50.0380 C   0  0  0  0  0  0  0  0  0  0  0  0
   59.4830   31.7230   49.2570 C   0  0  0  0  0  0  0  0  0  0  0  0
   60.6000   30.5890   48.7170 S   0  0  0  0  0  0  0  0  0  0  0  0
   58.9650   28.6260   46.5490 C   0  0  0  0  0  0  0  0  0  0  0  0
   57.8540   28.8020   45.7080 C   0  0  0  0  0  0  0  0  0  0  0  0
   57.6940   30.0180   44.8700 C   0  0  0  0  0  0  0  0  0  0  0  0
   57.4390   29.8890   43.4920 C   0  0  0  0  0  0  0  0  0  0  0  0
   57.2960   31.0220   42.6880 C   0  0  0  0  0  0  0  0  0  0  0  0
   57.4120   32.2970   43.2430 C   0  0  0  0  0  0  0  0  0  0  0  0
   57.6700   32.4460   44.6120 C   0  0  0  0  0  0  0  0  0  0  0  0
   57.8490   34.0530   45.3090 S   0  0  0  0  0  0  0  0  0  0  0  0
   57.8700   33.9400   47.0340 N   0  0  0  0  0  0  0  0  0  0  0  0
   59.1310   34.6770   44.8330 O   0  0  0  0  0  0  0  0  0  0  0  0
   56.7020   34.9240   44.8780 O   0  0  0  0  0  0  0  0  0  0  0  0
   57.8210   31.3100   45.4190 C   0  0  0  0  0  0  0  0  0  0  0  0
   56.8890   27.8420   45.6770 N   0  0  0  0  0  0  0  0  0  0  0  0
   53.9620   26.7150   46.3790 H   0  0  0  0  0  0  0  0  0  0  0  0
   58.1404   25.5727   47.8513 H   0  0  0  0  0  0  0  0  0  0  0  0
   59.7019   27.2885   50.1589 H   0  0  0  0  0  0  0  0  0  0  0  0
   61.3637   27.8379   49.7158 H   0  0  0  0  0  0  0  0  0  0  0  0
   57.6978   31.5798   50.5128 H   0  0  0  0  0  0  0  0  0  0  0  0
   59.4938   32.7997   49.0322 H   0  0  0  0  0  0  0  0  0  0  0  0
   59.7464   29.3988   46.5950 H   0  0  0  0  0  0  0  0  0  0  0  0
   57.3516   28.8879   43.0446 H   0  0  0  0  0  0  0  0  0  0  0  0
   57.0912   30.9088   41.6132 H   0  0  0  0  0  0  0  0  0  0  0  0
   57.3008   33.1861   42.6050 H   0  0  0  0  0  0  0  0  0  0  0  0
   58.0600   32.9400   47.2700 H   0  0  0  0  0  0  0  0  0  0  0  0
   56.9010   34.1480   47.3640 H   0  0  0  0  0  0  0  0  0  0  0  0
   58.0406   31.4278   46.4904 H   0  0  0  0  0  0  0  0  0  0  0  0
  1  2  1  0
  2  3  2  0
  2  4  1  0
  4  5  2  0
  5  6  1  0
  6  7  2  3
  7  8  1  0
  8  9  1  0
  9 10  2  0
 10 11  1  0
 11 12  2  0
 12 13  1  0
  6 14  1  0
 14 15  2  0
 15 16  1  0
 16 17  2  0
 17 18  1  0
 18 19  2  0
 19 20  1  0
 20 21  1  0
 21 22  1  0
 21 23  2  0
 21 24  2  0
 20 25  2  0
 15 26  1  0
 26  4  1  0
 13  9  1  0
 25 16  1  0
  1 27  1  0
  5 28  1  0
  8 29  1  0
  8 30  1  0
 11 31  1  0
 12 32  1  0
 14 33  1  0
 17 34  1  0
 18 35  1  0
 19 36  1  0
 22 37  1  0
 22 38  1  0
 25 39  1  0
M  CHG  2   1  -1  26  -1
M  END
>  <UniqueID>  (58) 
52

>  <SMILES>  (58) 
[NH-]C(=O)c1cc(=NCc2nccs2)cc(-c2cccc(S(N)(=O)=O)c2)[n-]1

>  <Energy>  (58) 
73.85073699954616

>  <Genealogy>  (58) 
[NH-]C(=O)c1cc(=NCc2nccs2)cc(-c2cccc(S(N)(=O)=O)c2)[n-]1 (protonated)
[NH-]C(=O)c1cc(=NCc2nccs2)cc(-c2cccc(S(N)(=O)=O)c2)[n-]1 (3D coordinates assigned)
[NH-]C(=O)c1cc(=NCc2nccs2)cc(-c2cccc(S(N)(=O)=O)c2)[n-]1 (optimized conformer: 73.85073699954616 kcal/mol)

>  <smiles>  (58) 
NC(=O)c1cc(=NCc2nccs2)cc(-c2cccc(S(N)(=O)=O)c2)[nH]1

>  <score_type>  (58) 
oracle

>  <origin>  (58) 
adg

>  <m_score__min__energy>  (58) 
-12.970000000000001

>  <m_primary>  (58) 
energy

$$$$
58:0
     RDKit          3D

 24 25  0  0  0  0  0  0  0  0999 V2000
   64.1080   32.4890   46.7540 N   0  0  0  0  0  0  0  0  0  0  0  0
   63.1740   32.7930   48.1760 S   0  0  0  0  0  0  0  0  0  0  0  0
   62.9320   31.4980   48.8990 O   0  0  0  0  0  0  0  0  0  0  0  0
   63.9200   33.7290   49.0840 O   0  0  0  0  0  0  0  0  0  0  0  0
   61.6390   33.5150   47.7300 C   0  0  0  0  0  0  0  0  0  0  0  0
   61.1390   33.6370   46.4430 C   0  0  0  0  0  0  0  0  0  0  0  0
   59.8890   34.2670   46.4070 C   0  0  0  0  0  0  0  0  0  0  0  0
   58.9890   34.5570   44.8890 S   0  0  0  0  0  0  0  0  0  0  0  0
   58.1990   32.9540   44.9580 C   0  0  0  0  0  0  0  0  0  0  0  0
   58.0630   32.2350   46.0920 N   0  0  0  0  0  0  0  0  0  0  0  0
   57.4460   31.0710   45.9020 N   0  0  0  0  0  0  0  0  0  0  0  0
   57.1000   30.8560   44.6120 C   0  0  0  0  0  0  0  0  0  0  0  0
   56.3420   29.6570   44.1510 C   0  0  0  0  0  0  0  0  0  0  0  0
   55.4590   29.2520   45.1570 O   0  0  0  0  0  0  0  0  0  0  0  0
   57.5350   32.1570   43.6330 S   0  0  0  0  0  0  0  0  0  0  0  0
   59.4100   34.6450   47.6560 C   0  0  0  0  0  0  0  0  0  0  0  0
   60.5430   34.1890   48.8120 S   0  0  0  0  0  0  0  0  0  0  0  0
   64.4520   31.5030   46.8180 H   0  0  0  0  0  0  0  0  0  0  0  0
   64.9500   33.1050   46.8030 H   0  0  0  0  0  0  0  0  0  0  0  0
   61.6668   33.2779   45.5472 H   0  0  0  0  0  0  0  0  0  0  0  0
   55.7740   29.9083   43.2431 H   0  0  0  0  0  0  0  0  0  0  0  0
   57.0448   28.8408   43.9278 H   0  0  0  0  0  0  0  0  0  0  0  0
   55.7510   29.7200   45.9840 H   0  0  0  0  0  0  0  0  0  0  0  0
   58.4552   35.1542   47.8539 H   0  0  0  0  0  0  0  0  0  0  0  0
  1  2  1  0
  2  3  2  0
  2  4  2  0
  2  5  1  0
  5  6  2  0
  6  7  1  0
  7  8  1  0
  8  9  1  0
  9 10  2  0
 10 11  1  0
 11 12  2  0
 12 13  1  0
 13 14  1  0
 12 15  1  0
  7 16  2  0
 16 17  1  0
 17  5  1  0
 15  9  1  0
  1 18  1  0
  1 19  1  0
  6 20  1  0
 13 21  1  0
 13 22  1  0
 14 23  1  0
 16 24  1  0
M  END
>  <UniqueID>  (59) 
53

>  <SMILES>  (59) 
NS(=O)(=O)c1cc(Sc2nnc(CO)s2)cs1

>  <Energy>  (59) 
76.36366753947901

>  <Genealogy>  (59) 
NS(=O)(=O)c1cc(Sc2nnc(CO)s2)cs1 (3D coordinates assigned)
NS(=O)(=O)c1cc(Sc2nnc(CO)s2)cs1 (optimized conformer: 76.36366753947901 kcal/mol)

>  <smiles>  (59) 
NS(=O)(=O)c1cc(Sc2nnc(CO)s2)cs1

>  <score_type>  (59) 
oracle

>  <origin>  (59) 
adg

>  <m_score__min__energy>  (59) 
-8.1899999999999995

>  <m_primary>  (59) 
energy

$$$$
59:0
     RDKit          3D

 30 33  0  0  0  0  0  0  0  0999 V2000
   57.7640   32.5500   42.2830 O   0  0  0  0  0  0  0  0  0  0  0  0
   57.9300   31.8680   43.3460 C   0  0  0  0  0  0  0  0  0  0  0  0
   57.7450   30.5270   43.3660 N   0  0  0  0  0  0  0  0  0  0  0  0
   57.9500   29.9200   44.5430 C   0  0  0  0  0  0  0  0  0  0  0  0
   57.7710   28.4550   44.6580 C   0  0  0  0  0  0  0  0  0  0  0  0
   57.2420   27.8710   45.7840 C   0  0  0  0  0  0  0  0  0  0  0  0
   57.0550   26.5180   45.9400 C   0  0  0  0  0  0  0  0  0  0  0  0
   57.4240   25.7040   44.8930 C   0  0  0  0  0  0  0  0  0  0  0  0
   57.1940   23.8190   45.0390 Br  0  0  0  0  0  0  0  0  0  0  0  0
   57.9540   26.2780   43.7610 C   0  0  0  0  0  0  0  0  0  0  0  0
   58.1350   27.6510   43.6240 C   0  0  0  0  0  0  0  0  0  0  0  0
   58.3160   30.5400   45.6700 N   0  0  0  0  0  0  0  0  0  0  0  0
   58.5180   31.9090   45.7060 C   0  0  0  0  0  0  0  0  0  0  0  0
   58.2940   32.4910   44.4630 C   0  0  0  0  0  0  0  0  0  0  0  0
   58.6160   34.2760   44.7440 S   0  0  0  0  0  0  0  0  0  0  0  0
   59.0270   34.0310   46.5480 C   0  0  0  0  0  0  0  0  0  0  0  0
   59.3880   34.9490   47.4810 C   0  0  0  0  0  0  0  0  0  0  0  0
   59.6410   34.4960   48.7650 C   0  0  0  0  0  0  0  0  0  0  0  0
   59.5080   33.1880   48.9780 N   0  0  0  0  0  0  0  0  0  0  0  0
   59.1550   32.2760   48.0700 C   0  0  0  0  0  0  0  0  0  0  0  0
   59.0770   31.0840   48.4400 O   0  0  0  0  0  0  0  0  0  0  0  0
   58.8790   32.6580   46.7370 C   0  0  0  0  0  0  0  0  0  0  0  0
   57.4620   30.0680   42.4880 H   0  0  0  0  0  0  0  0  0  0  0  0
   56.9490   28.5294   46.6150 H   0  0  0  0  0  0  0  0  0  0  0  0
   56.6276   26.1025   46.8645 H   0  0  0  0  0  0  0  0  0  0  0  0
   58.2477   25.6231   42.9274 H   0  0  0  0  0  0  0  0  0  0  0  0
   58.5616   28.0747   42.7029 H   0  0  0  0  0  0  0  0  0  0  0  0
   59.4764   36.0154   47.2259 H   0  0  0  0  0  0  0  0  0  0  0  0
   59.9377   35.1837   49.5706 H   0  0  0  0  0  0  0  0  0  0  0  0
   59.7040   32.8540   49.9620 H   0  0  0  0  0  0  0  0  0  0  0  0
  1  2  2  0
  2  3  1  0
  3  4  1  0
  4  5  1  0
  5  6  2  0
  6  7  1  0
  7  8  2  0
  8  9  1  0
  8 10  1  0
 10 11  2  0
  4 12  2  0
 12 13  1  0
 13 14  2  0
 14 15  1  0
 15 16  1  0
 16 17  1  0
 17 18  2  0
 18 19  1  0
 19 20  1  0
 20 21  2  0
 20 22  1  0
 14  2  1  0
 22 16  2  0
 11  5  1  0
 22 13  1  0
  3 23  1  0
  6 24  1  0
  7 25  1  0
 10 26  1  0
 11 27  1  0
 17 28  1  0
 18 29  1  0
 19 30  1  0
M  END
>  <smiles>  (60) 
O=c1[nH]c(-c2ccc(Br)cc2)nc2c1sc1cc[nH]c(=O)c12

>  <score_type>  (60) 
oracle

>  <origin>  (60) 
adg

>  <m_score__min__energy>  (60) 
-7.7000000000000002

>  <m_primary>  (60) 
energy

$$$$
60:0
     RDKit          3D

 49 52  0  0  0  0  0  0  0  0999 V2000
   59.8168   36.2494   47.1552 H   0  0  0  0  0  0  0  0  0  0  0  0
   59.6220   35.3200   46.6000 C   0  0  0  0  0  0  0  0  0  0  0  0
   59.0800   35.2120   45.0110 S   0  0  0  0  0  0  0  0  0  0  0  0
   59.0880   33.5350   45.0030 C   0  0  0  0  0  0  0  0  0  0  0  0
   58.7070   32.8200   43.9850 N   0  0  0  0  0  0  0  0  0  0  0  0
   57.8820   31.6470   44.0380 C   0  0  0  0  0  0  0  0  0  0  0  0
   57.8220   30.8490   45.1950 C   0  0  0  0  0  0  0  0  0  0  0  0
   58.3864   31.1400   46.0932 H   0  0  0  0  0  0  0  0  0  0  0  0
   57.0440   29.6840   45.2040 C   0  0  0  0  0  0  0  0  0  0  0  0
   56.9918   29.0663   46.1127 H   0  0  0  0  0  0  0  0  0  0  0  0
   56.3330   29.3040   44.0600 C   0  0  0  0  0  0  0  0  0  0  0  0
   55.7124   28.3959   44.0732 H   0  0  0  0  0  0  0  0  0  0  0  0
   56.4130   30.0810   42.9000 C   0  0  0  0  0  0  0  0  0  0  0  0
   55.8590   29.7803   41.9985 H   0  0  0  0  0  0  0  0  0  0  0  0
   57.1970   31.2410   42.8840 C   0  0  0  0  0  0  0  0  0  0  0  0
   57.2758   31.8362   41.9623 H   0  0  0  0  0  0  0  0  0  0  0  0
   59.4890   33.0340   46.1970 N   0  0  0  0  0  0  0  0  0  0  0  0
   59.5390   32.0190   46.4330 H   0  0  0  0  0  0  0  0  0  0  0  0
   59.7810   34.0220   47.0900 C   0  0  0  0  0  0  0  0  0  0  0  0
   60.2600   33.7270   48.4790 C   0  0  0  0  0  0  0  0  0  0  0  0
   59.6602   34.3044   49.1979 H   0  0  0  0  0  0  0  0  0  0  0  0
   61.3209   34.0079   48.5540 H   0  0  0  0  0  0  0  0  0  0  0  0
   60.1260   32.2690   48.7870 C   0  0  0  0  0  0  0  0  0  0  0  0
   59.3820   31.8940   49.7330 O   0  0  0  0  0  0  0  0  0  0  0  0
   60.9180   31.3220   48.0590 N   0  0  0  0  0  0  0  0  0  0  0  0
   60.4630   30.0720   47.5190 C   0  0  0  0  0  0  0  0  0  0  0  0
   59.7570   29.1960   48.3530 C   0  0  0  0  0  0  0  0  0  0  0  0
   59.5661   29.4748   49.3998 H   0  0  0  0  0  0  0  0  0  0  0  0
   59.2930   27.9710   47.8670 C   0  0  0  0  0  0  0  0  0  0  0  0
   58.7275   27.2969   48.5271 H   0  0  0  0  0  0  0  0  0  0  0  0
   59.5470   27.6000   46.5400 C   0  0  0  0  0  0  0  0  0  0  0  0
   58.9050   26.0860   45.9110 S   0  0  0  0  0  0  0  0  0  0  0  0
   58.4780   26.3010   44.4860 O   0  0  0  0  0  0  0  0  0  0  0  0
   59.9610   25.0180   45.9710 O   0  0  0  0  0  0  0  0  0  0  0  0
   57.5450   25.5900   46.8670 N   0  0  0  0  0  0  0  0  0  0  0  0
   56.3480   25.4660   46.3840 C   0  0  0  0  0  0  0  0  0  0  0  0
   55.4800   26.4840   46.2240 N   0  0  0  0  0  0  0  0  0  0  0  0
   54.3990   25.9630   45.7200 O   0  0  0  0  0  0  0  0  0  0  0  0
   54.5340   24.6670   45.5460 C   0  0  0  0  0  0  0  0  0  0  0  0
   53.4730   23.7700   45.0090 C   0  0  0  0  0  0  0  0  0  0  0  0
   52.9263   23.3078   45.8442 H   0  0  0  0  0  0  0  0  0  0  0  0
   52.7747   24.3558   44.3931 H   0  0  0  0  0  0  0  0  0  0  0  0
   53.9344   22.9840   44.3931 H   0  0  0  0  0  0  0  0  0  0  0  0
   55.7890   24.2800   45.9670 C   0  0  0  0  0  0  0  0  0  0  0  0
   56.2327   23.2735   45.9689 H   0  0  0  0  0  0  0  0  0  0  0  0
   60.2800   28.4600   45.7090 C   0  0  0  0  0  0  0  0  0  0  0  0
   60.4934   28.1666   44.6705 H   0  0  0  0  0  0  0  0  0  0  0  0
   60.7410   29.6880   46.1930 C   0  0  0  0  0  0  0  0  0  0  0  0
   61.3211   30.3544   45.5378 H   0  0  0  0  0  0  0  0  0  0  0  0
  1  2  1  0
  2  3  1  0
  3  4  1  0
  4  5  2  3
  5  6  1  0
  6  7  2  0
  7  8  1  0
  7  9  1  0
  9 10  1  0
  9 11  2  0
 11 12  1  0
 11 13  1  0
 13 14  1  0
 13 15  2  0
 15 16  1  0
  4 17  1  0
 17 18  1  0
 17 19  1  0
 19 20  1  0
 20 21  1  0
 20 22  1  0
 20 23  1  0
 23 24  2  0
 23 25  1  0
 25 26  1  0
 26 27  2  0
 27 28  1  0
 27 29  1  0
 29 30  1  0
 29 31  2  0
 31 32  1  0
 32 33  2  0
 32 34  2  0
 32 35  1  0
 35 36  2  0
 36 37  1  0
 37 38  1  0
 38 39  1  0
 39 40  1  0
 40 41  1  0
 40 42  1  0
 40 43  1  0
 39 44  2  0
 44 45  1  0
 31 46  1  0
 46 47  1  0
 46 48  2  0
 48 49  1  0
 19  2  2  0
 48 26  1  0
 15  6  1  0
 44 36  1  0
M  CHG  2  25  -1  37  -1
M  END
>  <UniqueID>  (61) 
54

>  <SMILES>  (61) 
Cc1c/c(=N/S(=O)(=O)c2ccc([N-]C(=O)Cc3csc(=Nc4ccccc4)[nH]3)cc2)[n-]o1

>  <Energy>  (61) 
125.22313625149712

>  <Genealogy>  (61) 
Cc1cc(=NS(=O)(=O)c2ccc([N-]C(=O)Cc3csc(=Nc4ccccc4)[nH]3)cc2)[n-]o1 (protonated)
Cc1c/c(=N/S(=O)(=O)c2ccc([N-]C(=O)Cc3csc(=Nc4ccccc4)[nH]3)cc2)[n-]o1 (cis-trans isomerization)
Cc1c/c(=N/S(=O)(=O)c2ccc([N-]C(=O)Cc3csc(=Nc4ccccc4)[nH]3)cc2)[n-]o1 (3D coordinates assigned)
Cc1c/c(=N/S(=O)(=O)c2ccc([N-]C(=O)Cc3csc(=Nc4ccccc4)[nH]3)cc2)[n-]o1 (optimized conformer: 125.22313625149712 kcal/mol)

>  <smiles>  (61) 
Cc1cc(=NS(=O)(=O)c2ccc(NC(=O)Cc3csc(=Nc4ccccc4)[nH]3)cc2)[nH]o1

>  <score_type>  (61) 
oracle

>  <origin>  (61) 
adg

>  <m_score__min__energy>  (61) 
-13.029999999999999

>  <m_primary>  (61) 
energy

$$$$
61:0
     RDKit          3D

 50 53  0  0  0  0  0  0  0  0999 V2000
   57.1690   33.7370   46.2050 C   0  0  0  0  0  0  0  0  0  0  0  0
   58.8740   34.0440   45.7910 S   0  0  0  0  0  0  0  0  0  0  0  0
   59.0920   33.8920   44.3120 O   0  0  0  0  0  0  0  0  0  0  0  0
   59.2170   35.4520   46.1880 O   0  0  0  0  0  0  0  0  0  0  0  0
   59.9070   32.9540   46.6600 N   0  0  0  0  0  0  0  0  0  0  0  0
   59.5110   32.1170   47.7560 C   0  0  0  0  0  0  0  0  0  0  0  0
   59.7460   30.7400   47.6640 C   0  0  0  0  0  0  0  0  0  0  0  0
   59.3830   29.8860   48.7090 C   0  0  0  0  0  0  0  0  0  0  0  0
   58.7860   30.4010   49.8720 C   0  0  0  0  0  0  0  0  0  0  0  0
   58.3830   29.5450   50.9540 N   0  0  0  0  0  0  0  0  0  0  0  0
   59.0690   29.4550   52.2130 C   0  0  0  0  0  0  0  0  0  0  0  0
   60.1270   30.1100   52.4180 O   0  0  0  0  0  0  0  0  0  0  0  0
   58.5520   28.5810   53.2800 C   0  0  0  0  0  0  0  0  0  0  0  0
   59.4510   27.8890   54.1210 C   0  0  0  0  0  0  0  0  0  0  0  0
   58.9760   27.0280   55.1310 C   0  0  0  0  0  0  0  0  0  0  0  0
   57.5970   26.8490   55.3230 C   0  0  0  0  0  0  0  0  0  0  0  0
   56.7220   27.5470   54.4940 C   0  0  0  0  0  0  0  0  0  0  0  0
   57.1780   28.3980   53.5040 C   0  0  0  0  0  0  0  0  0  0  0  0
   55.9960   29.0330   52.9090 C   0  0  0  0  0  0  0  0  0  0  0  0
   56.0090   29.9050   52.0010 O   0  0  0  0  0  0  0  0  0  0  0  0
   54.8040   28.5320   53.5210 N   0  0  0  0  0  0  0  0  0  0  0  0
   53.4450   28.9200   53.2570 C   0  0  0  0  0  0  0  0  0  0  0  0
   52.3790   28.1760   53.7860 C   0  0  0  0  0  0  0  0  0  0  0  0
   51.0580   28.5520   53.5310 C   0  0  0  0  0  0  0  0  0  0  0  0
   50.7890   29.6780   52.7500 C   0  0  0  0  0  0  0  0  0  0  0  0
   51.8420   30.4290   52.2120 C   0  0  0  0  0  0  0  0  0  0  0  0
   51.5010   31.8590   51.2420 S   0  0  0  0  0  0  0  0  0  0  0  0
   51.0250   31.4480   49.8770 O   0  0  0  0  0  0  0  0  0  0  0  0
   52.7490   32.6840   51.0910 O   0  0  0  0  0  0  0  0  0  0  0  0
   50.3130   32.7750   51.9970 O   0  0  0  0  0  0  0  0  0  0  0  0
   53.1670   30.0520   52.4720 C   0  0  0  0  0  0  0  0  0  0  0  0
   55.2670   27.6090   54.5110 C   0  0  0  0  0  0  0  0  0  0  0  0
   54.5180   26.9940   55.3170 O   0  0  0  0  0  0  0  0  0  0  0  0
   58.5220   31.7750   49.9500 C   0  0  0  0  0  0  0  0  0  0  0  0
   58.8880   32.6310   48.9070 C   0  0  0  0  0  0  0  0  0  0  0  0
   57.0553   33.7165   47.2989 H   0  0  0  0  0  0  0  0  0  0  0  0
   56.5402   34.5364   45.7859 H   0  0  0  0  0  0  0  0  0  0  0  0
   56.8586   32.7685   45.7859 H   0  0  0  0  0  0  0  0  0  0  0  0
   60.2203   30.3267   46.7617 H   0  0  0  0  0  0  0  0  0  0  0  0
   59.5656   28.8049   48.6206 H   0  0  0  0  0  0  0  0  0  0  0  0
   57.4830   29.0240   50.8460 H   0  0  0  0  0  0  0  0  0  0  0  0
   60.5344   28.0234   53.9864 H   0  0  0  0  0  0  0  0  0  0  0  0
   59.6909   26.4927   55.7732 H   0  0  0  0  0  0  0  0  0  0  0  0
   57.2180   26.1762   56.1064 H   0  0  0  0  0  0  0  0  0  0  0  0
   52.5851   27.2908   54.4056 H   0  0  0  0  0  0  0  0  0  0  0  0
   50.2286   27.9604   53.9459 H   0  0  0  0  0  0  0  0  0  0  0  0
   49.7479   29.9759   52.5568 H   0  0  0  0  0  0  0  0  0  0  0  0
   53.9950   30.6465   52.0586 H   0  0  0  0  0  0  0  0  0  0  0  0
   58.0220   32.1840   50.8404 H   0  0  0  0  0  0  0  0  0  0  0  0
   58.6880   33.7097   48.9870 H   0  0  0  0  0  0  0  0  0  0  0  0
  1  2  1  0
  2  3  2  0
  2  4  2  0
  2  5  1  0
  5  6  1  0
  6  7  2  0
  7  8  1  0
  8  9  2  0
  9 10  1  0
 10 11  1  0
 11 12  2  0
 11 13  1  0
 13 14  2  0
 14 15  1  0
 15 16  2  0
 16 17  1  0
 17 18  2  0
 18 19  1  0
 19 20  2  0
 19 21  1  0
 21 22  1  0
 22 23  2  0
 23 24  1  0
 24 25  2  0
 25 26  1  0
 26 27  1  0
 27 28  2  0
 27 29  2  0
 27 30  1  0
 26 31  2  0
 21 32  1  0
 32 33  2  0
  9 34  1  0
 34 35  2  0
 35  6  1  0
 18 13  1  0
 31 22  1  0
 32 17  1  0
  1 36  1  0
  1 37  1  0
  1 38  1  0
  7 39  1  0
  8 40  1  0
 10 41  1  0
 14 42  1  0
 15 43  1  0
 16 44  1  0
 23 45  1  0
 24 46  1  0
 25 47  1  0
 31 48  1  0
 34 49  1  0
 35 50  1  0
M  CHG  2   5  -1  30  -1
M  END
>  <UniqueID>  (62) 
55

>  <SMILES>  (62) 
CS(=O)(=O)[N-]c1ccc(NC(=O)c2cccc3c2C(=O)N(c2cccc(S(=O)(=O)[O-])c2)C3=O)cc1

>  <Energy>  (62) 
100.52356955080995

>  <Genealogy>  (62) 
CS(=O)(=O)[N-]c1ccc(NC(=O)c2cccc3c2C(=O)N(c2cccc(S(=O)(=O)[O-])c2)C3=O)cc1 (protonated)
CS(=O)(=O)[N-]c1ccc(NC(=O)c2cccc3c2C(=O)N(c2cccc(S(=O)(=O)[O-])c2)C3=O)cc1 (3D coordinates assigned)
CS(=O)(=O)[N-]c1ccc(NC(=O)c2cccc3c2C(=O)N(c2cccc(S(=O)(=O)[O-])c2)C3=O)cc1 (nonaromatic ring conformer: 100.52356955080995 kcal/mol)

>  <smiles>  (62) 
CS(=O)(=O)Nc1ccc(NC(=O)c2cccc3c2C(=O)N(c2cccc(S(=O)(=O)O)c2)C3=O)cc1

>  <score_type>  (62) 
oracle

>  <origin>  (62) 
adg

>  <m_score__min__energy>  (62) 
-14.82

>  <m_primary>  (62) 
energy

$$$$
62:0
     RDKit          3D

 28 29  0  0  0  0  0  0  0  0999 V2000
   59.1660   30.1640   47.4560 O   0  0  0  0  0  0  0  0  0  0  0  0
   58.7040   30.4770   46.3250 C   0  0  0  0  0  0  0  0  0  0  0  0
   58.2900   29.4430   45.4160 N   0  0  0  0  0  0  0  0  0  0  0  0
   58.5440   28.0540   45.6780 C   0  0  0  0  0  0  0  0  0  0  0  0
   59.8700   27.6470   45.8840 C   0  0  0  0  0  0  0  0  0  0  0  0
   60.1760   26.2980   46.0710 C   0  0  0  0  0  0  0  0  0  0  0  0
   59.1610   25.3430   46.0590 C   0  0  0  0  0  0  0  0  0  0  0  0
   57.8330   25.7350   45.8810 C   0  0  0  0  0  0  0  0  0  0  0  0
   57.5000   27.0920   45.7090 C   0  0  0  0  0  0  0  0  0  0  0  0
   56.0680   27.4670   45.6230 C   0  0  0  0  0  0  0  0  0  0  0  0
   55.1680   26.6680   45.9890 O   0  0  0  0  0  0  0  0  0  0  0  0
   55.6980   28.6970   45.0910 O   0  0  0  0  0  0  0  0  0  0  0  0
   58.5810   31.9080   45.9590 C   0  0  0  0  0  0  0  0  0  0  0  0
   57.5060   32.3670   45.1720 C   0  0  0  0  0  0  0  0  0  0  0  0
   57.4070   33.7180   44.8270 C   0  0  0  0  0  0  0  0  0  0  0  0
   58.3770   34.6260   45.2570 C   0  0  0  0  0  0  0  0  0  0  0  0
   59.4540   34.1830   46.0290 C   0  0  0  0  0  0  0  0  0  0  0  0
   59.5590   32.8310   46.3770 C   0  0  0  0  0  0  0  0  0  0  0  0
   57.5740   29.6750   44.6910 H   0  0  0  0  0  0  0  0  0  0  0  0
   60.6751   28.3964   45.8983 H   0  0  0  0  0  0  0  0  0  0  0  0
   61.2197   25.9882   46.2281 H   0  0  0  0  0  0  0  0  0  0  0  0
   59.4066   24.2788   46.1900 H   0  0  0  0  0  0  0  0  0  0  0  0
   57.0378   24.9750   45.8751 H   0  0  0  0  0  0  0  0  0  0  0  0
   56.7396   31.6574   44.8268 H   0  0  0  0  0  0  0  0  0  0  0  0
   56.5623   34.0670   44.2148 H   0  0  0  0  0  0  0  0  0  0  0  0
   58.2932   35.6893   44.9881 H   0  0  0  0  0  0  0  0  0  0  0  0
   60.2204   34.8975   46.3638 H   0  0  0  0  0  0  0  0  0  0  0  0
   60.4115   32.4873   46.9812 H   0  0  0  0  0  0  0  0  0  0  0  0
  1  2  2  0
  2  3  1  0
  3  4  1  0
  4  5  2  0
  5  6  1  0
  6  7  2  0
  7  8  1  0
  8  9  2  0
  9 10  1  0
 10 11  2  0
 10 12  1  0
  2 13  1  0
 13 14  2  0
 14 15  1  0
 15 16  2  0
 16 17  1  0
 17 18  2  0
  9  4  1  0
 18 13  1  0
  3 19  1  0
  5 20  1  0
  6 21  1  0
  7 22  1  0
  8 23  1  0
 14 24  1  0
 15 25  1  0
 16 26  1  0
 17 27  1  0
 18 28  1  0
M  CHG  1  12  -1
M  END
>  <UniqueID>  (63) 
56

>  <SMILES>  (63) 
O=C(Nc1ccccc1C(=O)[O-])c1ccccc1

>  <Energy>  (63) 
39.96286227096839

>  <Genealogy>  (63) 
O=C(Nc1ccccc1C(=O)[O-])c1ccccc1 (protonated)
O=C(Nc1ccccc1C(=O)[O-])c1ccccc1 (3D coordinates assigned)
O=C(Nc1ccccc1C(=O)[O-])c1ccccc1 (optimized conformer: 39.96286227096839 kcal/mol)

>  <smiles>  (63) 
O=C(Nc1ccccc1C(=O)O)c1ccccc1

>  <score_type>  (63) 
oracle

>  <origin>  (63) 
adg

>  <m_score__min__energy>  (63) 
-9.2400000000000002

>  <m_primary>  (63) 
energy

$$$$
63:0
     RDKit          3D

 62 65  0  0  0  0  0  0  0  0999 V2000
   60.2767   34.6558   44.5848 H   0  0  0  0  0  0  0  0  0  0  0  0
   59.5510   34.1570   45.2440 C   0  0  0  0  0  0  0  0  0  0  0  0
   58.5000   33.4190   44.6930 C   0  0  0  0  0  0  0  0  0  0  0  0
   58.3864   33.3605   43.6004 H   0  0  0  0  0  0  0  0  0  0  0  0
   57.5900   32.7530   45.5250 C   0  0  0  0  0  0  0  0  0  0  0  0
   56.5410   31.9840   44.9220 N   0  0  0  0  0  0  0  0  0  0  0  0
   56.6670   30.6610   44.3930 C   0  0  0  0  0  0  0  0  0  0  0  0
   56.9930   30.5150   43.1860 O   0  0  0  0  0  0  0  0  0  0  0  0
   56.4410   29.5180   45.2260 N   0  0  0  0  0  0  0  0  0  0  0  0
   57.4310   28.8040   45.9810 C   0  0  0  0  0  0  0  0  0  0  0  0
   57.3990   27.4060   45.9760 C   0  0  0  0  0  0  0  0  0  0  0  0
   56.6496   26.8779   45.3682 H   0  0  0  0  0  0  0  0  0  0  0  0
   58.3140   26.6770   46.7390 C   0  0  0  0  0  0  0  0  0  0  0  0
   58.2885   25.5774   46.7230 H   0  0  0  0  0  0  0  0  0  0  0  0
   59.2610   27.3400   47.5220 C   0  0  0  0  0  0  0  0  0  0  0  0
   59.9793   26.7607   48.1208 H   0  0  0  0  0  0  0  0  0  0  0  0
   59.3000   28.7430   47.5480 C   0  0  0  0  0  0  0  0  0  0  0  0
   60.2820   29.4590   48.4380 C   0  0  0  0  0  0  0  0  0  0  0  0
   59.8110   30.3703   48.8351 H   0  0  0  0  0  0  0  0  0  0  0  0
   61.1728   29.7156   47.8459 H   0  0  0  0  0  0  0  0  0  0  0  0
   60.7070   28.5690   49.6000 C   0  0  0  0  0  0  0  0  0  0  0  0
   60.4685   29.0684   50.5506 H   0  0  0  0  0  0  0  0  0  0  0  0
   60.1691   27.6111   49.5440 H   0  0  0  0  0  0  0  0  0  0  0  0
   61.7901   28.3852   49.5440 H   0  0  0  0  0  0  0  0  0  0  0  0
   58.3740   29.4710   46.7840 C   0  0  0  0  0  0  0  0  0  0  0  0
   58.3859   30.5705   46.8135 H   0  0  0  0  0  0  0  0  0  0  0  0
   57.7040   32.8900   46.9200 C   0  0  0  0  0  0  0  0  0  0  0  0
   56.9750   32.3967   47.5797 H   0  0  0  0  0  0  0  0  0  0  0  0
   58.7460   33.6550   47.4760 C   0  0  0  0  0  0  0  0  0  0  0  0
   58.9060   33.7920   48.8630 O   0  0  0  0  0  0  0  0  0  0  0  0
   59.0020   32.7370   49.7820 C   0  0  0  0  0  0  0  0  0  0  0  0
   57.9050   31.9220   50.1100 C   0  0  0  0  0  0  0  0  0  0  0  0
   56.9319   32.0796   49.6219 H   0  0  0  0  0  0  0  0  0  0  0  0
   58.0600   30.9110   51.0600 C   0  0  0  0  0  0  0  0  0  0  0  0
   56.9880   30.0910   51.3880 O   0  0  0  0  0  0  0  0  0  0  0  0
   59.2600   30.7330   51.6720 N   0  0  0  0  0  0  0  0  0  0  0  0
   60.3370   31.5210   51.3950 C   0  0  0  0  0  0  0  0  0  0  0  0
   61.4820   31.3360   51.9880 N   0  0  0  0  0  0  0  0  0  0  0  0
   62.7930   31.4980   51.4190 C   0  0  0  0  0  0  0  0  0  0  0  0
   63.8640   30.8080   51.9970 C   0  0  0  0  0  0  0  0  0  0  0  0
   63.6964   30.1888   52.8906 H   0  0  0  0  0  0  0  0  0  0  0  0
   65.1450   30.9000   51.4470 C   0  0  0  0  0  0  0  0  0  0  0  0
   65.9836   30.3662   51.9180 H   0  0  0  0  0  0  0  0  0  0  0  0
   65.3640   31.6670   50.3020 C   0  0  0  0  0  0  0  0  0  0  0  0
   66.3764   31.7451   49.8790 H   0  0  0  0  0  0  0  0  0  0  0  0
   64.2950   32.3390   49.6890 C   0  0  0  0  0  0  0  0  0  0  0  0
   64.5310   33.1790   48.4640 C   0  0  0  0  0  0  0  0  0  0  0  0
   64.9061   34.1668   48.7698 H   0  0  0  0  0  0  0  0  0  0  0  0
   65.2689   32.6733   47.8239 H   0  0  0  0  0  0  0  0  0  0  0  0
   63.0160   33.3860   47.5430 S   0  0  0  0  0  0  0  0  0  0  0  0
   62.0660   34.2340   48.3420 O   0  0  0  0  0  0  0  0  0  0  0  0
   63.3020   34.0660   46.2340 O   0  0  0  0  0  0  0  0  0  0  0  0
   62.2630   31.8030   47.2350 C   0  0  0  0  0  0  0  0  0  0  0  0
   62.0308   31.3148   48.1930 H   0  0  0  0  0  0  0  0  0  0  0  0
   61.3354   31.9437   46.6608 H   0  0  0  0  0  0  0  0  0  0  0  0
   62.9575   31.1721   46.6608 H   0  0  0  0  0  0  0  0  0  0  0  0
   63.0100   32.2490   50.2480 C   0  0  0  0  0  0  0  0  0  0  0  0
   62.1676   32.7685   49.7680 H   0  0  0  0  0  0  0  0  0  0  0  0
   60.2230   32.5290   50.4320 C   0  0  0  0  0  0  0  0  0  0  0  0
   61.0920   33.1570   50.1863 H   0  0  0  0  0  0  0  0  0  0  0  0
   59.6810   34.2620   46.6300 C   0  0  0  0  0  0  0  0  0  0  0  0
   60.5229   34.8249   47.0594 H   0  0  0  0  0  0  0  0  0  0  0  0
  1  2  1  0
  2  3  2  0
  3  4  1  0
  3  5  1  0
  5  6  1  0
  6  7  1  0
  7  8  2  0
  7  9  1  0
  9 10  1  0
 10 11  2  0
 11 12  1  0
 11 13  1  0
 13 14  1  0
 13 15  2  0
 15 16  1  0
 15 17  1  0
 17 18  1  0
 18 19  1  0
 18 20  1  0
 18 21  1  0
 21 22  1  0
 21 23  1  0
 21 24  1  0
 17 25  2  0
 25 26  1  0
  5 27  2  0
 27 28  1  0
 27 29  1  0
 29 30  1  0
 30 31  1  0
 31 32  1  0
 32 33  1  0
 32 34  2  0
 34 35  1  0
 34 36  1  0
 36 37  1  0
 37 38  2  0
 38 39  1  0
 39 40  2  0
 40 41  1  0
 40 42  1  0
 42 43  1  0
 42 44  2  0
 44 45  1  0
 44 46  1  0
 46 47  1  0
 47 48  1  0
 47 49  1  0
 47 50  1  0
 50 51  2  0
 50 52  2  0
 50 53  1  0
 53 54  1  0
 53 55  1  0
 53 56  1  0
 46 57  2  0
 57 58  1  0
 37 59  1  0
 59 60  1  0
 29 61  2  0
 61 62  1  0
 61  2  1  0
 25 10  1  0
 59 31  2  0
 57 39  1  0
M  CHG  4   6  -1   9  -1  35  -1  36  -1
M  END
>  <UniqueID>  (64) 
57

>  <SMILES>  (64) 
CCc1cccc([N-]C(=O)[N-]c2cccc(Oc3cc([O-])[n-]/c(=N\c4cccc(CS(C)(=O)=O)c4)c3)c2)c1

>  <Energy>  (64) 
74.60480082181336

>  <Genealogy>  (64) 
CCc1cccc([N-]C(=O)[N-]c2cccc(Oc3cc([O-])[n-]c(=Nc4cccc(CS(C)(=O)=O)c4)c3)c2)c1 (protonated)
CCc1cccc([N-]C(=O)[N-]c2cccc(Oc3cc([O-])[n-]/c(=N\c4cccc(CS(C)(=O)=O)c4)c3)c2)c1 (cis-trans isomerization)
CCc1cccc([N-]C(=O)[N-]c2cccc(Oc3cc([O-])[n-]/c(=N\c4cccc(CS(C)(=O)=O)c4)c3)c2)c1 (3D coordinates assigned)
CCc1cccc([N-]C(=O)[N-]c2cccc(Oc3cc([O-])[n-]/c(=N\c4cccc(CS(C)(=O)=O)c4)c3)c2)c1 (optimized conformer: 74.60480082181336 kcal/mol)

>  <smiles>  (64) 
CCc1cccc(NC(=O)Nc2cccc(Oc3cc(O)[nH]c(=Nc4cccc(CS(C)(=O)=O)c4)c3)c2)c1

>  <score_type>  (64) 
oracle

>  <origin>  (64) 
adg

>  <m_score__min__energy>  (64) 
-16.789999999999999

>  <m_primary>  (64) 
energy

$$$$
64:0
     RDKit          3D

 36 38  0  0  0  0  0  0  0  0999 V2000
   54.7720   27.3370   46.0110 H   0  0  0  0  0  0  0  0  0  0  0  0
   54.9120   26.3370   45.9410 O   0  0  0  0  0  0  0  0  0  0  0  0
   56.1800   25.7550   45.9710 C   0  0  0  0  0  0  0  0  0  0  0  0
   56.2900   24.3680   45.8140 C   0  0  0  0  0  0  0  0  0  0  0  0
   55.3833   23.7586   45.6852 H   0  0  0  0  0  0  0  0  0  0  0  0
   57.5440   23.7540   45.8200 C   0  0  0  0  0  0  0  0  0  0  0  0
   57.6223   22.6628   45.7056 H   0  0  0  0  0  0  0  0  0  0  0  0
   58.6980   24.5240   45.9710 C   0  0  0  0  0  0  0  0  0  0  0  0
   59.6859   24.0402   45.9656 H   0  0  0  0  0  0  0  0  0  0  0  0
   58.6000   25.9090   46.1290 C   0  0  0  0  0  0  0  0  0  0  0  0
   59.5133   26.5138   46.2298 H   0  0  0  0  0  0  0  0  0  0  0  0
   57.3390   26.5350   46.1600 C   0  0  0  0  0  0  0  0  0  0  0  0
   57.2170   27.9630   46.2650 N   0  0  0  0  0  0  0  0  0  0  0  0
   56.9180   28.8020   45.3130 C   0  0  0  0  0  0  0  0  0  0  0  0
   55.6310   28.9250   44.8790 N   0  0  0  0  0  0  0  0  0  0  0  0
   55.2860   29.7440   43.8520 C   0  0  0  0  0  0  0  0  0  0  0  0
   54.2336   29.8245   43.5423 H   0  0  0  0  0  0  0  0  0  0  0  0
   56.2650   30.4820   43.1910 C   0  0  0  0  0  0  0  0  0  0  0  0
   55.9931   31.1404   42.3528 H   0  0  0  0  0  0  0  0  0  0  0  0
   57.5920   30.3780   43.6020 C   0  0  0  0  0  0  0  0  0  0  0  0
   58.3728   30.9492   43.0785 H   0  0  0  0  0  0  0  0  0  0  0  0
   57.9390   29.5480   44.6810 C   0  0  0  0  0  0  0  0  0  0  0  0
   59.3600   29.4840   45.1150 C   0  0  0  0  0  0  0  0  0  0  0  0
   60.1480   28.7070   44.5150 O   0  0  0  0  0  0  0  0  0  0  0  0
   59.8640   30.2550   46.2160 N   0  0  0  0  0  0  0  0  0  0  0  0
   59.7000   31.6670   46.4110 C   0  0  0  0  0  0  0  0  0  0  0  0
   58.4540   32.2970   46.2420 C   0  0  0  0  0  0  0  0  0  0  0  0
   57.5782   31.7072   45.9338 H   0  0  0  0  0  0  0  0  0  0  0  0
   58.3260   33.6720   46.4650 C   0  0  0  0  0  0  0  0  0  0  0  0
   57.3477   34.1596   46.3418 H   0  0  0  0  0  0  0  0  0  0  0  0
   59.4390   34.4270   46.8440 C   0  0  0  0  0  0  0  0  0  0  0  0
   59.3130   35.7590   47.0620 F   0  0  0  0  0  0  0  0  0  0  0  0
   60.6850   33.8100   46.9890 C   0  0  0  0  0  0  0  0  0  0  0  0
   61.5629   34.4057   47.2796 H   0  0  0  0  0  0  0  0  0  0  0  0
   60.8160   32.4370   46.7650 C   0  0  0  0  0  0  0  0  0  0  0  0
   61.8009   31.9578   46.8671 H   0  0  0  0  0  0  0  0  0  0  0  0
  1  2  1  0
  2  3  1  0
  3  4  2  0
  4  5  1  0
  4  6  1  0
  6  7  1  0
  6  8  2  0
  8  9  1  0
  8 10  1  0
 10 11  1  0
 10 12  2  0
 12 13  1  0
 13 14  2  0
 14 15  1  0
 15 16  1  0
 16 17  1  0
 16 18  2  0
 18 19  1  0
 18 20  1  0
 20 21  1  0
 20 22  2  0
 22 23  1  0
 23 24  2  0
 23 25  1  0
 25 26  1  0
 26 27  2  0
 27 28  1  0
 27 29  1  0
 29 30  1  0
 29 31  2  0
 31 32  1  0
 31 33  1  0
 33 34  1  0
 33 35  2  0
 35 36  1  0
 12  3  1  0
 22 14  1  0
 35 26  1  0
M  CHG  2  15  -1  25  -1
M  END
>  <UniqueID>  (65) 
58

>  <SMILES>  (65) 
O=C([N-]c1ccc(F)cc1)c1ccc[n-]/c1=N\c1ccccc1O

>  <Energy>  (65) 
53.93420903726321

>  <Genealogy>  (65) 
O=C([N-]c1ccc(F)cc1)c1ccc[n-]c1=Nc1ccccc1O (protonated)
O=C([N-]c1ccc(F)cc1)c1ccc[n-]/c1=N\c1ccccc1O (cis-trans isomerization)
O=C([N-]c1ccc(F)cc1)c1ccc[n-]/c1=N\c1ccccc1O (3D coordinates assigned)
O=C([N-]c1ccc(F)cc1)c1ccc[n-]/c1=N\c1ccccc1O (optimized conformer: 53.93420903726321 kcal/mol)

>  <smiles>  (65) 
O=C(Nc1ccc(F)cc1)c1ccc[nH]c1=Nc1ccccc1O

>  <score_type>  (65) 
oracle

>  <origin>  (65) 
adg

>  <m_score__min__energy>  (65) 
-11.85

>  <m_primary>  (65) 
energy

$$$$
65:0
     RDKit          3D

 54 57  0  0  0  0  0  0  0  0999 V2000
   65.2170   32.9630   49.6500 C   0  0  0  0  0  0  0  0  0  0  0  0
   64.4080   33.4220   48.5720 O   0  0  0  0  0  0  0  0  0  0  0  0
   63.1360   32.9160   48.2660 C   0  0  0  0  0  0  0  0  0  0  0  0
   62.9390   31.6110   47.7770 C   0  0  0  0  0  0  0  0  0  0  0  0
   61.6500   31.1500   47.4930 C   0  0  0  0  0  0  0  0  0  0  0  0
   60.5330   31.9820   47.6860 C   0  0  0  0  0  0  0  0  0  0  0  0
   59.1670   31.4940   47.3850 C   0  0  0  0  0  0  0  0  0  0  0  0
   58.2030   31.8170   48.1320 O   0  0  0  0  0  0  0  0  0  0  0  0
   58.9520   30.6080   46.2770 N   0  0  0  0  0  0  0  0  0  0  0  0
   58.5760   29.2220   46.3360 C   0  0  0  0  0  0  0  0  0  0  0  0
   59.3190   28.3160   47.1130 C   0  0  0  0  0  0  0  0  0  0  0  0
   58.9650   26.9680   47.1670 C   0  0  0  0  0  0  0  0  0  0  0  0
   59.7000   26.1150   47.9250 F   0  0  0  0  0  0  0  0  0  0  0  0
   57.8560   26.4980   46.4600 C   0  0  0  0  0  0  0  0  0  0  0  0
   57.5310   25.1040   46.5430 N   0  0  0  0  0  0  0  0  0  0  0  0
   55.9550   24.4240   46.3070 S   0  0  0  0  0  0  0  0  0  0  0  0
   55.5080   23.7100   47.5510 O   0  0  0  0  0  0  0  0  0  0  0  0
   54.9830   25.5210   45.9790 O   0  0  0  0  0  0  0  0  0  0  0  0
   56.0370   23.2660   44.9820 C   0  0  0  0  0  0  0  0  0  0  0  0
   56.5010   23.4510   43.6930 C   0  0  0  0  0  0  0  0  0  0  0  0
   57.0510   24.7070   43.1020 C   0  0  0  0  0  0  0  0  0  0  0  0
   56.4000   22.2890   43.0170 N   0  0  0  0  0  0  0  0  0  0  0  0
   55.8940   21.4110   43.8360 O   0  0  0  0  0  0  0  0  0  0  0  0
   55.6580   21.9410   45.0140 C   0  0  0  0  0  0  0  0  0  0  0  0
   55.0930   21.1940   46.1760 C   0  0  0  0  0  0  0  0  0  0  0  0
   57.0920   27.3990   45.7000 C   0  0  0  0  0  0  0  0  0  0  0  0
   57.4280   28.7670   45.6410 C   0  0  0  0  0  0  0  0  0  0  0  0
   56.5720   29.6820   44.8360 C   0  0  0  0  0  0  0  0  0  0  0  0
   55.3190   29.5390   44.8630 O   0  0  0  0  0  0  0  0  0  0  0  0
   57.1640   30.7440   44.0690 N   0  0  0  0  0  0  0  0  0  0  0  0
   57.3590   31.9790   44.4310 C   0  0  0  0  0  0  0  0  0  0  0  0
   56.6460   32.5500   45.4240 N   0  0  0  0  0  0  0  0  0  0  0  0
   57.0230   33.8380   45.6430 C   0  0  0  0  0  0  0  0  0  0  0  0
   58.0470   34.3020   44.8230 C   0  0  0  0  0  0  0  0  0  0  0  0
   58.4920   33.0520   43.7890 S   0  0  0  0  0  0  0  0  0  0  0  0
   60.7360   33.2850   48.1750 C   0  0  0  0  0  0  0  0  0  0  0  0
   62.0260   33.7440   48.4570 C   0  0  0  0  0  0  0  0  0  0  0  0
   64.7424   33.2323   50.6051 H   0  0  0  0  0  0  0  0  0  0  0  0
   65.3236   31.8699   49.5889 H   0  0  0  0  0  0  0  0  0  0  0  0
   66.2100   33.4322   49.5889 H   0  0  0  0  0  0  0  0  0  0  0  0
   63.8038   30.9502   47.6174 H   0  0  0  0  0  0  0  0  0  0  0  0
   61.5083   30.1267   47.1150 H   0  0  0  0  0  0  0  0  0  0  0  0
   60.1883   28.6739   47.6841 H   0  0  0  0  0  0  0  0  0  0  0  0
   57.3507   25.3915   43.9093 H   0  0  0  0  0  0  0  0  0  0  0  0
   57.9265   24.4672   42.4807 H   0  0  0  0  0  0  0  0  0  0  0  0
   56.2810   25.1877   42.4807 H   0  0  0  0  0  0  0  0  0  0  0  0
   55.4413   21.6545   47.1123 H   0  0  0  0  0  0  0  0  0  0  0  0
   53.9943   21.2303   46.1361 H   0  0  0  0  0  0  0  0  0  0  0  0
   55.4270   20.1467   46.1361 H   0  0  0  0  0  0  0  0  0  0  0  0
   56.2180   27.0316   45.1422 H   0  0  0  0  0  0  0  0  0  0  0  0
   56.5526   34.4675   46.4126 H   0  0  0  0  0  0  0  0  0  0  0  0
   58.4881   35.3094   44.8468 H   0  0  0  0  0  0  0  0  0  0  0  0
   59.8732   33.9479   48.3368 H   0  0  0  0  0  0  0  0  0  0  0  0
   62.1691   34.7677   48.8332 H   0  0  0  0  0  0  0  0  0  0  0  0
  1  2  1  0
  2  3  1  0
  3  4  2  0
  4  5  1  0
  5  6  2  0
  6  7  1  0
  7  8  2  0
  7  9  1  0
  9 10  1  0
 10 11  2  0
 11 12  1  0
 12 13  1  0
 12 14  2  0
 14 15  1  0
 15 16  1  0
 16 17  2  0
 16 18  2  0
 16 19  1  0
 19 20  1  0
 20 21  1  0
 20 22  2  0
 22 23  1  0
 23 24  1  0
 24 25  1  0
 14 26  1  0
 26 27  2  0
 27 28  1  0
 28 29  2  0
 28 30  1  0
 30 31  2  3
 31 32  1  0
 32 33  1  0
 33 34  2  0
 34 35  1  0
  6 36  1  0
 36 37  2  0
 37  3  1  0
 27 10  1  0
 35 31  1  0
 24 19  2  0
  1 38  1  0
  1 39  1  0
  1 40  1  0
  4 41  1  0
  5 42  1  0
 11 43  1  0
 21 44  1  0
 21 45  1  0
 21 46  1  0
 25 47  1  0
 25 48  1  0
 25 49  1  0
 26 50  1  0
 33 51  1  0
 34 52  1  0
 36 53  1  0
 37 54  1  0
M  CHG  3   9  -1  15  -1  32  -1
M  END
>  <UniqueID>  (66) 
59

>  <SMILES>  (66) 
COc1ccc(C(=O)[N-]c2cc(F)c([N-]S(=O)(=O)c3c(C)noc3C)cc2C(=O)N=c2[n-]ccs2)cc1

>  <Energy>  (66) 
131.81670312786966

>  <Genealogy>  (66) 
COc1ccc(C(=O)[N-]c2cc(F)c([N-]S(=O)(=O)c3c(C)noc3C)cc2C(=O)N=c2[n-]ccs2)cc1 (protonated)
COc1ccc(C(=O)[N-]c2cc(F)c([N-]S(=O)(=O)c3c(C)noc3C)cc2C(=O)N=c2[n-]ccs2)cc1 (3D coordinates assigned)
COc1ccc(C(=O)[N-]c2cc(F)c([N-]S(=O)(=O)c3c(C)noc3C)cc2C(=O)N=c2[n-]ccs2)cc1 (optimized conformer: 131.81670312786966 kcal/mol)

>  <smiles>  (66) 
COc1ccc(C(=O)Nc2cc(F)c(NS(=O)(=O)c3c(C)noc3C)cc2C(=O)N=c2[nH]ccs2)cc1

>  <score_type>  (66) 
oracle

>  <origin>  (66) 
adg

>  <m_score__min__energy>  (66) 
-14.300000000000001

>  <m_primary>  (66) 
energy

$$$$
66:0
     RDKit          3D

 35 37  0  0  0  0  0  0  0  0999 V2000
   57.6100   29.5980   43.6150 O   0  0  0  0  0  0  0  0  0  0  0  0
   57.1680   29.7130   44.7870 C   0  0  0  0  0  0  0  0  0  0  0  0
   56.6610   30.9850   45.2120 N   0  0  0  0  0  0  0  0  0  0  0  0
   57.3910   32.2190   45.2390 C   0  0  0  0  0  0  0  0  0  0  0  0
   57.4230   33.0330   46.3870 C   0  0  0  0  0  0  0  0  0  0  0  0
   58.1660   34.2180   46.3890 C   0  0  0  0  0  0  0  0  0  0  0  0
   58.8930   34.5890   45.2550 C   0  0  0  0  0  0  0  0  0  0  0  0
   58.8870   33.7720   44.1220 C   0  0  0  0  0  0  0  0  0  0  0  0
   58.1450   32.5870   44.1170 C   0  0  0  0  0  0  0  0  0  0  0  0
   57.0750   28.5210   45.6540 C   0  0  0  0  0  0  0  0  0  0  0  0
   56.1910   27.5300   45.4400 N   0  0  0  0  0  0  0  0  0  0  0  0
   56.5060   26.6000   46.3650 C   0  0  0  0  0  0  0  0  0  0  0  0
   57.5470   26.9460   47.1480 N   0  0  0  0  0  0  0  0  0  0  0  0
   57.9040   28.1640   46.7050 C   0  0  0  0  0  0  0  0  0  0  0  0
   58.9810   28.9550   47.3270 C   0  0  0  0  0  0  0  0  0  0  0  0
   59.7150   28.4110   48.1960 O   0  0  0  0  0  0  0  0  0  0  0  0
   59.1460   30.3460   47.0180 N   0  0  0  0  0  0  0  0  0  0  0  0
   60.2820   31.1070   47.4580 C   0  0  0  0  0  0  0  0  0  0  0  0
   61.5230   30.8960   46.8390 C   0  0  0  0  0  0  0  0  0  0  0  0
   62.6470   31.6190   47.2440 C   0  0  0  0  0  0  0  0  0  0  0  0
   62.5460   32.5500   48.2820 C   0  0  0  0  0  0  0  0  0  0  0  0
   63.9600   33.4550   48.7910 Cl  0  0  0  0  0  0  0  0  0  0  0  0
   61.3190   32.7480   48.9230 C   0  0  0  0  0  0  0  0  0  0  0  0
   60.1870   32.0280   48.5240 C   0  0  0  0  0  0  0  0  0  0  0  0
   58.6950   32.2420   49.4320 Cl  0  0  0  0  0  0  0  0  0  0  0  0
   56.8619   32.7362   47.2854 H   0  0  0  0  0  0  0  0  0  0  0  0
   58.1780   34.8580   47.2836 H   0  0  0  0  0  0  0  0  0  0  0  0
   59.4705   35.5252   45.2544 H   0  0  0  0  0  0  0  0  0  0  0  0
   59.4666   34.0612   43.2329 H   0  0  0  0  0  0  0  0  0  0  0  0
   58.1533   31.9401   43.2273 H   0  0  0  0  0  0  0  0  0  0  0  0
   55.9641   25.6486   46.4703 H   0  0  0  0  0  0  0  0  0  0  0  0
   58.3170   30.8700   46.6570 H   0  0  0  0  0  0  0  0  0  0  0  0
   61.6113   30.1564   46.0295 H   0  0  0  0  0  0  0  0  0  0  0  0
   63.6138   31.4556   46.7453 H   0  0  0  0  0  0  0  0  0  0  0  0
   61.2430   33.4741   49.7458 H   0  0  0  0  0  0  0  0  0  0  0  0
  1  2  2  0
  2  3  1  0
  3  4  1  0
  4  5  2  0
  5  6  1  0
  6  7  2  0
  7  8  1  0
  8  9  2  0
  2 10  1  0
 10 11  1  0
 11 12  2  0
 12 13  1  0
 13 14  1  0
 14 15  1  0
 15 16  2  0
 15 17  1  0
 17 18  1  0
 18 19  2  0
 19 20  1  0
 20 21  2  0
 21 22  1  0
 21 23  1  0
 23 24  2  0
 24 25  1  0
  9  4  1  0
 14 10  2  0
 24 18  1  0
  5 26  1  0
  6 27  1  0
  7 28  1  0
  8 29  1  0
  9 30  1  0
 12 31  1  0
 17 32  1  0
 19 33  1  0
 20 34  1  0
 23 35  1  0
M  CHG  2   3  -1  13  -1
M  END
>  <UniqueID>  (67) 
60

>  <SMILES>  (67) 
O=C([N-]c1ccccc1)c1nc[n-]c1C(=O)Nc1ccc(Cl)cc1Cl

>  <Energy>  (67) 
79.4857178865961

>  <Genealogy>  (67) 
O=C([N-]c1ccccc1)c1nc[n-]c1C(=O)Nc1ccc(Cl)cc1Cl (protonated)
O=C([N-]c1ccccc1)c1nc[n-]c1C(=O)Nc1ccc(Cl)cc1Cl (3D coordinates assigned)
O=C([N-]c1ccccc1)c1nc[n-]c1C(=O)Nc1ccc(Cl)cc1Cl (optimized conformer: 79.4857178865961 kcal/mol)

>  <smiles>  (67) 
O=C(Nc1ccccc1)c1nc[nH]c1C(=O)Nc1ccc(Cl)cc1Cl

>  <score_type>  (67) 
oracle

>  <origin>  (67) 
adg

>  <m_score__min__energy>  (67) 
-11.279999999999999

>  <m_primary>  (67) 
energy

$$$$
67:0
     RDKit          3D

 51 53  0  0  0  0  0  0  0  0999 V2000
   55.4900   29.0010   45.1390 O   0  0  0  0  0  0  0  0  0  0  0  0
   56.6290   29.5250   45.0240 C   0  0  0  0  0  0  0  0  0  0  0  0
   56.7250   30.8450   44.4750 N   0  0  0  0  0  0  0  0  0  0  0  0
   57.5800   31.8940   44.9490 C   0  0  0  0  0  0  0  0  0  0  0  0
   58.5900   31.5830   45.8660 C   0  0  0  0  0  0  0  0  0  0  0  0
   59.4620   32.5760   46.3230 C   0  0  0  0  0  0  0  0  0  0  0  0
   59.3460   33.8980   45.8580 C   0  0  0  0  0  0  0  0  0  0  0  0
   60.2690   34.9500   46.3440 C   0  0  0  0  0  0  0  0  0  0  0  0
   60.0040   36.1670   46.1420 O   0  0  0  0  0  0  0  0  0  0  0  0
   61.4660   34.5910   47.0470 N   0  0  0  0  0  0  0  0  0  0  0  0
   62.6430   34.0180   46.4040 C   0  0  0  0  0  0  0  0  0  0  0  0
   63.2850   32.9630   47.3070 C   0  0  0  0  0  0  0  0  0  0  0  0
   62.2340   32.0740   47.9160 C   0  0  0  0  0  0  0  0  0  0  0  0
   61.8840   30.8630   47.2980 C   0  0  0  0  0  0  0  0  0  0  0  0
   60.9270   30.0250   47.8790 C   0  0  0  0  0  0  0  0  0  0  0  0
   60.3210   30.3850   49.0880 C   0  0  0  0  0  0  0  0  0  0  0  0
   59.1200   29.3340   49.8140 Cl  0  0  0  0  0  0  0  0  0  0  0  0
   60.6760   31.5820   49.7170 C   0  0  0  0  0  0  0  0  0  0  0  0
   61.6340   32.4220   49.1380 C   0  0  0  0  0  0  0  0  0  0  0  0
   58.3450   34.2020   44.9160 C   0  0  0  0  0  0  0  0  0  0  0  0
   57.4780   33.2060   44.4570 C   0  0  0  0  0  0  0  0  0  0  0  0
   57.8090   28.7970   45.4090 N   0  0  0  0  0  0  0  0  0  0  0  0
   57.7810   27.5100   46.0460 C   0  0  0  0  0  0  0  0  0  0  0  0
   58.6610   27.1950   47.0950 C   0  0  0  0  0  0  0  0  0  0  0  0
   58.5840   25.9510   47.7270 C   0  0  0  0  0  0  0  0  0  0  0  0
   57.6330   25.0130   47.3190 C   0  0  0  0  0  0  0  0  0  0  0  0
   56.7540   25.3070   46.2680 C   0  0  0  0  0  0  0  0  0  0  0  0
   55.7790   24.3230   45.8940 N   0  0  0  0  0  0  0  0  0  0  0  0
   54.4290   24.5730   45.4790 C   0  0  0  0  0  0  0  0  0  0  0  0
   53.9100   25.7110   45.6250 O   0  0  0  0  0  0  0  0  0  0  0  0
   53.6610   23.5090   44.8250 C   0  0  0  0  0  0  0  0  0  0  0  0
   53.6920   23.3800   43.5710 O   0  0  0  0  0  0  0  0  0  0  0  0
   52.8930   22.6350   45.5840 O   0  0  0  0  0  0  0  0  0  0  0  0
   56.8120   26.5720   45.6560 C   0  0  0  0  0  0  0  0  0  0  0  0
   58.6988   30.5506   46.2298 H   0  0  0  0  0  0  0  0  0  0  0  0
   60.2451   32.3209   47.0522 H   0  0  0  0  0  0  0  0  0  0  0  0
   62.3450   33.5493   45.4545 H   0  0  0  0  0  0  0  0  0  0  0  0
   63.3730   34.8195   46.2177 H   0  0  0  0  0  0  0  0  0  0  0  0
   63.9759   32.3491   46.7105 H   0  0  0  0  0  0  0  0  0  0  0  0
   63.8291   33.4730   48.1156 H   0  0  0  0  0  0  0  0  0  0  0  0
   62.3648   30.5720   46.3524 H   0  0  0  0  0  0  0  0  0  0  0  0
   60.6503   29.0818   47.3852 H   0  0  0  0  0  0  0  0  0  0  0  0
   60.2016   31.8640   50.6685 H   0  0  0  0  0  0  0  0  0  0  0  0
   61.9183   33.3579   49.6413 H   0  0  0  0  0  0  0  0  0  0  0  0
   58.2443   35.2303   44.5385 H   0  0  0  0  0  0  0  0  0  0  0  0
   56.7119   33.4509   43.7066 H   0  0  0  0  0  0  0  0  0  0  0  0
   58.7400   29.2590   45.3030 H   0  0  0  0  0  0  0  0  0  0  0  0
   59.4126   27.9296   47.4197 H   0  0  0  0  0  0  0  0  0  0  0  0
   59.2746   25.7098   48.5485 H   0  0  0  0  0  0  0  0  0  0  0  0
   57.5737   24.0383   47.8254 H   0  0  0  0  0  0  0  0  0  0  0  0
   56.0920   26.8286   44.8650 H   0  0  0  0  0  0  0  0  0  0  0  0
  1  2  2  0
  2  3  1  0
  3  4  1  0
  4  5  2  0
  5  6  1  0
  6  7  2  0
  7  8  1  0
  8  9  2  0
  8 10  1  0
 10 11  1  0
 11 12  1  0
 12 13  1  0
 13 14  2  0
 14 15  1  0
 15 16  2  0
 16 17  1  0
 16 18  1  0
 18 19  2  0
  7 20  1  0
 20 21  2  0
  2 22  1  0
 22 23  1  0
 23 24  2  0
 24 25  1  0
 25 26  2  0
 26 27  1  0
 27 28  1  0
 28 29  1  0
 29 30  2  0
 29 31  1  0
 31 32  2  0
 31 33  1  0
 27 34  2  0
 21  4  1  0
 34 23  1  0
 19 13  1  0
  5 35  1  0
  6 36  1  0
 11 37  1  0
 11 38  1  0
 12 39  1  0
 12 40  1  0
 14 41  1  0
 15 42  1  0
 18 43  1  0
 19 44  1  0
 20 45  1  0
 21 46  1  0
 22 47  1  0
 24 48  1  0
 25 49  1  0
 26 50  1  0
 34 51  1  0
M  CHG  4   3  -1  10  -1  28  -1  33  -1
M  END
>  <UniqueID>  (68) 
61

>  <SMILES>  (68) 
O=C([N-]c1ccc(C(=O)[N-]CCc2ccc(Cl)cc2)cc1)Nc1cccc([N-]C(=O)C(=O)[O-])c1

>  <Energy>  (68) 
60.28562016996123

>  <Genealogy>  (68) 
O=C([N-]c1ccc(C(=O)[N-]CCc2ccc(Cl)cc2)cc1)Nc1cccc([N-]C(=O)C(=O)[O-])c1 (protonated)
O=C([N-]c1ccc(C(=O)[N-]CCc2ccc(Cl)cc2)cc1)Nc1cccc([N-]C(=O)C(=O)[O-])c1 (3D coordinates assigned)
O=C([N-]c1ccc(C(=O)[N-]CCc2ccc(Cl)cc2)cc1)Nc1cccc([N-]C(=O)C(=O)[O-])c1 (optimized conformer: 60.28562016996123 kcal/mol)

>  <smiles>  (68) 
O=C(Nc1ccc(C(=O)NCCc2ccc(Cl)cc2)cc1)Nc1cccc(NC(=O)C(=O)O)c1

>  <score_type>  (68) 
oracle

>  <origin>  (68) 
adg

>  <m_score__min__energy>  (68) 
-16.199999999999999

>  <m_primary>  (68) 
energy

$$$$
68:0
     RDKit          3D

 46 48  0  0  0  0  0  0  0  0999 V2000
   68.2540   33.7660   50.5060 C   0  0  0  0  0  0  0  0  0  0  0  0
   67.1880   33.1780   49.7690 O   0  0  0  0  0  0  0  0  0  0  0  0
   66.2950   32.2230   50.2810 C   0  0  0  0  0  0  0  0  0  0  0  0
   66.7130   31.2370   51.2000 C   0  0  0  0  0  0  0  0  0  0  0  0
   65.8050   30.2950   51.6870 C   0  0  0  0  0  0  0  0  0  0  0  0
   64.4750   30.3270   51.2730 C   0  0  0  0  0  0  0  0  0  0  0  0
   64.0460   31.2960   50.3650 C   0  0  0  0  0  0  0  0  0  0  0  0
   64.9490   32.2480   49.8550 C   0  0  0  0  0  0  0  0  0  0  0  0
   64.5170   33.2470   48.9100 N   0  0  0  0  0  0  0  0  0  0  0  0
   63.3340   32.9430   47.6780 S   0  0  0  0  0  0  0  0  0  0  0  0
   63.5370   31.5600   47.1250 O   0  0  0  0  0  0  0  0  0  0  0  0
   63.5070   33.9460   46.5720 O   0  0  0  0  0  0  0  0  0  0  0  0
   61.7150   33.0420   48.3650 C   0  0  0  0  0  0  0  0  0  0  0  0
   61.5150   32.8820   49.7410 C   0  0  0  0  0  0  0  0  0  0  0  0
   60.2250   32.9360   50.2720 C   0  0  0  0  0  0  0  0  0  0  0  0
   59.1270   33.1500   49.4340 C   0  0  0  0  0  0  0  0  0  0  0  0
   59.3120   33.3170   48.0500 C   0  0  0  0  0  0  0  0  0  0  0  0
   58.1470   33.5270   47.1630 C   0  0  0  0  0  0  0  0  0  0  0  0
   57.0120   33.0800   47.4870 O   0  0  0  0  0  0  0  0  0  0  0  0
   58.3060   34.2310   45.9660 O   0  0  0  0  0  0  0  0  0  0  0  0
   57.6920   33.8290   44.7450 C   0  0  0  0  0  0  0  0  0  0  0  0
   58.4170   32.6110   44.1760 C   0  0  0  0  0  0  0  0  0  0  0  0
   57.4600   31.4880   43.9200 C   0  0  0  0  0  0  0  0  0  0  0  0
   56.7940   30.8380   44.8990 N   0  0  0  0  0  0  0  0  0  0  0  0
   55.9400   29.9120   44.3890 C   0  0  0  0  0  0  0  0  0  0  0  0
   55.1550   29.1120   45.2100 O   0  0  0  0  0  0  0  0  0  0  0  0
   55.9050   29.8210   43.0030 C   0  0  0  0  0  0  0  0  0  0  0  0
   56.9900   30.9540   42.3950 S   0  0  0  0  0  0  0  0  0  0  0  0
   60.6160   33.2650   47.5240 C   0  0  0  0  0  0  0  0  0  0  0  0
   68.0584   33.6581   51.5831 H   0  0  0  0  0  0  0  0  0  0  0  0
   69.1976   33.2608   50.2523 H   0  0  0  0  0  0  0  0  0  0  0  0
   68.3300   34.8336   50.2523 H   0  0  0  0  0  0  0  0  0  0  0  0
   67.7605   31.2105   51.5346 H   0  0  0  0  0  0  0  0  0  0  0  0
   66.1401   29.5262   52.3988 H   0  0  0  0  0  0  0  0  0  0  0  0
   63.7612   29.5864   51.6629 H   0  0  0  0  0  0  0  0  0  0  0  0
   62.9937   31.3161   50.0452 H   0  0  0  0  0  0  0  0  0  0  0  0
   65.0130   34.1650   48.8670 H   0  0  0  0  0  0  0  0  0  0  0  0
   62.3756   32.7134   50.4051 H   0  0  0  0  0  0  0  0  0  0  0  0
   60.0721   32.8097   51.3540 H   0  0  0  0  0  0  0  0  0  0  0  0
   58.1132   33.1880   49.8592 H   0  0  0  0  0  0  0  0  0  0  0  0
   56.6392   33.5719   44.9333 H   0  0  0  0  0  0  0  0  0  0  0  0
   57.7488   34.6555   44.0213 H   0  0  0  0  0  0  0  0  0  0  0  0
   58.9038   32.8915   43.2303 H   0  0  0  0  0  0  0  0  0  0  0  0
   59.1647   32.2741   44.9091 H   0  0  0  0  0  0  0  0  0  0  0  0
   55.2820   29.1340   42.4115 H   0  0  0  0  0  0  0  0  0  0  0  0
   60.7743   33.4005   46.4439 H   0  0  0  0  0  0  0  0  0  0  0  0
  1  2  1  0
  2  3  1  0
  3  4  2  0
  4  5  1  0
  5  6  2  0
  6  7  1  0
  7  8  2  0
  8  9  1  0
  9 10  1  0
 10 11  2  0
 10 12  2  0
 10 13  1  0
 13 14  2  0
 14 15  1  0
 15 16  2  0
 16 17  1  0
 17 18  1  0
 18 19  2  0
 18 20  1  0
 20 21  1  0
 21 22  1  0
 22 23  1  0
 23 24  2  0
 24 25  1  0
 25 26  1  0
 25 27  2  0
 27 28  1  0
 17 29  2  0
  8  3  1  0
 29 13  1  0
 28 23  1  0
  1 30  1  0
  1 31  1  0
  1 32  1  0
  4 33  1  0
  5 34  1  0
  6 35  1  0
  7 36  1  0
  9 37  1  0
 14 38  1  0
 15 39  1  0
 16 40  1  0
 21 41  1  0
 21 42  1  0
 22 43  1  0
 22 44  1  0
 27 45  1  0
 29 46  1  0
M  CHG  1  26  -1
M  END
>  <UniqueID>  (69) 
62

>  <SMILES>  (69) 
COc1ccccc1NS(=O)(=O)c1cccc(C(=O)OCCc2nc([O-])cs2)c1

>  <Energy>  (69) 
75.0862303872698

>  <Genealogy>  (69) 
COc1ccccc1NS(=O)(=O)c1cccc(C(=O)OCCc2nc([O-])cs2)c1 (protonated)
COc1ccccc1NS(=O)(=O)c1cccc(C(=O)OCCc2nc([O-])cs2)c1 (3D coordinates assigned)
COc1ccccc1NS(=O)(=O)c1cccc(C(=O)OCCc2nc([O-])cs2)c1 (optimized conformer: 75.0862303872698 kcal/mol)

>  <smiles>  (69) 
COc1ccccc1NS(=O)(=O)c1cccc(C(=O)OCCc2nc(O)cs2)c1

>  <score_type>  (69) 
oracle

>  <origin>  (69) 
adg

>  <m_score__min__energy>  (69) 
-12.99

>  <m_primary>  (69) 
energy

$$$$
69:0
     RDKit          3D

 39 41  0  0  0  0  0  0  0  0999 V2000
   60.7213   31.3012   48.8959 H   0  0  0  0  0  0  0  0  0  0  0  0
   60.4590   30.4450   48.2570 C   0  0  0  0  0  0  0  0  0  0  0  0
   59.6970   29.3940   48.7750 C   0  0  0  0  0  0  0  0  0  0  0  0
   59.3581   29.4249   49.8210 H   0  0  0  0  0  0  0  0  0  0  0  0
   59.3650   28.3040   47.9660 C   0  0  0  0  0  0  0  0  0  0  0  0
   58.7631   27.4801   48.3770 H   0  0  0  0  0  0  0  0  0  0  0  0
   59.7970   28.2560   46.6290 C   0  0  0  0  0  0  0  0  0  0  0  0
   59.4160   27.1020   45.7390 C   0  0  0  0  0  0  0  0  0  0  0  0
   59.7365   26.1610   46.2098 H   0  0  0  0  0  0  0  0  0  0  0  0
   59.9104   27.2270   44.7644 H   0  0  0  0  0  0  0  0  0  0  0  0
   57.9680   27.0680   45.5330 N   0  0  0  0  0  0  0  0  0  0  0  0
   57.2450   28.1170   45.2830 C   0  0  0  0  0  0  0  0  0  0  0  0
   57.7580   29.3400   45.0200 N   0  0  0  0  0  0  0  0  0  0  0  0
   56.6330   30.0570   44.8260 C   0  0  0  0  0  0  0  0  0  0  0  0
   56.6110   31.3140   44.4910 N   0  0  0  0  0  0  0  0  0  0  0  0
   57.4160   32.3500   45.0780 C   0  0  0  0  0  0  0  0  0  0  0  0
   57.7870   33.4440   44.2880 C   0  0  0  0  0  0  0  0  0  0  0  0
   57.4811   33.4847   43.2322 H   0  0  0  0  0  0  0  0  0  0  0  0
   58.5430   34.4840   44.8320 C   0  0  0  0  0  0  0  0  0  0  0  0
   58.8400   35.3349   44.2014 H   0  0  0  0  0  0  0  0  0  0  0  0
   58.9230   34.4460   46.1760 C   0  0  0  0  0  0  0  0  0  0  0  0
   59.5179   35.2690   46.5989 H   0  0  0  0  0  0  0  0  0  0  0  0
   58.5520   33.3680   46.9880 C   0  0  0  0  0  0  0  0  0  0  0  0
   58.9220   33.3960   48.3750 N   0  0  0  0  0  0  0  0  0  0  0  0
   60.1770   33.8140   48.9250 C   0  0  0  0  0  0  0  0  0  0  0  0
   60.2780   34.1370   50.1390 O   0  0  0  0  0  0  0  0  0  0  0  0
   61.4020   33.7600   48.0760 C   0  0  0  0  0  0  0  0  0  0  0  0
   62.2930   33.7207   48.7199 H   0  0  0  0  0  0  0  0  0  0  0  0
   61.3687   32.8624   47.4409 H   0  0  0  0  0  0  0  0  0  0  0  0
   61.4478   34.6570   47.4409 H   0  0  0  0  0  0  0  0  0  0  0  0
   57.7730   32.3310   46.4410 C   0  0  0  0  0  0  0  0  0  0  0  0
   57.4409   31.5007   47.0815 H   0  0  0  0  0  0  0  0  0  0  0  0
   55.5220   29.3140   44.9530 N   0  0  0  0  0  0  0  0  0  0  0  0
   54.5320   29.6260   44.8400 H   0  0  0  0  0  0  0  0  0  0  0  0
   55.8980   28.0830   45.2470 N   0  0  0  0  0  0  0  0  0  0  0  0
   60.5560   29.3190   46.1130 C   0  0  0  0  0  0  0  0  0  0  0  0
   60.8908   29.2952   45.0654 H   0  0  0  0  0  0  0  0  0  0  0  0
   60.8880   30.4080   46.9260 C   0  0  0  0  0  0  0  0  0  0  0  0
   61.4868   31.2358   46.5184 H   0  0  0  0  0  0  0  0  0  0  0  0
  1  2  1  0
  2  3  2  0
  3  4  1  0
  3  5  1  0
  5  6  1  0
  5  7  2  0
  7  8  1  0
  8  9  1  0
  8 10  1  0
  8 11  1  0
 11 12  2  3
 12 13  1  0
 13 14  1  0
 14 15  2  0
 15 16  1  0
 16 17  2  0
 17 18  1  0
 17 19  1  0
 19 20  1  0
 19 21  2  0
 21 22  1  0
 21 23  1  0
 23 24  1  0
 24 25  1  0
 25 26  2  0
 25 27  1  0
 27 28  1  0
 27 29  1  0
 27 30  1  0
 23 31  2  0
 31 32  1  0
 14 33  1  0
 33 34  1  0
 33 35  1  0
  7 36  1  0
 36 37  1  0
 36 38  2  0
 38 39  1  0
 38  2  1  0
 35 12  1  0
 31 16  1  0
M  CHG  3  13  -1  24  -1  35  -1
M  END
>  <UniqueID>  (70) 
63

>  <SMILES>  (70) 
CC(=O)[N-]c1cccc(/N=c2\[n-]c(=NCc3ccccc3)[n-][nH]2)c1

>  <Energy>  (70) 
79.4182016067407

>  <Genealogy>  (70) 
CC(=O)[N-]c1cccc(N=c2[n-]c(=NCc3ccccc3)[n-][nH]2)c1 (protonated)
CC(=O)[N-]c1cccc(/N=c2\[n-]c(=NCc3ccccc3)[n-][nH]2)c1 (cis-trans isomerization)
CC(=O)[N-]c1cccc(/N=c2\[n-]c(=NCc3ccccc3)[n-][nH]2)c1 (3D coordinates assigned)
CC(=O)[N-]c1cccc(/N=c2\[n-]c(=NCc3ccccc3)[n-][nH]2)c1 (optimized conformer: 79.4182016067407 kcal/mol)

>  <smiles>  (70) 
CC(=O)Nc1cccc(N=c2[nH][nH]c(=NCc3ccccc3)[nH]2)c1

>  <score_type>  (70) 
oracle

>  <origin>  (70) 
adg

>  <m_score__min__energy>  (70) 
-13.300000000000001

>  <m_primary>  (70) 
energy

$$$$
70:0
     RDKit          3D

 23 23  0  0  0  0  0  0  0  0999 V2000
   59.4300   23.5250   45.9800 O   0  0  0  0  0  0  0  0  0  0  0  0
   58.2820   24.3120   45.9750 C   0  0  0  0  0  0  0  0  0  0  0  0
   58.4060   25.7010   46.0800 C   0  0  0  0  0  0  0  0  0  0  0  0
   57.2660   26.5210   46.0980 C   0  0  0  0  0  0  0  0  0  0  0  0
   57.4290   28.0200   46.1840 C   0  0  0  0  0  0  0  0  0  0  0  0
   56.9720   28.7030   44.8900 C   0  0  0  0  0  0  0  0  0  0  0  0
   55.5890   28.9310   44.9040 O   0  0  0  0  0  0  0  0  0  0  0  0
   55.9930   25.9300   45.9960 C   0  0  0  0  0  0  0  0  0  0  0  0
   54.8440   26.7140   45.9980 O   0  0  0  0  0  0  0  0  0  0  0  0
   55.8700   24.5410   45.8920 C   0  0  0  0  0  0  0  0  0  0  0  0
   57.0100   23.7220   45.8670 C   0  0  0  0  0  0  0  0  0  0  0  0
   56.8530   22.2260   45.7890 C   0  0  0  0  0  0  0  0  0  0  0  0
   57.6700   21.6050   46.7420 O   0  0  0  0  0  0  0  0  0  0  0  0
   59.4054   26.1553   46.1491 H   0  0  0  0  0  0  0  0  0  0  0  0
   56.8256   28.3989   47.0220 H   0  0  0  0  0  0  0  0  0  0  0  0
   58.4943   28.2459   46.3394 H   0  0  0  0  0  0  0  0  0  0  0  0
   57.4943   29.6656   44.7875 H   0  0  0  0  0  0  0  0  0  0  0  0
   57.2100   28.0434   44.0425 H   0  0  0  0  0  0  0  0  0  0  0  0
   55.1550   28.0380   44.8970 H   0  0  0  0  0  0  0  0  0  0  0  0
   54.8706   24.0857   45.8292 H   0  0  0  0  0  0  0  0  0  0  0  0
   55.8031   21.9600   45.9814 H   0  0  0  0  0  0  0  0  0  0  0  0
   57.1481   21.8853   44.7856 H   0  0  0  0  0  0  0  0  0  0  0  0
   58.5210   22.1160   46.7640 H   0  0  0  0  0  0  0  0  0  0  0  0
  1  2  1  0
  2  3  2  0
  3  4  1  0
  4  5  1  0
  5  6  1  0
  6  7  1  0
  4  8  2  0
  8  9  1  0
  8 10  1  0
 10 11  2  0
 11 12  1  0
 12 13  1  0
 11  2  1  0
  3 14  1  0
  5 15  1  0
  5 16  1  0
  6 17  1  0
  6 18  1  0
  7 19  1  0
 10 20  1  0
 12 21  1  0
 12 22  1  0
 13 23  1  0
M  CHG  2   1  -1   9  -1
M  END
>  <UniqueID>  (71) 
64

>  <SMILES>  (71) 
[O-]c1cc(CCO)c([O-])cc1CO

>  <Energy>  (71) 
19.467635002091896

>  <Genealogy>  (71) 
[O-]c1cc(CCO)c([O-])cc1CO (protonated)
[O-]c1cc(CCO)c([O-])cc1CO (3D coordinates assigned)
[O-]c1cc(CCO)c([O-])cc1CO (optimized conformer: 19.467635002091896 kcal/mol)

>  <smiles>  (71) 
OCCc1cc(O)c(CO)cc1O

>  <score_type>  (71) 
oracle

>  <origin>  (71) 
adg

>  <m_score__min__energy>  (71) 
-10.58

>  <m_primary>  (71) 
energy

$$$$
71:0
     RDKit          3D

 46 50  0  0  0  0  0  0  0  0999 V2000
   52.7954   32.0368   53.4006 H   0  0  0  0  0  0  0  0  0  0  0  0
   52.9080   31.2030   52.6920 C   0  0  0  0  0  0  0  0  0  0  0  0
   52.1300   31.2450   51.4420 C   0  0  0  0  0  0  0  0  0  0  0  0
   52.2120   30.3000   50.4900 N   0  0  0  0  0  0  0  0  0  0  0  0
   51.4000   30.7640   49.5160 C   0  0  0  0  0  0  0  0  0  0  0  0
   51.1980   30.1370   48.4450 O   0  0  0  0  0  0  0  0  0  0  0  0
   50.8250   31.9570   49.7780 N   0  0  0  0  0  0  0  0  0  0  0  0
   51.3060   32.2550   50.9960 C   0  0  0  0  0  0  0  0  0  0  0  0
   51.0310   33.4430   51.6610 O   0  0  0  0  0  0  0  0  0  0  0  0
   53.7450   30.2080   53.0160 C   0  0  0  0  0  0  0  0  0  0  0  0
   53.4620   28.9600   53.5710 C   0  0  0  0  0  0  0  0  0  0  0  0
   52.4626   28.6129   53.8722 H   0  0  0  0  0  0  0  0  0  0  0  0
   54.6040   28.2400   53.6830 N   0  0  0  0  0  0  0  0  0  0  0  0
   55.5890   28.9920   53.2160 N   0  0  0  0  0  0  0  0  0  0  0  0
   56.9160   28.7010   53.1080 C   0  0  0  0  0  0  0  0  0  0  0  0
   57.4260   27.5650   53.4980 N   0  0  0  0  0  0  0  0  0  0  0  0
   57.7550   27.1800   54.8670 C   0  0  0  0  0  0  0  0  0  0  0  0
   57.9238   26.1082   54.6861 H   0  0  0  0  0  0  0  0  0  0  0  0
   57.0150   27.9790   55.9260 C   0  0  0  0  0  0  0  0  0  0  0  0
   56.2305   28.6909   55.6300 H   0  0  0  0  0  0  0  0  0  0  0  0
   56.4452   27.7289   56.8331 H   0  0  0  0  0  0  0  0  0  0  0  0
   58.4740   28.2840   55.6210 C   0  0  0  0  0  0  0  0  0  0  0  0
   58.7447   29.2168   55.1046 H   0  0  0  0  0  0  0  0  0  0  0  0
   59.3968   28.3460   56.2165 H   0  0  0  0  0  0  0  0  0  0  0  0
   57.7390   29.6520   52.5720 N   0  0  0  0  0  0  0  0  0  0  0  0
   58.7460   29.4140   52.4610 H   0  0  0  0  0  0  0  0  0  0  0  0
   57.2440   30.8730   52.1700 C   0  0  0  0  0  0  0  0  0  0  0  0
   58.1100   31.9030   51.6270 N   0  0  0  0  0  0  0  0  0  0  0  0
   58.5080   33.0600   52.4480 C   0  0  0  0  0  0  0  0  0  0  0  0
   57.6468   33.7360   52.5548 H   0  0  0  0  0  0  0  0  0  0  0  0
   58.8385   32.6900   53.4298 H   0  0  0  0  0  0  0  0  0  0  0  0
   59.6690   33.8290   51.8070 C   0  0  0  0  0  0  0  0  0  0  0  0
   59.8041   34.7826   52.3384 H   0  0  0  0  0  0  0  0  0  0  0  0
   60.5766   33.2117   51.8792 H   0  0  0  0  0  0  0  0  0  0  0  0
   59.4170   34.0940   50.4430 O   0  0  0  0  0  0  0  0  0  0  0  0
   59.3850   32.8740   49.7310 C   0  0  2  0  0  0  0  0  0  0  0  0
   60.2925   32.2912   49.9472 H   0  0  0  0  0  0  0  0  0  0  0  0
   59.3170   33.1810   48.2350 C   0  0  0  0  0  0  0  0  0  0  0  0
   59.0812   34.2455   48.0895 H   0  0  0  0  0  0  0  0  0  0  0  0
   60.2873   32.9534   47.7695 H   0  0  0  0  0  0  0  0  0  0  0  0
   58.5335   32.5650   47.7695 H   0  0  0  0  0  0  0  0  0  0  0  0
   58.1680   32.0430   50.1620 C   0  0  0  0  0  0  0  0  0  0  0  0
   57.2516   32.5411   49.8127 H   0  0  0  0  0  0  0  0  0  0  0  0
   58.2571   31.0398   49.7197 H   0  0  0  0  0  0  0  0  0  0  0  0
   55.9050   31.1210   52.2850 N   0  0  0  0  0  0  0  0  0  0  0  0
   55.1040   30.1660   52.8080 C   0  0  0  0  0  0  0  0  0  0  0  0
  1  2  1  0
  2  3  1  0
  3  4  1  0
  4  5  1  0
  5  6  2  0
  5  7  1  0
  7  8  1  0
  8  9  1  0
  2 10  2  0
 10 11  1  0
 11 12  1  0
 11 13  2  0
 13 14  1  0
 14 15  1  0
 15 16  2  0
 16 17  1  0
 17 18  1  0
 17 19  1  0
 19 20  1  0
 19 21  1  0
 19 22  1  0
 22 23  1  0
 22 24  1  0
 15 25  1  0
 25 26  1  0
 25 27  2  0
 27 28  1  0
 28 29  1  0
 29 30  1  0
 29 31  1  0
 29 32  1  0
 32 33  1  0
 32 34  1  0
 32 35  1  0
 35 36  1  0
 36 37  1  6
 36 38  1  0
 38 39  1  0
 38 40  1  0
 38 41  1  0
 36 42  1  0
 42 43  1  0
 42 44  1  0
 27 45  1  0
 45 46  2  0
  8  3  2  0
 46 10  1  0
 46 14  1  0
 22 17  1  0
 42 28  1  0
M  CHG  4   4  -1   7  -1   9  -1  25   1
M  END
>  <UniqueID>  (72) 
65

>  <SMILES>  (72) 
C[C@@H]1CN(c2nc3/c(=C/c4[n-]c(=O)[n-]c4[O-])cnn3/c(=N\C3CC3)[nH+]2)CCO1

>  <Energy>  (72) 
393.8024815613921

>  <Genealogy>  (72) 
CC1CN(c2nc3c(=Cc4[n-]c(=O)[n-]c4[O-])cnn3c(=NC3CC3)[nH+]2)CCO1 (protonated)
C[C@@H]1CN(c2nc3c(=Cc4[n-]c(=O)[n-]c4[O-])cnn3c(=NC3CC3)[nH+]2)CCO1 (chirality)
C[C@@H]1CN(c2nc3/c(=C/c4[n-]c(=O)[n-]c4[O-])cnn3/c(=N\C3CC3)[nH+]2)CCO1 (cis-trans isomerization)
C[C@@H]1CN(c2nc3/c(=C/c4[n-]c(=O)[n-]c4[O-])cnn3/c(=N\C3CC3)[nH+]2)CCO1 (3D coordinates assigned)
C[C@@H]1CN(c2nc3/c(=C/c4[n-]c(=O)[n-]c4[O-])cnn3/c(=N\C3CC3)[nH+]2)CCO1 (nonaromatic ring conformer: 393.8024815613921 kcal/mol)

>  <smiles>  (72) 
CC1CN(c2nc(=NC3CC3)n3ncc(=Cc4[nH]c(=O)[nH]c4O)c3n2)CCO1

>  <score_type>  (72) 
oracle

>  <origin>  (72) 
adg

>  <m_score__min__energy>  (72) 
-14.9

>  <m_primary>  (72) 
energy

$$$$
72:0
     RDKit          3D

 68 72  0  0  0  0  0  0  0  0999 V2000
   64.4790   33.3480   47.5200 N   0  0  0  0  0  0  0  0  0  0  0  0
   62.7880   32.9850   47.4640 S   0  0  0  0  0  0  0  0  0  0  0  0
   62.1290   33.8150   46.3990 O   0  0  0  0  0  0  0  0  0  0  0  0
   62.6420   31.5340   47.1010 O   0  0  0  0  0  0  0  0  0  0  0  0
   61.9970   33.2890   49.0260 C   0  0  0  0  0  0  0  0  0  0  0  0
   62.7980   33.5990   50.1380 C   0  0  0  0  0  0  0  0  0  0  0  0
   62.2210   33.8530   51.3860 C   0  0  0  0  0  0  0  0  0  0  0  0
   60.8370   33.8060   51.5400 C   0  0  0  0  0  0  0  0  0  0  0  0
   60.0250   33.4950   50.4480 C   0  0  0  0  0  0  0  0  0  0  0  0
   60.5900   33.2220   49.1910 C   0  0  0  0  0  0  0  0  0  0  0  0
   59.6850   32.8530   48.0900 C   0  0  0  0  0  0  0  0  0  0  0  0
   58.8060   33.7990   47.5500 C   0  0  0  0  0  0  0  0  0  0  0  0
   57.9650   33.4550   46.4890 C   0  0  0  0  0  0  0  0  0  0  0  0
   58.0000   32.1660   45.9420 C   0  0  0  0  0  0  0  0  0  0  0  0
   57.1030   31.8460   44.8690 N   0  0  0  0  0  0  0  0  0  0  0  0
   56.6290   30.5390   44.5210 C   0  0  0  0  0  0  0  0  0  0  0  0
   55.5710   30.4000   43.8440 O   0  0  0  0  0  0  0  0  0  0  0  0
   57.3480   29.3300   45.0490 C   0  0  2  0  0  0  0  0  0  0  0  0
   58.4920   28.9090   44.1100 C   0  0  0  0  0  0  0  0  0  0  0  0
   59.1730   27.7820   44.6610 O   0  0  0  0  0  0  0  0  0  0  0  0
   58.4920   26.7600   45.3380 C   0  0  0  0  0  0  0  0  0  0  0  0
   59.1840   25.6110   45.7370 C   0  0  0  0  0  0  0  0  0  0  0  0
   58.5240   24.6040   46.4460 C   0  0  0  0  0  0  0  0  0  0  0  0
   57.1500   24.7080   46.7260 C   0  0  0  0  0  0  0  0  0  0  0  0
   56.4330   23.6500   47.4810 C   0  0  0  0  0  0  0  0  0  0  0  0
   57.0850   22.8800   48.2380 O   0  0  0  0  0  0  0  0  0  0  0  0
   55.0260   23.4200   47.3240 N   0  0  0  0  0  0  0  0  0  0  0  0
   54.1880   23.3970   45.7950 S   0  0  0  0  0  0  0  0  0  0  0  0
   52.8600   22.7040   45.9400 O   0  0  0  0  0  0  0  0  0  0  0  0
   53.9370   24.8300   45.3960 O   0  0  0  0  0  0  0  0  0  0  0  0
   55.1120   22.6350   44.5210 N   0  0  0  0  0  0  0  0  0  0  0  0
   55.9130   23.6240   43.7830 C   0  0  0  0  0  0  0  0  0  0  0  0
   56.6380   22.9280   42.6270 C   0  0  0  0  0  0  0  0  0  0  0  0
   57.4900   21.8400   43.1360 N   0  0  0  0  0  0  0  0  0  0  0  0
   56.6830   20.8600   43.8790 C   0  0  0  0  0  0  0  0  0  0  0  0
   55.9600   21.5480   45.0420 C   0  0  0  0  0  0  0  0  0  0  0  0
   56.4570   25.8640   46.3180 C   0  0  0  0  0  0  0  0  0  0  0  0
   57.1270   26.8990   45.6530 C   0  0  0  0  0  0  0  0  0  0  0  0
   56.3800   28.1480   45.2510 C   0  0  0  0  0  0  0  0  0  0  0  0
   58.8720   31.2140   46.4940 C   0  0  0  0  0  0  0  0  0  0  0  0
   59.7210   31.5600   47.5520 C   0  0  0  0  0  0  0  0  0  0  0  0
   64.9190   32.7250   48.2380 H   0  0  0  0  0  0  0  0  0  0  0  0
   64.8870   33.0690   46.6060 H   0  0  0  0  0  0  0  0  0  0  0  0
   63.8914   33.6423   50.0254 H   0  0  0  0  0  0  0  0  0  0  0  0
   62.8613   34.0905   52.2484 H   0  0  0  0  0  0  0  0  0  0  0  0
   60.3848   34.0137   52.5210 H   0  0  0  0  0  0  0  0  0  0  0  0
   58.9326   33.4634   50.5728 H   0  0  0  0  0  0  0  0  0  0  0  0
   58.7773   34.8181   47.9630 H   0  0  0  0  0  0  0  0  0  0  0  0
   57.2695   34.2025   46.0797 H   0  0  0  0  0  0  0  0  0  0  0  0
   57.7745   29.6070   46.0244 H   0  0  0  0  0  0  0  0  0  0  0  0
   58.0787   28.6420   43.1262 H   0  0  0  0  0  0  0  0  0  0  0  0
   59.1989   29.7443   43.9979 H   0  0  0  0  0  0  0  0  0  0  0  0
   60.2506   25.5003   45.4918 H   0  0  0  0  0  0  0  0  0  0  0  0
   59.0845   23.7216   46.7883 H   0  0  0  0  0  0  0  0  0  0  0  0
   55.2523   24.4076   43.3836 H   0  0  0  0  0  0  0  0  0  0  0  0
   56.6511   24.0791   44.4598 H   0  0  0  0  0  0  0  0  0  0  0  0
   55.8947   22.5111   41.9316 H   0  0  0  0  0  0  0  0  0  0  0  0
   57.2704   23.6634   42.1081 H   0  0  0  0  0  0  0  0  0  0  0  0
   57.9070   21.3420   42.3110 H   0  0  0  0  0  0  0  0  0  0  0  0
   55.9402   20.4124   43.2024 H   0  0  0  0  0  0  0  0  0  0  0  0
   57.3445   20.0771   44.2784 H   0  0  0  0  0  0  0  0  0  0  0  0
   55.3324   20.8141   45.5688 H   0  0  0  0  0  0  0  0  0  0  0  0
   56.7019   21.9646   45.7391 H   0  0  0  0  0  0  0  0  0  0  0  0
   55.3802   25.9551   46.5233 H   0  0  0  0  0  0  0  0  0  0  0  0
   55.8425   27.9585   44.3102 H   0  0  0  0  0  0  0  0  0  0  0  0
   55.6734   28.4071   46.0533 H   0  0  0  0  0  0  0  0  0  0  0  0
   58.8882   30.1900   46.0927 H   0  0  0  0  0  0  0  0  0  0  0  0
   60.4183   30.8146   47.9620 H   0  0  0  0  0  0  0  0  0  0  0  0
  1  2  1  0
  2  3  2  0
  2  4  2  0
  2  5  1  0
  5  6  2  0
  6  7  1  0
  7  8  2  0
  8  9  1  0
  9 10  2  0
 10 11  1  0
 11 12  2  0
 12 13  1  0
 13 14  2  0
 14 15  1  0
 15 16  1  0
 16 17  2  0
 16 18  1  0
 18 19  1  0
 19 20  1  0
 20 21  1  0
 21 22  2  0
 22 23  1  0
 23 24  2  0
 24 25  1  0
 25 26  2  0
 25 27  1  0
 27 28  1  0
 28 29  2  0
 28 30  2  0
 28 31  1  0
 31 32  1  0
 32 33  1  0
 33 34  1  0
 34 35  1  0
 35 36  1  0
 24 37  1  0
 37 38  2  0
 38 39  1  0
 14 40  1  0
 40 41  2  0
 10  5  1  0
 41 11  1  0
 39 18  1  0
 38 21  1  0
 36 31  1  0
  1 42  1  0
  1 43  1  0
  6 44  1  0
  7 45  1  0
  8 46  1  0
  9 47  1  0
 12 48  1  0
 13 49  1  0
 18 50  1  1
 19 51  1  0
 19 52  1  0
 22 53  1  0
 23 54  1  0
 32 55  1  0
 32 56  1  0
 33 57  1  0
 33 58  1  0
 34 59  1  0
 35 60  1  0
 35 61  1  0
 36 62  1  0
 36 63  1  0
 37 64  1  0
 39 65  1  0
 39 66  1  0
 40 67  1  0
 41 68  1  0
M  CHG  2  15  -1  27  -1
M  END
>  <UniqueID>  (73) 
66

>  <SMILES>  (73) 
NS(=O)(=O)c1ccccc1-c1ccc([N-]C(=O)[C@@H]2COc3ccc(C(=O)[N-]S(=O)(=O)N4CCNCC4)cc3C2)cc1

>  <Energy>  (73) 
91.63211096443104

>  <Genealogy>  (73) 
NS(=O)(=O)c1ccccc1-c1ccc([N-]C(=O)C2COc3ccc(C(=O)[N-]S(=O)(=O)N4CCNCC4)cc3C2)cc1 (protonated)
NS(=O)(=O)c1ccccc1-c1ccc([N-]C(=O)[C@@H]2COc3ccc(C(=O)[N-]S(=O)(=O)N4CCNCC4)cc3C2)cc1 (chirality)
NS(=O)(=O)c1ccccc1-c1ccc([N-]C(=O)[C@@H]2COc3ccc(C(=O)[N-]S(=O)(=O)N4CCNCC4)cc3C2)cc1 (3D coordinates assigned)
NS(=O)(=O)c1ccccc1-c1ccc([N-]C(=O)[C@@H]2COc3ccc(C(=O)[N-]S(=O)(=O)N4CCNCC4)cc3C2)cc1 (nonaromatic ring conformer: 91.63211096443104 kcal/mol)

>  <smiles>  (73) 
NS(=O)(=O)c1ccccc1-c1ccc(NC(=O)C2COc3ccc(C(=O)NS(=O)(=O)N4CCNCC4)cc3C2)cc1

>  <score_type>  (73) 
oracle

>  <origin>  (73) 
adg

>  <m_score__min__energy>  (73) 
-13.98

>  <m_primary>  (73) 
energy

$$$$
73:0
     RDKit          3D

 36 38  0  0  0  0  0  0  0  0999 V2000
   53.4310   23.0410   46.3620 C   0  0  0  0  0  0  0  0  0  0  0  0
   54.0780   24.0810   45.6350 O   0  0  0  0  0  0  0  0  0  0  0  0
   55.4390   24.4050   45.7530 C   0  0  0  0  0  0  0  0  0  0  0  0
   56.4490   23.4270   45.6830 C   0  0  0  0  0  0  0  0  0  0  0  0
   57.7910   23.7940   45.7990 C   0  0  0  0  0  0  0  0  0  0  0  0
   58.1400   25.1310   45.9920 C   0  0  0  0  0  0  0  0  0  0  0  0
   57.1470   26.1200   46.0850 C   0  0  0  0  0  0  0  0  0  0  0  0
   57.5520   27.5610   46.2880 C   0  0  0  0  0  0  0  0  0  0  0  0
   56.9040   28.4290   45.3030 N   0  0  0  0  0  0  0  0  0  0  0  0
   57.2870   29.7930   45.0410 C   0  0  0  0  0  0  0  0  0  0  0  0
   57.0570   30.3340   43.7640 C   0  0  0  0  0  0  0  0  0  0  0  0
   57.4230   31.6490   43.4690 C   0  0  0  0  0  0  0  0  0  0  0  0
   58.0230   32.4470   44.4480 C   0  0  0  0  0  0  0  0  0  0  0  0
   58.3820   33.7280   44.1600 N   0  0  0  0  0  0  0  0  0  0  0  0
   58.9660   34.5330   45.0870 C   0  0  0  0  0  0  0  0  0  0  0  0
   59.2820   35.7110   44.7770 O   0  0  0  0  0  0  0  0  0  0  0  0
   59.2140   34.0500   46.3790 C   0  0  0  0  0  0  0  0  0  0  0  0
   59.8120   34.8640   47.3350 O   0  0  0  0  0  0  0  0  0  0  0  0
   58.8560   32.7390   46.7030 C   0  0  0  0  0  0  0  0  0  0  0  0
   58.2540   31.9210   45.7370 C   0  0  0  0  0  0  0  0  0  0  0  0
   57.8830   30.6010   46.0300 C   0  0  0  0  0  0  0  0  0  0  0  0
   55.7930   25.7490   45.9470 C   0  0  0  0  0  0  0  0  0  0  0  0
   54.7890   26.7110   45.9990 O   0  0  0  0  0  0  0  0  0  0  0  0
   53.5441   23.2227   47.4410 H   0  0  0  0  0  0  0  0  0  0  0  0
   52.3620   23.0230   46.1032 H   0  0  0  0  0  0  0  0  0  0  0  0
   53.8872   22.0741   46.1032 H   0  0  0  0  0  0  0  0  0  0  0  0
   56.1801   22.3705   45.5365 H   0  0  0  0  0  0  0  0  0  0  0  0
   58.5762   23.0261   45.7380 H   0  0  0  0  0  0  0  0  0  0  0  0
   59.2003   25.4126   46.0719 H   0  0  0  0  0  0  0  0  0  0  0  0
   57.2563   27.8794   47.2985 H   0  0  0  0  0  0  0  0  0  0  0  0
   58.6421   27.6408   46.1639 H   0  0  0  0  0  0  0  0  0  0  0  0
   56.1390   28.0070   44.7280 H   0  0  0  0  0  0  0  0  0  0  0  0
   56.5833   29.7144   42.9883 H   0  0  0  0  0  0  0  0  0  0  0  0
   57.2389   32.0578   42.4645 H   0  0  0  0  0  0  0  0  0  0  0  0
   59.0462   32.3496   47.7140 H   0  0  0  0  0  0  0  0  0  0  0  0
   58.0580   30.1940   47.0368 H   0  0  0  0  0  0  0  0  0  0  0  0
  1  2  1  0
  2  3  1  0
  3  4  2  0
  4  5  1  0
  5  6  2  0
  6  7  1  0
  7  8  1  0
  8  9  1  0
  9 10  1  0
 10 11  2  0
 11 12  1  0
 12 13  2  0
 13 14  1  0
 14 15  1  0
 15 16  2  0
 15 17  1  0
 17 18  1  0
 17 19  2  0
 19 20  1  0
 20 21  2  0
  7 22  2  0
 22 23  1  0
 22  3  1  0
 21 10  1  0
 20 13  1  0
  1 24  1  0
  1 25  1  0
  1 26  1  0
  4 27  1  0
  5 28  1  0
  6 29  1  0
  8 30  1  0
  8 31  1  0
  9 32  1  0
 11 33  1  0
 12 34  1  0
 19 35  1  0
 21 36  1  0
M  CHG  3  14  -1  18  -1  23  -1
M  END
>  <UniqueID>  (74) 
67

>  <SMILES>  (74) 
COc1cccc(CNc2ccc3[n-]c(=O)c([O-])cc3c2)c1[O-]

>  <Energy>  (74) 
42.17975154727723

>  <Genealogy>  (74) 
COc1cccc(CNc2ccc3[n-]c(=O)c([O-])cc3c2)c1[O-] (protonated)
COc1cccc(CNc2ccc3[n-]c(=O)c([O-])cc3c2)c1[O-] (3D coordinates assigned)
COc1cccc(CNc2ccc3[n-]c(=O)c([O-])cc3c2)c1[O-] (optimized conformer: 42.17975154727723 kcal/mol)

>  <smiles>  (74) 
COc1cccc(CNc2ccc3[nH]c(=O)c(O)cc3c2)c1O

>  <score_type>  (74) 
oracle

>  <origin>  (74) 
adg

>  <m_score__min__energy>  (74) 
-12.800000000000001

>  <m_primary>  (74) 
energy

$$$$
74:0
     RDKit          3D

 38 39  0  0  0  0  0  0  0  0999 V2000
   56.3050   29.4740   42.5590 C   0  0  0  0  0  0  0  0  0  0  0  0
   56.5410   29.8160   44.2900 S   0  0  0  0  0  0  0  0  0  0  0  0
   58.0140   29.9470   44.5580 O   0  0  0  0  0  0  0  0  0  0  0  0
   55.8640   31.1030   44.6670 O   0  0  0  0  0  0  0  0  0  0  0  0
   55.9150   28.5100   45.2460 N   0  0  0  0  0  0  0  0  0  0  0  0
   56.6950   27.4870   45.8800 C   0  0  0  0  0  0  0  0  0  0  0  0
   56.2600   26.1520   45.9600 C   0  0  0  0  0  0  0  0  0  0  0  0
   57.0610   25.1880   46.5790 C   0  0  0  0  0  0  0  0  0  0  0  0
   58.2980   25.5430   47.1210 C   0  0  0  0  0  0  0  0  0  0  0  0
   58.7420   26.8730   47.0530 C   0  0  0  0  0  0  0  0  0  0  0  0
   60.0830   27.2630   47.6160 C   0  0  0  0  0  0  0  0  0  0  0  0
   59.9210   28.2620   48.6660 N   0  0  0  0  0  0  0  0  0  0  0  0
   59.7040   29.6530   48.4090 C   0  0  0  0  0  0  0  0  0  0  0  0
   58.9870   30.3390   49.1880 O   0  0  0  0  0  0  0  0  0  0  0  0
   60.3330   30.2620   47.2750 N   0  0  0  0  0  0  0  0  0  0  0  0
   60.1400   31.6410   46.9210 C   0  0  0  0  0  0  0  0  0  0  0  0
   58.8730   32.0570   46.4850 C   0  0  0  0  0  0  0  0  0  0  0  0
   58.6460   33.3920   46.1380 C   0  0  0  0  0  0  0  0  0  0  0  0
   57.0620   33.8960   45.5770 Cl  0  0  0  0  0  0  0  0  0  0  0  0
   59.6810   34.3270   46.2380 C   0  0  0  0  0  0  0  0  0  0  0  0
   60.9390   33.9300   46.6970 C   0  0  0  0  0  0  0  0  0  0  0  0
   61.1760   32.5930   47.0490 C   0  0  0  0  0  0  0  0  0  0  0  0
   62.4640   32.2360   47.5940 C   0  0  0  0  0  0  0  0  0  0  0  0
   63.4950   31.9500   48.0310 N   0  0  0  0  0  0  0  0  0  0  0  0
   57.9340   27.8380   46.4310 C   0  0  0  0  0  0  0  0  0  0  0  0
   55.6836   28.5736   42.4445 H   0  0  0  0  0  0  0  0  0  0  0  0
   55.8035   30.3287   42.0814 H   0  0  0  0  0  0  0  0  0  0  0  0
   57.2820   29.3085   42.0814 H   0  0  0  0  0  0  0  0  0  0  0  0
   55.2869   25.8657   45.5344 H   0  0  0  0  0  0  0  0  0  0  0  0
   56.7154   24.1454   46.6394 H   0  0  0  0  0  0  0  0  0  0  0  0
   58.9259   24.7788   47.6023 H   0  0  0  0  0  0  0  0  0  0  0  0
   60.5732   26.3721   48.0355 H   0  0  0  0  0  0  0  0  0  0  0  0
   60.6990   27.6883   46.8100 H   0  0  0  0  0  0  0  0  0  0  0  0
   61.1010   29.7330   46.8030 H   0  0  0  0  0  0  0  0  0  0  0  0
   58.0525   31.3276   46.4157 H   0  0  0  0  0  0  0  0  0  0  0  0
   59.5044   35.3752   45.9552 H   0  0  0  0  0  0  0  0  0  0  0  0
   61.7484   34.6699   46.7829 H   0  0  0  0  0  0  0  0  0  0  0  0
   58.2778   28.8814   46.3757 H   0  0  0  0  0  0  0  0  0  0  0  0
  1  2  1  0
  2  3  2  0
  2  4  2  0
  2  5  1  0
  5  6  1  0
  6  7  2  0
  7  8  1  0
  8  9  2  0
  9 10  1  0
 10 11  1  0
 11 12  1  0
 12 13  1  0
 13 14  2  0
 13 15  1  0
 15 16  1  0
 16 17  2  0
 17 18  1  0
 18 19  1  0
 18 20  2  0
 20 21  1  0
 21 22  2  0
 22 23  1  0
 23 24  3  0
 10 25  2  0
 25  6  1  0
 22 16  1  0
  1 26  1  0
  1 27  1  0
  1 28  1  0
  7 29  1  0
  8 30  1  0
  9 31  1  0
 11 32  1  0
 11 33  1  0
 15 34  1  0
 17 35  1  0
 20 36  1  0
 21 37  1  0
 25 38  1  0
M  CHG  2   5  -1  12  -1
M  END
>  <UniqueID>  (75) 
68

>  <SMILES>  (75) 
CS(=O)(=O)[N-]c1cccc(C[N-]C(=O)Nc2cc(Cl)ccc2C#N)c1

>  <Energy>  (75) 
39.830826304976064

>  <Genealogy>  (75) 
CS(=O)(=O)[N-]c1cccc(C[N-]C(=O)Nc2cc(Cl)ccc2C#N)c1 (protonated)
CS(=O)(=O)[N-]c1cccc(C[N-]C(=O)Nc2cc(Cl)ccc2C#N)c1 (3D coordinates assigned)
CS(=O)(=O)[N-]c1cccc(C[N-]C(=O)Nc2cc(Cl)ccc2C#N)c1 (optimized conformer: 39.830826304976064 kcal/mol)

>  <smiles>  (75) 
CS(=O)(=O)Nc1cccc(CNC(=O)Nc2cc(Cl)ccc2C#N)c1

>  <score_type>  (75) 
oracle

>  <origin>  (75) 
adg

>  <m_score__min__energy>  (75) 
-11.32

>  <m_primary>  (75) 
energy

$$$$
75:0
     RDKit          3D

 33 34  0  0  0  0  0  0  0  0999 V2000
   55.1670   26.4250   46.1380 N   0  0  0  0  0  0  0  0  0  0  0  0
   56.8600   26.1670   45.9110 S   0  0  0  0  0  0  0  0  0  0  0  0
   57.0750   25.2650   44.7290 O   0  0  0  0  0  0  0  0  0  0  0  0
   57.4350   25.5050   47.1320 O   0  0  0  0  0  0  0  0  0  0  0  0
   57.6580   27.7130   45.6350 C   0  0  0  0  0  0  0  0  0  0  0  0
   59.0550   27.8030   45.6840 C   0  0  0  0  0  0  0  0  0  0  0  0
   59.6870   29.0270   45.4570 C   0  0  0  0  0  0  0  0  0  0  0  0
   58.9280   30.1710   45.1930 C   0  0  0  0  0  0  0  0  0  0  0  0
   57.5300   30.1030   45.1740 C   0  0  0  0  0  0  0  0  0  0  0  0
   56.7890   31.2980   44.8870 N   0  0  0  0  0  0  0  0  0  0  0  0
   57.3340   32.5730   44.5220 C   0  0  0  0  0  0  0  0  0  0  0  0
   57.9540   32.7230   43.4350 O   0  0  0  0  0  0  0  0  0  0  0  0
   57.0660   33.7580   45.3860 C   0  0  0  0  0  0  0  0  0  0  0  0
   57.6080   33.5230   46.6830 O   0  0  0  0  0  0  0  0  0  0  0  0
   58.9780   33.5150   46.9820 C   0  0  0  0  0  0  0  0  0  0  0  0
   59.9600   33.8730   46.0360 C   0  0  0  0  0  0  0  0  0  0  0  0
   61.3150   33.8490   46.3830 C   0  0  0  0  0  0  0  0  0  0  0  0
   61.7010   33.4690   47.6720 C   0  0  0  0  0  0  0  0  0  0  0  0
   63.5520   33.4360   48.1430 Br  0  0  0  0  0  0  0  0  0  0  0  0
   60.7320   33.1130   48.6150 C   0  0  0  0  0  0  0  0  0  0  0  0
   59.3770   33.1360   48.2700 C   0  0  0  0  0  0  0  0  0  0  0  0
   56.8960   28.8630   45.3790 C   0  0  0  0  0  0  0  0  0  0  0  0
   54.7750   26.7070   45.2110 H   0  0  0  0  0  0  0  0  0  0  0  0
   59.6554   26.9074   45.9018 H   0  0  0  0  0  0  0  0  0  0  0  0
   60.7847   29.0914   45.4859 H   0  0  0  0  0  0  0  0  0  0  0  0
   59.4319   31.1294   44.9992 H   0  0  0  0  0  0  0  0  0  0  0  0
   57.5378   34.6488   44.9457 H   0  0  0  0  0  0  0  0  0  0  0  0
   55.9811   33.9224   45.4625 H   0  0  0  0  0  0  0  0  0  0  0  0
   59.6596   34.1724   45.0210 H   0  0  0  0  0  0  0  0  0  0  0  0
   62.0773   34.1293   45.6412 H   0  0  0  0  0  0  0  0  0  0  0  0
   61.0358   32.8145   49.6292 H   0  0  0  0  0  0  0  0  0  0  0  0
   58.6189   32.8544   49.0157 H   0  0  0  0  0  0  0  0  0  0  0  0
   55.7988   28.7953   45.3383 H   0  0  0  0  0  0  0  0  0  0  0  0
  1  2  1  0
  2  3  2  0
  2  4  2  0
  2  5  1  0
  5  6  2  0
  6  7  1  0
  7  8  2  0
  8  9  1  0
  9 10  1  0
 10 11  1  0
 11 12  2  0
 11 13  1  0
 13 14  1  0
 14 15  1  0
 15 16  2  0
 16 17  1  0
 17 18  2  0
 18 19  1  0
 18 20  1  0
 20 21  2  0
  9 22  2  0
 22  5  1  0
 21 15  1  0
  1 23  1  0
  6 24  1  0
  7 25  1  0
  8 26  1  0
 13 27  1  0
 13 28  1  0
 16 29  1  0
 17 30  1  0
 20 31  1  0
 21 32  1  0
 22 33  1  0
M  CHG  2   1  -1  10  -1
M  END
>  <UniqueID>  (76) 
69

>  <SMILES>  (76) 
[NH-]S(=O)(=O)c1cccc([N-]C(=O)COc2ccc(Br)cc2)c1

>  <Energy>  (76) 
34.83225457438585

>  <Genealogy>  (76) 
[NH-]S(=O)(=O)c1cccc([N-]C(=O)COc2ccc(Br)cc2)c1 (protonated)
[NH-]S(=O)(=O)c1cccc([N-]C(=O)COc2ccc(Br)cc2)c1 (3D coordinates assigned)
[NH-]S(=O)(=O)c1cccc([N-]C(=O)COc2ccc(Br)cc2)c1 (optimized conformer: 34.83225457438585 kcal/mol)

>  <smiles>  (76) 
NS(=O)(=O)c1cccc(NC(=O)COc2ccc(Br)cc2)c1

>  <score_type>  (76) 
oracle

>  <origin>  (76) 
adg

>  <m_score__min__energy>  (76) 
-12.359999999999999

>  <m_primary>  (76) 
energy

$$$$
76:0
     RDKit          3D

 41 43  0  0  0  0  0  0  0  0999 V2000
   51.3990   32.4930   50.0040 O   0  0  0  0  0  0  0  0  0  0  0  0
   51.3970   32.3270   51.2520 C   0  0  0  0  0  0  0  0  0  0  0  0
   50.5260   33.0820   52.0300 O   0  0  0  0  0  0  0  0  0  0  0  0
   52.3120   31.3500   51.8840 C   0  0  0  0  0  0  0  0  0  0  0  0
   51.8580   30.5100   52.9160 C   0  0  0  0  0  0  0  0  0  0  0  0
   52.7260   29.5920   53.5120 C   0  0  0  0  0  0  0  0  0  0  0  0
   54.0510   29.4960   53.0810 C   0  0  0  0  0  0  0  0  0  0  0  0
   54.5170   30.3080   52.0430 C   0  0  0  0  0  0  0  0  0  0  0  0
   55.8890   30.1910   51.6370 N   0  0  0  0  0  0  0  0  0  0  0  0
   56.8380   31.2610   51.5240 C   0  0  0  0  0  0  0  0  0  0  0  0
   56.6700   32.2910   52.2290 O   0  0  0  0  0  0  0  0  0  0  0  0
   58.0210   31.1720   50.6390 C   0  0  0  0  0  0  0  0  0  0  0  0
   58.9450   30.1220   50.7740 C   0  0  0  0  0  0  0  0  0  0  0  0
   60.0510   30.0430   49.9220 C   0  0  0  0  0  0  0  0  0  0  0  0
   60.2370   31.0020   48.9230 C   0  0  0  0  0  0  0  0  0  0  0  0
   59.3160   32.0420   48.7670 C   0  0  0  0  0  0  0  0  0  0  0  0
   59.5110   33.0000   47.7240 N   0  0  0  0  0  0  0  0  0  0  0  0
   58.3490   33.2760   46.4650 S   0  0  0  0  0  0  0  0  0  0  0  0
   58.8550   34.3610   45.5560 O   0  0  0  0  0  0  0  0  0  0  0  0
   57.0610   33.7390   47.0860 O   0  0  0  0  0  0  0  0  0  0  0  0
   58.0380   31.8150   45.5310 C   0  0  0  0  0  0  0  0  0  0  0  0
   57.4190   31.8990   44.2750 C   0  0  0  0  0  0  0  0  0  0  0  0
   57.1290   30.7340   43.5570 C   0  0  0  0  0  0  0  0  0  0  0  0
   57.4500   29.4830   44.0910 C   0  0  0  0  0  0  0  0  0  0  0  0
   58.0660   29.3940   45.3430 C   0  0  0  0  0  0  0  0  0  0  0  0
   58.4930   27.6820   46.0750 Br  0  0  0  0  0  0  0  0  0  0  0  0
   58.3610   30.5570   46.0620 C   0  0  0  0  0  0  0  0  0  0  0  0
   58.2330   32.1480   49.6520 C   0  0  0  0  0  0  0  0  0  0  0  0
   53.6490   31.2530   51.4610 C   0  0  0  0  0  0  0  0  0  0  0  0
   50.8139   30.5760   53.2559 H   0  0  0  0  0  0  0  0  0  0  0  0
   52.3648   28.9428   54.3232 H   0  0  0  0  0  0  0  0  0  0  0  0
   54.7316   28.7774   53.5610 H   0  0  0  0  0  0  0  0  0  0  0  0
   58.7977   29.3593   51.5528 H   0  0  0  0  0  0  0  0  0  0  0  0
   60.7761   29.2241   50.0385 H   0  0  0  0  0  0  0  0  0  0  0  0
   61.1105   30.9385   48.2575 H   0  0  0  0  0  0  0  0  0  0  0  0
   57.1613   32.8821   43.8542 H   0  0  0  0  0  0  0  0  0  0  0  0
   56.6475   30.8027   42.5704 H   0  0  0  0  0  0  0  0  0  0  0  0
   57.2179   28.5681   43.5261 H   0  0  0  0  0  0  0  0  0  0  0  0
   58.8474   30.4852   47.0460 H   0  0  0  0  0  0  0  0  0  0  0  0
   57.5445   33.0022   49.5723 H   0  0  0  0  0  0  0  0  0  0  0  0
   54.0206   31.9202   50.6693 H   0  0  0  0  0  0  0  0  0  0  0  0
  1  2  2  0
  2  3  1  0
  2  4  1  0
  4  5  2  0
  5  6  1  0
  6  7  2  0
  7  8  1  0
  8  9  1  0
  9 10  1  0
 10 11  2  0
 10 12  1  0
 12 13  2  0
 13 14  1  0
 14 15  2  0
 15 16  1  0
 16 17  1  0
 17 18  1  0
 18 19  2  0
 18 20  2  0
 18 21  1  0
 21 22  2  0
 22 23  1  0
 23 24  2  0
 24 25  1  0
 25 26  1  0
 25 27  2  0
 16 28  2  0
  8 29  2  0
 29  4  1  0
 28 12  1  0
 27 21  1  0
  5 30  1  0
  6 31  1  0
  7 32  1  0
 13 33  1  0
 14 34  1  0
 15 35  1  0
 22 36  1  0
 23 37  1  0
 24 38  1  0
 27 39  1  0
 28 40  1  0
 29 41  1  0
M  CHG  3   3  -1   9  -1  17  -1
M  END
>  <UniqueID>  (77) 
70

>  <SMILES>  (77) 
O=C([O-])c1cccc([N-]C(=O)c2cccc([N-]S(=O)(=O)c3cccc(Br)c3)c2)c1

>  <Energy>  (77) 
57.121618850596306

>  <Genealogy>  (77) 
O=C([O-])c1cccc([N-]C(=O)c2cccc([N-]S(=O)(=O)c3cccc(Br)c3)c2)c1 (protonated)
O=C([O-])c1cccc([N-]C(=O)c2cccc([N-]S(=O)(=O)c3cccc(Br)c3)c2)c1 (3D coordinates assigned)
O=C([O-])c1cccc([N-]C(=O)c2cccc([N-]S(=O)(=O)c3cccc(Br)c3)c2)c1 (optimized conformer: 57.121618850596306 kcal/mol)

>  <smiles>  (77) 
O=C(O)c1cccc(NC(=O)c2cccc(NS(=O)(=O)c3cccc(Br)c3)c2)c1

>  <score_type>  (77) 
oracle

>  <origin>  (77) 
adg

>  <m_score__min__energy>  (77) 
-15.199999999999999

>  <m_primary>  (77) 
energy

$$$$
77:0
     RDKit          3D

 37 39  0  0  0  0  0  0  0  0999 V2000
   55.0920   29.3450   44.4980 O   0  0  0  0  0  0  0  0  0  0  0  0
   56.3070   29.6160   44.6970 C   0  0  0  0  0  0  0  0  0  0  0  0
   57.3420   28.5330   44.5380 C   0  0  0  0  0  0  0  0  0  0  0  0
   57.8980   28.1050   45.8720 C   0  0  0  0  0  0  0  0  0  0  0  0
   57.4300   27.1090   46.7410 C   0  0  0  0  0  0  0  0  0  0  0  0
   56.2680   26.2240   46.5390 C   0  0  0  0  0  0  0  0  0  0  0  0
   56.3430   25.0130   46.8750 O   0  0  0  0  0  0  0  0  0  0  0  0
   55.0810   26.7040   46.0050 O   0  0  0  0  0  0  0  0  0  0  0  0
   58.1800   27.0550   47.8710 N   0  0  0  0  0  0  0  0  0  0  0  0
   59.1040   28.0200   47.7230 C   0  0  0  0  0  0  0  0  0  0  0  0
   60.0970   28.3670   48.6380 C   0  0  0  0  0  0  0  0  0  0  0  0
   60.9570   29.4310   48.3080 C   0  0  0  0  0  0  0  0  0  0  0  0
   60.8030   30.1200   47.0850 C   0  0  0  0  0  0  0  0  0  0  0  0
   59.7920   29.7490   46.1820 C   0  0  0  0  0  0  0  0  0  0  0  0
   58.9600   28.6850   46.5330 C   0  0  0  0  0  0  0  0  0  0  0  0
   56.6620   30.9740   44.9880 N   0  0  0  0  0  0  0  0  0  0  0  0
   57.5480   31.8230   44.1960 C   0  0  0  0  0  0  0  0  0  0  0  0
   58.2130   32.8700   45.0550 C   0  0  0  0  0  0  0  0  0  0  0  0
   58.7150   34.0430   44.4630 C   0  0  0  0  0  0  0  0  0  0  0  0
   59.3240   35.0280   45.2460 C   0  0  0  0  0  0  0  0  0  0  0  0
   59.4280   34.8580   46.6270 C   0  0  0  0  0  0  0  0  0  0  0  0
   58.9140   33.7080   47.2310 C   0  0  0  0  0  0  0  0  0  0  0  0
   58.2970   32.7160   46.4550 C   0  0  0  0  0  0  0  0  0  0  0  0
   57.7670   31.5820   47.0700 O   0  0  0  0  0  0  0  0  0  0  0  0
   56.8787   27.6641   44.0477 H   0  0  0  0  0  0  0  0  0  0  0  0
   58.1680   28.9295   43.9293 H   0  0  0  0  0  0  0  0  0  0  0  0
   60.2050   27.8254   49.5893 H   0  0  0  0  0  0  0  0  0  0  0  0
   61.7534   29.7275   49.0064 H   0  0  0  0  0  0  0  0  0  0  0  0
   61.4785   30.9522   46.8376 H   0  0  0  0  0  0  0  0  0  0  0  0
   59.6606   30.2808   45.2281 H   0  0  0  0  0  0  0  0  0  0  0  0
   58.3227   31.1966   43.7297 H   0  0  0  0  0  0  0  0  0  0  0  0
   56.9471   32.3328   43.4285 H   0  0  0  0  0  0  0  0  0  0  0  0
   58.6277   34.1863   43.3759 H   0  0  0  0  0  0  0  0  0  0  0  0
   59.7216   35.9380   44.7729 H   0  0  0  0  0  0  0  0  0  0  0  0
   59.9151   35.6301   47.2406 H   0  0  0  0  0  0  0  0  0  0  0  0
   58.9936   33.5799   48.3206 H   0  0  0  0  0  0  0  0  0  0  0  0
   57.0560   31.0180   46.6200 H   0  0  0  0  0  0  0  0  0  0  0  0
  1  2  2  0
  2  3  1  0
  3  4  1  0
  4  5  2  0
  5  6  1  0
  6  7  2  0
  6  8  1  0
  5  9  1  0
  9 10  1  0
 10 11  2  0
 11 12  1  0
 12 13  2  0
 13 14  1  0
 14 15  2  0
  2 16  1  0
 16 17  1  0
 17 18  1  0
 18 19  2  0
 19 20  1  0
 20 21  2  0
 21 22  1  0
 22 23  2  0
 23 24  1  0
 15  4  1  0
 23 18  1  0
 15 10  1  0
  3 25  1  0
  3 26  1  0
 11 27  1  0
 12 28  1  0
 13 29  1  0
 14 30  1  0
 17 31  1  0
 17 32  1  0
 19 33  1  0
 20 34  1  0
 21 35  1  0
 22 36  1  0
 24 37  1  0
M  CHG  3   8  -1   9  -1  16  -1
M  END
>  <UniqueID>  (78) 
71

>  <SMILES>  (78) 
O=C(Cc1c(C(=O)[O-])[n-]c2ccccc12)[N-]Cc1ccccc1O

>  <Energy>  (78) 
68.7066456730445

>  <Genealogy>  (78) 
O=C(Cc1c(C(=O)[O-])[n-]c2ccccc12)[N-]Cc1ccccc1O (protonated)
O=C(Cc1c(C(=O)[O-])[n-]c2ccccc12)[N-]Cc1ccccc1O (3D coordinates assigned)
O=C(Cc1c(C(=O)[O-])[n-]c2ccccc12)[N-]Cc1ccccc1O (optimized conformer: 68.7066456730445 kcal/mol)

>  <smiles>  (78) 
O=C(Cc1c(C(=O)O)[nH]c2ccccc12)NCc1ccccc1O

>  <score_type>  (78) 
oracle

>  <origin>  (78) 
adg

>  <m_score__min__energy>  (78) 
-13.69

>  <m_primary>  (78) 
energy

$$$$
78:0
     RDKit          3D

 35 37  0  0  0  0  0  0  0  0999 V2000
   57.4310   30.4160   44.0970 C   0  0  0  0  0  0  0  0  0  0  0  0
   57.8110   30.0310   45.3250 C   0  0  0  0  0  0  0  0  0  0  0  0
   57.7150   28.7410   45.8550 C   0  0  0  0  0  0  0  0  0  0  0  0
   57.1840   27.6500   45.2720 C   0  0  0  0  0  0  0  0  0  0  0  0
   57.1180   26.3300   45.9370 C   0  0  0  0  0  0  0  0  0  0  0  0
   55.8920   25.7110   46.2610 C   0  0  0  0  0  0  0  0  0  0  0  0
   54.6640   26.3230   46.0050 O   0  0  0  0  0  0  0  0  0  0  0  0
   55.8950   24.4920   46.8590 N   0  0  0  0  0  0  0  0  0  0  0  0
   57.0550   23.8610   47.1730 C   0  0  0  0  0  0  0  0  0  0  0  0
   57.0260   22.7310   47.7250 O   0  0  0  0  0  0  0  0  0  0  0  0
   58.2450   24.4510   46.8980 N   0  0  0  0  0  0  0  0  0  0  0  0
   58.3030   25.6670   46.2970 C   0  0  0  0  0  0  0  0  0  0  0  0
   59.4270   26.1840   46.0560 O   0  0  0  0  0  0  0  0  0  0  0  0
   58.2660   28.7980   47.1280 C   0  0  0  0  0  0  0  0  0  0  0  0
   58.6660   30.1050   47.3280 C   0  0  0  0  0  0  0  0  0  0  0  0
   59.3210   30.6130   48.5750 C   0  0  0  0  0  0  0  0  0  0  0  0
   58.3960   30.8530   46.2330 N   0  0  0  0  0  0  0  0  0  0  0  0
   58.6690   32.2580   46.0880 C   0  0  0  0  0  0  0  0  0  0  0  0
   57.6660   33.1380   45.6600 C   0  0  0  0  0  0  0  0  0  0  0  0
   57.9480   34.4970   45.5120 C   0  0  0  0  0  0  0  0  0  0  0  0
   59.2350   34.9620   45.7900 C   0  0  0  0  0  0  0  0  0  0  0  0
   60.1990   34.0960   46.2000 N   0  0  0  0  0  0  0  0  0  0  0  0
   59.9470   32.7680   46.3530 C   0  0  0  0  0  0  0  0  0  0  0  0
   57.5547   31.4639   43.7862 H   0  0  0  0  0  0  0  0  0  0  0  0
   56.9958   29.6837   43.4011 H   0  0  0  0  0  0  0  0  0  0  0  0
   56.7801   27.7443   44.2532 H   0  0  0  0  0  0  0  0  0  0  0  0
   53.7900   25.9800   46.3830 H   0  0  0  0  0  0  0  0  0  0  0  0
   58.3648   27.9645   47.8390 H   0  0  0  0  0  0  0  0  0  0  0  0
   58.7989   30.2081   49.4545 H   0  0  0  0  0  0  0  0  0  0  0  0
   60.3731   30.2923   48.5933 H   0  0  0  0  0  0  0  0  0  0  0  0
   59.2722   31.7118   48.5933 H   0  0  0  0  0  0  0  0  0  0  0  0
   56.6572   32.7581   45.4408 H   0  0  0  0  0  0  0  0  0  0  0  0
   57.1647   35.1943   45.1799 H   0  0  0  0  0  0  0  0  0  0  0  0
   59.4690   36.0309   45.6770 H   0  0  0  0  0  0  0  0  0  0  0  0
   60.7488   32.0925   46.6857 H   0  0  0  0  0  0  0  0  0  0  0  0
  1  2  2  0
  2  3  1  0
  3  4  2  3
  4  5  1  0
  5  6  2  0
  6  7  1  0
  6  8  1  0
  8  9  1  0
  9 10  2  0
  9 11  1  0
 11 12  1  0
 12 13  2  0
  3 14  1  0
 14 15  2  0
 15 16  1  0
 15 17  1  0
 17 18  1  0
 18 19  2  0
 19 20  1  0
 20 21  2  0
 21 22  1  0
 22 23  2  0
 17  2  1  0
 23 18  1  0
 12  5  1  0
  1 24  1  0
  1 25  1  0
  4 26  1  0
  7 27  1  0
 14 28  1  0
 16 29  1  0
 16 30  1  0
 16 31  1  0
 19 32  1  0
 20 33  1  0
 21 34  1  0
 23 35  1  0
M  CHG  2   8  -1  11  -1
M  END
>  <UniqueID>  (79) 
72

>  <SMILES>  (79) 
C=c1c(=Cc2c(O)[n-]c(=O)[n-]c2=O)cc(C)n1-c1cccnc1

>  <Energy>  (79) 
84.15053801805091

>  <Genealogy>  (79) 
C=c1c(=Cc2c(O)[n-]c(=O)[n-]c2=O)cc(C)n1-c1cccnc1 (protonated)
C=c1c(=Cc2c(O)[n-]c(=O)[n-]c2=O)cc(C)n1-c1cccnc1 (3D coordinates assigned)
C=c1c(=Cc2c(O)[n-]c(=O)[n-]c2=O)cc(C)n1-c1cccnc1 (optimized conformer: 84.15053801805091 kcal/mol)

>  <smiles>  (79) 
C=c1c(=Cc2c(O)[nH]c(=O)[nH]c2=O)cc(C)n1-c1cccnc1

>  <score_type>  (79) 
oracle

>  <origin>  (79) 
adg

>  <m_score__min__energy>  (79) 
-12.24

>  <m_primary>  (79) 
energy

$$$$
79:0
     RDKit          3D

 36 38  0  0  0  0  0  0  0  0999 V2000
   60.9480   33.9180   50.1400 C   0  0  0  0  0  0  0  0  0  0  0  0
   60.2610   33.8030   48.8200 C   0  0  0  0  0  0  0  0  0  0  0  0
   59.1890   33.0000   48.6080 N   0  0  0  0  0  0  0  0  0  0  0  0
   58.7970   33.0500   47.3080 C   0  0  0  0  0  0  0  0  0  0  0  0
   57.7200   32.3350   46.7830 C   0  0  0  0  0  0  0  0  0  0  0  0
   57.4250   32.4560   45.4040 C   0  0  0  0  0  0  0  0  0  0  0  0
   56.3400   31.7420   44.7960 N   0  0  0  0  0  0  0  0  0  0  0  0
   56.3770   30.0660   44.3470 S   0  0  0  0  0  0  0  0  0  0  0  0
   55.1540   29.3840   44.8930 O   0  0  0  0  0  0  0  0  0  0  0  0
   56.3710   29.9570   42.8490 O   0  0  0  0  0  0  0  0  0  0  0  0
   57.8420   29.3100   44.9650 C   0  0  0  0  0  0  0  0  0  0  0  0
   58.6010   28.4610   44.1500 C   0  0  0  0  0  0  0  0  0  0  0  0
   59.7600   27.8600   44.6510 C   0  0  0  0  0  0  0  0  0  0  0  0
   60.1660   28.1080   45.9650 C   0  0  0  0  0  0  0  0  0  0  0  0
   59.4120   28.9530   46.7900 C   0  0  0  0  0  0  0  0  0  0  0  0
   59.9400   29.2720   48.4390 S   0  0  0  0  0  0  0  0  0  0  0  0
   58.8860   30.4320   49.1680 N   0  0  0  0  0  0  0  0  0  0  0  0
   61.3460   29.8060   48.4230 O   0  0  0  0  0  0  0  0  0  0  0  0
   59.9160   28.0010   49.2440 O   0  0  0  0  0  0  0  0  0  0  0  0
   58.2530   29.5600   46.2830 C   0  0  0  0  0  0  0  0  0  0  0  0
   58.2140   33.2990   44.5920 C   0  0  0  0  0  0  0  0  0  0  0  0
   59.2940   34.0140   45.1350 C   0  0  0  0  0  0  0  0  0  0  0  0
   59.5580   33.8720   46.4930 C   0  0  0  0  0  0  0  0  0  0  0  0
   60.7740   34.5820   47.4070 S   0  0  0  0  0  0  0  0  0  0  0  0
   60.2121   33.7948   50.9483 H   0  0  0  0  0  0  0  0  0  0  0  0
   61.7174   33.1361   50.2223 H   0  0  0  0  0  0  0  0  0  0  0  0
   61.4208   34.9078   50.2223 H   0  0  0  0  0  0  0  0  0  0  0  0
   57.1101   31.6878   47.4303 H   0  0  0  0  0  0  0  0  0  0  0  0
   58.2851   28.2666   43.1144 H   0  0  0  0  0  0  0  0  0  0  0  0
   60.3529   27.1911   44.0099 H   0  0  0  0  0  0  0  0  0  0  0  0
   61.0815   27.6378   46.3533 H   0  0  0  0  0  0  0  0  0  0  0  0
   58.4230   30.9550   48.3900 H   0  0  0  0  0  0  0  0  0  0  0  0
   59.4930   31.1200   49.6720 H   0  0  0  0  0  0  0  0  0  0  0  0
   57.6641   30.2348   46.9216 H   0  0  0  0  0  0  0  0  0  0  0  0
   57.9803   33.3971   43.5216 H   0  0  0  0  0  0  0  0  0  0  0  0
   59.9137   34.6680   44.5039 H   0  0  0  0  0  0  0  0  0  0  0  0
  1  2  1  0
  2  3  2  0
  3  4  1  0
  4  5  2  0
  5  6  1  0
  6  7  1  0
  7  8  1  0
  8  9  2  0
  8 10  2  0
  8 11  1  0
 11 12  2  0
 12 13  1  0
 13 14  2  0
 14 15  1  0
 15 16  1  0
 16 17  1  0
 16 18  2  0
 16 19  2  0
 15 20  2  0
  6 21  2  0
 21 22  1  0
 22 23  2  0
 23 24  1  0
 24  2  1  0
 23  4  1  0
 20 11  1  0
  1 25  1  0
  1 26  1  0
  1 27  1  0
  5 28  1  0
 12 29  1  0
 13 30  1  0
 14 31  1  0
 17 32  1  0
 17 33  1  0
 20 34  1  0
 21 35  1  0
 22 36  1  0
M  CHG  1   7  -1
M  END
>  <UniqueID>  (80) 
73

>  <SMILES>  (80) 
Cc1nc2cc([N-]S(=O)(=O)c3cccc(S(N)(=O)=O)c3)ccc2s1

>  <Energy>  (80) 
72.24996569426425

>  <Genealogy>  (80) 
Cc1nc2cc([N-]S(=O)(=O)c3cccc(S(N)(=O)=O)c3)ccc2s1 (protonated)
Cc1nc2cc([N-]S(=O)(=O)c3cccc(S(N)(=O)=O)c3)ccc2s1 (3D coordinates assigned)
Cc1nc2cc([N-]S(=O)(=O)c3cccc(S(N)(=O)=O)c3)ccc2s1 (optimized conformer: 72.24996569426425 kcal/mol)

>  <smiles>  (80) 
Cc1nc2cc(NS(=O)(=O)c3cccc(S(N)(=O)=O)c3)ccc2s1

>  <score_type>  (80) 
oracle

>  <origin>  (80) 
adg

>  <m_score__min__energy>  (80) 
-10.51

>  <m_primary>  (80) 
energy

$$$$
80:0
     RDKit          3D

 25 26  0  0  0  0  0  0  0  0999 V2000
   60.8544   35.0738   48.0721 H   0  0  0  0  0  0  0  0  0  0  0  0
   59.9770   34.5620   47.6500 C   0  0  0  0  0  0  0  0  0  0  0  0
   59.2970   34.8580   46.1410 S   0  0  0  0  0  0  0  0  0  0  0  0
   58.0790   33.7050   46.2620 C   0  0  0  0  0  0  0  0  0  0  0  0
   57.0030   33.4760   45.2500 C   0  0  0  0  0  0  0  0  0  0  0  0
   56.8577   34.3915   44.6578 H   0  0  0  0  0  0  0  0  0  0  0  0
   56.0672   33.2168   45.7668 H   0  0  0  0  0  0  0  0  0  0  0  0
   57.3930   32.3540   44.3420 C   0  0  0  0  0  0  0  0  0  0  0  0
   58.3070   32.5320   43.4920 O   0  0  0  0  0  0  0  0  0  0  0  0
   56.7610   31.0760   44.4980 N   0  0  0  0  0  0  0  0  0  0  0  0
   57.3230   29.9060   44.6430 C   0  0  0  0  0  0  0  0  0  0  0  0
   56.5130   28.8140   45.0000 C   0  0  0  0  0  0  0  0  0  0  0  0
   55.1480   28.9800   45.2050 O   0  0  0  0  0  0  0  0  0  0  0  0
   57.0860   27.5510   45.1550 C   0  0  0  0  0  0  0  0  0  0  0  0
   56.4593   26.6932   45.4402 H   0  0  0  0  0  0  0  0  0  0  0  0
   58.4530   27.3780   44.9480 C   0  0  0  0  0  0  0  0  0  0  0  0
   58.9148   26.3883   45.0797 H   0  0  0  0  0  0  0  0  0  0  0  0
   59.2290   28.4740   44.5720 C   0  0  0  0  0  0  0  0  0  0  0  0
   60.3072   28.3453   44.3961 H   0  0  0  0  0  0  0  0  0  0  0  0
   58.6610   29.7030   44.4210 N   0  0  0  0  0  0  0  0  0  0  0  0
   59.2840   30.4680   44.0890 H   0  0  0  0  0  0  0  0  0  0  0  0
   58.1750   33.0850   47.5020 C   0  0  0  0  0  0  0  0  0  0  0  0
   57.4833   32.3005   47.8428 H   0  0  0  0  0  0  0  0  0  0  0  0
   59.2420   33.5610   48.2730 C   0  0  0  0  0  0  0  0  0  0  0  0
   59.4764   33.1786   49.2774 H   0  0  0  0  0  0  0  0  0  0  0  0
  1  2  1  0
  2  3  1  0
  3  4  1  0
  4  5  1  0
  5  6  1  0
  5  7  1  0
  5  8  1  0
  8  9  2  0
  8 10  1  0
 10 11  2  0
 11 12  1  0
 12 13  1  0
 12 14  2  0
 14 15  1  0
 14 16  1  0
 16 17  1  0
 16 18  2  0
 18 19  1  0
 18 20  1  0
 20 21  1  0
  4 22  2  0
 22 23  1  0
 22 24  1  0
 24 25  1  0
 24  2  2  0
 20 11  1  0
M  CHG  1  13  -1
M  END
>  <UniqueID>  (81) 
74

>  <SMILES>  (81) 
O=C(Cc1cccs1)/N=c1\[nH]cccc1[O-]

>  <Energy>  (81) 
56.3877754214796

>  <Genealogy>  (81) 
O=C(Cc1cccs1)N=c1[nH]cccc1[O-] (protonated)
O=C(Cc1cccs1)/N=c1\[nH]cccc1[O-] (cis-trans isomerization)
O=C(Cc1cccs1)/N=c1\[nH]cccc1[O-] (3D coordinates assigned)
O=C(Cc1cccs1)/N=c1\[nH]cccc1[O-] (optimized conformer: 56.3877754214796 kcal/mol)

>  <smiles>  (81) 
O=C(Cc1cccs1)N=c1[nH]cccc1O

>  <score_type>  (81) 
oracle

>  <origin>  (81) 
adg

>  <m_score__min__energy>  (81) 
-10.119999999999999

>  <m_primary>  (81) 
energy

$$$$
81:0
     RDKit          3D

 48 50  0  0  0  0  0  0  0  0999 V2000
   55.6820   29.3530   44.7500 O   0  0  0  0  0  0  0  0  0  0  0  0
   56.7440   29.5630   44.1050 C   0  0  0  0  0  0  0  0  0  0  0  0
   56.8900   30.8370   43.3250 C   0  0  0  0  0  0  0  0  0  0  0  0
   57.9080   31.6630   43.8910 O   0  0  0  0  0  0  0  0  0  0  0  0
   58.1370   31.8450   45.2660 C   0  0  0  0  0  0  0  0  0  0  0  0
   58.7090   30.8440   46.0730 C   0  0  0  0  0  0  0  0  0  0  0  0
   58.9140   31.0660   47.4390 C   0  0  0  0  0  0  0  0  0  0  0  0
   58.5530   32.2920   48.0230 C   0  0  0  0  0  0  0  0  0  0  0  0
   58.7580   32.5520   49.4220 N   0  0  0  0  0  0  0  0  0  0  0  0
   60.3200   32.8380   50.1140 S   0  0  0  0  0  0  0  0  0  0  0  0
   60.3080   34.1600   51.1510 O   0  0  0  0  0  0  0  0  0  0  0  0
   61.5640   32.9530   48.8830 C   0  0  0  0  0  0  0  0  0  0  0  0
   62.7770   32.2690   49.0390 C   0  0  0  0  0  0  0  0  0  0  0  0
   63.7690   32.3700   48.0580 C   0  0  0  0  0  0  0  0  0  0  0  0
   63.5520   33.1570   46.9230 C   0  0  0  0  0  0  0  0  0  0  0  0
   62.3430   33.8430   46.7670 C   0  0  0  0  0  0  0  0  0  0  0  0
   61.3490   33.7420   47.7460 C   0  0  0  0  0  0  0  0  0  0  0  0
   57.9920   33.2910   47.2150 C   0  0  0  0  0  0  0  0  0  0  0  0
   57.7830   33.0710   45.8490 C   0  0  0  0  0  0  0  0  0  0  0  0
   57.0680   34.3450   44.8740 Cl  0  0  0  0  0  0  0  0  0  0  0  0
   57.7990   28.5880   44.0890 N   0  0  0  0  0  0  0  0  0  0  0  0
   57.7980   27.3900   44.8830 C   0  0  0  0  0  0  0  0  0  0  0  0
   58.0140   27.4310   46.2710 C   0  0  0  0  0  0  0  0  0  0  0  0
   58.0190   26.2510   47.0180 C   0  0  0  0  0  0  0  0  0  0  0  0
   57.8290   25.0190   46.3860 C   0  0  0  0  0  0  0  0  0  0  0  0
   57.6590   24.9520   44.9930 C   0  0  0  0  0  0  0  0  0  0  0  0
   57.4120   23.6260   44.3170 C   0  0  0  0  0  0  0  0  0  0  0  0
   56.4550   22.9260   45.0270 F   0  0  0  0  0  0  0  0  0  0  0  0
   56.9670   23.8130   43.0200 F   0  0  0  0  0  0  0  0  0  0  0  0
   58.5770   22.8780   44.2710 F   0  0  0  0  0  0  0  0  0  0  0  0
   57.6310   26.1470   44.2510 C   0  0  0  0  0  0  0  0  0  0  0  0
   57.1578   30.5952   42.2859 H   0  0  0  0  0  0  0  0  0  0  0  0
   55.9350   31.3819   43.3568 H   0  0  0  0  0  0  0  0  0  0  0  0
   58.9968   29.8806   45.6268 H   0  0  0  0  0  0  0  0  0  0  0  0
   59.3608   30.2756   48.0600 H   0  0  0  0  0  0  0  0  0  0  0  0
   57.9390   32.5650   50.0690 H   0  0  0  0  0  0  0  0  0  0  0  0
   60.4250   33.7730   52.0550 H   0  0  0  0  0  0  0  0  0  0  0  0
   62.9492   31.6523   49.9334 H   0  0  0  0  0  0  0  0  0  0  0  0
   64.7197   31.8303   48.1795 H   0  0  0  0  0  0  0  0  0  0  0  0
   64.3326   33.2368   46.1521 H   0  0  0  0  0  0  0  0  0  0  0  0
   62.1738   34.4623   45.8738 H   0  0  0  0  0  0  0  0  0  0  0  0
   60.3987   34.2821   47.6229 H   0  0  0  0  0  0  0  0  0  0  0  0
   57.7132   34.2578   47.6595 H   0  0  0  0  0  0  0  0  0  0  0  0
   58.5570   28.7020   43.3780 H   0  0  0  0  0  0  0  0  0  0  0  0
   58.1798   28.3966   46.7712 H   0  0  0  0  0  0  0  0  0  0  0  0
   58.1729   26.2913   48.1064 H   0  0  0  0  0  0  0  0  0  0  0  0
   57.8124   24.0955   46.9833 H   0  0  0  0  0  0  0  0  0  0  0  0
   57.4764   26.1073   43.1626 H   0  0  0  0  0  0  0  0  0  0  0  0
  1  2  2  0
  2  3  1  0
  3  4  1  0
  4  5  1  0
  5  6  2  0
  6  7  1  0
  7  8  2  0
  8  9  1  0
  9 10  1  0
 10 11  1  6
 10 12  1  0
 12 13  2  0
 13 14  1  0
 14 15  2  0
 15 16  1  0
 16 17  2  0
  8 18  1  0
 18 19  2  0
 19 20  1  0
  2 21  1  0
 21 22  1  0
 22 23  2  0
 23 24  1  0
 24 25  2  0
 25 26  1  0
 26 27  1  0
 27 28  1  0
 27 29  1  0
 27 30  1  0
 26 31  2  0
 19  5  1  0
 31 22  1  0
 17 12  1  0
  3 32  1  0
  3 33  1  0
  6 34  1  0
  7 35  1  0
  9 36  1  0
 11 37  1  0
 13 38  1  0
 14 39  1  0
 15 40  1  0
 16 41  1  0
 17 42  1  0
 18 43  1  0
 21 44  1  0
 23 45  1  0
 24 46  1  0
 25 47  1  0
 31 48  1  0
M  CHG  1  10   1
M  END
>  <UniqueID>  (82) 
75

>  <SMILES>  (82) 
O=C(COc1ccc(N[S@+](O)c2ccccc2)cc1Cl)Nc1cccc(C(F)(F)F)c1

>  <Energy>  (82) 
52.689679533493866

>  <Genealogy>  (82) 
O=C(COc1ccc(N[S+](O)c2ccccc2)cc1Cl)Nc1cccc(C(F)(F)F)c1 (protonated)
O=C(COc1ccc(N[S@+](O)c2ccccc2)cc1Cl)Nc1cccc(C(F)(F)F)c1 (chirality)
O=C(COc1ccc(N[S@+](O)c2ccccc2)cc1Cl)Nc1cccc(C(F)(F)F)c1 (3D coordinates assigned)
O=C(COc1ccc(N[S@+](O)c2ccccc2)cc1Cl)Nc1cccc(C(F)(F)F)c1 (optimized conformer: 52.689679533493866 kcal/mol)

>  <smiles>  (82) 
O=C(COc1ccc(N[S+]([O-])c2ccccc2)cc1Cl)Nc1cccc(C(F)(F)F)c1

>  <score_type>  (82) 
oracle

>  <origin>  (82) 
adg

>  <m_score__min__energy>  (82) 
-7.8200000000000003

>  <m_primary>  (82) 
energy

$$$$
82:0
     RDKit          3D

 57 60  0  0  0  0  0  0  0  0999 V2000
   55.1940   30.9300   52.0630 C   0  0  0  0  0  0  0  0  0  0  0  0
   56.6480   31.0070   51.7410 C   0  0  0  0  0  0  0  0  0  0  0  0
   57.4010   32.1650   51.6820 C   0  0  0  0  0  0  0  0  0  0  0  0
   58.6900   31.7250   51.4610 C   0  0  0  0  0  0  0  0  0  0  0  0
   58.6730   30.3800   51.3930 N   0  0  0  0  0  0  0  0  0  0  0  0
   59.8380   29.5120   51.2610 C   0  0  0  0  0  0  0  0  0  0  0  0
   60.1690   29.3420   49.8120 C   0  0  0  0  0  0  0  0  0  0  0  0
   60.5780   30.3340   49.1490 O   0  0  0  0  0  0  0  0  0  0  0  0
   59.9740   28.0730   49.1740 N   0  0  0  0  0  0  0  0  0  0  0  0
   59.6920   27.9270   47.7720 C   0  0  0  0  0  0  0  0  0  0  0  0
   59.9580   26.7060   47.1360 C   0  0  0  0  0  0  0  0  0  0  0  0
   59.6320   26.5270   45.7880 C   0  0  0  0  0  0  0  0  0  0  0  0
   59.0180   27.5570   45.0710 C   0  0  0  0  0  0  0  0  0  0  0  0
   58.7350   28.7770   45.6990 C   0  0  0  0  0  0  0  0  0  0  0  0
   57.8250   30.0260   44.8540 S   0  0  0  0  0  0  0  0  0  0  0  0
   58.6770   30.6010   43.7590 O   0  0  0  0  0  0  0  0  0  0  0  0
   56.5750   29.4520   44.2510 O   0  0  0  0  0  0  0  0  0  0  0  0
   57.4140   31.2720   45.9810 N   0  0  0  0  0  0  0  0  0  0  0  0
   58.1470   32.4990   45.9900 C   0  0  0  0  0  0  0  0  0  0  0  0
   58.9140   32.8740   47.1090 C   0  0  0  0  0  0  0  0  0  0  0  0
   59.0270   31.9590   48.2140 N   0  0  0  0  0  0  0  0  0  0  0  0
   59.5310   34.1100   47.1310 N   0  0  0  0  0  0  0  0  0  0  0  0
   60.3080   34.5530   48.3120 C   0  0  0  0  0  0  0  0  0  0  0  0
   61.6390   33.8450   48.3990 C   0  0  0  0  0  0  0  0  0  0  0  0
   62.2790   33.4060   47.2270 C   0  0  0  0  0  0  0  0  0  0  0  0
   63.4970   32.7240   47.3010 C   0  0  0  0  0  0  0  0  0  0  0  0
   64.0780   32.4600   48.5430 C   0  0  0  0  0  0  0  0  0  0  0  0
   63.4370   32.8710   49.7140 C   0  0  0  0  0  0  0  0  0  0  0  0
   62.2200   33.5530   49.6460 C   0  0  0  0  0  0  0  0  0  0  0  0
   59.4260   34.9390   46.0370 C   0  0  0  0  0  0  0  0  0  0  0  0
   60.0050   36.0580   46.0120 O   0  0  0  0  0  0  0  0  0  0  0  0
   58.6960   34.5660   44.9580 N   0  0  0  0  0  0  0  0  0  0  0  0
   58.0510   33.3770   44.9140 C   0  0  0  0  0  0  0  0  0  0  0  0
   57.3720   33.0760   43.8980 O   0  0  0  0  0  0  0  0  0  0  0  0
   59.0720   28.9590   47.0460 C   0  0  0  0  0  0  0  0  0  0  0  0
   57.4420   29.9310   51.5820 N   0  0  0  0  0  0  0  0  0  0  0  0
   55.0601   30.9229   53.1548 H   0  0  0  0  0  0  0  0  0  0  0  0
   54.6772   31.8020   51.6359 H   0  0  0  0  0  0  0  0  0  0  0  0
   54.7722   30.0083   51.6359 H   0  0  0  0  0  0  0  0  0  0  0  0
   57.0515   33.2027   51.7874 H   0  0  0  0  0  0  0  0  0  0  0  0
   59.5796   32.3637   51.3579 H   0  0  0  0  0  0  0  0  0  0  0  0
   60.6942   29.9649   51.7824 H   0  0  0  0  0  0  0  0  0  0  0  0
   59.6171   28.5302   51.7052 H   0  0  0  0  0  0  0  0  0  0  0  0
   60.0400   27.2110   49.7600 H   0  0  0  0  0  0  0  0  0  0  0  0
   60.4252   25.8852   47.7000 H   0  0  0  0  0  0  0  0  0  0  0  0
   59.8596   25.5726   45.2907 H   0  0  0  0  0  0  0  0  0  0  0  0
   58.7566   27.4100   44.0127 H   0  0  0  0  0  0  0  0  0  0  0  0
   58.6810   30.9770   48.1420 H   0  0  0  0  0  0  0  0  0  0  0  0
   59.4480   32.2220   49.1290 H   0  0  0  0  0  0  0  0  0  0  0  0
   60.4840   35.6363   48.2377 H   0  0  0  0  0  0  0  0  0  0  0  0
   59.7294   34.3102   49.2155 H   0  0  0  0  0  0  0  0  0  0  0  0
   61.8191   33.6001   46.2468 H   0  0  0  0  0  0  0  0  0  0  0  0
   63.9987   32.3947   46.3791 H   0  0  0  0  0  0  0  0  0  0  0  0
   65.0396   31.9288   48.5992 H   0  0  0  0  0  0  0  0  0  0  0  0
   63.8919   32.6570   50.6924 H   0  0  0  0  0  0  0  0  0  0  0  0
   61.7137   33.8631   50.5720 H   0  0  0  0  0  0  0  0  0  0  0  0
   58.8499   29.9166   47.5397 H   0  0  0  0  0  0  0  0  0  0  0  0
  1  2  1  0
  2  3  1  0
  3  4  2  0
  4  5  1  0
  5  6  1  0
  6  7  1  0
  7  8  2  0
  7  9  1  0
  9 10  1  0
 10 11  2  0
 11 12  1  0
 12 13  2  0
 13 14  1  0
 14 15  1  0
 15 16  2  0
 15 17  2  0
 15 18  1  0
 18 19  1  0
 19 20  2  0
 20 21  1  0
 20 22  1  0
 22 23  1  0
 23 24  1  0
 24 25  2  0
 25 26  1  0
 26 27  2  0
 27 28  1  0
 28 29  2  0
 22 30  1  0
 30 31  2  0
 30 32  1  0
 32 33  1  0
 33 34  2  0
 14 35  2  0
  5 36  1  0
 36  2  2  0
 35 10  1  0
 33 19  1  0
 29 24  1  0
  1 37  1  0
  1 38  1  0
  1 39  1  0
  3 40  1  0
  4 41  1  0
  6 42  1  0
  6 43  1  0
  9 44  1  0
 11 45  1  0
 12 46  1  0
 13 47  1  0
 21 48  1  0
 21 49  1  0
 23 50  1  0
 23 51  1  0
 25 52  1  0
 26 53  1  0
 27 54  1  0
 28 55  1  0
 29 56  1  0
 35 57  1  0
M  CHG  2  18  -1  32  -1
M  END
>  <UniqueID>  (83) 
76

>  <SMILES>  (83) 
Cc1ccn(CC(=O)Nc2cccc(S(=O)(=O)[N-]c3c(N)n(Cc4ccccc4)c(=O)[n-]c3=O)c2)n1

>  <Energy>  (83) 
102.26865403578768

>  <Genealogy>  (83) 
Cc1ccn(CC(=O)Nc2cccc(S(=O)(=O)[N-]c3c(N)n(Cc4ccccc4)c(=O)[n-]c3=O)c2)n1 (protonated)
Cc1ccn(CC(=O)Nc2cccc(S(=O)(=O)[N-]c3c(N)n(Cc4ccccc4)c(=O)[n-]c3=O)c2)n1 (3D coordinates assigned)
Cc1ccn(CC(=O)Nc2cccc(S(=O)(=O)[N-]c3c(N)n(Cc4ccccc4)c(=O)[n-]c3=O)c2)n1 (optimized conformer: 102.26865403578768 kcal/mol)

>  <smiles>  (83) 
Cc1ccn(CC(=O)Nc2cccc(S(=O)(=O)Nc3c(N)n(Cc4ccccc4)c(=O)[nH]c3=O)c2)n1

>  <score_type>  (83) 
oracle

>  <origin>  (83) 
adg

>  <m_score__min__energy>  (83) 
-13.640000000000001

>  <m_primary>  (83) 
energy

$$$$
83:0
     RDKit          3D

 41 43  0  0  0  0  0  0  0  0999 V2000
   55.1470   29.3550   44.8770 N   0  0  0  0  0  0  0  0  0  0  0  0
   56.5870   29.6820   43.9780 S   0  0  0  0  0  0  0  0  0  0  0  0
   56.2550   30.5420   42.7920 O   0  0  0  0  0  0  0  0  0  0  0  0
   57.1470   28.3750   43.4920 O   0  0  0  0  0  0  0  0  0  0  0  0
   57.7810   30.5080   44.9970 C   0  0  0  0  0  0  0  0  0  0  0  0
   57.9220   31.9000   44.8770 C   0  0  0  0  0  0  0  0  0  0  0  0
   58.8820   32.5850   45.6260 C   0  0  0  0  0  0  0  0  0  0  0  0
   59.7140   31.8890   46.5010 C   0  0  0  0  0  0  0  0  0  0  0  0
   59.5820   30.5060   46.6390 C   0  0  0  0  0  0  0  0  0  0  0  0
   58.6130   29.8050   45.9040 C   0  0  0  0  0  0  0  0  0  0  0  0
   58.4970   28.3470   46.1070 C   0  0  0  0  0  0  0  0  0  0  0  0
   57.2510   27.7740   46.3960 C   0  0  0  0  0  0  0  0  0  0  0  0
   57.1440   26.3980   46.6090 C   0  0  0  0  0  0  0  0  0  0  0  0
   58.2760   25.5730   46.5410 C   0  0  0  0  0  0  0  0  0  0  0  0
   58.1280   24.1650   46.8020 N   0  0  0  0  0  0  0  0  0  0  0  0
   57.5840   23.2230   45.8640 C   0  0  0  0  0  0  0  0  0  0  0  0
   57.7690   23.4660   44.4960 C   0  0  0  0  0  0  0  0  0  0  0  0
   57.3270   22.5460   43.5450 C   0  0  0  0  0  0  0  0  0  0  0  0
   56.6840   21.3730   43.9490 C   0  0  0  0  0  0  0  0  0  0  0  0
   56.2490   20.4420   43.0090 O   0  0  0  0  0  0  0  0  0  0  0  0
   56.4690   21.1310   45.3090 C   0  0  0  0  0  0  0  0  0  0  0  0
   56.8910   22.0560   46.2820 C   0  0  0  0  0  0  0  0  0  0  0  0
   56.5540   21.7950   47.7020 C   0  0  0  0  0  0  0  0  0  0  0  0
   57.3460   22.1200   48.6240 O   0  0  0  0  0  0  0  0  0  0  0  0
   55.3300   21.2270   48.0350 O   0  0  0  0  0  0  0  0  0  0  0  0
   59.5210   26.1450   46.2030 C   0  0  0  0  0  0  0  0  0  0  0  0
   60.6290   25.3780   46.0480 F   0  0  0  0  0  0  0  0  0  0  0  0
   59.6250   27.5230   45.9880 C   0  0  0  0  0  0  0  0  0  0  0  0
   55.3940   28.6430   45.6010 H   0  0  0  0  0  0  0  0  0  0  0  0
   57.2706   32.4562   44.1869 H   0  0  0  0  0  0  0  0  0  0  0  0
   58.9814   33.6758   45.5249 H   0  0  0  0  0  0  0  0  0  0  0  0
   60.4749   32.4295   47.0831 H   0  0  0  0  0  0  0  0  0  0  0  0
   60.2427   29.9612   47.3293 H   0  0  0  0  0  0  0  0  0  0  0  0
   56.3552   28.4097   46.4552 H   0  0  0  0  0  0  0  0  0  0  0  0
   56.1615   25.9566   46.8325 H   0  0  0  0  0  0  0  0  0  0  0  0
   58.3640   23.8110   47.7570 H   0  0  0  0  0  0  0  0  0  0  0  0
   58.2673   24.3906   44.1693 H   0  0  0  0  0  0  0  0  0  0  0  0
   57.4850   22.7444   42.4746 H   0  0  0  0  0  0  0  0  0  0  0  0
   56.6830   19.5310   42.9260 H   0  0  0  0  0  0  0  0  0  0  0  0
   55.9635   20.2057   45.6226 H   0  0  0  0  0  0  0  0  0  0  0  0
   60.5979   27.9631   45.7239 H   0  0  0  0  0  0  0  0  0  0  0  0
  1  2  1  0
  2  3  2  0
  2  4  2  0
  2  5  1  0
  5  6  2  0
  6  7  1  0
  7  8  2  0
  8  9  1  0
  9 10  2  0
 10 11  1  0
 11 12  2  0
 12 13  1  0
 13 14  2  0
 14 15  1  0
 15 16  1  0
 16 17  2  0
 17 18  1  0
 18 19  2  0
 19 20  1  0
 19 21  1  0
 21 22  2  0
 22 23  1  0
 23 24  2  0
 23 25  1  0
 14 26  1  0
 26 27  1  0
 26 28  2  0
 10  5  1  0
 28 11  1  0
 22 16  1  0
  1 29  1  0
  6 30  1  0
  7 31  1  0
  8 32  1  0
  9 33  1  0
 12 34  1  0
 13 35  1  0
 15 36  1  0
 17 37  1  0
 18 38  1  0
 20 39  1  0
 21 40  1  0
 28 41  1  0
M  CHG  2   1  -1  25  -1
M  END
>  <UniqueID>  (84) 
77

>  <SMILES>  (84) 
[NH-]S(=O)(=O)c1ccccc1-c1ccc(Nc2ccc(O)cc2C(=O)[O-])c(F)c1

>  <Energy>  (84) 
62.98477327524369

>  <Genealogy>  (84) 
[NH-]S(=O)(=O)c1ccccc1-c1ccc(Nc2ccc(O)cc2C(=O)[O-])c(F)c1 (protonated)
[NH-]S(=O)(=O)c1ccccc1-c1ccc(Nc2ccc(O)cc2C(=O)[O-])c(F)c1 (3D coordinates assigned)
[NH-]S(=O)(=O)c1ccccc1-c1ccc(Nc2ccc(O)cc2C(=O)[O-])c(F)c1 (optimized conformer: 62.98477327524369 kcal/mol)

>  <smiles>  (84) 
NS(=O)(=O)c1ccccc1-c1ccc(Nc2ccc(O)cc2C(=O)O)c(F)c1

>  <score_type>  (84) 
oracle

>  <origin>  (84) 
adg

>  <m_score__min__energy>  (84) 
-13.449999999999999

>  <m_primary>  (84) 
energy

$$$$
84:0
     RDKit          3D

 44 46  0  0  0  0  0  0  0  0999 V2000
   55.1480   29.2920   44.7950 N   0  0  0  0  0  0  0  0  0  0  0  0
   56.7450   29.9240   44.6070 S   0  0  0  0  0  0  0  0  0  0  0  0
   57.2650   29.5790   43.2390 O   0  0  0  0  0  0  0  0  0  0  0  0
   56.7090   31.4210   44.7430 O   0  0  0  0  0  0  0  0  0  0  0  0
   57.7990   29.2360   45.8360 C   0  0  0  0  0  0  0  0  0  0  0  0
   58.5280   30.0720   46.6920 C   0  0  0  0  0  0  0  0  0  0  0  0
   59.3530   29.5240   47.6780 C   0  0  0  0  0  0  0  0  0  0  0  0
   59.4540   28.1310   47.8240 C   0  0  0  0  0  0  0  0  0  0  0  0
   60.3180   27.5510   48.9110 C   0  0  0  0  0  0  0  0  0  0  0  0
   60.8680   28.6200   49.7360 N   0  0  0  0  0  0  0  0  0  0  0  0
   60.3930   28.9330   51.0510 C   0  0  0  0  0  0  0  0  0  0  0  0
   60.6690   28.1670   52.0150 O   0  0  0  0  0  0  0  0  0  0  0  0
   59.5750   30.1460   51.2760 C   0  0  0  0  0  0  0  0  0  0  0  0
   58.4870   30.1210   52.1680 C   0  0  0  0  0  0  0  0  0  0  0  0
   57.7130   31.2660   52.3710 C   0  0  0  0  0  0  0  0  0  0  0  0
   58.0020   32.4420   51.6750 C   0  0  0  0  0  0  0  0  0  0  0  0
   59.0620   32.4810   50.7600 C   0  0  0  0  0  0  0  0  0  0  0  0
   59.3420   33.7020   50.0530 N   0  0  0  0  0  0  0  0  0  0  0  0
   59.7870   33.7630   48.6860 C   0  0  0  0  0  0  0  0  0  0  0  0
   58.8400   33.8130   47.6520 C   0  0  0  0  0  0  0  0  0  0  0  0
   59.2510   33.8590   46.3170 C   0  0  0  0  0  0  0  0  0  0  0  0
   60.6120   33.8440   46.0020 C   0  0  0  0  0  0  0  0  0  0  0  0
   61.5660   33.7700   47.0220 C   0  0  0  0  0  0  0  0  0  0  0  0
   63.2760   33.7360   46.6270 Cl  0  0  0  0  0  0  0  0  0  0  0  0
   61.1560   33.7170   48.3590 C   0  0  0  0  0  0  0  0  0  0  0  0
   59.8640   31.3400   50.5900 C   0  0  0  0  0  0  0  0  0  0  0  0
   58.7130   27.2950   46.9750 C   0  0  0  0  0  0  0  0  0  0  0  0
   57.8890   27.8450   45.9870 C   0  0  0  0  0  0  0  0  0  0  0  0
   55.1690   28.6540   45.6220 H   0  0  0  0  0  0  0  0  0  0  0  0
   58.4507   31.1643   46.5875 H   0  0  0  0  0  0  0  0  0  0  0  0
   59.9260   30.1870   48.3429 H   0  0  0  0  0  0  0  0  0  0  0  0
   59.7123   26.8813   49.5392 H   0  0  0  0  0  0  0  0  0  0  0  0
   61.1443   26.9876   48.4529 H   0  0  0  0  0  0  0  0  0  0  0  0
   58.2445   29.1943   52.7087 H   0  0  0  0  0  0  0  0  0  0  0  0
   56.8733   31.2414   53.0812 H   0  0  0  0  0  0  0  0  0  0  0  0
   57.3939   33.3425   51.8463 H   0  0  0  0  0  0  0  0  0  0  0  0
   59.2050   34.6050   50.5640 H   0  0  0  0  0  0  0  0  0  0  0  0
   57.7669   33.8160   47.8937 H   0  0  0  0  0  0  0  0  0  0  0  0
   58.5017   33.9071   45.5131 H   0  0  0  0  0  0  0  0  0  0  0  0
   60.9335   33.8904   44.9510 H   0  0  0  0  0  0  0  0  0  0  0  0
   61.9071   33.6390   49.1588 H   0  0  0  0  0  0  0  0  0  0  0  0
   60.7291   31.3807   49.9118 H   0  0  0  0  0  0  0  0  0  0  0  0
   58.7802   26.2027   47.0866 H   0  0  0  0  0  0  0  0  0  0  0  0
   57.3096   27.1835   45.3262 H   0  0  0  0  0  0  0  0  0  0  0  0
  1  2  1  0
  2  3  2  0
  2  4  2  0
  2  5  1  0
  5  6  2  0
  6  7  1  0
  7  8  2  0
  8  9  1  0
  9 10  1  0
 10 11  1  0
 11 12  2  0
 11 13  1  0
 13 14  2  0
 14 15  1  0
 15 16  2  0
 16 17  1  0
 17 18  1  0
 18 19  1  0
 19 20  2  0
 20 21  1  0
 21 22  2  0
 22 23  1  0
 23 24  1  0
 23 25  2  0
 17 26  2  0
  8 27  1  0
 27 28  2  0
 28  5  1  0
 26 13  1  0
 25 19  1  0
  1 29  1  0
  6 30  1  0
  7 31  1  0
  9 32  1  0
  9 33  1  0
 14 34  1  0
 15 35  1  0
 16 36  1  0
 18 37  1  0
 20 38  1  0
 21 39  1  0
 22 40  1  0
 25 41  1  0
 26 42  1  0
 27 43  1  0
 28 44  1  0
M  CHG  2   1  -1  10  -1
M  END
>  <UniqueID>  (85) 
78

>  <SMILES>  (85) 
[NH-]S(=O)(=O)c1ccc(C[N-]C(=O)c2cccc(Nc3cccc(Cl)c3)c2)cc1

>  <Energy>  (85) 
49.393460556055665

>  <Genealogy>  (85) 
[NH-]S(=O)(=O)c1ccc(C[N-]C(=O)c2cccc(Nc3cccc(Cl)c3)c2)cc1 (protonated)
[NH-]S(=O)(=O)c1ccc(C[N-]C(=O)c2cccc(Nc3cccc(Cl)c3)c2)cc1 (3D coordinates assigned)
[NH-]S(=O)(=O)c1ccc(C[N-]C(=O)c2cccc(Nc3cccc(Cl)c3)c2)cc1 (optimized conformer: 49.393460556055665 kcal/mol)

>  <smiles>  (85) 
NS(=O)(=O)c1ccc(CNC(=O)c2cccc(Nc3cccc(Cl)c3)c2)cc1

>  <score_type>  (85) 
oracle

>  <origin>  (85) 
adg

>  <m_score__min__energy>  (85) 
-12.58

>  <m_primary>  (85) 
energy

$$$$
85:0
     RDKit          3D

 39 41  0  0  0  0  0  0  0  0999 V2000
   61.1840   30.7250   48.0260 C   0  0  0  0  0  0  0  0  0  0  0  0
   60.0990   30.2940   47.2120 O   0  0  0  0  0  0  0  0  0  0  0  0
   59.6240   28.9740   47.1490 C   0  0  0  0  0  0  0  0  0  0  0  0
   60.1590   27.9520   47.9600 C   0  0  0  0  0  0  0  0  0  0  0  0
   59.6700   26.6480   47.8660 C   0  0  0  0  0  0  0  0  0  0  0  0
   58.6540   26.3440   46.9620 C   0  0  0  0  0  0  0  0  0  0  0  0
   58.1130   27.3460   46.1540 C   0  0  0  0  0  0  0  0  0  0  0  0
   58.5780   28.6700   46.2540 C   0  0  0  0  0  0  0  0  0  0  0  0
   58.0390   29.7060   45.4130 N   0  0  0  0  0  0  0  0  0  0  0  0
   56.7050   29.6950   44.8780 C   0  0  0  0  0  0  0  0  0  0  0  0
   55.8990   28.7710   45.1730 O   0  0  0  0  0  0  0  0  0  0  0  0
   56.2330   30.8320   44.0240 C   0  0  0  0  0  0  0  0  0  0  0  0
   57.6320   31.6460   43.1760 S   0  0  0  0  0  0  0  0  0  0  0  0
   58.0430   32.7280   44.5440 C   0  0  0  0  0  0  0  0  0  0  0  0
   59.2020   32.6990   45.2310 N   0  0  0  0  0  0  0  0  0  0  0  0
   59.2300   33.6470   46.2220 C   0  0  0  0  0  0  0  0  0  0  0  0
   60.3990   33.7950   47.1190 C   0  0  0  0  0  0  0  0  0  0  0  0
   60.2210   34.0720   48.4870 C   0  0  0  0  0  0  0  0  0  0  0  0
   61.3260   34.2170   49.3310 C   0  0  0  0  0  0  0  0  0  0  0  0
   62.6200   34.0870   48.8190 C   0  0  0  0  0  0  0  0  0  0  0  0
   62.8090   33.8110   47.4640 C   0  0  0  0  0  0  0  0  0  0  0  0
   61.7080   33.6650   46.6160 C   0  0  0  0  0  0  0  0  0  0  0  0
   58.1280   34.4430   46.3460 N   0  0  0  0  0  0  0  0  0  0  0  0
   57.0800   33.9260   45.1670 S   0  0  0  0  0  0  0  0  0  0  0  0
   60.9123   30.6171   49.0864 H   0  0  0  0  0  0  0  0  0  0  0  0
   62.0707   30.1108   47.8104 H   0  0  0  0  0  0  0  0  0  0  0  0
   61.4076   31.7802   47.8104 H   0  0  0  0  0  0  0  0  0  0  0  0
   60.9661   28.1836   48.6706 H   0  0  0  0  0  0  0  0  0  0  0  0
   60.0879   25.8580   48.5074 H   0  0  0  0  0  0  0  0  0  0  0  0
   58.2777   25.3132   46.8849 H   0  0  0  0  0  0  0  0  0  0  0  0
   57.3183   27.0986   45.4348 H   0  0  0  0  0  0  0  0  0  0  0  0
   58.6040   30.5760   45.2830 H   0  0  0  0  0  0  0  0  0  0  0  0
   55.5311   30.4469   43.2697 H   0  0  0  0  0  0  0  0  0  0  0  0
   55.7393   31.5721   44.6709 H   0  0  0  0  0  0  0  0  0  0  0  0
   59.2049   34.1752   48.8954 H   0  0  0  0  0  0  0  0  0  0  0  0
   61.1769   34.4336   50.3991 H   0  0  0  0  0  0  0  0  0  0  0  0
   63.4889   34.2022   49.4836 H   0  0  0  0  0  0  0  0  0  0  0  0
   63.8279   33.7081   47.0623 H   0  0  0  0  0  0  0  0  0  0  0  0
   61.8646   33.4472   45.5492 H   0  0  0  0  0  0  0  0  0  0  0  0
  1  2  1  0
  2  3  1  0
  3  4  2  0
  4  5  1  0
  5  6  2  0
  6  7  1  0
  7  8  2  0
  8  9  1  0
  9 10  1  0
 10 11  2  0
 10 12  1  0
 12 13  1  0
 13 14  1  0
 14 15  2  0
 15 16  1  0
 16 17  1  0
 17 18  2  0
 18 19  1  0
 19 20  2  0
 20 21  1  0
 21 22  2  0
 16 23  2  0
 23 24  1  0
  8  3  1  0
 24 14  1  0
 22 17  1  0
  1 25  1  0
  1 26  1  0
  1 27  1  0
  4 28  1  0
  5 29  1  0
  6 30  1  0
  7 31  1  0
  9 32  1  0
 12 33  1  0
 12 34  1  0
 18 35  1  0
 19 36  1  0
 20 37  1  0
 21 38  1  0
 22 39  1  0
M  END
>  <UniqueID>  (86) 
79

>  <SMILES>  (86) 
COc1ccccc1NC(=O)CSc1nc(-c2ccccc2)ns1

>  <Energy>  (86) 
75.43534672810212

>  <Genealogy>  (86) 
COc1ccccc1NC(=O)CSc1nc(-c2ccccc2)ns1 (3D coordinates assigned)
COc1ccccc1NC(=O)CSc1nc(-c2ccccc2)ns1 (optimized conformer: 75.43534672810212 kcal/mol)

>  <smiles>  (86) 
COc1ccccc1NC(=O)CSc1nc(-c2ccccc2)ns1

>  <score_type>  (86) 
oracle

>  <origin>  (86) 
adg

>  <m_score__min__energy>  (86) 
-7.5

>  <m_primary>  (86) 
energy

$$$$
86:0
     RDKit          3D

 74 77  0  0  0  0  0  0  0  0999 V2000
   58.1440   31.7100   50.5050 C   0  0  0  0  0  0  0  0  0  0  0  0
   58.7650   32.7620   51.4230 C   0  0  0  0  0  0  0  0  0  0  0  0
   59.7080   33.7250   50.6820 C   0  0  0  0  0  0  0  0  0  0  0  0
   61.1110   33.8460   51.3070 C   0  0  0  0  0  0  0  0  0  0  0  0
   62.1210   33.0950   50.5430 N   0  0  0  0  0  0  0  0  0  0  0  0
   63.0400   33.8240   49.6540 C   0  0  0  0  0  0  0  0  0  0  0  0
   64.0250   32.8830   48.9340 C   0  0  0  0  0  0  0  0  0  0  0  0
   63.6520   32.5880   47.4720 C   0  0  0  0  0  0  0  0  0  0  0  0
   62.9320   33.7480   46.7920 C   0  0  0  0  0  0  0  0  0  0  0  0
   62.0070   31.6650   50.4160 C   0  0  0  0  0  0  0  0  0  0  0  0
   62.5520   30.8470   51.3660 N   0  0  0  0  0  0  0  0  0  0  0  0
   62.4440   29.4830   51.2940 C   0  0  0  0  0  0  0  0  0  0  0  0
   63.0890   28.6310   52.3360 C   0  0  0  0  0  0  0  0  0  0  0  0
   61.7850   28.8990   50.2500 N   0  0  0  0  0  0  0  0  0  0  0  0
   61.2420   29.6990   49.3020 C   0  0  0  0  0  0  0  0  0  0  0  0
   60.4620   29.3590   48.2190 C   0  0  0  0  0  0  0  0  0  0  0  0
   60.0300   27.9940   47.8600 C   0  0  0  0  0  0  0  0  0  0  0  0
   59.2040   27.3970   48.6030 O   0  0  0  0  0  0  0  0  0  0  0  0
   60.4990   27.3660   46.6570 N   0  0  0  0  0  0  0  0  0  0  0  0
   60.0770   26.0260   46.2590 C   0  0  0  0  0  0  0  0  0  0  0  0
   58.5780   25.9750   46.1530 C   0  0  0  0  0  0  0  0  0  0  0  0
   57.8490   27.1130   45.7710 C   0  0  0  0  0  0  0  0  0  0  0  0
   56.4590   27.0470   45.6360 C   0  0  0  0  0  0  0  0  0  0  0  0
   55.7880   25.8450   45.8740 C   0  0  0  0  0  0  0  0  0  0  0  0
   54.4400   25.7820   45.7410 F   0  0  0  0  0  0  0  0  0  0  0  0
   56.5080   24.7040   46.2450 C   0  0  0  0  0  0  0  0  0  0  0  0
   57.8990   24.7660   46.3800 C   0  0  0  0  0  0  0  0  0  0  0  0
   60.0980   30.5880   47.6460 C   0  0  0  0  0  0  0  0  0  0  0  0
   59.3030   30.7950   46.4170 C   0  0  0  0  0  0  0  0  0  0  0  0
   58.4920   31.9310   46.2900 C   0  0  0  0  0  0  0  0  0  0  0  0
   57.7380   32.1360   45.1310 C   0  0  0  0  0  0  0  0  0  0  0  0
   57.7920   31.2170   44.0760 C   0  0  0  0  0  0  0  0  0  0  0  0
   57.0130   31.4640   42.9360 O   0  0  0  0  0  0  0  0  0  0  0  0
   57.5170   32.0140   41.7230 C   0  0  0  0  0  0  0  0  0  0  0  0
   58.6210   30.0850   44.1930 C   0  0  0  0  0  0  0  0  0  0  0  0
   59.3750   29.8810   45.3530 C   0  0  0  0  0  0  0  0  0  0  0  0
   60.6190   31.6170   48.3620 N   0  0  0  0  0  0  0  0  0  0  0  0
   61.3210   31.0560   49.3630 C   0  0  0  0  0  0  0  0  0  0  0  0
   57.6783   30.9210   51.1138 H   0  0  0  0  0  0  0  0  0  0  0  0
   57.3799   32.1824   49.8702 H   0  0  0  0  0  0  0  0  0  0  0  0
   58.9268   31.2693   49.8702 H   0  0  0  0  0  0  0  0  0  0  0  0
   57.9554   33.3483   51.8822 H   0  0  0  0  0  0  0  0  0  0  0  0
   59.3642   32.2291   52.1760 H   0  0  0  0  0  0  0  0  0  0  0  0
   59.8214   33.3681   49.6477 H   0  0  0  0  0  0  0  0  0  0  0  0
   59.2495   34.7230   50.7425 H   0  0  0  0  0  0  0  0  0  0  0  0
   61.3995   34.9073   51.3298 H   0  0  0  0  0  0  0  0  0  0  0  0
   61.0688   33.4236   52.3218 H   0  0  0  0  0  0  0  0  0  0  0  0
   62.4489   34.3627   48.8987 H   0  0  0  0  0  0  0  0  0  0  0  0
   63.6280   34.5177   50.2729 H   0  0  0  0  0  0  0  0  0  0  0  0
   65.0218   33.3479   48.9497 H   0  0  0  0  0  0  0  0  0  0  0  0
   63.9973   31.9227   49.4697 H   0  0  0  0  0  0  0  0  0  0  0  0
   64.5740   32.3720   46.9123 H   0  0  0  0  0  0  0  0  0  0  0  0
   62.9621   31.7312   47.4762 H   0  0  0  0  0  0  0  0  0  0  0  0
   62.5151   34.4197   47.5569 H   0  0  0  0  0  0  0  0  0  0  0  0
   63.6439   34.3041   46.1644 H   0  0  0  0  0  0  0  0  0  0  0  0
   62.1177   33.3568   46.1644 H   0  0  0  0  0  0  0  0  0  0  0  0
   62.8104   28.9990   53.3345 H   0  0  0  0  0  0  0  0  0  0  0  0
   62.7499   27.5909   52.2207 H   0  0  0  0  0  0  0  0  0  0  0  0
   64.1821   28.6752   52.2207 H   0  0  0  0  0  0  0  0  0  0  0  0
   61.0320   27.9330   45.9620 H   0  0  0  0  0  0  0  0  0  0  0  0
   60.5208   25.7780   45.2835 H   0  0  0  0  0  0  0  0  0  0  0  0
   60.4128   25.3000   47.0141 H   0  0  0  0  0  0  0  0  0  0  0  0
   58.3738   28.0601   45.5772 H   0  0  0  0  0  0  0  0  0  0  0  0
   55.8927   27.9430   45.3419 H   0  0  0  0  0  0  0  0  0  0  0  0
   55.9797   23.7572   46.4307 H   0  0  0  0  0  0  0  0  0  0  0  0
   58.4629   23.8655   46.6647 H   0  0  0  0  0  0  0  0  0  0  0  0
   58.4486   32.6658   47.1074 H   0  0  0  0  0  0  0  0  0  0  0  0
   57.0973   33.0262   45.0471 H   0  0  0  0  0  0  0  0  0  0  0  0
   58.2436   32.8069   41.9540 H   0  0  0  0  0  0  0  0  0  0  0  0
   58.0105   31.2232   41.1390 H   0  0  0  0  0  0  0  0  0  0  0  0
   56.6862   32.4368   41.1390 H   0  0  0  0  0  0  0  0  0  0  0  0
   58.6758   29.3584   43.3690 H   0  0  0  0  0  0  0  0  0  0  0  0
   60.0283   28.9996   45.4326 H   0  0  0  0  0  0  0  0  0  0  0  0
   60.4940   32.6340   48.1650 H   0  0  0  0  0  0  0  0  0  0  0  0
  1  2  1  0
  2  3  1  0
  3  4  1  0
  4  5  1  0
  5  6  1  0
  6  7  1  0
  7  8  1  0
  8  9  1  0
  5 10  1  0
 10 11  2  0
 11 12  1  0
 12 13  1  0
 12 14  2  0
 14 15  1  0
 15 16  1  0
 16 17  1  0
 17 18  2  0
 17 19  1  0
 19 20  1  0
 20 21  1  0
 21 22  2  0
 22 23  1  0
 23 24  2  0
 24 25  1  0
 24 26  1  0
 26 27  2  0
 16 28  2  0
 28 29  1  0
 29 30  2  0
 30 31  1  0
 31 32  2  0
 32 33  1  0
 33 34  1  0
 32 35  1  0
 35 36  2  0
 28 37  1  0
 37 38  1  0
 38 10  1  0
 38 15  2  0
 27 21  1  0
 36 29  1  0
  1 39  1  0
  1 40  1  0
  1 41  1  0
  2 42  1  0
  2 43  1  0
  3 44  1  0
  3 45  1  0
  4 46  1  0
  4 47  1  0
  6 48  1  0
  6 49  1  0
  7 50  1  0
  7 51  1  0
  8 52  1  0
  8 53  1  0
  9 54  1  0
  9 55  1  0
  9 56  1  0
 13 57  1  0
 13 58  1  0
 13 59  1  0
 19 60  1  0
 20 61  1  0
 20 62  1  0
 22 63  1  0
 23 64  1  0
 26 65  1  0
 27 66  1  0
 30 67  1  0
 31 68  1  0
 34 69  1  0
 34 70  1  0
 34 71  1  0
 35 72  1  0
 36 73  1  0
 37 74  1  0
M  END
>  <UniqueID>  (87) 
80

>  <SMILES>  (87) 
CCCCN(CCCC)c1nc(C)nc2c(C(=O)NCc3ccc(F)cc3)c(-c3ccc(OC)cc3)[nH]c12

>  <Energy>  (87) 
105.33316735673489

>  <Genealogy>  (87) 
CCCCN(CCCC)c1nc(C)nc2c(C(=O)NCc3ccc(F)cc3)c(-c3ccc(OC)cc3)[nH]c12 (3D coordinates assigned)
CCCCN(CCCC)c1nc(C)nc2c(C(=O)NCc3ccc(F)cc3)c(-c3ccc(OC)cc3)[nH]c12 (optimized conformer: 105.33316735673489 kcal/mol)

>  <smiles>  (87) 
CCCCN(CCCC)c1nc(C)nc2c(C(=O)NCc3ccc(F)cc3)c(-c3ccc(OC)cc3)[nH]c12

>  <score_type>  (87) 
oracle

>  <origin>  (87) 
adg

>  <m_score__min__energy>  (87) 
-7.5

>  <m_primary>  (87) 
energy

$$$$
87:0
     RDKit          3D

 52 55  0  0  0  0  0  0  0  0999 V2000
   56.6290   21.3200   47.9630 C   0  0  0  0  0  0  0  0  0  0  0  0
   57.3710   22.1650   47.0890 O   0  0  0  0  0  0  0  0  0  0  0  0
   57.0970   22.3350   45.7220 C   0  0  0  0  0  0  0  0  0  0  0  0
   57.3930   21.3340   44.7740 C   0  0  0  0  0  0  0  0  0  0  0  0
   57.1110   21.5390   43.4190 C   0  0  0  0  0  0  0  0  0  0  0  0
   56.5310   22.7360   42.9970 C   0  0  0  0  0  0  0  0  0  0  0  0
   56.2340   23.7360   43.9250 C   0  0  0  0  0  0  0  0  0  0  0  0
   56.5160   23.5430   45.2890 C   0  0  0  0  0  0  0  0  0  0  0  0
   56.2230   24.8560   46.4360 S   0  0  0  0  0  0  0  0  0  0  0  0
   55.8980   24.2780   47.7850 O   0  0  0  0  0  0  0  0  0  0  0  0
   55.0620   25.6930   45.9760 O   0  0  0  0  0  0  0  0  0  0  0  0
   57.6690   25.9050   46.5620 C   0  0  0  0  0  0  0  0  0  0  0  0
   57.5960   27.0220   45.5670 C   0  0  0  0  0  0  0  0  0  0  0  0
   58.1770   27.0250   44.3150 C   0  0  0  0  0  0  0  0  0  0  0  0
   57.8100   28.2260   43.7380 C   0  0  0  0  0  0  0  0  0  0  0  0
   57.0390   28.8770   44.6840 C   0  0  0  0  0  0  0  0  0  0  0  0
   56.4000   30.1880   44.5270 C   0  0  0  0  0  0  0  0  0  0  0  0
   55.1430   30.2640   44.4880 O   0  0  0  0  0  0  0  0  0  0  0  0
   57.2050   31.3650   44.4130 N   0  0  0  0  0  0  0  0  0  0  0  0
   57.5650   32.2190   45.5460 C   0  0  2  0  0  0  0  0  0  0  0  0
   57.5390   33.6880   45.0930 C   0  0  0  0  0  0  0  0  0  0  0  0
   58.1760   34.5930   46.1450 C   0  0  0  0  0  0  0  0  0  0  0  0
   59.6570   34.2430   46.3070 C   0  0  0  0  0  0  0  0  0  0  0  0
   59.8780   32.7630   46.5120 C   0  0  0  0  0  0  0  0  0  0  0  0
   61.1030   32.3310   47.0500 C   0  0  0  0  0  0  0  0  0  0  0  0
   61.3650   30.9710   47.2160 C   0  0  0  0  0  0  0  0  0  0  0  0
   60.4060   30.0250   46.8530 C   0  0  0  0  0  0  0  0  0  0  0  0
   59.1860   30.4370   46.3090 C   0  0  0  0  0  0  0  0  0  0  0  0
   58.9210   31.8020   46.0960 C   0  0  0  0  0  0  0  0  0  0  0  0
   56.9370   28.1400   45.7660 O   0  0  0  0  0  0  0  0  0  0  0  0
   56.8579   21.5807   49.0069 H   0  0  0  0  0  0  0  0  0  0  0  0
   55.5531   21.4560   47.7786 H   0  0  0  0  0  0  0  0  0  0  0  0
   56.9029   20.2707   47.7786 H   0  0  0  0  0  0  0  0  0  0  0  0
   57.8478   20.3874   45.1013 H   0  0  0  0  0  0  0  0  0  0  0  0
   57.3470   20.7548   42.6846 H   0  0  0  0  0  0  0  0  0  0  0  0
   56.3074   22.8920   41.9313 H   0  0  0  0  0  0  0  0  0  0  0  0
   55.7777   24.6784   43.5878 H   0  0  0  0  0  0  0  0  0  0  0  0
   57.7226   26.3270   47.5764 H   0  0  0  0  0  0  0  0  0  0  0  0
   58.5650   25.3017   46.3540 H   0  0  0  0  0  0  0  0  0  0  0  0
   58.8014   26.2365   43.8697 H   0  0  0  0  0  0  0  0  0  0  0  0
   58.0760   28.5890   42.7343 H   0  0  0  0  0  0  0  0  0  0  0  0
   56.8383   32.1057   46.3639 H   0  0  0  0  0  0  0  0  0  0  0  0
   58.0966   33.7841   44.1497 H   0  0  0  0  0  0  0  0  0  0  0  0
   56.4919   33.9945   44.9527 H   0  0  0  0  0  0  0  0  0  0  0  0
   58.0819   35.6423   45.8284 H   0  0  0  0  0  0  0  0  0  0  0  0
   57.6625   34.4467   47.1067 H   0  0  0  0  0  0  0  0  0  0  0  0
   60.1961   34.5589   45.4017 H   0  0  0  0  0  0  0  0  0  0  0  0
   60.0301   34.7655   47.2002 H   0  0  0  0  0  0  0  0  0  0  0  0
   61.8615   33.0720   47.3426 H   0  0  0  0  0  0  0  0  0  0  0  0
   62.3287   30.6441   47.6335 H   0  0  0  0  0  0  0  0  0  0  0  0
   60.6102   28.9535   46.9951 H   0  0  0  0  0  0  0  0  0  0  0  0
   58.4261   29.6868   46.0450 H   0  0  0  0  0  0  0  0  0  0  0  0
  1  2  1  0
  2  3  1  0
  3  4  2  0
  4  5  1  0
  5  6  2  0
  6  7  1  0
  7  8  2  0
  8  9  1  0
  9 10  2  0
  9 11  2  0
  9 12  1  0
 12 13  1  0
 13 14  2  0
 14 15  1  0
 15 16  2  0
 16 17  1  0
 17 18  2  0
 17 19  1  0
 19 20  1  0
 20 21  1  0
 21 22  1  0
 22 23  1  0
 23 24  1  0
 24 25  2  0
 25 26  1  0
 26 27  2  0
 27 28  1  0
 28 29  2  0
 16 30  1  0
  8  3  1  0
 30 13  1  0
 29 20  1  0
 29 24  1  0
  1 31  1  0
  1 32  1  0
  1 33  1  0
  4 34  1  0
  5 35  1  0
  6 36  1  0
  7 37  1  0
 12 38  1  0
 12 39  1  0
 14 40  1  0
 15 41  1  0
 20 42  1  1
 21 43  1  0
 21 44  1  0
 22 45  1  0
 22 46  1  0
 23 47  1  0
 23 48  1  0
 25 49  1  0
 26 50  1  0
 27 51  1  0
 28 52  1  0
M  CHG  1  19  -1
M  END
>  <UniqueID>  (88) 
81

>  <SMILES>  (88) 
COc1ccccc1S(=O)(=O)Cc1ccc(C(=O)[N-][C@@H]2CCCc3ccccc32)o1

>  <Energy>  (88) 
74.48244903531089

>  <Genealogy>  (88) 
COc1ccccc1S(=O)(=O)Cc1ccc(C(=O)[N-]C2CCCc3ccccc32)o1 (protonated)
COc1ccccc1S(=O)(=O)Cc1ccc(C(=O)[N-][C@@H]2CCCc3ccccc32)o1 (chirality)
COc1ccccc1S(=O)(=O)Cc1ccc(C(=O)[N-][C@@H]2CCCc3ccccc32)o1 (3D coordinates assigned)
COc1ccccc1S(=O)(=O)Cc1ccc(C(=O)[N-][C@@H]2CCCc3ccccc32)o1 (nonaromatic ring conformer: 74.48244903531089 kcal/mol)

>  <smiles>  (88) 
COc1ccccc1S(=O)(=O)Cc1ccc(C(=O)NC2CCCc3ccccc32)o1

>  <score_type>  (88) 
oracle

>  <origin>  (88) 
adg

>  <m_score__min__energy>  (88) 
-11.880000000000001

>  <m_primary>  (88) 
energy

$$$$
88:0
     RDKit          3D

 26 28  0  0  0  0  0  0  0  0999 V2000
   57.0120   33.4230   45.2430 O   0  0  0  0  0  0  0  0  0  0  0  0
   57.3690   32.2190   45.1620 C   0  0  0  0  0  0  0  0  0  0  0  0
   58.6440   31.8210   45.4060 N   0  0  0  0  0  0  0  0  0  0  0  0
   58.5670   30.4970   45.2070 C   0  0  0  0  0  0  0  0  0  0  0  0
   59.5920   29.5610   45.3020 C   0  0  0  0  0  0  0  0  0  0  0  0
   59.2760   28.2170   45.0350 C   0  0  0  0  0  0  0  0  0  0  0  0
   57.9540   27.8340   44.7040 C   0  0  0  0  0  0  0  0  0  0  0  0
   57.6850   26.4520   44.4130 N   0  0  0  0  0  0  0  0  0  0  0  0
   57.3830   25.5100   45.2610 C   0  0  0  0  0  0  0  0  0  0  0  0
   56.1030   24.7650   45.2530 C   0  0  0  0  0  0  0  0  0  0  0  0
   54.8900   25.3770   45.6170 C   0  0  0  0  0  0  0  0  0  0  0  0
   54.8590   26.7090   46.0150 O   0  0  0  0  0  0  0  0  0  0  0  0
   53.7350   24.6580   45.6010 N   0  0  0  0  0  0  0  0  0  0  0  0
   53.7370   23.3400   45.2650 C   0  0  0  0  0  0  0  0  0  0  0  0
   52.6600   22.6870   45.2560 O   0  0  0  0  0  0  0  0  0  0  0  0
   54.9010   22.7220   44.9420 N   0  0  0  0  0  0  0  0  0  0  0  0
   56.0780   23.3980   44.9350 C   0  0  0  0  0  0  0  0  0  0  0  0
   57.1400   22.7900   44.6310 O   0  0  0  0  0  0  0  0  0  0  0  0
   56.9470   28.8240   44.5880 C   0  0  0  0  0  0  0  0  0  0  0  0
   57.2980   30.1440   44.8610 C   0  0  0  0  0  0  0  0  0  0  0  0
   56.5080   31.2270   44.8210 N   0  0  0  0  0  0  0  0  0  0  0  0
   60.6139   29.8618   45.5764 H   0  0  0  0  0  0  0  0  0  0  0  0
   60.0663   27.4534   45.0840 H   0  0  0  0  0  0  0  0  0  0  0  0
   58.1250   25.2519   46.0309 H   0  0  0  0  0  0  0  0  0  0  0  0
   52.8370   25.1240   45.8640 H   0  0  0  0  0  0  0  0  0  0  0  0
   55.9213   28.5588   44.2920 H   0  0  0  0  0  0  0  0  0  0  0  0
  1  2  2  0
  2  3  1  0
  3  4  1  0
  4  5  2  0
  5  6  1  0
  6  7  2  0
  7  8  1  0
  8  9  2  3
  9 10  1  0
 10 11  2  0
 11 12  1  0
 11 13  1  0
 13 14  1  0
 14 15  2  0
 14 16  1  0
 16 17  1  0
 17 18  2  0
  7 19  1  0
 19 20  2  0
 20 21  1  0
 21  2  1  0
 20  4  1  0
 17 10  1  0
  5 22  1  0
  6 23  1  0
  9 24  1  0
 13 25  1  0
 19 26  1  0
M  CHG  4   3  -1  12  -1  16  -1  21  -1
M  END
>  <UniqueID>  (89) 
82

>  <SMILES>  (89) 
O=c1[n-]c2ccc(N=Cc3c([O-])[nH]c(=O)[n-]c3=O)cc2[n-]1

>  <Energy>  (89) 
78.339208122049

>  <Genealogy>  (89) 
O=c1[n-]c2ccc(N=Cc3c([O-])[nH]c(=O)[n-]c3=O)cc2[n-]1 (protonated)
O=c1[n-]c2ccc(N=Cc3c([O-])[nH]c(=O)[n-]c3=O)cc2[n-]1 (3D coordinates assigned)
O=c1[n-]c2ccc(N=Cc3c([O-])[nH]c(=O)[n-]c3=O)cc2[n-]1 (optimized conformer: 78.339208122049 kcal/mol)

>  <smiles>  (89) 
O=c1[nH]c(O)c(C=Nc2ccc3[nH]c(=O)[nH]c3c2)c(=O)[nH]1

>  <score_type>  (89) 
oracle

>  <origin>  (89) 
adg

>  <m_score__min__energy>  (89) 
-14.27

>  <m_primary>  (89) 
energy

$$$$
89:0
     RDKit          3D

 27 28  0  0  0  0  0  0  0  0999 V2000
   57.7780   33.0860   44.8940 C   0  0  0  0  0  0  0  0  0  0  0  0
   58.4690   31.9320   44.4270 O   0  0  0  0  0  0  0  0  0  0  0  0
   58.1990   30.6230   44.8500 C   0  0  0  0  0  0  0  0  0  0  0  0
   58.6250   30.1290   46.0990 C   0  0  0  0  0  0  0  0  0  0  0  0
   58.3310   28.8150   46.4750 C   0  0  0  0  0  0  0  0  0  0  0  0
   57.6080   27.9760   45.6140 C   0  0  0  0  0  0  0  0  0  0  0  0
   57.3020   26.5850   46.0120 C   0  0  0  0  0  0  0  0  0  0  0  0
   56.0470   26.0320   46.1980 C   0  0  0  0  0  0  0  0  0  0  0  0
   54.8240   26.6700   46.0120 O   0  0  0  0  0  0  0  0  0  0  0  0
   56.1510   24.7380   46.5630 N   0  0  0  0  0  0  0  0  0  0  0  0
   57.4850   24.5330   46.5920 C   0  0  0  0  0  0  0  0  0  0  0  0
   57.9960   23.4200   46.8890 O   0  0  0  0  0  0  0  0  0  0  0  0
   58.2130   25.6260   46.2750 N   0  0  0  0  0  0  0  0  0  0  0  0
   59.6700   25.7200   46.2080 C   0  0  0  0  0  0  0  0  0  0  0  0
   57.1830   28.4680   44.3710 C   0  0  0  0  0  0  0  0  0  0  0  0
   57.4770   29.7810   43.9950 C   0  0  0  0  0  0  0  0  0  0  0  0
   57.7748   33.0913   45.9940 H   0  0  0  0  0  0  0  0  0  0  0  0
   58.2832   33.9905   44.5244 H   0  0  0  0  0  0  0  0  0  0  0  0
   56.7421   33.0677   44.5244 H   0  0  0  0  0  0  0  0  0  0  0  0
   59.1913   30.7801   46.7811 H   0  0  0  0  0  0  0  0  0  0  0  0
   58.6684   28.4369   47.4513 H   0  0  0  0  0  0  0  0  0  0  0  0
   54.1240   26.7030   46.7420 H   0  0  0  0  0  0  0  0  0  0  0  0
   60.0830   25.7466   47.2272 H   0  0  0  0  0  0  0  0  0  0  0  0
   60.0696   24.8458   45.6732 H   0  0  0  0  0  0  0  0  0  0  0  0
   59.9540   26.6383   45.6732 H   0  0  0  0  0  0  0  0  0  0  0  0
   56.6158   27.8172   43.6894 H   0  0  0  0  0  0  0  0  0  0  0  0
   57.1382   30.1569   43.0183 H   0  0  0  0  0  0  0  0  0  0  0  0
  1  2  1  0
  2  3  1  0
  3  4  2  0
  4  5  1  0
  5  6  2  0
  6  7  1  0
  7  8  2  0
  8  9  1  0
  8 10  1  0
 10 11  1  0
 11 12  2  0
 11 13  1  0
 13 14  1  0
  6 15  1  0
 15 16  2  0
 16  3  1  0
 13  7  1  0
  1 17  1  0
  1 18  1  0
  1 19  1  0
  4 20  1  0
  5 21  1  0
  9 22  1  0
 14 23  1  0
 14 24  1  0
 14 25  1  0
 15 26  1  0
 16 27  1  0
M  CHG  1  10  -1
M  END
>  <UniqueID>  (90) 
83

>  <SMILES>  (90) 
COc1ccc(-c2c(O)[n-]c(=O)n2C)cc1

>  <Energy>  (90) 
63.41322431706603

>  <Genealogy>  (90) 
COc1ccc(-c2c(O)[n-]c(=O)n2C)cc1 (protonated)
COc1ccc(-c2c(O)[n-]c(=O)n2C)cc1 (3D coordinates assigned)
COc1ccc(-c2c(O)[n-]c(=O)n2C)cc1 (optimized conformer: 63.41322431706603 kcal/mol)

>  <smiles>  (90) 
COc1ccc(-c2c(O)[nH]c(=O)n2C)cc1

>  <score_type>  (90) 
oracle

>  <origin>  (90) 
adg

>  <m_score__min__energy>  (90) 
-7.9900000000000002

>  <m_primary>  (90) 
energy

$$$$
90:0
     RDKit          3D

 32 34  0  0  1  0  0  0  0  0999 V2000
   58.9740   23.3730   45.5240 C   0  0  0  0  0  0  0  0  0  0  0  0
   58.3850   24.7220   45.7710 C   0  0  0  0  0  0  0  0  0  0  0  0
   59.1780   25.8430   45.9880 C   0  0  0  0  0  0  0  0  0  0  0  0
   58.5630   27.0780   46.2130 C   0  0  0  0  0  0  0  0  0  0  0  0
   59.2710   28.1160   46.4140 N   0  0  0  0  0  0  0  0  0  0  0  0
   58.8990   29.4360   46.1200 C   0  0  0  0  0  0  0  0  0  0  0  0
   57.7950   29.7910   45.4380 N   0  0  0  0  0  0  0  0  0  0  0  0
   57.5430   31.0950   45.2180 C   0  0  0  0  0  0  0  0  0  0  0  0
   56.5200   31.4600   44.5830 O   0  0  0  0  0  0  0  0  0  0  0  0
   58.3780   32.1070   45.6650 C   0  0  0  0  0  0  0  0  0  0  0  0
   58.0850   33.4420   45.4180 C   0  0  0  0  0  0  0  0  0  0  0  0
   58.9640   34.4210   45.8930 C   0  0  0  0  0  0  0  0  0  0  0  0
   60.1060   34.0540   46.5990 C   0  0  0  0  0  0  0  0  0  0  0  0
   60.3710   32.7010   46.8300 C   0  0  0  0  0  0  0  0  0  0  0  0
   59.5000   31.7160   46.3600 C   0  0  0  0  0  0  0  0  0  0  0  0
   59.7290   30.4230   46.5670 N   0  0  0  0  0  0  0  0  0  0  0  0
   57.2330   27.2010   46.2230 N   0  0  0  0  0  0  0  0  0  0  0  0
   56.5000   26.0980   46.0100 C   0  0  0  0  0  0  0  0  0  0  0  0
   55.2030   26.1450   46.0060 N   0  0  0  0  0  0  0  0  0  0  0  0
   57.0560   24.8780   45.7880 N   0  0  0  0  0  0  0  0  0  0  0  0
   59.1874   22.8843   46.4861 H   0  0  0  0  0  0  0  0  0  0  0  0
   58.2613   22.7609   44.9519 H   0  0  0  0  0  0  0  0  0  0  0  0
   59.9075   23.4796   44.9519 H   0  0  0  0  0  0  0  0  0  0  0  0
   60.2748   25.7593   45.9827 H   0  0  0  0  0  0  0  0  0  0  0  0
   57.1799   33.7238   44.8600 H   0  0  0  0  0  0  0  0  0  0  0  0
   58.7520   35.4844   45.7080 H   0  0  0  0  0  0  0  0  0  0  0  0
   60.7963   34.8244   46.9732 H   0  0  0  0  0  0  0  0  0  0  0  0
   61.2737   32.4097   47.3870 H   0  0  0  0  0  0  0  0  0  0  0  0
   60.5960   30.1700   47.1010 H   0  0  0  0  0  0  0  0  0  0  0  0
   56.7880   28.1270   46.3920 H   0  0  0  0  0  0  0  0  0  0  0  0
   54.7640   27.0960   45.9830 H   0  0  0  0  0  0  0  0  0  0  0  0
   56.4760   24.0210   45.6210 H   0  0  0  0  0  0  0  0  0  0  0  0
  1  2  1  0
  2  3  2  0
  3  4  1  0
  4  5  2  0
  5  6  1  0
  6  7  2  0
  7  8  1  0
  8  9  2  0
  8 10  1  0
 10 11  2  0
 11 12  1  0
 12 13  2  0
 13 14  1  0
 14 15  2  0
 15 16  1  0
  4 17  1  0
 17 18  1  0
 18 19  2  3
 18 20  1  0
 20  2  1  0
 16  6  1  0
 15 10  1  0
  1 21  1  0
  1 22  1  0
  1 23  1  0
  3 24  1  0
 11 25  1  0
 12 26  1  0
 13 27  1  0
 14 28  1  0
 16 29  1  0
 17 30  1  0
 19 31  1  0
 20 32  1  0
M  END
>  <smiles>  (91) 
Cc1cc(=Nc2nc(=O)c3ccccc3[nH]2)[nH]c(=N)[nH]1

>  <score_type>  (91) 
oracle

>  <origin>  (91) 
adg

>  <m_score__min__energy>  (91) 
-7.9000000000000004

>  <m_primary>  (91) 
energy

$$$$
91:0
     RDKit          3D

 36 37  0  0  0  0  0  0  0  0999 V2000
   54.7910   26.3400   46.0160 N   0  0  0  0  0  0  0  0  0  0  0  0
   56.4250   25.7880   46.1280 S   0  0  0  0  0  0  0  0  0  0  0  0
   56.8290   25.1450   44.8310 O   0  0  0  0  0  0  0  0  0  0  0  0
   56.5360   24.7680   47.2270 O   0  0  0  0  0  0  0  0  0  0  0  0
   57.4790   27.1540   46.4720 C   0  0  0  0  0  0  0  0  0  0  0  0
   57.3520   28.3420   45.7430 C   0  0  0  0  0  0  0  0  0  0  0  0
   58.1820   29.4330   46.0210 C   0  0  0  0  0  0  0  0  0  0  0  0
   59.1450   29.3530   47.0430 C   0  0  0  0  0  0  0  0  0  0  0  0
   60.0370   30.4990   47.3450 C   0  0  0  0  0  0  0  0  0  0  0  0
   60.9820   30.7730   46.5540 O   0  0  0  0  0  0  0  0  0  0  0  0
   59.8510   31.2920   48.5260 N   0  0  0  0  0  0  0  0  0  0  0  0
   60.5700   32.5520   48.7170 C   0  0  0  0  0  0  0  0  0  0  0  0
   59.6290   33.7600   48.6180 C   0  0  0  0  0  0  0  0  0  0  0  0
   58.9730   33.8410   47.2630 C   0  0  0  0  0  0  0  0  0  0  0  0
   59.5900   34.5550   46.2220 C   0  0  0  0  0  0  0  0  0  0  0  0
   58.9980   34.6080   44.9570 C   0  0  0  0  0  0  0  0  0  0  0  0
   57.7890   33.9460   44.7200 C   0  0  0  0  0  0  0  0  0  0  0  0
   57.1710   33.2310   45.7480 C   0  0  0  0  0  0  0  0  0  0  0  0
   57.7590   33.1760   47.0160 C   0  0  0  0  0  0  0  0  0  0  0  0
   59.2700   28.1550   47.7680 C   0  0  0  0  0  0  0  0  0  0  0  0
   58.4390   27.0660   47.4880 C   0  0  0  0  0  0  0  0  0  0  0  0
   54.6750   27.0940   46.7310 H   0  0  0  0  0  0  0  0  0  0  0  0
   56.5959   28.4181   44.9477 H   0  0  0  0  0  0  0  0  0  0  0  0
   58.0809   30.3594   45.4366 H   0  0  0  0  0  0  0  0  0  0  0  0
   59.2240   30.9390   49.2820 H   0  0  0  0  0  0  0  0  0  0  0  0
   61.0411   32.5470   49.7110 H   0  0  0  0  0  0  0  0  0  0  0  0
   61.3271   32.6397   47.9238 H   0  0  0  0  0  0  0  0  0  0  0  0
   58.8486   33.6690   49.3879 H   0  0  0  0  0  0  0  0  0  0  0  0
   60.2235   34.6732   48.7683 H   0  0  0  0  0  0  0  0  0  0  0  0
   60.5426   35.0743   46.4033 H   0  0  0  0  0  0  0  0  0  0  0  0
   59.4837   35.1713   44.1466 H   0  0  0  0  0  0  0  0  0  0  0  0
   57.3249   33.9886   43.7236 H   0  0  0  0  0  0  0  0  0  0  0  0
   56.2204   32.7103   45.5604 H   0  0  0  0  0  0  0  0  0  0  0  0
   57.2699   32.6105   47.8228 H   0  0  0  0  0  0  0  0  0  0  0  0
   60.0274   28.0738   48.5616 H   0  0  0  0  0  0  0  0  0  0  0  0
   58.5396   26.1367   48.0678 H   0  0  0  0  0  0  0  0  0  0  0  0
  1  2  1  0
  2  3  2  0
  2  4  2  0
  2  5  1  0
  5  6  2  0
  6  7  1  0
  7  8  2  0
  8  9  1  0
  9 10  2  0
  9 11  1  0
 11 12  1  0
 12 13  1  0
 13 14  1  0
 14 15  2  0
 15 16  1  0
 16 17  2  0
 17 18  1  0
 18 19  2  0
  8 20  1  0
 20 21  2  0
 21  5  1  0
 19 14  1  0
  1 22  1  0
  6 23  1  0
  7 24  1  0
 11 25  1  0
 12 26  1  0
 12 27  1  0
 13 28  1  0
 13 29  1  0
 15 30  1  0
 16 31  1  0
 17 32  1  0
 18 33  1  0
 19 34  1  0
 20 35  1  0
 21 36  1  0
M  CHG  1   1  -1
M  END
>  <UniqueID>  (92) 
84

>  <SMILES>  (92) 
[NH-]S(=O)(=O)c1ccc(C(=O)NCCc2ccccc2)cc1

>  <Energy>  (92) 
34.14809330681445

>  <Genealogy>  (92) 
[NH-]S(=O)(=O)c1ccc(C(=O)NCCc2ccccc2)cc1 (protonated)
[NH-]S(=O)(=O)c1ccc(C(=O)NCCc2ccccc2)cc1 (3D coordinates assigned)
[NH-]S(=O)(=O)c1ccc(C(=O)NCCc2ccccc2)cc1 (optimized conformer: 34.14809330681445 kcal/mol)

>  <smiles>  (92) 
NS(=O)(=O)c1ccc(C(=O)NCCc2ccccc2)cc1

>  <score_type>  (92) 
oracle

>  <origin>  (92) 
adg

>  <m_score__min__energy>  (92) 
-10.460000000000001

>  <m_primary>  (92) 
energy

$$$$
92:0
     RDKit          3D

 39 41  0  0  0  0  0  0  0  0999 V2000
   57.5550   31.7930   43.2980 O   0  0  0  0  0  0  0  0  0  0  0  0
   57.0720   31.1830   44.5860 S   0  0  0  0  0  0  0  0  0  0  0  0
   55.5720   31.1040   44.5190 O   0  0  0  0  0  0  0  0  0  0  0  0
   57.7270   29.5450   44.7570 C   0  0  0  0  0  0  0  0  0  0  0  0
   59.1090   29.3390   44.6110 C   0  0  0  0  0  0  0  0  0  0  0  0
   59.6490   28.0550   44.7200 C   0  0  0  0  0  0  0  0  0  0  0  0
   58.8180   26.9660   44.9820 C   0  0  0  0  0  0  0  0  0  0  0  0
   57.4440   27.1590   45.1440 C   0  0  0  0  0  0  0  0  0  0  0  0
   56.8950   28.4430   45.0380 C   0  0  0  0  0  0  0  0  0  0  0  0
   55.5260   28.6050   45.2170 O   0  0  0  0  0  0  0  0  0  0  0  0
   57.5370   32.2140   45.9210 N   0  0  0  0  0  0  0  0  0  0  0  0
   58.1060   31.4090   47.0240 C   0  0  0  0  0  0  0  0  0  0  0  0
   58.9790   32.2480   47.9620 C   0  0  0  0  0  0  0  0  0  0  0  0
   60.0690   32.8760   47.2040 N   0  0  0  0  0  0  0  0  0  0  0  0
   61.3190   33.2050   47.8480 C   0  0  0  0  0  0  0  0  0  0  0  0
   61.3350   33.8770   49.0850 C   0  0  0  0  0  0  0  0  0  0  0  0
   62.5470   34.1940   49.7060 C   0  0  0  0  0  0  0  0  0  0  0  0
   63.7570   33.8460   49.1000 C   0  0  0  0  0  0  0  0  0  0  0  0
   63.7550   33.1780   47.8740 C   0  0  0  0  0  0  0  0  0  0  0  0
   62.5460   32.8590   47.2490 C   0  0  0  0  0  0  0  0  0  0  0  0
   59.8710   33.1480   45.7730 C   0  0  0  0  0  0  0  0  0  0  0  0
   58.3790   33.3470   45.4720 C   0  0  0  0  0  0  0  0  0  0  0  0
   59.7705   30.1945   44.4095 H   0  0  0  0  0  0  0  0  0  0  0  0
   60.7317   27.9027   44.5989 H   0  0  0  0  0  0  0  0  0  0  0  0
   59.2445   25.9551   45.0611 H   0  0  0  0  0  0  0  0  0  0  0  0
   56.7910   26.2995   45.3556 H   0  0  0  0  0  0  0  0  0  0  0  0
   57.2810   30.9711   47.6051 H   0  0  0  0  0  0  0  0  0  0  0  0
   58.7411   30.6285   46.5796 H   0  0  0  0  0  0  0  0  0  0  0  0
   58.3634   33.0298   48.4308 H   0  0  0  0  0  0  0  0  0  0  0  0
   59.4069   31.5958   48.7376 H   0  0  0  0  0  0  0  0  0  0  0  0
   60.3861   34.1550   49.5670 H   0  0  0  0  0  0  0  0  0  0  0  0
   62.5479   34.7181   50.6731 H   0  0  0  0  0  0  0  0  0  0  0  0
   64.7099   34.0980   49.5882 H   0  0  0  0  0  0  0  0  0  0  0  0
   64.7077   32.9019   47.3984 H   0  0  0  0  0  0  0  0  0  0  0  0
   62.5529   32.3340   46.2824 H   0  0  0  0  0  0  0  0  0  0  0  0
   60.4219   34.0591   45.4968 H   0  0  0  0  0  0  0  0  0  0  0  0
   60.2434   32.2925   45.1904 H   0  0  0  0  0  0  0  0  0  0  0  0
   58.0381   34.2598   45.9825 H   0  0  0  0  0  0  0  0  0  0  0  0
   58.2728   33.4204   44.3796 H   0  0  0  0  0  0  0  0  0  0  0  0
  1  2  2  0
  2  3  2  0
  2  4  1  0
  4  5  2  0
  5  6  1  0
  6  7  2  0
  7  8  1  0
  8  9  2  0
  9 10  1  0
  2 11  1  0
 11 12  1  0
 12 13  1  0
 13 14  1  0
 14 15  1  0
 15 16  2  0
 16 17  1  0
 17 18  2  0
 18 19  1  0
 19 20  2  0
 14 21  1  0
 21 22  1  0
  9  4  1  0
 22 11  1  0
 20 15  1  0
  5 23  1  0
  6 24  1  0
  7 25  1  0
  8 26  1  0
 12 27  1  0
 12 28  1  0
 13 29  1  0
 13 30  1  0
 16 31  1  0
 17 32  1  0
 18 33  1  0
 19 34  1  0
 20 35  1  0
 21 36  1  0
 21 37  1  0
 22 38  1  0
 22 39  1  0
M  CHG  1  10  -1
M  END
>  <UniqueID>  (93) 
85

>  <SMILES>  (93) 
O=S(=O)(c1ccccc1[O-])N1CCN(c2ccccc2)CC1

>  <Energy>  (93) 
49.987123594067924

>  <Genealogy>  (93) 
O=S(=O)(c1ccccc1[O-])N1CCN(c2ccccc2)CC1 (protonated)
O=S(=O)(c1ccccc1[O-])N1CCN(c2ccccc2)CC1 (3D coordinates assigned)
O=S(=O)(c1ccccc1[O-])N1CCN(c2ccccc2)CC1 (nonaromatic ring conformer: 49.987123594067924 kcal/mol)

>  <smiles>  (93) 
O=S(=O)(c1ccccc1O)N1CCN(c2ccccc2)CC1

>  <score_type>  (93) 
oracle

>  <origin>  (93) 
adg

>  <m_score__min__energy>  (93) 
-11.77

>  <m_primary>  (93) 
energy

$$$$
93:0
     RDKit          3D

 47 49  0  0  0  0  0  0  0  0999 V2000
   57.0100   20.3740   45.2830 C   0  0  0  0  0  0  0  0  0  0  0  0
   57.2890   21.6020   44.0270 S   0  0  0  0  0  0  0  0  0  0  0  0
   58.6130   21.3550   43.3620 O   0  0  0  0  0  0  0  0  0  0  0  0
   56.2020   21.5040   42.9950 O   0  0  0  0  0  0  0  0  0  0  0  0
   57.2860   23.2020   44.7600 C   0  0  0  0  0  0  0  0  0  0  0  0
   56.0850   23.9030   44.9410 C   0  0  0  0  0  0  0  0  0  0  0  0
   56.0960   25.1730   45.5280 C   0  0  0  0  0  0  0  0  0  0  0  0
   57.3030   25.7500   45.9510 C   0  0  0  0  0  0  0  0  0  0  0  0
   57.3210   27.1380   46.5320 C   0  0  0  0  0  0  0  0  0  0  0  0
   57.0890   28.1870   45.4770 C   0  0  0  0  0  0  0  0  0  0  0  0
   55.8950   28.7740   45.2410 N   0  0  0  0  0  0  0  0  0  0  0  0
   56.1750   29.6990   44.3020 C   0  0  0  0  0  0  0  0  0  0  0  0
   55.3030   30.4650   43.8150 O   0  0  0  0  0  0  0  0  0  0  0  0
   57.4710   29.7380   43.9440 N   0  0  0  0  0  0  0  0  0  0  0  0
   58.0580   28.7770   44.6770 C   0  0  0  0  0  0  0  0  0  0  0  0
   59.5380   28.5020   44.6890 C   0  0  0  0  0  0  0  0  0  0  0  0
   60.3170   29.4790   45.5840 C   0  0  0  0  0  0  0  0  0  0  0  0
   59.4560   30.1730   46.6520 C   0  0  0  0  0  0  0  0  0  0  0  0
   59.2730   31.6460   46.3790 C   0  0  0  0  0  0  0  0  0  0  0  0
   58.0840   32.1160   45.7960 C   0  0  0  0  0  0  0  0  0  0  0  0
   57.8970   33.4850   45.5830 C   0  0  0  0  0  0  0  0  0  0  0  0
   58.8950   34.3940   45.9500 C   0  0  0  0  0  0  0  0  0  0  0  0
   60.0840   33.9320   46.5220 C   0  0  0  0  0  0  0  0  0  0  0  0
   60.2770   32.5660   46.7300 C   0  0  0  0  0  0  0  0  0  0  0  0
   58.5030   25.0440   45.7690 C   0  0  0  0  0  0  0  0  0  0  0  0
   58.4930   23.7750   45.1820 C   0  0  0  0  0  0  0  0  0  0  0  0
   57.1147   20.8350   46.2762 H   0  0  0  0  0  0  0  0  0  0  0  0
   55.9955   19.9627   45.1748 H   0  0  0  0  0  0  0  0  0  0  0  0
   57.7472   19.5648   45.1748 H   0  0  0  0  0  0  0  0  0  0  0  0
   55.1332   23.4539   44.6211 H   0  0  0  0  0  0  0  0  0  0  0  0
   55.1522   25.7227   45.6587 H   0  0  0  0  0  0  0  0  0  0  0  0
   56.5300   27.2163   47.2924 H   0  0  0  0  0  0  0  0  0  0  0  0
   58.3128   27.3111   46.9751 H   0  0  0  0  0  0  0  0  0  0  0  0
   57.9170   30.3880   43.2610 H   0  0  0  0  0  0  0  0  0  0  0  0
   59.7026   27.4791   45.0585 H   0  0  0  0  0  0  0  0  0  0  0  0
   59.9071   28.6281   43.6605 H   0  0  0  0  0  0  0  0  0  0  0  0
   61.1153   28.9194   46.0936 H   0  0  0  0  0  0  0  0  0  0  0  0
   60.7066   30.2703   44.9266 H   0  0  0  0  0  0  0  0  0  0  0  0
   58.4666   29.6927   46.6743 H   0  0  0  0  0  0  0  0  0  0  0  0
   59.9755   30.0738   47.6165 H   0  0  0  0  0  0  0  0  0  0  0  0
   57.2973   31.4040   45.5061 H   0  0  0  0  0  0  0  0  0  0  0  0
   56.9643   33.8477   45.1264 H   0  0  0  0  0  0  0  0  0  0  0  0
   58.7443   35.4716   45.7886 H   0  0  0  0  0  0  0  0  0  0  0  0
   60.8691   34.6471   46.8087 H   0  0  0  0  0  0  0  0  0  0  0  0
   61.2188   32.2070   47.1706 H   0  0  0  0  0  0  0  0  0  0  0  0
   59.4554   25.4913   46.0897 H   0  0  0  0  0  0  0  0  0  0  0  0
   59.4362   23.2244   45.0510 H   0  0  0  0  0  0  0  0  0  0  0  0
  1  2  1  0
  2  3  2  0
  2  4  2  0
  2  5  1  0
  5  6  2  0
  6  7  1  0
  7  8  2  0
  8  9  1  0
  9 10  1  0
 10 11  1  0
 11 12  1  0
 12 13  2  0
 12 14  1  0
 14 15  1  0
 15 16  1  0
 16 17  1  0
 17 18  1  0
 18 19  1  0
 19 20  2  0
 20 21  1  0
 21 22  2  0
 22 23  1  0
 23 24  2  0
  8 25  1  0
 25 26  2  0
 26  5  1  0
 15 10  2  0
 24 19  1  0
  1 27  1  0
  1 28  1  0
  1 29  1  0
  6 30  1  0
  7 31  1  0
  9 32  1  0
  9 33  1  0
 14 34  1  0
 16 35  1  0
 16 36  1  0
 17 37  1  0
 17 38  1  0
 18 39  1  0
 18 40  1  0
 20 41  1  0
 21 42  1  0
 22 43  1  0
 23 44  1  0
 24 45  1  0
 25 46  1  0
 26 47  1  0
M  CHG  1  11  -1
M  END
>  <UniqueID>  (94) 
86

>  <SMILES>  (94) 
CS(=O)(=O)c1ccc(Cc2[n-]c(=O)[nH]c2CCCc2ccccc2)cc1

>  <Energy>  (94) 
69.57218214082718

>  <Genealogy>  (94) 
CS(=O)(=O)c1ccc(Cc2[n-]c(=O)[nH]c2CCCc2ccccc2)cc1 (protonated)
CS(=O)(=O)c1ccc(Cc2[n-]c(=O)[nH]c2CCCc2ccccc2)cc1 (3D coordinates assigned)
CS(=O)(=O)c1ccc(Cc2[n-]c(=O)[nH]c2CCCc2ccccc2)cc1 (optimized conformer: 69.57218214082718 kcal/mol)

>  <smiles>  (94) 
CS(=O)(=O)c1ccc(Cc2[nH]c(=O)[nH]c2CCCc2ccccc2)cc1

>  <score_type>  (94) 
oracle

>  <origin>  (94) 
adg

>  <m_score__min__energy>  (94) 
-10.449999999999999

>  <m_primary>  (94) 
energy

$$$$
94:0
     RDKit          3D

 48 51  0  0  0  0  0  0  0  0999 V2000
   57.9520   30.1370   50.5240 N   0  0  0  0  0  0  0  0  0  0  0  0
   58.4860   31.3010   50.3280 C   0  0  0  0  0  0  0  0  0  0  0  0
   59.0370   31.9970   51.4090 C   0  0  0  0  0  0  0  0  0  0  0  0
   59.6190   33.2450   51.1950 C   0  0  0  0  0  0  0  0  0  0  0  0
   59.6420   33.7920   49.9130 C   0  0  0  0  0  0  0  0  0  0  0  0
   59.0740   33.0790   48.8460 C   0  0  0  0  0  0  0  0  0  0  0  0
   59.0890   33.6470   47.4770 C   0  0  0  0  0  0  0  0  0  0  0  0
   59.7560   34.8590   47.2310 C   0  0  0  0  0  0  0  0  0  0  0  0
   59.8210   35.3820   45.9370 C   0  0  0  0  0  0  0  0  0  0  0  0
   59.2180   34.7030   44.8770 C   0  0  0  0  0  0  0  0  0  0  0  0
   58.5430   33.5040   45.1090 C   0  0  0  0  0  0  0  0  0  0  0  0
   58.4710   32.9670   46.4080 C   0  0  0  0  0  0  0  0  0  0  0  0
   57.7530   31.7880   46.6570 O   0  0  0  0  0  0  0  0  0  0  0  0
   57.8160   30.6290   45.8710 C   0  0  0  0  0  0  0  0  0  0  0  0
   57.3830   30.7050   44.5420 C   0  0  0  0  0  0  0  0  0  0  0  0
   57.4100   29.5740   43.7230 C   0  0  0  0  0  0  0  0  0  0  0  0
   57.8590   28.3560   44.2300 C   0  0  0  0  0  0  0  0  0  0  0  0
   58.2740   28.2600   45.5610 C   0  0  0  0  0  0  0  0  0  0  0  0
   58.2500   29.3920   46.3980 C   0  0  0  0  0  0  0  0  0  0  0  0
   58.6060   29.3050   47.7850 N   0  0  0  0  0  0  0  0  0  0  0  0
   60.1780   28.9090   48.3990 S   0  0  0  0  0  0  0  0  0  0  0  0
   60.0450   28.3870   49.8020 O   0  0  0  0  0  0  0  0  0  0  0  0
   60.7880   27.8420   47.5340 O   0  0  0  0  0  0  0  0  0  0  0  0
   61.2060   30.3370   48.3530 C   0  0  0  0  0  0  0  0  0  0  0  0
   61.3900   31.0440   47.1560 C   0  0  0  0  0  0  0  0  0  0  0  0
   62.2150   32.1730   47.1280 C   0  0  0  0  0  0  0  0  0  0  0  0
   62.8570   32.6000   48.2940 C   0  0  0  0  0  0  0  0  0  0  0  0
   62.6730   31.9010   49.4910 C   0  0  0  0  0  0  0  0  0  0  0  0
   61.8480   30.7720   49.5210 C   0  0  0  0  0  0  0  0  0  0  0  0
   58.5180   31.8500   49.0780 N   0  0  0  0  0  0  0  0  0  0  0  0
   58.1320   29.3290   49.8870 H   0  0  0  0  0  0  0  0  0  0  0  0
   59.0111   31.5629   52.4194 H   0  0  0  0  0  0  0  0  0  0  0  0
   60.0600   33.7982   52.0373 H   0  0  0  0  0  0  0  0  0  0  0  0
   60.1022   34.7758   49.7389 H   0  0  0  0  0  0  0  0  0  0  0  0
   60.2304   35.3999   48.0631 H   0  0  0  0  0  0  0  0  0  0  0  0
   60.3480   36.3299   45.7534 H   0  0  0  0  0  0  0  0  0  0  0  0
   59.2749   35.1134   43.8580 H   0  0  0  0  0  0  0  0  0  0  0  0
   58.0642   32.9753   44.2716 H   0  0  0  0  0  0  0  0  0  0  0  0
   57.0190   31.6620   44.1400 H   0  0  0  0  0  0  0  0  0  0  0  0
   57.0766   29.6447   42.6771 H   0  0  0  0  0  0  0  0  0  0  0  0
   57.8868   27.4682   43.5811 H   0  0  0  0  0  0  0  0  0  0  0  0
   58.6214   27.2944   45.9571 H   0  0  0  0  0  0  0  0  0  0  0  0
   60.8847   30.7101   46.2377 H   0  0  0  0  0  0  0  0  0  0  0  0
   62.3588   32.7254   46.1877 H   0  0  0  0  0  0  0  0  0  0  0  0
   63.5075   33.4867   48.2699 H   0  0  0  0  0  0  0  0  0  0  0  0
   63.1769   32.2389   50.4086 H   0  0  0  0  0  0  0  0  0  0  0  0
   61.7025   30.2239   50.4635 H   0  0  0  0  0  0  0  0  0  0  0  0
   58.1250   31.3080   48.2740 H   0  0  0  0  0  0  0  0  0  0  0  0
  1  2  2  3
  2  3  1  0
  3  4  2  0
  4  5  1  0
  5  6  2  0
  6  7  1  0
  7  8  2  0
  8  9  1  0
  9 10  2  0
 10 11  1  0
 11 12  2  0
 12 13  1  0
 13 14  1  0
 14 15  2  0
 15 16  1  0
 16 17  2  0
 17 18  1  0
 18 19  2  0
 19 20  1  0
 20 21  1  0
 21 22  2  0
 21 23  2  0
 21 24  1  0
 24 25  2  0
 25 26  1  0
 26 27  2  0
 27 28  1  0
 28 29  2  0
  6 30  1  0
 30  2  1  0
 12  7  1  0
 19 14  1  0
 29 24  1  0
  1 31  1  0
  3 32  1  0
  4 33  1  0
  5 34  1  0
  8 35  1  0
  9 36  1  0
 10 37  1  0
 11 38  1  0
 15 39  1  0
 16 40  1  0
 17 41  1  0
 18 42  1  0
 25 43  1  0
 26 44  1  0
 27 45  1  0
 28 46  1  0
 29 47  1  0
 30 48  1  0
M  CHG  1  20  -1
M  END
>  <UniqueID>  (95) 
87

>  <SMILES>  (95) 
N=c1cccc(-c2ccccc2Oc2ccccc2[N-]S(=O)(=O)c2ccccc2)[nH]1

>  <Energy>  (95) 
68.79765846223204

>  <Genealogy>  (95) 
N=c1cccc(-c2ccccc2Oc2ccccc2[N-]S(=O)(=O)c2ccccc2)[nH]1 (protonated)
N=c1cccc(-c2ccccc2Oc2ccccc2[N-]S(=O)(=O)c2ccccc2)[nH]1 (3D coordinates assigned)
N=c1cccc(-c2ccccc2Oc2ccccc2[N-]S(=O)(=O)c2ccccc2)[nH]1 (optimized conformer: 68.79765846223204 kcal/mol)

>  <smiles>  (95) 
N=c1cccc(-c2ccccc2Oc2ccccc2NS(=O)(=O)c2ccccc2)[nH]1

>  <score_type>  (95) 
oracle

>  <origin>  (95) 
adg

>  <m_score__min__energy>  (95) 
-11.31

>  <m_primary>  (95) 
energy

$$$$
